#------------------------------------------------------------------------------
#$Date: 2016-02-13 21:28:24 +0200 (Sat, 13 Feb 2016) $
#$Revision: 176429 $
#$URL: svn://www.crystallography.net/cod/cif/4/34/31/4343135.cif $
#------------------------------------------------------------------------------
#
# This file is available in the Crystallography Open Database (COD),
# http://www.crystallography.net/
#
# All data on this site have been placed in the public domain by the
# contributors.
#
data_4343135
loop_
_publ_author_name
'Murphy, Denissa T.'
'Schmid, Siegbert'
'Hester, James R.'
'Blanchard, Peter E. R.'
'Miiller, Wojciech'
_publ_section_title
;
 Coordination Site Disorder in Spinel-Type LiMnTiO4.
;
_journal_issue                   10
_journal_name_full               'Inorganic chemistry'
_journal_page_first              4636
_journal_page_last               4643
_journal_paper_doi               10.1021/ic502747p
_journal_volume                  54
_journal_year                    2015
_chemical_formula_sum            'Li Mn O4 Ti'
_chemical_formula_weight         173.8
_chemical_name_common            Lithium_manganese_titanate_slowcooled_900C
_chemical_name_systematic        ' Lithium_manganese_titanate'
_space_group_IT_number           212
_symmetry_cell_setting           cubic
_symmetry_Int_Tables_number      212
_symmetry_space_group_name_Hall  'P 4acd 2ab 3'
_symmetry_space_group_name_H-M   'P 43 3 2'
_cell_angle_alpha                90
_cell_angle_beta                 90
_cell_angle_gamma                90
_cell_formula_units_Z            8
_cell_length_a                   8.4096
_cell_length_b                   8.4096
_cell_length_c                   8.4096
_cell_measurement_temperature    30
_cell_volume                     594.738
_diffrn_ambient_temperature      30
_diffrn_measurement_device_type  powder_diffraction
_diffrn_radiation_probe          x-ray
_diffrn_radiation_type           synchrotron_X-ray
_diffrn_radiation_wavelength     0.82657
_exptl_absorpt_coefficient_mu    10.083
_exptl_crystal_density_diffrn    3.8798
_exptl_crystal_F_000             656
_pd_char_colour                  black
_pd_instr_location               ' ?'
_pd_meas_2theta_range_max        82.007
_pd_meas_2theta_range_min        2.185
_pd_meas_number_of_points        21239
_pd_proc_2theta_range_max        82.007
_pd_proc_2theta_range_min        2.185
_pd_proc_ls_background_function  'Manual background'
_pd_proc_ls_pref_orient_corr     none
_pd_proc_ls_profile_function     Pseudo-Voigt
_pd_proc_ls_prof_R_factor        0.0522
_pd_proc_ls_prof_wR_expected     0.0114
_pd_proc_ls_prof_wR_factor       0.0880
_refine_ls_goodness_of_fit_all   7.69
_refine_ls_number_constraints    3
_refine_ls_number_parameters     21
_refine_ls_number_restraints     0
_refine_ls_R_factor_all          0.0905
_refine_ls_R_factor_gt           0.0905
_refine_ls_shift/su_max          0.0000
_refine_ls_shift/su_mean         0.0000
_refine_ls_weighting_scheme      sigma
_refine_ls_wR_factor_all         0.1330
_refine_ls_wR_factor_gt          0.1330
_cod_data_source_file            ic502747p_si_001.cif
_cod_data_source_block           I
_cod_depositor_comments
;
The following automatic conversions were performed:

'_diffrn_radiation_probe' value 'X-ray' changed to 'x-ray' according
to
/usr/data/users/saulius/crontab/automatic-downloads/current/ACS/lib/dictionaries/cif_core.dic
dictionary named 'cif_core.dic' version 2.4.2 from 2011-04-26.

Automatic conversion script
Id: cif_fix_values 3271 2015-04-21 07:52:19Z andrius 
;
_cod_original_cell_volume        594.7399
_cod_original_sg_symbol_Hall     'P 4bdn;2ab;3'
_cod_original_formula_sum        'Li1 Mn1 O4 Ti1'
_cod_database_code               4343135
loop_
_symmetry_equiv_pos_site_id
_symmetry_equiv_pos_as_xyz
1 x,y,z
2 -x+1/2,-y,z+1/2
3 -x,y+1/2,-z+1/2
4 x+1/2,-y+1/2,-z
5 z,x,y
6 z+1/2,-x+1/2,-y
7 -z+1/2,-x,y+1/2
8 -z,x+1/2,-y+1/2
9 y,z,x
10 -y,z+1/2,-x+1/2
11 y+1/2,-z+1/2,-x
12 -y+1/2,-z,x+1/2
13 y+1/4,x+3/4,-z+3/4
14 -y+1/4,-x+1/4,-z+1/4
15 y+3/4,-x+3/4,z+1/4
16 -y+3/4,x+1/4,z+3/4
17 x+1/4,z+3/4,-y+3/4
18 -x+3/4,z+1/4,y+3/4
19 -x+1/4,-z+1/4,-y+1/4
20 x+3/4,-z+3/4,y+1/4
21 z+1/4,y+3/4,-x+3/4
22 z+3/4,-y+3/4,x+1/4
23 -z+3/4,y+1/4,x+3/4
24 -z+1/4,-y+1/4,-x+1/4
loop_
_atom_site_label
_atom_site_type_symbol
_atom_site_fract_x
_atom_site_fract_y
_atom_site_fract_z
_atom_site_adp_type
_atom_site_U_iso_or_equiv
_atom_site_symmetry_multiplicity
_atom_site_occupancy
_atom_site_calc_flag
Li21 Li 0.012909 0.012909 0.012909 Uiso 0.038 8 0.6294 d
Mn21 Mn -0.01(4) -0.01(4) -0.01(4) Uiso 0.066(15) 8 0.1059 d
Ti21 Ti 0.012934 0.012934 0.012934 Uiso 0.03(8) 8 0.263 d
Li22 Li 0.625 0.625 0.625 Uiso 0.038 4 0.14 d
Mn22 Mn 0.625 0.625 0.625 Uiso 0.015(18) 4 0.87 d
Li23 Li 0.125 0.371516 0.878484 Uiso 0.038 12 0.2004 d
Mn23 Mn 0.125 0.56(4) 0.69(4) Uiso 0.00(8) 12 0.3078 d
Ti23 Ti 0.125 0.25(3) 1.00(3) Uiso 0.038 12 0.4908 d
O24 O 0.34(6) 0.34(6) 0.34(6) Uiso 0.038 8 1 d
O25 O 0.18(6) -0.02(4) 0.38(9) Uiso 0.038 24 1 d
loop_
_atom_type_symbol
_atom_type_scat_dispersion_real
_atom_type_scat_dispersion_imag
_atom_type_scat_source
Li 0.0001 0.0001 'International Tables Vol C tables 4.2.6.8 and 6.1.1.1'
Mn 0.3616 0.9684 'International Tables Vol C tables 4.2.6.8 and 6.1.1.1'
O 0.0160 0.0088 'International Tables Vol C tables 4.2.6.8 and 6.1.1.1'
Ti 0.3254 0.5998 'International Tables Vol C tables 4.2.6.8 and 6.1.1.1'
loop_
_geom_angle_atom_site_label_1
_geom_angle_atom_site_label_2
_geom_angle_atom_site_label_3
_geom_angle_site_symmetry_1
_geom_angle_site_symmetry_3
_geom_angle
Li21 Ti23 Li21 1_556 14_556 94(11)
Li21 Ti23 Mn21 1_556 1_556 4(7)
Li21 Ti23 Mn21 1_556 14_556 98(13)
Li21 Ti23 Ti21 1_556 1_556 0.0(5)
Li21 Ti23 Ti21 1_556 14_556 94(11)
Li21 Ti23 Li22 1_556 2_565 89(4)
Li21 Ti23 Li22 1_556 3_646 89(9)
Li21 Ti23 Mn22 1_556 2_565 89(4)
Li21 Ti23 Mn22 1_556 3_646 89(9)
Li21 Ti23 Li23 1_556 . 133(14)
Li21 Ti23 Ti23 1_556 5_456 54(7)
Li21 Ti23 Ti23 1_556 9_546 54(9)
Li21 Ti23 O25 1_556 6_456 80(14)
Li21 Ti23 O25 1_556 23_555 110(14)
Li21 Ti23 Mn21 14_556 1_556 98(13)
Li21 Ti23 Mn21 14_556 14_556 4(7)
Li21 Ti23 Ti21 14_556 1_556 94(11)
Li21 Ti23 Ti21 14_556 14_556 0.0(5)
Li21 Ti23 Li22 14_556 2_565 89(9)
Li21 Ti23 Li22 14_556 3_646 89(4)
Li21 Ti23 Mn22 14_556 2_565 89(9)
Li21 Ti23 Mn22 14_556 3_646 89(4)
Li21 Ti23 Li23 14_556 . 133(14)
Li21 Ti23 Ti23 14_556 5_456 54(9)
Li21 Ti23 Ti23 14_556 9_546 54(7)
Li21 Ti23 O25 14_556 6_456 110(14)
Li21 Ti23 O25 14_556 23_555 80(14)
Mn21 Ti23 Mn21 1_556 14_556 103(15)
Mn21 Ti23 Ti21 1_556 1_556 4(7)
Mn21 Ti23 Ti21 1_556 14_556 98(13)
Mn21 Ti23 Li22 1_556 2_565 90(8)
Mn21 Ti23 Li22 1_556 3_646 90(11)
Mn21 Ti23 Mn22 1_556 2_565 90(8)
Mn21 Ti23 Mn22 1_556 3_646 90(11)
Mn21 Ti23 Li23 1_556 . 129(16)
Mn21 Ti23 Ti23 1_556 5_456 57(10)
Mn21 Ti23 Ti23 1_556 9_546 57(11)
Mn21 Ti23 O25 1_556 6_456 78(15)
Mn21 Ti23 O25 1_556 23_555 111(16)
Mn21 Ti23 Ti21 14_556 1_556 98(13)
Mn21 Ti23 Ti21 14_556 14_556 4(7)
Mn21 Ti23 Li22 14_556 2_565 90(11)
Mn21 Ti23 Li22 14_556 3_646 90(8)
Mn21 Ti23 Mn22 14_556 2_565 90(11)
Mn21 Ti23 Mn22 14_556 3_646 90(8)
Mn21 Ti23 Li23 14_556 . 129(16)
Mn21 Ti23 Ti23 14_556 5_456 57(11)
Mn21 Ti23 Ti23 14_556 9_546 57(10)
Mn21 Ti23 O25 14_556 6_456 111(16)
Mn21 Ti23 O25 14_556 23_555 78(15)
Ti21 Ti23 Ti21 1_556 14_556 94(11)
Ti21 Ti23 Li22 1_556 2_565 89(4)
Ti21 Ti23 Li22 1_556 3_646 89(9)
Ti21 Ti23 Mn22 1_556 2_565 89(4)
Ti21 Ti23 Mn22 1_556 3_646 89(9)
Ti21 Ti23 Li23 1_556 . 133(14)
Ti21 Ti23 Ti23 1_556 5_456 54(7)
Ti21 Ti23 Ti23 1_556 9_546 54(9)
Ti21 Ti23 O25 1_556 6_456 80(14)
Ti21 Ti23 O25 1_556 23_555 110(14)
Ti21 Ti23 Li22 14_556 2_565 89(9)
Ti21 Ti23 Li22 14_556 3_646 89(4)
Ti21 Ti23 Mn22 14_556 2_565 89(9)
Ti21 Ti23 Mn22 14_556 3_646 89(4)
Ti21 Ti23 Li23 14_556 . 133(14)
Ti21 Ti23 Ti23 14_556 5_456 54(9)
Ti21 Ti23 Ti23 14_556 9_546 54(7)
Ti21 Ti23 O25 14_556 6_456 110(14)
Ti21 Ti23 O25 14_556 23_555 80(14)
Li22 Ti23 Li22 2_565 3_646 179(13)
Li22 Ti23 Mn22 2_565 2_565 0.0(5)
Li22 Ti23 Mn22 2_565 3_646 179(13)
Li22 Ti23 Li23 2_565 . 91(9)
Li22 Ti23 Ti23 2_565 5_456 59(6)
Li22 Ti23 Ti23 2_565 9_546 119(11)
Li22 Ti23 O25 2_565 6_456 23(10)
Li22 Ti23 O25 2_565 23_555 158(16)
Li22 Ti23 Mn22 3_646 2_565 179(13)
Li22 Ti23 Mn22 3_646 3_646 0.0(5)
Li22 Ti23 Li23 3_646 . 91(9)
Li22 Ti23 Ti23 3_646 5_456 119(11)
Li22 Ti23 Ti23 3_646 9_546 59(6)
Li22 Ti23 O25 3_646 6_456 158(16)
Li22 Ti23 O25 3_646 23_555 23(10)
Mn22 Ti23 Mn22 2_565 3_646 179(13)
Mn22 Ti23 Li23 2_565 . 91(9)
Mn22 Ti23 Ti23 2_565 5_456 59(6)
Mn22 Ti23 Ti23 2_565 9_546 119(11)
Mn22 Ti23 O25 2_565 6_456 23(10)
Mn22 Ti23 O25 2_565 23_555 158(16)
Mn22 Ti23 Li23 3_646 . 91(9)
Mn22 Ti23 Ti23 3_646 5_456 119(11)
Mn22 Ti23 Ti23 3_646 9_546 59(6)
Mn22 Ti23 O25 3_646 6_456 158(16)
Mn22 Ti23 O25 3_646 23_555 23(10)
Li23 Ti23 Ti23 . 5_456 150(11)
Li23 Ti23 Ti23 . 9_546 150(11)
Li23 Ti23 O25 . 6_456 83(13)
Li23 Ti23 O25 . 23_555 83(13)
Ti23 Ti23 Ti23 5_456 9_546 60(9)
Ti23 Ti23 O25 5_456 6_456 69(12)
Ti23 Ti23 O25 5_456 23_555 125(16)
Ti23 Ti23 O25 9_546 6_456 125(16)
Ti23 Ti23 O25 9_546 23_555 69(12)
O25 Ti23 O25 6_456 23_555 170(20)
loop_
_geom_bond_atom_site_label_1
_geom_bond_atom_site_label_2
_geom_bond_site_symmetry_2
_geom_bond_distance
Ti23 Li21 1_556 2.2(3)
Ti23 Li21 14_556 2.2(3)
Ti23 Mn21 1_556 2.4(4)
Ti23 Mn21 14_556 2.4(4)
Ti23 Ti21 1_556 2.2(3)
Ti23 Ti21 14_556 2.2(3)
Ti23 Li22 2_565 2.58(16)
Ti23 Li22 3_646 2.58(16)
Ti23 Mn22 2_565 2.58(16)
Ti23 Mn22 3_646 2.58(16)
Ti23 Li23 . 1.4(3)
Ti23 Ti23 5_456 2.6(4)
Ti23 Ti23 9_546 2.6(4)
Ti23 O25 6_456 2.2(7)
Ti23 O25 23_555 2.2(7)
loop_
_pd_proc_point_id
_pd_proc_2theta_corrected
_pd_proc_intensity_net
_pd_calc_intensity_net
_pd_proc_ls_weight
1 2.1885 52892.80 48496.70 285.34
2 2.1922 52142.30 48481.30 287.93
3 2.1960 53159.30 48465.90 302.57
4 2.1997 51576.10 48450.60 300.65
5 2.2035 53291.20 48435.20 311.52
6 2.2072 51690.00 48419.90 306.22
7 2.2110 53219.80 48404.50 312.86
8 2.2147 51996.90 48389.10 309.75
9 2.2185 52797.00 48373.80 307.61
10 2.2222 52250.70 48358.40 310.98
11 2.2260 52782.60 48343.10 309.36
12 2.2298 51205.30 48327.70 304.64
13 2.2335 52891.60 48312.30 311.62
14 2.2373 51653.50 48297.00 307.59
15 2.2410 52947.80 48281.60 312.73
16 2.2448 51701.90 48266.30 309.56
17 2.2485 52435.30 48250.90 309.37
18 2.2523 50913.20 48235.50 303.08
19 2.2560 51925.40 48220.10 307.51
20 2.2598 51721.80 48204.80 308.18
21 2.2636 52679.60 48189.40 315.79
22 2.2673 51203.30 48174.10 307.22
23 2.2710 52177.80 48158.70 306.04
24 2.2748 51174.00 48143.30 304.93
25 2.2786 51652.50 48128.00 309.78
26 2.2823 50748.50 48112.60 306.92
27 2.2861 52393.00 48097.30 312.98
28 2.2898 50718.70 48081.90 304.69
29 2.2936 52621.60 48066.50 312.53
30 2.2973 50697.80 48051.20 302.02
31 2.3011 51873.30 48035.80 308.84
32 2.3049 50648.50 48020.40 300.64
33 2.3086 51525.40 48005.10 309.44
34 2.3124 50490.70 47989.70 300.10
35 2.3161 51758.80 47974.30 309.02
36 2.3199 50333.00 47959.00 303.10
37 2.3236 51678.90 47943.60 304.90
38 2.3274 50591.50 47928.30 305.39
39 2.3311 51651.60 47912.90 306.78
40 2.3349 49928.50 47897.50 301.87
41 2.3386 51517.30 47882.10 304.42
42 2.3424 49746.40 47866.80 302.21
43 2.3461 51077.50 47851.40 304.67
44 2.3499 50262.20 47836.10 299.65
45 2.3537 51341.30 47820.70 311.00
46 2.3574 50073.70 47805.30 302.41
47 2.3612 50724.40 47789.90 303.39
48 2.3649 50576.20 47774.60 304.93
49 2.3687 51804.90 47759.20 311.01
50 2.3724 50413.70 47743.90 304.92
51 2.3762 50886.80 47728.50 305.87
52 2.3799 50076.70 47713.10 300.30
53 2.3837 50865.50 47697.80 304.15
54 2.3874 49454.40 47682.40 296.82
55 2.3912 51098.60 47667.00 305.43
56 2.3950 49762.90 47651.70 303.33
57 2.3987 50886.20 47636.30 302.71
58 2.4025 49427.70 47620.90 299.62
59 2.4062 50584.40 47605.60 303.28
60 2.4100 49973.00 47590.20 301.08
61 2.4137 50725.60 47574.80 302.85
62 2.4175 49738.40 47559.50 301.65
63 2.4213 50585.70 47544.10 303.90
64 2.4250 49501.00 47528.80 300.38
65 2.4288 50371.20 47513.40 301.28
66 2.4325 49119.10 47498.00 297.95
67 2.4363 50795.20 47482.60 306.18
68 2.4400 49433.10 47467.30 300.58
69 2.4438 49981.40 47451.90 299.02
70 2.4475 49338.50 47436.60 299.28
71 2.4513 49903.30 47421.20 298.27
72 2.4550 49182.00 47405.80 298.82
73 2.4588 50184.20 47390.40 303.97
74 2.4626 49349.70 47375.10 295.87
75 2.4663 49824.90 47359.70 303.65
76 2.4701 49038.30 47344.30 295.31
77 2.4738 49904.00 47329.00 302.33
78 2.4776 48488.40 47313.60 293.93
79 2.4813 49226.50 47298.30 297.45
80 2.4851 48715.40 47282.90 299.00
81 2.4888 49848.40 47267.50 302.96
82 2.4926 48142.10 47252.10 297.45
83 2.4964 49899.30 47236.80 303.88
84 2.5001 48688.90 47221.40 297.95
85 2.5039 49454.90 47206.00 301.86
86 2.5076 48573.40 47190.70 296.52
87 2.5114 49638.20 47175.30 301.79
88 2.5151 48225.70 47159.90 294.94
89 2.5189 49777.50 47144.60 302.78
90 2.5226 48353.00 47129.20 294.69
91 2.5264 49392.80 47113.80 300.51
92 2.5302 48002.40 47098.40 297.35
93 2.5339 49990.50 47083.10 302.96
94 2.5377 48337.00 47067.70 295.36
95 2.5414 49661.90 47052.40 301.62
96 2.5452 48567.10 47037.00 299.98
97 2.5489 49281.30 47021.60 299.64
98 2.5527 48424.80 47006.30 295.53
99 2.5564 49097.60 46990.90 297.04
100 2.5602 47948.70 46975.50 297.74
101 2.5640 49124.20 46960.10 299.54
102 2.5677 47873.00 46944.80 294.34
103 2.5715 49137.00 46929.40 299.30
104 2.5752 48218.80 46914.00 295.36
105 2.5790 48756.00 46898.70 296.51
106 2.5827 47999.30 46883.30 295.45
107 2.5865 49328.90 46867.90 303.46
108 2.5903 48111.30 46852.60 298.03
109 2.5940 48986.90 46837.20 298.55
110 2.5978 48437.70 46821.80 299.39
111 2.6015 49011.90 46806.40 297.03
112 2.6053 47796.20 46791.10 291.76
113 2.6090 48725.70 46775.70 299.21
114 2.6128 47477.70 46760.30 294.30
115 2.6165 48952.30 46745.00 298.92
116 2.6203 47533.40 46729.60 293.19
117 2.6241 48885.10 46714.20 298.78
118 2.6278 47840.70 46698.90 295.70
119 2.6316 48944.10 46683.50 298.19
120 2.6353 47579.80 46668.10 293.20
121 2.6391 48449.40 46652.80 293.52
122 2.6428 47364.20 46637.40 291.65
123 2.6466 48707.70 46622.00 297.93
124 2.6504 47581.30 46606.60 290.58
125 2.6541 48564.10 46591.20 296.72
126 2.6579 47521.90 46575.90 294.16
127 2.6616 48703.20 46560.50 298.55
128 2.6654 47356.20 46545.20 297.16
129 2.6691 48354.30 46529.80 301.73
130 2.6729 46991.10 46514.40 292.49
131 2.6766 48792.80 46499.10 303.92
132 2.6804 47338.60 46483.70 296.99
133 2.6842 48407.90 46468.30 302.04
134 2.6879 47491.60 46452.90 297.45
135 2.6917 48261.90 46437.60 304.12
136 2.6954 47468.20 46422.20 292.52
137 2.6992 48330.90 46406.80 298.78
138 2.7029 47104.50 46391.40 297.77
139 2.7067 48010.60 46376.10 299.80
140 2.7104 46876.10 46360.70 295.73
141 2.7142 47934.70 46345.30 290.54
142 2.7180 47112.50 46330.00 297.22
143 2.7217 48091.50 46314.60 302.65
144 2.7255 46832.70 46299.20 293.56
145 2.7292 47939.10 46283.90 300.42
146 2.7330 46755.70 46268.50 297.82
147 2.7367 47321.00 46253.10 289.79
148 2.7405 47163.00 46237.70 295.88
149 2.7443 47767.10 46222.40 300.04
150 2.7480 47064.10 46207.00 295.60
151 2.7518 47300.90 46191.60 291.88
152 2.7555 47007.80 46176.20 297.65
153 2.7593 47872.20 46160.90 299.17
154 2.7631 46928.10 46145.50 293.89
155 2.7668 47544.10 46130.10 299.71
156 2.7706 46938.00 46114.70 295.15
157 2.7743 47647.40 46099.40 298.66
158 2.7781 46618.70 46084.00 294.78
159 2.7818 47470.20 46068.60 299.52
160 2.7856 46490.00 46053.20 295.36
161 2.7893 47668.70 46037.90 301.95
162 2.7931 46824.80 46022.50 294.37
163 2.7969 47252.40 46007.10 295.05
164 2.8006 46458.30 45991.80 292.57
165 2.8044 47466.40 45976.40 293.58
166 2.8081 46817.90 45961.00 298.05
167 2.8119 47750.60 45945.60 303.39
168 2.8156 46436.40 45930.30 294.54
169 2.8194 47021.80 45914.90 293.38
170 2.8232 45810.60 45899.50 289.99
171 2.8269 47381.90 45884.20 295.93
172 2.8307 46335.10 45868.80 290.04
173 2.8344 47010.00 45853.40 294.18
174 2.8382 45862.20 45838.00 290.49
175 2.8419 46860.50 45822.70 291.46
176 2.8457 46045.20 45807.30 290.74
177 2.8495 47314.20 45791.90 295.87
178 2.8532 45922.90 45776.50 290.31
179 2.8570 46513.00 45761.20 288.30
180 2.8607 46002.70 45745.80 290.83
181 2.8645 46360.70 45730.40 289.31
182 2.8682 45809.30 45715.00 289.86
183 2.8720 47320.30 45699.70 294.75
184 2.8758 45927.50 45684.30 285.08
185 2.8795 46872.00 45668.90 293.64
186 2.8833 45708.80 45653.50 289.82
187 2.8870 46332.50 45638.10 288.15
188 2.8908 45903.70 45622.80 290.64
189 2.8945 45983.80 45607.40 283.04
190 2.8983 46044.10 45592.00 290.93
191 2.9021 46167.90 45576.60 288.02
192 2.9058 45652.80 45561.30 283.81
193 2.9096 46326.00 45545.90 290.78
194 2.9133 45524.60 45530.50 286.51
195 2.9171 46718.10 45515.10 293.60
196 2.9208 45283.70 45499.80 287.28
197 2.9246 46172.90 45484.40 288.61
198 2.9284 45230.30 45469.00 285.08
199 2.9321 46848.20 45453.60 295.43
200 2.9359 45200.20 45438.30 285.73
201 2.9396 46919.80 45422.90 296.96
202 2.9434 45389.60 45407.50 291.40
203 2.9471 46368.80 45392.10 290.38
204 2.9509 45204.20 45376.80 285.85
205 2.9547 46149.80 45361.40 289.83
206 2.9584 45030.70 45346.00 284.62
207 2.9622 46191.80 45330.60 290.70
208 2.9659 44932.10 45315.30 281.52
209 2.9697 46117.90 45299.90 293.11
210 2.9734 45341.40 45284.50 290.30
211 2.9772 45891.40 45269.10 291.20
212 2.9810 44822.90 45253.80 284.69
213 2.9847 45834.80 45238.40 288.06
214 2.9885 45143.70 45223.00 285.62
215 2.9922 45551.60 45207.60 287.03
216 2.9960 44746.00 45192.20 284.04
217 2.9997 45745.00 45176.90 286.27
218 3.0035 45242.00 45161.50 286.19
219 3.0073 45673.90 45146.10 284.29
220 3.0110 45123.10 45130.70 286.80
221 3.0148 45477.70 45115.40 287.62
222 3.0185 44310.40 45100.00 280.52
223 3.0223 45537.70 45084.60 288.19
224 3.0261 45222.70 45069.20 286.35
225 3.0298 45442.80 45053.90 288.05
226 3.0336 44812.50 45038.50 282.91
227 3.0373 45737.60 45023.10 287.86
228 3.0411 45237.00 45007.70 289.69
229 3.0449 44871.40 44992.40 280.15
230 3.0486 44708.00 44977.00 286.16
231 3.0524 45613.90 44961.60 290.43
232 3.0561 44715.10 44946.20 285.36
233 3.0599 45623.10 44930.90 288.60
234 3.0636 44830.80 44915.50 285.14
235 3.0674 46165.00 44900.10 290.46
236 3.0712 44544.80 44884.70 284.17
237 3.0749 45314.10 44869.40 285.48
238 3.0787 44651.50 44854.00 285.57
239 3.0824 45411.30 44838.60 286.12
240 3.0862 44355.30 44823.20 285.84
241 3.0899 45448.90 44807.80 286.85
242 3.0937 44740.50 44792.50 286.28
243 3.0975 45706.90 44777.10 288.07
244 3.1012 44597.90 44761.70 285.42
245 3.1050 44888.60 44746.30 278.60
246 3.1087 44516.10 44731.00 281.17
247 3.1125 45621.70 44715.60 290.68
248 3.1163 44350.90 44700.20 286.87
249 3.1200 45049.00 44684.80 284.26
250 3.1238 44485.00 44669.50 282.30
251 3.1275 44959.00 44654.10 283.39
252 3.1313 44500.20 44638.70 280.71
253 3.1350 45350.90 44623.30 286.01
254 3.1388 44417.50 44607.90 286.16
255 3.1426 45172.10 44592.50 288.27
256 3.1463 44534.00 44577.20 285.96
257 3.1501 45398.50 44561.80 293.03
258 3.1538 44124.80 44546.40 284.75
259 3.1576 45494.80 44531.00 290.24
260 3.1614 44273.30 44515.60 284.96
261 3.1651 44864.00 44500.30 284.76
262 3.1689 44528.10 44484.90 281.11
263 3.1726 45422.50 44469.50 289.28
264 3.1764 43891.40 44454.10 278.46
265 3.1801 45054.20 44438.80 288.49
266 3.1839 44580.20 44423.40 278.24
267 3.1876 44990.10 44408.00 288.09
268 3.1914 44380.90 44392.60 288.57
269 3.1952 45270.40 44377.20 286.86
270 3.1989 43877.30 44361.90 281.62
271 3.2027 45485.00 44346.50 293.27
272 3.2064 44009.60 44331.10 283.48
273 3.2102 45629.60 44315.70 291.95
274 3.2140 44267.30 44300.40 284.68
275 3.2177 45234.80 44285.00 286.53
276 3.2215 44129.90 44269.60 282.27
277 3.2252 45401.90 44254.20 286.68
278 3.2290 43926.70 44238.80 283.98
279 3.2328 45250.00 44223.40 290.02
280 3.2365 43838.90 44208.00 284.39
281 3.2403 44988.80 44192.70 288.40
282 3.2440 44178.60 44177.30 284.20
283 3.2478 45158.60 44161.90 288.10
284 3.2515 43890.70 44146.50 282.20
285 3.2553 45772.00 44131.20 293.27
286 3.2591 43996.60 44115.80 285.03
287 3.2628 44480.50 44100.40 285.97
288 3.2666 43969.50 44085.00 286.85
289 3.2703 44291.50 44069.70 287.28
290 3.2741 43512.30 44054.30 285.25
291 3.2779 44888.70 44038.90 288.30
292 3.2816 43796.90 44023.50 286.56
293 3.2854 44724.40 44008.10 280.11
294 3.2891 43908.20 43992.80 282.05
295 3.2929 44456.30 43977.40 285.76
296 3.2966 42846.60 43962.00 278.16
297 3.3004 44775.80 43946.60 287.60
298 3.3042 43966.60 43931.20 284.99
299 3.3079 44519.80 43915.80 285.60
300 3.3117 43659.40 43900.50 279.82
301 3.3154 44737.20 43885.10 288.14
302 3.3192 43847.80 43869.70 284.14
303 3.3230 44556.10 43854.30 285.69
304 3.3267 43508.50 43839.00 283.89
305 3.3305 44878.90 43823.60 286.20
306 3.3342 43363.50 43808.20 280.65
307 3.3380 44143.40 43792.80 285.00
308 3.3418 43410.60 43777.40 284.79
309 3.3455 44902.90 43762.00 286.51
310 3.3493 43606.30 43746.60 286.71
311 3.3530 44800.40 43731.30 285.17
312 3.3568 43726.00 43715.90 285.45
313 3.3605 44159.40 43700.50 281.46
314 3.3643 43891.50 43685.10 285.36
315 3.3681 44388.80 43669.80 281.87
316 3.3718 43474.30 43654.40 282.43
317 3.3756 44338.80 43639.00 286.42
318 3.3793 43004.10 43623.60 279.99
319 3.3831 44276.70 43608.20 284.74
320 3.3869 43455.60 43592.90 285.01
321 3.3906 44561.10 43577.50 285.08
322 3.3944 43461.60 43562.10 282.63
323 3.3981 44437.00 43546.70 289.42
324 3.4019 42841.40 43531.30 280.07
325 3.4057 44782.50 43515.90 287.48
326 3.4094 43545.90 43500.50 284.30
327 3.4132 44281.30 43485.20 288.85
328 3.4169 42826.00 43469.80 280.55
329 3.4207 44508.90 43454.40 287.24
330 3.4244 43317.00 43439.00 279.48
331 3.4282 44305.70 43423.70 280.07
332 3.4320 43070.20 43408.30 279.69
333 3.4357 44406.30 43392.90 290.60
334 3.4395 43347.00 43377.50 278.00
335 3.4432 44203.60 43362.10 283.89
336 3.4470 43455.50 43346.70 283.95
337 3.4508 43937.00 43331.30 285.82
338 3.4545 43721.90 43316.00 285.55
339 3.4583 44338.10 43300.60 288.25
340 3.4620 43463.90 43285.20 283.95
341 3.4658 43882.30 43269.80 286.12
342 3.4696 42757.00 43254.50 279.62
343 3.4733 44234.20 43239.10 287.94
344 3.4771 42787.60 43223.70 277.88
345 3.4808 44007.50 43208.30 284.67
346 3.4846 43185.10 43192.90 283.58
347 3.4884 43690.60 43177.50 282.88
348 3.4921 43417.60 43162.10 283.35
349 3.4959 44404.20 43146.80 287.12
350 3.4996 43465.60 43131.40 287.66
351 3.5034 44080.00 43116.00 286.44
352 3.5072 43160.90 43100.60 282.82
353 3.5109 43820.80 43085.20 287.04
354 3.5147 43321.40 43069.90 282.74
355 3.5184 44147.20 43054.50 289.25
356 3.5222 43195.20 43039.10 284.66
357 3.5259 43974.10 43023.70 284.59
358 3.5297 43095.40 43008.30 281.68
359 3.5335 44591.80 42992.90 292.24
360 3.5372 43363.00 42977.60 280.09
361 3.5410 44040.20 42962.20 284.19
362 3.5447 42763.10 42946.80 277.67
363 3.5485 43992.50 42931.40 285.30
364 3.5523 43343.50 42916.00 280.83
365 3.5560 43772.90 42900.60 285.51
366 3.5598 42787.60 42885.20 280.23
367 3.5635 43891.70 42869.90 285.57
368 3.5673 43088.80 42854.50 280.46
369 3.5711 44272.10 42839.10 288.51
370 3.5748 42982.40 42823.70 285.03
371 3.5786 44138.00 42808.40 283.32
372 3.5823 43060.90 42793.00 279.77
373 3.5861 44183.40 42777.60 293.32
374 3.5899 43094.30 42762.20 279.77
375 3.5936 44304.20 42746.80 285.04
376 3.5974 42860.30 42731.40 282.18
377 3.6011 43530.30 42716.00 283.08
378 3.6049 43225.60 42700.70 284.73
379 3.6087 44121.20 42685.30 290.56
380 3.6124 43325.50 42669.90 286.92
381 3.6162 44314.80 42654.50 286.98
382 3.6199 43536.20 42639.10 284.81
383 3.6237 44356.00 42623.70 290.43
384 3.6275 43284.20 42608.30 289.21
385 3.6312 44527.30 42592.90 288.28
386 3.6350 43024.00 42577.60 280.43
387 3.6387 44394.00 42562.20 287.23
388 3.6425 43211.30 42546.80 278.60
389 3.6463 43709.50 42531.40 278.67
390 3.6500 42518.60 42516.10 272.72
391 3.6538 43850.80 42500.70 283.46
392 3.6575 43447.50 42485.30 280.28
393 3.6613 44326.80 42469.90 283.94
394 3.6651 43186.80 42454.50 278.35
395 3.6688 43912.70 42439.10 282.62
396 3.6726 43065.70 42423.70 283.03
397 3.6763 43825.70 42408.40 282.17
398 3.6801 42832.60 42393.00 278.02
399 3.6839 43831.80 42377.60 280.50
400 3.6876 42840.70 42362.20 280.98
401 3.6914 43760.40 42346.80 273.37
402 3.6951 43402.40 42331.40 280.18
403 3.6989 44394.20 42316.00 286.61
404 3.7027 42450.90 42300.70 275.03
405 3.7064 44006.40 42285.30 283.54
406 3.7102 42882.80 42269.90 282.47
407 3.7139 44088.90 42254.50 285.97
408 3.7177 43281.00 42239.10 280.42
409 3.7215 43683.30 42223.70 283.28
410 3.7252 42867.60 42208.30 281.25
411 3.7290 44040.10 42193.00 287.53
412 3.7327 43259.20 42177.60 280.38
413 3.7365 43580.90 42162.20 285.47
414 3.7403 42743.40 42146.80 278.63
415 3.7440 44034.20 42131.40 280.15
416 3.7478 42989.80 42116.00 280.86
417 3.7515 44273.10 42100.60 283.02
418 3.7553 42697.30 42085.30 275.27
419 3.7590 43686.40 42069.90 281.90
420 3.7628 42914.50 42054.50 281.59
421 3.7666 43517.70 42039.10 282.32
422 3.7703 42817.40 42023.80 279.57
423 3.7741 43671.70 42008.30 284.09
424 3.7778 42650.90 41993.00 280.61
425 3.7816 43653.60 41977.60 282.30
426 3.7854 43062.20 41962.20 280.72
427 3.7891 43548.10 41946.80 283.22
428 3.7929 42513.90 41931.40 280.04
429 3.7966 43825.20 41916.10 284.50
430 3.8004 42368.00 41900.70 277.59
431 3.8042 43533.90 41885.30 280.80
432 3.8079 42293.80 41869.90 278.93
433 3.8117 42953.20 41854.50 278.96
434 3.8154 42545.20 41839.10 279.05
435 3.8192 42929.80 41823.70 279.95
436 3.8230 42179.10 41808.40 275.57
437 3.8267 43249.00 41793.00 284.08
438 3.8305 42359.20 41777.60 276.60
439 3.8342 42921.10 41762.20 276.98
440 3.8380 41989.10 41746.80 274.73
441 3.8418 43451.30 41731.40 286.06
442 3.8455 42001.40 41716.00 269.17
443 3.8493 42674.20 41700.70 277.29
444 3.8530 41675.70 41685.30 273.21
445 3.8568 42146.00 41669.90 274.42
446 3.8606 41701.40 41654.50 270.92
447 3.8643 42428.70 41639.10 278.63
448 3.8681 42501.20 41623.70 278.65
449 3.8718 42554.40 41608.30 278.06
450 3.8756 41633.20 41593.00 271.62
451 3.8794 42692.10 41577.60 279.40
452 3.8831 41785.30 41562.20 276.49
453 3.8869 42559.90 41546.80 277.44
454 3.8906 42097.60 41531.40 276.12
455 3.8944 41916.20 41516.00 272.80
456 3.8982 41129.10 41500.60 270.28
457 3.9019 42493.00 41485.30 279.15
458 3.9057 41489.60 41469.90 273.66
459 3.9094 42302.90 41454.50 278.64
460 3.9132 40982.40 41439.10 269.47
461 3.9170 42589.80 41423.70 276.05
462 3.9207 41397.60 41408.30 272.91
463 3.9245 42317.90 41392.90 278.56
464 3.9282 40580.90 41377.60 269.71
465 3.9320 42219.70 41362.20 273.88
466 3.9358 40812.10 41346.70 268.74
467 3.9395 41951.60 41331.40 270.92
468 3.9433 41155.00 41316.00 270.92
469 3.9471 42382.80 41300.60 279.03
470 3.9508 40975.60 41285.20 272.23
471 3.9546 42188.60 41269.80 275.96
472 3.9583 40758.80 41254.50 273.61
473 3.9621 41939.70 41239.00 275.66
474 3.9659 41376.90 41223.70 271.93
475 3.9696 41627.90 41208.30 272.03
476 3.9734 40911.70 41192.90 272.90
477 3.9771 41667.20 41177.50 273.60
478 3.9809 40943.20 41162.10 272.92
479 3.9846 41630.40 41146.70 270.94
480 3.9884 41133.30 41131.30 273.42
481 3.9922 42126.90 41116.00 275.17
482 3.9959 40718.30 41100.60 274.90
483 3.9997 41950.20 41085.20 277.37
484 4.0034 41048.50 41069.80 271.25
485 4.0072 42061.70 41054.40 274.00
486 4.0110 40613.90 41039.00 270.15
487 4.0147 41369.70 41023.60 274.02
488 4.0185 40417.70 41008.30 270.21
489 4.0223 41702.20 40992.90 278.29
490 4.0260 40902.70 40977.50 272.48
491 4.0298 41378.60 40962.10 276.27
492 4.0335 40770.60 40946.70 270.31
493 4.0373 41166.90 40931.30 273.73
494 4.0410 40797.20 40915.90 272.18
495 4.0448 41566.10 40900.60 273.32
496 4.0486 40768.20 40885.20 274.15
497 4.0523 41758.40 40869.80 274.80
498 4.0561 40866.60 40854.40 274.91
499 4.0599 41771.40 40839.00 277.28
500 4.0636 40135.00 40823.60 267.35
501 4.0674 41351.30 40808.20 270.57
502 4.0711 40486.50 40792.90 268.93
503 4.0749 41060.70 40777.50 274.31
504 4.0786 40594.60 40762.10 272.01
505 4.0824 41338.50 40746.70 273.69
506 4.0862 40654.10 40731.30 270.18
507 4.0899 41362.90 40715.90 269.54
508 4.0937 39883.20 40700.50 264.15
509 4.0975 40980.00 40685.10 272.15
510 4.1012 40632.10 40669.80 271.41
511 4.1050 40910.40 40654.30 273.45
512 4.1087 40662.80 40639.00 274.82
513 4.1125 41205.90 40623.60 269.50
514 4.1163 40321.90 40608.20 264.70
515 4.1200 41256.50 40592.80 267.54
516 4.1238 40275.20 40577.40 262.90
517 4.1275 40850.10 40562.00 263.29
518 4.1313 39818.50 40546.60 261.20
519 4.1351 40799.80 40531.30 264.03
520 4.1388 40319.50 40515.90 262.61
521 4.1426 41205.90 40500.50 263.88
522 4.1463 40194.10 40485.10 262.86
523 4.1501 40864.70 40469.70 266.25
524 4.1539 40432.50 40454.30 265.46
525 4.1576 40733.00 40438.90 265.34
526 4.1614 40106.00 40423.60 262.87
527 4.1651 41210.70 40408.20 266.52
528 4.1689 40250.40 40392.80 261.99
529 4.1727 40441.10 40377.40 263.21
530 4.1764 39716.80 40362.00 262.52
531 4.1802 40526.50 40346.60 263.83
532 4.1839 39905.80 40331.20 260.04
533 4.1877 41064.50 40315.90 265.91
534 4.1915 39902.80 40300.50 263.67
535 4.1952 40673.40 40285.10 267.21
536 4.1990 39901.00 40269.70 263.26
537 4.2027 40576.00 40254.30 261.70
538 4.2065 39640.00 40238.90 261.94
539 4.2103 40533.80 40223.50 263.93
540 4.2140 39639.20 40208.10 260.25
541 4.2178 40664.30 40192.70 267.57
542 4.2215 39939.80 40177.30 261.37
543 4.2253 40817.90 40162.00 266.00
544 4.2291 39628.50 40146.60 261.85
545 4.2328 40863.30 40131.20 266.25
546 4.2366 39763.30 40115.80 258.16
547 4.2403 40472.20 40100.40 264.26
548 4.2441 39962.90 40085.00 261.47
549 4.2479 40419.90 40069.60 264.93
550 4.2516 39823.30 40054.30 262.86
551 4.2554 40753.20 40038.90 264.92
552 4.2592 39936.90 40023.50 262.06
553 4.2629 40906.60 40008.10 267.84
554 4.2667 40228.60 39992.70 264.17
555 4.2704 40362.10 39977.30 264.51
556 4.2742 39371.00 39961.90 260.07
557 4.2780 40141.70 39946.50 262.62
558 4.2817 39219.60 39931.20 258.77
559 4.2855 40557.40 39915.70 262.68
560 4.2892 39372.90 39900.40 261.74
561 4.2930 40240.20 39885.00 263.25
562 4.2968 39747.30 39869.60 263.77
563 4.3005 40131.10 39854.20 261.17
564 4.3043 39155.50 39838.80 261.50
565 4.3080 40869.90 39823.40 268.38
566 4.3118 39078.70 39808.00 258.50
567 4.3156 40074.10 39792.70 263.59
568 4.3193 39188.30 39777.30 254.39
569 4.3231 40182.70 39761.90 260.73
570 4.3268 39236.50 39746.50 260.41
571 4.3306 40058.40 39731.10 262.45
572 4.3344 39197.70 39715.70 259.70
573 4.3381 39641.00 39700.30 260.20
574 4.3419 38867.80 39685.00 255.24
575 4.3456 40158.60 39669.60 264.20
576 4.3494 39645.30 39654.20 262.69
577 4.3532 40196.40 39638.80 263.37
578 4.3569 39185.50 39623.40 258.67
579 4.3607 40056.10 39608.00 262.77
580 4.3644 38903.70 39592.60 259.03
581 4.3682 39934.00 39577.20 264.85
582 4.3720 39060.90 39561.80 259.78
583 4.3757 40090.50 39546.40 265.20
584 4.3795 38607.90 39531.10 257.00
585 4.3833 40005.80 39515.70 264.10
586 4.3870 39341.90 39500.30 261.31
587 4.3908 39981.60 39484.90 262.54
588 4.3945 38706.70 39469.50 259.23
589 4.3983 39653.70 39454.10 262.66
590 4.4021 38864.10 39438.70 258.30
591 4.4058 39613.30 39423.40 260.31
592 4.4096 38839.30 39408.00 258.46
593 4.4133 39654.20 39392.60 262.16
594 4.4171 38684.40 39377.20 257.38
595 4.4209 39891.20 39361.80 263.56
596 4.4246 38991.40 39346.40 258.95
597 4.4284 39869.80 39331.00 262.46
598 4.4321 38762.90 39315.60 259.74
599 4.4359 39114.40 39300.20 259.23
600 4.4397 38669.80 39284.80 257.14
601 4.4434 39759.30 39269.50 264.13
602 4.4472 38463.50 39254.10 256.13
603 4.4509 39426.30 39238.70 260.69
604 4.4547 38808.90 39223.30 261.42
605 4.4585 39680.80 39207.90 262.66
606 4.4622 38839.70 39192.50 257.91
607 4.4660 39261.50 39177.10 259.91
608 4.4697 38890.90 39161.80 258.93
609 4.4735 39693.80 39146.40 263.67
610 4.4773 38819.90 39131.00 255.31
611 4.4810 39634.30 39115.60 262.83
612 4.4848 38643.60 39100.20 257.40
613 4.4885 39782.20 39084.80 263.23
614 4.4923 38646.70 39069.40 257.64
615 4.4961 39110.30 39054.00 259.44
616 4.4998 39130.00 39038.60 262.23
617 4.5036 39451.40 39023.20 256.99
618 4.5073 38374.70 39007.90 256.18
619 4.5111 39250.70 38992.50 260.85
620 4.5149 38508.20 38977.10 258.73
621 4.5186 39380.60 38961.70 259.50
622 4.5224 38510.80 38946.30 258.51
623 4.5262 39342.70 38930.90 259.78
624 4.5299 38572.90 38915.50 256.02
625 4.5337 39223.50 38900.20 259.61
626 4.5374 38281.60 38884.80 255.23
627 4.5412 38707.50 38869.40 254.30
628 4.5450 38742.40 38854.00 256.29
629 4.5487 39094.00 38838.60 260.78
630 4.5525 38434.70 38823.20 255.06
631 4.5562 39362.60 38807.80 259.55
632 4.5600 38214.50 38792.40 257.21
633 4.5638 39248.70 38777.00 264.04
634 4.5675 38642.50 38761.60 258.00
635 4.5713 39095.40 38746.30 260.00
636 4.5750 38178.50 38730.90 259.24
637 4.5788 38877.40 38715.50 257.95
638 4.5826 37850.00 38700.10 253.49
639 4.5863 39112.00 38684.70 261.24
640 4.5901 38333.10 38669.30 261.34
641 4.5938 39193.60 38653.90 261.24
642 4.5976 38331.70 38638.60 256.49
643 4.6014 39077.40 38623.20 256.91
644 4.6051 37968.90 38607.80 250.05
645 4.6089 38980.70 38592.40 259.27
646 4.6126 37450.60 38577.00 253.37
647 4.6164 39277.80 38561.60 261.54
648 4.6202 38122.30 38546.20 255.37
649 4.6239 39190.80 38530.80 257.78
650 4.6277 37983.90 38515.40 253.79
651 4.6315 39120.90 38500.00 259.93
652 4.6352 37903.10 38484.70 252.15
653 4.6390 38924.50 38469.30 256.26
654 4.6427 38277.10 38453.90 253.70
655 4.6465 38591.90 38438.50 256.67
656 4.6502 38453.20 38423.10 258.19
657 4.6540 38689.40 38407.70 257.47
658 4.6578 37730.90 38392.30 253.22
659 4.6615 38767.80 38377.00 256.59
660 4.6653 37828.20 38361.60 254.82
661 4.6691 38715.90 38346.20 258.92
662 4.6728 37939.40 38330.80 253.79
663 4.6766 38876.70 38315.40 258.50
664 4.6803 37954.10 38300.00 251.87
665 4.6841 38682.60 38284.60 256.97
666 4.6879 37936.20 38269.20 255.10
667 4.6916 39067.00 38253.80 261.00
668 4.6954 38016.00 38238.40 256.89
669 4.6991 38927.40 38223.10 259.58
670 4.7029 38142.00 38207.70 257.81
671 4.7067 38667.40 38192.30 254.73
672 4.7104 37993.40 38176.90 249.90
673 4.7142 38795.30 38161.50 259.30
674 4.7179 38449.80 38146.10 250.90
675 4.7217 38707.50 38130.70 259.48
676 4.7255 37805.30 38115.40 251.46
677 4.7330 38273.90 38084.50 256.86
678 4.7405 37827.10 38053.80 255.33
679 4.7443 39063.00 38038.40 261.86
680 4.7480 37887.50 38023.00 254.91
681 4.7518 38490.50 38007.60 258.32
682 4.7555 38037.80 37992.20 253.86
683 4.7593 38568.60 37976.80 258.60
684 4.7631 38087.00 37961.50 256.92
685 4.7668 38478.30 37946.10 257.73
686 4.7706 37517.50 37930.70 254.15
687 4.7744 38515.10 37915.30 258.15
688 4.7781 37832.50 37899.90 255.42
689 4.7819 38613.20 37884.50 259.33
690 4.7856 37686.00 37869.10 252.30
691 4.7894 38181.40 37853.80 255.06
692 4.7931 37747.00 37838.40 252.79
693 4.7969 38842.30 37822.90 260.50
694 4.8007 37689.00 37807.60 254.95
695 4.8044 38298.60 37792.20 260.09
696 4.8082 37290.60 37776.80 253.69
697 4.8120 38128.50 37761.40 258.98
698 4.8157 37156.10 37746.00 251.41
699 4.8195 38160.00 37730.60 255.79
700 4.8232 38053.20 37715.20 257.82
701 4.8270 38777.70 37699.90 259.29
702 4.8308 37581.40 37684.50 255.56
703 4.8345 38216.50 37669.10 260.43
704 4.8383 37355.20 37653.70 253.90
705 4.8420 38418.30 37638.30 255.82
706 4.8458 37332.40 37622.90 253.32
707 4.8496 38650.80 37607.50 258.76
708 4.8533 37147.80 37592.20 252.35
709 4.8571 38292.60 37576.80 257.52
710 4.8608 37737.50 37561.40 256.59
711 4.8646 38082.40 37546.00 255.83
712 4.8684 37228.50 37530.60 254.52
713 4.8721 38267.30 37515.20 256.37
714 4.8759 37325.10 37499.80 252.21
715 4.8797 37946.60 37484.40 253.01
716 4.8834 37312.00 37469.00 255.28
717 4.8872 38133.30 37453.60 254.56
718 4.8909 37483.90 37438.30 253.55
719 4.8947 38053.50 37422.90 257.18
720 4.8984 37356.90 37407.50 254.89
721 4.9022 37958.10 37392.10 255.69
722 4.9060 37671.30 37376.70 255.97
723 4.9097 37628.80 37361.30 252.54
724 4.9135 37028.90 37345.90 251.53
725 4.9173 37980.00 37330.60 252.44
726 4.9210 36954.10 37315.20 252.34
727 4.9248 37712.30 37299.80 254.20
728 4.9285 37136.00 37284.40 252.90
729 4.9323 38152.30 37269.00 258.48
730 4.9360 37065.20 37253.60 251.70
731 4.9398 38178.50 37238.20 257.43
732 4.9436 36884.10 37222.90 250.89
733 4.9473 38072.10 37214.80 257.05
734 4.9511 36966.10 37206.80 251.70
735 4.9549 37932.50 37198.70 255.10
736 4.9586 37119.00 37190.70 252.52
737 4.9624 38092.20 37182.70 257.88
738 4.9661 37248.40 37174.60 250.87
739 4.9699 37531.10 37166.60 252.51
740 4.9737 37088.50 37158.50 251.32
741 4.9774 37761.60 37150.50 253.67
742 4.9812 37247.40 37142.50 249.58
743 4.9849 37459.50 37134.40 253.84
744 4.9887 37166.20 37126.40 252.35
745 4.9925 37820.30 37118.40 256.29
746 4.9962 37096.10 37110.30 253.35
747 5.0000 38012.20 37102.30 256.56
748 5.0037 37007.40 37094.30 251.27
749 5.0075 37755.30 37086.20 257.36
750 5.0113 36927.20 37078.20 252.80
751 5.0150 38084.10 37070.10 257.77
752 5.0188 36770.50 37062.10 250.26
753 5.0225 37792.20 37054.10 256.53
754 5.0263 37414.80 37046.00 255.82
755 5.0301 37810.60 37038.00 256.81
756 5.0338 37182.70 37030.00 254.22
757 5.0376 38338.00 37021.90 258.53
758 5.0413 36971.40 37013.90 254.48
759 5.0451 37631.40 37005.80 258.18
760 5.0489 37012.30 36997.80 253.52
761 5.0526 37430.50 36989.80 252.59
762 5.0564 36687.80 36981.70 249.93
763 5.0602 37646.20 36973.70 252.99
764 5.0639 37165.50 36965.60 253.36
765 5.0677 37416.10 36957.60 254.28
766 5.0714 36522.90 36949.60 250.32
767 5.0752 37425.10 36941.50 256.40
768 5.0789 36663.30 36933.50 251.40
769 5.0827 37581.70 36925.50 255.79
770 5.0865 36896.50 36917.40 252.49
771 5.0902 37865.50 36909.40 252.39
772 5.0940 37008.90 36901.40 255.58
773 5.0978 37651.00 36893.30 256.49
774 5.1015 37164.80 36885.30 258.39
775 5.1053 37619.10 36877.20 254.79
776 5.1090 37151.30 36869.20 253.45
777 5.1128 37503.50 36861.20 256.46
778 5.1165 37036.00 36853.10 251.25
779 5.1203 37783.00 36845.10 257.66
780 5.1241 36888.50 36837.10 254.09
781 5.1278 37676.40 36829.00 259.01
782 5.1316 37150.60 36821.00 255.29
783 5.1354 37743.10 36813.00 255.38
784 5.1391 36481.40 36804.90 249.07
785 5.1429 37476.10 36796.90 255.34
786 5.1466 36877.70 36788.80 255.82
787 5.1504 38407.60 36780.80 261.08
788 5.1542 36660.40 36772.80 252.34
789 5.1579 37548.00 36764.70 255.67
790 5.1617 37231.50 36756.70 258.00
791 5.1654 37941.20 36748.60 260.76
792 5.1692 36421.70 36740.60 248.74
793 5.1730 37922.60 36732.60 259.99
794 5.1767 36681.80 36724.50 253.95
795 5.1805 37764.70 36716.50 259.18
796 5.1842 36765.30 36708.50 254.40
797 5.1880 37469.10 36700.40 259.76
798 5.1918 36484.00 36692.40 251.36
799 5.1955 37792.10 36684.30 261.72
800 5.1993 36877.30 36676.30 252.23
801 5.2030 37447.40 36668.30 254.77
802 5.2068 36994.60 36660.20 252.18
803 5.2106 37775.00 36652.20 258.99
804 5.2143 36839.10 36644.20 253.49
805 5.2181 37612.20 36636.10 257.60
806 5.2218 36337.50 36628.10 250.68
807 5.2256 37520.60 36620.10 258.21
808 5.2294 36798.10 36612.00 254.95
809 5.2331 37078.00 36604.00 249.96
810 5.2369 36702.30 36595.90 248.43
811 5.2406 37130.90 36587.90 255.69
812 5.2444 36643.80 36579.90 253.94
813 5.2482 37290.20 36571.80 252.61
814 5.2519 36522.60 36563.80 251.90
815 5.2557 37376.10 36555.80 257.36
816 5.2594 36598.20 36547.70 251.20
817 5.2632 37137.60 36539.70 254.43
818 5.2670 36426.30 36531.60 251.59
819 5.2707 37297.00 36523.60 255.10
820 5.2745 36639.40 36515.60 252.10
821 5.2782 37148.30 36507.50 254.26
822 5.2820 36507.40 36499.50 255.05
823 5.2858 37477.80 36491.50 250.14
824 5.2895 36525.20 36483.40 251.67
825 5.2933 37186.30 36475.40 255.43
826 5.2970 36315.50 36467.40 250.94
827 5.3008 37300.20 36459.30 251.58
828 5.3046 36432.40 36451.30 249.57
829 5.3083 37578.50 36443.20 256.62
830 5.3121 36350.30 36435.20 249.33
831 5.3158 37172.30 36427.20 252.67
832 5.3196 36915.80 36419.10 254.72
833 5.3234 37587.10 36411.10 251.83
834 5.3271 36333.30 36403.10 248.85
835 5.3309 37472.60 36395.00 256.48
836 5.3346 36392.10 36387.00 252.47
837 5.3384 37361.40 36379.00 257.09
838 5.3422 36867.80 36370.90 255.23
839 5.3459 37279.10 36362.90 253.85
840 5.3497 36365.40 36354.80 250.57
841 5.3534 37099.80 36346.80 255.55
842 5.3572 36227.10 36338.80 251.22
843 5.3610 37503.50 36330.70 255.42
844 5.3647 36605.30 36322.70 254.10
845 5.3685 36613.70 36314.70 254.38
846 5.3722 36147.50 36306.60 251.96
847 5.3760 37336.40 36298.60 256.85
848 5.3798 36436.60 36290.60 252.22
849 5.3835 37165.40 36282.50 251.55
850 5.3873 36096.60 36274.50 247.80
851 5.3910 36926.70 36266.40 258.62
852 5.3948 36086.90 36258.40 252.10
853 5.3986 36782.20 36250.40 252.44
854 5.4023 36375.90 36242.30 249.47
855 5.4061 36721.80 36234.30 249.34
856 5.4098 35971.90 36226.30 250.15
857 5.4136 37165.20 36218.20 257.14
858 5.4174 36098.20 36210.20 249.57
859 5.4211 37228.00 36202.20 255.69
860 5.4249 35873.50 36194.10 245.41
861 5.4286 36853.80 36186.10 246.70
862 5.4324 36183.80 36178.00 250.18
863 5.4362 37220.70 36170.00 253.68
864 5.4399 36051.40 36162.00 253.08
865 5.4437 36504.00 36153.90 249.39
866 5.4474 35778.20 36145.90 246.96
867 5.4512 36651.60 36137.90 253.54
868 5.4550 36054.60 36129.80 250.85
869 5.4587 36691.20 36121.80 253.48
870 5.4625 35719.50 36113.80 247.01
871 5.4662 36782.40 36105.70 254.37
872 5.4700 36033.70 36097.70 249.05
873 5.4738 36494.40 36089.70 248.98
874 5.4775 35495.80 36081.60 248.74
875 5.4813 36342.50 36073.60 250.58
876 5.4850 36300.40 36065.60 248.37
877 5.4888 36280.90 36057.50 255.18
878 5.4925 35833.60 36049.50 248.52
879 5.4963 36502.00 36041.40 248.71
880 5.5001 36065.20 36033.40 252.25
881 5.5038 36437.60 36025.40 248.11
882 5.5076 35476.80 36017.30 247.84
883 5.5114 36481.70 36009.30 253.29
884 5.5151 35688.00 36001.30 246.02
885 5.5189 36652.10 35993.20 255.53
886 5.5226 35932.10 35985.20 252.75
887 5.5264 36913.90 35977.10 254.43
888 5.5301 35747.00 35969.10 248.15
889 5.5339 36831.90 35961.10 255.63
890 5.5377 35798.60 35953.00 245.10
891 5.5414 36236.00 35945.00 247.77
892 5.5452 35647.10 35937.00 248.15
893 5.5490 36344.20 35928.90 252.34
894 5.5527 36019.70 35920.90 251.50
895 5.5565 36576.50 35912.90 250.79
896 5.5602 35405.80 35904.80 245.64
897 5.5640 36142.10 35896.80 243.38
898 5.5677 35947.40 35888.70 247.16
899 5.5715 36425.10 35880.70 248.55
900 5.5753 36012.10 35872.70 249.20
901 5.5790 36046.40 35864.70 245.84
902 5.5828 35844.20 35856.60 245.54
903 5.5865 36669.90 35848.60 248.24
904 5.5903 35904.00 35840.50 246.08
905 5.5941 36114.00 35832.50 246.64
906 5.5978 35779.90 35824.50 245.49
907 5.6016 36011.50 35816.40 243.64
908 5.6053 35480.40 35808.40 243.76
909 5.6091 35976.30 35800.40 245.94
910 5.6129 35759.60 35792.30 246.46
911 5.6166 36310.30 35784.30 247.87
912 5.6204 35537.60 35776.30 244.39
913 5.6241 36469.80 35768.20 247.41
914 5.6279 35618.70 35760.20 245.56
915 5.6317 36271.80 35752.10 247.30
916 5.6354 35633.00 35744.10 246.07
917 5.6392 36307.60 35736.10 248.12
918 5.6429 35772.90 35728.10 244.83
919 5.6467 36172.10 35720.00 247.56
920 5.6505 35564.50 35712.00 242.76
921 5.6542 36653.30 35703.90 250.38
922 5.6580 35736.20 35695.90 245.13
923 5.6617 36230.40 35687.90 248.05
924 5.6655 35768.50 35679.80 244.70
925 5.6693 36147.80 35671.80 249.97
926 5.6730 35744.50 35663.80 247.13
927 5.6768 36443.50 35655.70 246.82
928 5.6805 35509.80 35647.70 245.24
929 5.6843 35922.30 35639.70 245.98
930 5.6880 35349.20 35631.60 247.45
931 5.6918 36539.90 35623.60 250.91
932 5.6956 35011.10 35615.60 242.15
933 5.6993 36622.20 35607.50 246.98
934 5.7031 35921.40 35599.50 245.11
935 5.7068 36180.30 35591.50 245.34
936 5.7106 35875.50 35583.40 249.92
937 5.7144 35965.40 35575.40 248.50
938 5.7181 35469.40 35567.30 245.51
939 5.7219 35934.80 35559.30 247.13
940 5.7256 35423.50 35551.30 245.51
941 5.7294 35915.60 35543.20 241.64
942 5.7332 35432.80 35535.20 247.37
943 5.7369 36097.90 35527.20 246.29
944 5.7407 35207.00 35519.10 244.09
945 5.7444 36052.20 35511.10 244.21
946 5.7482 35426.30 35503.10 241.71
947 5.7519 35803.60 35495.00 247.33
948 5.7557 35319.00 35487.00 244.37
949 5.7595 36381.60 35479.00 251.03
950 5.7632 35158.50 35470.90 246.33
951 5.7670 35704.50 35462.90 246.58
952 5.7708 35376.40 35454.90 247.29
953 5.7745 36009.20 35446.80 247.48
954 5.7783 35364.90 35438.80 241.82
955 5.7820 36041.50 35430.80 249.17
956 5.7858 35541.30 35422.70 248.38
957 5.7895 36228.80 35414.70 249.46
958 5.7933 35647.80 35406.70 246.27
959 5.7971 35502.00 35398.60 242.96
960 5.8008 35492.90 35390.60 244.09
961 5.8046 35794.60 35382.50 245.68
962 5.8083 34854.60 35374.50 243.67
963 5.8121 35572.10 35366.50 244.13
964 5.8158 35005.40 35358.50 244.73
965 5.8196 35979.10 35350.40 245.88
966 5.8234 35049.80 35342.40 243.92
967 5.8271 35562.00 35334.40 240.82
968 5.8309 34860.00 35326.30 239.71
969 5.8347 35498.70 35318.30 245.15
970 5.8384 35529.60 35310.20 248.07
971 5.8422 35227.50 35302.20 246.41
972 5.8459 35130.50 35294.20 245.94
973 5.8497 35739.90 35286.20 247.85
974 5.8534 34878.70 35278.10 242.22
975 5.8572 35401.10 35270.10 243.49
976 5.8610 34903.50 35262.00 239.91
977 5.8647 35578.20 35254.00 247.14
978 5.8685 34723.40 35246.00 237.03
979 5.8722 35704.10 35238.00 244.76
980 5.8760 34970.70 35229.90 244.64
981 5.8797 35973.00 35221.90 248.42
982 5.8835 34379.70 35213.80 240.19
983 5.8873 35312.60 35205.80 244.67
984 5.8910 34621.70 35197.80 242.21
985 5.8948 35617.80 35189.70 247.56
986 5.8986 34748.30 35181.70 245.16
987 5.9023 35605.00 35173.70 243.04
988 5.9061 35005.20 35165.60 245.21
989 5.9098 35167.70 35157.60 243.32
990 5.9136 34640.80 35149.60 243.08
991 5.9173 35649.40 35141.50 247.47
992 5.9211 34951.80 35133.50 242.18
993 5.9249 35480.90 35125.50 245.87
994 5.9286 34654.10 35117.40 242.26
995 5.9324 35321.70 35109.40 244.98
996 5.9361 34857.20 35101.40 244.60
997 5.9399 35478.00 35093.30 246.32
998 5.9436 34748.40 35085.30 244.18
999 5.9474 35447.00 35077.30 246.34
1000 5.9512 34731.60 35069.20 241.54
1001 5.9549 35201.20 35061.20 243.70
1002 5.9587 34592.70 35053.20 241.36
1003 5.9624 35311.20 35045.10 242.87
1004 5.9662 34166.60 35037.10 242.19
1005 5.9700 35233.20 35029.10 245.28
1006 5.9737 34816.20 35021.00 243.05
1007 5.9775 35234.80 35013.00 243.72
1008 5.9812 34312.90 35005.00 243.07
1009 5.9850 35494.20 34996.90 246.77
1010 5.9887 34330.40 34988.90 243.08
1011 5.9925 34887.60 34980.90 239.95
1012 5.9963 34512.30 34972.80 241.46
1013 6.0000 34833.50 34964.80 243.42
1014 6.0038 34350.20 34956.80 243.46
1015 6.0075 35128.10 34948.70 244.14
1016 6.0113 34912.00 34940.70 246.49
1017 6.0151 35073.30 34932.70 248.35
1018 6.0188 34366.30 34924.60 243.30
1019 6.0226 34965.50 34916.60 244.75
1020 6.0263 34600.90 34908.60 240.62
1021 6.0301 35271.30 34900.50 244.90
1022 6.0339 34531.90 34892.50 244.38
1023 6.0376 35287.10 34884.50 244.08
1024 6.0414 34524.60 34876.40 237.29
1025 6.0451 35414.90 34868.40 237.51
1026 6.0489 34466.20 34861.40 239.29
1027 6.0526 35408.80 34853.40 244.59
1028 6.0564 34210.60 34845.40 237.23
1029 6.0602 34909.70 34837.30 242.80
1030 6.0639 34644.50 34829.30 238.89
1031 6.0677 35068.70 34821.30 242.85
1032 6.0714 34425.30 34813.30 240.18
1033 6.0752 35404.20 34805.20 244.67
1034 6.0789 34506.40 34797.20 239.41
1035 6.0827 35171.30 34789.20 245.20
1036 6.0865 34469.70 34781.20 238.89
1037 6.0902 35281.20 34773.10 243.12
1038 6.0940 34616.40 34765.10 243.67
1039 6.0977 34954.50 34757.10 242.15
1040 6.1015 34438.10 34749.00 238.24
1041 6.1052 35046.50 34741.00 243.38
1042 6.1090 34372.30 34733.00 240.70
1043 6.1128 35252.40 34725.00 242.35
1044 6.1165 34481.20 34716.90 242.34
1045 6.1203 35085.20 34708.90 243.29
1046 6.1240 34434.30 34700.90 243.03
1047 6.1278 34828.20 34692.80 242.33
1048 6.1316 34156.40 34684.80 239.20
1049 6.1353 35326.50 34676.80 241.35
1050 6.1391 34897.10 34668.80 241.81
1051 6.1428 34987.00 34660.70 242.69
1052 6.1466 34301.30 34652.70 241.51
1053 6.1504 35523.70 34644.70 243.96
1054 6.1541 34402.80 34636.60 240.47
1055 6.1579 34726.50 34628.60 240.78
1056 6.1616 34555.60 34620.60 243.13
1057 6.1654 35286.20 34612.60 239.82
1058 6.1691 34496.30 34604.50 243.97
1059 6.1729 35005.30 34596.50 241.79
1060 6.1767 34161.80 34588.50 238.58
1061 6.1804 34813.20 34580.50 240.62
1062 6.1842 34670.50 34572.40 244.28
1063 6.1879 35157.60 34564.40 245.23
1064 6.1917 34167.60 34556.40 238.17
1065 6.1954 35207.10 34548.40 245.41
1066 6.1992 34603.70 34540.30 240.04
1067 6.2030 35098.50 34532.30 242.23
1068 6.2067 34121.90 34524.30 236.67
1069 6.2105 34912.80 34516.30 248.09
1070 6.2142 34533.00 34508.20 244.15
1071 6.2180 34852.80 34500.20 240.57
1072 6.2217 34114.70 34492.20 240.97
1073 6.2255 34635.80 34484.20 240.27
1074 6.2293 34535.60 34476.10 241.66
1075 6.2330 34874.30 34468.10 243.82
1076 6.2368 34299.80 34460.10 241.98
1077 6.2405 34812.90 34452.10 241.64
1078 6.2443 34339.60 34444.00 240.15
1079 6.2481 34909.80 34436.00 241.17
1080 6.2518 34273.80 34428.00 242.38
1081 6.2556 35300.80 34420.00 245.81
1082 6.2593 34258.80 34411.90 240.48
1083 6.2631 34875.90 34403.90 242.86
1084 6.2668 34254.60 34395.90 241.62
1085 6.2706 35327.80 34387.90 245.36
1086 6.2744 33831.70 34379.80 237.95
1087 6.2781 34615.20 34371.80 239.80
1088 6.2819 33921.10 34363.80 239.25
1089 6.2856 34715.70 34355.70 242.17
1090 6.2894 34141.80 34347.70 240.14
1091 6.2931 34760.80 34339.70 244.15
1092 6.2969 33998.00 34331.70 238.19
1093 6.3007 35023.50 34323.60 244.90
1094 6.3044 34256.10 34315.60 239.95
1095 6.3082 34470.10 34307.60 239.47
1096 6.3119 33584.10 34299.60 237.29
1097 6.3157 34736.00 34291.60 241.05
1098 6.3194 33956.90 34283.50 240.79
1099 6.3232 34828.20 34275.50 239.93
1100 6.3270 33732.40 34267.50 239.49
1101 6.3307 34794.90 34259.40 242.71
1102 6.3345 33604.90 34251.40 236.54
1103 6.3382 34584.90 34243.40 239.89
1104 6.3420 33959.10 34235.40 238.29
1105 6.3457 34378.60 34227.40 240.07
1106 6.3495 34170.40 34219.30 239.77
1107 6.3533 34877.90 34211.30 243.36
1108 6.3570 33699.50 34203.30 239.19
1109 6.3608 34783.40 34195.30 245.01
1110 6.3645 33855.40 34187.20 239.33
1111 6.3683 34774.40 34179.20 242.79
1112 6.3720 33520.80 34171.20 235.14
1113 6.3758 35008.40 34163.20 244.97
1114 6.3795 33990.00 34155.10 238.88
1115 6.3833 34444.60 34147.10 241.24
1116 6.3871 33565.50 34139.10 237.31
1117 6.3908 34195.20 34131.10 240.20
1118 6.3946 33806.30 34123.10 237.31
1119 6.3983 34489.80 34115.00 243.95
1120 6.4021 33904.10 34107.00 239.74
1121 6.4058 34562.10 34099.00 243.22
1122 6.4096 33697.30 34091.00 238.25
1123 6.4134 34198.60 34083.00 235.25
1124 6.4171 34087.40 34074.90 240.29
1125 6.4209 34557.50 34066.90 244.26
1126 6.4246 33733.70 34058.90 239.01
1127 6.4284 34762.70 34050.90 242.10
1128 6.4321 33582.20 34042.80 238.07
1129 6.4359 35088.40 34034.80 245.95
1130 6.4397 33280.50 34026.80 235.41
1131 6.4434 34457.20 34018.80 240.78
1132 6.4472 33557.00 34010.80 238.68
1133 6.4509 34415.40 34002.70 242.67
1134 6.4547 33702.20 33994.70 238.76
1135 6.4584 34013.20 33986.70 240.68
1136 6.4622 33977.00 33978.70 239.08
1137 6.4660 34105.80 33970.70 240.29
1138 6.4697 33688.90 33962.60 239.06
1139 6.4735 34304.60 33954.60 241.50
1140 6.4772 33473.00 33946.60 237.35
1141 6.4810 34128.30 33938.60 240.74
1142 6.4847 33758.80 33930.50 238.72
1143 6.4885 34286.80 33922.50 239.61
1144 6.4922 33436.40 33914.50 238.32
1145 6.4960 34164.70 33906.50 239.35
1146 6.4998 33630.70 33898.50 238.31
1147 6.5035 33906.20 33890.40 237.79
1148 6.5073 33705.10 33882.40 239.49
1149 6.5110 34192.50 33874.40 239.14
1150 6.5148 33251.20 33866.40 237.59
1151 6.5185 34505.10 33858.40 238.82
1152 6.5223 33621.40 33850.40 237.30
1153 6.5261 34008.60 33842.30 238.66
1154 6.5298 33458.90 33834.30 236.65
1155 6.5336 34005.80 33826.30 236.96
1156 6.5373 33681.40 33818.30 236.46
1157 6.5411 33812.70 33810.30 237.97
1158 6.5448 33439.00 33802.20 236.08
1159 6.5486 34468.00 33794.20 240.20
1160 6.5524 33343.30 33786.20 234.97
1161 6.5561 33990.10 33778.20 239.78
1162 6.5599 33159.20 33770.20 234.54
1163 6.5636 33717.10 33762.10 237.43
1164 6.5674 33392.20 33754.10 235.52
1165 6.5711 34075.70 33746.10 239.68
1166 6.5749 33098.90 33738.10 234.88
1167 6.5786 34018.30 33730.10 240.68
1168 6.5824 33638.30 33722.10 237.12
1169 6.5862 34063.00 33714.00 238.22
1170 6.5899 33549.80 33706.00 237.00
1171 6.5937 33703.30 33698.00 238.20
1172 6.5974 33249.10 33690.00 236.43
1173 6.6012 33895.70 33682.00 236.62
1174 6.6049 33485.60 33674.00 238.14
1175 6.6087 33865.60 33665.90 239.57
1176 6.6125 33303.90 33657.90 236.61
1177 6.6162 33778.90 33649.90 235.93
1178 6.6200 33210.70 33641.90 237.26
1179 6.6237 33984.00 33633.90 237.33
1180 6.6275 33084.40 33625.90 234.27
1181 6.6312 34279.90 33617.80 240.03
1182 6.6350 33698.30 33609.80 238.79
1183 6.6387 34386.50 33601.80 241.15
1184 6.6425 32970.60 33593.80 235.34
1185 6.6462 33895.10 33585.80 236.25
1186 6.6500 33062.70 33577.80 235.73
1187 6.6538 33733.10 33569.80 237.65
1188 6.6575 33246.10 33561.70 234.29
1189 6.6613 34157.10 33553.70 243.37
1190 6.6688 34386.20 33537.70 240.10
1191 6.6725 32928.00 33529.70 232.14
1192 6.6763 33244.10 33521.70 234.56
1193 6.6800 33036.10 33513.70 236.04
1194 6.6838 33458.60 33505.60 236.62
1195 6.6876 33276.00 33497.60 236.39
1196 6.6913 34171.90 33489.60 240.67
1197 6.6951 33141.90 33481.60 234.23
1198 6.6988 34039.70 33473.60 240.01
1199 6.7026 33252.80 33465.60 234.49
1200 6.7063 33586.20 33457.60 236.85
1201 6.7101 33095.30 33449.50 235.00
1202 6.7139 33806.60 33441.50 237.76
1203 6.7176 32927.30 33433.50 234.93
1204 6.7214 33590.50 33425.50 238.82
1205 6.7251 32780.50 33417.50 234.21
1206 6.7289 33518.90 33409.50 233.89
1207 6.7326 33144.60 33401.50 236.60
1208 6.7364 33751.70 33393.50 238.11
1209 6.7401 32900.80 33385.50 234.72
1210 6.7439 34006.50 33377.40 239.32
1211 6.7477 32942.00 33369.40 237.71
1212 6.7514 33565.90 33361.40 238.91
1213 6.7552 32579.60 33353.40 232.01
1214 6.7589 33293.20 33345.40 236.33
1215 6.7627 32728.70 33337.40 232.75
1216 6.7664 33528.90 33329.40 238.32
1217 6.7702 32744.60 33321.40 235.37
1218 6.7739 33595.00 33313.40 239.87
1219 6.7777 32964.00 33305.40 236.26
1220 6.7814 33572.40 33297.30 231.00
1221 6.7852 32390.90 33289.30 233.35
1222 6.7890 33902.40 33281.30 238.66
1223 6.7927 32787.50 33273.30 230.92
1224 6.7965 33358.70 33265.30 235.70
1225 6.8002 32662.10 33257.30 231.37
1226 6.8040 33351.00 33249.30 236.41
1227 6.8077 32987.60 33241.30 237.39
1228 6.8115 33336.10 33233.30 237.08
1229 6.8152 32904.70 33225.30 236.22
1230 6.8190 33478.30 33217.30 237.14
1231 6.8228 33045.10 33209.30 236.58
1232 6.8265 33763.10 33201.20 238.78
1233 6.8303 32402.80 33193.30 231.69
1234 6.8340 33523.60 33185.20 237.21
1235 6.8378 32802.90 33177.20 230.71
1236 6.8415 33226.60 33169.20 238.05
1237 6.8453 32956.20 33161.20 237.01
1238 6.8490 33299.20 33153.20 231.39
1239 6.8528 32914.00 33145.20 233.43
1240 6.8566 33331.20 33137.20 236.17
1241 6.8603 32646.80 33129.20 233.72
1242 6.8641 32933.00 33121.20 230.72
1243 6.8678 32836.50 33113.20 236.54
1244 6.8716 33387.50 33105.20 238.70
1245 6.8753 32525.90 33097.20 234.67
1246 6.8791 33464.50 33089.20 238.60
1247 6.8828 32740.20 33081.20 233.02
1248 6.8866 32863.90 33073.20 232.94
1249 6.8903 32681.90 33065.20 235.16
1250 6.8941 33935.40 33057.20 239.63
1251 6.8979 33327.20 33049.20 237.43
1252 6.9016 33429.30 33041.20 237.94
1253 6.9054 32583.90 33033.20 235.21
1254 6.9091 33072.10 33025.20 230.68
1255 6.9129 32261.50 33017.20 232.74
1256 6.9166 33037.60 33009.20 236.51
1257 6.9204 32725.90 33001.20 237.32
1258 6.9241 33288.60 32993.20 237.31
1259 6.9279 32708.40 32985.20 234.39
1260 6.9316 33357.20 32977.20 234.88
1261 6.9354 32391.30 32969.20 235.19
1262 6.9391 33137.90 32961.20 238.28
1263 6.9467 33347.00 32945.20 239.22
1264 6.9542 33118.50 32929.20 236.69
1265 6.9579 32383.80 32921.20 233.28
1266 6.9617 33148.50 32913.20 236.10
1267 6.9654 31995.20 32905.20 229.84
1268 6.9692 33536.70 32897.20 235.24
1269 6.9729 32883.30 32889.20 236.00
1270 6.9750 33177.60 32884.70 235.29
1271 6.9788 32635.40 32876.70 235.26
1272 6.9826 32794.50 32868.70 233.88
1273 6.9863 32440.60 32860.70 233.56
1274 6.9901 33154.10 32852.70 235.00
1275 6.9938 32609.90 32844.70 235.15
1276 6.9976 32796.30 32836.70 233.56
1277 7.0013 32580.90 32828.70 235.10
1278 7.0051 32993.20 32820.70 232.80
1279 7.0089 32426.90 32812.70 232.56
1280 7.0126 33350.10 32804.70 236.27
1281 7.0164 32406.60 32796.70 232.51
1282 7.0201 33243.80 32788.70 234.14
1283 7.0239 32232.60 32780.70 230.63
1284 7.0276 33427.40 32772.80 236.75
1285 7.0314 32288.10 32764.80 231.52
1286 7.0352 33172.80 32756.80 235.08
1287 7.0389 32442.50 32748.80 231.51
1288 7.0427 33356.00 32740.80 237.48
1289 7.0464 32260.20 32732.80 231.07
1290 7.0502 32951.50 32724.80 234.56
1291 7.0539 32428.90 32716.80 231.79
1292 7.0577 33011.30 32708.80 235.52
1293 7.0615 32475.60 32700.80 232.61
1294 7.0652 33269.80 32692.80 237.87
1295 7.0690 32267.10 32684.80 231.61
1296 7.0727 33067.40 32676.80 234.38
1297 7.0765 32681.40 32668.90 233.67
1298 7.0802 32918.90 32660.90 235.24
1299 7.0840 32196.70 32652.90 232.28
1300 7.0877 33136.20 32644.90 233.80
1301 7.0915 32460.40 32636.90 234.10
1302 7.0953 33068.40 32628.90 236.55
1303 7.0990 32744.60 32620.90 234.62
1304 7.1028 32976.30 32613.00 232.93
1305 7.1065 32501.00 32605.00 234.59
1306 7.1103 33133.00 32597.00 234.12
1307 7.1140 32211.00 32589.00 230.91
1308 7.1178 33040.00 32581.00 235.12
1309 7.1215 32625.50 32573.10 234.56
1310 7.1253 33258.90 32565.10 236.72
1311 7.1290 32417.70 32557.10 233.36
1312 7.1328 33109.50 32549.10 233.33
1313 7.1366 32237.90 32541.10 232.56
1314 7.1403 33020.30 32533.20 235.01
1315 7.1441 32065.80 32525.20 229.61
1316 7.1478 33207.60 32517.20 239.66
1317 7.1553 33344.70 32501.30 236.07
1318 7.1591 32252.30 32493.30 229.66
1319 7.1629 32757.80 32485.30 232.89
1320 7.1666 32433.80 32477.30 233.85
1321 7.1704 32772.70 32469.40 234.09
1322 7.1741 31967.80 32461.40 231.11
1323 7.1779 33233.30 32453.40 237.05
1324 7.1816 32249.00 32445.50 230.79
1325 7.1854 32806.20 32437.50 235.10
1326 7.1891 32415.80 32429.50 231.31
1327 7.1929 32985.40 32421.60 234.69
1328 7.1967 31802.00 32413.60 229.79
1329 7.2004 32894.70 32405.60 234.26
1330 7.2042 32140.40 32397.70 231.93
1331 7.2079 32790.50 32389.70 235.77
1332 7.2114 32047.40 32382.30 230.61
1333 7.2152 32909.90 32374.30 237.80
1334 7.2189 32335.30 32366.40 233.43
1335 7.2227 33292.30 32358.40 240.10
1336 7.2264 32351.70 32350.50 231.22
1337 7.2302 33284.90 32342.50 238.87
1338 7.2340 32338.90 32334.50 234.63
1339 7.2377 33407.40 32326.60 239.49
1340 7.2415 32031.50 32318.60 233.87
1341 7.2452 32635.80 32310.70 233.37
1342 7.2490 32219.40 32302.80 230.82
1343 7.2527 33038.30 32294.80 237.32
1344 7.2565 32309.00 32286.90 235.63
1345 7.2602 33079.50 32278.90 236.81
1346 7.2640 32265.30 32271.00 235.42
1347 7.2677 32885.90 32263.00 238.30
1348 7.2715 32596.30 32255.10 235.56
1349 7.2752 33100.80 32247.10 237.83
1350 7.2790 32228.20 32239.20 236.01
1351 7.2828 32621.60 32231.30 232.73
1352 7.2865 32580.20 32223.30 233.16
1353 7.2903 33026.90 32215.40 238.80
1354 7.2940 32329.50 32207.50 233.99
1355 7.2978 32818.40 32199.50 232.53
1356 7.3015 32430.20 32191.60 237.76
1357 7.3053 32874.30 32183.70 236.64
1358 7.3090 32239.00 32175.70 232.81
1359 7.3128 32817.70 32167.80 235.23
1360 7.3165 32111.50 32159.90 234.68
1361 7.3203 32992.50 32152.00 235.04
1362 7.3241 32146.40 32144.00 230.54
1363 7.3278 32739.80 32136.10 236.01
1364 7.3316 32109.20 32128.20 233.09
1365 7.3353 33003.70 32120.30 237.14
1366 7.3391 32104.60 32112.40 231.95
1367 7.3428 32758.90 32104.50 234.82
1368 7.3466 31617.30 32096.60 231.09
1369 7.3503 33061.00 32088.70 237.84
1370 7.3541 32148.30 32080.80 235.50
1371 7.3579 32738.70 32072.90 235.60
1372 7.3616 32376.70 32065.00 235.76
1373 7.3654 32903.60 32057.10 237.60
1374 7.3691 31818.00 32049.20 226.83
1375 7.3729 32987.40 32041.30 237.00
1376 7.3766 32129.80 32033.40 230.30
1377 7.3804 32332.60 32025.50 235.41
1378 7.3841 32000.70 32017.60 232.58
1379 7.3879 32840.90 32009.70 236.79
1380 7.3916 31768.30 32001.80 227.94
1381 7.3954 32433.40 31994.00 233.23
1382 7.3992 32035.10 31986.10 231.39
1383 7.4029 33049.70 31978.20 236.94
1384 7.4067 31976.80 31970.40 231.97
1385 7.4104 32616.70 31962.50 236.21
1386 7.4142 31811.00 31954.60 233.64
1387 7.4179 32440.10 31946.80 233.24
1388 7.4217 31962.90 31938.90 232.02
1389 7.4254 32758.20 31931.00 231.97
1390 7.4292 31726.60 31923.20 233.54
1391 7.4330 32246.90 31915.30 229.21
1392 7.4367 31847.70 31907.50 229.87
1393 7.4405 32380.60 31899.70 234.69
1394 7.4442 31658.00 31891.80 229.17
1395 7.4480 32418.70 31884.00 233.46
1396 7.4517 32025.00 31876.20 232.93
1397 7.4555 32462.90 31868.40 234.40
1398 7.4592 32705.50 31860.50 239.82
1399 7.4630 32551.00 31852.70 228.87
1400 7.4668 31738.10 31844.90 232.95
1401 7.4705 32277.60 31837.10 229.77
1402 7.4743 31459.00 31829.30 229.72
1403 7.4780 31892.80 31821.50 226.86
1404 7.4818 31147.10 31813.70 222.14
1405 7.4855 31613.50 31805.90 228.33
1406 7.4893 31055.70 31798.20 222.88
1407 7.4930 32026.60 31790.40 232.59
1408 7.4968 31333.70 31782.60 227.31
1409 7.5005 31874.60 31774.90 230.33
1410 7.5043 31568.00 31767.10 227.30
1411 7.5081 32328.00 31759.40 233.68
1412 7.5118 31752.20 31751.60 231.68
1413 7.5156 32364.40 31743.90 230.96
1414 7.5193 31817.40 31736.10 229.36
1415 7.5231 32352.30 31728.40 232.88
1416 7.5268 31536.00 31720.70 230.47
1417 7.5306 32617.70 31713.00 235.70
1418 7.5343 32026.70 31705.30 233.52
1419 7.5381 32695.30 31697.60 235.65
1420 7.5419 31947.30 31689.90 232.71
1421 7.5456 32107.20 31682.30 233.95
1422 7.5494 31760.10 31674.60 231.08
1423 7.5531 32457.60 31667.00 235.34
1424 7.5569 31927.50 31659.30 232.11
1425 7.5606 32449.20 31651.70 234.72
1426 7.5644 32108.80 31644.10 232.81
1427 7.5682 32321.80 31636.50 233.44
1428 7.5719 31709.40 31628.80 229.52
1429 7.5757 32404.80 31621.20 234.81
1430 7.5794 31726.40 31613.70 233.80
1431 7.5832 32646.10 31606.10 237.42
1432 7.5869 31687.80 31598.60 230.98
1433 7.5907 32461.30 31591.00 236.43
1434 7.5944 31906.80 31583.50 230.94
1435 7.5982 32271.80 31576.00 232.06
1436 7.6020 31740.60 31568.50 232.23
1437 7.6057 32408.30 31561.00 235.46
1438 7.6095 31753.40 31553.60 233.01
1439 7.6132 32754.10 31546.10 235.09
1440 7.6170 31748.30 31538.70 233.72
1441 7.6207 32297.20 31531.30 232.20
1442 7.6245 31444.10 31523.90 230.56
1443 7.6283 32722.60 31516.50 238.17
1444 7.6320 31716.50 31509.20 231.35
1445 7.6358 32197.60 31501.80 233.72
1446 7.6395 31628.30 31494.50 229.13
1447 7.6433 32475.40 31487.20 236.50
1448 7.6470 31496.70 31480.00 227.21
1449 7.6508 32172.40 31472.70 233.53
1450 7.6546 31292.00 31465.50 229.14
1451 7.6583 32404.10 31458.40 238.57
1452 7.6621 31346.00 31451.20 228.53
1453 7.6658 32431.60 31444.10 233.12
1454 7.6696 31649.80 31437.00 232.93
1455 7.6733 32135.40 31429.90 233.09
1456 7.6771 31639.50 31422.90 228.62
1457 7.6808 32371.20 31415.90 233.89
1458 7.6846 31946.20 31409.00 229.24
1459 7.6884 32389.30 31402.10 230.58
1460 7.6921 31667.80 31395.20 228.48
1461 7.6959 32598.60 31388.40 233.61
1462 7.6996 31712.60 31381.60 229.84
1463 7.7034 32409.30 31374.90 231.14
1464 7.7071 31737.00 31368.20 232.09
1465 7.7109 32440.70 31361.60 230.54
1466 7.7147 32038.90 31360.80 229.46
1467 7.7184 32702.10 31360.00 235.02
1468 7.7222 32296.60 31359.30 230.16
1469 7.7259 32211.20 31358.60 231.38
1470 7.7297 31810.70 31358.00 230.23
1471 7.7334 32218.20 31357.50 229.78
1472 7.7372 32280.40 31357.10 233.96
1473 7.7410 32455.00 31356.70 232.07
1474 7.7447 32017.90 31356.50 228.90
1475 7.7485 32453.40 31356.30 233.68
1476 7.7522 32198.00 31356.30 230.75
1477 7.7560 32699.00 31356.40 234.72
1478 7.7597 31713.70 31356.60 229.11
1479 7.7635 32511.30 31356.90 233.40
1480 7.7672 32149.20 31357.40 232.91
1481 7.7710 32480.00 31358.00 232.23
1482 7.7748 32279.80 31358.70 233.54
1483 7.7785 32856.30 31359.70 235.65
1484 7.7823 31992.60 31360.80 230.64
1485 7.7860 32940.90 31362.10 236.06
1486 7.7898 32049.80 31363.70 230.40
1487 7.7935 32695.90 31365.40 233.94
1488 7.7973 32600.80 31367.40 234.01
1489 7.8011 32801.30 31369.60 233.90
1490 7.8048 32187.00 31372.20 233.57
1491 7.8086 32739.40 31375.00 233.19
1492 7.8123 32131.90 31378.10 231.37
1493 7.8161 32639.60 31381.50 231.62
1494 7.8198 32679.90 31385.40 234.79
1495 7.8236 33175.30 31389.60 232.30
1496 7.8274 32569.00 31394.10 235.10
1497 7.8311 33278.20 31399.10 237.75
1498 7.8349 32526.80 31404.60 233.84
1499 7.8386 32829.50 31410.50 233.39
1500 7.8424 32433.70 31417.00 232.66
1501 7.8461 33368.10 31423.90 237.01
1502 7.8499 32728.40 31431.40 233.95
1503 7.8537 33641.90 31439.50 238.93
1504 7.8574 32735.00 31448.20 233.79
1505 7.8612 33304.90 31457.50 234.12
1506 7.8649 32843.10 31467.50 234.46
1507 7.8687 33758.30 31478.10 238.44
1508 7.8724 33313.50 31489.50 236.22
1509 7.8762 33796.00 31501.50 238.86
1510 7.8800 33453.90 31514.30 236.29
1511 7.8837 34381.70 31527.80 241.94
1512 7.8875 33760.70 31542.00 237.30
1513 7.8912 34494.00 31557.00 241.70
1514 7.8950 34090.00 31572.70 239.24
1515 7.8987 34276.70 31589.00 239.56
1516 7.9025 33885.30 31606.00 239.93
1517 7.9063 35050.50 31623.60 243.86
1518 7.9100 34067.70 31641.60 240.52
1519 7.9138 34976.50 31660.00 243.43
1520 7.9175 34471.10 31678.70 238.95
1521 7.9213 35178.30 31697.50 246.64
1522 7.9250 35117.30 31716.30 245.69
1523 7.9288 35646.20 31734.60 243.17
1524 7.9326 35070.40 31752.50 242.40
1525 7.9363 35975.40 31769.60 245.99
1526 7.9401 35823.70 31785.50 247.32
1527 7.9438 36317.10 31800.00 248.19
1528 7.9476 36054.40 31812.90 249.34
1529 7.9514 36577.10 31823.70 253.29
1530 7.9551 35924.80 31832.20 246.36
1531 7.9589 36721.90 31838.20 251.16
1532 7.9626 36369.30 31841.50 248.92
1533 7.9664 36696.10 31841.90 247.41
1534 7.9701 36412.50 31839.30 250.75
1535 7.9739 36725.20 31833.90 250.57
1536 7.9777 36564.30 31825.60 251.30
1537 7.9814 36790.20 31814.50 248.47
1538 7.9852 36310.50 31801.00 248.99
1539 7.9889 37121.60 31785.30 252.11
1540 7.9927 36632.50 31767.50 252.28
1541 7.9964 37240.40 31748.10 253.19
1542 8.0002 35981.40 31727.30 249.62
1543 8.0040 36864.20 31705.40 251.12
1544 8.0077 35775.20 31682.90 245.31
1545 8.0115 36806.50 31659.70 254.39
1546 8.0152 35643.20 31636.30 246.85
1547 8.0190 36250.10 31612.90 249.94
1548 8.0227 35308.60 31589.60 244.63
1549 8.0265 35454.50 31566.60 245.65
1550 8.0303 35170.50 31543.90 245.49
1551 8.0340 35788.20 31521.80 243.58
1552 8.0378 35235.30 31500.20 246.29
1553 8.0415 35320.40 31479.30 246.28
1554 8.0453 34349.00 31459.10 239.21
1555 8.0491 34643.20 31439.60 240.34
1556 8.0528 34107.10 31420.80 240.78
1557 8.0566 34713.70 31402.70 244.75
1558 8.0603 34184.30 31385.50 241.57
1559 8.0641 34473.10 31368.80 241.61
1560 8.0678 33458.30 31352.90 239.72
1561 8.0716 34223.40 31337.70 235.87
1562 8.0754 33772.80 31323.20 240.52
1563 8.0791 34234.80 31309.40 243.45
1564 8.0829 33177.20 31296.10 236.27
1565 8.0866 34233.60 31283.50 243.52
1566 8.0904 33087.00 31271.40 237.78
1567 8.0941 33339.70 31259.90 235.25
1568 8.0979 32714.30 31248.90 236.03
1569 8.1017 33137.90 31238.40 236.39
1570 8.1054 32607.70 31228.30 234.61
1571 8.1092 33034.30 31218.70 237.74
1572 8.1129 32343.50 31209.50 235.04
1573 8.1167 32832.40 31200.80 235.00
1574 8.1205 32469.90 31192.40 235.51
1575 8.1242 32595.70 31184.30 230.79
1576 8.1280 31900.60 31176.60 229.26
1577 8.1317 32561.50 31169.20 235.22
1578 8.1355 32000.90 31162.00 230.44
1579 8.1392 32614.40 31155.20 238.95
1580 8.1430 31649.90 31148.60 229.46
1581 8.1468 32614.30 31142.20 237.08
1582 8.1505 31557.30 31136.10 234.53
1583 8.1543 32322.70 31130.10 223.71
1584 8.1580 31542.40 31124.40 221.83
1585 8.1618 32202.20 31118.80 225.73
1586 8.1656 31298.70 31113.40 222.77
1587 8.1693 31984.90 31108.20 224.17
1588 8.1731 31155.60 31103.10 219.36
1589 8.1768 31910.00 31098.10 220.07
1590 8.1806 31366.90 31093.30 219.35
1591 8.1843 31657.40 31088.60 223.76
1592 8.1881 31304.30 31084.00 222.12
1593 8.1919 31849.10 31079.50 221.46
1594 8.1956 31162.80 31075.10 217.98
1595 8.1994 31802.90 31070.80 223.67
1596 8.2031 31111.70 31066.60 217.71
1597 8.2069 31826.40 31062.50 220.75
1598 8.2107 31192.10 31058.50 221.85
1599 8.2144 31888.00 31054.50 224.07
1600 8.2182 31113.80 31050.60 219.74
1601 8.2219 31999.40 31046.70 224.25
1602 8.2257 30697.30 31042.90 216.14
1603 8.2294 31748.50 31039.20 221.32
1604 8.2332 31448.90 31035.50 221.01
1605 8.2370 31844.60 31031.90 224.94
1606 8.2407 31058.30 31028.30 221.84
1607 8.2445 31885.20 31024.80 224.86
1608 8.2482 31152.40 31021.30 220.32
1609 8.2520 31724.90 31017.90 223.75
1610 8.2557 31091.60 31014.50 217.51
1611 8.2595 31798.00 31011.10 221.08
1612 8.2633 30715.30 31007.80 217.71
1613 8.2670 31404.40 31004.50 222.86
1614 8.2708 30777.10 31001.20 220.95
1615 8.2746 31304.10 30998.00 222.61
1616 8.2783 30644.80 30994.80 217.32
1617 8.2821 31154.20 30991.60 221.09
1618 8.2858 30886.00 30988.50 220.80
1619 8.2896 31401.20 30985.40 222.81
1620 8.2933 30779.30 30982.30 219.48
1621 8.2971 31401.00 30979.20 222.32
1622 8.3009 30499.40 30976.20 219.62
1623 8.3046 31311.20 30973.10 219.81
1624 8.3084 30538.80 30970.10 215.68
1625 8.3121 31206.60 30967.20 223.28
1626 8.3159 30870.90 30964.20 220.53
1627 8.3196 31296.50 30961.30 221.82
1628 8.3234 30812.40 30958.30 221.89
1629 8.3272 31057.90 30955.40 221.06
1630 8.3309 30414.90 30952.50 219.13
1631 8.3347 30983.70 30949.70 219.76
1632 8.3385 30919.70 30946.80 220.56
1633 8.3422 31341.60 30944.00 223.94
1634 8.3460 30538.30 30941.20 217.27
1635 8.3497 31127.50 30938.30 221.78
1636 8.3535 30516.30 30935.50 215.68
1637 8.3572 31011.10 30932.80 219.23
1638 8.3610 30779.40 30930.00 217.55
1639 8.3648 31085.90 30927.20 218.64
1640 8.3685 30606.50 30924.50 217.48
1641 8.3723 30771.40 30921.70 220.36
1642 8.3760 30318.50 30919.00 218.31
1643 8.3798 31043.00 30916.30 223.34
1644 8.3835 30118.30 30913.60 217.35
1645 8.3873 30988.90 30910.90 220.98
1646 8.3911 30684.20 30908.20 220.95
1647 8.3948 30791.20 30905.50 217.71
1648 8.3986 30449.70 30902.80 219.06
1649 8.4024 31113.70 30900.20 220.34
1650 8.4061 30272.20 30897.50 217.70
1651 8.4099 30863.50 30894.90 218.51
1652 8.4136 30224.70 30892.20 217.61
1653 8.4174 30457.40 30889.60 218.43
1654 8.4211 30105.30 30887.00 218.36
1655 8.4249 31144.70 30884.40 221.09
1656 8.4287 30278.40 30881.70 219.13
1657 8.4324 30401.60 30879.10 218.50
1658 8.4362 30573.10 30876.50 219.40
1659 8.4399 30946.80 30874.00 220.98
1660 8.4437 30199.50 30871.40 217.73
1661 8.4475 30930.90 30868.80 222.28
1662 8.4512 30031.90 30866.20 214.28
1663 8.4550 30859.30 30863.60 217.93
1664 8.4587 30259.40 30861.10 215.61
1665 8.4625 30648.50 30858.50 218.54
1666 8.4663 30137.30 30856.00 216.29
1667 8.4700 30516.90 30853.40 219.39
1668 8.4738 30101.10 30850.90 213.75
1669 8.4775 30482.80 30848.30 221.30
1670 8.4813 30198.80 30845.80 215.85
1671 8.4851 30760.50 30843.30 219.70
1672 8.4888 30443.60 30840.80 220.00
1673 8.4926 30707.70 30838.20 220.98
1674 8.4963 30119.50 30835.70 218.02
1675 8.5001 30628.70 30833.20 221.24
1676 8.5038 29707.30 30830.70 214.44
1677 8.5076 30399.00 30828.20 219.93
1678 8.5114 30141.20 30825.70 213.54
1679 8.5151 30812.70 30823.20 218.04
1680 8.5189 30406.80 30820.70 219.46
1681 8.5226 30555.70 30818.20 215.89
1682 8.5264 30404.10 30815.70 217.80
1683 8.5302 30581.50 30813.20 217.45
1684 8.5339 29981.80 30810.80 214.12
1685 8.5377 30648.10 30808.30 220.11
1686 8.5414 29833.50 30805.80 217.40
1687 8.5452 30633.00 30803.30 216.76
1688 8.5490 29930.80 30800.90 216.89
1689 8.5527 30697.80 30798.40 220.16
1690 8.5565 30363.50 30795.90 217.77
1691 8.5602 30741.40 30793.50 220.12
1692 8.5640 29975.30 30791.00 216.42
1693 8.5678 30739.20 30788.50 219.59
1694 8.5715 30011.00 30786.10 217.42
1695 8.5753 30823.50 30783.60 219.77
1696 8.5790 29941.70 30781.20 216.62
1697 8.5828 30509.20 30778.70 220.42
1698 8.5865 29782.70 30776.30 215.07
1699 8.5903 30660.60 30773.80 220.36
1700 8.5941 30081.90 30771.40 216.83
1701 8.5978 30193.20 30769.00 217.18
1702 8.6016 29731.20 30766.50 214.30
1703 8.6053 30457.20 30764.10 219.05
1704 8.6091 30109.60 30761.70 217.03
1705 8.6129 30714.60 30759.20 223.82
1706 8.6166 30102.10 30756.80 218.16
1707 8.6204 30326.60 30754.40 217.55
1708 8.6242 30374.10 30751.90 219.95
1709 8.6279 30763.30 30749.50 221.08
1710 8.6317 29928.00 30747.10 219.96
1711 8.6354 30668.70 30744.70 221.90
1712 8.6392 29768.80 30742.20 214.95
1713 8.6430 30553.70 30739.80 219.69
1714 8.6467 30190.20 30737.40 218.94
1715 8.6505 30692.80 30735.00 220.66
1716 8.6542 30116.80 30732.60 217.82
1717 8.6580 30471.70 30730.20 220.69
1718 8.6617 29978.60 30727.80 219.45
1719 8.6655 30299.60 30725.30 219.78
1720 8.6693 30102.70 30722.90 220.13
1721 8.6730 30326.60 30720.50 218.81
1722 8.6768 30031.00 30718.10 220.21
1723 8.6805 30555.30 30715.70 219.32
1724 8.6843 30216.60 30713.30 223.69
1725 8.6881 30946.70 30710.90 223.41
1726 8.6918 29443.30 30708.50 214.94
1727 8.6956 30791.70 30706.10 219.87
1728 8.6993 29841.30 30703.70 215.88
1729 8.7031 30475.20 30701.30 220.80
1730 8.7069 30278.50 30698.90 215.86
1731 8.7106 30463.10 30696.50 219.21
1732 8.7144 29952.90 30694.10 218.54
1733 8.7181 30513.20 30691.70 219.99
1734 8.7219 30134.20 30689.30 221.88
1735 8.7257 30212.60 30686.90 217.30
1736 8.7294 30077.10 30684.60 218.74
1737 8.7332 30491.50 30682.20 219.65
1738 8.7369 29902.70 30679.80 219.53
1739 8.7407 30447.50 30677.40 220.60
1740 8.7445 30177.00 30675.00 214.82
1741 8.7482 30742.80 30672.60 222.99
1742 8.7520 29927.20 30670.20 215.98
1743 8.7557 30190.60 30667.80 218.07
1744 8.7595 29940.40 30665.50 219.90
1745 8.7633 30684.40 30663.10 221.78
1746 8.7670 29698.90 30660.70 218.19
1747 8.7708 30458.80 30658.30 220.96
1748 8.7745 29625.60 30655.90 215.89
1749 8.7783 30140.70 30653.50 218.57
1750 8.7821 29982.50 30651.20 219.51
1751 8.7858 30403.00 30648.80 218.16
1752 8.7896 29844.70 30646.40 218.25
1753 8.7933 30248.20 30644.00 218.46
1754 8.7971 30033.30 30641.70 219.22
1755 8.8009 30615.00 30639.30 223.05
1756 8.8046 29731.50 30636.90 214.25
1757 8.8084 30335.10 30634.50 221.71
1758 8.8121 29636.10 30632.20 217.76
1759 8.8159 30244.30 30629.80 219.54
1760 8.8197 29842.90 30627.40 216.82
1761 8.8234 30309.50 30625.00 219.93
1762 8.8272 29937.40 30622.70 216.66
1763 8.8309 30170.20 30620.30 218.18
1764 8.8347 29946.00 30617.90 218.41
1765 8.8385 30454.80 30615.60 220.24
1766 8.8422 29758.30 30613.20 216.22
1767 8.8460 30652.20 30610.80 220.91
1768 8.8497 29468.00 30608.50 215.46
1769 8.8535 30208.20 30606.10 218.69
1770 8.8573 29930.40 30603.70 217.23
1771 8.8610 30177.40 30601.40 216.79
1772 8.8648 29865.50 30599.00 216.34
1773 8.8685 30330.20 30596.60 220.50
1774 8.8723 29878.40 30594.30 216.85
1775 8.8761 30006.90 30591.90 215.80
1776 8.8798 29688.90 30589.50 216.60
1777 8.8836 30201.00 30587.20 217.62
1778 8.8873 29443.80 30584.80 214.85
1779 8.8911 30246.70 30582.40 218.81
1780 8.8949 30218.30 30580.10 217.39
1781 8.8986 30345.80 30577.70 217.72
1782 8.9024 29563.00 30575.40 214.07
1783 8.9061 30119.00 30573.00 215.93
1784 8.9099 29454.80 30570.60 216.14
1785 8.9137 30158.60 30568.30 216.22
1786 8.9174 29327.00 30565.90 212.79
1787 8.9212 30412.80 30563.60 220.66
1788 8.9249 29497.00 30561.20 214.23
1789 8.9287 30038.30 30558.80 216.40
1790 8.9325 29602.40 30556.50 212.92
1791 8.9362 29235.50 30554.10 210.99
1792 8.9400 29431.50 30551.80 212.92
1793 8.9437 29990.90 30549.40 213.61
1794 8.9475 29450.10 30547.00 211.55
1795 8.9513 30070.00 30544.70 215.13
1796 8.9550 29389.10 30542.30 210.77
1797 8.9588 30148.60 30540.00 215.77
1798 8.9625 29682.80 30537.60 213.96
1799 8.9663 30392.90 30535.30 216.84
1800 8.9701 29604.10 30532.90 211.90
1801 8.9738 30416.50 30530.60 217.15
1802 8.9776 29825.70 30528.20 214.07
1803 8.9813 30049.80 30525.80 218.46
1804 8.9851 29549.30 30523.50 214.38
1805 8.9889 30143.60 30521.10 220.01
1806 8.9926 30113.20 30518.80 219.88
1807 8.9964 29895.10 30516.40 211.97
1808 9.0001 29611.80 30514.10 212.32
1809 9.0039 30357.40 30511.70 215.65
1810 9.0077 29468.00 30509.40 213.05
1811 9.0114 30007.20 30507.00 214.10
1812 9.0152 29637.20 30504.70 212.54
1813 9.0190 30387.00 30502.30 216.16
1814 9.0227 29249.40 30500.00 211.57
1815 9.0265 29904.50 30497.60 214.57
1816 9.0302 29622.60 30495.30 215.81
1817 9.0340 30335.20 30492.90 217.46
1818 9.0378 29379.10 30490.60 212.60
1819 9.0415 30204.80 30488.20 217.17
1820 9.0453 29357.40 30485.90 212.66
1821 9.0490 30233.50 30483.50 216.26
1822 9.0528 29529.90 30481.20 215.40
1823 9.0566 30223.40 30478.80 217.73
1824 9.0603 29732.60 30476.50 213.16
1825 9.0641 30334.30 30474.10 219.92
1826 9.0678 29623.20 30471.80 215.10
1827 9.0716 30263.60 30469.40 219.89
1828 9.0753 29207.60 30467.10 214.15
1829 9.0791 30110.40 30464.70 218.42
1830 9.0829 29812.50 30462.40 215.48
1831 9.0866 30488.30 30460.00 219.54
1832 9.0904 29653.70 30457.70 215.49
1833 9.0941 30340.10 30455.40 219.04
1834 9.0979 29611.80 30453.00 215.03
1835 9.1017 30395.60 30450.70 217.71
1836 9.1054 29933.80 30448.30 217.60
1837 9.1092 30078.00 30446.00 219.00
1838 9.1130 29972.50 30443.60 219.91
1839 9.1167 30815.10 30441.30 225.60
1840 9.1205 29623.30 30438.90 214.85
1841 9.1242 30331.90 30436.60 218.57
1842 9.1280 30108.70 30434.20 218.34
1843 9.1318 30176.70 30431.90 215.37
1844 9.1355 30081.30 30429.60 217.37
1845 9.1393 30435.50 30427.20 219.05
1846 9.1430 29808.50 30424.90 215.04
1847 9.1468 30424.30 30422.50 221.07
1848 9.1506 29717.60 30420.20 215.86
1849 9.1543 30309.20 30417.80 219.47
1850 9.1581 29466.80 30415.50 214.12
1851 9.1618 30098.80 30413.10 217.75
1852 9.1656 30082.40 30410.80 216.90
1853 9.1694 30401.30 30408.50 219.54
1854 9.1731 29995.30 30406.10 216.94
1855 9.1769 30692.30 30403.80 220.32
1856 9.1806 29815.40 30401.40 216.00
1857 9.1844 30173.40 30399.10 217.22
1858 9.1882 29776.40 30396.80 217.56
1859 9.1919 30322.30 30394.40 220.95
1860 9.1957 29503.70 30392.10 215.85
1861 9.1994 30742.10 30389.70 222.68
1862 9.2032 29594.00 30387.40 214.34
1863 9.2070 30544.30 30385.00 219.10
1864 9.2107 30020.10 30382.70 218.59
1865 9.2145 30426.40 30380.40 220.58
1866 9.2183 29951.80 30378.00 214.89
1867 9.2220 30394.90 30375.70 218.49
1868 9.2258 29823.70 30373.30 218.33
1869 9.2295 30138.70 30371.00 217.59
1870 9.2333 30282.40 30368.70 218.90
1871 9.2371 30215.00 30366.30 217.49
1872 9.2408 29739.40 30364.00 215.55
1873 9.2446 29958.50 30361.60 218.63
1874 9.2483 30018.30 30359.30 217.67
1875 9.2521 30323.60 30357.00 217.11
1876 9.2558 29814.90 30354.60 216.60
1877 9.2596 30209.70 30352.30 217.66
1878 9.2634 29632.30 30349.90 214.54
1879 9.2671 30336.40 30347.60 221.99
1880 9.2709 30058.90 30345.30 221.21
1881 9.2747 30656.10 30342.90 221.25
1882 9.2784 29920.20 30340.60 217.64
1883 9.2822 30684.90 30338.20 221.64
1884 9.2859 29878.80 30335.90 219.33
1885 9.2897 30738.50 30333.60 222.62
1886 9.2935 29747.20 30331.20 217.42
1887 9.2972 30441.40 30328.90 220.56
1888 9.3010 29991.30 30326.50 217.88
1889 9.3047 30350.30 30324.20 219.43
1890 9.3085 30029.30 30321.90 219.04
1891 9.3123 29973.00 30319.50 217.00
1892 9.3160 29794.20 30317.20 217.60
1893 9.3198 30167.70 30314.90 220.35
1894 9.3235 29650.90 30312.50 215.60
1895 9.3273 30135.60 30310.20 217.82
1896 9.3311 29804.60 30307.80 218.10
1897 9.3348 30552.40 30305.50 220.52
1898 9.3386 29998.00 30303.20 219.37
1899 9.3424 30537.80 30300.80 219.66
1900 9.3461 29715.30 30298.50 216.04
1901 9.3499 30391.00 30296.20 221.05
1902 9.3536 29718.30 30293.80 218.30
1903 9.3574 30406.80 30291.50 217.56
1904 9.3611 29913.50 30289.20 218.67
1905 9.3649 30562.90 30286.80 219.84
1906 9.3687 29381.10 30284.50 215.79
1907 9.3724 30259.30 30282.10 218.37
1908 9.3762 29842.80 30279.80 219.91
1909 9.3799 30359.50 30277.50 219.76
1910 9.3837 30352.30 30275.10 221.36
1911 9.3875 30532.90 30272.80 225.03
1912 9.3912 29785.90 30270.50 217.33
1913 9.3950 30371.00 30268.10 221.04
1914 9.3988 29292.00 30265.80 216.97
1915 9.4025 30387.00 30263.50 221.49
1916 9.4063 29745.70 30261.10 213.54
1917 9.4100 30298.00 30258.80 220.68
1918 9.4138 30050.30 30256.40 220.81
1919 9.4176 30244.20 30254.10 219.21
1920 9.4213 29799.10 30251.80 217.69
1921 9.4251 30520.50 30249.40 219.54
1922 9.4288 29932.70 30247.10 216.47
1923 9.4326 30577.30 30244.80 221.86
1924 9.4364 29773.80 30242.40 214.64
1925 9.4401 30257.30 30240.10 219.98
1926 9.4439 29989.60 30237.80 218.95
1927 9.4476 30898.20 30235.40 221.92
1928 9.4514 29546.80 30233.10 217.07
1929 9.4552 30220.60 30230.80 219.27
1930 9.4589 30008.60 30228.40 218.81
1931 9.4627 30096.20 30226.10 219.02
1932 9.4664 29589.90 30223.80 217.02
1933 9.4702 30297.40 30221.40 216.50
1934 9.4740 29840.10 30219.10 216.39
1935 9.4777 30438.70 30216.80 223.49
1936 9.4815 29705.80 30214.40 217.29
1937 9.4853 30104.80 30212.10 219.15
1938 9.4890 29625.50 30209.80 217.53
1939 9.4928 30379.70 30207.40 221.51
1940 9.4965 29722.10 30205.10 218.47
1941 9.5003 30157.40 30202.80 219.56
1942 9.5041 29802.30 30200.40 216.71
1943 9.5078 30602.80 30198.10 224.55
1944 9.5116 29713.50 30195.80 218.17
1945 9.5153 30511.30 30193.50 221.39
1946 9.5191 29989.30 30191.10 220.66
1947 9.5229 30543.70 30188.80 222.15
1948 9.5266 29898.00 30186.50 218.18
1949 9.5304 30655.40 30184.10 221.82
1950 9.5341 29811.20 30181.80 219.60
1951 9.5379 30648.60 30179.50 221.39
1952 9.5417 29817.40 30177.10 217.54
1953 9.5454 30714.90 30174.80 221.24
1954 9.5492 30317.70 30831.80 220.23
1955 9.5529 30277.30 30847.80 220.62
1956 9.5567 30011.90 30864.40 220.12
1957 9.5605 30398.00 30881.90 221.60
1958 9.5642 29801.20 30900.30 217.71
1959 9.5680 30387.90 30919.50 219.98
1960 9.5717 30267.00 30939.80 219.54
1961 9.5755 30542.50 30961.10 219.87
1962 9.5793 30231.20 30983.40 221.33
1963 9.5830 30281.90 31006.90 219.50
1964 9.5868 29902.90 31031.60 218.63
1965 9.5906 30457.60 31057.60 219.78
1966 9.5943 30004.10 31084.90 219.79
1967 9.5981 30641.20 31113.80 229.60
1968 9.6018 29959.00 31144.20 221.22
1969 9.6056 30683.80 31176.40 223.61
1970 9.6094 30187.50 31210.30 229.29
1971 9.6131 30597.10 31246.10 227.73
1972 9.6169 29985.20 31284.10 222.50
1973 9.6206 30583.40 31324.20 225.45
1974 9.6244 30372.00 31366.70 226.47
1975 9.6281 31024.50 31411.80 230.46
1976 9.6319 30066.10 31459.80 223.87
1977 9.6357 30837.40 31510.70 225.91
1978 9.6394 30143.50 31564.80 225.56
1979 9.6432 30952.20 31622.40 226.65
1980 9.6470 30210.40 31683.80 224.60
1981 9.6507 30583.80 31749.30 224.45
1982 9.6545 30278.90 31819.30 225.06
1983 9.6582 31086.00 31894.10 227.94
1984 9.6620 30659.10 31974.30 225.04
1985 9.6658 30980.90 32060.40 222.82
1986 9.6695 30428.10 32152.80 224.35
1987 9.6733 30995.10 32252.30 226.75
1988 9.6770 30857.10 32359.50 230.84
1989 9.6808 31234.60 32475.20 224.71
1990 9.6846 31103.60 32600.40 227.08
1991 9.6883 31620.70 32736.50 226.49
1992 9.6921 30976.30 32883.90 229.08
1993 9.6959 31484.60 33044.30 228.99
1994 9.6996 31068.70 33219.30 230.61
1995 9.7034 31953.90 33410.70 233.34
1996 9.7071 31100.30 33620.40 227.45
1997 9.7109 32066.20 33851.10 232.74
1998 9.7147 32120.10 34105.40 232.99
1999 9.7184 32148.40 34386.60 235.00
2000 9.7222 32269.70 34698.70 235.90
2001 9.7259 32819.70 35046.20 235.18
2002 9.7297 33122.10 35434.80 235.81
2003 9.7334 33711.00 35871.00 241.26
2004 9.7372 33467.00 36362.80 240.27
2005 9.7410 34315.90 36920.10 241.44
2006 9.7447 34287.40 37556.60 241.51
2007 9.7485 35660.50 38283.90 249.05
2008 9.7523 35430.90 39121.90 247.62
2009 9.7560 36339.50 40094.70 247.88
2010 9.7598 36978.50 41231.70 255.52
2011 9.7635 37942.90 42571.50 257.12
2012 9.7673 37988.50 44165.80 260.36
2013 9.7711 39833.60 46080.70 266.02
2014 9.7748 40131.80 48406.80 266.03
2015 9.7786 41934.40 51270.10 270.99
2016 9.7823 42779.40 54841.70 279.92
2017 9.7861 45587.00 59371.80 285.93
2018 9.7899 46793.90 65222.80 294.56
2019 9.7936 51256.40 72930.40 311.95
2020 9.7974 55940.30 83325.30 327.24
2021 9.8011 66416.10 97698.70 372.05
2022 9.8049 79707.10 118136.00 411.85
2023 9.8087 113491.00 147671.00 519.42
2024 9.8124 165796.00 190701.00 678.22
2025 9.8162 250522.00 250984.00 898.08
2026 9.8200 321066.00 324591.00 1071.51
2027 9.8237 373968.00 388037.00 1204.19
2028 9.8275 369088.00 401342.00 1215.23
2029 9.8312 327056.00 351219.00 1104.39
2030 9.8350 257945.00 274708.00 909.10
2031 9.8387 207260.00 207685.00 792.73
2032 9.8425 167224.00 159218.00 683.26
2033 9.8463 144412.00 125983.00 616.73
2034 9.8500 125865.00 103192.00 550.75
2035 9.8538 116023.00 87243.20 527.79
2036 9.8575 104722.00 75787.10 494.17
2037 9.8613 98880.40 67353.50 476.88
2038 9.8651 90066.20 60992.50 452.08
2039 9.8688 84686.10 56092.60 431.08
2040 9.8726 78100.30 52239.80 406.36
2041 9.8764 74637.50 49173.50 389.56
2042 9.8801 69804.50 46691.70 375.18
2043 9.8839 66525.50 44655.10 363.69
2044 9.8876 62996.10 42963.30 354.51
2045 9.8914 61414.10 41545.70 346.36
2046 9.8952 58083.00 40345.20 335.76
2047 9.8989 56745.10 39320.10 333.21
2048 9.9027 53854.60 38437.90 319.40
2049 9.9064 53526.00 37673.50 314.57
2050 9.9102 50607.30 37006.70 309.59
2051 9.9140 50556.20 36421.70 302.44
2052 9.9177 49024.50 35905.70 302.16
2053 9.9215 48968.50 35448.10 303.21
2054 9.9252 47224.60 35040.60 293.62
2055 9.9290 47241.70 34676.10 297.58
2056 9.9328 45276.30 34348.60 291.20
2057 9.9365 45697.80 34053.40 288.34
2058 9.9403 43574.00 33785.70 279.57
2059 9.9440 43522.50 33543.30 280.55
2060 9.9478 42359.30 33322.60 273.47
2061 9.9516 42603.10 33121.10 275.22
2062 9.9553 41448.10 32936.40 272.05
2063 9.9591 41658.80 32767.00 274.17
2064 9.9628 40874.30 32611.00 271.50
2065 9.9666 40388.80 32467.10 268.37
2066 9.9704 39535.10 32334.10 261.23
2067 9.9741 39693.20 32210.80 264.90
2068 9.9779 38911.80 32096.30 260.68
2069 9.9817 39258.20 31989.80 261.12
2070 9.9854 38638.90 31890.60 261.66
2071 9.9892 38465.60 31797.90 263.62
2072 9.9929 37493.80 31711.30 253.10
2073 9.9967 38075.20 31630.10 258.83
2074 10.0005 36904.40 31553.90 251.32
2075 10.0043 37172.30 31481.50 253.83
2076 10.0080 36570.10 31415.30 253.29
2077 10.0118 37011.30 31351.20 254.71
2078 10.0155 35918.80 31292.30 248.14
2079 10.0193 36364.00 31235.20 247.32
2080 10.0231 35533.30 31181.20 247.49
2081 10.0268 36186.80 31131.40 248.47
2082 10.0306 35298.10 31082.90 248.24
2083 10.0343 35649.60 31038.10 248.19
2084 10.0381 35012.30 30994.40 248.99
2085 10.0419 35315.60 30952.80 247.10
2086 10.0456 34569.10 30914.20 243.06
2087 10.0494 34774.90 30876.50 240.34
2088 10.0531 34133.40 30841.50 241.03
2089 10.0569 35025.40 30807.10 248.36
2090 10.0607 33899.00 30774.30 237.72
2091 10.0644 34525.00 30743.70 244.18
2092 10.0682 33754.90 30713.60 240.86
2093 10.0719 34268.00 30685.50 246.24
2094 10.0757 33666.20 30657.90 244.81
2095 10.0795 34078.40 30631.40 241.25
2096 10.0832 33065.30 30606.60 237.56
2097 10.0870 33528.50 30582.10 240.05
2098 10.0907 32981.90 30559.20 235.46
2099 10.0945 33793.40 30536.50 240.01
2100 10.0983 32800.60 30514.70 235.49
2101 10.1020 33441.70 30494.30 240.73
2102 10.1058 32588.60 29826.50 236.22
2103 10.1095 33333.10 29824.20 238.10
2104 10.1133 32778.50 29821.90 234.02
2105 10.1171 32884.00 29819.50 237.21
2106 10.1208 32740.10 29817.20 237.44
2107 10.1246 32851.90 29814.90 237.86
2108 10.1283 32388.10 29812.60 232.34
2109 10.1321 32714.40 29810.30 234.74
2110 10.1359 31928.10 29807.90 229.85
2111 10.1396 32824.50 29805.60 237.64
2112 10.1434 32159.30 29803.30 234.04
2113 10.1472 32345.40 29800.90 234.54
2114 10.1509 31794.00 29798.60 230.87
2115 10.1547 32739.20 29796.30 240.72
2116 10.1584 31641.30 29794.00 232.90
2117 10.1622 32268.20 29791.60 231.88
2118 10.1660 32016.20 29789.30 234.95
2119 10.1697 31677.30 29787.00 232.20
2120 10.1735 31560.60 29784.60 234.26
2121 10.1772 32244.30 29782.30 235.60
2122 10.1810 31517.80 29780.00 231.03
2123 10.1848 31994.90 29777.60 232.94
2124 10.1885 31464.20 29775.40 230.67
2125 10.1923 31978.50 29773.00 232.64
2126 10.1960 31348.70 29770.70 228.74
2127 10.1998 31844.00 29768.40 232.37
2128 10.2036 31463.40 29766.00 230.78
2129 10.2073 31678.10 29763.70 231.68
2130 10.2111 31220.10 29761.40 230.84
2131 10.2148 31806.90 29759.10 232.71
2132 10.2186 30929.20 29756.70 230.54
2133 10.2224 31645.40 29754.40 231.05
2134 10.2261 30925.20 29752.10 225.74
2135 10.2299 31779.10 29749.70 234.23
2136 10.2336 31063.20 29747.40 227.01
2137 10.2374 32074.40 29745.10 236.03
2138 10.2412 30917.70 29742.70 226.99
2139 10.2449 31530.00 29740.50 229.39
2140 10.2487 31289.50 29738.10 233.60
2141 10.2524 31403.00 29735.80 229.94
2142 10.2562 30891.20 29733.50 224.84
2143 10.2600 31293.30 29731.10 231.49
2144 10.2637 30485.90 29728.80 223.74
2145 10.2675 31458.90 29726.50 230.27
2146 10.2712 30760.80 29724.20 228.98
2147 10.2750 31076.70 29721.80 224.21
2148 10.2788 30667.40 29719.50 226.35
2149 10.2825 31499.50 29717.20 233.26
2150 10.2863 30610.20 29714.80 230.59
2151 10.2900 31031.90 29712.50 227.91
2152 10.2938 31007.60 29710.20 230.78
2153 10.2976 31548.70 29707.80 233.47
2154 10.3013 30482.00 29705.60 222.25
2155 10.3051 30974.30 29703.20 229.04
2156 10.3088 30542.90 29700.90 228.27
2157 10.3126 31167.20 29698.60 230.07
2158 10.3164 30605.50 29696.20 226.22
2159 10.3201 31102.60 29693.90 230.38
2160 10.3239 30553.60 29691.60 228.29
2161 10.3276 30980.40 29689.30 230.31
2162 10.3314 30633.80 29686.90 226.99
2163 10.3352 30820.00 29684.60 230.86
2164 10.3389 30567.50 29682.30 227.97
2165 10.3427 30994.20 29679.90 232.33
2166 10.3464 30336.80 29677.70 225.93
2167 10.3502 30643.40 29675.30 226.59
2168 10.3540 29991.70 29673.00 224.84
2169 10.3577 31333.40 29670.70 233.97
2170 10.3615 30286.10 29668.30 225.71
2171 10.3652 31234.90 29666.00 231.26
2172 10.3690 30106.90 29663.70 221.45
2173 10.3728 30833.10 29661.30 230.27
2174 10.3765 30173.90 29659.00 225.82
2175 10.3803 30583.70 29656.70 229.58
2176 10.3840 30237.20 29654.40 226.71
2177 10.3878 30772.10 29652.00 228.36
2178 10.3916 29954.50 29649.70 228.21
2179 10.3953 30447.40 29647.40 227.74
2180 10.3991 30220.70 29645.00 228.84
2181 10.4028 30890.60 29642.80 229.41
2182 10.4066 30077.70 29640.40 225.57
2183 10.4104 30492.70 29638.10 227.12
2184 10.4141 30525.60 29635.80 230.46
2185 10.4179 30382.60 29633.40 226.75
2186 10.4216 29786.80 29631.10 225.57
2187 10.4254 30582.00 29628.80 229.52
2188 10.4292 30104.70 29626.40 228.29
2189 10.4329 30572.00 29624.10 223.93
2190 10.4367 29963.40 29621.80 225.29
2191 10.4404 30630.00 29619.50 231.08
2192 10.4442 29902.50 29617.10 222.71
2193 10.4480 30526.60 29614.80 225.02
2194 10.4517 30023.30 29612.50 226.49
2195 10.4555 30549.60 29610.20 231.05
2196 10.4592 29765.70 29607.90 223.01
2197 10.4630 30265.30 29605.50 226.63
2198 10.4668 30014.40 29603.20 226.76
2199 10.4705 30642.80 29600.90 229.41
2200 10.4743 29829.70 29598.50 223.68
2201 10.4780 30230.20 29596.20 225.73
2202 10.4818 29949.80 29594.80 227.43
2203 10.4856 30229.80 29592.40 225.46
2204 10.4893 29754.50 29590.10 225.31
2205 10.4931 30227.70 29587.80 230.19
2206 10.4968 30008.40 29585.50 227.23
2207 10.5006 30087.80 29583.20 224.25
2208 10.5044 29712.90 29580.80 228.31
2209 10.5081 30175.20 29578.50 226.14
2210 10.5119 29759.20 29576.20 222.61
2211 10.5156 30384.60 29573.90 228.70
2212 10.5194 29478.20 29571.60 221.62
2213 10.5232 30518.60 29569.20 225.94
2214 10.5269 29725.70 29566.90 227.74
2215 10.5307 30333.20 29564.60 230.86
2216 10.5344 29631.80 29562.30 223.70
2217 10.5382 30296.20 29559.90 229.32
2218 10.5419 30184.50 29557.70 230.63
2219 10.5457 30284.80 29555.30 228.10
2220 10.5495 29886.20 29553.00 222.18
2221 10.5532 30245.00 29550.70 228.68
2222 10.5570 29373.80 29548.30 224.55
2223 10.5607 30529.90 29546.00 223.73
2224 10.5645 29539.20 29543.70 217.72
2225 10.5683 30221.50 29541.30 221.96
2226 10.5720 29932.60 29539.10 221.36
2227 10.5758 29854.40 29535.30 219.88
2228 10.5795 29527.80 29526.00 218.66
2229 10.5833 30365.80 29516.50 223.39
2230 10.5871 29179.90 29506.90 216.43
2231 10.5908 30226.90 29497.70 220.74
2232 10.5946 29252.90 29488.10 218.09
2233 10.5983 29907.80 29478.90 218.46
2234 10.6021 29752.90 29469.30 216.79
2235 10.6059 30506.90 29459.80 224.81
2236 10.6096 30091.90 29450.50 216.62
2237 10.6134 30331.90 29441.00 222.90
2238 10.6171 29367.90 29431.70 216.80
2239 10.6209 30401.90 29422.20 224.35
2240 10.6247 29608.60 29412.70 218.15
2241 10.6284 30108.00 29403.40 221.55
2242 10.6322 29823.80 29393.90 222.19
2243 10.6359 29857.00 29384.60 220.02
2244 10.6397 29741.30 29375.10 220.51
2245 10.6435 30080.50 29365.50 223.18
2246 10.6472 29807.10 29356.30 220.00
2247 10.6510 30124.40 29346.70 221.35
2248 10.6547 29415.40 29337.50 217.71
2249 10.6585 30281.00 29327.90 221.44
2250 10.6623 29648.60 29318.40 218.80
2251 10.6660 30363.20 29309.10 223.93
2252 10.6698 29353.90 29299.60 218.62
2253 10.6735 30245.10 29290.30 218.26
2254 10.6773 29267.20 29280.80 213.85
2255 10.6811 29960.00 29271.30 218.34
2256 10.6848 29276.70 29262.00 219.32
2257 10.6886 30044.00 29252.50 219.61
2258 10.6923 29738.70 29243.20 220.22
2259 10.6961 30266.30 29233.70 220.40
2260 10.6998 29213.20 29224.40 217.35
2261 10.7036 30045.10 29214.80 218.30
2262 10.7074 29579.70 29205.30 218.60
2263 10.7111 30317.80 29196.00 222.31
2264 10.7149 29642.70 29186.50 219.95
2265 10.7186 30004.80 29177.20 220.86
2266 10.7224 29227.90 29167.70 217.49
2267 10.7262 30146.70 29158.20 222.15
2268 10.7299 29401.30 29148.90 215.99
2269 10.7337 30278.10 29139.40 221.74
2270 10.7374 29472.40 29130.10 219.56
2271 10.7412 29907.50 29120.60 219.29
2272 10.7450 29295.50 29111.10 217.67
2273 10.7487 30050.60 29101.80 220.28
2274 10.7525 29764.30 29092.20 219.79
2275 10.7562 29903.00 29083.00 217.49
2276 10.7600 29508.20 29073.40 221.79
2277 10.7638 30181.90 29063.90 221.07
2278 10.7675 29421.30 29054.60 222.06
2279 10.7713 29794.00 29045.10 219.01
2280 10.7750 29679.90 29035.80 219.95
2281 10.7788 29995.80 29026.30 219.13
2282 10.7825 29321.70 29017.00 216.97
2283 10.7863 30005.10 29007.50 220.28
2284 10.7901 29194.90 28998.00 212.64
2285 10.7938 29476.80 28988.70 219.29
2286 10.7976 29446.80 28979.20 217.70
2287 10.8013 29910.20 28969.90 219.74
2288 10.8051 29299.40 28960.40 219.62
2289 10.8089 30071.60 28950.90 224.72
2290 10.8126 29288.90 28941.60 214.70
2291 10.8164 29977.80 28932.10 222.58
2292 10.8201 29064.70 28922.80 216.54
2293 10.8239 29743.70 28913.30 220.30
2294 10.8277 29097.30 28903.70 217.21
2295 10.8314 29992.10 28894.40 221.08
2296 10.8352 29093.40 28884.90 216.01
2297 10.8389 29625.50 28875.60 216.99
2298 10.8427 29308.60 28866.10 216.77
2299 10.8465 29323.00 28856.60 215.21
2300 10.8502 29006.70 28847.30 217.64
2301 10.8540 29686.20 28837.80 219.45
2302 10.8577 29095.30 28828.50 215.66
2303 10.8615 29771.90 28819.00 217.68
2304 10.8652 29179.50 28809.70 217.26
2305 10.8690 30057.60 28800.20 221.35
2306 10.8728 29066.50 28790.70 217.97
2307 10.8765 29880.50 28781.40 220.23
2308 10.8803 29316.30 28771.90 214.97
2309 10.8840 29525.50 28762.60 219.39
2310 10.8878 29025.40 28753.10 217.51
2311 10.8916 29811.90 28743.50 220.83
2312 10.8953 29109.10 28734.30 215.55
2313 10.8991 29658.70 28724.70 221.51
2314 10.9028 29103.00 28715.50 217.69
2315 10.9066 29576.20 28705.90 221.41
2316 10.9104 29118.10 28696.40 215.16
2317 10.9141 29490.60 28687.10 220.39
2318 10.9179 29258.30 28677.60 218.14
2319 10.9216 29643.40 28668.30 221.28
2320 10.9254 29130.90 28658.80 215.79
2321 10.9291 29531.20 28649.50 219.29
2322 10.9329 29176.30 28640.00 216.53
2323 10.9367 29529.10 28630.50 219.85
2324 10.9404 29164.90 28621.20 216.80
2325 10.9442 29700.10 28611.70 218.96
2326 10.9479 29080.20 28602.40 219.13
2327 10.9517 29656.60 28592.90 220.24
2328 10.9555 29118.30 28583.40 219.64
2329 10.9592 29972.10 28574.10 223.54
2330 10.9630 29279.00 28564.60 217.33
2331 10.9667 29335.60 28555.30 218.45
2332 10.9705 29028.60 28545.80 217.41
2333 10.9742 29496.20 28536.50 221.65
2334 10.9780 29183.50 28527.00 220.80
2335 10.9818 29113.30 28517.40 214.06
2336 10.9855 29154.90 28508.20 220.67
2337 10.9893 29575.00 28498.60 220.60
2338 10.9930 28942.80 28489.40 217.28
2339 10.9968 29625.40 28479.80 218.38
2340 11.0006 29202.30 28470.30 221.11
2341 11.0043 30025.50 28461.10 226.04
2342 11.0081 28951.80 28451.50 219.28
2343 11.0118 29451.10 28442.30 221.03
2344 11.0156 29161.80 28432.70 219.29
2345 11.0193 29910.60 28423.50 221.21
2346 11.0231 29009.40 28413.90 218.82
2347 11.0269 29922.30 28404.40 222.98
2348 11.0306 28810.70 28395.10 216.64
2349 11.0344 29525.00 28385.60 222.25
2350 11.0381 29390.30 28376.30 223.92
2351 11.0419 29610.10 28366.80 218.26
2352 11.0457 28846.10 28357.30 215.36
2353 11.0494 29602.90 28348.00 218.79
2354 11.0532 29292.80 28338.50 217.23
2355 11.0569 29481.40 28329.20 215.84
2356 11.0607 29125.50 28319.70 218.29
2357 11.0644 29338.10 28310.40 216.82
2358 11.0682 29121.50 28300.90 215.40
2359 11.0720 29297.20 28291.40 215.71
2360 11.0757 29043.30 28282.10 215.82
2361 11.0795 29670.90 28272.60 216.26
2362 11.0832 29412.10 28263.30 219.01
2363 11.0870 29441.90 28253.80 218.16
2364 11.0908 29059.40 28244.30 218.82
2365 11.0945 29498.90 28235.00 219.35
2366 11.0983 28880.50 28225.50 216.83
2367 11.1020 29770.90 28216.20 224.15
2368 11.1058 28786.10 28206.70 216.93
2369 11.1095 29390.50 28197.40 217.69
2370 11.1133 28970.20 28187.90 217.62
2371 11.1171 29345.10 28178.40 216.70
2372 11.1208 28607.20 28169.10 208.52
2373 11.1246 29498.00 28159.60 223.49
2374 11.1283 29261.30 28150.30 218.70
2375 11.1321 29249.80 28140.80 217.18
2376 11.1358 29025.30 28131.50 217.76
2377 11.1396 29570.50 28122.00 221.25
2378 11.1434 29217.80 28112.50 218.21
2379 11.1471 29729.30 28103.20 218.75
2380 11.1509 28917.80 28093.70 216.08
2381 11.1546 29225.30 28084.40 216.43
2382 11.1584 29016.20 28074.90 218.65
2383 11.1622 29513.30 28065.30 218.67
2384 11.1659 28919.50 28056.10 219.24
2385 11.1697 29492.20 28046.60 219.80
2386 11.1734 29180.10 28037.30 218.50
2387 11.1772 29467.10 28027.80 220.66
2388 11.1809 28876.90 28018.50 216.33
2389 11.1847 29162.40 28009.00 218.39
2390 11.1885 28732.50 27999.50 214.02
2391 11.1922 29590.60 27990.20 222.91
2392 11.1960 29084.70 27980.70 219.21
2393 11.1997 29764.60 27971.40 221.93
2394 11.2035 28937.90 27961.90 214.94
2395 11.2072 29463.10 27952.60 219.40
2396 11.2110 28822.00 27943.10 218.19
2397 11.2148 29325.10 27933.60 218.82
2398 11.2185 29159.00 27924.30 218.00
2399 11.2223 29450.00 27914.80 218.35
2400 11.2260 28662.10 27905.50 216.73
2401 11.2298 29516.20 27896.00 220.31
2402 11.2336 29082.40 27886.50 220.72
2403 11.2373 29302.10 27877.20 222.19
2404 11.2411 29193.90 27867.70 218.44
2405 11.2448 29390.20 27858.40 221.72
2406 11.2486 29078.20 27848.90 218.87
2407 11.2523 29343.80 27839.60 221.48
2408 11.2561 28714.10 27830.10 218.24
2409 11.2599 29115.50 27820.60 218.96
2410 11.2636 29036.80 27811.30 219.99
2411 11.2674 29284.30 27801.80 221.48
2412 11.2711 28598.50 27792.50 215.22
2413 11.2749 29136.20 27783.00 219.17
2414 11.2786 28512.40 27773.70 214.65
2415 11.2824 29186.40 27764.20 218.42
2416 11.2862 28590.20 27754.70 217.38
2417 11.2899 29141.00 27745.40 220.39
2418 11.2937 28760.80 27735.90 217.01
2419 11.2974 29176.20 27726.60 217.32
2420 11.3012 28860.00 27717.10 217.97
2421 11.3049 29234.40 27707.90 219.97
2422 11.3087 29079.90 27698.30 219.32
2423 11.3125 29509.30 27688.80 223.44
2424 11.3162 28900.90 27679.50 219.48
2425 11.3200 29294.90 27670.00 220.23
2426 11.3237 28641.50 27660.80 217.43
2427 11.3275 29122.40 27651.20 219.62
2428 11.3312 28781.60 27642.00 218.47
2429 11.3350 29367.50 27632.50 217.07
2430 11.3388 28713.00 27622.90 216.21
2431 11.3425 28865.00 27613.70 218.58
2432 11.3463 28497.60 27604.20 218.31
2433 11.3500 28914.20 27594.90 217.89
2434 11.3538 28928.40 27585.40 218.92
2435 11.3575 29286.40 27576.10 220.97
2436 11.3613 28585.40 27566.60 215.77
2437 11.3651 29515.70 27557.10 221.80
2438 11.3688 28576.70 27547.80 215.99
2439 11.3726 29060.90 27538.30 216.16
2440 11.3763 28452.70 27529.00 217.06
2441 11.3801 28839.10 27519.50 216.76
2442 11.3838 28608.70 27510.30 216.33
2443 11.3876 29155.40 27500.70 218.01
2444 11.3914 28449.20 27491.20 217.98
2445 11.3951 28705.60 27482.00 212.37
2446 11.3989 28679.60 27472.40 218.80
2447 11.4026 28904.40 27463.20 216.92
2448 11.4064 28443.30 27453.70 216.75
2449 11.4101 29170.00 27444.40 220.30
2450 11.4139 28436.60 27434.90 217.93
2451 11.4177 28902.30 27425.40 216.93
2452 11.4214 28397.10 27416.10 218.14
2453 11.4252 28741.40 27406.60 217.26
2454 11.4289 28659.60 27397.30 217.34
2455 11.4327 29024.20 27387.80 217.76
2456 11.4364 28033.90 27378.60 212.10
2457 11.4402 28900.60 27369.10 220.09
2458 11.4440 28455.00 27359.50 216.33
2459 11.4477 28851.60 27350.30 216.39
2460 11.4515 28361.00 27340.80 214.70
2461 11.4552 29290.90 27331.50 220.95
2462 11.4590 28286.00 27322.00 215.05
2463 11.4627 28838.40 27312.70 219.64
2464 11.4665 28267.20 27303.20 217.66
2465 11.4703 28735.60 27293.70 219.25
2466 11.4740 28720.80 27284.40 219.88
2467 11.4778 28532.80 27274.90 214.35
2468 11.4815 28333.30 27265.70 217.10
2469 11.4853 29012.30 27256.20 219.59
2470 11.4890 28594.70 27246.90 218.00
2471 11.4928 28474.40 27237.40 208.21
2472 11.4965 28274.80 27228.10 218.32
2473 11.5003 29020.90 27218.60 215.33
2474 11.5041 28588.70 27209.10 218.19
2475 11.5078 29152.10 27199.90 222.50
2476 11.5116 28370.20 27190.30 216.87
2477 11.5153 28554.40 27181.10 217.74
2478 11.5191 28223.70 27171.60 232.98
2479 11.5228 28263.20 27162.30 209.69
2480 11.5266 28155.70 27153.40 209.80
2481 11.5304 28690.40 27143.90 214.57
2482 11.5341 28493.60 27134.70 210.08
2483 11.5379 28747.50 27125.20 215.39
2484 11.5416 28157.70 27115.90 207.94
2485 11.5454 28681.60 27106.40 214.79
2486 11.5491 28274.30 27097.20 210.53
2487 11.5529 28755.90 27087.70 210.40
2488 11.5566 28499.80 27078.40 210.07
2489 11.5604 28788.40 27068.90 215.95
2490 11.5642 28124.10 27059.40 208.12
2491 11.5679 28466.60 27050.20 209.53
2492 11.5717 28380.30 27040.70 212.32
2493 11.5754 28941.30 27031.40 215.90
2494 11.5792 27906.50 27021.90 210.20
2495 11.5829 28812.60 27012.60 212.36
2496 11.5867 27928.20 27003.10 210.19
2497 11.5905 28458.30 26993.60 212.96
2498 11.5942 28082.40 26984.40 210.19
2499 11.5980 28757.20 26974.90 211.97
2500 11.6017 27981.50 26965.60 208.34
2501 11.6055 28930.10 26956.10 216.45
2502 11.6092 28337.10 26946.90 213.76
2503 11.6130 28415.70 26937.40 209.74
2504 11.6167 27426.50 26928.10 205.50
2505 11.6205 28721.40 26918.60 213.76
2506 11.6243 28173.00 26909.10 210.57
2507 11.6280 28801.90 26899.90 214.40
2508 11.6318 28545.90 26890.40 215.62
2509 11.6355 29187.10 26881.20 218.04
2510 11.6393 28398.20 26871.70 213.57
2511 11.6430 28406.10 26862.40 212.60
2512 11.6468 28161.20 26852.90 211.56
2513 11.6505 28565.50 26843.70 210.86
2514 11.6543 28066.20 26834.20 209.10
2515 11.6581 28177.10 26824.70 212.91
2516 11.6618 28015.40 26815.40 211.90
2517 11.6656 28597.40 26805.90 214.28
2518 11.6693 27933.10 26796.70 210.73
2519 11.6731 28367.70 26787.20 212.37
2520 11.6768 28232.70 26778.00 212.68
2521 11.6806 28648.60 26768.50 214.59
2522 11.6844 27871.50 26759.00 209.98
2523 11.6881 28639.60 26749.70 212.55
2524 11.6919 28010.30 26740.30 211.15
2525 11.6956 28236.80 26731.00 210.27
2526 11.6994 28050.90 26721.50 211.27
2527 11.7031 28550.30 26712.30 212.47
2528 11.7069 28207.40 26702.80 212.07
2529 11.7106 28777.10 26693.60 214.46
2530 11.7144 28159.10 26684.10 212.87
2531 11.7182 28263.60 26674.60 211.00
2532 11.7219 27867.00 26665.30 211.90
2533 11.7257 28647.70 26655.90 213.90
2534 11.7294 28194.40 26646.60 209.92
2535 11.7332 28177.20 26637.10 211.74
2536 11.7369 27883.50 26627.90 209.86
2537 11.7407 28486.90 26618.40 214.03
2538 11.7444 27788.10 26609.20 208.44
2539 11.7482 28252.80 26599.70 209.43
2540 11.7520 27621.80 26590.20 209.40
2541 11.7557 28576.50 26581.00 211.11
2542 11.7595 27428.50 26571.50 207.28
2543 11.7632 28275.60 26562.30 211.88
2544 11.7670 27866.00 26552.80 210.95
2545 11.7707 28433.10 26543.60 212.51
2546 11.7745 28139.20 26534.10 208.97
2547 11.7782 28125.30 26524.90 211.20
2548 11.7820 27616.40 26515.40 207.62
2549 11.7857 28129.30 26506.20 210.58
2550 11.7895 27370.00 26496.70 207.51
2551 11.7933 27954.80 26487.20 208.83
2552 11.7970 27727.30 26478.00 210.52
2553 11.8008 27929.50 26468.50 209.73
2554 11.8045 27441.80 26459.30 206.75
2555 11.8083 28094.10 26449.80 207.78
2556 11.8120 27641.50 26440.60 207.94
2557 11.8158 27978.70 26431.10 208.73
2558 11.8195 27357.20 26421.90 206.79
2559 11.8233 27779.30 26412.40 208.34
2560 11.8271 27594.00 26403.00 207.51
2561 11.8308 27988.00 26393.80 210.54
2562 11.8346 27821.40 26384.30 209.14
2563 11.8383 28050.30 26375.10 211.92
2564 11.8421 27744.80 26365.60 207.61
2565 11.8458 27839.90 26356.40 208.60
2566 11.8496 27266.40 26346.90 205.62
2567 11.8533 27641.50 26337.70 208.10
2568 11.8571 27043.90 26328.30 205.47
2569 11.8608 27494.60 26319.10 207.21
2570 11.8646 27312.00 26309.60 206.33
2571 11.8684 27689.50 26300.20 207.33
2572 11.8721 27279.20 26290.90 206.29
2573 11.8759 27667.00 26281.50 208.54
2574 11.8796 27181.40 26272.30 206.56
2575 11.8834 27352.00 26262.80 206.38
2576 11.8871 27011.50 26253.60 206.55
2577 11.8909 27574.70 26244.20 206.74
2578 11.8946 26902.20 26235.00 203.62
2579 11.8984 27300.70 26225.50 207.06
2580 11.9021 27376.90 26216.30 208.37
2581 11.9059 27375.50 26206.90 203.82
2582 11.9097 27242.50 26197.50 208.92
2583 11.9134 27483.40 26188.30 206.56
2584 11.9172 27033.50 26178.80 203.31
2585 11.9209 27495.20 26169.60 206.78
2586 11.9247 27113.10 26160.20 207.68
2587 11.9284 27314.00 26151.00 206.10
2588 11.9322 26849.80 26141.60 204.37
2589 11.9359 27357.30 26132.40 206.43
2590 11.9397 27006.30 26123.00 204.29
2591 11.9434 27676.10 26113.80 209.52
2592 11.9472 26764.40 26104.30 203.45
2593 11.9510 27301.50 26094.90 207.57
2594 11.9547 26745.80 26085.70 204.11
2595 11.9585 27357.30 26076.30 206.03
2596 11.9622 27049.20 26067.20 205.06
2597 11.9660 27424.10 26057.70 205.62
2598 11.9697 26566.30 26048.60 204.16
2599 11.9735 27386.70 26039.10 207.82
2600 11.9772 26815.30 26030.00 203.87
2601 11.9810 26910.90 26020.60 202.62
2602 11.9831 27258.50 26015.40 213.96
2603 11.9869 28063.30 26006.00 211.41
2604 11.9906 27243.80 25996.80 212.34
2605 11.9944 27424.10 25987.40 214.85
2606 11.9981 26913.60 25978.20 210.49
2607 12.0019 27258.30 25968.80 212.12
2608 12.0056 27392.30 25959.70 229.25
2609 12.0094 26945.30 25950.30 204.13
2610 12.0132 27089.30 25940.90 205.37
2611 12.0169 27635.00 25931.80 210.17
2612 12.0207 26779.10 25922.40 202.76
2613 12.0244 27489.30 25913.20 210.05
2614 12.0282 27114.70 25903.90 203.65
2615 12.0319 27352.30 25894.70 209.12
2616 12.0357 27128.10 25885.30 205.74
2617 12.0395 27423.10 25876.00 204.85
2618 12.0432 26827.00 25866.90 202.93
2619 12.0470 27404.60 25857.50 210.02
2620 12.0507 26929.40 25848.40 203.14
2621 12.0545 27356.60 25839.00 204.96
2622 12.0582 26956.60 25829.90 206.23
2623 12.0620 27419.00 25820.50 209.37
2624 12.0657 26910.50 25811.40 206.04
2625 12.0695 27134.50 25802.10 205.20
2626 12.0733 26676.50 25792.70 204.86
2627 12.0770 27669.80 25783.70 209.78
2628 12.0808 27236.80 25774.30 206.74
2629 12.0845 27496.60 25765.20 206.70
2630 12.0883 26764.30 25755.90 203.22
2631 12.0920 27686.00 25746.80 211.18
2632 12.0958 26898.20 25737.50 207.54
2633 12.0995 27445.50 25728.40 205.78
2634 12.1033 26672.10 25719.10 202.47
2635 12.1071 27415.70 25709.80 208.24
2636 12.1108 27349.00 25700.80 207.23
2637 12.1146 27785.50 25691.50 210.20
2638 12.1183 27716.60 25682.40 212.22
2639 12.1221 28037.80 25673.10 213.22
2640 12.1258 27319.60 25664.10 209.04
2641 12.1296 27420.00 25654.80 208.52
2642 12.1334 26770.00 25645.50 205.59
2643 12.1371 26597.40 25636.50 202.37
2644 12.1409 26700.00 25627.30 203.29
2645 12.1446 27457.70 25618.30 210.02
2646 12.1484 26729.60 25609.00 206.38
2647 12.1521 27291.60 25600.00 208.72
2648 12.1559 27096.50 25590.80 207.30
2649 12.1596 27265.90 25581.80 207.75
2650 12.1634 26822.30 25572.60 206.61
2651 12.1672 27477.40 25563.40 209.65
2652 12.1709 26912.90 25554.40 205.99
2653 12.1747 26883.70 25545.20 204.98
2654 12.1784 27187.50 25536.30 207.79
2655 12.1822 27258.50 25527.10 206.24
2656 12.1859 26570.80 25518.20 204.87
2657 12.1897 27284.70 25509.00 207.13
2658 12.1934 26630.10 25500.10 205.24
2659 12.1972 27510.90 25490.90 209.11
2660 12.2010 26437.30 25481.80 205.32
2661 12.2047 27210.40 25472.90 206.62
2662 12.2085 26643.60 25463.80 206.64
2663 12.2122 27387.40 25455.00 208.57
2664 12.2127 26757.70 25453.80 203.26
2665 12.2164 27442.40 25444.90 203.98
2666 12.2202 26438.50 25435.80 201.70
2667 12.2239 27091.90 25427.00 207.66
2668 12.2277 26527.90 25418.00 203.07
2669 12.2314 27368.00 25409.20 207.68
2670 12.2352 26453.70 25400.10 203.37
2671 12.2389 26936.50 25391.40 206.11
2672 12.2427 26762.70 25382.40 204.73
2673 12.2464 27040.50 25373.60 204.05
2674 12.2502 26483.60 25364.70 204.95
2675 12.2540 26788.20 25355.70 204.32
2676 12.2577 26463.40 25347.00 202.21
2677 12.2615 27130.50 25338.10 208.65
2678 12.2652 26628.20 25329.40 202.48
2679 12.2690 27288.50 25320.60 209.01
2680 12.2727 26679.80 25311.90 204.67
2681 12.2765 26807.70 25303.10 204.77
2682 12.2802 26407.90 25294.50 202.14
2683 12.2840 27321.60 25285.70 201.21
2684 12.2877 26674.80 25277.20 205.38
2685 12.2915 27217.40 25268.40 207.23
2686 12.2953 26522.80 25259.70 204.61
2687 12.2990 27230.50 25251.20 208.67
2688 12.3028 26387.80 25242.60 202.60
2689 12.3065 27096.00 25234.20 204.58
2690 12.3103 26611.30 25225.60 203.55
2691 12.3140 27142.40 25217.20 206.21
2692 12.3178 26511.80 25208.70 202.41
2693 12.3215 26825.90 25200.40 204.68
2694 12.3253 26629.20 25191.90 207.64
2695 12.3291 27220.20 25183.50 206.85
2696 12.3328 26485.20 25175.30 206.12
2697 12.3366 27375.20 25167.00 205.27
2698 12.3403 26857.00 25158.90 205.41
2699 12.3441 27183.00 25150.60 207.47
2700 12.3478 26715.90 25142.60 205.79
2701 12.3516 27151.70 25134.50 206.49
2702 12.3553 26419.70 25126.60 202.29
2703 12.3591 26942.50 25118.60 206.43
2704 12.3629 26660.30 25110.60 204.01
2705 12.3666 26746.60 25102.90 199.46
2706 12.3704 26737.90 25095.10 204.68
2707 12.3741 27021.50 25087.60 204.96
2708 12.3779 26872.20 25079.90 204.84
2709 12.3816 27062.60 25072.50 207.19
2710 12.3854 26441.30 25065.00 203.21
2711 12.3891 26499.40 25057.90 200.59
2712 12.3929 26806.10 25050.60 205.35
2713 12.3966 26873.30 25043.60 204.65
2714 12.4004 26702.00 25036.60 205.23
2715 12.4042 26917.50 25029.70 206.62
2716 12.4079 26795.40 25023.10 204.70
2717 12.4117 27386.20 25016.50 206.08
2718 12.4154 26752.30 25010.20 205.40
2719 12.4192 27348.00 25003.90 206.76
2720 12.4229 26920.40 24997.90 205.46
2721 12.4267 27259.60 24992.00 206.75
2722 12.4304 26742.50 24986.50 204.10
2723 12.4342 27079.90 24981.00 206.68
2724 12.4380 26697.10 24975.70 205.52
2725 12.4417 27169.50 24970.80 205.65
2726 12.4455 26749.70 24966.10 203.04
2727 12.4492 27660.60 24961.70 208.24
2728 12.4530 26847.70 24957.50 205.20
2729 12.4567 27770.60 24953.80 209.63
2730 12.4605 27257.60 24950.20 207.03
2731 12.4643 27795.70 24947.00 210.89
2732 12.4680 27498.80 24944.20 209.30
2733 12.4718 27798.60 24941.80 209.99
2734 12.4755 27489.30 24939.70 207.12
2735 12.4793 28261.90 24938.10 210.34
2736 12.4830 27466.40 24936.90 209.28
2737 12.4868 28327.20 24936.10 212.86
2738 12.4905 27690.90 24935.80 209.48
2739 12.4943 27889.50 24935.90 209.54
2740 12.4981 27839.70 24936.50 211.40
2741 12.5018 28447.80 24937.60 214.98
2742 12.5056 28422.00 24939.30 211.73
2743 12.5093 28491.00 24941.40 214.12
2744 12.5131 28352.30 24944.20 211.26
2745 12.5168 29133.50 24947.30 215.16
2746 12.5206 28648.30 24951.20 214.88
2747 12.5243 29302.30 24955.40 216.05
2748 12.5281 29178.70 24960.30 217.13
2749 12.5319 29622.00 24965.70 217.01
2750 12.5356 29184.30 24971.40 217.18
2751 12.5394 29814.70 24977.80 219.25
2752 12.5431 29327.30 24984.50 216.80
2753 12.5469 30170.60 24991.70 221.21
2754 12.5506 29540.60 24999.10 219.04
2755 12.5544 30531.90 25006.90 222.33
2756 12.5582 30291.60 25015.00 221.50
2757 12.5619 30980.90 25022.90 225.40
2758 12.5657 30819.10 25031.00 224.37
2759 12.5694 31000.50 25038.80 225.15
2760 12.5732 30591.70 25046.50 222.84
2761 12.5769 31877.70 25053.50 229.87
2762 12.5807 31251.40 25060.00 226.63
2763 12.5844 31790.80 25065.60 227.22
2764 12.5882 31386.60 25070.40 226.23
2765 12.5920 32602.50 25073.90 232.04
2766 12.5957 31798.60 25075.90 228.19
2767 12.5995 32789.10 25076.40 231.60
2768 12.6032 31998.50 25075.10 229.82
2769 12.6070 32944.50 25071.90 231.52
2770 12.6107 32387.90 25066.80 230.53
2771 12.6145 33104.70 25059.50 234.93
2772 12.6183 32731.80 25049.90 232.12
2773 12.6220 33782.20 25038.60 239.37
2774 12.6258 32901.70 25024.80 233.97
2775 12.6295 33536.10 25009.30 237.62
2776 12.6333 33041.70 24991.60 233.64
2777 12.6370 33593.70 24972.60 236.74
2778 12.6408 33028.70 24951.40 235.25
2779 12.6446 33360.90 24928.90 234.88
2780 12.6483 32567.40 24905.70 233.35
2781 12.6521 33162.70 24880.90 234.10
2782 12.6558 32694.40 24856.00 229.78
2783 12.6596 32569.60 24829.80 229.76
2784 12.6633 31852.00 24803.80 225.79
2785 12.6671 32319.30 24776.80 230.24
2786 12.6708 31596.70 24750.30 227.39
2787 12.6746 32444.10 24723.20 233.28
2788 12.6784 31253.70 24696.10 223.39
2789 12.6821 31732.30 24669.90 224.38
2790 12.6859 31223.30 24643.30 230.02
2791 12.6896 30979.80 24617.70 224.45
2792 12.6934 30563.40 24591.90 221.06
2793 12.6971 30687.40 24567.10 222.79
2794 12.7009 30129.00 24542.20 222.11
2795 12.7047 30059.00 24517.70 219.29
2796 12.7084 29229.10 24494.40 218.38
2797 12.7122 29631.70 24471.10 219.33
2798 12.7159 29159.70 24448.80 215.24
2799 12.7197 29786.00 24426.50 222.23
2800 12.7234 28418.90 24405.40 209.43
2801 12.7272 29419.00 24384.10 219.30
2802 12.7310 28356.60 24363.40 214.16
2803 12.7347 29177.80 24343.80 221.77
2804 12.7385 28039.60 24324.10 213.30
2805 12.7422 28773.40 24305.50 213.78
2806 12.7460 27770.20 24286.80 213.69
2807 12.7497 28156.20 24269.00 213.62
2808 12.7535 27318.80 24251.20 209.85
2809 12.7573 27804.90 24233.90 212.37
2810 12.7610 27108.40 24217.40 207.21
2811 12.7648 27394.80 24200.80 210.82
2812 12.7685 27066.60 24185.10 208.06
2813 12.7723 26982.20 24169.20 203.06
2814 12.7760 26705.40 24154.20 205.25
2815 12.7798 26789.90 24139.00 208.15
2816 12.7836 26381.90 24124.20 201.92
2817 12.7873 27036.50 24110.00 207.35
2818 12.7911 25952.10 24095.70 197.71
2819 12.7948 26453.20 24082.10 205.89
2820 12.7986 25746.00 24068.30 203.13
2821 12.8023 26375.20 24055.10 204.48
2822 12.8061 25846.80 24041.80 200.98
2823 12.8099 26149.90 24028.70 203.32
2824 12.8136 25498.60 24016.10 199.82
2825 12.8174 25931.00 24003.40 203.24
2826 12.8211 25530.70 23991.20 201.43
2827 12.8249 26282.40 23978.70 204.06
2828 12.8286 25450.30 23966.80 200.98
2829 12.8324 25775.40 23954.70 203.61
2830 12.8362 25127.90 23942.70 200.99
2831 12.8399 25968.90 23931.10 204.00
2832 12.8437 25102.30 23919.40 196.42
2833 12.8474 25648.50 23908.10 202.37
2834 12.8512 25268.10 23896.50 200.57
2835 12.8549 25685.80 23885.40 202.54
2836 12.8587 25005.70 23874.00 197.14
2837 12.8625 25368.70 23862.70 200.54
2838 12.8662 25188.70 23851.80 198.96
2839 12.8700 25397.60 23840.70 200.54
2840 12.8737 24952.00 23829.90 197.41
2841 12.8775 25179.00 23818.90 198.59
2842 12.8813 25070.50 23808.00 200.16
2843 12.8850 24979.70 23797.40 198.27
2844 12.8888 25001.10 23786.60 198.83
2845 12.8925 25274.90 23776.10 200.94
2846 12.8963 24665.90 23765.40 196.44
2847 12.9000 25234.20 23755.00 198.79
2848 12.9038 24175.70 23744.30 192.07
2849 12.9076 25157.40 23733.80 197.35
2850 12.9113 24722.60 23723.50 197.89
2851 12.9151 24962.80 23713.00 199.27
2852 12.9188 24573.30 23702.80 195.33
2853 12.9226 25173.30 23692.30 197.09
2854 12.9263 24471.80 23682.20 197.92
2855 12.9301 25027.00 23671.80 197.45
2856 12.9339 24280.80 23661.40 194.89
2857 12.9376 25039.40 23651.40 196.77
2858 12.9414 24319.20 23641.10 195.50
2859 12.9451 25086.60 23631.10 200.08
2860 12.9489 24583.40 23620.80 197.84
2861 12.9526 24717.50 23610.90 196.68
2862 12.9564 24337.60 23600.70 195.77
2863 12.9602 24649.30 23590.50 196.48
2864 12.9639 23943.60 23580.60 193.42
2865 12.9677 24647.40 23570.50 194.63
2866 12.9714 24293.00 23560.60 193.46
2867 12.9752 24462.70 23550.50 194.44
2868 12.9790 24307.70 23540.40 192.78
2869 12.9827 24200.70 23530.60 193.72
2870 12.9865 24182.90 23520.60 194.08
2871 12.9902 24699.30 23510.80 195.07
2872 12.9940 23913.70 23500.80 191.01
2873 12.9977 24187.60 23491.10 191.77
2874 13.0015 23841.50 23481.10 188.85
2875 13.0053 24224.20 23471.10 187.01
2876 13.0090 23673.30 23461.40 190.25
2877 13.0128 24663.00 23451.40 196.72
2878 13.0165 24112.20 23441.80 197.65
2879 13.0203 24576.40 23431.90 194.54
2880 13.0241 24107.80 23421.90 192.91
2881 13.0278 24050.00 23412.30 191.68
2882 13.0316 23787.30 23402.40 189.42
2883 13.0353 23660.10 23392.80 187.32
2884 13.0391 23707.00 23382.90 190.66
2885 13.0428 24166.10 23373.30 193.03
2886 13.0466 23535.00 23363.50 188.83
2887 13.0504 24131.00 23353.70 193.10
2888 13.0541 23844.50 23344.10 192.71
2889 13.0579 24219.00 23334.30 193.92
2890 13.0616 24163.60 23324.70 194.72
2891 13.0654 24646.10 23314.90 196.56
2892 13.0692 23714.20 23305.10 193.46
2893 13.0729 24600.40 23295.60 198.14
2894 13.0767 23769.90 23285.80 195.00
2895 13.0804 24212.40 23276.30 195.37
2896 13.0842 23824.30 23266.60 191.60
2897 13.0879 24299.40 23257.10 195.49
2898 13.0917 24058.50 23247.30 196.30
2899 13.0955 24047.90 23237.60 194.47
2900 13.0992 23950.30 23228.10 193.74
2901 13.1030 24047.90 23218.40 194.03
2902 13.1067 23973.80 23208.90 193.11
2903 13.1105 24273.90 23199.20 198.76
2904 13.1143 23709.60 23189.50 193.33
2905 13.1180 24050.50 23180.10 195.21
2906 13.1218 23787.30 23170.40 192.92
2907 13.1255 24079.70 23161.00 193.80
2908 13.1293 23561.90 23151.30 191.19
2909 13.1330 24588.40 23141.90 198.16
2910 13.1368 23797.10 23132.20 192.65
2911 13.1406 24151.20 23122.50 194.48
2912 13.1443 23466.80 23113.10 190.88
2913 13.1481 24114.00 23103.50 193.41
2914 13.1518 23682.20 23094.10 202.39
2915 13.1556 23930.90 23084.40 191.90
2916 13.1594 23482.60 23074.80 186.46
2917 13.1631 23826.40 23065.40 187.39
2918 13.1669 23146.70 23055.80 185.76
2919 13.1706 23676.30 23046.40 189.62
2920 13.1744 23330.30 23036.80 187.19
2921 13.1781 23864.80 23027.40 190.62
2922 13.1819 23508.60 23017.80 187.85
2923 13.1857 23710.60 23008.20 188.40
2924 13.1894 23317.90 22998.90 184.98
2925 13.1932 24167.20 22989.30 189.90
2926 13.1969 23319.80 22980.00 187.02
2927 13.2007 23913.00 22970.40 188.82
2928 13.2045 23386.30 22960.80 184.56
2929 13.2082 23731.10 22951.50 188.78
2930 13.2120 23618.40 22941.90 188.16
2931 13.2157 23763.70 22933.40 188.53
2932 13.2195 23508.00 22924.70 188.68
2933 13.2233 23744.10 22916.00 189.90
2934 13.2270 23589.00 22907.50 188.73
2935 13.2308 23538.00 22898.80 186.66
2936 13.2345 23288.50 22890.40 185.54
2937 13.2383 23877.30 22881.70 189.91
2938 13.2420 23077.60 22873.20 187.34
2939 13.2458 23667.60 22864.50 190.44
2940 13.2496 23179.00 22855.80 186.67
2941 13.2533 23657.80 22847.40 189.56
2942 13.2571 23326.00 22838.70 187.93
2943 13.2608 23805.20 22830.30 190.17
2944 13.2646 23381.70 22821.60 185.03
2945 13.2684 23760.10 22813.00 188.75
2946 13.2721 23369.00 22804.50 188.70
2947 13.2759 23509.80 22795.90 188.95
2948 13.2796 23280.80 22787.50 188.16
2949 13.2834 23545.80 22778.80 188.41
2950 13.2872 22992.20 22770.20 184.08
2951 13.2909 23558.40 22761.80 190.15
2952 13.2947 22893.00 22753.20 185.15
2953 13.2984 23481.60 22744.80 187.87
2954 13.3022 22989.70 22736.20 186.40
2955 13.3060 23389.20 22727.60 185.93
2956 13.3097 22923.30 22719.20 186.82
2957 13.3135 23421.30 22710.60 187.30
2958 13.3172 23170.90 22702.20 187.14
2959 13.3210 23462.80 22693.60 187.91
2960 13.3247 23053.10 22685.30 185.18
2961 13.3285 23482.00 22676.70 188.87
2962 13.3323 23167.50 22668.10 188.18
2963 13.3360 23250.60 22659.80 186.52
2964 13.3398 23016.60 22651.20 189.91
2965 13.3435 23095.40 22642.90 186.54
2966 13.3473 23057.80 22634.30 186.92
2967 13.3511 23405.10 22625.80 187.46
2968 13.3548 22995.10 22617.50 184.10
2969 13.3586 23401.00 22609.00 186.77
2970 13.3623 22887.90 22600.70 185.48
2971 13.3661 23107.90 22592.10 184.00
2972 13.3699 22674.10 22583.60 186.10
2973 13.3736 23231.50 22575.30 184.61
2974 13.3774 22775.50 22566.90 184.61
2975 13.3811 23188.40 22558.60 188.42
2976 13.3849 22578.00 22550.10 183.29
2977 13.3887 23335.90 22541.60 184.49
2978 13.3924 22733.90 22533.40 184.74
2979 13.3962 23276.00 22524.90 187.72
2980 13.3999 22499.10 22516.70 185.42
2981 13.4037 23206.00 22508.20 188.23
2982 13.4075 22791.90 22499.80 187.34
2983 13.4112 23259.70 22491.60 188.25
2984 13.4150 22515.70 22483.20 184.54
2985 13.4187 23032.70 22475.00 185.42
2986 13.4225 23037.10 22466.60 187.11
2987 13.4262 22974.40 22458.40 185.93
2988 13.4300 22282.30 22450.00 181.46
2989 13.4338 22804.30 22441.70 186.39
2990 13.4375 22587.70 22433.50 183.30
2991 13.4413 22777.60 22425.20 185.72
2992 13.4450 22626.60 22417.10 184.23
2993 13.4488 23005.30 22408.80 185.10
2994 13.4526 22457.00 22400.40 183.81
2995 13.4563 23055.70 22392.40 187.02
2996 13.4601 22725.70 22384.10 183.08
2997 13.4638 23041.50 22376.00 186.82
2998 13.4676 22795.90 22367.80 185.68
2999 13.4714 22746.90 22359.50 184.88
3000 13.4751 22528.80 22351.50 183.26
3001 13.4789 23006.30 22343.30 185.71
3002 13.4826 22535.10 22335.30 183.23
3003 13.4864 22813.70 22327.10 186.43
3004 13.4902 22630.80 22319.00 184.68
3005 13.4939 22904.00 22311.10 186.68
3006 13.4977 22596.50 22302.90 185.17
3007 13.5014 22800.70 22295.10 183.26
3008 13.5052 22321.10 22287.00 182.54
3009 13.5090 22966.60 22278.90 187.48
3010 13.5127 22202.60 22271.10 180.75
3011 13.5165 22828.20 22263.10 184.81
3012 13.5202 22599.60 22255.30 186.60
3013 13.5240 22815.00 22247.40 184.43
3014 13.5278 22559.10 22239.40 183.73
3015 13.5315 22762.60 22231.70 186.42
3016 13.5353 22154.20 22223.90 181.36
3017 13.5390 22871.50 22216.30 189.61
3018 13.5428 22571.70 22208.50 184.21
3019 13.5466 22779.90 22200.70 186.14
3020 13.5503 22325.50 22193.20 183.52
3021 13.5541 22957.30 22185.50 184.74
3022 13.5578 22405.20 22178.10 181.64
3023 13.5616 23037.20 22170.50 187.26
3024 13.5654 22651.30 22163.00 186.77
3025 13.5691 22820.70 22155.70 186.43
3026 13.5729 22410.10 22148.30 184.49
3027 13.5766 22973.10 22141.10 185.89
3028 13.5804 22519.80 22133.80 183.69
3029 13.5842 22631.50 22126.60 185.58
3030 13.5879 22787.00 22119.60 188.47
3031 13.5917 22877.10 22112.60 186.40
3032 13.5954 22594.10 22105.80 186.12
3033 13.5992 22807.20 22098.90 187.27
3034 13.6030 22330.80 22092.10 185.06
3035 13.6067 22943.50 22085.60 187.18
3036 13.6105 22336.60 22079.00 184.64
3037 13.6142 22853.70 22072.70 184.59
3038 13.6180 22300.70 22066.40 183.83
3039 13.6218 22826.40 22060.20 187.67
3040 13.6255 22422.00 22054.20 185.53
3041 13.6293 22783.00 22048.30 186.54
3042 13.6330 22505.90 22042.70 186.31
3043 13.6368 22922.10 22037.10 188.54
3044 13.6406 22449.00 22031.70 186.91
3045 13.6443 23292.90 22026.60 190.31
3046 13.6481 22510.60 22021.60 185.36
3047 13.6518 23154.70 22016.90 189.03
3048 13.6556 22810.60 22012.20 187.98
3049 13.6594 22900.40 22007.90 187.77
3050 13.6631 22707.60 22003.80 187.35
3051 13.6669 23005.60 21999.90 190.04
3052 13.6706 22987.60 21996.40 188.81
3053 13.6744 23214.40 21993.00 190.70
3054 13.6782 22874.00 21989.90 189.28
3055 13.6819 23437.20 21987.10 190.96
3056 13.6857 22652.20 21984.60 187.41
3057 13.6894 22997.50 21982.50 187.28
3058 13.6932 23110.00 21980.60 189.76
3059 13.6970 23374.10 21979.10 191.34
3060 13.7007 22973.90 21977.90 186.17
3061 13.7045 23715.40 21977.00 195.08
3062 13.7082 22905.20 21976.50 188.64
3063 13.7120 23691.20 21976.30 191.90
3064 13.7158 23106.90 21976.40 192.23
3065 13.7195 23662.40 21976.90 191.24
3066 13.7233 23422.60 21977.80 193.33
3067 13.7270 24229.10 21979.00 198.98
3068 13.7308 23219.50 21980.60 191.77
3069 13.7346 23897.30 21982.50 195.57
3070 13.7383 23701.90 21984.60 194.33
3071 13.7421 23811.30 21987.10 193.07
3072 13.7458 23522.50 21989.80 192.07
3073 13.7496 23969.80 21992.90 193.74
3074 13.7534 23921.90 21996.20 193.77
3075 13.7571 24408.60 21999.50 197.79
3076 13.7609 23987.20 22003.10 191.34
3077 13.7646 24246.60 22006.70 192.85
3078 13.7684 24294.30 22010.40 197.03
3079 13.7722 24540.60 22014.10 199.15
3080 13.7759 24734.00 22017.50 197.74
3081 13.7797 24574.40 22020.80 194.10
3082 13.7834 24689.90 22023.70 198.35
3083 13.7872 25068.50 22026.30 201.20
3084 13.7910 24650.00 22028.30 197.07
3085 13.7947 24944.00 22029.70 196.96
3086 13.7985 25096.10 22030.40 203.28
3087 13.8022 25175.40 22030.20 203.04
3088 13.8060 25026.40 22029.00 198.29
3089 13.8098 25609.60 22026.70 204.31
3090 13.8135 25107.40 22023.30 199.78
3091 13.8173 25509.10 22018.60 202.28
3092 13.8210 24999.40 22012.80 199.28
3093 13.8248 25784.70 22005.40 203.26
3094 13.8286 25223.50 21996.60 201.53
3095 13.8323 25706.30 21986.70 202.70
3096 13.8361 24887.60 21975.10 200.79
3097 13.8398 25684.50 21962.70 203.58
3098 13.8436 25190.80 21948.60 199.43
3099 13.8474 25875.30 21933.30 202.40
3100 13.8511 25520.70 21917.40 200.86
3101 13.8549 25562.70 21900.10 202.85
3102 13.8586 24828.30 21882.40 201.33
3103 13.8624 25512.50 21863.50 199.34
3104 13.8662 24985.40 21844.00 200.32
3105 13.8699 25481.90 21824.50 201.74
3106 13.8737 24833.70 21804.10 199.01
3107 13.8774 25154.50 21783.90 202.25
3108 13.8812 24658.30 21762.90 196.83
3109 13.8850 24795.00 21741.90 197.57
3110 13.8887 24361.90 21721.30 196.21
3111 13.8925 24648.30 21700.20 197.53
3112 13.8962 23963.70 21679.80 195.75
3113 13.9000 24636.90 21659.00 197.36
3114 13.9038 23877.40 21638.30 195.23
3115 13.9075 24115.90 21618.40 195.30
3116 13.9113 23696.50 21598.30 192.98
3117 13.9150 24134.90 21578.90 195.21
3118 13.9188 23353.10 21559.30 191.15
3119 13.9226 23734.90 21540.10 193.33
3120 13.9263 23290.90 21521.60 191.73
3121 13.9301 23404.50 21503.00 193.93
3122 13.9339 23007.40 21484.80 190.14
3123 13.9376 23578.90 21467.40 188.98
3124 13.9414 22619.10 21449.90 189.34
3125 13.9451 23447.20 21433.20 192.16
3126 13.9489 22619.80 21416.30 190.02
3127 13.9527 23076.10 21399.80 188.68
3128 13.9564 22601.60 21384.10 186.91
3129 13.9602 22564.20 21368.30 186.13
3130 13.9639 22604.20 21353.20 189.42
3131 13.9677 22842.80 21338.10 189.20
3132 13.9715 22486.70 21323.20 187.69
3133 13.9752 22461.10 21309.00 189.79
3134 13.9790 21914.00 21294.80 185.10
3135 13.9827 22343.50 21281.10 186.87
3136 13.9865 21839.90 21267.40 185.51
3137 13.9903 22293.10 21253.90 185.35
3138 13.9940 21824.30 21241.10 184.47
3139 13.9978 22277.20 21228.10 185.91
3140 14.0015 21542.30 21215.60 182.65
3141 14.0053 21823.20 21203.10 182.19
3142 14.0091 21702.60 21190.70 185.33
3143 14.0128 21858.10 21178.90 183.70
3144 14.0166 21346.60 21166.90 180.88
3145 14.0203 21834.40 21155.50 183.62
3146 14.0241 21067.00 21143.80 179.94
3147 14.0279 21877.70 21132.40 186.15
3148 14.0316 21346.30 21121.30 184.49
3149 14.0354 21804.80 21110.20 185.71
3150 14.0391 21151.40 21099.40 178.94
3151 14.0429 21492.70 21088.50 182.26
3152 14.0467 21160.60 21077.60 180.54
3153 14.0504 21594.00 21067.20 179.40
3154 14.0542 21163.40 21056.60 179.17
3155 14.0580 21662.20 21046.10 182.53
3156 14.0617 21399.20 21036.00 183.14
3157 14.0655 21823.00 21025.60 184.64
3158 14.0692 20726.00 21015.60 180.44
3159 14.0730 21445.80 21005.50 181.48
3160 14.0768 20987.20 20995.30 176.83
3161 14.0805 21409.30 20985.60 182.74
3162 14.0843 20953.20 20975.60 178.93
3163 14.0880 21363.40 20965.90 181.15
3164 14.0918 20755.00 20956.00 179.04
3165 14.0956 21121.70 20946.20 180.97
3166 14.0993 20900.20 20936.70 180.07
3167 14.1031 21579.90 20926.90 184.01
3168 14.1068 21104.60 20917.50 181.34
3169 14.1106 21033.20 20907.80 179.54
3170 14.1144 21030.60 20898.20 182.13
3171 14.1181 21502.90 20888.90 184.27
3172 14.1219 20731.00 20879.40 180.30
3173 14.1256 21173.00 20870.10 184.82
3174 14.1294 20857.50 20860.60 180.72
3175 14.1332 20986.50 20851.10 180.00
3176 14.1369 20897.80 20842.00 181.31
3177 14.1407 21101.00 20832.60 181.33
3178 14.1444 20587.60 20823.40 176.29
3179 14.1482 21225.20 20814.10 180.55
3180 14.1520 20973.10 20804.70 182.81
3181 14.1557 21089.20 20795.60 177.83
3182 14.1595 20499.70 20786.30 180.21
3183 14.1633 21174.40 20777.10 182.00
3184 14.1670 20672.60 20768.00 181.64
3185 14.1708 20868.00 20758.80 181.96
3186 14.1745 20461.90 20749.80 180.32
3187 14.1783 21198.90 20740.60 183.90
3188 14.1821 20661.30 20731.40 177.87
3189 14.1858 21094.70 20722.50 183.60
3190 14.1896 20954.50 20713.30 180.95
3191 14.1933 20708.40 20704.40 178.69
3192 14.1971 20684.20 20695.30 180.89
3193 14.2009 20640.70 20686.10 180.26
3194 14.2046 20662.00 20677.20 180.31
3195 14.2084 20815.60 20668.10 179.39
3196 14.2121 20568.50 20665.40 179.89
3197 14.2159 20695.20 20656.30 180.85
3198 14.2197 20479.60 20647.30 180.27
3199 14.2234 20870.20 20638.50 182.98
3200 14.2272 20373.20 20629.50 177.22
3201 14.2309 20912.40 20620.70 181.62
3202 14.2347 20461.70 20611.70 181.23
3203 14.2385 20755.80 20602.70 182.34
3204 14.2422 20567.10 20593.90 179.36
3205 14.2460 20862.50 20585.00 181.24
3206 14.2498 20333.20 20576.00 175.69
3207 14.2535 20749.50 20567.30 180.50
3208 14.2573 20445.70 20558.30 179.84
3209 14.2610 20768.90 20549.60 182.04
3210 14.2648 20187.10 20540.70 177.71
3211 14.2686 20559.30 20531.80 180.25
3212 14.2723 20193.80 20523.10 178.55
3213 14.2761 20708.70 20514.10 180.28
3214 14.2798 20468.60 20505.40 182.43
3215 14.2836 20600.20 20496.50 177.53
3216 14.2874 20303.70 20487.60 176.98
3217 14.2911 20728.90 20479.00 180.56
3218 14.2949 20449.20 20470.10 182.37
3219 14.2986 20588.30 20461.40 178.05
3220 14.3024 20157.50 20452.50 175.72
3221 14.3062 20563.80 20443.70 179.03
3222 14.3099 20274.30 20435.00 178.18
3223 14.3137 20411.70 20426.10 176.94
3224 14.3174 20206.90 20417.50 177.93
3225 14.3212 20925.40 20408.70 181.35
3226 14.3250 19974.60 20399.80 176.24
3227 14.3287 20558.40 20391.20 180.42
3228 14.3325 20099.40 20382.30 178.94
3229 14.3363 20629.20 20373.50 180.67
3230 14.3400 19954.10 20364.90 178.89
3231 14.3438 20269.50 20356.10 178.31
3232 14.3475 19657.40 20347.50 174.47
3233 14.3513 20556.70 20338.60 180.28
3234 14.3551 19946.90 20329.80 175.87
3235 14.3588 20166.80 20321.20 176.57
3236 14.3626 19881.20 20312.40 177.71
3237 14.3663 20300.40 20303.80 177.68
3238 14.3701 20071.10 20295.00 178.72
3239 14.3739 20321.60 20286.20 178.12
3240 14.3776 19616.20 20277.60 172.84
3241 14.3814 20302.50 20268.80 178.77
3242 14.3851 20013.80 20260.30 177.35
3243 14.3889 20153.30 20251.50 177.41
3244 14.3927 19742.20 20242.70 174.12
3245 14.3964 20357.40 20234.10 179.60
3246 14.4002 20015.10 20225.40 175.88
3247 14.4039 20332.20 20216.80 178.85
3248 14.4077 19825.60 20208.00 174.79
3249 14.4115 20397.60 20199.20 181.84
3250 14.4152 19723.90 20190.70 175.01
3251 14.4190 20162.70 20181.90 177.38
3252 14.4228 19995.90 20173.20 177.56
3253 14.4265 20092.00 20164.60 177.13
3254 14.4303 19805.90 20155.90 175.99
3255 14.4340 20183.00 20147.30 178.03
3256 14.4378 19899.80 20138.60 175.57
3257 14.4416 20227.30 20129.80 178.99
3258 14.4453 19850.60 20121.30 177.12
3259 14.4491 19726.30 20112.50 175.50
3260 14.4528 19504.10 20104.00 173.42
3261 14.4566 19701.50 20095.30 174.85
3262 14.4604 19931.30 20086.50 176.93
3263 14.4641 20378.10 20078.00 181.87
3264 14.4679 19787.80 20069.30 177.66
3265 14.4716 19795.50 20060.70 175.41
3266 14.4754 19512.30 20052.00 173.28
3267 14.4792 19964.30 20043.30 176.08
3268 14.4829 19612.60 20034.80 175.84
3269 14.4867 19759.10 20026.00 174.76
3270 14.4905 19483.60 20017.30 174.27
3271 14.4942 19742.30 20008.80 174.30
3272 14.4980 19743.30 20000.10 177.83
3273 14.5017 20075.30 19991.60 177.80
3274 14.5055 19396.50 19982.80 174.08
3275 14.5093 19739.80 19974.10 173.15
3276 14.5130 19497.40 19965.60 176.66
3277 14.5168 19820.00 19956.90 176.37
3278 14.5205 19428.60 19948.40 173.78
3279 14.5243 20152.20 19939.70 177.36
3280 14.5281 19399.80 19931.00 174.79
3281 14.5318 19898.90 19922.50 174.97
3282 14.5356 19561.90 19913.80 172.74
3283 14.5393 19970.90 19905.30 178.60
3284 14.5431 19593.70 19896.60 173.75
3285 14.5469 20053.50 19887.90 177.90
3286 14.5506 19474.50 19879.40 174.57
3287 14.5544 19761.10 19870.70 176.67
3288 14.5581 19583.00 19862.20 176.76
3289 14.5619 20140.70 19853.50 177.59
3290 14.5657 19161.40 19844.80 172.52
3291 14.5694 19650.50 19836.30 172.40
3292 14.5732 19692.60 19827.60 174.95
3293 14.5770 20018.40 19818.90 176.35
3294 14.5807 19841.30 19810.40 176.57
3295 14.5845 19916.20 19801.70 176.83
3296 14.5882 19951.00 19793.30 178.02
3297 14.5920 20000.90 19784.60 176.72
3298 14.5958 19836.50 19775.90 181.42
3299 14.5995 20128.80 19767.40 173.05
3300 14.6033 19856.80 19758.70 172.08
3301 14.6070 20370.60 19750.30 176.96
3302 14.6108 19886.60 19741.60 172.39
3303 14.6146 20269.60 19732.90 174.65
3304 14.6183 19768.20 19724.40 172.38
3305 14.6221 20208.20 19715.80 174.93
3306 14.6258 20062.20 19707.30 173.51
3307 14.6296 20368.40 19698.60 174.34
3308 14.6334 20311.00 19689.90 174.44
3309 14.6371 20047.80 19681.50 174.78
3310 14.6409 20026.30 19672.80 174.66
3311 14.6447 20024.60 19664.10 173.72
3312 14.6484 19625.20 19655.70 172.05
3313 14.6522 20223.90 19647.00 175.32
3314 14.6559 19592.00 19638.50 171.77
3315 14.6597 19786.30 19629.90 173.08
3316 14.6635 19417.00 19621.20 170.12
3317 14.6672 19644.10 19612.80 171.91
3318 14.6710 19574.10 19604.10 172.39
3319 14.6747 19825.30 19595.60 173.35
3320 14.6785 19389.30 19587.00 171.49
3321 14.6823 19841.20 19578.30 175.84
3322 14.6860 19244.30 19569.90 169.12
3323 14.6898 19464.90 19561.20 169.68
3324 14.6935 19216.10 19552.80 168.87
3325 14.6973 19435.30 19544.10 172.37
3326 14.7011 19215.10 19535.40 168.98
3327 14.7048 19358.10 19527.00 171.04
3328 14.7086 19061.00 19518.30 166.61
3329 14.7124 19142.90 19509.70 168.33
3330 14.7161 18998.30 19501.20 169.32
3331 14.7199 19520.10 19492.60 171.79
3332 14.7236 19125.30 19484.20 167.51
3333 14.7274 19291.60 19475.50 170.09
3334 14.7312 18989.50 19466.80 170.15
3335 14.7387 19041.20 19449.80 169.75
3336 14.7462 18801.20 19432.70 168.70
3337 14.7500 19310.00 19424.00 171.04
3338 14.7537 18930.60 19414.70 171.18
3339 14.7575 19385.00 19406.10 167.34
3340 14.7612 19098.50 19397.60 171.07
3341 14.7650 19400.00 19389.00 171.83
3342 14.7688 19136.50 19380.40 172.10
3343 14.7725 19191.00 19371.90 168.00
3344 14.7763 19016.70 19363.30 169.30
3345 14.7800 19214.40 19354.90 169.01
3346 14.7838 18922.90 19346.30 166.33
3347 14.7876 19132.50 19337.60 167.43
3348 14.7913 18879.20 19329.20 167.53
3349 14.7951 19343.40 19320.60 170.65
3350 14.7989 18837.60 19311.90 167.93
3351 14.8026 19311.50 19303.50 171.13
3352 14.8064 18886.40 19294.90 169.81
3353 14.8101 19142.10 19286.50 170.70
3354 14.8139 18881.20 19277.90 168.67
3355 14.8177 19162.30 19269.20 169.65
3356 14.8214 18569.80 19260.80 166.85
3357 14.8252 18995.20 19252.20 170.43
3358 14.8289 18688.20 19243.80 164.28
3359 14.8327 19127.70 19235.20 169.34
3360 14.8365 18815.40 19226.50 168.85
3361 14.8402 18749.20 19218.20 167.35
3362 14.8440 18811.00 19209.50 169.01
3363 14.8477 18917.20 19201.10 169.77
3364 14.8515 18814.80 19192.50 167.58
3365 14.8553 18713.10 19183.90 168.25
3366 14.8590 18789.30 19175.50 168.37
3367 14.8628 18941.60 19166.90 168.19
3368 14.8666 18550.30 19158.30 166.85
3369 14.8703 18899.00 19149.90 169.08
3370 14.8741 18423.10 19141.30 167.26
3371 14.8778 19092.30 19132.90 169.22
3372 14.8816 18662.30 19124.30 167.19
3373 14.8854 18763.20 19115.70 168.64
3374 14.8891 18927.40 19107.30 167.52
3375 14.8929 19109.70 19098.70 170.91
3376 14.8966 18598.00 19090.30 168.48
3377 14.9004 18637.30 19081.70 166.76
3378 14.9042 18401.30 19073.10 165.56
3379 14.9079 18759.80 19064.70 168.36
3380 14.9117 18375.60 19056.10 164.80
3381 14.9154 18631.60 19047.70 166.31
3382 14.9192 18636.10 19039.10 166.29
3383 14.9230 18730.90 19030.50 168.38
3384 14.9267 18264.00 19022.10 162.91
3385 14.9305 18877.20 19013.50 168.28
3386 14.9342 18377.70 19005.20 165.58
3387 14.9380 19017.50 18996.60 169.18
3388 14.9418 18444.20 18988.00 165.32
3389 14.9455 18494.10 18979.60 164.70
3390 14.9493 18446.00 18971.00 164.86
3391 14.9531 18698.50 18962.40 167.50
3392 14.9568 18464.20 18954.10 165.53
3393 14.9606 18271.40 18945.50 165.32
3394 14.9643 18412.80 18937.10 166.56
3395 14.9681 18593.00 18928.50 166.71
3396 14.9719 18364.00 18920.00 167.48
3397 14.9756 18568.70 18911.60 166.81
3398 14.9794 18420.20 18903.00 166.00
3399 14.9831 18654.40 18894.70 166.45
3400 14.9869 18260.10 18886.10 164.82
3401 14.9907 18684.20 18877.50 167.41
3402 14.9944 18356.90 18869.20 165.45
3403 14.9982 18434.40 18860.60 166.39
3404 15.0019 18518.70 18852.20 168.48
3405 15.0057 18403.80 18843.70 166.37
3406 15.0095 18272.30 18835.10 165.06
3407 15.0132 18694.80 18826.80 169.33
3408 15.0170 18100.80 18818.20 163.42
3409 15.0207 18522.60 18809.90 167.69
3410 15.0245 18138.40 18801.30 166.21
3411 15.0283 18641.90 18792.70 166.15
3412 15.0320 18181.50 18784.40 166.25
3413 15.0358 18510.40 18775.80 164.76
3414 15.0396 18308.10 18767.30 164.60
3415 15.0433 18591.90 18759.00 166.72
3416 15.0471 18138.40 18750.40 164.53
3417 15.0508 18329.90 18742.10 165.44
3418 15.0546 18406.80 18733.50 166.40
3419 15.0584 18585.70 18725.00 168.57
3420 15.0621 17985.90 18716.70 162.72
3421 15.0659 18831.30 18708.10 169.66
3422 15.0696 18109.80 18699.80 160.89
3423 15.0734 18496.30 18691.30 165.56
3424 15.0772 18198.50 18682.70 165.76
3425 15.0809 18561.00 18674.40 167.16
3426 15.0847 18280.40 18665.90 163.02
3427 15.0884 18466.50 18657.60 167.75
3428 15.0922 18203.80 18649.00 165.50
3429 15.0960 18605.00 18640.50 165.06
3430 15.0997 18095.30 18632.20 164.59
3431 15.1035 18377.70 18623.70 166.61
3432 15.1072 18202.70 18615.40 164.55
3433 15.1110 18550.40 18606.90 167.88
3434 15.1148 18278.30 18598.30 167.40
3435 15.1185 18444.80 18590.10 166.10
3436 15.1223 18553.40 18581.50 164.77
3437 15.1260 18524.80 18573.30 166.05
3438 15.1298 18054.70 18564.70 165.11
3439 15.1336 18403.70 18556.20 165.84
3440 15.1373 18308.90 18548.00 166.24
3441 15.1411 18058.30 18539.40 163.68
3442 15.1449 18118.80 18530.90 163.77
3443 15.1486 18320.50 18522.70 167.29
3444 15.1524 18046.30 18514.20 163.81
3445 15.1561 18128.50 18505.90 164.50
3446 15.1599 17876.90 18497.40 162.58
3447 15.1637 18225.00 18488.90 159.87
3448 15.1674 17888.90 18480.70 164.32
3449 15.1712 18084.20 18472.20 164.20
3450 15.1749 17938.10 18463.90 163.71
3451 15.1787 18130.40 18455.50 163.51
3452 15.1825 18346.00 18447.00 167.84
3453 15.1862 18430.30 18438.70 168.34
3454 15.1900 18245.20 18430.30 166.16
3455 15.1937 18184.10 18422.00 165.95
3456 15.1975 17933.70 18413.60 167.38
3457 15.2013 18590.80 18405.10 169.75
3458 15.2050 18031.40 18396.90 163.51
3459 15.2088 18191.00 18388.40 165.17
3460 15.2125 17877.40 18380.20 163.71
3461 15.2163 18127.10 18371.70 166.02
3462 15.2201 18276.30 18363.30 168.32
3463 15.2238 18031.40 18355.10 166.33
3464 15.2276 18072.60 18346.60 164.65
3465 15.2313 18086.40 18338.40 163.35
3466 15.2351 17831.20 18330.00 164.30
3467 15.2389 18181.90 18321.60 166.79
3468 15.2426 18143.20 18313.40 165.53
3469 15.2464 18342.40 18304.90 169.13
3470 15.2501 17989.80 18296.80 166.46
3471 15.2539 18063.00 18288.30 164.72
3472 15.2577 17957.40 18279.90 165.62
3473 15.2614 18186.50 18271.80 165.70
3474 15.2652 17833.20 18263.30 163.86
3475 15.2689 18372.90 18255.20 167.75
3476 15.2727 17840.70 18246.80 162.56
3477 15.2765 18385.50 18238.40 169.32
3478 15.2802 17835.50 18230.20 165.57
3479 15.2840 18115.00 18221.90 165.15
3480 15.2878 17896.20 18213.50 164.99
3481 15.2915 18194.40 18205.30 167.32
3482 15.2953 17880.10 18197.00 164.85
3483 15.2990 18243.10 18188.80 165.43
3484 15.3028 17616.90 18180.50 162.88
3485 15.3066 17998.70 18172.10 163.11
3486 15.3103 17935.90 18164.00 166.64
3487 15.3141 18053.10 18155.70 163.85
3488 15.3178 17655.00 18147.50 163.94
3489 15.3216 18067.70 18139.20 164.53
3490 15.3254 17817.00 18130.90 167.18
3491 15.3291 18041.70 18122.80 165.51
3492 15.3329 17745.40 18114.50 165.17
3493 15.3366 18057.90 18106.40 166.00
3494 15.3404 17769.70 18098.10 161.62
3495 15.3442 18110.40 18089.80 167.33
3496 15.3479 17601.40 18081.70 160.91
3497 15.3517 17850.90 18073.40 165.71
3498 15.3554 17738.70 18065.40 161.88
3499 15.3592 17946.00 18057.10 165.62
3500 15.3630 17945.00 18048.80 167.34
3501 15.3667 18127.20 18040.80 164.94
3502 15.3705 17956.90 18032.50 165.24
3503 15.3742 18138.90 18024.50 167.57
3504 15.3780 17679.80 18016.30 163.35
3505 15.3818 17964.00 18008.00 167.28
3506 15.3855 17694.80 18000.00 165.33
3507 15.3893 17833.00 17991.80 165.17
3508 15.3930 17497.50 17983.80 162.22
3509 15.3968 17972.30 17975.60 164.76
3510 15.4006 17691.40 17967.40 165.26
3511 15.4043 18083.30 17959.50 166.10
3512 15.4081 17661.10 17951.30 160.01
3513 15.4118 17961.40 17943.30 166.01
3514 15.4156 17718.40 17935.20 162.50
3515 15.4194 18034.90 17927.00 166.46
3516 15.4231 17734.40 17919.10 164.64
3517 15.4269 17933.10 17911.00 166.80
3518 15.4306 17540.30 17903.10 163.02
3519 15.4344 17856.10 17895.00 166.48
3520 15.4382 17872.20 17886.90 163.84
3521 15.4419 17813.60 17879.00 164.96
3522 15.4457 17738.30 17870.90 163.92
3523 15.4494 17787.10 17863.10 166.93
3524 15.4532 17484.00 17855.00 162.96
3525 15.4570 18048.00 17847.00 167.51
3526 15.4607 17469.20 17839.10 163.20
3527 15.4645 17688.70 17831.10 165.85
3528 15.4682 17318.10 17823.30 159.33
3529 15.4720 17980.20 17815.30 166.27
3530 15.4758 17303.30 17807.30 160.44
3531 15.4795 17945.70 17799.60 165.79
3532 15.4833 17488.80 17791.60 162.86
3533 15.4870 17888.70 17783.90 166.48
3534 15.4908 17509.70 17775.90 163.82
3535 15.4946 17805.80 17768.00 164.91
3536 15.4983 17405.60 17760.30 161.24
3537 15.5021 17734.20 17752.40 163.19
3538 15.5058 17413.70 17744.80 161.26
3539 15.5096 17737.20 17736.90 163.05
3540 15.5134 17439.20 17729.10 159.25
3541 15.5171 17912.60 17721.40 165.66
3542 15.5209 17575.40 17713.60 164.35
3543 15.5246 17863.20 17706.10 164.83
3544 15.5284 17813.80 17698.30 166.05
3545 15.5322 17621.40 17690.50 162.40
3546 15.5359 17544.40 17683.00 165.36
3547 15.5397 17994.20 17675.30 166.94
3548 15.5434 17313.40 17667.80 163.78
3549 15.5472 17740.10 17660.10 163.19
3550 15.5510 17393.40 17652.50 164.02
3551 15.5547 17699.70 17645.00 164.61
3552 15.5585 17571.50 17637.40 164.73
3553 15.5622 17689.70 17630.00 159.07
3554 15.5660 17453.10 17622.50 158.51
3555 15.5698 17735.30 17614.90 157.71
3556 15.5735 17327.20 17607.60 156.95
3557 15.5773 17905.80 17600.10 161.56
3558 15.5810 17221.50 17592.90 156.53
3559 15.5848 17460.00 17585.40 158.73
3560 15.5886 17389.80 17578.00 157.14
3561 15.5923 17439.20 17570.80 158.38
3562 15.5961 17295.80 17563.50 155.55
3563 15.5998 17592.40 17556.40 159.62
3564 15.6036 17295.90 17549.10 157.17
3565 15.6074 17562.90 17541.80 160.43
3566 15.6111 17191.90 17534.80 156.55
3567 15.6149 17487.50 17527.60 159.02
3568 15.6186 17336.60 17520.60 157.36
3569 15.6224 17899.80 17513.50 160.17
3570 15.6262 17381.70 17506.40 155.62
3571 15.6299 17401.20 17499.60 156.70
3572 15.6337 17320.30 17492.60 156.65
3573 15.6374 17914.20 17485.80 161.29
3574 15.6412 17618.40 17478.90 158.96
3575 15.6450 17700.80 17472.00 158.79
3576 15.6487 17596.90 17465.40 158.93
3577 15.6525 17781.50 17458.60 160.00
3578 15.6562 17595.00 17452.10 158.76
3579 15.6600 17715.00 17445.40 159.44
3580 15.6638 17406.20 17438.80 156.11
3581 15.6675 17910.30 17432.40 160.48
3582 15.6713 17259.50 17425.90 155.70
3583 15.6750 17540.00 17419.60 156.72
3584 15.6788 17428.10 17413.20 157.95
3585 15.6826 17499.70 17406.80 157.75
3586 15.6863 17164.00 17400.70 156.98
3587 15.6901 17697.40 17394.50 160.01
3588 15.6938 17274.10 17388.50 157.81
3589 15.6976 17670.90 17382.50 159.24
3590 15.7014 17079.60 17376.50 156.93
3591 15.7051 17790.10 17370.70 159.04
3592 15.7089 17682.40 17364.90 158.67
3593 15.7126 17808.40 17359.30 162.67
3594 15.7164 17415.20 17353.60 157.68
3595 15.7202 17769.60 17348.10 160.10
3596 15.7239 17478.60 17342.70 155.71
3597 15.7277 17623.50 17337.30 159.92
3598 15.7314 17538.00 17332.20 160.68
3599 15.7352 17691.40 17327.00 159.15
3600 15.7390 17286.40 17321.90 158.51
3601 15.7427 17751.30 17317.10 160.20
3602 15.7465 17252.00 17312.30 157.22
3603 15.7502 17710.70 17307.70 158.87
3604 15.7540 17558.00 17303.10 158.33
3605 15.7578 17621.90 17298.60 158.08
3606 15.7615 17663.70 17294.40 159.69
3607 15.7653 18063.30 17290.30 164.53
3608 15.7690 17672.70 17286.40 160.19
3609 15.7728 17881.00 17282.50 160.58
3610 15.7765 17648.20 17279.00 160.61
3611 15.7803 18056.00 17275.50 162.36
3612 15.7841 17526.50 17272.20 160.08
3613 15.7878 17852.60 17269.10 161.29
3614 15.7916 17900.20 17266.30 162.40
3615 15.7953 17967.30 17263.70 161.08
3616 15.7991 17646.70 17261.20 159.01
3617 15.8029 18204.10 17259.10 162.35
3618 15.8066 18137.10 17257.20 162.07
3619 15.8104 17988.40 17255.60 161.49
3620 15.8141 18123.90 17254.40 162.51
3621 15.8179 18244.80 17253.60 161.54
3622 15.8217 18019.30 17253.10 162.52
3623 15.8254 18378.40 17252.90 164.09
3624 15.8292 18108.90 17253.20 162.00
3625 15.8329 18467.10 17254.00 164.03
3626 15.8367 18490.20 17255.30 164.18
3627 15.8405 18299.50 17257.20 163.30
3628 15.8442 18266.10 17259.60 163.64
3629 15.8480 18428.20 17262.90 161.68
3630 15.8517 18137.20 17266.80 162.15
3631 15.8555 18756.40 17271.80 166.08
3632 15.8593 18470.70 17277.70 162.99
3633 15.8630 18938.40 17284.60 165.79
3634 15.8668 18520.60 17292.80 163.15
3635 15.8705 18946.50 17302.20 167.00
3636 15.8743 18864.10 17313.30 166.30
3637 15.8781 19071.60 17326.10 166.55
3638 15.8818 18945.60 17340.40 166.50
3639 15.8856 18977.10 17357.10 166.47
3640 15.8893 19118.90 17375.70 168.91
3641 15.8931 19467.80 17397.30 168.27
3642 15.8968 19614.40 17421.20 171.28
3643 15.9006 19700.00 17448.70 169.12
3644 15.9044 19320.20 17479.80 169.27
3645 15.9081 19682.00 17513.70 171.28
3646 15.9119 19446.40 17552.60 169.98
3647 15.9156 20038.40 17594.80 173.08
3648 15.9194 19922.20 17643.20 171.40
3649 15.9232 20017.50 17696.80 170.33
3650 15.9269 19792.70 17754.70 170.55
3651 15.9307 20708.30 17820.20 176.01
3652 15.9344 20245.20 17890.40 171.57
3653 15.9382 20637.00 17969.60 175.81
3654 15.9420 20142.40 18056.30 171.95
3655 15.9457 20667.30 18148.40 175.56
3656 15.9495 20626.00 18251.30 176.74
3657 15.9532 20749.90 18360.00 175.85
3658 15.9570 20822.80 18480.70 177.38
3659 15.9607 21098.40 18607.30 178.56
3660 15.9645 20849.50 18747.00 175.45
3661 15.9683 20851.10 18896.80 177.50
3662 15.9720 20809.20 19052.40 176.61
3663 15.9758 21321.40 19225.80 178.27
3664 15.9795 20727.60 19404.60 176.38
3665 15.9833 21429.70 19598.20 180.52
3666 15.9871 21224.80 19802.10 177.67
3667 15.9908 21376.20 20010.10 179.35
3668 15.9946 20867.00 20233.00 177.87
3669 15.9983 21398.90 20458.90 180.44
3670 16.0021 20601.20 20699.10 175.25
3671 16.0059 21121.40 20947.10 178.21
3672 16.0096 20787.50 21194.90 177.71
3673 16.0134 20990.20 21455.20 178.71
3674 16.0171 20429.20 21713.00 172.12
3675 16.0209 20967.90 21980.80 178.51
3676 16.0246 20645.60 22243.10 175.42
3677 16.0284 20510.30 22512.20 175.81
3678 16.0322 20359.50 22779.30 174.90
3679 16.0359 20790.60 23035.30 177.30
3680 16.0397 20862.90 23291.70 184.15
3681 16.0434 21431.40 23532.50 177.81
3682 16.0472 22033.10 23768.40 183.40
3683 16.0510 23584.70 23989.60 187.52
3684 16.0547 25218.40 24188.20 197.55
3685 16.0585 28909.00 24372.10 216.51
3686 16.0622 32887.10 24528.90 232.10
3687 16.0660 38219.70 24664.60 251.51
3688 16.0698 41125.40 24772.10 264.36
3689 16.0735 43465.30 24847.70 275.00
3690 16.0773 42350.40 24894.20 274.75
3691 16.0810 39318.60 24908.10 261.67
3692 16.0848 34943.90 24889.70 240.96
3693 16.0885 31277.90 24840.30 224.79
3694 16.0923 28041.30 24758.20 211.60
3695 16.0961 26208.50 24645.50 202.47
3696 16.0998 24866.90 24508.30 197.22
3697 16.1036 23799.30 24341.30 192.54
3698 16.1073 22370.90 24156.20 183.21
3699 16.1111 21928.40 23945.20 182.28
3700 16.1149 21052.90 23716.30 179.19
3701 16.1186 20895.40 23478.90 176.23
3702 16.1224 20049.80 23222.80 174.66
3703 16.1261 20196.70 22964.20 174.86
3704 16.1299 19624.10 22691.00 172.58
3705 16.1336 18994.20 22421.10 167.70
3706 16.1374 18916.20 22141.40 166.20
3707 16.1412 19104.30 21861.00 169.03
3708 16.1449 18531.40 21589.30 165.25
3709 16.1487 18102.70 21313.00 162.82
3710 16.1524 17952.20 21048.10 163.71
3711 16.1562 18105.80 20781.50 163.12
3712 16.1600 17869.20 20521.50 162.01
3713 16.1637 17850.80 20275.50 163.32
3714 16.1675 17454.40 20030.90 159.64
3715 16.1712 17573.90 19801.60 159.85
3716 16.1750 17343.60 19575.00 160.32
3717 16.1787 17322.90 19364.00 158.40
3718 16.1825 16791.30 19157.40 155.26
3719 16.1863 17554.80 18961.00 159.24
3720 16.1900 17114.50 18779.70 158.08
3721 16.1938 17351.50 18603.70 160.50
3722 16.1975 17106.90 18442.10 158.62
3723 16.2013 16808.30 18286.20 155.97
3724 16.2050 16784.00 18143.80 157.23
3725 16.2088 16734.10 18007.00 155.58
3726 16.2126 16476.20 17879.60 153.46
3727 16.2163 16824.80 17764.00 157.86
3728 16.2201 16637.20 17653.70 156.29
3729 16.2238 16722.90 17554.00 155.89
3730 16.2276 16597.50 17459.20 154.56
3731 16.2314 16605.70 17371.60 154.13
3732 16.2351 16425.30 17292.90 153.68
3733 16.2389 16605.60 17218.20 155.68
3734 16.2426 16355.80 17151.10 152.77
3735 16.2464 16730.80 17087.70 156.11
3736 16.2501 16447.60 17030.70 155.51
3737 16.2539 16484.70 16976.80 155.24
3738 16.2577 16289.30 16927.20 154.04
3739 16.2614 16355.50 16882.50 151.84
3740 16.2652 15973.40 16840.20 151.66
3741 16.2689 16666.30 16802.10 156.86
3742 16.2727 15991.80 16765.80 149.76
3743 16.2764 16326.40 16733.10 153.58
3744 16.2802 16262.70 16701.80 153.75
3745 16.2840 16173.80 16672.70 152.24
3746 16.2877 16066.90 16646.20 152.66
3747 16.2915 16315.80 16620.70 151.74
3748 16.2952 15954.60 16597.30 152.61
3749 16.2990 16403.70 16574.80 153.22
3750 16.3028 15964.80 16553.50 153.89
3751 16.3065 16175.70 16533.80 151.94
3752 16.3103 16167.00 16514.60 154.05
3753 16.3140 16173.00 16496.80 150.69
3754 16.3178 15852.30 16479.40 151.26
3755 16.3215 16317.60 16463.10 152.98
3756 16.3253 16121.30 16447.00 152.60
3757 16.3291 16199.50 16431.50 154.48
3758 16.3328 15840.40 16417.00 150.92
3759 16.3366 15988.60 16402.50 151.61
3760 16.3403 15797.30 16388.90 149.84
3761 16.3441 16524.30 16375.40 154.20
3762 16.3478 15825.80 16362.50 151.52
3763 16.3516 16062.80 16349.70 151.33
3764 16.3554 15733.50 16337.20 150.72
3765 16.3591 16035.60 16325.30 150.57
3766 16.3629 15744.50 16313.30 150.23
3767 16.3666 16273.00 16301.90 154.93
3768 16.3704 15729.40 16290.50 149.98
3769 16.3741 16279.80 16279.60 153.11
3770 16.3779 16028.00 16268.60 152.04
3771 16.3817 16013.00 16257.80 152.45
3772 16.3854 15618.50 16247.50 148.18
3773 16.3892 16131.30 16237.10 153.40
3774 16.3929 15684.90 16227.10 149.80
3775 16.3967 15827.40 16217.00 150.34
3776 16.4004 15924.00 16207.40 152.96
3777 16.4042 15898.80 16197.60 150.02
3778 16.4080 15393.10 16188.00 147.64
3779 16.4117 15783.10 16178.70 152.00
3780 16.4155 15597.70 16169.40 149.66
3781 16.4192 16063.10 16160.40 152.87
3782 16.4230 15488.30 16151.30 147.88
3783 16.4267 15800.40 16142.50 152.56
3784 16.4305 15865.80 16133.60 150.49
3785 16.4343 15949.30 16124.80 152.56
3786 16.4380 15696.90 16116.40 148.47
3787 16.4418 15716.50 16107.80 150.31
3788 16.4455 15653.70 16099.50 149.05
3789 16.4493 15520.90 16091.10 147.57
3790 16.4530 15707.60 16083.00 150.38
3791 16.4568 15990.80 16074.80 151.82
3792 16.4606 15673.30 16066.70 150.52
3793 16.4643 15735.20 16058.80 149.44
3794 16.4681 15356.30 16050.80 146.21
3795 16.4718 15700.60 16043.10 150.16
3796 16.4756 15819.20 16035.20 152.06
3797 16.4793 15547.60 16027.70 149.10
3798 16.4831 15533.00 16019.90 150.05
3799 16.4869 15941.40 16012.30 151.79
3800 16.4906 15409.30 16004.90 148.03
3801 16.4944 15584.40 16039.90 148.60
3802 16.4981 15456.50 16032.70 148.38
3803 16.5019 15778.30 16025.40 149.45
3804 16.5056 15686.20 16018.40 150.25
3805 16.5094 15522.60 16011.20 149.68
3806 16.5132 15447.40 16004.10 149.89
3807 16.5169 16001.10 15997.20 152.96
3808 16.5207 15384.30 15990.10 148.06
3809 16.5244 15564.50 15983.30 152.76
3810 16.5282 15417.20 15976.40 150.52
3811 16.5319 15571.70 15969.70 148.90
3812 16.5357 15652.50 15962.80 152.34
3813 16.5395 15850.80 15956.00 152.31
3814 16.5432 15743.50 15949.40 151.69
3815 16.5470 15712.10 15942.70 152.59
3816 16.5507 15590.80 15936.10 151.55
3817 16.5545 15549.40 15929.50 149.73
3818 16.5582 15370.20 15923.10 149.71
3819 16.5620 15727.00 15916.50 148.04
3820 16.5658 15557.20 15909.90 150.54
3821 16.5695 15602.20 15903.60 152.47
3822 16.5733 15306.70 15897.10 149.15
3823 16.5770 15677.20 15890.80 149.63
3824 16.5808 15467.20 15884.40 150.73
3825 16.5845 15523.20 15878.10 150.11
3826 16.5883 15545.30 15871.80 151.75
3827 16.5920 15779.90 15865.60 150.74
3828 16.5958 15490.40 15859.30 150.96
3829 16.5996 15738.70 15853.00 152.28
3830 16.6033 15375.80 15846.90 150.31
3831 16.6071 15739.20 15840.60 153.48
3832 16.6108 15423.30 15834.60 150.53
3833 16.6146 15796.40 15828.40 151.96
3834 16.6183 15384.50 15822.40 150.12
3835 16.6221 15613.80 15816.30 151.56
3836 16.6259 15383.50 15810.20 150.95
3837 16.6296 15531.10 15804.30 150.72
3838 16.6334 15592.60 15798.20 152.01
3839 16.6371 15614.30 15792.30 150.65
3840 16.6409 15395.30 15786.30 151.77
3841 16.6446 15378.80 15780.50 148.65
3842 16.6484 15374.20 15774.50 150.63
3843 16.6521 15455.00 15768.70 152.18
3844 16.6559 15276.60 15762.80 147.52
3845 16.6597 15624.40 15756.90 151.70
3846 16.6634 15415.20 15751.20 151.61
3847 16.6672 15301.70 15745.30 150.72
3848 16.6709 15217.80 15739.60 150.34
3849 16.6747 15425.30 15733.80 150.12
3850 16.6784 15152.50 15728.20 150.92
3851 16.6822 15525.00 15722.40 150.56
3852 16.6860 15483.10 15716.70 151.75
3853 16.6897 15386.50 15711.10 148.92
3854 16.6935 15204.00 15705.40 149.89
3855 16.6972 15453.90 15699.90 150.33
3856 16.7010 15383.70 15694.30 146.55
3857 16.7047 15490.30 15688.80 151.85
3858 16.7085 15248.20 15683.20 148.53
3859 16.7122 15590.00 15677.80 150.42
3860 16.7160 15305.60 15672.30 150.21
3861 16.7198 15316.90 15666.80 148.27
3862 16.7235 15380.70 15661.40 151.78
3863 16.7273 15562.30 15656.00 152.65
3864 16.7310 15202.00 15650.70 148.82
3865 16.7348 15530.80 15645.30 152.78
3866 16.7385 15045.70 15640.00 146.70
3867 16.7423 15305.30 15634.70 150.13
3868 16.7460 15189.30 15629.50 149.09
3869 16.7498 15599.20 15624.30 150.33
3870 16.7536 15322.90 15619.00 149.66
3871 16.7573 15181.00 15613.90 148.63
3872 16.7611 15368.60 15608.80 151.86
3873 16.7648 15199.50 15603.80 150.12
3874 16.7686 15115.50 15598.70 149.78
3875 16.7723 15414.90 15593.70 151.95
3876 16.7761 15258.30 15588.70 149.58
3877 16.7798 15266.60 15583.80 149.95
3878 16.7836 14968.30 15578.90 149.26
3879 16.7874 15063.30 15574.00 148.37
3880 16.7911 15110.60 15569.20 148.61
3881 16.7949 15336.00 15564.40 150.56
3882 16.7986 15245.30 15559.70 149.32
3883 16.8024 15296.60 15555.00 148.57
3884 16.8061 15278.60 15550.40 149.51
3885 16.8099 15069.00 15545.70 147.97
3886 16.8136 15167.00 15541.20 148.63
3887 16.8174 15268.90 15536.60 148.71
3888 16.8212 15047.20 15532.10 146.71
3889 16.8249 14957.30 15527.70 147.87
3890 16.8287 15118.00 15523.20 151.05
3891 16.8324 15185.90 15518.90 149.24
3892 16.8362 15140.60 15514.50 149.32
3893 16.8399 15334.10 15510.30 150.93
3894 16.8437 14983.60 15506.00 148.37
3895 16.8474 15259.30 15501.80 148.06
3896 16.8512 15117.50 15497.60 149.68
3897 16.8550 15050.30 15493.40 149.56
3898 16.8587 14931.30 15489.30 148.80
3899 16.8625 15133.60 15485.20 151.91
3900 16.8662 14819.50 15481.20 146.13
3901 16.8700 15122.20 15477.10 149.46
3902 16.8737 14876.40 15473.10 148.11
3903 16.8775 15075.00 15469.10 149.28
3904 16.8812 15064.20 15465.10 149.43
3905 16.8850 15277.70 15461.10 151.52
3906 16.8888 14805.60 15457.00 146.88
3907 16.8925 14992.70 15453.10 146.97
3908 16.8963 14892.60 15449.00 148.56
3909 16.9000 15366.10 15445.00 152.00
3910 16.9038 14966.30 15440.90 148.27
3911 16.9075 14896.90 15436.90 143.54
3912 16.9113 14930.60 15432.70 149.37
3913 16.9150 15036.60 15428.50 150.50
3914 16.9188 14726.20 15424.20 146.77
3915 16.9225 15141.00 15420.00 149.07
3916 16.9263 14894.60 15415.50 148.94
3917 16.9301 15034.90 15410.90 150.54
3918 16.9338 14850.20 15406.40 145.05
3919 16.9376 14946.80 15401.70 145.95
3920 16.9413 14932.60 15396.90 147.18
3921 16.9451 14918.40 15392.00 148.64
3922 16.9488 15018.60 15387.00 149.24
3923 16.9526 15083.20 15381.80 149.49
3924 16.9563 14699.60 15376.60 146.69
3925 16.9601 15183.70 15371.10 148.95
3926 16.9638 15133.60 15365.60 149.38
3927 16.9676 15215.10 15359.90 148.14
3928 16.9714 15165.40 15354.10 148.79
3929 16.9751 15333.70 15348.30 151.27
3930 16.9789 14786.40 15342.30 146.01
3931 16.9826 14955.30 15336.30 148.20
3932 16.9847 14935.90 15332.80 145.76
3933 16.9884 15019.50 15326.70 145.52
3934 16.9922 14647.10 15320.30 144.68
3935 16.9960 15139.20 15313.90 147.82
3936 16.9997 14869.10 15307.60 146.90
3937 17.0035 15138.80 15301.00 148.41
3938 17.0072 14773.30 15294.60 144.91
3939 17.0110 15022.30 15287.90 149.95
3940 17.0147 14833.80 15281.40 147.49
3941 17.0185 15168.90 15274.70 146.94
3942 17.0223 14792.80 15268.00 147.72
3943 17.0260 15046.00 15261.50 148.07
3944 17.0298 14868.70 15254.80 147.04
3945 17.0335 14984.00 15248.30 148.74
3946 17.0373 14720.60 15241.60 146.88
3947 17.0410 15107.80 15235.10 147.54
3948 17.0448 15001.10 15228.40 147.92
3949 17.0486 14988.30 15221.70 144.25
3950 17.0523 14780.30 15215.30 146.42
3951 17.0561 15076.90 15208.70 149.77
3952 17.0598 14759.00 15202.30 146.32
3953 17.0636 14825.10 15195.80 145.15
3954 17.0673 14552.40 15189.40 145.79
3955 17.0711 14911.20 15183.00 146.94
3956 17.0748 14899.80 15176.70 148.36
3957 17.0786 14971.20 15170.30 146.50
3958 17.0824 14749.60 15163.90 147.02
3959 17.0861 15109.70 15157.80 149.02
3960 17.0899 14782.60 15151.50 147.21
3961 17.0936 14977.10 15145.40 149.42
3962 17.0974 14782.20 15139.20 147.16
3963 17.1011 14986.80 15133.20 147.69
3964 17.1049 14593.10 15127.00 145.89
3965 17.1087 14778.40 15120.90 147.09
3966 17.1124 14513.60 15115.00 146.23
3967 17.1162 14719.40 15109.00 146.39
3968 17.1199 14696.00 15103.20 147.17
3969 17.1237 14883.90 15097.20 146.81
3970 17.1274 14675.20 15091.50 147.91
3971 17.1312 14894.70 15085.60 146.21
3972 17.1350 14735.40 15079.80 147.27
3973 17.1387 14908.70 15074.10 149.34
3974 17.1425 14592.00 15068.30 143.94
3975 17.1462 14918.70 15062.70 147.99
3976 17.1500 14491.10 15057.00 146.57
3977 17.1537 14871.70 15051.50 148.54
3978 17.1575 14612.50 15045.80 147.13
3979 17.1612 14970.50 15040.30 147.83
3980 17.1650 14504.10 15034.70 147.44
3981 17.1688 15024.30 15029.10 148.01
3982 17.1725 14799.30 15023.70 148.12
3983 17.1763 14634.50 15018.20 144.94
3984 17.1800 14512.10 15012.80 146.19
3985 17.1838 14813.30 15007.30 146.98
3986 17.1875 14280.40 15005.90 140.65
3987 17.1913 14847.80 15000.50 148.46
3988 17.1950 14587.20 14995.20 145.05
3989 17.1988 14648.00 14989.80 145.37
3990 17.2026 14393.10 14984.40 145.25
3991 17.2063 14541.00 14979.20 144.16
3992 17.2101 14575.10 14973.90 147.41
3993 17.2138 14585.60 14968.70 147.31
3994 17.2172 14770.30 14963.90 143.52
3995 17.2209 14581.70 14958.80 143.68
3996 17.2247 14349.10 14953.50 140.24
3997 17.2284 14522.90 14948.40 142.60
3998 17.2322 14252.10 14943.10 141.51
3999 17.2360 14737.40 14937.90 144.76
4000 17.2397 14326.00 14932.80 141.60
4001 17.2435 14662.40 14927.50 143.93
4002 17.2472 14308.60 14922.50 142.97
4003 17.2510 14416.00 14917.30 142.11
4004 17.2547 14457.90 14912.20 142.65
4005 17.2585 14462.40 14907.00 142.76
4006 17.2622 14270.40 14902.00 141.45
4007 17.2660 14385.50 14896.90 141.55
4008 17.2697 14249.60 14891.90 140.61
4009 17.2735 14589.50 14886.70 144.44
4010 17.2773 14461.60 14881.60 141.14
4011 17.2810 14488.50 14876.60 140.56
4012 17.2848 14300.50 14871.50 142.77
4013 17.2885 14576.30 14866.50 143.53
4014 17.2923 14310.90 14861.40 140.90
4015 17.2960 14415.90 14856.40 142.31
4016 17.2998 14367.20 14851.30 142.81
4017 17.3035 14407.30 14846.40 139.68
4018 17.3073 14311.60 14841.30 142.01
4019 17.3110 14477.10 14836.40 141.70
4020 17.3148 14038.10 14831.30 139.08
4021 17.3186 14418.80 14826.30 143.34
4022 17.3223 14288.80 14821.30 141.73
4023 17.3261 14477.20 14816.30 142.41
4024 17.3298 14184.60 14811.40 140.34
4025 17.3336 14515.50 14806.40 144.73
4026 17.3373 14277.60 14801.50 141.38
4027 17.3411 14443.50 14796.50 142.97
4028 17.3448 14248.00 14791.60 142.46
4029 17.3486 14410.70 14786.60 142.48
4030 17.3523 13930.30 14781.70 139.79
4031 17.3561 14365.80 14776.70 143.73
4032 17.3599 14224.70 14771.70 141.62
4033 17.3636 14484.20 14766.90 144.44
4034 17.3674 14140.90 14761.90 142.11
4035 17.3711 14185.10 14757.10 140.70
4036 17.3749 14503.90 14752.10 143.38
4037 17.3786 14261.10 14747.30 141.93
4038 17.3824 14094.50 14742.30 141.60
4039 17.3861 14382.60 14737.50 143.54
4040 17.3899 14113.20 14732.60 140.73
4041 17.3937 14156.00 14727.70 141.91
4042 17.3974 14069.60 14722.90 142.63
4043 17.4012 14359.90 14717.90 143.37
4044 17.4049 14272.90 14713.20 142.51
4045 17.4087 14420.80 14708.30 142.30
4046 17.4124 13989.60 14703.50 139.89
4047 17.4162 14105.40 14698.60 139.70
4048 17.4199 14218.60 14693.80 141.25
4049 17.4237 14381.80 14688.90 142.26
4050 17.4275 14035.50 14684.10 141.14
4051 17.4312 14117.00 14679.30 138.79
4052 17.4350 14117.90 14674.50 141.67
4053 17.4387 14272.20 14669.70 142.30
4054 17.4425 14269.70 14664.90 142.86
4055 17.4462 14250.20 14660.20 141.92
4056 17.4500 13985.60 14655.30 139.85
4057 17.4537 14135.70 14650.60 141.58
4058 17.4575 14010.20 14645.80 141.00
4059 17.4613 14133.70 14641.00 141.60
4060 17.4650 13858.10 14636.30 139.54
4061 17.4688 14260.20 14631.50 142.14
4062 17.4725 14149.60 14626.80 141.40
4063 17.4763 14142.20 14622.00 139.77
4064 17.4800 14145.20 14617.30 142.53
4065 17.4838 14273.40 14612.50 144.49
4066 17.4875 14048.80 14607.90 141.40
4067 17.4913 14178.10 14603.10 142.39
4068 17.4951 14144.30 14598.40 142.96
4069 17.4988 14291.10 14593.70 142.28
4070 17.5026 14066.50 14589.00 141.09
4071 17.5063 14077.30 14584.40 142.01
4072 17.5101 14082.70 14579.60 142.35
4073 17.5138 13910.50 14575.00 141.60
4074 17.5176 14013.60 14570.30 140.98
4075 17.5214 14208.70 14565.60 143.70
4076 17.5251 14161.00 14561.00 142.11
4077 17.5289 14046.70 14556.30 140.57
4078 17.5326 14110.10 14551.70 142.21
4079 17.5364 14323.90 14547.00 142.42
4080 17.5401 13982.10 14542.50 141.33
4081 17.5439 14427.20 14537.80 142.99
4082 17.5476 14147.80 14533.30 142.57
4083 17.5514 14124.50 14528.60 141.96
4084 17.5552 14027.70 14524.00 140.77
4085 17.5589 14150.60 14519.40 142.27
4086 17.5627 14224.30 14514.80 142.23
4087 17.5664 14001.40 14510.30 142.59
4088 17.5702 14002.60 14505.70 140.82
4089 17.5739 14112.70 14501.20 142.20
4090 17.5777 13972.70 14496.60 142.35
4091 17.5814 14250.40 14492.10 142.31
4092 17.5852 13906.30 14487.50 139.36
4093 17.5890 14253.00 14483.00 140.54
4094 17.5927 13975.10 14478.50 141.65
4095 17.5965 14020.70 14474.00 142.05
4096 17.6002 13833.10 14469.50 140.40
4097 17.6040 14213.40 14465.00 144.14
4098 17.6077 13912.40 14460.60 141.29
4099 17.6115 13775.60 14456.00 139.88
4100 17.6153 13964.90 14451.50 141.73
4101 17.6190 13973.60 14447.10 142.01
4102 17.6228 13927.50 14442.60 142.15
4103 17.6265 14171.40 14438.30 144.16
4104 17.6303 13976.30 14433.80 141.76
4105 17.6340 14037.50 14429.50 142.99
4106 17.6378 14321.90 14425.00 145.79
4107 17.6415 13973.40 14420.70 139.85
4108 17.6453 13978.30 14416.20 141.49
4109 17.6491 13914.10 14411.80 141.04
4110 17.6528 13696.40 14407.50 140.22
4111 17.6566 14157.40 14403.10 143.93
4112 17.6603 14128.80 14398.80 143.62
4113 17.6641 14059.80 14394.40 143.36
4114 17.6678 13973.90 14390.20 142.13
4115 17.6716 14209.10 14385.80 143.24
4116 17.6754 13686.40 14381.50 140.48
4117 17.6791 13999.10 14377.20 140.20
4118 17.6829 14045.40 14372.90 140.42
4119 17.6866 14136.80 14368.70 140.94
4120 17.6904 13944.00 14364.40 140.30
4121 17.6941 14029.00 14360.20 140.32
4122 17.6979 13751.20 14355.90 138.16
4123 17.7017 13964.70 14351.70 138.95
4124 17.7054 13921.30 14347.50 138.81
4125 17.7092 14055.70 14343.30 140.61
4126 17.7129 14378.90 14339.20 142.99
4127 17.7167 14250.50 14334.90 142.83
4128 17.7204 13994.10 14330.90 140.75
4129 17.7242 13918.80 14326.70 139.24
4130 17.7280 13990.10 14322.50 140.10
4131 17.7317 14312.70 14318.40 143.54
4132 17.7355 14063.20 14314.30 139.89
4133 17.7392 14193.80 14310.30 142.23
4134 17.7430 14214.10 14306.10 142.86
4135 17.7467 14213.60 14302.10 140.93
4136 17.7505 14023.10 14298.10 140.02
4137 17.7543 14128.90 14294.00 141.76
4138 17.7580 14114.70 14290.00 141.29
4139 17.7618 14165.80 14286.00 142.45
4140 17.7655 14143.40 14282.00 140.79
4141 17.7693 14112.30 14278.00 140.11
4142 17.7730 14037.50 14274.10 141.17
4143 17.7768 14385.80 14270.10 143.56
4144 17.7806 13984.90 14266.20 140.62
4145 17.7843 14087.40 14262.30 140.68
4146 17.7881 14017.10 14258.40 138.40
4147 17.7918 14167.20 14254.60 140.41
4148 17.7956 14068.40 14250.60 141.00
4149 17.7993 14492.50 14246.80 143.83
4150 17.8031 14312.70 14243.00 140.16
4151 17.8068 14319.40 14239.20 142.47
4152 17.8106 13859.40 14235.40 141.12
4153 17.8144 14243.30 14231.50 141.70
4154 17.8181 14271.20 14227.80 142.39
4155 17.8219 14510.50 14224.00 143.46
4156 17.8256 14404.10 14220.30 142.79
4157 17.8294 14395.50 14216.50 140.85
4158 17.8332 14207.70 14212.80 141.07
4159 17.8369 14488.50 14209.10 144.84
4160 17.8407 14174.00 14205.40 142.32
4161 17.8444 14639.00 14201.80 145.06
4162 17.8482 14162.20 14198.10 141.57
4163 17.8519 14336.80 14194.50 141.74
4164 17.8557 14104.60 14190.80 138.80
4165 17.8595 14415.80 14187.20 143.51
4166 17.8632 14327.00 14183.60 143.21
4167 17.8670 14520.10 14180.00 142.95
4168 17.8707 14214.50 14176.50 141.32
4169 17.8745 14401.10 14172.90 143.05
4170 17.8782 14449.70 14169.40 144.83
4171 17.8820 14399.40 14165.80 142.30
4172 17.8858 14283.00 14162.20 142.29
4173 17.8895 14497.40 14158.80 143.62
4174 17.8933 14177.40 14155.30 141.00
4175 17.8970 14383.20 14151.80 139.64
4176 17.9008 14687.30 14148.30 144.62
4177 17.9045 14427.00 14145.00 142.49
4178 17.9083 14510.30 14141.50 143.13
4179 17.9121 14440.00 14138.10 141.40
4180 17.9158 14337.90 14134.70 141.78
4181 17.9196 14649.80 14131.30 143.18
4182 17.9233 14300.10 14128.00 141.70
4183 17.9271 14497.60 14124.70 142.97
4184 17.9308 14300.70 14121.40 141.85
4185 17.9346 14274.80 14118.10 141.82
4186 17.9384 14211.20 14114.80 141.98
4187 17.9421 14416.10 14111.70 141.67
4188 17.9459 14364.10 14108.40 142.18
4189 17.9496 14421.70 14105.30 143.23
4190 17.9534 14211.80 14096.00 141.48
4191 17.9572 14268.90 14092.80 140.81
4192 17.9609 13798.60 14089.80 139.71
4193 17.9647 14115.40 14086.70 142.34
4194 17.9684 14056.20 14083.80 139.73
4195 17.9722 13780.00 14080.70 138.41
4196 17.9759 13796.90 14077.80 137.90
4197 17.9797 13840.50 14074.90 141.16
4198 17.9835 14017.70 14071.90 140.62
4199 17.9872 14095.60 14069.10 141.40
4200 17.9910 13897.10 14066.30 139.88
4201 17.9947 13807.30 14063.50 140.47
4202 17.9985 13676.80 14060.70 139.03
4203 18.0022 13839.00 14058.00 139.46
4204 18.0060 13575.30 14055.30 139.97
4205 18.0098 13762.60 14052.60 139.75
4206 18.0135 13760.00 14050.00 139.99
4207 18.0173 13974.30 14047.40 140.92
4208 18.0210 13894.10 14044.90 138.34
4209 18.0248 13810.10 14042.40 138.34
4210 18.0286 13307.50 14039.90 136.59
4211 18.0323 13958.20 14037.50 141.54
4212 18.0361 13607.50 14035.10 138.37
4213 18.0398 13598.50 14032.70 138.59
4214 18.0436 13699.30 14030.40 139.82
4215 18.0473 13747.40 14028.20 140.73
4216 18.0511 13582.90 14025.90 138.97
4217 18.0549 13865.30 14023.70 137.71
4218 18.0586 13566.00 14021.60 136.26
4219 18.0624 13798.30 14019.50 139.84
4220 18.0661 13683.50 14017.50 140.40
4221 18.0699 13727.00 14015.50 140.17
4222 18.0736 13602.80 14013.50 139.13
4223 18.0774 13677.00 14011.60 139.58
4224 18.0812 13522.40 14009.70 138.31
4225 18.0849 13682.50 14008.00 140.43
4226 18.0887 13473.00 14006.20 137.50
4227 18.0924 13688.00 14004.50 139.70
4228 18.0962 13547.00 14002.80 138.80
4229 18.1000 13658.70 14001.20 137.93
4230 18.1037 13450.50 13999.70 136.92
4231 18.1075 13588.20 13998.20 138.97
4232 18.1112 13397.90 13996.80 137.70
4233 18.1150 13530.00 13995.40 139.29
4234 18.1187 13488.90 13994.10 137.50
4235 18.1225 13623.30 13992.80 140.16
4236 18.1263 13432.00 13991.60 136.95
4237 18.1300 13477.70 13990.50 136.74
4238 18.1338 13581.10 13989.40 138.70
4239 18.1375 13437.40 13988.40 139.08
4240 18.1413 13384.70 13987.50 137.71
4241 18.1451 13541.30 13986.60 138.49
4242 18.1488 13375.50 13985.80 136.86
4243 18.1526 13483.60 13985.10 138.92
4244 18.1563 13373.60 13984.40 139.59
4245 18.1601 13766.90 13983.80 141.06
4246 18.1639 13380.40 13983.30 136.18
4247 18.1676 13526.30 13982.80 138.44
4248 18.1714 13393.30 13982.50 136.54
4249 18.1751 13479.50 13982.20 138.18
4250 18.1789 13139.40 13981.90 134.81
4251 18.1826 13534.00 13981.80 135.66
4252 18.1864 13198.10 13981.80 135.56
4253 18.1902 13582.20 13981.80 136.32
4254 18.1939 13325.10 13981.90 136.84
4255 18.1977 13570.10 13982.10 138.06
4256 18.2014 13318.70 13982.40 136.93
4257 18.2052 13328.20 13982.80 136.96
4258 18.2090 13201.10 13983.30 136.67
4259 18.2127 13584.40 13983.80 138.89
4260 18.2165 13324.70 13984.50 137.29
4261 18.2202 13390.90 13985.30 137.05
4262 18.2240 13268.30 13986.20 136.00
4263 18.2277 13418.00 13987.10 137.23
4264 18.2315 13292.20 13988.20 137.29
4265 18.2353 13545.20 13989.40 137.25
4266 18.2390 13724.20 13990.70 140.46
4267 18.2428 13671.50 13992.10 137.02
4268 18.2465 13205.40 13993.60 133.31
4269 18.2503 13338.00 13995.30 136.51
4270 18.2541 13340.80 13997.10 136.84
4271 18.2578 13400.60 13999.00 137.46
4272 18.2616 13326.20 14001.00 136.64
4273 18.2653 13453.80 14003.20 138.21
4274 18.2691 13277.80 14005.50 136.28
4275 18.2729 13472.00 14007.90 138.51
4276 18.2766 13383.70 14010.50 138.43
4277 18.2804 13580.30 14013.20 136.34
4278 18.2841 13104.00 14016.00 132.69
4279 18.2879 13678.70 14019.00 139.79
4280 18.2916 13297.60 14022.20 136.82
4281 18.2954 13368.40 14025.50 138.27
4282 18.2992 13392.20 14029.00 136.49
4283 18.3029 13554.30 14032.60 137.85
4284 18.3067 13592.40 14036.50 137.62
4285 18.3104 13815.00 14040.40 137.68
4286 18.3142 13551.40 14044.60 138.85
4287 18.3180 13718.30 14049.00 138.86
4288 18.3217 13483.10 14053.50 137.08
4289 18.3255 13715.30 14058.30 138.35
4290 18.3292 13350.10 14063.10 135.70
4291 18.3330 13500.70 14068.30 137.95
4292 18.3368 13233.50 14073.70 137.36
4293 18.3405 13630.70 14079.20 138.48
4294 18.3443 13348.90 14085.00 136.43
4295 18.3480 13761.60 14090.90 139.13
4296 18.3518 13408.30 14097.20 136.90
4297 18.3556 13634.30 14103.80 137.99
4298 18.3593 13407.30 14110.40 136.57
4299 18.3631 13845.00 14117.40 138.84
4300 18.3668 13329.70 14124.50 134.31
4301 18.3706 13592.60 14132.10 136.37
4302 18.3743 13164.60 14139.70 135.72
4303 18.3781 13648.00 14147.90 139.10
4304 18.3819 13441.70 14156.30 134.27
4305 18.3856 13546.70 14164.80 138.23
4306 18.3894 13536.20 14173.80 137.55
4307 18.3931 13848.20 14182.90 138.99
4308 18.3969 13626.40 14192.60 136.71
4309 18.4007 13809.90 14202.60 138.75
4310 18.4044 13415.60 14212.70 135.44
4311 18.4082 13806.90 14223.40 138.54
4312 18.4119 13674.50 14234.20 138.28
4313 18.4157 13743.20 14245.60 137.54
4314 18.4195 13426.80 14257.50 135.60
4315 18.4232 13806.30 14269.40 139.82
4316 18.4270 13767.10 14282.10 138.80
4317 18.4307 13821.00 14294.90 139.76
4318 18.4345 13638.40 14308.40 138.65
4319 18.4383 14000.20 14322.40 138.27
4320 18.4420 13886.20 14336.50 139.88
4321 18.4458 14037.40 14351.50 141.32
4322 18.4495 13805.70 14366.60 139.19
4323 18.4533 14035.40 14382.60 141.11
4324 18.4571 13677.00 14399.10 135.53
4325 18.4608 13880.70 14415.70 140.22
4326 18.4646 13899.70 14433.40 140.65
4327 18.4683 14106.10 14451.20 140.44
4328 18.4721 13847.10 14470.10 139.49
4329 18.4758 14123.70 14489.10 140.35
4330 18.4796 14026.00 14509.40 142.05
4331 18.4834 14452.90 14530.30 141.90
4332 18.4871 14199.00 14551.30 141.49
4333 18.4909 14279.20 14573.70 141.58
4334 18.4946 14036.60 14596.30 141.54
4335 18.4984 14520.50 14620.30 143.99
4336 18.5022 14183.20 14645.10 141.23
4337 18.5059 14557.20 14670.20 142.79
4338 18.5097 14452.70 14696.80 142.29
4339 18.5134 14730.00 14723.70 144.37
4340 18.5172 14669.60 14752.40 143.52
4341 18.5210 14877.50 14782.10 145.78
4342 18.5247 14782.20 14812.20 143.91
4343 18.5285 15006.50 14844.30 144.06
4344 18.5322 14738.50 14876.70 145.12
4345 18.5360 15016.90 14911.40 146.45
4346 18.5398 15010.20 14947.50 145.81
4347 18.5435 15377.10 14984.10 148.05
4348 18.5473 15166.40 15023.30 146.37
4349 18.5510 15545.10 15063.10 149.74
4350 18.5548 15447.20 15105.80 146.83
4351 18.5586 15873.30 15150.50 147.61
4352 18.5623 15703.60 15196.00 149.19
4353 18.5661 16288.90 15245.00 152.35
4354 18.5698 16128.90 15295.10 152.79
4355 18.5736 16266.80 15349.10 153.44
4356 18.5774 16256.20 15405.90 153.90
4357 18.5811 16754.10 15464.20 156.90
4358 18.5849 16588.70 15527.30 154.12
4359 18.5886 17142.30 15592.20 158.02
4360 18.5924 16914.00 15662.70 155.25
4361 18.5962 17507.60 15737.60 158.30
4362 18.5999 17540.40 15814.80 159.19
4363 18.6037 17619.10 15899.00 160.81
4364 18.6074 17678.90 15986.20 160.01
4365 18.6112 18545.10 16081.60 164.19
4366 18.6150 18505.40 16183.40 163.47
4367 18.6187 18865.50 16289.30 166.13
4368 18.6225 19003.10 16405.50 167.59
4369 18.6262 19493.00 16526.40 168.76
4370 18.6300 19707.40 16659.50 170.16
4371 18.6338 20384.60 16802.20 174.49
4372 18.6375 20627.40 16951.20 179.32
4373 18.6413 20627.10 17115.40 173.49
4374 18.6450 20972.40 17287.10 175.52
4375 18.6488 21598.40 17476.30 179.30
4376 18.6526 21613.10 17679.90 178.36
4377 18.6563 22491.00 17892.60 179.10
4378 18.6601 22543.90 18127.50 182.59
4379 18.6638 23613.40 18373.00 188.73
4380 18.6676 23449.60 18643.60 189.53
4381 18.6714 24555.80 18934.40 193.32
4382 18.6751 24403.50 19238.10 192.68
4383 18.6789 24723.80 19572.40 192.50
4384 18.6826 25553.60 19921.20 198.44
4385 18.6864 26188.40 20304.80 198.31
4386 18.6902 26705.30 20715.20 204.68
4387 18.6939 27445.50 21142.20 205.25
4388 18.6977 27539.40 21610.20 205.49
4389 18.7014 28159.30 22096.00 209.02
4390 18.7052 29049.80 22627.20 214.15
4391 18.7090 29647.30 23192.70 214.93
4392 18.7127 29612.60 23777.30 214.87
4393 18.7165 30842.70 24414.10 222.89
4394 18.7202 30929.60 25070.20 222.44
4395 18.7240 31706.50 25784.20 224.01
4396 18.7278 31972.10 26537.90 228.57
4397 18.7315 32894.30 27311.30 231.51
4398 18.7353 32820.50 28146.50 229.81
4399 18.7390 33340.00 29000.60 229.94
4400 18.7428 33499.70 29919.70 230.72
4401 18.7466 34056.20 30882.20 232.67
4402 18.7503 34313.00 31860.50 235.93
4403 18.7541 35179.30 32907.20 241.32
4404 18.7578 34348.60 33967.40 236.62
4405 18.7616 35410.30 35097.20 243.07
4406 18.7654 34705.20 36268.40 239.44
4407 18.7691 35294.00 37446.50 241.51
4408 18.7729 35300.50 38693.80 242.04
4409 18.7766 35593.60 39943.40 242.10
4410 18.7804 34861.70 41260.70 236.19
4411 18.7842 35671.20 42608.90 241.34
4412 18.7879 35332.40 43949.50 240.92
4413 18.7917 35588.80 45350.90 244.58
4414 18.7954 35095.40 46736.60 241.11
4415 18.7992 35077.40 48176.70 237.13
4416 18.8030 34437.80 49630.40 237.10
4417 18.8067 34929.70 51052.40 235.51
4418 18.8105 34824.30 52516.00 239.74
4419 18.8142 35377.20 53937.40 241.07
4420 18.8180 34962.30 55386.60 239.41
4421 18.8218 36339.70 56819.20 245.17
4422 18.8255 36970.10 58189.90 246.55
4423 18.8293 38855.90 59564.80 256.60
4424 18.8330 39944.10 60864.10 257.34
4425 18.8368 43344.60 62148.50 274.44
4426 18.8406 46517.60 63374.00 284.62
4427 18.8443 54455.10 64500.70 315.83
4428 18.8481 63797.60 65580.10 350.24
4429 18.8518 79503.00 66546.90 404.19
4430 18.8556 99888.80 67443.80 468.02
4431 18.8594 127668.00 68234.70 547.95
4432 18.8631 152403.00 68895.30 619.11
4433 18.8669 175537.00 69454.10 683.30
4434 18.8706 180795.00 69875.20 706.00
4435 18.8744 180608.00 70177.10 704.69
4436 18.8782 163739.00 70342.80 653.62
4437 18.8819 146642.00 70371.30 608.72
4438 18.8857 125453.00 70263.90 545.95
4439 18.8894 111795.00 70027.20 503.39
4440 18.8932 98173.50 69651.30 466.29
4441 18.8970 89650.70 69144.90 431.04
4442 18.9007 81039.60 68532.30 412.86
4443 18.9045 74233.60 67786.30 389.07
4444 18.9082 67395.60 66954.00 364.13
4445 18.9120 64171.90 65999.10 353.59
4446 18.9158 58716.80 64951.40 328.98
4447 18.9195 56036.40 63850.90 323.66
4448 18.9233 52555.30 62648.20 309.71
4449 18.9270 50217.70 61415.00 299.55
4450 18.9308 47160.70 60093.80 290.61
4451 18.9346 45435.00 58726.70 278.18
4452 18.9383 43106.40 57360.10 274.52
4453 18.9421 41662.80 55928.50 266.43
4454 18.9458 39684.90 54513.90 260.76
4455 18.9496 38949.20 53047.80 256.22
4456 18.9534 36827.80 51574.80 249.13
4457 18.9571 36534.70 50139.70 247.80
4458 18.9609 34691.30 48670.60 239.61
4459 18.9646 33860.50 47251.20 236.83
4460 18.9684 32886.00 45807.60 231.55
4461 18.9722 32447.90 44384.40 229.21
4462 18.9759 30534.40 43021.10 221.97
4463 18.9797 30533.60 41648.10 222.00
4464 18.9834 29679.30 40339.90 216.84
4465 18.9872 29113.80 39029.40 214.26
4466 18.9910 28118.70 37753.20 210.60
4467 18.9947 27823.70 36547.20 209.25
4468 18.9985 26891.20 35347.60 204.68
4469 19.0023 26649.90 34188.50 203.36
4470 19.0060 25693.40 33099.60 199.62
4471 19.0098 25799.30 32023.20 199.05
4472 19.0135 24475.90 31016.20 194.38
4473 19.0173 24623.90 30024.80 194.98
4474 19.0211 23778.80 29076.30 191.71
4475 19.0248 23764.10 28194.30 191.41
4476 19.0286 23030.40 27330.80 187.29
4477 19.0323 22867.60 26530.40 183.05
4478 19.0361 22067.70 25749.60 182.44
4479 19.0399 22115.30 25009.50 184.06
4480 19.0436 21306.90 24326.80 180.39
4481 19.0474 21577.40 23663.50 180.28
4482 19.0511 20917.00 23054.50 176.69
4483 19.0549 20831.80 22464.00 175.87
4484 19.0587 20239.40 21908.90 172.39
4485 19.0624 20451.50 21400.50 175.09
4486 19.0662 19599.10 20910.10 170.89
4487 19.0699 19746.00 20462.10 171.69
4488 19.0737 19443.00 20031.00 169.48
4489 19.0775 19218.20 19627.40 169.64
4490 19.0812 18806.40 19260.10 164.67
4491 19.0850 18824.40 18907.10 166.88
4492 19.0887 18421.50 18586.10 164.62
4493 19.0925 18642.20 18278.40 166.07
4494 19.0963 18173.90 17991.40 163.28
4495 19.1000 18312.50 17730.60 165.03
4496 19.1038 17927.80 17480.80 161.32
4497 19.1075 17644.70 17253.80 161.29
4498 19.1113 17666.20 17036.20 160.98
4499 19.1151 17612.10 16833.50 160.34
4500 19.1188 17494.00 16649.30 162.49
4501 19.1226 17358.60 16472.60 157.34
4502 19.1263 17170.50 16311.90 158.48
4503 19.1301 17079.80 16157.50 158.21
4504 19.1339 16752.90 16013.20 154.42
4505 19.1376 16706.40 15881.50 152.04
4506 19.1414 16271.50 15754.70 152.76
4507 19.1452 16860.00 15635.70 156.66
4508 19.1489 16375.20 15526.90 153.43
4509 19.1527 16371.70 15421.60 152.48
4510 19.1564 16152.40 15325.00 150.97
4511 19.1602 16376.80 15231.40 152.25
4512 19.1640 15766.00 15142.80 146.52
4513 19.1677 16078.80 15061.30 151.13
4514 19.1715 15731.60 14981.80 151.45
4515 19.1752 15801.10 14908.30 150.54
4516 19.1790 15524.20 14836.40 149.54
4517 19.1828 15620.30 14768.10 148.59
4518 19.1865 15320.30 14704.50 148.71
4519 19.1903 15251.00 14642.10 144.98
4520 19.1940 15142.50 14583.90 147.73
4521 19.1978 15344.30 14526.70 147.94
4522 19.2016 14791.60 14471.80 145.89
4523 19.2053 15150.50 14420.40 146.98
4524 19.2091 14820.20 14369.60 145.00
4525 19.2128 14876.00 14321.90 144.90
4526 19.2166 14594.30 14274.70 144.18
4527 19.2204 14727.30 14229.20 145.09
4528 19.2241 14687.70 14186.40 143.41
4529 19.2279 14573.30 14143.80 142.15
4530 19.2316 14279.00 14103.70 141.68
4531 19.2354 14565.10 14063.80 143.37
4532 19.2392 14308.30 14025.10 142.95
4533 19.2429 14323.70 13988.60 142.68
4534 19.2467 14264.90 13952.30 140.41
4535 19.2505 14117.30 13916.90 140.48
4536 19.2542 13981.60 13883.50 140.04
4537 19.2580 14037.70 13850.20 139.17
4538 19.2617 13827.90 13818.60 138.45
4539 19.2655 13903.70 13787.10 140.66
4540 19.2693 13771.60 13756.40 139.65
4541 19.2730 13901.30 13727.30 139.49
4542 19.2768 13724.00 13698.20 139.25
4543 19.2805 13897.60 13670.70 140.59
4544 19.2843 13456.40 13643.10 134.91
4545 19.2881 13792.30 13616.30 139.66
4546 19.2918 13209.20 13590.80 136.44
4547 19.2956 13808.90 13565.30 139.38
4548 19.2993 13252.20 13541.20 135.73
4549 19.3031 13551.60 13517.00 139.79
4550 19.3069 13468.30 13493.40 138.85
4551 19.3106 13668.00 13471.00 140.10
4552 19.3144 13199.90 13448.70 134.15
4553 19.3181 13605.70 13427.40 138.88
4554 19.3219 13253.70 13406.20 137.43
4555 19.3257 13346.30 13385.50 136.64
4556 19.3294 13132.00 13365.80 136.72
4557 19.3332 13172.30 13346.20 136.30
4558 19.3370 13051.70 13327.00 136.53
4559 19.3407 13114.80 13308.90 135.14
4560 19.3445 12908.90 13290.80 136.42
4561 19.3482 13269.30 13273.60 138.26
4562 19.3520 12971.40 13256.40 134.74
4563 19.3558 13115.90 13239.80 136.35
4564 19.3595 12981.20 13224.00 134.41
4565 19.3633 12965.80 13208.20 132.79
4566 19.3670 12757.00 13193.40 133.78
4567 19.3708 12766.40 13178.50 132.91
4568 19.3746 12826.50 13164.20 133.22
4569 19.3783 12927.30 13150.70 135.28
4570 19.3821 12866.70 13137.20 133.06
4571 19.3858 12876.90 13124.60 132.95
4572 19.3896 12585.20 13112.10 132.76
4573 19.3934 12826.90 13100.10 132.68
4574 19.3971 12641.60 13088.80 132.37
4575 19.4009 13056.00 13077.80 135.01
4576 19.4046 12620.10 13067.50 133.09
4577 19.4084 12720.70 13057.40 133.51
4578 19.4122 12359.00 13047.90 131.75
4579 19.4159 12733.10 13039.10 134.46
4580 19.4197 12501.50 13030.60 129.23
4581 19.4234 12702.70 13022.90 131.36
4582 19.4272 12286.70 13015.60 129.72
4583 19.4310 12472.10 13008.90 130.91
4584 19.4347 12245.30 13002.90 129.31
4585 19.4385 12615.20 12997.50 131.33
4586 19.4423 12166.30 12992.80 128.81
4587 19.4460 12488.90 12988.90 131.06
4588 19.4498 12307.90 12985.70 131.14
4589 19.4535 12707.20 12983.40 134.47
4590 19.4573 12229.40 12981.80 126.66
4591 19.4611 12507.70 12981.20 131.38
4592 19.4648 12177.30 12981.40 128.98
4593 19.4686 12487.20 12982.80 131.58
4594 19.4723 12067.10 12985.10 128.59
4595 19.4761 12162.30 12988.50 127.79
4596 19.4799 12154.10 12993.30 129.14
4597 19.4836 12332.30 12999.10 131.30
4598 19.4874 12127.80 13006.40 129.33
4599 19.4911 12228.30 13014.90 129.13
4600 19.4949 11887.60 13025.10 129.11
4601 19.4987 12266.60 13036.90 129.09
4602 19.5024 12230.40 13050.10 128.47
4603 19.5062 12217.20 13065.40 129.00
4604 19.5100 11992.50 13082.60 127.01
4605 19.5137 12060.40 13101.20 128.18
4606 19.5175 12075.00 13122.40 129.84
4607 19.5212 12221.80 13145.20 130.14
4608 19.5250 12040.10 13170.80 127.51
4609 19.5288 12255.40 13198.90 129.55
4610 19.5325 12115.50 13228.60 130.45
4611 19.5363 12314.60 13261.70 131.51
4612 19.5400 12047.60 13296.50 130.07
4613 19.5438 12220.50 13335.10 131.47
4614 19.5476 11935.40 13376.60 128.86
4615 19.5513 12219.50 13419.90 130.49
4616 19.5551 12083.10 13467.50 129.38
4617 19.5588 12195.50 13516.80 129.73
4618 19.5626 11841.80 13570.70 128.94
4619 19.5664 12150.40 13628.00 128.59
4620 19.5701 11955.30 13687.00 128.16
4621 19.5739 12096.70 13751.00 128.97
4622 19.5776 11877.70 13816.70 127.13
4623 19.5814 12271.20 13887.60 131.79
4624 19.5852 11954.00 13962.00 128.34
4625 19.5889 12026.00 14037.90 129.79
4626 19.5927 11997.90 14119.30 126.46
4627 19.5965 12264.60 14204.20 131.09
4628 19.6002 12074.60 14290.20 132.23
4629 19.6040 12391.40 14381.90 133.35
4630 19.6077 11982.90 14474.30 129.36
4631 19.6115 12175.00 14572.30 130.41
4632 19.6153 12060.70 14673.50 128.38
4633 19.6190 12417.30 14774.80 132.83
4634 19.6228 12052.30 14881.40 129.18
4635 19.6265 12474.50 14987.80 131.90
4636 19.6303 12327.50 15099.20 133.06
4637 19.6341 12374.50 15212.70 131.38
4638 19.6378 12127.00 15325.00 128.26
4639 19.6416 12606.20 15441.70 131.01
4640 19.6453 12316.60 15556.40 129.51
4641 19.6491 12612.50 15674.90 133.18
4642 19.6529 12411.80 15793.70 132.20
4643 19.6566 12790.10 15909.30 135.34
4644 19.6604 12397.30 16027.30 132.36
4645 19.6641 12890.20 16141.20 134.78
4646 19.6679 12496.10 16256.30 131.37
4647 19.6717 12867.10 16369.30 135.09
4648 19.6754 12710.50 16476.30 135.13
4649 19.6792 13209.30 16582.80 139.25
4650 19.6830 12800.00 16684.90 134.67
4651 19.6867 13089.30 16779.40 136.69
4652 19.6905 13184.80 16870.90 137.66
4653 19.6942 13647.60 16953.70 139.43
4654 19.6980 14298.20 17031.60 138.95
4655 19.7018 15372.20 17101.70 147.55
4656 19.7055 16363.90 17161.60 154.89
4657 19.7093 18254.60 17214.10 165.77
4658 19.7130 19258.10 17255.70 170.09
4659 19.7168 20170.80 17288.40 175.42
4660 19.7206 19985.30 17310.30 174.40
4661 19.7243 19654.10 17321.10 172.37
4662 19.7281 19070.20 17345.50 170.89
4663 19.7318 18392.50 17334.70 167.42
4664 19.7356 17097.90 17312.60 157.39
4665 19.7394 16935.20 17279.40 158.06
4666 19.7431 16322.90 17236.70 154.63
4667 19.7469 16163.80 17182.50 153.73
4668 19.7506 15710.60 17120.00 151.35
4669 19.7544 15848.50 17046.60 153.86
4670 19.7582 15314.80 16964.30 148.99
4671 19.7619 15561.60 16876.20 149.14
4672 19.7657 15200.70 16778.40 146.91
4673 19.7695 15292.70 16673.80 148.01
4674 19.7732 14876.40 16566.10 144.52
4675 19.7770 14698.60 16450.30 146.35
4676 19.7807 14678.10 16333.10 144.04
4677 19.7845 14778.10 16208.80 146.02
4678 19.7883 14924.40 16081.30 147.12
4679 19.7920 14884.00 15954.80 144.19
4680 19.7958 14155.80 15822.80 140.03
4681 19.7995 14706.10 15693.00 143.96
4682 19.8033 14226.50 15558.90 139.82
4683 19.8071 14316.90 15424.50 139.71
4684 19.8108 13837.80 15293.70 140.31
4685 19.8146 13938.60 15160.00 142.28
4686 19.8183 13997.00 15030.80 140.36
4687 19.8221 13681.10 14899.40 138.99
4688 19.8259 13400.40 14769.60 137.62
4689 19.8296 13544.30 14645.10 137.95
4690 19.8334 13317.70 14519.50 138.40
4691 19.8371 13544.60 14399.60 137.11
4692 19.8409 13118.50 14279.10 136.10
4693 19.8447 13357.20 14161.50 134.96
4694 19.8484 13045.50 14049.90 136.76
4695 19.8522 13092.70 13938.40 136.47
4696 19.8560 12859.20 13830.30 134.71
4697 19.8597 12756.20 13728.30 132.57
4698 19.8635 12752.20 13626.90 133.86
4699 19.8672 12673.10 13531.50 132.10
4700 19.8710 12704.70 13437.00 134.17
4701 19.8748 12731.80 13346.10 132.37
4702 19.8785 12493.90 13261.00 129.38
4703 19.8823 12505.80 13177.10 131.75
4704 19.8860 12417.90 13098.80 131.11
4705 19.8898 12419.00 13021.70 131.47
4706 19.8936 12111.80 12948.10 130.08
4707 19.8973 12641.40 12879.70 133.12
4708 19.9011 12362.30 12812.60 131.19
4709 19.9048 12347.60 12750.40 131.37
4710 19.9086 12213.50 12689.50 130.67
4711 19.9124 12323.30 12631.70 131.99
4712 19.9161 11992.30 12578.20 128.33
4713 19.9199 12186.30 12526.00 130.23
4714 19.9236 12112.40 12477.80 130.16
4715 19.9274 12384.00 12430.80 132.38
4716 19.9312 11892.50 12386.30 127.79
4717 19.9349 12031.90 12345.30 130.02
4718 19.9387 11858.90 12305.40 127.73
4719 19.9424 11951.50 12268.60 127.82
4720 19.9462 11823.90 12232.70 129.38
4721 19.9500 12050.40 12198.90 128.13
4722 19.9537 11953.00 12167.70 129.15
4723 19.9575 11966.10 12137.30 129.35
4724 19.9613 11678.40 12108.60 126.75
4725 19.9650 11899.60 12082.00 129.51
4726 19.9688 11800.30 12056.20 125.94
4727 19.9725 11850.30 12032.30 126.20
4728 19.9763 11720.50 12009.00 125.41
4729 19.9801 11804.10 11986.90 127.98
4730 19.9838 11689.20 11966.40 127.75
4731 19.9876 11768.00 11946.30 128.18
4732 19.9913 11511.10 11927.70 126.93
4733 19.9951 11756.40 11909.50 126.57
4734 19.9989 11642.60 11892.00 127.13
4735 20.0026 11716.10 11875.80 126.94
4736 20.0064 11658.00 11859.80 124.61
4737 20.0101 11655.00 11844.80 126.76
4738 20.0139 11510.90 11830.10 126.89
4739 20.0177 11509.10 11815.90 127.33
4740 20.0214 11561.40 11802.60 126.26
4741 20.0252 11605.10 11789.30 126.81
4742 20.0289 11269.00 11776.90 123.43
4743 20.0327 11714.50 11764.50 127.64
4744 20.0365 11342.60 11752.50 125.21
4745 20.0402 11796.50 11741.20 128.81
4746 20.0440 11394.20 11729.90 125.31
4747 20.0477 11463.10 11719.20 125.89
4748 20.0515 11199.00 11708.40 123.21
4749 20.0553 11668.40 11698.00 125.88
4750 20.0590 11326.80 11688.00 125.85
4751 20.0628 11364.60 11678.00 125.22
4752 20.0666 11298.80 11668.20 123.10
4753 20.0703 11195.60 11658.90 124.20
4754 20.0741 11244.30 11649.50 124.48
4755 20.0778 11516.20 11640.50 127.29
4756 20.0816 11405.40 11631.50 127.54
4757 20.0854 11509.90 11622.60 127.26
4758 20.0891 11322.00 11614.10 123.44
4759 20.0929 11523.00 11605.50 125.75
4760 20.0966 11125.60 11597.30 122.35
4761 20.1004 11394.30 11588.90 124.89
4762 20.1042 11396.90 11580.70 124.04
4763 20.1079 11344.00 11572.80 124.98
4764 20.1117 11197.60 11564.80 123.67
4765 20.1154 11402.90 11557.20 125.10
4766 20.1192 10970.70 11549.40 121.45
4767 20.1230 11354.10 11541.70 124.80
4768 20.1267 11122.20 11534.40 122.25
4769 20.1305 11220.60 11526.90 122.85
4770 20.1342 11216.40 11519.70 122.18
4771 20.1380 11243.20 11512.40 122.12
4772 20.1418 11161.20 11505.20 121.33
4773 20.1455 11489.50 11498.30 125.76
4774 20.1493 10976.70 11491.20 122.98
4775 20.1530 11324.20 11484.50 125.29
4776 20.1568 11180.50 11477.60 123.41
4777 20.1606 11166.10 11470.80 122.64
4778 20.1643 10866.20 11464.20 121.81
4779 20.1681 11366.80 11457.60 123.82
4780 20.1718 11034.40 11451.20 122.10
4781 20.1756 11224.10 11444.70 123.33
4782 20.1794 10878.90 11438.30 121.53
4783 20.1831 11233.90 11432.10 123.64
4784 20.1869 11041.60 11425.80 123.35
4785 20.1907 11196.00 11419.60 123.51
4786 20.1944 11080.30 11413.60 122.38
4787 20.1982 11261.70 11407.50 123.97
4788 20.2019 10958.50 11401.60 119.15
4789 20.2057 11124.90 11395.70 122.81
4790 20.2095 10905.40 11389.80 120.20
4791 20.2132 11034.90 11384.10 122.93
4792 20.2170 10788.40 11378.40 121.08
4793 20.2207 11032.60 11372.80 122.02
4794 20.2245 11046.80 11367.20 123.03
4795 20.2283 11329.80 11361.60 124.94
4796 20.2320 10954.70 11356.20 122.88
4797 20.2358 11011.80 11350.80 122.77
4798 20.2395 11126.30 11345.50 123.37
4799 20.2433 11310.20 11340.20 125.94
4800 20.2471 10934.20 11334.90 121.20
4801 20.2508 10984.50 11329.90 121.73
4802 20.2546 10873.00 11324.70 121.96
4803 20.2583 11263.90 11319.70 124.72
4804 20.2621 10990.50 11314.70 122.59
4805 20.2659 11134.30 11309.70 123.94
4806 20.2696 11117.00 11304.90 123.04
4807 20.2734 10912.40 11300.00 121.83
4808 20.2771 10826.30 11295.20 122.39
4809 20.2809 11249.60 11290.40 122.93
4810 20.2847 10939.50 11285.70 122.81
4811 20.2884 11148.80 11281.10 123.73
4812 20.2922 10980.40 11276.50 121.92
4813 20.2959 11132.50 11272.00 123.04
4814 20.2997 10886.30 11267.40 122.23
4815 20.3035 11239.10 11262.80 123.92
4816 20.3072 11024.90 11258.50 121.73
4817 20.3110 11147.30 11254.00 124.17
4818 20.3147 10978.40 11249.60 122.07
4819 20.3185 11214.30 11245.20 124.36
4820 20.3223 10940.70 11240.80 123.01
4821 20.3260 11061.80 11236.60 123.14
4822 20.3298 11008.10 11232.20 121.67
4823 20.3335 11129.30 11228.00 125.50
4824 20.3373 10996.90 11223.70 124.00
4825 20.3411 11177.90 11219.30 124.57
4826 20.3448 11041.40 11215.10 122.92
4827 20.3486 11240.90 11210.80 124.57
4828 20.3523 11130.20 11206.60 124.74
4829 20.3561 11249.00 11202.30 124.82
4830 20.3599 10986.40 11197.90 122.51
4831 20.3636 11116.20 11193.60 123.00
4832 20.3674 11105.70 11189.20 122.85
4833 20.3711 11222.30 11184.90 124.92
4834 20.3749 11107.90 11180.40 123.48
4835 20.3787 11230.20 11175.90 121.98
4836 20.3824 11145.60 11171.40 122.85
4837 20.3862 11380.00 11166.80 125.24
4838 20.3899 11128.40 11162.20 124.62
4839 20.3937 11267.20 11157.50 125.21
4840 20.3975 11062.60 11152.70 123.01
4841 20.4012 11349.10 11147.90 123.63
4842 20.4050 11312.70 11143.00 124.20
4843 20.4088 11414.60 11138.00 123.33
4844 20.4125 11068.20 11133.00 123.52
4845 20.4163 11188.10 11127.90 122.18
4846 20.4200 11224.00 11122.80 125.57
4847 20.4238 11299.60 11117.50 124.84
4848 20.4276 11185.10 11112.10 125.12
4849 20.4313 11308.00 11106.80 124.70
4850 20.4351 11062.60 11101.30 122.67
4851 20.4388 11269.60 11095.90 124.82
4852 20.4426 11007.50 11090.20 122.55
4853 20.4464 11276.00 11084.60 125.31
4854 20.4501 10914.60 11079.00 122.18
4855 20.4539 11272.90 11073.20 125.33
4856 20.4576 11088.30 11067.60 122.20
4857 20.4614 11264.40 11061.80 122.90
4858 20.4652 11342.90 11055.90 123.21
4859 20.4689 11300.80 11050.10 126.85
4860 20.4727 11248.70 11044.20 125.63
4861 20.4764 11054.60 11038.40 123.82
4862 20.4802 10972.40 11032.50 124.00
4863 20.4840 11126.10 11026.50 125.35
4864 20.4877 10994.20 11020.70 123.15
4865 20.4915 11196.30 11014.70 124.70
4866 20.4952 10976.40 11008.90 123.74
4867 20.4990 11076.90 11002.90 123.72
4868 20.5028 10737.10 10996.90 120.79
4869 20.5065 10951.90 10991.10 124.66
4870 20.5103 10697.60 10985.20 122.68
4871 20.5140 10986.30 10979.40 125.18
4872 20.5178 10759.60 10973.50 122.71
4873 20.5216 10636.00 10967.60 119.39
4874 20.5253 10701.10 10961.90 121.68
4875 20.5291 10935.10 10956.10 124.25
4876 20.5328 10858.40 10950.40 123.10
4877 20.5366 10778.30 10944.60 121.78
4878 20.5404 10541.30 10938.80 120.03
4879 20.5441 10869.70 10933.20 122.24
4880 20.5479 10744.40 10927.50 120.71
4881 20.5516 10776.80 10922.00 122.47
4882 20.5554 10542.90 10916.30 119.80
4883 20.5592 10893.70 10910.70 123.16
4884 20.5629 10558.50 10905.30 122.00
4885 20.5667 11010.30 10899.70 127.02
4886 20.5704 10768.00 10894.30 122.21
4887 20.5742 10924.30 10888.80 124.08
4888 20.5779 10522.60 10883.50 122.98
4889 20.5817 10665.50 10878.10 123.15
4890 20.5855 10575.30 10872.70 118.86
4891 20.5892 10640.10 10867.40 121.87
4892 20.5930 10625.00 10862.10 119.85
4893 20.5967 10693.80 10856.90 124.44
4894 20.6005 10460.00 10851.60 121.15
4895 20.6043 10622.40 10846.40 122.36
4896 20.6080 10581.40 10841.30 123.12
4897 20.6118 10563.70 10836.10 122.53
4898 20.6155 10372.30 10831.10 122.70
4899 20.6193 10775.10 10826.00 123.75
4900 20.6231 10340.00 10820.90 121.86
4901 20.6268 10429.00 10815.90 122.60
4902 20.6306 10533.80 10810.90 123.54
4903 20.6343 10518.30 10806.00 120.52
4904 20.6381 10403.20 10801.00 120.54
4905 20.6419 10593.40 10796.00 122.87
4906 20.6456 10476.70 10791.20 122.06
4907 20.6494 10722.70 10786.20 122.83
4908 20.6531 10133.40 10781.50 119.44
4909 20.6569 10808.30 10776.60 124.44
4910 20.6607 10428.80 10771.70 122.65
4911 20.6644 10648.00 10767.00 124.23
4912 20.6682 10558.60 10762.20 125.01
4913 20.6719 10596.70 10757.50 122.53
4914 20.6757 10160.10 10752.80 119.47
4915 20.6795 10516.80 10748.00 122.19
4916 20.6832 10397.90 10743.40 120.96
4917 20.6870 10556.00 10738.70 122.54
4918 20.6907 10573.00 10734.10 122.60
4919 20.6945 10613.50 10729.40 120.35
4920 20.6983 10342.20 10724.70 120.86
4921 20.7020 10417.50 10720.20 120.40
4922 20.7058 10389.40 10715.60 122.76
4923 20.7095 10513.80 10711.00 123.59
4924 20.7133 10432.30 10706.40 120.65
4925 20.7171 10624.80 10701.80 123.76
4926 20.7208 10227.90 10697.40 120.98
4927 20.7246 10599.90 10692.80 122.40
4928 20.7283 10233.10 10688.40 119.03
4929 20.7321 10378.80 10683.80 120.07
4930 20.7359 10292.10 10679.30 120.13
4931 20.7396 10608.60 10674.90 123.09
4932 20.7434 10477.90 10670.30 121.65
4933 20.7471 10473.50 10666.00 121.19
4934 20.7509 10200.60 10661.50 118.50
4935 20.7546 10492.10 10657.10 120.98
4936 20.7584 10310.10 10652.60 120.79
4937 20.7622 10567.50 10648.20 122.46
4938 20.7659 10183.10 10643.80 121.12
4939 20.7697 10358.40 10639.40 121.65
4940 20.7734 10212.40 10635.10 119.95
4941 20.7772 10363.60 10630.60 118.75
4942 20.7810 10077.90 10626.20 116.66
4943 20.7847 10433.50 10621.90 118.68
4944 20.7885 10168.00 10617.50 118.54
4945 20.7922 10461.40 10613.20 121.88
4946 20.7960 10239.50 10608.90 120.14
4947 20.7998 10365.00 10604.50 122.00
4948 20.8035 10311.10 10600.20 120.67
4949 20.8073 10315.90 10595.90 120.67
4950 20.8110 10443.20 10591.60 120.77
4951 20.8148 10377.90 10587.30 121.28
4952 20.8186 10063.30 10582.90 116.97
4953 20.8223 10475.50 10578.70 122.00
4954 20.8261 10282.30 10574.40 117.97
4955 20.8298 10483.10 10570.20 123.08
4956 20.8336 10276.40 10565.90 119.68
4957 20.8374 10528.00 10561.60 121.19
4958 20.8411 10169.00 10557.40 120.15
4959 20.8449 10161.60 10553.10 118.87
4960 20.8486 10327.60 10548.90 120.61
4961 20.8524 10312.80 10544.70 119.71
4962 20.8561 10180.30 10540.50 120.53
4963 20.8599 10512.60 10536.30 123.14
4964 20.8637 10021.90 10532.00 118.45
4965 20.8674 10032.30 10527.90 119.85
4966 20.8712 10214.70 10523.70 119.36
4967 20.8749 10313.00 10519.50 119.78
4968 20.8787 10056.40 10515.30 119.24
4969 20.8825 10140.80 10511.10 120.24
4970 20.8862 10141.30 10507.00 121.02
4971 20.8900 10360.10 10502.80 120.79
4972 20.8937 10056.80 10498.80 119.27
4973 20.8975 10233.20 10494.60 117.84
4974 20.9013 10263.10 10490.40 122.10
4975 20.9050 10201.60 10486.40 119.76
4976 20.9088 10040.00 10482.30 116.47
4977 20.9125 10520.20 10478.20 122.23
4978 20.9163 10068.40 10474.10 118.54
4979 20.9201 10347.00 10470.00 120.40
4980 20.9238 10168.20 10466.00 120.81
4981 20.9276 10190.50 10461.90 119.50
4982 20.9313 10155.40 10458.00 120.05
4983 20.9351 10365.70 10453.90 120.87
4984 20.9388 10179.90 10449.90 120.33
4985 20.9426 10253.00 10445.90 119.92
4986 20.9464 9918.90 10441.90 118.70
4987 20.9501 10317.10 10437.90 121.64
4988 20.9539 9927.64 10433.90 117.93
4989 20.9576 10301.00 10430.00 121.38
4990 20.9614 10199.90 10426.10 119.66
4991 20.9652 10256.10 10422.10 117.70
4992 20.9689 10125.30 10418.20 121.06
4993 20.9727 10398.90 10414.30 121.65
4994 20.9764 10190.50 10410.50 119.85
4995 20.9802 10161.80 10406.60 120.39
4996 20.9840 10150.40 10402.70 119.73
4997 20.9877 10145.00 10398.90 118.46
4998 20.9915 10078.80 10395.00 119.84
4999 20.9952 10390.40 10391.20 121.50
5000 20.9990 10258.30 10387.40 121.34
5001 21.0027 10113.20 10383.70 117.55
5002 21.0065 10139.50 10379.90 117.07
5003 21.0103 10406.50 10376.10 123.40
5004 21.0140 10111.40 10372.40 118.46
5005 21.0178 10414.00 10368.60 121.66
5006 21.0215 10192.00 10365.00 118.66
5007 21.0253 9944.08 10361.20 117.85
5008 21.0291 10048.90 10357.50 119.89
5009 21.0328 10277.50 10353.90 121.44
5010 21.0366 10040.80 10350.20 119.23
5011 21.0403 10256.60 10346.60 121.24
5012 21.0441 10000.60 10342.90 118.72
5013 21.0478 10379.40 10339.40 118.70
5014 21.0516 9959.94 10335.70 113.76
5015 21.0554 10236.70 10332.10 117.82
5016 21.0591 9930.34 10328.60 115.42
5017 21.0629 10358.20 10325.00 118.09
5018 21.0666 9963.76 10321.50 114.12
5019 21.0704 10293.50 10317.90 117.61
5020 21.0742 10163.40 10314.40 115.63
5021 21.0779 10337.70 10310.90 117.15
5022 21.0817 9998.96 10307.40 114.99
5023 21.0854 10397.20 10303.90 118.08
5024 21.0892 10125.80 10300.40 115.53
5025 21.0929 10201.30 10297.00 117.65
5026 21.0967 10065.10 10293.40 115.90
5027 21.1005 10379.20 10289.90 117.43
5028 21.1042 10169.60 10286.50 117.71
5029 21.1080 10461.70 10283.00 118.78
5030 21.1117 10330.40 10279.60 118.18
5031 21.1155 10572.40 10276.10 120.05
5032 21.1193 10184.90 10272.60 117.32
5033 21.1230 10203.20 10269.20 115.29
5034 21.1268 10368.70 10265.60 118.26
5035 21.1305 10786.60 10262.20 121.30
5036 21.1343 10163.20 10258.60 118.04
5037 21.1380 10521.10 10255.20 119.79
5038 21.1418 10478.70 10251.60 119.72
5039 21.1456 10394.50 10248.00 118.10
5040 21.1493 10302.50 10244.50 118.49
5041 21.1531 10485.70 10240.90 120.87
5042 21.1568 10546.80 10237.30 118.97
5043 21.1606 10646.40 10233.70 119.94
5044 21.1644 10422.40 10230.00 119.32
5045 21.1681 10499.30 10226.30 120.98
5046 21.1719 10322.90 10222.60 118.01
5047 21.1756 10671.20 10218.90 118.06
5048 21.1794 10308.60 10215.00 117.82
5049 21.1831 10586.10 10211.30 120.50
5050 21.1869 10428.60 10207.40 118.96
5051 21.1907 10511.50 10203.50 118.69
5052 21.1944 10327.60 10199.60 118.67
5053 21.1982 10706.00 10195.60 120.57
5054 21.2019 10625.50 10191.70 118.92
5055 21.2057 10951.00 10187.60 122.39
5056 21.2095 10379.10 10183.50 118.56
5057 21.2132 10708.30 10179.50 121.10
5058 21.2170 10251.60 10175.30 118.25
5059 21.2207 10620.20 10171.20 119.53
5060 21.2245 10442.80 10167.00 119.62
5061 21.2282 10655.10 10162.90 120.50
5062 21.2320 10524.40 10158.60 120.84
5063 21.2358 10554.10 10154.30 120.09
5064 21.2395 10236.90 10150.10 117.33
5065 21.2433 10596.30 10145.80 118.26
5066 21.2470 10352.20 10141.60 118.72
5067 21.2508 10724.20 10137.20 120.50
5068 21.2545 10467.60 10133.00 119.10
5069 21.2583 10358.60 10128.60 117.40
5070 21.2621 10176.70 10124.20 118.27
5071 21.2658 10408.30 10120.00 117.69
5072 21.2696 10214.30 10072.90 118.20
5073 21.2733 10460.90 10068.80 117.59
5074 21.2771 10091.80 10064.50 116.83
5075 21.2808 10152.60 10060.40 116.96
5076 21.2846 10219.70 10056.10 117.71
5077 21.2884 10234.30 10051.90 118.10
5078 21.2921 10135.20 10047.80 117.33
5079 21.2959 10384.20 10043.50 118.92
5080 21.2996 10070.60 10039.40 117.38
5081 21.3034 10257.00 10035.20 117.13
5082 21.3072 9982.52 10031.00 115.86
5083 21.3109 10182.30 10026.90 117.94
5084 21.3147 9976.82 10022.70 114.48
5085 21.3184 10257.00 10018.70 118.49
5086 21.3222 9994.15 10014.50 115.44
5087 21.3259 10121.20 10010.50 115.44
5088 21.3297 9687.12 10006.30 114.55
5089 21.3335 10230.50 10002.20 118.19
5090 21.3372 10038.80 9998.23 117.37
5091 21.3410 10288.30 9994.14 117.35
5092 21.3447 9943.07 9990.17 115.50
5093 21.3485 9948.28 9986.10 116.52
5094 21.3522 9887.99 9982.16 116.68
5095 21.3560 10250.00 9978.13 118.11
5096 21.3598 9831.00 9974.12 115.64
5097 21.3635 10075.90 9970.22 116.60
5098 21.3673 9828.64 9966.24 114.97
5099 21.3710 9928.45 9962.37 113.62
5100 21.3748 9931.90 9958.42 114.03
5101 21.3785 9994.20 9954.59 116.91
5102 21.3823 9900.89 9950.66 116.54
5103 21.3861 10040.20 9946.76 118.11
5104 21.3898 9758.62 9942.97 115.24
5105 21.3936 10093.90 9939.10 115.26
5106 21.3973 9919.03 9935.34 117.30
5107 21.4011 10071.70 9931.50 115.91
5108 21.4048 9954.39 9927.77 118.00
5109 21.4086 9974.32 9923.96 116.51
5110 21.4124 9811.08 9920.16 113.24
5111 21.4161 9836.28 9916.47 115.34
5112 21.4199 9706.45 9912.70 114.59
5113 21.4236 9850.50 9909.05 114.15
5114 21.4274 9561.49 9905.31 113.49
5115 21.4311 10093.20 9901.68 115.67
5116 21.4349 9715.60 9897.97 116.06
5117 21.4387 9754.71 9896.06 113.88
5118 21.4424 9751.51 9892.47 114.48
5119 21.4462 9895.95 9888.80 115.36
5120 21.4499 9636.75 9885.25 113.11
5121 21.4537 9970.70 9881.60 117.14
5122 21.4574 9700.47 9878.06 115.51
5123 21.4612 9857.38 9874.45 115.85
5124 21.4650 9689.58 9870.84 114.02
5125 21.4687 9802.25 9867.34 114.68
5126 21.4725 9715.60 9863.76 116.75
5127 21.4762 9707.72 9860.28 113.93
5128 21.4800 9726.47 9859.06 114.89
5129 21.4837 9758.67 9857.88 113.99
5130 21.4875 9683.64 9856.68 114.91
5131 21.4913 9860.08 9855.49 115.84
5132 21.4950 9626.46 9854.34 110.75
5133 21.4988 9944.86 9853.18 117.34
5134 21.5025 9704.42 9852.05 115.45
5135 21.5063 9835.72 9850.91 115.50
5136 21.5100 9760.63 9849.80 115.79
5137 21.5138 9764.79 9848.67 116.27
5138 21.5176 9533.75 9847.56 113.41
5139 21.5213 9734.23 9846.48 112.14
5140 21.5251 9613.72 9845.39 115.52
5141 21.5288 9770.02 9844.33 115.64
5142 21.5326 9637.04 9843.25 113.65
5143 21.5363 9985.92 9842.21 112.29
5144 21.5401 9481.27 9841.16 112.30
5145 21.5438 9683.02 9840.14 113.59
5146 21.5476 9575.23 9839.10 112.76
5147 21.5514 9817.70 9838.08 113.71
5148 21.5551 9822.20 9837.08 114.21
5149 21.5589 10023.80 9836.08 116.02
5150 21.5626 9879.17 9835.10 115.69
5151 21.5664 9802.64 9834.12 112.86
5152 21.5701 9559.61 9833.16 112.53
5153 21.5739 9710.71 9832.19 113.42
5154 21.5777 9891.40 9831.23 115.50
5155 21.5814 9843.39 9830.30 114.95
5156 21.5852 9559.87 9829.36 111.84
5157 21.5889 9776.42 9828.46 114.34
5158 21.5927 9651.38 9827.53 113.37
5159 21.5964 9715.57 9826.65 112.87
5160 21.6002 9652.11 9825.74 113.25
5161 21.6040 9871.78 9824.85 114.89
5162 21.6077 9701.19 9823.99 114.16
5163 21.6115 9840.21 9823.12 114.12
5164 21.6152 9523.45 9822.31 113.27
5165 21.6190 9786.61 9821.46 114.25
5166 21.6227 9519.95 9820.64 112.30
5167 21.6265 9734.04 9819.81 113.71
5168 21.6302 9726.49 9819.01 113.49
5169 21.6340 9686.70 9818.20 113.47
5170 21.6378 9742.68 9817.40 113.89
5171 21.6415 9864.80 9816.63 113.62
5172 21.6453 9682.47 9815.85 114.85
5173 21.6490 9759.73 9815.10 113.33
5174 21.6528 9570.24 9814.35 113.82
5175 21.6565 9686.99 9813.62 113.67
5176 21.6603 9574.46 9812.89 111.11
5177 21.6641 9900.96 9812.16 114.61
5178 21.6678 9342.52 9811.47 110.12
5179 21.6716 9556.49 9810.77 113.06
5180 21.6753 9547.74 9810.10 112.77
5181 21.6791 9761.75 9809.42 114.13
5182 21.6828 9334.27 9808.78 111.07
5183 21.6866 9812.16 9808.12 115.34
5184 21.6903 9366.40 9807.50 111.83
5185 21.6941 9668.51 9806.88 114.43
5186 21.6979 9623.59 9806.26 111.90
5187 21.7016 9745.69 9805.67 113.49
5188 21.7054 9747.49 9804.94 114.77
5189 21.7091 9973.02 9804.38 114.65
5190 21.7129 9589.75 9803.82 113.52
5191 21.7166 9727.16 9803.28 114.59
5192 21.7204 9754.23 9802.74 112.53
5193 21.7241 9784.83 9802.23 113.17
5194 21.7279 9495.33 9801.72 111.85
5195 21.7317 9867.29 9801.23 115.29
5196 21.7354 9633.71 9800.76 112.38
5197 21.7392 9799.57 9800.29 116.36
5198 21.7429 9458.79 9799.85 113.01
5199 21.7467 10007.10 9799.41 115.80
5200 21.7504 9690.53 9799.00 115.39
5201 21.7542 9741.86 9798.59 114.74
5202 21.7579 9697.47 9798.21 114.39
5203 21.7617 9866.99 9797.83 114.70
5204 21.7655 9546.25 9797.46 114.13
5205 21.7692 9690.50 9797.13 114.09
5206 21.7730 9521.67 9796.79 114.04
5207 21.7767 9818.19 9796.49 113.79
5208 21.7805 9520.25 9796.19 114.12
5209 21.7842 9844.33 9795.92 114.87
5210 21.7880 9770.05 9795.65 114.11
5211 21.7917 10102.10 9795.41 116.64
5212 21.7955 9541.21 9795.18 110.44
5213 21.7993 9805.66 9794.97 115.67
5214 21.8030 9620.87 9794.78 111.46
5215 21.8068 9803.70 9794.60 115.53
5216 21.8105 9615.86 9794.45 113.86
5217 21.8143 9952.07 9794.31 115.92
5218 21.8180 9675.84 9794.19 113.20
5219 21.8218 9779.63 9794.09 114.31
5220 21.8255 9531.63 9794.01 112.70
5221 21.8293 9717.44 9793.95 114.92
5222 21.8331 9690.73 9793.90 114.52
5223 21.8368 9671.98 9793.88 112.92
5224 21.8406 9643.79 9793.88 114.44
5225 21.8443 9519.46 9793.90 112.84
5226 21.8481 9614.88 9793.94 115.60
5227 21.8518 9924.10 9794.00 116.37
5228 21.8556 9601.49 9794.08 115.40
5229 21.8593 9653.42 9794.19 113.72
5230 21.8631 9517.60 9794.31 112.00
5231 21.8668 9596.14 9794.46 112.48
5232 21.8706 9408.61 9794.63 109.72
5233 21.8744 9574.99 9794.83 112.86
5234 21.8781 9587.16 9795.05 111.88
5235 21.8819 9782.18 9795.29 114.15
5236 21.8856 9439.51 9795.56 111.51
5237 21.8894 9749.15 9795.85 114.49
5238 21.8931 9346.19 9796.16 112.15
5239 21.8969 9458.18 9796.51 112.19
5240 21.9006 9390.88 9796.87 111.89
5241 21.9044 9578.23 9797.27 113.43
5242 21.9082 9336.99 9797.70 110.99
5243 21.9119 9529.08 9798.14 114.11
5244 21.9157 9594.58 9798.62 113.41
5245 21.9194 9712.07 9799.12 114.50
5246 21.9232 9413.35 9799.65 111.73
5247 21.9269 9617.34 9800.21 113.78
5248 21.9307 9437.83 9800.80 113.77
5249 21.9344 9653.55 9801.41 113.68
5250 21.9382 9354.08 9802.07 111.83
5251 21.9419 9360.66 9802.74 112.01
5252 21.9457 9470.37 9803.46 113.65
5253 21.9495 9647.97 9804.22 112.91
5254 21.9532 9510.89 9804.98 112.72
5255 21.9570 9622.33 9805.80 114.54
5256 21.9607 9395.02 9806.63 112.77
5257 21.9645 9576.62 9807.52 112.52
5258 21.9682 9292.36 9808.41 111.33
5259 21.9720 9623.77 9809.37 114.57
5260 21.9757 9316.76 9810.34 111.37
5261 21.9795 9500.32 9811.36 112.11
5262 21.9832 9388.68 9812.40 112.06
5263 21.9853 9658.56 9813.01 115.65
5264 21.9891 9434.07 9814.14 113.86
5265 21.9928 9516.40 9815.27 113.60
5266 21.9966 9433.83 9816.48 113.81
5267 22.0004 9609.40 9817.73 115.46
5268 22.0041 9356.28 9818.98 112.44
5269 22.0079 9504.44 9820.31 110.87
5270 22.0116 9474.47 9821.64 114.81
5271 22.0154 9579.81 9823.06 114.60
5272 22.0191 9481.10 9824.48 112.84
5273 22.0229 9484.46 9825.99 109.29
5274 22.0266 9509.95 9827.49 112.72
5275 22.0304 9512.48 9829.09 112.69
5276 22.0342 9312.22 9830.74 111.23
5277 22.0379 9414.50 9832.39 111.28
5278 22.0417 9447.32 9834.13 111.96
5279 22.0454 9762.42 9835.87 114.54
5280 22.0492 9483.13 9837.72 113.28
5281 22.0529 9647.23 9839.56 112.08
5282 22.0567 9276.18 9841.51 110.86
5283 22.0605 9756.62 9843.51 113.96
5284 22.0642 9463.96 9845.52 112.89
5285 22.0680 9697.80 9847.63 114.22
5286 22.0717 9328.99 9849.74 110.53
5287 22.0755 9503.99 9851.97 112.76
5288 22.0792 9326.82 9854.20 111.43
5289 22.0830 9625.94 9856.55 112.52
5290 22.0868 9407.66 9858.96 111.85
5291 22.0905 9632.52 9861.37 113.54
5292 22.0943 9468.18 9863.91 112.84
5293 22.0980 9543.76 9866.44 112.39
5294 22.1018 9441.02 9869.11 112.95
5295 22.1055 9567.40 9871.78 113.03
5296 22.1093 9372.46 9874.59 111.55
5297 22.1130 9694.88 9877.39 113.69
5298 22.1168 9397.80 9880.34 111.53
5299 22.1206 9670.27 9883.36 113.60
5300 22.1243 9621.00 9886.38 113.32
5301 22.1281 9559.60 9889.56 111.85
5302 22.1318 9428.94 9892.73 113.37
5303 22.1356 9495.20 9896.06 111.82
5304 22.1393 9535.61 9899.39 113.82
5305 22.1431 9688.47 9902.88 113.92
5306 22.1469 9536.86 9906.47 111.10
5307 22.1506 9792.99 9910.05 114.14
5308 22.1544 9450.67 9913.81 111.07
5309 22.1581 9650.19 9917.56 113.92
5310 22.1619 9435.68 9921.50 112.26
5311 22.1656 9635.82 9925.43 113.53
5312 22.1694 9612.99 9929.57 113.17
5313 22.1731 9672.57 9933.75 114.65
5314 22.1769 9473.42 9938.09 112.79
5315 22.1807 9720.33 9942.53 115.01
5316 22.1844 9595.35 9946.95 111.95
5317 22.1882 9740.93 9951.60 113.69
5318 22.1919 9612.12 9956.24 114.10
5319 22.1957 9548.44 9961.11 112.09
5320 22.1994 9586.30 9965.97 113.73
5321 22.2032 9775.17 9971.08 115.15
5322 22.2069 9636.85 9976.16 111.99
5323 22.2107 9507.45 9981.51 111.57
5324 22.2145 9396.59 9987.00 111.42
5325 22.2182 9722.21 9992.45 114.56
5326 22.2194 9460.65 9994.25 110.42
5327 22.2231 9839.25 9999.88 113.69
5328 22.2269 9521.69 10005.80 111.23
5329 22.2306 9709.11 10011.70 112.98
5330 22.2344 9402.37 10017.90 111.54
5331 22.2381 9777.17 10024.10 112.92
5332 22.2419 9753.67 10030.60 114.06
5333 22.2456 9714.42 10037.00 113.12
5334 22.2494 9560.97 10043.80 110.96
5335 22.2532 9728.62 10050.80 113.40
5336 22.2569 9448.44 10057.80 112.03
5337 22.2607 9907.75 10065.10 113.43
5338 22.2644 9792.12 10072.30 113.41
5339 22.2682 9827.31 10080.00 113.48
5340 22.2719 9691.32 10083.70 113.12
5341 22.2757 9797.26 10091.70 114.63
5342 22.2794 9611.96 10099.70 112.60
5343 22.2832 9765.07 10108.10 113.22
5344 22.2869 9701.81 10116.60 113.75
5345 22.2907 9816.96 10125.40 112.37
5346 22.2945 9744.19 10134.50 113.50
5347 22.2982 9933.03 10143.50 115.13
5348 22.3020 9746.26 10153.00 113.96
5349 22.3057 9944.03 10162.50 114.46
5350 22.3095 9844.48 10172.50 114.23
5351 22.3132 9855.55 10182.50 114.76
5352 22.3170 9911.25 10192.90 114.19
5353 22.3207 9908.94 10203.40 113.47
5354 22.3245 9785.99 10214.50 114.31
5355 22.3282 10106.00 10225.50 116.81
5356 22.3320 9871.29 10237.10 115.53
5357 22.3358 9927.45 10249.00 114.91
5358 22.3395 9839.71 10260.90 113.52
5359 22.3433 9990.69 10273.50 114.42
5360 22.3470 10031.20 10286.00 115.74
5361 22.3508 10292.20 10299.30 117.71
5362 22.3545 10019.30 10312.50 114.30
5363 22.3583 10187.00 10326.50 117.34
5364 22.3620 10027.50 10340.50 115.68
5365 22.3658 10299.80 10355.30 118.14
5366 22.3696 9975.48 10370.50 115.18
5367 22.3733 10011.60 10385.80 115.75
5368 22.3771 10207.50 10402.00 116.18
5369 22.3808 10208.30 10418.20 115.08
5370 22.3846 10154.10 10435.30 115.26
5371 22.3883 10445.70 10452.60 119.54
5372 22.3921 10202.90 10470.80 116.99
5373 22.3958 10414.90 10489.20 117.52
5374 22.3996 10445.30 10508.70 119.36
5375 22.4033 10495.30 10528.40 119.66
5376 22.4071 10335.80 10549.20 117.47
5377 22.4109 10604.20 10570.90 119.68
5378 22.4146 10344.30 10592.70 117.69
5379 22.4184 10849.50 10615.90 121.09
5380 22.4221 10684.40 10639.40 117.07
5381 22.4259 10717.20 10664.50 119.51
5382 22.4296 10689.70 10689.90 120.47
5383 22.4334 10999.10 10717.00 122.20
5384 22.4371 10838.30 10744.60 121.61
5385 22.4409 11100.90 10774.00 121.75
5386 22.4447 11023.40 10804.70 120.82
5387 22.4484 11204.90 10836.00 123.11
5388 22.4522 11223.40 10869.50 122.38
5389 22.4559 11423.70 10903.70 124.21
5390 22.4597 11293.20 10940.50 124.63
5391 22.4634 11693.40 10977.90 126.28
5392 22.4672 11563.40 11018.30 124.44
5393 22.4709 11548.20 11059.60 125.50
5394 22.4747 11708.10 11104.10 125.99
5395 22.4785 12096.70 11150.80 128.60
5396 22.4822 12055.70 11198.80 128.99
5397 22.4860 12324.10 11250.50 130.44
5398 22.4897 12034.10 11303.60 129.09
5399 22.4935 12703.80 11361.10 132.60
5400 22.4972 12368.70 11420.00 130.01
5401 22.5010 12737.40 11484.00 132.29
5402 22.5047 12886.00 11549.60 132.46
5403 22.5085 13017.50 11620.70 131.99
5404 22.5123 13191.10 11695.80 135.29
5405 22.5160 13452.10 11773.10 137.22
5406 22.5198 13389.80 11856.90 137.76
5407 22.5235 14046.50 11943.10 140.60
5408 22.5273 13770.50 12036.50 140.40
5409 22.5310 14245.10 12132.70 140.60
5410 22.5348 14136.30 12237.10 140.05
5411 22.5385 14928.90 12344.40 146.86
5412 22.5423 14635.20 12460.80 143.47
5413 22.5461 15295.00 12583.70 147.08
5414 22.5498 15372.80 12710.10 147.41
5415 22.5536 15753.70 12847.10 150.91
5416 22.5573 15853.30 12987.80 150.58
5417 22.5611 16617.90 13140.20 155.84
5418 22.5648 16803.10 13296.50 157.61
5419 22.5686 17180.00 13465.70 157.36
5420 22.5724 17393.90 13643.90 159.33
5421 22.5761 17920.70 13826.60 160.70
5422 22.5799 17837.50 14023.80 163.13
5423 22.5836 18601.80 14225.60 165.70
5424 22.5874 18751.10 14443.20 167.22
5425 22.5911 19277.80 14665.70 169.92
5426 22.5949 19352.00 14905.10 171.57
5427 22.5986 19880.40 15149.50 171.65
5428 22.6024 20207.50 15412.30 173.97
5429 22.6062 21098.10 15687.40 179.52
5430 22.6099 21213.40 15967.30 179.42
5431 22.6137 22154.60 16267.40 184.90
5432 22.6174 22000.60 16572.30 183.30
5433 22.6212 22893.60 16898.70 188.46
5434 22.6249 22746.30 17229.60 187.54
5435 22.6287 23370.40 17582.90 191.50
5436 22.6324 23581.10 17940.50 190.20
5437 22.6362 24237.40 18321.60 191.85
5438 22.6400 24176.80 18717.00 191.84
5439 22.6437 24687.90 19115.60 195.25
5440 22.6475 24778.80 19539.40 196.27
5441 22.6512 25307.40 19965.60 199.18
5442 22.6550 25109.10 20417.40 197.91
5443 22.6587 26147.80 20871.00 202.58
5444 22.6625 25526.70 21350.50 200.97
5445 22.6663 26490.90 21843.80 205.51
5446 22.6700 25987.30 22337.30 202.82
5447 22.6738 26621.80 22857.30 206.46
5448 22.6775 26323.00 23375.60 208.61
5449 22.6813 26308.60 23920.70 202.74
5450 22.6850 25886.40 24462.60 201.57
5451 22.6888 26480.60 25030.20 201.74
5452 22.6926 26145.30 25608.40 204.85
5453 22.6963 26387.10 26181.20 204.25
5454 22.7001 25882.30 26778.30 203.38
5455 22.7038 26523.70 27367.80 204.77
5456 22.7076 25550.60 27980.30 201.53
5457 22.7113 25660.50 28582.80 198.74
5458 22.7151 25129.90 29206.90 198.87
5459 22.7188 25397.40 29818.00 200.50
5460 22.7226 24631.80 30448.50 195.71
5461 22.7264 25014.00 31080.00 196.85
5462 22.7301 24151.60 31694.60 192.51
5463 22.7339 25104.10 32323.80 198.49
5464 22.7376 24573.90 32933.10 197.17
5465 22.7414 25196.20 33553.30 199.94
5466 22.7451 24804.90 34150.20 197.63
5467 22.7489 25103.00 34754.30 196.29
5468 22.7527 25161.10 35346.20 199.27
5469 22.7564 26310.00 35909.50 204.84
5470 22.7602 26496.90 36472.00 204.80
5471 22.7639 27383.20 37002.10 208.12
5472 22.7677 28805.80 37525.70 215.99
5473 22.7714 31227.20 38013.40 226.20
5474 22.7752 33047.80 38488.60 232.89
5475 22.7790 37218.60 38935.80 252.30
5476 22.7827 42774.20 39341.40 276.83
5477 22.7865 50461.00 39725.60 305.85
5478 22.7902 58936.00 40065.60 331.42
5479 22.7940 70214.10 40377.80 374.18
5480 22.7977 78878.40 40643.90 399.59
5481 22.8015 88662.30 40876.50 442.84
5482 22.8053 90761.60 41066.30 444.04
5483 22.8090 91359.10 41208.60 453.38
5484 22.8128 84980.40 41310.20 423.15
5485 22.8165 81176.60 41365.00 415.04
5486 22.8203 73170.90 41375.60 384.68
5487 22.8240 68834.90 41341.40 375.79
5488 22.8278 61493.10 41260.70 345.18
5489 22.8316 58713.70 41134.40 334.82
5490 22.8353 53901.30 40968.50 319.82
5491 22.8391 51864.30 40755.10 312.00
5492 22.8428 47439.00 40506.80 291.38
5493 22.8466 46033.70 40212.00 286.51
5494 22.8503 43370.00 39887.80 280.17
5495 22.8541 41859.40 39518.60 266.19
5496 22.8579 39204.60 39115.40 260.63
5497 22.8616 38248.80 38691.90 252.39
5498 22.8654 36335.20 38227.70 247.46
5499 22.8691 35171.40 37749.80 241.75
5500 22.8729 33701.40 37234.70 240.05
5501 22.8766 33321.70 36711.80 236.18
5502 22.8804 31896.10 36155.30 227.73
5503 22.8842 31702.70 35581.30 229.01
5504 22.8879 29958.60 35008.00 220.33
5505 22.8917 29810.70 34406.90 217.92
5506 22.8954 28769.00 33811.20 212.93
5507 22.8992 28561.40 33191.20 212.91
5508 22.9029 27293.10 32581.10 208.62
5509 22.9067 27668.70 31950.10 208.83
5510 22.9105 26298.40 31316.00 204.18
5511 22.9142 26217.40 30697.80 202.91
5512 22.9180 25617.80 30062.80 201.52
5513 22.9217 25370.70 29446.50 198.81
5514 22.9255 24403.80 28816.70 197.13
5515 22.9292 24760.80 28207.80 197.96
5516 22.9330 23637.80 27588.30 191.48
5517 22.9368 23873.70 26975.50 193.36
5518 22.9405 22977.80 26386.20 184.10
5519 22.9443 22951.40 25789.70 189.38
5520 22.9480 22278.50 25218.00 184.22
5521 22.9518 21989.30 24640.80 184.19
5522 22.9555 21606.70 24089.80 181.95
5523 22.9593 21661.80 23534.90 183.44
5524 22.9631 20728.30 22992.40 176.53
5525 22.9668 20925.80 22476.30 179.04
5526 22.9706 20398.50 21959.10 175.01
5527 22.9743 20349.00 21468.30 175.08
5528 22.9781 19648.00 20977.80 170.71
5529 22.9819 19549.00 20500.80 172.38
5530 22.9856 19139.90 20050.20 170.73
5531 22.9894 19057.70 19601.60 167.47
5532 22.9931 18308.40 19178.40 164.35
5533 22.9969 18627.80 18758.10 166.98
5534 23.0006 17858.00 18362.40 160.40
5535 23.0044 18251.10 17970.30 164.01
5536 23.0082 17892.10 17592.30 161.84
5537 23.0119 17914.10 17237.80 163.93
5538 23.0157 17271.80 16887.30 159.35
5539 23.0194 17460.40 16559.40 160.12
5540 23.0232 16889.90 16235.80 156.78
5541 23.0269 17191.90 15933.60 159.68
5542 23.0307 16628.50 15636.10 154.24
5543 23.0345 16753.50 15351.30 156.51
5544 23.0382 16151.00 15086.00 154.70
5545 23.0420 16325.80 14825.40 152.30
5546 23.0457 15901.90 14583.00 150.66
5547 23.0495 16001.70 14345.20 151.85
5548 23.0533 15596.90 14118.70 151.04
5549 23.0570 15941.50 13908.40 152.27
5550 23.0608 15185.70 13702.70 146.69
5551 23.0645 15427.70 13512.00 150.47
5552 23.0683 15230.90 13325.70 148.73
5553 23.0720 15577.90 13153.20 150.73
5554 23.0758 14772.30 12984.80 143.05
5555 23.0796 15069.60 12824.90 146.81
5556 23.0833 14699.50 12677.10 145.46
5557 23.0871 14649.50 12533.00 144.08
5558 23.0908 14566.00 12399.80 145.27
5559 23.0946 14481.20 12270.10 145.00
5560 23.0983 14210.20 12150.20 142.06
5561 23.1021 14409.80 12033.50 143.59
5562 23.1059 14085.90 11922.90 141.48
5563 23.1096 14254.10 11820.80 144.80
5564 23.1134 13764.90 11721.30 138.25
5565 23.1171 13749.10 11629.60 140.05
5566 23.1209 13705.40 11540.10 140.43
5567 23.1247 13688.60 11455.30 141.11
5568 23.1284 13506.50 11377.00 138.11
5569 23.1322 13566.90 11300.70 140.68
5570 23.1359 13365.50 11230.10 137.86
5571 23.1397 13433.20 11161.30 139.33
5572 23.1434 13367.80 11097.60 137.73
5573 23.1472 13416.80 11035.40 139.46
5574 23.1510 13058.90 10976.20 135.97
5575 23.1547 13216.30 10921.40 137.44
5576 23.1585 12908.30 10867.80 136.32
5577 23.1622 13018.90 10818.00 137.35
5578 23.1660 12791.40 10769.30 136.15
5579 23.1698 12866.90 10722.80 135.56
5580 23.1735 12719.80 10679.50 135.88
5581 23.1773 12667.30 10637.00 136.09
5582 23.1810 12716.20 10597.40 134.53
5583 23.1848 12512.20 10558.40 130.31
5584 23.1885 12636.50 10522.00 133.69
5585 23.1923 12800.30 10486.20 132.97
5586 23.1961 12229.50 10451.80 132.78
5587 23.1998 12568.80 10419.60 133.35
5588 23.2036 12120.50 10387.70 131.59
5589 23.2073 12354.20 10357.90 132.60
5590 23.2111 12133.60 10328.30 129.62
5591 23.2149 12543.60 10299.80 135.01
5592 23.2186 12246.30 10273.00 132.39
5593 23.2224 12275.60 10246.40 132.88
5594 23.2261 11728.50 10221.30 128.14
5595 23.2299 12065.50 10196.40 130.91
5596 23.2336 12076.00 10172.80 131.79
5597 23.2374 12093.40 10149.40 133.10
5598 23.2412 11768.60 10126.70 129.57
5599 23.2449 11929.20 10105.20 130.41
5600 23.2487 11733.50 10083.80 127.29
5601 23.2524 11760.40 10063.50 128.24
5602 23.2562 11705.30 10043.20 128.73
5603 23.2600 11918.80 10023.50 130.49
5604 23.2637 11710.70 10004.80 130.24
5605 23.2675 11594.80 9986.02 129.90
5606 23.2712 11409.60 9968.21 127.16
5607 23.2750 11524.10 9950.38 125.17
5608 23.2788 11313.80 9932.95 127.10
5609 23.2825 11839.20 9916.38 130.74
5610 23.2863 11224.10 9899.75 126.46
5611 23.2900 11302.90 9883.92 125.34
5612 23.2938 11302.70 9868.01 127.34
5613 23.2975 11489.20 9852.85 127.93
5614 23.3013 11297.10 9837.61 126.26
5615 23.3051 11424.60 9822.67 125.64
5616 23.3088 10956.10 9808.42 123.00
5617 23.3126 11143.50 9794.06 125.11
5618 23.3163 11129.20 9780.35 125.21
5619 23.3201 11268.80 9766.52 126.00
5620 23.3239 11070.50 9752.96 125.88
5621 23.3276 10998.40 9739.98 124.14
5622 23.3314 11045.00 9726.87 124.12
5623 23.3351 11039.50 9714.33 121.97
5624 23.3389 10894.70 9701.65 123.12
5625 23.3427 10994.10 9689.17 123.67
5626 23.3464 10727.90 9677.21 122.47
5627 23.3502 10834.10 9665.12 123.50
5628 23.3539 10763.20 9653.51 123.27
5629 23.3577 10834.50 9641.75 124.31
5630 23.3614 10771.40 9630.46 123.42
5631 23.3652 10669.70 9619.02 121.90
5632 23.3690 10536.30 9607.73 120.06
5633 23.3727 10819.00 9596.87 124.21
5634 23.3765 10614.60 9585.86 121.99
5635 23.3802 10783.50 9575.26 123.10
5636 23.3840 10425.40 9564.51 120.65
5637 23.3878 10681.30 9553.88 122.69
5638 23.3915 10557.60 9543.64 121.37
5639 23.3953 10538.40 9533.25 121.58
5640 23.3990 10414.80 9523.23 121.05
5641 23.4028 10675.00 9513.06 121.97
5642 23.4066 10354.80 9502.99 119.99
5643 23.4103 10530.10 9493.29 120.54
5644 23.4141 10347.60 9483.44 119.85
5645 23.4178 10513.10 9473.94 121.54
5646 23.4216 10166.00 9464.29 117.85
5647 23.4253 10499.30 9454.99 120.90
5648 23.4291 10200.90 9445.54 119.82
5649 23.4329 10393.30 9436.19 122.00
5650 23.4366 10185.70 9427.18 120.10
5651 23.4404 10144.60 9418.02 120.23
5652 23.4441 10164.00 9409.20 118.80
5653 23.4479 10402.20 9400.25 120.10
5654 23.4517 10059.90 9391.38 119.63
5655 23.4554 10207.50 9382.84 118.90
5656 23.4592 10083.90 9374.17 118.28
5657 23.4629 10164.40 9365.82 117.29
5658 23.4667 9774.33 9357.34 115.34
5659 23.4705 10035.00 9348.95 118.20
5660 23.4742 10001.10 9340.87 118.44
5661 23.4780 10128.00 9332.68 115.69
5662 23.4817 9972.29 9324.78 116.15
5663 23.4855 10079.40 9316.77 118.36
5664 23.4893 9898.36 9308.85 115.59
5665 23.4930 9844.33 9301.23 117.39
5666 23.4968 9990.07 9293.49 117.44
5667 23.5005 9880.14 9286.04 115.69
5668 23.5043 9827.36 9278.48 114.55
5669 23.5081 9539.96 9271.01 113.57
5670 23.5118 9805.43 9263.83 116.34
5671 23.5156 9741.67 9256.53 115.99
5672 23.5193 9571.80 9249.51 113.94
5673 23.5231 10083.60 9242.38 118.73
5674 23.5269 9704.63 9235.34 115.45
5675 23.5306 9956.22 9228.58 119.10
5676 23.5344 9524.56 9221.70 114.65
5677 23.5381 9968.06 9215.09 117.00
5678 23.5419 9777.67 9208.38 117.35
5679 23.5456 9947.45 9201.92 117.66
5680 23.5494 9664.23 9195.37 115.19
5681 23.5532 9620.53 9188.90 113.67
5682 23.5569 9491.14 9182.67 114.53
5683 23.5607 9653.29 9176.35 114.94
5684 23.5644 9590.56 9170.21 115.36
5685 23.5682 9615.80 9164.03 115.83
5686 23.5720 9463.25 9157.93 114.35
5687 23.5757 9836.59 9152.06 117.40
5688 23.5795 9550.06 9146.11 114.08
5689 23.5832 9699.20 9140.38 114.23
5690 23.5870 9494.98 9134.56 114.91
5691 23.5908 9578.45 9128.81 116.20
5692 23.5945 9415.40 9123.28 114.94
5693 23.5983 9309.74 9117.67 112.87
5694 23.6020 9268.70 9112.26 112.57
5695 23.6058 9581.44 9106.77 115.26
5696 23.6096 9366.67 9101.35 113.21
5697 23.6133 9566.65 9096.13 115.27
5698 23.6171 9279.74 9090.84 112.31
5699 23.6208 9562.28 9085.73 112.05
5700 23.6246 9331.43 9080.55 113.33
5701 23.6284 9484.12 9075.43 115.06
5702 23.6321 9322.40 9070.50 113.86
5703 23.6359 9491.43 9065.50 114.10
5704 23.6396 9085.13 9060.67 111.07
5705 23.6434 9370.75 9055.78 111.77
5706 23.6472 9257.40 9050.94 109.65
5707 23.6509 9394.08 9046.28 111.90
5708 23.6547 9213.99 9041.55 110.47
5709 23.6584 9471.92 9036.99 111.34
5710 23.6622 9381.39 9032.36 111.31
5711 23.6660 9280.21 9027.78 109.79
5712 23.6697 9249.11 9023.37 109.55
5713 23.6735 9321.18 9018.89 111.03
5714 23.6772 9076.67 9014.58 109.75
5715 23.6810 9291.75 9010.20 111.31
5716 23.6848 9072.17 9005.87 108.01
5717 23.6885 9401.23 9001.69 111.98
5718 23.6923 9242.18 8997.46 110.21
5719 23.6960 9290.48 8993.38 111.56
5720 23.6998 9301.58 8989.23 110.27
5721 23.7036 9239.32 8985.14 110.84
5722 23.7073 9217.81 8981.19 109.68
5723 23.7111 9291.74 8977.19 110.11
5724 23.7148 9158.86 8973.33 109.55
5725 23.7186 9166.32 8969.41 109.78
5726 23.7224 9161.71 8965.54 110.36
5727 23.7261 9212.66 8961.81 111.92
5728 23.7299 8968.30 8958.03 107.45
5729 23.7336 9144.59 8954.39 108.66
5730 23.7374 9028.95 8950.70 109.89
5731 23.7411 9112.89 8947.15 110.07
5732 23.7449 9069.99 8943.54 110.09
5733 23.7487 9204.02 8939.98 110.43
5734 23.7524 9188.41 8936.56 109.33
5735 23.7562 9072.72 8933.09 109.83
5736 23.7600 9086.93 8929.67 109.35
5737 23.7637 9168.00 8926.38 109.37
5738 23.7675 9056.45 8923.04 108.75
5739 23.7712 9108.82 8919.88 109.85
5740 23.7750 9073.15 8916.64 109.17
5741 23.7787 9211.93 8913.53 109.89
5742 23.7825 8947.37 8910.38 108.79
5743 23.7863 9181.25 8907.27 109.04
5744 23.7900 9034.28 8904.30 109.74
5745 23.7938 9107.80 8901.29 110.60
5746 23.7975 8797.91 8898.41 107.40
5747 23.8013 9190.54 8895.49 110.96
5748 23.8051 8970.65 8892.62 108.12
5749 23.8088 9005.91 8889.88 108.99
5750 23.8126 9050.44 8887.12 110.04
5751 23.8163 9042.37 8884.47 109.57
5752 23.8201 8967.08 8881.80 109.07
5753 23.8239 9119.73 8879.18 110.26
5754 23.8276 8850.97 8876.68 108.88
5755 23.8314 9279.37 8874.16 111.79
5756 23.8351 9043.66 8871.76 109.46
5757 23.8389 9188.53 8869.34 110.29
5758 23.8427 9032.04 8866.97 109.41
5759 23.8464 9106.20 8864.72 110.03
5760 23.8502 8923.41 8862.46 109.37
5761 23.8539 8965.16 8860.30 108.49
5762 23.8577 8853.89 8858.14 108.05
5763 23.8615 9052.84 8856.03 109.38
5764 23.8652 8781.74 8854.03 107.31
5765 23.8690 8942.50 8852.02 108.62
5766 23.8728 8929.65 8850.06 108.26
5767 23.8765 9080.36 8848.21 110.73
5768 23.8803 8664.18 8846.36 106.87
5769 23.8840 9022.35 8844.60 108.62
5770 23.8878 8681.67 8842.85 105.74
5771 23.8916 9049.98 8841.15 96.19
5772 23.8991 8827.18 8837.92 96.82
5773 23.9028 8930.14 8836.41 108.49
5774 23.9066 8996.37 8834.89 109.50
5775 23.9104 8869.73 8833.42 107.77
5776 23.9141 9025.74 8832.03 108.82
5777 23.9179 8963.23 8830.65 109.18
5778 23.9216 8914.35 8829.35 109.14
5779 23.9254 8800.27 8828.05 107.97
5780 23.9292 9034.07 8826.79 108.44
5781 23.9329 8819.84 8825.59 107.86
5782 23.9367 9124.18 8824.40 110.07
5783 23.9404 8867.08 8823.27 108.82
5784 23.9442 8993.52 8822.15 109.31
5785 23.9480 8655.91 8821.05 106.79
5786 23.9517 9129.68 8820.00 109.43
5787 23.9555 8739.27 8818.95 107.22
5788 23.9592 9143.67 8817.95 110.11
5789 23.9630 8778.62 8816.93 108.13
5790 23.9668 8999.93 8815.94 108.59
5791 23.9705 8942.68 8814.97 108.27
5792 23.9743 9000.91 8813.99 108.40
5793 23.9780 8721.57 8813.04 107.46
5794 23.9818 9134.73 8812.05 109.22
5795 23.9856 9030.77 8811.06 110.66
5796 23.9893 9113.29 8810.09 108.59
5797 23.9931 8938.95 8809.07 108.64
5798 23.9968 9018.58 8808.07 107.90
5799 24.0006 8809.41 8807.00 107.30
5800 24.0044 9077.39 8805.91 110.00
5801 24.0081 8917.67 8804.81 108.50
5802 24.0119 9061.78 8803.64 108.87
5803 24.0156 8992.39 8802.46 110.48
5804 24.0194 9047.75 8801.19 108.75
5805 24.0232 9088.10 8799.86 109.68
5806 24.0269 9344.29 8799.23 112.48
5807 24.0307 9032.72 8797.77 109.37
5808 24.0344 9127.44 8796.28 110.48
5809 24.0382 9093.87 8794.67 111.34
5810 24.0420 9258.12 8792.97 110.71
5811 24.0457 9186.92 8791.23 110.55
5812 24.0495 9292.59 8789.36 110.95
5813 24.0532 9217.04 8787.44 111.76
5814 24.0570 9437.05 8785.37 112.60
5815 24.0608 9182.39 8783.20 111.38
5816 24.0645 9175.06 8780.99 110.68
5817 24.0683 9007.04 8778.62 108.25
5818 24.0720 9269.09 8776.21 110.99
5819 24.0758 9035.99 8773.63 109.73
5820 24.0796 9288.78 8770.95 111.25
5821 24.0833 9071.34 8768.24 110.44
5822 24.0871 9391.82 8765.36 112.86
5823 24.0908 8969.74 8762.46 109.86
5824 24.0946 9311.70 8759.40 111.43
5825 24.0984 9067.04 8756.25 109.54
5826 24.1021 9223.94 8753.09 110.68
5827 24.1059 8986.11 8749.77 109.09
5828 24.1096 9373.62 8746.47 112.06
5829 24.1134 9042.61 8743.00 109.82
5830 24.1172 9238.63 8739.48 110.58
5831 24.1209 9099.11 8735.98 111.27
5832 24.1247 9237.58 8732.34 107.02
5833 24.1284 8907.57 8728.75 104.98
5834 24.1322 9272.08 8725.02 107.43
5835 24.1360 9057.38 8721.24 107.19
5836 24.1397 9192.76 8717.54 105.82
5837 24.1435 8970.37 8713.70 105.96
5838 24.1473 9332.58 8709.85 108.47
5839 24.1510 8875.52 8706.08 105.23
5840 24.1548 9036.25 8702.20 106.69
5841 24.1585 9014.45 8698.41 106.86
5842 24.1623 9020.21 8694.51 105.78
5843 24.1661 9060.22 8690.61 107.01
5844 24.1698 8911.33 8686.83 105.23
5845 24.1736 8894.31 8682.95 104.43
5846 24.1773 8913.58 8679.17 105.69
5847 24.1811 8915.15 8675.32 105.65
5848 24.1849 8934.56 8671.48 105.04
5849 24.1886 8711.61 8667.76 104.86
5850 24.1924 8884.86 8663.96 105.93
5851 24.1961 8775.75 8660.29 104.46
5852 24.1999 8898.77 8656.55 106.39
5853 24.2037 8855.56 8652.84 105.46
5854 24.2074 9092.84 8649.25 106.42
5855 24.2112 8583.60 8645.61 103.63
5856 24.2149 8938.96 8642.09 106.65
5857 24.2187 8817.86 8638.52 104.99
5858 24.2225 8741.74 8634.99 105.49
5859 24.2262 8813.24 8631.59 104.93
5860 24.2300 8671.12 8628.28 103.81
5861 24.2337 8795.28 8625.10 104.34
5862 24.2375 8548.79 8621.87 103.65
5863 24.2413 8697.40 8618.70 104.43
5864 24.2450 8742.68 8615.64 105.24
5865 24.2488 8612.01 8612.55 105.01
5866 24.2525 8840.77 8609.59 106.08
5867 24.2563 8660.00 8606.59 104.61
5868 24.2601 8863.70 8603.64 106.17
5869 24.2638 8682.04 8600.81 105.06
5870 24.2676 8707.22 8597.96 102.56
5871 24.2714 8554.72 8595.15 103.54
5872 24.2751 8643.85 8592.46 104.32
5873 24.2789 8521.62 8589.75 103.94
5874 24.2826 8595.67 8587.16 103.03
5875 24.2864 8377.67 8584.54 102.61
5876 24.2902 8677.65 8581.97 105.52
5877 24.2939 8578.13 8579.52 103.94
5878 24.2977 8536.95 8577.05 102.66
5879 24.3014 8542.82 8574.68 103.77
5880 24.3052 8563.43 8572.30 103.03
5881 24.3090 8331.04 8569.97 102.08
5882 24.3127 8595.17 8567.75 104.26
5883 24.3165 8436.82 8565.51 101.86
5884 24.3202 8624.11 8563.37 103.24
5885 24.3240 8356.97 8561.23 102.56
5886 24.3278 8602.08 8559.13 103.77
5887 24.3315 8395.22 8557.13 102.82
5888 24.3353 8401.31 8555.11 103.21
5889 24.3390 8450.13 8553.20 103.46
5890 24.3428 8405.53 8551.27 103.45
5891 24.3466 8382.94 8549.40 101.60
5892 24.3503 8599.65 8547.61 103.14
5893 24.3541 8340.69 8545.82 102.92
5894 24.3578 8549.40 8544.11 103.90
5895 24.3616 8400.65 8542.41 103.17
5896 24.3654 8541.83 8540.75 103.28
5897 24.3691 8270.78 8539.17 101.71
5898 24.3729 8542.75 8537.60 103.57
5899 24.3766 8413.38 8536.11 103.24
5900 24.3804 8505.05 8534.61 103.51
5901 24.3842 8288.51 8533.17 102.63
5902 24.3879 8493.13 8531.80 103.07
5903 24.3917 8495.23 8530.44 103.44
5904 24.3955 8612.21 8529.12 103.54
5905 24.3992 8236.34 8527.88 101.84
5906 24.4030 8474.74 8526.66 103.27
5907 24.4067 8288.64 8525.50 102.72
5908 24.4105 8596.66 8524.36 104.49
5909 24.4143 8395.02 8523.27 103.44
5910 24.4180 8538.34 8522.26 102.94
5911 24.4218 8359.11 8521.26 102.89
5912 24.4255 8551.26 8520.34 103.42
5913 24.4293 8305.78 8519.45 101.25
5914 24.4331 8255.93 8518.60 101.37
5915 24.4368 8257.38 8517.83 102.60
5916 24.4406 8518.90 8517.07 104.38
5917 24.4443 8287.79 8516.41 101.87
5918 24.4481 8443.46 8515.79 103.20
5919 24.4519 8295.70 8515.23 101.66
5920 24.4556 8431.92 8514.75 103.11
5921 24.4594 8260.88 8514.32 102.20
5922 24.4631 8285.69 8513.97 102.47
5923 24.4669 8264.29 8513.68 101.93
5924 24.4707 8550.73 8513.46 103.49
5925 24.4744 8328.24 8513.33 102.21
5926 24.4782 8533.98 8513.28 103.06
5927 24.4819 8237.91 8513.31 102.31
5928 24.4857 8314.16 8513.43 102.05
5929 24.4895 8185.67 8513.64 101.83
5930 24.4932 8514.91 8513.95 103.57
5931 24.4970 8363.71 8514.37 101.21
5932 24.5008 8406.36 8514.91 104.53
5933 24.5045 8115.20 8515.54 101.07
5934 24.5083 8506.61 8516.31 104.24
5935 24.5120 8245.79 8517.19 101.54
5936 24.5158 8310.42 8518.22 101.30
5937 24.5196 8251.88 8519.41 102.42
5938 24.5233 8397.99 8520.71 103.94
5939 24.5271 8073.17 8522.20 100.85
5940 24.5308 8252.04 8523.82 101.94
5941 24.5346 8229.61 8525.66 102.28
5942 24.5384 8309.09 8527.69 102.71
5943 24.5421 8137.53 8529.87 101.02
5944 24.5459 8493.50 8532.30 103.40
5945 24.5496 8407.53 8534.89 102.45
5946 24.5534 8434.88 8537.78 102.83
5947 24.5572 8274.42 8540.92 101.52
5948 24.5609 8442.22 8544.22 103.61
5949 24.5647 8200.60 8547.89 101.49
5950 24.5684 8300.68 8551.73 101.88
5951 24.5722 8270.78 8555.98 101.60
5952 24.5760 8307.25 8560.54 103.63
5953 24.5797 8289.64 8565.30 101.88
5954 24.5835 8238.00 8570.53 101.71
5955 24.5872 8277.59 8575.98 102.38
5956 24.5910 8341.17 8581.95 103.88
5957 24.5948 7952.38 8588.32 100.21
5958 24.5985 8423.31 8594.92 103.21
5959 24.6023 8134.68 8602.12 101.85
5960 24.6061 8287.17 8609.78 106.54
5961 24.6098 8418.51 8617.68 105.26
5962 24.6136 8293.22 8626.29 104.03
5963 24.6173 8411.43 8635.16 105.69
5964 24.6211 8406.74 8644.78 105.10
5965 24.6249 8248.34 8654.96 102.92
5966 24.6286 8525.75 8665.41 105.70
5967 24.6324 8228.50 8676.71 103.19
5968 24.6361 8273.13 8688.31 102.53
5969 24.6399 8099.11 8700.82 102.97
5970 24.6437 8349.20 8713.98 104.71
5971 24.6474 8219.54 8727.43 103.30
5972 24.6512 8372.39 8741.92 104.49
5973 24.6549 8338.67 8756.68 105.24
5974 24.6587 8426.01 8772.56 104.26
5975 24.6625 8306.05 8789.16 104.23
5976 24.6662 8254.40 8806.04 103.74
5977 24.6700 8194.90 8824.12 102.86
5978 24.6737 8444.43 8842.47 105.89
5979 24.6775 8358.30 8862.08 104.82
5980 24.6813 8412.05 8882.51 106.12
5981 24.6850 8329.30 8903.16 104.18
5982 24.6888 8313.40 8925.18 105.15
5983 24.6925 8166.91 8947.41 103.68
5984 24.6963 8508.29 8971.06 106.85
5985 24.7001 8285.12 8995.54 104.48
5986 24.7038 8295.16 9020.18 103.89
5987 24.7076 8584.21 9046.31 105.49
5988 24.7114 8454.30 9073.30 105.83
5989 24.7151 8392.83 9100.36 104.69
5990 24.7189 8399.10 9128.96 104.87
5991 24.7226 8579.46 9157.61 107.26
5992 24.7264 8554.15 9187.81 106.76
5993 24.7302 8376.60 9218.81 104.86
5994 24.7339 8481.33 9249.75 105.65
5995 24.7377 8437.43 9282.27 104.91
5996 24.7414 8530.48 9314.64 107.53
5997 24.7452 8541.78 9348.61 107.13
5998 24.7490 8619.89 9383.24 107.61
5999 24.7527 8288.35 9417.61 105.57
6000 24.7565 8471.93 9453.51 105.88
6001 24.7602 8518.83 9489.04 105.19
6002 24.7640 8474.10 9526.05 105.08
6003 24.7678 8384.24 9563.60 104.64
6004 24.7715 8802.87 9600.56 107.75
6005 24.7753 8597.20 9638.93 105.08
6006 24.7790 8786.80 9676.61 107.80
6007 24.7828 8603.55 9715.58 107.07
6008 24.7866 8574.47 9754.78 106.23
6009 24.7903 8674.24 9793.09 107.30
6010 24.7941 8653.38 9832.50 107.45
6011 24.7978 8726.88 9870.86 106.49
6012 24.8016 8895.45 9910.19 108.83
6013 24.8054 8765.12 9949.32 106.90
6014 24.8091 8979.17 9987.17 108.53
6015 24.8129 8846.21 10025.70 107.92
6016 24.8167 9119.42 10063.70 110.58
6017 24.8204 8761.58 10100.20 108.17
6018 24.8242 9108.56 10136.90 109.84
6019 24.8279 8807.74 10172.00 107.30
6020 24.8317 9131.99 10207.00 110.22
6021 24.8355 8936.63 10241.00 108.35
6022 24.8392 9214.56 10273.00 112.00
6023 24.8430 9161.45 10304.50 109.97
6024 24.8467 9263.40 10333.80 111.71
6025 24.8505 9248.59 10362.40 111.49
6026 24.8543 9672.86 10389.30 113.71
6027 24.8580 9388.46 10413.70 111.73
6028 24.8618 10106.70 10436.90 115.18
6029 24.8655 10307.70 10457.40 119.99
6030 24.8693 11124.00 10476.40 123.86
6031 24.8731 11533.10 10493.10 125.89
6032 24.8768 12201.20 10507.00 129.60
6033 24.8806 12882.90 10518.90 136.25
6034 24.8843 12805.40 10528.10 132.78
6035 24.8881 12634.00 10534.90 131.65
6036 24.8919 12764.00 10539.10 132.40
6037 24.8956 12280.50 10540.60 130.94
6038 24.8994 12173.90 10539.40 130.41
6039 24.9031 11902.10 10535.70 126.92
6040 24.9069 12141.70 10529.20 128.93
6041 24.9107 11552.90 10520.10 124.43
6042 24.9144 11720.30 10508.70 126.65
6043 24.9182 11642.10 10494.40 126.17
6044 24.9219 11811.40 10478.10 127.64
6045 24.9257 11361.20 10458.90 125.48
6046 24.9295 11406.90 10437.40 123.10
6047 24.9332 11355.80 10414.40 123.98
6048 24.9370 11579.70 10388.60 125.86
6049 24.9408 11138.00 10360.80 123.66
6050 24.9445 11656.10 10331.90 127.45
6051 24.9483 11120.90 10300.50 122.48
6052 24.9520 11080.90 10268.40 122.48
6053 24.9558 11159.90 10233.90 123.48
6054 24.9596 11303.70 10198.10 124.14
6055 24.9633 10981.70 10162.00 121.12
6056 24.9671 11033.10 10123.80 122.80
6057 24.9708 10811.20 10085.70 120.31
6058 24.9746 11094.00 10045.60 122.80
6059 24.9784 10801.70 10004.80 122.92
6060 24.9821 11057.10 9964.53 123.34
6061 24.9859 10797.10 9922.59 120.44
6062 24.9896 10835.00 9881.35 122.23
6063 24.9934 10525.40 9838.70 118.93
6064 24.9972 10542.00 9795.81 120.38
6065 25.0009 10277.50 9753.92 117.06
6066 25.0047 10514.60 9710.86 119.14
6067 25.0084 10448.80 9668.96 117.36
6068 25.0122 10419.00 9626.02 118.82
6069 25.0160 10058.40 9583.28 115.04
6070 25.0197 10300.60 9541.91 117.49
6071 25.0235 10092.70 9499.73 115.33
6072 25.0272 10318.50 9459.00 117.65
6073 25.0310 10177.60 9417.61 117.18
6074 25.0348 10040.10 9376.68 117.18
6075 25.0385 9895.21 9337.36 114.51
6076 25.0423 10116.20 9297.49 115.82
6077 25.0460 9885.87 9259.28 115.41
6078 25.0498 9910.81 9220.67 114.80
6079 25.0536 9555.81 9182.74 112.75
6080 25.0573 9816.38 9146.48 113.38
6081 25.0611 9598.05 9109.96 112.84
6082 25.0648 9891.11 9075.13 115.62
6083 25.0686 9436.63 9040.12 113.19
6084 25.0724 9647.68 9005.88 113.78
6085 25.0761 9282.52 8973.33 110.43
6086 25.0799 9745.76 8940.71 114.55
6087 25.0837 9413.79 8908.92 112.09
6088 25.0874 9385.23 8878.76 111.98
6089 25.0912 9294.01 8848.61 110.45
6090 25.0949 9561.35 8820.06 112.07
6091 25.0987 9330.98 8791.56 111.03
6092 25.1025 9448.16 8763.91 111.96
6093 25.1062 9269.22 8737.80 109.87
6094 25.1100 9275.08 8711.80 109.60
6095 25.1137 9127.59 8687.28 107.98
6096 25.1175 9329.90 8662.90 110.22
6097 25.1213 9129.95 8639.34 106.88
6098 25.1250 9221.15 8617.16 109.75
6099 25.1288 9048.88 8595.14 109.24
6100 25.1325 9255.54 8574.46 110.54
6101 25.1363 9086.76 8553.96 110.01
6102 25.1401 9125.90 8534.21 108.69
6103 25.1438 8898.26 8515.68 108.04
6104 25.1476 9167.67 8497.35 109.35
6105 25.1513 9106.34 8480.17 109.89
6106 25.1551 9128.03 8463.19 106.96
6107 25.1589 8717.01 8446.86 106.29
6108 25.1626 8866.65 8431.58 108.04
6109 25.1664 8961.57 8416.50 109.17
6110 25.1701 8875.96 8402.41 107.34
6111 25.1739 8865.12 8388.50 108.23
6112 25.1777 8964.86 8375.16 109.19
6113 25.1814 8821.15 8362.69 107.65
6114 25.1852 8999.67 8350.41 109.74
6115 25.1889 8751.27 8338.93 107.29
6116 25.1927 8902.31 8327.62 108.55
6117 25.1965 8767.24 8316.79 107.36
6118 25.2002 8680.29 8306.67 106.61
6119 25.2040 8726.39 8296.71 106.66
6120 25.2077 8721.86 8287.40 106.11
6121 25.2115 8514.89 8278.24 106.12
6122 25.2153 8707.93 8269.45 107.17
6123 25.2190 8762.09 8261.24 107.33
6124 25.2228 8842.25 8253.15 107.46
6125 25.2265 8634.49 8245.60 107.29
6126 25.2303 8784.53 8238.15 108.35
6127 25.2341 8694.37 8231.00 106.83
6128 25.2378 8766.20 8224.31 107.65
6129 25.2416 8506.55 8217.71 105.17
6130 25.2453 8602.34 8211.53 105.22
6131 25.2491 8682.76 8205.42 106.35
6132 25.2529 8732.59 8199.54 106.99
6133 25.2566 8414.14 8194.04 103.59
6134 25.2604 8621.90 8188.58 105.67
6135 25.2641 8394.54 8183.46 104.35
6136 25.2679 8686.79 8178.38 106.54
6137 25.2717 8580.30 8173.47 103.66
6138 25.2754 8547.55 8168.86 105.46
6139 25.2792 8277.97 8164.28 104.34
6140 25.2829 8422.28 8159.95 105.01
6141 25.2867 8358.23 8155.64 103.58
6142 25.2905 8540.95 8151.45 104.74
6143 25.2942 8454.16 8147.49 106.61
6144 25.2980 8536.98 8143.54 105.45
6145 25.3018 8168.31 8139.69 102.57
6146 25.3055 8411.12 8136.04 104.39
6147 25.3093 8444.96 8132.37 105.09
6148 25.3130 8439.65 8128.88 104.21
6149 25.3168 8147.03 8125.38 102.99
6150 25.3206 8384.68 8121.94 104.36
6151 25.3243 8363.15 8118.66 104.47
6152 25.3281 8564.07 8115.35 107.04
6153 25.3318 8318.59 8112.17 103.72
6154 25.3356 8549.21 8108.96 105.57
6155 25.3394 8087.36 8105.79 102.48
6156 25.3431 8413.80 8102.75 104.88
6157 25.3469 8224.93 8099.65 103.27
6158 25.3506 8418.66 8096.67 105.00
6159 25.3544 8201.92 8093.64 102.75
6160 25.3582 8301.66 8090.62 103.30
6161 25.3619 8143.73 8087.70 102.88
6162 25.3657 8402.25 8084.72 104.85
6163 25.3694 8081.01 8081.83 101.75
6164 25.3732 8285.82 8078.87 103.85
6165 25.3770 8066.90 8075.92 102.28
6166 25.3807 8375.91 8073.05 104.00
6167 25.3845 8039.65 8070.10 101.83
6168 25.3882 8121.01 8067.24 103.13
6169 25.3920 8064.60 8064.29 101.34
6170 25.3958 8575.78 8061.34 105.94
6171 25.3995 8173.40 8058.47 103.27
6172 25.4033 8177.70 8055.52 103.28
6173 25.4070 7999.05 8052.63 101.69
6174 25.4108 8078.19 8049.67 103.56
6175 25.4146 8177.68 8046.70 103.05
6176 25.4183 8326.73 8043.80 104.26
6177 25.4221 8127.72 8040.82 102.18
6178 25.4258 8305.09 8037.91 103.08
6179 25.4296 7910.83 8034.92 101.09
6180 25.4334 8118.97 8031.92 102.72
6181 25.4371 8146.41 8029.00 103.69
6182 25.4409 8214.78 8026.00 103.37
6183 25.4446 7986.41 8023.08 102.25
6184 25.4484 8232.34 8020.07 102.83
6185 25.4522 7905.20 8017.07 100.93
6186 25.4559 8053.71 8014.15 102.06
6187 25.4597 8165.28 8022.46 102.17
6188 25.4634 8133.89 8019.56 103.38
6189 25.4672 7854.17 8016.59 100.30
6190 25.4710 8134.57 8013.62 103.14
6191 25.4747 7925.25 8010.74 100.98
6192 25.4785 8154.14 8007.78 101.67
6193 25.4822 7998.17 8004.92 101.73
6194 25.4860 8288.98 8001.98 103.62
6195 25.4898 8034.28 7999.05 101.79
6196 25.4935 8084.23 7996.21 102.97
6197 25.4973 7952.99 7993.30 100.32
6198 25.5010 8120.51 7990.49 103.54
6199 25.5048 8066.24 7987.61 101.95
6200 25.5086 7968.38 7984.74 102.02
6201 25.5123 7817.90 7981.96 99.99
6202 25.5161 8067.70 7979.13 102.65
6203 25.5198 8047.86 7976.38 101.87
6204 25.5236 8308.54 7973.57 103.92
6205 25.5273 7885.41 7970.85 100.68
6206 25.5311 8105.15 7968.08 101.59
6207 25.5349 7763.35 7965.32 100.18
6208 25.5386 8053.58 7962.65 101.92
6209 25.5424 8053.67 7959.93 101.94
6210 25.5461 7959.58 7957.30 101.46
6211 25.5499 8088.30 7954.61 102.55
6212 25.5537 8178.74 7951.94 103.29
6213 25.5574 7847.64 7949.36 100.69
6214 25.5612 8055.83 7946.73 102.51
6215 25.5649 7829.90 7944.19 101.00
6216 25.5687 7931.20 7941.60 103.22
6217 25.5725 7866.43 7939.03 102.13
6218 25.5762 8130.80 7936.54 103.56
6219 25.5800 7918.57 7934.00 101.92
6220 25.5837 8148.80 7931.56 102.94
6221 25.5875 7844.56 7929.06 101.53
6222 25.5913 8131.09 7926.59 103.71
6223 25.5950 7993.98 7924.20 103.22
6224 25.5988 7884.58 7921.76 100.59
6225 25.6025 7867.82 7919.41 101.76
6226 25.6063 8084.67 7917.02 103.62
6227 25.6101 7897.66 7914.64 102.83
6228 25.6138 8085.16 7912.35 103.35
6229 25.6176 7978.03 7910.01 100.40
6230 25.6213 8005.38 7907.76 102.82
6231 25.6251 7954.96 7905.46 102.47
6232 25.6289 8121.63 7903.19 104.00
6233 25.6326 7851.50 7900.99 101.53
6234 25.6364 7895.38 7898.76 102.29
6235 25.6401 7980.72 7896.60 103.11
6236 25.6439 7904.87 7894.41 102.40
6237 25.6477 7915.22 7892.23 101.77
6238 25.6514 7999.04 7890.14 101.88
6239 25.6552 7896.16 7888.00 103.30
6240 25.6589 8041.91 7885.94 102.02
6241 25.6627 7826.60 7883.85 102.24
6242 25.6665 8010.09 7881.77 103.03
6243 25.6702 7756.35 7879.77 101.76
6244 25.6740 7973.68 7877.74 103.43
6245 25.6777 7856.83 7875.78 101.59
6246 25.6815 7866.52 7873.78 102.44
6247 25.6853 7831.68 7871.81 101.24
6248 25.6890 7831.13 7869.91 101.62
6249 25.6928 7792.65 7867.98 102.57
6250 25.6965 7907.08 7866.12 102.97
6251 25.7003 7951.19 7864.23 101.39
6252 25.7040 8149.76 7862.41 104.70
6253 25.7078 7724.10 7860.56 100.06
6254 25.7116 8037.61 7858.73 103.29
6255 25.7153 7897.12 7856.97 102.00
6256 25.7191 7987.41 7855.19 104.24
6257 25.7228 7828.12 7853.47 102.19
6258 25.7266 8101.79 7851.73 103.67
6259 25.7304 7924.75 7850.01 101.99
6260 25.7341 7851.47 7848.35 102.42
6261 25.7379 7714.82 7846.68 100.39
6262 25.7416 7869.17 7845.07 101.51
6263 25.7454 7735.67 7843.44 100.20
6264 25.7492 7957.42 7841.83 102.89
6265 25.7529 7723.10 7840.29 100.79
6266 25.7567 8071.58 7838.72 105.13
6267 25.7604 7797.11 7837.23 100.00
6268 25.7642 8059.18 7835.71 103.30
6269 25.7680 7803.18 7834.22 101.43
6270 25.7717 7978.35 7832.79 102.56
6271 25.7755 7859.23 7831.34 102.01
6272 25.7792 8095.10 7829.96 104.21
6273 25.7830 7915.84 7828.56 101.77
6274 25.7868 7953.19 7827.19 101.54
6275 25.7905 7906.05 7825.88 101.96
6276 25.7943 8117.47 7824.56 104.04
6277 25.7980 7935.51 7823.29 102.89
6278 25.8018 8056.56 7822.02 103.99
6279 25.8055 7827.66 7820.80 101.38
6280 25.8093 7946.43 7819.57 103.30
6281 25.8131 8004.87 7818.37 103.74
6282 25.8168 8141.85 7817.23 103.95
6283 25.8206 7860.73 7816.07 103.88
6284 25.8243 7985.19 7814.98 103.19
6285 25.8281 8004.63 7813.87 103.12
6286 25.8319 7973.75 7812.79 102.02
6287 25.8356 7820.97 7811.76 101.91
6288 25.8394 8081.83 7810.72 103.16
6289 25.8431 7774.87 7809.74 101.13
6290 25.8469 8006.00 7808.75 104.49
6291 25.8507 7813.19 7807.78 101.92
6292 25.8544 8010.56 7806.86 102.92
6293 25.8582 8068.51 7805.94 104.66
6294 25.8619 8123.88 7805.06 103.15
6295 25.8657 8059.34 7804.17 103.75
6296 25.8694 8188.14 7803.33 104.49
6297 25.8732 8029.86 7802.48 102.91
6298 25.8770 8205.86 7801.65 105.02
6299 25.8807 8009.97 7800.86 103.25
6300 25.8845 8036.57 7800.06 101.85
6301 25.8882 8098.11 7799.29 103.61
6302 25.8920 7996.38 7798.52 102.70
6303 25.8958 8151.38 7797.76 105.35
6304 25.8995 8186.99 7797.03 104.92
6305 25.9033 8164.71 7796.30 103.63
6306 25.9070 8087.91 7795.58 104.31
6307 25.9108 8242.92 7794.86 104.47
6308 25.9146 8204.67 7769.65 104.20
6309 25.9183 8133.76 7769.01 104.45
6310 25.9221 8236.52 7768.35 104.78
6311 25.9258 8222.09 7767.71 104.34
6312 25.9296 8342.37 7767.05 105.15
6313 25.9333 8286.30 7766.40 105.50
6314 25.9371 8262.76 7765.73 103.51
6315 25.9409 8190.90 7765.04 103.51
6316 25.9446 8428.74 7764.36 106.27
6317 25.9484 8285.17 7763.65 105.43
6318 25.9521 8559.27 7762.94 106.96
6319 25.9559 8243.07 7762.18 105.44
6320 25.9597 8508.01 7761.41 106.30
6321 25.9634 8588.17 7760.63 107.19
6322 25.9672 8699.14 7759.79 107.81
6323 25.9709 8495.22 7758.96 108.59
6324 25.9747 8777.40 7758.05 108.84
6325 25.9785 8541.34 7757.12 106.75
6326 25.9822 8629.88 7756.16 109.00
6327 25.9860 8414.75 7755.14 105.21
6328 25.9897 8864.13 7754.10 109.62
6329 25.9935 8711.02 7752.98 107.84
6330 25.9972 8845.08 7751.83 110.97
6331 26.0010 8881.81 7750.61 110.04
6332 26.0048 8925.68 7749.32 110.33
6333 26.0085 8621.52 7748.01 108.35
6334 26.0123 8917.31 7746.60 110.34
6335 26.0160 8769.83 7745.18 109.91
6336 26.0198 9072.79 7743.64 113.32
6337 26.0236 8730.13 7742.05 108.96
6338 26.0273 9082.09 7740.43 110.82
6339 26.0311 8929.33 7738.70 110.64
6340 26.0348 8832.59 7736.95 110.61
6341 26.0386 9094.57 7735.09 111.62
6342 26.0423 9071.19 7733.22 111.40
6343 26.0461 8884.58 7731.23 110.60
6344 26.0499 9058.25 7729.17 109.68
6345 26.0536 9028.92 7727.11 110.14
6346 26.0574 8992.63 7724.94 107.03
6347 26.0611 8920.68 7722.77 107.86
6348 26.0649 9124.40 7720.48 110.86
6349 26.0687 8838.93 7718.14 108.59
6350 26.0724 9223.93 7715.81 110.93
6351 26.0762 9011.09 7713.37 110.31
6352 26.0799 8914.52 7710.95 109.68
6353 26.0837 8818.38 7708.42 108.67
6354 26.0874 9006.63 7705.92 109.44
6355 26.0912 8696.26 7703.32 107.64
6356 26.0950 8994.27 7700.68 109.35
6357 26.0987 8687.03 7698.09 107.30
6358 26.1025 8968.39 7695.39 110.67
6359 26.1062 8707.42 7692.74 107.66
6360 26.1100 8905.70 7690.00 110.16
6361 26.1138 8502.42 7687.24 105.03
6362 26.1175 8769.85 7684.53 107.63
6363 26.1213 8604.85 7681.74 107.18
6364 26.1250 8741.83 7679.01 108.60
6365 26.1288 8434.18 7676.20 106.77
6366 26.1325 8731.01 7673.45 108.29
6367 26.1363 8376.42 7670.63 105.97
6368 26.1401 8490.95 7667.80 106.56
6369 26.1438 8314.09 7665.05 104.70
6370 26.1476 8476.16 7662.22 105.61
6371 26.1513 8374.42 7659.47 105.81
6372 26.1551 8398.35 7656.66 103.83
6373 26.1588 8239.00 7653.92 104.71
6374 26.1626 8279.95 7651.11 104.69
6375 26.1664 8309.37 7648.31 105.35
6376 26.1701 8305.41 7645.60 106.80
6377 26.1739 8095.56 7642.83 103.65
6378 26.1776 8170.35 7640.14 103.72
6379 26.1814 8068.47 7637.39 104.36
6380 26.1852 8185.02 7634.65 103.97
6381 26.1889 7923.10 7632.00 102.30
6382 26.1927 8329.70 7629.30 104.81
6383 26.1964 7971.54 7626.68 103.65
6384 26.2002 8035.91 7624.01 103.30
6385 26.2039 8004.71 7621.43 102.99
6386 26.2077 8144.96 7618.79 104.08
6387 26.2115 7959.54 7616.18 103.93
6388 26.2152 8058.24 7613.65 104.26
6389 26.2190 7940.03 7611.08 104.55
6390 26.2227 7961.89 7608.59 102.69
6391 26.2265 7970.54 7606.05 103.47
6392 26.2302 8075.02 7603.60 104.33
6393 26.2340 7827.13 7601.11 102.78
6394 26.2378 7819.76 7598.63 102.62
6395 26.2415 7825.92 7596.25 102.31
6396 26.2453 7996.47 7593.82 103.16
6397 26.2490 7757.20 7591.47 102.14
6398 26.2528 7902.33 7589.08 102.15
6399 26.2565 7849.07 7586.77 101.78
6400 26.2603 7949.28 7584.42 102.41
6401 26.2641 7651.94 7582.09 99.93
6402 26.2678 7952.39 7579.84 103.24
6403 26.2716 7715.37 7577.56 101.22
6404 26.2753 7818.33 7575.35 100.01
6405 26.2791 7575.04 7573.10 101.01
6406 26.2829 7744.78 7570.87 101.81
6407 26.2866 7679.86 7568.72 99.82
6408 26.2904 7745.69 7566.52 100.31
6409 26.2941 7701.48 7564.41 101.71
6410 26.2979 7736.57 7562.25 102.39
6411 26.3016 7593.18 7560.17 99.40
6412 26.3054 7776.48 7558.05 101.35
6413 26.3092 7537.71 7555.95 99.73
6414 26.3129 7835.52 7553.92 102.45
6415 26.3167 7513.89 7551.85 99.72
6416 26.3204 7654.96 7549.85 100.25
6417 26.3242 7570.77 7547.81 98.95
6418 26.3279 7852.74 7545.84 102.42
6419 26.3317 7478.65 7543.83 100.16
6420 26.3355 7724.73 7541.83 102.20
6421 26.3392 7512.25 7539.91 100.93
6422 26.3430 7735.60 7537.94 101.88
6423 26.3467 7590.22 7536.04 99.91
6424 26.3505 7592.07 7534.10 100.13
6425 26.3542 7611.14 7532.22 101.19
6426 26.3580 7715.96 7530.30 101.79
6427 26.3618 7390.65 7528.40 98.29
6428 26.3655 7652.63 7526.55 101.70
6429 26.3693 7363.04 7524.67 99.36
6430 26.3730 7718.50 7522.85 100.70
6431 26.3768 7482.82 7520.98 100.23
6432 26.3805 7407.38 7519.18 98.41
6433 26.3843 7260.41 7517.34 98.15
6434 26.3881 7636.76 7515.50 101.20
6435 26.3918 7402.84 7513.72 98.00
6436 26.3956 7581.14 7511.91 99.48
6437 26.3993 7464.44 7510.15 98.77
6438 26.4031 7642.63 7508.34 100.42
6439 26.4068 7400.83 7506.60 99.03
6440 26.4106 7527.72 7504.81 100.59
6441 26.4144 7348.84 7503.03 98.41
6442 26.4181 7399.55 7501.30 98.75
6443 26.4219 7426.44 7499.54 97.60
6444 26.4256 7653.63 7497.82 101.61
6445 26.4294 7299.34 7496.07 98.75
6446 26.4331 7598.67 7494.36 101.43
6447 26.4369 7538.50 7492.62 100.96
6448 26.4407 7593.28 7490.88 100.88
6449 26.4444 7450.35 7489.19 100.10
6450 26.4482 7463.35 7487.46 99.97
6451 26.4519 7442.83 7485.79 101.19
6452 26.4557 7532.33 7484.07 100.74
6453 26.4594 7222.59 7482.40 96.97
6454 26.4632 7611.73 7480.69 101.04
6455 26.4670 7295.49 7478.98 98.55
6456 26.4707 7699.17 7477.32 101.00
6457 26.4745 7535.96 7475.62 100.38
6458 26.4782 7289.46 7473.97 98.04
6459 26.4820 7490.98 7472.27 100.11
6460 26.4857 7592.79 7470.63 101.06
6461 26.4895 7335.00 7468.94 98.13
6462 26.4932 7751.05 7467.30 102.82
6463 26.4970 7426.07 7465.62 100.35
6464 26.5008 7572.11 7463.94 101.57
6465 26.5045 7338.83 7462.31 98.76
6466 26.5083 7475.52 7460.64 99.74
6467 26.5120 7347.44 7459.01 97.32
6468 26.5158 7429.43 7457.34 99.76
6469 26.5195 7358.73 7455.72 98.76
6470 26.5233 7612.70 7454.06 101.59
6471 26.5271 7307.90 7452.40 99.82
6472 26.5308 7456.19 7450.78 100.36
6473 26.5346 7343.24 7449.12 98.52
6474 26.5383 7406.90 7447.51 99.19
6475 26.5421 7327.19 7445.86 97.60
6476 26.5458 7435.13 7444.25 98.18
6477 26.5496 7315.10 7442.60 97.91
6478 26.5534 7547.61 7440.95 98.99
6479 26.5571 7377.59 7439.35 98.76
6480 26.5609 7453.04 7437.71 99.38
6481 26.5646 7553.58 7436.10 98.80
6482 26.5684 7470.50 7434.46 98.99
6483 26.5721 7423.50 7432.86 98.34
6484 26.5759 7282.64 7431.22 97.47
6485 26.5796 7324.97 7429.63 98.42
6486 26.5834 7483.27 7427.99 99.30
6487 26.5872 7495.33 7426.35 99.08
6488 26.5909 7379.51 7424.76 98.25
6489 26.5947 7560.75 7423.13 99.93
6490 26.5984 7550.06 7421.53 99.68
6491 26.6022 7351.62 7419.90 98.60
6492 26.6059 7453.99 7418.31 97.82
6493 26.6097 7489.12 7416.68 100.29
6494 26.6135 7585.68 7415.05 99.50
6495 26.6172 7437.76 7413.47 99.62
6496 26.6210 7359.28 7411.84 98.63
6497 26.6247 7301.69 7410.25 97.73
6498 26.6285 7492.81 7408.62 99.00
6499 26.6322 7403.48 7407.04 99.77
6500 26.6360 7490.76 7405.41 99.93
6501 26.6397 7400.48 7403.83 98.91
6502 26.6435 7523.77 7402.20 99.87
6503 26.6473 7350.30 7400.58 98.45
6504 26.6510 7462.83 7399.00 98.78
6505 26.6548 7340.70 7397.37 97.33
6506 26.6585 7477.59 7395.79 99.27
6507 26.6623 7331.21 7394.17 98.59
6508 26.6660 7459.54 7392.59 97.90
6509 26.6698 7163.56 7390.96 96.97
6510 26.6735 7486.88 7389.38 99.59
6511 26.6773 7213.02 7387.76 96.91
6512 26.6811 7344.05 7386.14 98.40
6513 26.6848 7220.39 7384.56 98.21
6514 26.6886 7428.27 7382.94 99.51
6515 26.6923 7260.62 7381.36 98.12
6516 26.6961 7412.08 7379.74 98.84
6517 26.6998 7366.07 7378.17 98.05
6518 26.7036 7562.00 7376.55 100.33
6519 26.7073 7441.33 7374.97 99.73
6520 26.7111 7380.43 7373.37 99.22
6521 26.7149 7350.78 7371.75 99.20
6522 26.7186 7484.90 7370.18 99.65
6523 26.7224 7319.82 7368.56 98.44
6524 26.7261 7572.51 7366.99 100.48
6525 26.7299 7114.30 7365.38 95.54
6526 26.7336 7347.09 7363.80 97.35
6527 26.7374 7375.74 7362.19 98.73
6528 26.7411 7479.32 7360.62 100.49
6529 26.7449 7165.39 7359.01 97.27
6530 26.7487 7398.94 7357.40 98.09
6531 26.7524 7345.81 7355.83 98.24
6532 26.7562 7387.61 7354.23 98.69
6533 26.7599 7284.29 7352.66 97.38
6534 26.7637 7409.03 7351.05 99.59
6535 26.7674 7163.66 7349.49 97.44
6536 26.7712 7377.38 7347.89 99.50
6537 26.7749 7309.73 7346.33 97.38
6538 26.7787 7430.96 7344.72 98.38
6539 26.7825 7219.60 7343.12 97.40
6540 26.7862 7426.67 7341.56 98.90
6541 26.7900 7309.49 7339.96 97.63
6542 26.7937 7220.71 7338.41 97.76
6543 26.7975 7232.21 7336.81 98.58
6544 26.8012 7341.86 7335.25 98.90
6545 26.8050 7134.45 7333.66 98.14
6546 26.8087 7327.03 7332.11 98.60
6547 26.8125 7279.35 7330.52 98.37
6548 26.8163 7331.93 7328.93 98.69
6549 26.8200 7186.20 7327.38 97.41
6550 26.8238 7430.53 7325.79 99.86
6551 26.8275 7284.47 7324.24 97.49
6552 26.8313 7347.25 7322.66 98.30
6553 26.8350 7233.26 7321.11 97.46
6554 26.8388 7283.94 7319.53 98.04
6555 26.8425 7295.29 7317.99 98.41
6556 26.8463 7360.48 7316.41 98.56
6557 26.8500 7232.09 7314.87 97.76
6558 26.8538 7451.90 7313.29 99.33
6559 26.8576 7251.12 7311.71 98.23
6560 26.8613 7267.62 7310.17 97.69
6561 26.8651 7315.93 7308.60 97.82
6562 26.8688 7158.72 7307.07 97.49
6563 26.8726 7072.68 7305.50 96.40
6564 26.8763 7444.47 7303.97 98.92
6565 26.8801 7270.60 7302.40 98.07
6566 26.8838 7241.92 7300.87 96.73
6567 26.8876 7304.85 7299.30 96.54
6568 26.8914 7297.73 7297.73 96.69
6569 26.8951 7129.06 7296.21 96.19
6570 26.8989 7306.65 7294.65 98.07
6571 26.9026 7100.58 7293.13 96.16
6572 26.9064 7388.20 7291.53 99.25
6573 26.9101 7196.37 7290.01 97.34
6574 26.9139 7259.72 7288.45 97.08
6575 26.9176 7012.46 7286.94 96.25
6576 26.9214 7331.30 7285.38 98.16
6577 26.9251 7016.45 7283.87 95.53
6578 26.9289 7262.08 7282.31 96.98
6579 26.9327 7160.09 7280.76 94.65
6580 26.9364 7305.15 7279.25 97.47
6581 26.9402 7118.81 7277.71 96.46
6582 26.9439 7177.23 7276.20 96.78
6583 26.9477 7100.77 7274.65 96.54
6584 26.9514 7381.49 7273.15 98.25
6585 26.9552 7087.76 7271.61 96.38
6586 26.9589 7366.46 7270.11 97.27
6587 26.9627 7058.08 7268.56 95.81
6588 26.9664 7114.06 7267.07 96.34
6589 26.9702 7275.04 7265.53 98.08
6590 26.9740 7312.59 7263.99 97.99
6591 26.9777 7186.69 7262.50 97.50
6592 26.9815 7271.04 7262.23 95.91
6593 26.9852 6989.52 7261.97 95.01
6594 26.9890 7314.51 7261.71 97.57
6595 26.9911 7170.66 7261.56 97.70
6596 26.9948 7207.47 7261.31 97.94
6597 26.9986 7402.07 7261.05 97.93
6598 27.0023 7424.54 7260.79 99.93
6599 27.0061 7144.66 7260.54 97.35
6600 27.0099 7360.37 7260.28 99.90
6601 27.0136 7046.74 7260.03 98.02
6602 27.0174 7383.64 7259.78 100.03
6603 27.0211 7252.65 7259.53 98.05
6604 27.0249 7358.67 7259.28 99.04
6605 27.0286 7360.55 7259.04 98.06
6606 27.0324 7211.99 7258.79 96.73
6607 27.0362 7158.81 7258.55 96.94
6608 27.0399 7374.69 7258.31 97.92
6609 27.0437 7200.45 7258.07 97.64
6610 27.0474 7267.78 7257.83 98.20
6611 27.0512 7267.91 7257.59 96.90
6612 27.0549 7222.12 7257.36 97.34
6613 27.0587 7146.14 7257.12 96.47
6614 27.0624 7302.51 7256.90 97.83
6615 27.0662 7286.95 7256.66 98.34
6616 27.0700 7304.64 7256.43 98.18
6617 27.0737 7160.83 7256.21 96.79
6618 27.0775 7234.31 7255.98 97.37
6619 27.0812 7227.90 7255.76 97.66
6620 27.0850 7334.30 7255.53 98.29
6621 27.0887 7172.17 7255.32 97.45
6622 27.0925 7193.53 7255.10 96.10
6623 27.0963 7114.73 7254.88 97.66
6624 27.1000 7294.10 7254.66 97.55
6625 27.1038 7046.68 7254.45 96.87
6626 27.1075 7137.62 7254.24 97.16
6627 27.1113 7188.61 7254.03 97.09
6628 27.1150 7496.36 7253.83 99.24
6629 27.1188 7382.55 7253.62 99.82
6630 27.1225 7478.09 7253.42 100.04
6631 27.1263 7218.40 7253.21 97.75
6632 27.1301 7285.28 7253.01 98.29
6633 27.1338 7128.14 7252.82 96.99
6634 27.1376 7481.55 7252.62 99.12
6635 27.1413 7200.64 7252.43 96.49
6636 27.1451 7316.33 7252.24 98.28
6637 27.1488 7207.00 7252.05 97.86
6638 27.1526 7329.16 7251.86 97.15
6639 27.1563 7213.60 7251.67 97.56
6640 27.1601 7344.32 7251.49 98.73
6641 27.1639 7008.17 7251.30 95.57
6642 27.1676 7417.66 7251.13 99.16
6643 27.1714 7104.60 7250.95 97.54
6644 27.1751 7258.12 7250.78 98.44
6645 27.1789 7212.67 7250.60 97.96
6646 27.1826 7338.79 7250.44 98.50
6647 27.1864 7228.29 7250.27 97.23
6648 27.1902 7396.33 7250.10 99.31
6649 27.1939 7212.32 7249.94 98.21
6650 27.1977 7430.67 7249.78 99.81
6651 27.2014 7098.58 7249.62 97.49
6652 27.2052 7337.92 7249.47 98.76
6653 27.2089 7109.83 7249.32 97.06
6654 27.2127 7171.95 7249.17 97.68
6655 27.2164 7051.02 7249.02 95.27
6656 27.2202 7273.69 7248.87 97.01
6657 27.2205 7247.67 7248.86 96.55
6658 27.2242 7174.33 7248.72 96.09
6659 27.2280 7049.31 7248.58 94.97
6660 27.2317 7484.68 7248.45 98.79
6661 27.2355 7253.90 7248.31 97.87
6662 27.2392 7366.23 7248.18 97.77
6663 27.2430 7344.57 7248.06 98.47
6664 27.2467 7291.96 7247.93 96.55
6665 27.2505 7228.16 7247.81 97.64
6666 27.2542 7216.79 7247.69 97.28
6667 27.2580 7436.19 7247.58 98.98
6668 27.2618 7196.14 7247.46 96.82
6669 27.2655 7087.48 7247.36 96.92
6670 27.2693 7286.15 7247.25 97.35
6671 27.2730 7181.95 7247.15 96.85
6672 27.2768 7222.81 7247.05 96.53
6673 27.2805 7141.71 7246.96 96.70
6674 27.2843 7319.34 7246.86 97.90
6675 27.2880 7022.62 7246.78 94.49
6676 27.2918 7255.87 7246.69 97.72
6677 27.2955 7095.02 7246.61 96.12
6678 27.2993 7206.90 7246.53 96.73
6679 27.3030 7185.67 7246.46 96.86
6680 27.3068 7275.09 7246.39 97.20
6681 27.3106 7210.62 7246.33 97.72
6682 27.3143 7350.29 7246.27 98.04
6683 27.3181 7103.50 7246.21 97.16
6684 27.3218 7339.12 7246.16 98.34
6685 27.3256 7097.44 7246.11 95.30
6686 27.3293 7253.47 7246.07 96.70
6687 27.3331 7097.15 7246.03 95.65
6688 27.3368 7347.96 7246.00 98.37
6689 27.3406 7202.17 7245.97 95.67
6690 27.3443 7267.45 7245.94 97.43
6691 27.3481 7270.34 7245.92 98.37
6692 27.3518 7307.59 7245.91 97.80
6693 27.3556 7253.28 7245.90 97.70
6694 27.3594 7125.81 7245.90 96.10
6695 27.3631 7054.52 7245.90 94.73
6696 27.3669 7271.14 7245.91 96.87
6697 27.3706 7220.13 7245.92 96.51
6698 27.3744 7481.83 7245.94 98.50
6699 27.3781 7083.80 7245.97 96.06
6700 27.3819 7326.88 7246.00 98.07
6701 27.3856 7162.99 7246.04 96.37
6702 27.3894 7158.19 7246.08 97.84
6703 27.3931 7035.50 7246.14 95.54
6704 27.3969 7380.48 7246.20 99.51
6705 27.4007 7120.42 7246.26 97.45
6706 27.4044 7309.45 7246.34 97.98
6707 27.4082 7194.41 7246.42 95.94
6708 27.4119 7299.11 7246.51 97.17
6709 27.4157 7155.78 7246.61 97.31
6710 27.4194 7018.19 7246.71 95.98
6711 27.4232 7096.76 7246.82 96.98
6712 27.4269 7393.88 7246.95 99.42
6713 27.4307 7099.11 7247.08 96.50
6714 27.4344 7137.61 7247.22 96.96
6715 27.4382 7016.42 7247.37 97.10
6716 27.4420 7210.50 7247.54 96.46
6717 27.4457 7213.00 7247.71 97.42
6718 27.4495 7119.16 7247.89 96.60
6719 27.4532 6980.12 7248.08 95.92
6720 27.4570 7222.13 7248.29 97.75
6721 27.4607 7230.61 7248.51 97.65
6722 27.4645 7322.87 7248.74 97.57
6723 27.4682 7103.59 7248.98 95.57
6724 27.4720 7432.86 7249.24 99.15
6725 27.4757 7052.65 7249.50 95.98
6726 27.4795 7485.10 7249.79 98.55
6727 27.4833 7089.21 7250.10 96.42
6728 27.4870 7320.88 7250.41 99.38
6729 27.4908 7077.41 7250.74 97.32
6730 27.4945 7140.08 7251.08 96.29
6731 27.4983 7177.49 7251.45 97.44
6732 27.5020 7281.99 7251.83 97.89
6733 27.5058 7251.40 7252.24 97.89
6734 27.5095 7288.95 7252.65 97.24
6735 27.5133 7218.68 7253.10 98.08
6736 27.5170 7378.33 7253.55 99.75
6737 27.5208 7213.99 7254.04 96.93
6738 27.5246 7232.61 7254.55 97.47
6739 27.5283 7277.70 7255.07 98.73
6740 27.5321 7248.34 7255.64 97.77
6741 27.5358 7128.76 7256.21 96.75
6742 27.5396 7327.92 7256.82 97.40
6743 27.5433 7200.95 7257.44 97.21
6744 27.5471 7310.29 7258.12 98.78
6745 27.5508 7244.77 7258.80 97.41
6746 27.5546 7293.90 7259.53 98.53
6747 27.5584 7137.88 7260.30 97.26
6748 27.5621 7219.15 7261.08 97.93
6749 27.5659 7223.23 7261.91 98.55
6750 27.5696 7415.16 7262.77 98.19
6751 27.5734 7312.36 7263.68 97.54
6752 27.5771 7262.81 7264.61 97.46
6753 27.5809 7187.03 7265.60 97.78
6754 27.5846 7379.64 7266.61 99.13
6755 27.5884 7157.28 7267.70 97.30
6756 27.5922 7418.49 7268.83 99.16
6757 27.5959 7418.92 7269.98 99.30
6758 27.5997 7390.88 7271.21 99.57
6759 27.6034 7214.28 7272.47 98.65
6760 27.6072 7335.05 7273.81 98.04
6761 27.6109 7407.66 7275.18 98.92
6762 27.6147 7471.78 7276.65 100.32
6763 27.6184 7372.98 7278.13 97.67
6764 27.6222 7326.88 7279.72 98.80
6765 27.6259 7357.37 7281.34 99.49
6766 27.6297 7348.77 7283.08 97.24
6767 27.6335 7316.93 7284.89 98.09
6768 27.6372 7483.59 7286.72 99.27
6769 27.6410 7417.13 7288.68 99.88
6770 27.6447 7640.26 7290.68 101.70
6771 27.6485 7389.99 7292.81 96.81
6772 27.6522 7599.93 7294.97 100.11
6773 27.6560 7362.66 7297.29 99.66
6774 27.6597 7616.39 7299.63 101.03
6775 27.6635 7382.03 7302.15 98.84
6776 27.6673 7595.06 7304.76 100.35
6777 27.6710 7425.76 7307.41 99.43
6778 27.6748 7535.58 7310.25 100.64
6779 27.6785 7706.45 7313.12 101.73
6780 27.6823 7692.60 7316.08 99.48
6781 27.6860 7568.27 7319.19 99.15
6782 27.6898 7665.89 7336.92 98.46
6783 27.6935 7637.31 7340.29 99.94
6784 27.6973 7765.39 7343.90 100.05
6785 27.7011 7633.73 7347.64 99.23
6786 27.7048 7996.80 7351.42 101.74
6787 27.7086 7673.48 7355.46 99.50
6788 27.7123 7772.36 7359.53 100.42
6789 27.7161 7584.51 7363.88 98.71
6790 27.7198 7897.69 7368.26 101.21
6791 27.7236 7816.78 7372.92 100.41
6792 27.7274 7943.75 7377.75 101.93
6793 27.7311 7744.93 7382.63 100.31
6794 27.7349 7885.92 7387.81 99.95
6795 27.7386 7836.32 7393.03 101.39
6796 27.7424 8056.83 7398.57 102.16
6797 27.7461 8010.58 7404.16 102.28
6798 27.7499 8022.45 7410.08 102.99
6799 27.7536 8145.35 7416.04 104.60
6800 27.7574 8184.30 7422.36 102.71
6801 27.7612 8016.18 7428.88 101.31
6802 27.7649 8201.03 7435.42 103.87
6803 27.7687 7841.66 7442.35 101.42
6804 27.7724 8380.28 7449.31 104.86
6805 27.7762 8153.47 7456.66 102.90
6806 27.7799 8353.89 7464.03 105.59
6807 27.7837 8208.63 7471.81 102.89
6808 27.7874 8542.00 7479.60 105.82
6809 27.7912 8372.86 7487.82 105.94
6810 27.7950 8459.46 7496.26 105.78
6811 27.7987 8447.27 7504.70 106.09
6812 27.8025 8661.74 7513.58 107.07
6813 27.8062 8408.15 7522.44 105.47
6814 27.8100 8790.83 7531.77 106.98
6815 27.8137 8515.41 7541.06 105.08
6816 27.8175 8776.94 7550.83 106.79
6817 27.8213 8617.59 7560.81 105.74
6818 27.8250 8791.43 7570.75 107.68
6819 27.8288 8642.40 7581.16 106.66
6820 27.8325 8738.05 7591.50 107.26
6821 27.8363 8701.24 7602.33 107.59
6822 27.8400 8931.97 7613.08 109.39
6823 27.8438 8852.59 7624.32 108.33
6824 27.8475 8877.64 7635.45 108.94
6825 27.8513 8720.11 7647.08 107.92
6826 27.8551 9238.74 7658.90 112.32
6827 27.8588 8741.30 7670.59 106.42
6828 27.8626 8986.63 7682.76 108.33
6829 27.8663 8975.11 7694.78 109.39
6830 27.8701 8783.42 7707.28 107.39
6831 27.8738 8908.05 7719.62 108.22
6832 27.8776 8883.16 7732.42 108.04
6833 27.8814 8980.81 7745.38 108.54
6834 27.8851 9187.74 7758.12 109.93
6835 27.8889 9018.52 7771.31 109.68
6836 27.8926 9052.91 7784.27 109.95
6837 27.8964 8937.86 7797.67 108.24
6838 27.9001 9050.76 7810.80 109.74
6839 27.9039 8675.12 7824.36 107.54
6840 27.9077 8944.47 7837.97 108.39
6841 27.9114 8644.78 7851.27 106.65
6842 27.9152 8954.92 7864.96 109.13
6843 27.9189 8689.96 7878.29 107.12
6844 27.9227 8752.64 7891.98 107.37
6845 27.9264 8572.40 7905.29 104.73
6846 27.9302 8775.95 7918.90 108.38
6847 27.9339 8462.22 7932.10 105.38
6848 27.9377 8497.51 7945.56 104.99
6849 27.9415 8539.10 7958.91 106.43
6850 27.9452 8394.76 7971.78 105.24
6851 27.9490 8454.00 7984.84 105.22
6852 27.9527 8534.03 7997.36 105.57
6853 27.9565 8298.68 8010.02 103.61
6854 27.9602 8331.38 8022.10 104.19
6855 27.9640 8141.44 8034.24 102.24
6856 27.9678 8472.00 8046.07 105.86
6857 27.9715 8087.37 8057.27 102.60
6858 27.9753 8331.35 8068.40 104.33
6859 27.9790 8008.10 8078.86 101.79
6860 27.9828 8262.34 8089.18 104.14
6861 27.9865 8325.77 8098.77 104.32
6862 27.9903 8238.72 8108.13 103.90
6863 27.9941 8195.39 8116.97 103.38
6864 27.9978 8471.14 8125.03 104.79
6865 28.0016 8380.72 8132.72 104.77
6866 28.0053 8841.88 8139.62 108.22
6867 28.0091 8883.09 8146.05 108.14
6868 28.0128 9240.56 8151.67 112.42
6869 28.0166 9431.10 8156.75 111.64
6870 28.0204 9739.11 8161.10 114.92
6871 28.0241 9664.12 8164.63 113.05
6872 28.0279 9948.71 8167.49 115.72
6873 28.0316 9576.15 8169.54 113.19
6874 28.0354 9410.33 8170.87 110.92
6875 28.0391 9132.00 8171.40 110.33
6876 28.0429 9055.08 8171.15 109.91
6877 28.0467 9130.34 8170.10 110.17
6878 28.0504 8856.11 8168.31 107.03
6879 28.0542 8685.29 8165.69 107.32
6880 28.0579 8790.76 8162.37 107.70
6881 28.0617 8603.43 8158.21 106.59
6882 28.0654 8431.87 8153.43 104.65
6883 28.0692 8287.59 8147.79 105.61
6884 28.0730 8275.25 8141.43 103.58
6885 28.0767 8031.90 8134.56 103.10
6886 28.0805 8239.67 8126.85 104.24
6887 28.0842 7908.74 8118.71 101.83
6888 28.0880 8076.51 8109.75 104.20
6889 28.0917 7881.98 8100.47 102.47
6890 28.0955 7968.93 8090.38 101.86
6891 28.0993 7623.35 8079.77 100.20
6892 28.1030 7828.79 8068.98 102.42
6893 28.1068 7578.73 8057.44 100.14
6894 28.1105 7867.98 8045.79 101.41
6895 28.1143 7508.73 8033.46 99.22
6896 28.1180 7892.91 8021.10 101.82
6897 28.1218 7509.18 8008.08 98.12
6898 28.1256 7665.61 7994.78 99.99
6899 28.1293 7375.21 7981.58 97.84
6900 28.1331 7604.97 7967.80 98.91
6901 28.1368 7394.67 7954.20 97.91
6902 28.1406 7508.11 7940.06 99.12
6903 28.1443 7518.09 7926.16 99.41
6904 28.1481 7542.27 7911.77 99.30
6905 28.1519 7309.31 7897.29 96.55
6906 28.1556 7414.13 7883.13 98.60
6907 28.1594 7452.64 7868.55 100.31
6908 28.1631 7380.83 7854.34 96.63
6909 28.1669 7467.94 7839.75 97.97
6910 28.1706 7385.24 7825.57 96.86
6911 28.1744 7345.72 7811.06 97.31
6912 28.1782 7436.64 7796.61 99.02
6913 28.1819 7240.21 7782.61 97.77
6914 28.1857 7337.23 7768.32 97.90
6915 28.1894 7479.87 7754.53 98.44
6916 28.1932 7516.25 7740.49 98.23
6917 28.1970 7087.66 7726.59 95.66
6918 28.2007 7344.62 7713.20 96.47
6919 28.2045 7305.96 7699.62 96.94
6920 28.2082 7346.15 7686.56 98.11
6921 28.2120 7297.25 7673.33 96.39
6922 28.2157 7223.43 7660.64 96.25
6923 28.2195 7201.03 7647.81 95.90
6924 28.2233 7462.26 7635.19 97.93
6925 28.2270 7174.12 7623.10 95.95
6926 28.2308 7332.71 7610.92 97.40
6927 28.2345 7274.74 7599.28 95.81
6928 28.2383 7324.28 7587.56 97.13
6929 28.2420 7199.67 7576.38 96.44
6930 28.2458 7269.03 7565.14 96.35
6931 28.2496 7180.04 7554.14 95.47
6932 28.2533 7401.64 7543.67 99.13
6933 28.2571 7117.33 7533.17 95.45
6934 28.2608 7312.31 7523.19 97.26
6935 28.2646 7176.30 7513.20 96.47
6936 28.2684 7379.02 7503.46 98.10
6937 28.2721 7203.59 7494.22 97.27
6938 28.2759 7395.26 7484.99 98.12
6939 28.2796 7305.50 7476.24 98.31
6940 28.2834 7376.12 7467.51 98.15
6941 28.2871 7362.59 7459.26 98.91
6942 28.2909 7583.36 7451.02 99.33
6943 28.2947 7153.61 7443.04 95.52
6944 28.2984 7237.72 7435.50 96.36
6945 28.3022 7221.69 7428.00 96.41
6946 28.3059 7350.44 7420.93 97.79
6947 28.3097 7288.71 7413.90 97.02
6948 28.3134 7381.61 7407.28 97.38
6949 28.3172 7191.40 7400.72 96.11
6950 28.3210 7365.76 7394.37 98.55
6951 28.3247 7158.14 7388.41 96.47
6952 28.3285 7425.58 7382.51 97.80
6953 28.3322 7151.14 7376.96 96.27
6954 28.3360 7509.36 7371.48 98.92
6955 28.3398 7321.06 7366.19 97.87
6956 28.3435 7489.36 7361.24 98.31
6957 28.3473 7343.72 7356.35 97.51
6958 28.3510 7289.57 7351.77 98.03
6959 28.3548 7312.60 7347.25 96.27
6960 28.3585 7435.08 7343.02 98.18
6961 28.3623 7233.14 7337.05 96.37
6962 28.3661 7369.84 7333.05 97.25
6963 28.3698 7264.98 7329.33 96.18
6964 28.3736 7363.47 7325.66 97.34
6965 28.3773 7326.13 7322.23 97.35
6966 28.3811 7267.34 7318.87 96.58
6967 28.3849 7274.19 7315.65 97.85
6968 28.3886 7270.18 7312.65 96.71
6969 28.3924 7248.81 7309.70 97.38
6970 28.3961 7242.29 7306.97 95.83
6971 28.3999 7059.33 7304.28 95.08
6972 28.4036 7618.07 7301.78 99.67
6973 28.4074 7394.57 7299.33 98.19
6974 28.4112 7346.18 7296.99 98.42
6975 28.4149 7279.76 7294.83 96.62
6976 28.4187 7101.16 7292.70 96.17
6977 28.4224 7124.01 7290.74 96.18
6978 28.4262 7214.95 7288.82 95.71
6979 28.4300 7192.86 7286.99 96.30
6980 28.4337 7249.89 7285.29 97.04
6981 28.4375 7126.73 7283.64 95.63
6982 28.4412 7104.17 7282.11 94.66
6983 28.4450 7222.11 7280.62 96.03
6984 28.4487 7151.62 7279.24 96.61
6985 28.4525 7065.48 7277.90 94.64
6986 28.4563 7311.01 7276.63 97.45
6987 28.4600 7129.32 7275.46 96.76
6988 28.4638 7179.79 7274.32 96.67
6989 28.4675 7039.91 7273.28 94.29
6990 28.4713 7128.62 7272.26 96.24
6991 28.4751 7131.66 7271.30 95.54
6992 28.4788 7015.94 7270.42 94.76
6993 28.4826 6958.52 7269.57 94.63
6994 28.4863 7226.69 7268.79 96.92
6995 28.4901 7156.50 7268.04 96.10
6996 28.4938 7049.23 7267.35 95.16
6997 28.4976 6991.66 7266.69 94.70
6998 28.5014 7068.34 7266.07 95.97
6999 28.5051 6958.62 7265.51 94.40
7000 28.5089 7121.78 7264.98 95.56
7001 28.5126 6907.39 7264.49 93.46
7002 28.5164 7025.16 7264.04 95.87
7003 28.5202 6860.91 7263.61 93.95
7004 28.5239 7058.55 7263.23 94.92
7005 28.5277 7044.63 7262.87 94.36
7006 28.5314 6954.75 7262.56 93.58
7007 28.5352 6952.46 7262.26 95.24
7008 28.5389 6988.22 7262.00 95.48
7009 28.5427 6938.78 7261.77 95.31
7010 28.5465 7094.72 7261.56 96.54
7011 28.5502 6927.60 7261.39 94.13
7012 28.5540 7103.91 7261.23 95.47
7013 28.5577 7005.93 7261.11 95.21
7014 28.5615 7104.32 7261.00 95.19
7015 28.5653 6995.30 7260.93 95.29
7016 28.5690 7063.64 7260.88 95.55
7017 28.5728 6941.91 7260.85 94.04
7018 28.5765 6998.79 7260.84 95.72
7019 28.5803 6977.69 7260.86 95.25
7020 28.5841 6940.78 7260.89 94.41
7021 28.5878 6847.67 7260.95 92.78
7022 28.5916 6867.19 7261.03 93.02
7023 28.5953 6990.02 7261.13 94.74
7024 28.5991 7209.18 7261.26 96.32
7025 28.6028 6793.52 7261.40 93.30
7026 28.6066 6957.29 7261.56 93.94
7027 28.6104 6810.62 7261.74 93.10
7028 28.6141 7009.41 7261.94 95.71
7029 28.6179 6847.63 7262.16 94.22
7030 28.6216 7058.04 7262.40 95.95
7031 28.6254 6956.04 7262.66 94.07
7032 28.6292 7013.91 7262.94 95.51
7033 28.6329 6921.21 7263.24 94.43
7034 28.6367 6959.50 7263.56 94.93
7035 28.6404 7015.58 7263.89 96.60
7036 28.6442 7156.29 7264.24 95.92
7037 28.6480 6836.02 7264.62 91.89
7038 28.6517 6897.12 7265.00 93.27
7039 28.6555 6848.28 7265.42 93.51
7040 28.6592 6885.46 7265.84 92.92
7041 28.6630 6928.84 7266.29 94.37
7042 28.6667 7050.55 7266.75 94.16
7043 28.6705 6815.94 7267.24 92.69
7044 28.6743 7138.16 7267.75 95.86
7045 28.6780 6870.76 7268.26 94.07
7046 28.6818 6938.65 7268.81 92.69
7047 28.6855 6952.09 7269.36 93.35
7048 28.6893 6995.85 7269.95 93.76
7049 28.6931 6932.61 7270.55 93.91
7050 28.6968 6939.12 7271.16 93.18
7051 28.7006 6922.22 7271.80 93.36
7052 28.7043 7066.49 7272.45 94.31
7053 28.7081 6930.64 7273.14 93.39
7054 28.7119 7095.68 7273.84 95.43
7055 28.7156 6928.05 7274.54 93.86
7056 28.7194 6961.04 7275.29 94.43
7057 28.7231 6863.30 7276.03 93.65
7058 28.7269 7064.50 7276.82 94.74
7059 28.7306 6835.71 7277.60 92.82
7060 28.7344 6982.13 7278.43 94.39
7061 28.7382 6860.70 7279.28 93.68
7062 28.7419 6954.93 7280.12 94.21
7063 28.7457 6930.87 7281.01 94.21
7064 28.7494 7034.78 7281.90 95.33
7065 28.7532 6942.89 7282.84 93.85
7066 28.7570 6996.95 7283.79 94.10
7067 28.7607 6955.03 7284.74 94.19
7068 28.7645 7070.50 7285.74 94.60
7069 28.7682 6937.09 7286.74 93.52
7070 28.7720 7092.80 7287.78 95.40
7071 28.7758 6989.17 7288.85 94.27
7072 28.7795 7085.23 7289.91 95.44
7073 28.7833 6897.95 7291.02 94.34
7074 28.7870 7062.02 7292.13 94.72
7075 28.7908 7014.92 7293.29 94.07
7076 28.7946 7121.62 7294.48 94.67
7077 28.7983 6963.90 7295.65 93.93
7078 28.8021 7074.15 7296.88 94.64
7079 28.8058 7038.00 7298.10 95.14
7080 28.8096 7211.12 7299.39 95.62
7081 28.8133 7005.67 7300.65 93.77
7082 28.8171 7037.02 7301.98 94.50
7083 28.8209 7096.31 7303.34 96.04
7084 28.8246 6925.13 7304.68 94.72
7085 28.8284 6910.20 7306.09 93.39
7086 28.8321 7205.93 7307.48 95.55
7087 28.8359 6922.93 7308.94 94.42
7088 28.8397 7011.29 7310.42 94.55
7089 28.8434 6905.27 7311.89 93.95
7090 28.8472 7142.19 7313.42 95.87
7091 28.8509 7083.46 7314.94 95.29
7092 28.8547 7217.75 7316.52 95.99
7093 28.8585 7040.75 7318.14 94.41
7094 28.8622 7211.33 7319.73 94.48
7095 28.8660 7120.67 7321.40 94.44
7096 28.8697 7255.69 7323.05 96.67
7097 28.8735 6859.88 7324.77 93.49
7098 28.8773 7231.60 7326.52 95.51
7099 28.8810 7094.40 7328.25 95.30
7100 28.8848 7205.16 7330.05 96.52
7101 28.8885 7111.74 7331.83 94.44
7102 28.8923 7274.90 7333.69 96.47
7103 28.8961 7092.04 7335.58 95.34
7104 28.8998 7291.45 7337.44 96.82
7105 28.9036 7055.43 7339.38 94.11
7106 28.9073 7196.89 7341.30 95.77
7107 28.9111 7302.51 7343.30 97.34
7108 28.9148 7305.28 7345.27 96.93
7109 28.9186 7184.83 7347.33 95.65
7110 28.9224 7324.22 7349.41 96.76
7111 28.9261 7252.55 7351.47 95.68
7112 28.9299 7406.93 7353.61 98.74
7113 28.9336 7305.23 7355.72 97.85
7114 28.9374 7430.97 7357.92 98.22
7115 28.9412 7251.18 7360.14 97.33
7116 28.9449 7337.85 7362.34 96.68
7117 28.9487 7466.30 7367.66 98.58
7118 28.9524 7534.37 7369.92 97.76
7119 28.9562 7402.39 7372.27 98.04
7120 28.9600 7518.70 7374.64 98.71
7121 28.9637 7450.59 7376.99 97.31
7122 28.9675 7523.66 7379.42 98.09
7123 28.9712 7598.07 7381.82 99.51
7124 28.9750 7329.76 7384.31 95.96
7125 28.9788 7453.81 7386.83 98.28
7126 28.9825 7806.35 7389.31 100.17
7127 28.9863 7473.37 7391.90 98.60
7128 28.9900 7784.23 7394.44 101.39
7129 28.9938 7569.34 7397.08 99.08
7130 28.9976 7576.54 7399.75 100.74
7131 29.0013 7616.97 7402.39 98.71
7132 29.0051 7653.58 7405.12 100.25
7133 29.0088 7546.97 7407.82 98.20
7134 29.0126 7916.28 7410.62 101.01
7135 29.0164 7640.17 7413.46 99.89
7136 29.0201 7743.95 7416.25 99.32
7137 29.0239 7819.68 7419.16 101.74
7138 29.0276 7954.73 7422.02 101.46
7139 29.0314 7760.38 7425.00 101.17
7140 29.0352 7788.85 7428.01 100.44
7141 29.0389 7721.49 7430.99 100.13
7142 29.0427 7957.08 7434.08 101.95
7143 29.0464 7788.58 7437.14 100.54
7144 29.0502 7819.19 7440.31 101.52
7145 29.0540 7807.37 7443.53 101.61
7146 29.0577 7714.39 7446.72 99.85
7147 29.0615 7847.95 7450.03 101.32
7148 29.0652 7883.40 7453.31 101.75
7149 29.0690 7938.45 7456.71 103.24
7150 29.0727 7739.73 7460.09 99.67
7151 29.0765 7865.25 7463.60 101.99
7152 29.0803 7962.75 7467.18 101.82
7153 29.0840 7851.84 7470.71 101.30
7154 29.0878 7922.46 7474.40 102.13
7155 29.0915 7697.59 7478.05 100.27
7156 29.0953 7628.28 7481.86 100.57
7157 29.0991 7808.24 7485.74 102.04
7158 29.1028 7747.60 7489.58 100.21
7159 29.1066 7702.70 7493.59 100.94
7160 29.1103 7860.08 7497.57 101.44
7161 29.1141 7783.79 7501.73 101.90
7162 29.1179 7868.01 7505.96 100.92
7163 29.1216 7605.68 7510.17 100.84
7164 29.1254 7653.42 7514.56 101.30
7165 29.1291 7679.39 7518.93 100.90
7166 29.1329 7708.41 7523.50 101.59
7167 29.1367 7532.99 7528.16 99.20
7168 29.1404 7590.04 7532.78 100.44
7169 29.1442 7495.18 7537.64 100.08
7170 29.1479 7626.41 7542.45 98.70
7171 29.1517 7527.10 7547.51 98.97
7172 29.1555 7662.09 7552.66 100.96
7173 29.1592 7543.71 7557.80 100.66
7174 29.1630 7829.70 7563.18 100.67
7175 29.1667 7644.20 7568.53 100.82
7176 29.1705 7717.74 7574.12 99.62
7177 29.1743 7600.01 7579.88 99.44
7178 29.1780 7668.87 7585.60 99.06
7179 29.1818 7665.68 7591.62 101.42
7180 29.1855 7583.84 7597.61 99.58
7181 29.1893 7551.76 7603.91 98.92
7182 29.1931 7705.25 7610.37 100.41
7183 29.1968 7517.26 7616.80 99.06
7184 29.2006 7506.75 7623.58 96.71
7185 29.2043 7368.12 7630.34 96.84
7186 29.2081 7646.75 7637.47 100.89
7187 29.2119 7600.59 7644.77 100.95
7188 29.2156 7835.61 7652.07 102.21
7189 29.2194 7406.31 7659.76 98.99
7190 29.2231 7559.43 7667.46 100.37
7191 29.2269 7639.55 7675.57 101.25
7192 29.2307 7646.71 7683.92 101.47
7193 29.2344 7568.94 7692.27 100.20
7194 29.2382 7624.43 7701.09 100.59
7195 29.2419 7445.52 7709.93 99.69
7196 29.2457 7841.84 7719.27 102.24
7197 29.2495 7637.56 7728.90 99.83
7198 29.2532 7681.71 7738.54 98.91
7199 29.2570 7700.52 7748.76 101.93
7200 29.2607 7597.65 7759.01 99.69
7201 29.2645 7712.53 7769.87 101.70
7202 29.2683 7715.87 7781.08 101.65
7203 29.2720 7601.35 7792.36 99.58
7204 29.2758 7802.76 7804.30 102.86
7205 29.2795 7669.11 7816.32 100.94
7206 29.2833 7793.62 7829.07 99.76
7207 29.2871 7927.10 7842.27 103.30
7208 29.2908 8031.22 7855.54 104.45
7209 29.2946 7892.70 7869.66 102.89
7210 29.2983 7896.80 7883.88 101.74
7211 29.3021 7862.50 7899.01 101.76
7212 29.3059 7991.31 7914.69 102.09
7213 29.3096 7788.31 7930.49 101.34
7214 29.3134 8033.38 7947.32 104.37
7215 29.3171 7898.16 7964.30 101.62
7216 29.3209 8137.53 7982.40 103.67
7217 29.3246 7997.50 8000.68 101.99
7218 29.3284 8146.62 8020.13 104.24
7219 29.3322 8176.47 8040.35 105.19
7220 29.3359 8321.13 8060.79 105.13
7221 29.3397 8291.84 8082.56 103.72
7222 29.3435 8582.14 8105.20 107.83
7223 29.3472 8263.67 8128.07 102.31
7224 29.3510 8502.30 8152.50 104.48
7225 29.3547 8571.42 8177.18 105.88
7226 29.3585 8692.16 8203.57 109.60
7227 29.3622 8571.45 8230.22 105.99
7228 29.3660 8869.48 8258.69 111.45
7229 29.3698 8734.95 8288.29 107.32
7230 29.3735 8963.92 8318.21 108.01
7231 29.3773 8795.84 8350.18 107.16
7232 29.3810 8972.86 8382.54 110.62
7233 29.3848 9034.36 8417.04 111.31
7234 29.3886 9052.84 8452.94 108.50
7235 29.3923 9153.80 8489.23 110.23
7236 29.3961 9388.87 8528.00 114.05
7237 29.3998 9321.67 8567.22 113.48
7238 29.4036 9628.28 8609.01 114.57
7239 29.4074 9477.15 8652.49 111.31
7240 29.4111 9617.95 8696.42 116.74
7241 29.4149 9839.46 8743.29 118.16
7242 29.4186 10123.30 8790.65 119.22
7243 29.4224 10039.00 8841.16 117.23
7244 29.4262 10158.70 8893.60 118.87
7245 29.4299 10206.00 8946.54 117.72
7246 29.4337 10402.50 9002.97 117.98
7247 29.4374 10584.00 9059.96 121.82
7248 29.4412 10722.20 9120.56 120.93
7249 29.4450 10646.60 9183.44 118.90
7250 29.4487 11175.80 9246.83 124.10
7251 29.4525 11302.70 9314.30 125.11
7252 29.4562 11472.00 9382.26 129.06
7253 29.4600 11599.70 9454.55 127.96
7254 29.4638 11782.90 9529.37 131.42
7255 29.4675 11845.70 9604.65 129.62
7256 29.4713 12365.10 9684.64 133.77
7257 29.4750 12089.10 9765.06 129.50
7258 29.4788 12533.40 9850.42 135.50
7259 29.4826 12630.70 9938.60 133.41
7260 29.4863 13036.40 10027.20 136.40
7261 29.4901 13196.90 10121.00 135.70
7262 29.4938 13664.80 10215.30 141.88
7263 29.4976 13672.30 10315.00 140.99
7264 29.5014 14196.00 10417.70 143.26
7265 29.5051 13932.90 10520.70 142.68
7266 29.5089 14720.90 10629.70 147.04
7267 29.5126 14830.90 10738.70 149.03
7268 29.5164 15108.20 10853.90 149.78
7269 29.5202 15314.30 10972.30 150.85
7270 29.5239 16073.10 11090.60 153.29
7271 29.5277 16067.40 11215.40 156.94
7272 29.5314 16436.90 11340.00 155.34
7273 29.5352 16396.50 11471.30 155.15
7274 29.5390 16769.40 11605.90 154.54
7275 29.5427 17133.40 11740.00 159.91
7276 29.5465 17499.20 11881.10 161.08
7277 29.5502 17778.00 12021.60 164.37
7278 29.5540 18292.60 12169.10 168.93
7279 29.5578 18304.20 12319.90 163.99
7280 29.5615 18913.10 12469.70 173.14
7281 29.5653 18780.30 12626.90 171.46
7282 29.5690 19232.00 12782.80 173.76
7283 29.5728 19112.00 12946.20 167.30
7284 29.5766 19216.90 13112.60 172.61
7285 29.5803 19555.10 13277.40 173.96
7286 29.5841 19975.40 13449.70 176.78
7287 29.5878 19860.60 13620.10 178.36
7288 29.5916 20223.30 13798.00 175.99
7289 29.5954 19828.00 13978.40 178.11
7290 29.5991 20267.80 14156.80 176.35
7291 29.6029 20295.30 14342.40 180.12
7292 29.6066 20693.90 14525.30 180.43
7293 29.6104 20106.30 14715.60 175.23
7294 29.6142 20536.40 14908.00 177.93
7295 29.6179 20324.50 15097.10 177.08
7296 29.6217 20317.70 15293.30 176.11
7297 29.6254 19915.20 15485.80 175.14
7298 29.6292 20148.90 15685.20 175.66
7299 29.6330 19709.10 15885.90 171.69
7300 29.6367 20106.70 16082.30 172.86
7301 29.6405 19431.60 16285.00 170.51
7302 29.6442 19601.30 16483.00 168.84
7303 29.6480 19040.40 16687.00 168.40
7304 29.6518 19023.30 16891.10 170.42
7305 29.6555 18294.90 17090.00 166.37
7306 29.6593 18343.40 17293.90 166.85
7307 29.6630 17752.00 17492.10 163.03
7308 29.6668 18034.60 17694.80 164.37
7309 29.6706 17755.70 17896.40 163.63
7310 29.6743 17559.30 18091.20 162.70
7311 29.6781 17012.50 18289.70 157.57
7312 29.6818 16962.80 18480.80 157.37
7313 29.6856 16489.50 18674.90 155.57
7314 29.6894 16625.10 18865.90 157.70
7315 29.6931 16451.70 19049.10 156.53
7316 29.6969 16475.30 19233.70 156.24
7317 29.7006 16206.40 19409.50 156.95
7318 29.7044 16455.40 19585.90 155.46
7319 29.7082 16076.10 19757.40 153.48
7320 29.7119 16586.70 19919.60 156.90
7321 29.7157 16186.00 20080.60 153.37
7322 29.7194 16810.30 20231.70 155.93
7323 29.7232 17258.10 20380.50 160.96
7324 29.7270 17954.60 20522.60 164.35
7325 29.7307 18205.40 20654.00 164.64
7326 29.7345 19834.00 20781.50 175.00
7327 29.7382 21454.80 20897.90 184.00
7328 29.7420 23270.50 21009.30 189.83
7329 29.7458 25530.20 21111.80 204.70
7330 29.7495 28017.00 21203.10 215.00
7331 29.7533 30257.40 21287.40 226.85
7332 29.7570 32890.50 21360.30 238.18
7333 29.7608 33279.40 21425.30 240.40
7334 29.7646 34631.80 21480.20 245.36
7335 29.7683 33696.60 21523.70 240.60
7336 29.7721 33529.60 21557.90 238.78
7337 29.7758 32063.10 21581.00 232.67
7338 29.7796 31218.10 21594.20 228.52
7339 29.7834 29351.00 21596.60 221.35
7340 29.7871 29078.00 21588.50 221.33
7341 29.7909 27428.50 21569.50 213.37
7342 29.7946 26650.80 21540.80 208.91
7343 29.7984 25474.60 21500.90 202.66
7344 29.8022 25168.40 21450.50 200.49
7345 29.8059 24179.20 21391.60 192.86
7346 29.8097 23530.50 21321.20 192.66
7347 29.8134 22598.40 21243.20 188.09
7348 29.8172 22555.20 21153.70 188.30
7349 29.8210 21517.00 21054.90 182.75
7350 29.8247 21225.80 20950.20 183.14
7351 29.8285 20411.80 20834.20 173.20
7352 29.8322 20280.40 20713.40 176.99
7353 29.8360 19448.40 20581.70 168.26
7354 29.8398 19572.90 20442.60 174.17
7355 29.8435 18761.10 20300.20 166.30
7356 29.8473 18312.10 20147.60 167.21
7357 29.8510 18181.00 19993.10 162.73
7358 29.8548 18012.50 19828.60 166.92
7359 29.8586 17127.00 19659.00 159.26
7360 29.8623 17361.60 19488.80 161.72
7361 29.8661 16755.80 19309.80 156.61
7362 29.8698 16617.40 19131.30 157.06
7363 29.8736 15993.50 18944.50 154.38
7364 29.8774 16199.40 18754.20 152.77
7365 29.8811 15616.00 18566.20 154.42
7366 29.8849 15540.80 18370.20 152.30
7367 29.8886 14949.80 18177.40 145.83
7368 29.8924 14890.30 17977.40 146.15
7369 29.8962 14933.30 17776.10 150.81
7370 29.8999 14509.10 17578.60 142.35
7371 29.9037 14055.70 17375.10 141.33
7372 29.9074 14005.60 17176.10 143.68
7373 29.9112 13859.20 16971.40 143.20
7374 29.9150 13865.70 16766.70 142.44
7375 29.9187 13294.50 16567.40 139.27
7376 29.9225 13511.80 16363.30 140.47
7377 29.9262 13260.50 16164.90 140.01
7378 29.9300 13224.00 15962.20 136.45
7379 29.9338 12747.00 15760.50 134.73
7380 29.9375 12682.90 15565.30 133.97
7381 29.9413 12471.00 15366.00 131.81
7382 29.9450 12653.90 15174.00 133.74
7383 29.9488 12075.40 14978.10 129.66
7384 29.9526 12237.20 14784.40 130.42
7385 29.9563 11891.60 14597.60 128.32
7386 29.9601 11881.90 14408.20 128.53
7387 29.9638 11758.60 14225.80 126.80
7388 29.9676 11858.70 14041.10 127.53
7389 29.9713 11292.10 13863.60 127.03
7390 29.9751 11519.00 13683.90 127.18
7391 29.9789 11170.40 13507.10 125.46
7392 29.9826 11465.40 13337.60 128.00
7393 29.9864 11062.40 13166.50 124.69
7394 29.9901 11096.10 13002.60 124.28
7395 29.9939 10588.50 12837.40 118.40
7396 29.9977 10892.40 12675.30 123.33
7397 30.0014 10718.80 12520.50 123.42
7398 30.0052 10726.70 12364.40 122.98
7399 30.0089 10239.80 12215.80 118.15
7400 30.0127 10463.10 12066.20 118.53
7401 30.0165 10281.70 11920.10 119.25
7402 30.0202 10498.30 11780.80 121.77
7403 30.0240 10270.00 11641.20 118.81
7404 30.0277 10340.90 11508.20 120.90
7405 30.0315 10077.40 11375.10 119.02
7406 30.0353 10271.70 11245.10 120.25
7407 30.0390 9869.96 11121.70 116.63
7408 30.0428 10020.70 10998.30 118.28
7409 30.0465 9846.50 10881.20 116.31
7410 30.0503 9813.32 10764.20 117.27
7411 30.0541 9538.04 10650.30 116.95
7412 30.0578 9688.01 10542.50 115.04
7413 30.0616 9586.87 10434.90 114.61
7414 30.0653 9552.24 10333.00 115.66
7415 30.0691 9462.94 10231.50 115.12
7416 30.0729 9612.18 10133.10 113.50
7417 30.0766 9351.55 10040.00 114.75
7418 30.0804 9431.84 9947.37 111.60
7419 30.0841 9263.23 9859.88 115.13
7420 30.0879 9355.35 9772.92 111.65
7421 30.0917 9223.81 9688.66 109.78
7422 30.0954 9335.77 9609.30 111.00
7423 30.0992 9047.71 9530.38 110.23
7424 30.1029 9254.91 9456.03 110.65
7425 30.1067 9075.71 9382.29 109.69
7426 30.1105 9333.23 9310.97 111.44
7427 30.1142 8776.52 9243.93 108.92
7428 30.1180 9006.81 9177.38 108.05
7429 30.1217 8762.76 9114.79 107.25
7430 30.1255 8922.77 9052.82 108.09
7431 30.1293 8851.21 8992.99 107.64
7432 30.1330 8815.22 8936.77 107.36
7433 30.1368 8678.53 8881.15 105.98
7434 30.1405 8779.14 8828.88 107.68
7435 30.1443 8908.36 8777.18 108.87
7436 30.1481 8651.27 8727.33 105.31
7437 30.1518 8503.48 8680.60 105.25
7438 30.1556 8685.88 8634.32 105.75
7439 30.1593 8741.63 8590.95 108.59
7440 30.1631 8597.20 8548.02 105.42
7441 30.1669 8322.44 8506.70 103.41
7442 30.1706 8397.30 8467.98 102.55
7443 30.1744 8452.34 8429.67 106.51
7444 30.1781 8537.36 8393.76 105.82
7445 30.1819 8462.47 8358.29 103.62
7446 30.1856 8388.92 8325.00 103.57
7447 30.1894 8441.49 8292.13 103.77
7448 30.1932 8329.28 8260.47 102.81
7449 30.1969 8326.30 8230.79 103.14
7450 30.2007 8326.65 8201.48 103.29
7451 30.2044 8377.21 8173.97 105.18
7452 30.2082 8212.05 8146.80 103.01
7453 30.2120 8138.85 8120.62 103.86
7454 30.2157 8343.11 8096.08 105.08
7455 30.2195 8090.29 8071.80 102.07
7456 30.2232 8087.53 8049.04 102.65
7457 30.2270 8026.92 8026.49 103.73
7458 30.2308 8354.45 8004.77 105.87
7459 30.2345 7968.13 7984.37 102.49
7460 30.2383 8127.36 7964.20 103.71
7461 30.2420 8057.81 7945.23 103.82
7462 30.2458 8047.99 7926.45 103.36
7463 30.2496 7902.27 7908.33 99.85
7464 30.2533 8085.99 7891.30 102.46
7465 30.2571 7927.17 7874.40 99.92
7466 30.2608 8071.90 7858.49 102.14
7467 30.2646 7988.49 7842.73 103.08
7468 30.2684 8149.42 7827.48 101.39
7469 30.2721 7926.31 7813.13 102.53
7470 30.2759 8193.61 7798.86 104.60
7471 30.2796 7832.87 7785.42 100.82
7472 30.2834 7849.81 7772.05 100.55
7473 30.2872 7940.99 7759.10 101.47
7474 30.2909 7846.23 7746.87 100.81
7475 30.2947 7949.21 7734.71 102.05
7476 30.2984 7790.26 7723.22 100.05
7477 30.3022 7604.72 7711.77 98.84
7478 30.3060 7920.94 7700.65 101.66
7479 30.3097 7800.44 7690.15 100.28
7480 30.3135 7930.18 7679.66 100.79
7481 30.3172 7534.50 7669.73 99.57
7482 30.3210 7752.00 7659.81 100.45
7483 30.3247 7692.52 7650.41 100.46
7484 30.3285 7662.07 7641.03 100.51
7485 30.3323 7710.51 7631.88 99.81
7486 30.3360 7719.53 7623.21 100.34
7487 30.3398 7624.80 7614.53 99.39
7488 30.3435 7637.20 7606.29 96.85
7489 30.3473 7551.17 7598.03 97.82
7490 30.3511 7653.32 7589.98 98.59
7491 30.3548 7341.44 7582.33 97.76
7492 30.3586 7652.95 7574.66 100.34
7493 30.3623 7431.45 7567.35 97.41
7494 30.3661 7718.44 7560.03 99.90
7495 30.3699 7500.46 7552.87 98.58
7496 30.3736 7555.54 7546.06 97.91
7497 30.3774 7338.90 7539.21 97.52
7498 30.3811 7463.30 7532.69 96.94
7499 30.3849 7475.92 7526.13 96.43
7500 30.3887 7585.01 7519.72 98.17
7501 30.3924 7271.77 7513.60 96.37
7502 30.3962 7509.70 7507.44 97.69
7503 30.3999 7367.45 7501.58 97.46
7504 30.4037 7533.11 7495.67 97.77
7505 30.4075 7403.98 7489.87 97.45
7506 30.4112 7636.57 7484.34 99.56
7507 30.4150 7373.35 7478.78 96.42
7508 30.4187 7369.77 7473.46 98.08
7509 30.4225 7439.31 7468.11 96.84
7510 30.4262 7406.11 7462.99 96.71
7511 30.4300 7358.98 7457.84 97.85
7512 30.4338 7497.79 7452.77 97.24
7513 30.4375 7335.84 7447.94 96.27
7514 30.4413 7454.21 7443.06 98.29
7515 30.4450 7376.54 7438.40 95.36
7516 30.4488 7529.68 7433.69 100.71
7517 30.4526 7332.62 7429.07 96.05
7518 30.4563 7374.43 7424.65 94.47
7519 30.4601 7223.55 7420.20 96.12
7520 30.4638 7533.36 7415.93 98.55
7521 30.4676 7127.83 7411.63 96.58
7522 30.4714 7376.33 7407.39 97.09
7523 30.4751 7168.39 7403.35 95.29
7524 30.4789 7475.61 7399.26 96.78
7525 30.4826 7208.23 7395.35 94.78
7526 30.4864 7395.56 7391.40 98.05
7527 30.4902 7408.45 7387.52 97.93
7528 30.4939 7313.31 7383.81 96.99
7529 30.4977 7291.14 7380.05 96.75
7530 30.5014 7426.46 7376.46 97.51
7531 30.5052 7276.99 7372.83 95.44
7532 30.5089 7246.87 7369.36 96.84
7533 30.5127 7306.73 7365.84 96.76
7534 30.5165 7555.53 7362.39 97.56
7535 30.5202 7269.68 7359.08 96.75
7536 30.5240 7414.88 7355.74 96.99
7537 30.5277 7237.02 7352.54 95.19
7538 30.5315 7283.30 7349.30 96.57
7539 30.5353 7228.76 7346.12 96.11
7540 30.5390 7552.27 7343.07 98.50
7541 30.5428 7533.28 7339.99 98.72
7542 30.5465 7470.44 7337.03 98.56
7543 30.5503 7396.85 7334.05 97.28
7544 30.5541 7551.41 7331.11 97.11
7545 30.5578 7448.14 7328.29 98.30
7546 30.5616 7389.79 7325.44 97.85
7547 30.5653 7479.01 7322.71 99.57
7548 30.5691 7570.22 7319.95 98.47
7549 30.5728 7342.36 7317.30 95.27
7550 30.5766 7529.21 7314.62 97.35
7551 30.5804 7505.99 7311.98 98.21
7552 30.5841 7619.63 7309.45 98.04
7553 30.5879 7437.76 7306.89 97.43
7554 30.5916 7696.45 7304.44 98.21
7555 30.5954 7502.08 7301.95 98.11
7556 30.5992 7650.01 7299.50 99.66
7557 30.6029 7428.32 7297.15 97.17
7558 30.6067 7699.81 7294.77 99.44
7559 30.6104 7515.21 7292.49 96.31
7560 30.6142 7811.89 7290.18 99.53
7561 30.6180 7407.89 7287.90 96.83
7562 30.6217 7564.25 7285.71 95.92
7563 30.6255 7688.70 7283.49 99.23
7564 30.6292 7605.81 7281.36 98.75
7565 30.6330 7749.81 7279.19 99.58
7566 30.6367 7854.88 7277.12 98.30
7567 30.6405 7695.76 7275.01 100.35
7568 30.6443 7810.32 7272.94 100.50
7569 30.6480 7557.09 7270.94 98.43
7570 30.6518 7776.21 7268.91 98.57
7571 30.6555 7691.88 7266.96 99.94
7572 30.6593 7991.58 7264.99 101.63
7573 30.6631 7880.92 7263.03 100.34
7574 30.6668 7953.18 7261.15 99.51
7575 30.6706 7753.00 7259.24 100.08
7576 30.6743 7942.22 7257.41 101.04
7577 30.6781 7770.72 7255.54 100.07
7578 30.6819 8041.83 7253.70 102.58
7579 30.6856 7986.79 7251.92 102.64
7580 30.6894 7932.86 7250.12 100.35
7581 30.6931 7903.55 7248.38 101.67
7582 30.6969 8044.53 7246.62 102.93
7583 30.7006 8077.23 7244.92 102.18
7584 30.7044 7966.87 7243.19 102.11
7585 30.7082 8031.31 7241.48 103.50
7586 30.7119 8033.63 7239.84 101.44
7587 30.7157 7787.17 7238.17 101.37
7588 30.7194 8084.16 7236.56 102.35
7589 30.7232 7813.75 7234.93 100.91
7590 30.7270 7978.95 7233.31 101.40
7591 30.7307 7949.39 7231.75 101.69
7592 30.7345 7979.95 7230.17 101.21
7593 30.7382 7849.54 7228.65 99.70
7594 30.7420 8197.06 7227.10 102.31
7595 30.7457 7970.83 7225.61 101.74
7596 30.7495 7791.63 7224.10 100.96
7597 30.7533 7819.75 7222.61 97.62
7598 30.7570 8078.61 7221.18 102.73
7599 30.7608 7863.51 7219.72 101.36
7600 30.7645 7849.63 7218.32 100.56
7601 30.7683 7754.55 7216.90 99.74
7602 30.7721 7846.27 7215.49 99.06
7603 30.7758 7587.61 7214.14 96.80
7604 30.7796 7806.83 7212.78 99.02
7605 30.7833 7698.23 7211.47 98.82
7606 30.7871 7695.64 7210.14 98.52
7607 30.7908 7673.74 7208.86 99.21
7608 30.7946 7718.87 7207.57 99.86
7609 30.7984 7541.54 7206.29 98.48
7610 30.8021 7616.50 7205.07 96.51
7611 30.8059 7509.67 7203.84 97.32
7612 30.8096 7521.62 7202.65 98.18
7613 30.8134 7335.49 7201.45 96.00
7614 30.8172 7681.53 7200.27 99.86
7615 30.8209 7315.99 7199.14 95.49
7616 30.8247 7513.80 7198.00 97.87
7617 30.8284 7316.04 7196.91 98.15
7618 30.8322 7377.20 7195.81 97.48
7619 30.8359 7398.65 7194.75 97.14
7620 30.8397 7307.87 7193.69 96.34
7621 30.8435 7333.97 7192.64 97.04
7622 30.8472 7266.52 7191.64 96.57
7623 30.8510 7263.51 7190.64 97.34
7624 30.8547 7386.43 7189.68 96.68
7625 30.8585 7170.53 7188.71 96.69
7626 30.8623 7312.83 7187.76 97.10
7627 30.8660 7098.51 7186.86 94.95
7628 30.8698 7339.63 7185.95 97.93
7629 30.8735 7211.24 7185.09 96.52
7630 30.8773 7342.61 7184.22 97.80
7631 30.8810 7191.15 7183.40 96.24
7632 30.8848 7228.36 7182.57 96.80
7633 30.8886 7040.43 7181.76 93.20
7634 30.8923 7176.86 7180.99 96.35
7635 30.8961 7210.85 7180.22 96.49
7636 30.8998 6992.42 7179.49 93.45
7637 30.9036 7105.59 7178.77 95.18
7638 30.9074 7070.70 7178.06 94.32
7639 30.9111 6994.25 7177.38 95.11
7640 30.9149 7151.18 7176.72 95.03
7641 30.9186 6949.25 7176.08 94.47
7642 30.9224 7100.19 7175.45 94.14
7643 30.9261 6912.73 7174.86 92.95
7644 30.9299 7065.18 7174.27 95.63
7645 30.9337 6801.12 7173.70 93.20
7646 30.9374 6918.06 7173.16 93.55
7647 30.9412 6985.71 7172.78 93.66
7648 30.9449 7040.03 7172.28 94.58
7649 30.9487 7148.87 7171.79 95.88
7650 30.9524 7066.55 7171.33 95.55
7651 30.9562 6874.58 7170.88 93.20
7652 30.9600 7003.35 7170.44 94.63
7653 30.9637 6838.14 7170.04 93.21
7654 30.9675 6979.33 7169.65 93.44
7655 30.9712 6864.30 7169.28 93.23
7656 30.9750 7040.42 7168.93 94.76
7657 30.9787 6846.74 7168.60 92.55
7658 30.9825 6956.94 7168.28 94.04
7659 30.9863 6816.76 7167.98 92.83
7660 30.9900 7102.09 7167.71 95.46
7661 30.9938 6868.93 7167.45 93.79
7662 30.9975 7038.54 7167.22 95.32
7663 31.0013 6766.22 7166.99 92.67
7664 31.0051 7011.25 7166.79 95.55
7665 31.0088 6895.08 7166.61 94.61
7666 31.0126 7013.26 7166.44 93.82
7667 31.0163 6855.91 7166.29 93.60
7668 31.0201 7065.52 7166.16 95.29
7669 31.0238 6827.63 7166.05 93.06
7670 31.0276 7078.90 7165.96 94.00
7671 31.0314 7039.45 7165.88 94.18
7672 31.0351 7046.07 7165.82 95.54
7673 31.0389 6994.23 7165.78 94.57
7674 31.0426 7008.21 7165.75 94.90
7675 31.0464 6890.65 7165.74 94.38
7676 31.0501 7086.32 7165.75 95.17
7677 31.0539 7053.65 7165.78 94.06
7678 31.0577 6959.44 7165.82 94.05
7679 31.0614 7147.84 7165.87 93.68
7680 31.0652 6855.74 7165.95 92.79
7681 31.0689 6976.96 7166.03 93.36
7682 31.0727 7078.72 7166.14 94.03
7683 31.0764 6937.41 7166.25 94.12
7684 31.0802 7117.43 7166.39 95.02
7685 31.0840 7158.19 7166.54 94.47
7686 31.0877 7167.26 7166.70 94.55
7687 31.0915 7102.94 7166.88 95.25
7688 31.0952 7215.12 7167.06 94.89
7689 31.0990 7010.48 7167.27 95.62
7690 31.1027 7032.67 7167.48 93.69
7691 31.1065 6982.94 7167.72 94.45
7692 31.1103 7238.02 7167.96 95.20
7693 31.1140 7227.64 7168.21 95.44
7694 31.1178 7164.69 7168.48 95.70
7695 31.1215 7161.07 7168.76 94.94
7696 31.1253 7172.27 7169.05 95.46
7697 31.1290 7039.28 7169.35 94.95
7698 31.1328 7304.88 7169.66 96.17
7699 31.1366 7171.49 7169.99 95.51
7700 31.1403 7192.69 7170.32 95.75
7701 31.1441 7267.30 7170.66 96.17
7702 31.1478 7236.17 7171.01 95.44
7703 31.1516 7356.46 7171.37 96.19
7704 31.1553 7348.45 7171.73 96.02
7705 31.1591 7338.70 7172.11 96.77
7706 31.1629 7286.86 7172.50 97.06
7707 31.1666 7361.12 7172.88 97.36
7708 31.1704 7596.71 7173.28 99.72
7709 31.1741 7421.40 7173.68 98.13
7710 31.1779 7434.83 7174.09 96.78
7711 31.1816 7457.89 7174.50 98.13
7712 31.1854 7631.27 7174.93 100.26
7713 31.1892 7437.13 7175.36 95.67
7714 31.1929 7535.94 7175.78 98.58
7715 31.1967 7449.11 7176.22 96.48
7716 31.2004 7709.35 7176.65 99.64
7717 31.2042 7573.26 7177.10 98.85
7718 31.2079 7543.27 7177.54 97.29
7719 31.2117 7538.68 7177.99 98.30
7720 31.2155 7465.33 7178.45 96.67
7721 31.2192 7553.64 7178.90 98.18
7722 31.2230 7727.40 7179.36 99.25
7723 31.2267 7532.90 7179.82 98.25
7724 31.2305 7738.03 7180.29 100.19
7725 31.2342 7747.95 7180.75 100.06
7726 31.2380 7960.91 7181.23 101.10
7727 31.2418 7549.70 7181.71 98.47
7728 31.2455 7983.86 7182.18 101.77
7729 31.2493 7723.84 7182.67 100.64
7730 31.2530 7637.93 7183.15 98.54
7731 31.2568 7753.21 7183.65 99.42
7732 31.2605 7805.05 7184.14 101.66
7733 31.2643 7711.92 7184.64 99.00
7734 31.2681 7746.71 7185.16 100.96
7735 31.2718 7643.11 7185.66 98.82
7736 31.2756 7853.12 7186.19 100.66
7737 31.2793 7568.49 7186.71 98.64
7738 31.2831 7613.32 7187.25 97.89
7739 31.2868 7618.07 7187.78 99.60
7740 31.2906 7722.75 7188.33 100.51
7741 31.2944 7644.75 7188.90 98.26
7742 31.2981 7543.64 7189.46 98.79
7743 31.3019 7418.95 7190.04 97.51
7744 31.3056 7661.10 7190.62 98.54
7745 31.3094 7461.50 7191.23 98.70
7746 31.3131 7509.09 7191.83 98.50
7747 31.3169 7502.28 7192.45 98.87
7748 31.3207 7507.81 7193.09 97.73
7749 31.3244 7494.21 7193.73 98.41
7750 31.3282 7487.31 7194.40 99.75
7751 31.3319 7453.55 7195.06 98.75
7752 31.3357 7399.03 7195.76 97.94
7753 31.3394 7432.91 7196.45 97.29
7754 31.3432 7379.95 7197.18 98.31
7755 31.3469 7305.85 7197.91 97.42
7756 31.3507 7371.97 7198.67 97.77
7757 31.3545 7448.29 7199.45 96.67
7758 31.3582 7347.36 7200.22 97.58
7759 31.3620 7301.78 7201.04 97.14
7760 31.3657 7331.46 7201.84 97.01
7761 31.3695 7378.82 7202.70 98.04
7762 31.3732 7315.67 7203.54 97.85
7763 31.3770 7045.69 7204.44 96.19
7764 31.3808 7165.43 7205.34 94.13
7765 31.3845 7025.90 7206.25 95.86
7766 31.3883 7253.03 7207.20 96.07
7767 31.3920 7031.16 7208.15 94.77
7768 31.3958 7091.21 7209.15 95.51
7769 31.3995 6999.66 7210.14 95.49
7770 31.4033 7165.58 7211.18 96.92
7771 31.4070 7026.05 7212.22 95.67
7772 31.4108 7139.14 7213.30 95.65
7773 31.4146 6889.94 7214.41 93.03
7774 31.4183 7111.93 7215.52 94.64
7775 31.4221 7092.23 7216.68 97.21
7776 31.4258 6857.75 7217.83 93.26
7777 31.4296 6928.34 7219.04 95.16
7778 31.4333 7018.31 7220.25 95.20
7779 31.4371 7023.47 7221.51 95.84
7780 31.4409 7087.19 7222.80 95.69
7781 31.4446 6871.50 7224.08 93.53
7782 31.4484 6928.41 7225.42 93.96
7783 31.4521 6775.13 7226.75 93.60
7784 31.4559 6912.96 7228.15 93.50
7785 31.4596 6794.66 7229.53 93.74
7786 31.4634 6857.44 7230.98 91.52
7787 31.4671 6787.83 7232.42 91.78
7788 31.4709 6914.62 7233.93 94.71
7789 31.4747 6866.59 7235.47 93.60
7790 31.4784 6917.74 7237.00 93.80
7791 31.4822 6973.63 7238.59 94.52
7792 31.4859 6890.86 7240.18 94.24
7793 31.4897 6855.51 7241.84 92.80
7794 31.4934 6926.57 7243.48 94.17
7795 31.4972 6827.39 7245.20 94.11
7796 31.5009 7072.10 7246.90 95.83
7797 31.5047 6930.67 7248.69 94.09
7798 31.5085 6985.22 7250.50 94.04
7799 31.5122 6788.43 7252.30 93.04
7800 31.5160 6931.43 7254.18 95.59
7801 31.5197 6811.56 7256.04 94.54
7802 31.5235 6899.53 7257.99 94.49
7803 31.5272 6793.86 7259.92 95.67
7804 31.5310 6933.42 7261.93 95.78
7805 31.5347 6848.70 7263.92 93.00
7806 31.5385 6872.79 7266.01 93.48
7807 31.5423 6812.42 7268.13 94.55
7808 31.5460 6998.95 7270.23 95.39
7809 31.5498 6751.63 7272.41 91.46
7810 31.5535 6903.56 7274.58 95.32
7811 31.5573 6870.01 7276.85 91.86
7812 31.5610 6899.06 7279.09 94.20
7813 31.5648 6886.41 7281.43 94.67
7814 31.5685 7035.56 7283.74 94.37
7815 31.5723 6689.76 7286.15 92.71
7816 31.5761 7014.76 7288.61 96.93
7817 31.5798 6757.72 7291.04 93.01
7818 31.5836 6818.96 7293.57 95.26
7819 31.5873 6925.97 7296.08 94.04
7820 31.5911 6928.14 7298.69 93.97
7821 31.5948 6827.33 7301.28 93.54
7822 31.5986 6959.86 7303.98 95.12
7823 31.6023 6822.02 7306.64 93.24
7824 31.6061 6945.21 7309.43 94.49
7825 31.6099 6787.47 7312.25 93.27
7826 31.6136 6868.92 7315.05 92.40
7827 31.6174 6859.01 7317.97 95.01
7828 31.6211 6985.02 7320.85 95.79
7829 31.6249 6887.90 7323.86 95.63
7830 31.6286 6833.87 7326.83 94.18
7831 31.6324 6855.23 7329.93 95.15
7832 31.6361 6882.85 7332.99 92.54
7833 31.6399 6846.28 7336.19 94.74
7834 31.6437 6855.49 7339.44 92.39
7835 31.6474 6876.45 7342.64 94.48
7836 31.6512 6933.54 7345.99 95.66
7837 31.6549 6860.10 7349.30 93.04
7838 31.6587 6929.00 7352.75 95.46
7839 31.6624 6835.62 7356.16 94.27
7840 31.6662 7003.63 7359.71 94.37
7841 31.6699 6822.63 7363.23 93.79
7842 31.6737 6701.58 7366.90 92.99
7843 31.6775 6793.77 7370.62 93.46
7844 31.6812 6997.20 7374.30 95.64
7845 31.6850 6898.72 7378.14 94.83
7846 31.6887 6935.34 7381.94 95.67
7847 31.6925 6749.79 7385.90 92.69
7848 31.6962 6813.86 7389.81 94.03
7849 31.7000 6848.70 7393.89 92.63
7850 31.7037 6932.17 7397.93 95.41
7851 31.7075 6895.14 7402.14 94.05
7852 31.7112 6899.93 7406.30 93.64
7853 31.7150 6846.95 7410.65 94.57
7854 31.7188 6826.63 7415.06 93.84
7855 31.7225 6945.41 7419.42 95.10
7856 31.7263 6941.31 7423.98 95.46
7857 31.7300 6929.25 7428.48 94.56
7858 31.7338 6922.38 7433.18 92.92
7859 31.7375 6946.49 7437.84 94.73
7860 31.7413 6904.68 7442.69 95.13
7861 31.7450 6860.32 7447.49 93.39
7862 31.7488 6933.86 7452.50 94.97
7863 31.7525 6985.15 7457.47 95.47
7864 31.7563 7049.04 7462.64 95.10
7865 31.7601 6901.65 7467.91 94.74
7866 31.7638 7162.12 7473.12 97.43
7867 31.7676 7076.09 7478.57 96.75
7868 31.7713 7256.65 7483.97 98.49
7869 31.7751 6841.01 7489.60 92.32
7870 31.7788 7122.37 7495.18 96.50
7871 31.7826 7001.97 7501.01 95.92
7872 31.7863 6956.36 7506.79 95.10
7873 31.7901 6965.60 7512.83 92.87
7874 31.7938 7037.54 7518.82 96.31
7875 31.7976 7122.35 7525.07 95.38
7876 31.8014 7038.41 7531.45 95.26
7877 31.8051 6783.91 7537.77 93.42
7878 31.8089 7045.18 7544.39 95.38
7879 31.8126 7048.46 7550.94 95.15
7880 31.8164 7254.49 7557.81 97.70
7881 31.8201 7014.72 7564.62 95.27
7882 31.8239 7033.13 7571.76 94.61
7883 31.8276 6831.09 7578.84 93.28
7884 31.8314 7190.47 7586.26 97.20
7885 31.8351 6823.18 7593.63 94.08
7886 31.8389 7148.20 7601.36 96.21
7887 31.8427 7076.04 7609.25 96.86
7888 31.8464 7128.28 7617.09 95.70
7889 31.8502 6874.81 7625.31 92.35
7890 31.8539 7203.01 7633.49 97.37
7891 31.8577 7131.81 7642.08 94.32
7892 31.8614 7087.01 7650.62 96.48
7893 31.8652 7163.35 7659.60 96.19
7894 31.8689 7044.59 7668.54 96.60
7895 31.8727 7311.20 7677.92 97.67
7896 31.8764 7292.64 7687.28 96.66
7897 31.8802 7213.09 7697.12 95.61
7898 31.8839 7329.64 7706.92 97.74
7899 31.8877 7042.91 7717.24 95.13
7900 31.8915 7079.78 7727.82 94.12
7901 31.8952 6959.60 7738.38 93.26
7902 31.8990 7336.52 7749.49 97.80
7903 31.9027 7295.44 7760.61 95.98
7904 31.9065 7234.94 7772.31 95.40
7905 31.9102 7313.08 7784.02 96.48
7906 31.9140 7409.13 7796.36 98.52
7907 31.9177 7181.52 7808.70 96.49
7908 31.9215 7220.19 7821.73 95.92
7909 31.9252 7339.72 7834.76 99.07
7910 31.9290 7400.10 7848.54 98.52
7911 31.9327 7327.28 7862.34 96.83
7912 31.9365 7593.36 7876.91 99.94
7913 31.9403 7499.86 7891.93 99.34
7914 31.9440 7410.93 7906.98 96.21
7915 31.9478 7388.97 7922.90 97.69
7916 31.9515 7536.89 7938.87 98.67
7917 31.9553 7306.12 7955.75 96.59
7918 31.9590 7347.90 7972.73 98.32
7919 31.9628 7555.09 7990.71 99.23
7920 31.9665 7628.05 8008.79 100.03
7921 31.9703 7634.44 8027.93 99.78
7922 31.9740 7696.55 8047.18 99.94
7923 31.9778 7500.17 8067.57 98.09
7924 31.9815 7729.11 8088.10 98.47
7925 31.9853 7734.45 8109.86 101.19
7926 31.9891 7830.10 8132.39 99.97
7927 31.9913 7767.32 8145.73 100.49
7928 31.9950 7736.68 8168.83 99.78
7929 31.9988 7790.94 8193.35 100.70
7930 32.0025 8058.30 8218.02 104.21
7931 32.0063 7919.51 8244.23 103.07
7932 32.0100 8076.96 8270.63 103.41
7933 32.0138 7968.00 8298.65 104.81
7934 32.0176 8102.74 8327.68 104.72
7935 32.0213 8084.98 8356.90 102.26
7936 32.0251 8005.59 8387.98 102.02
7937 32.0288 8215.43 8419.27 105.22
7938 32.0326 8318.51 8452.55 105.31
7939 32.0363 8308.69 8486.06 102.93
7940 32.0401 8534.62 8521.70 107.57
7941 32.0438 8469.82 8557.60 103.51
7942 32.0476 8546.51 8595.78 106.43
7943 32.0513 8653.96 8634.24 107.83
7944 32.0551 8883.42 8675.13 107.79
7945 32.0589 8844.68 8717.45 108.63
7946 32.0626 9097.88 8759.38 112.39
7947 32.0664 8991.86 8804.78 109.39
7948 32.0701 9197.07 8850.39 112.91
7949 32.0739 9333.83 8898.98 111.42
7950 32.0776 9349.02 8947.85 111.43
7951 32.0814 9418.53 9001.84 112.30
7952 32.0852 9646.71 9055.54 114.51
7953 32.0889 9754.50 9109.68 114.22
7954 32.0927 9692.38 9167.09 114.19
7955 32.0964 9684.44 9224.94 114.12
7956 32.1002 10000.20 9286.28 114.37
7957 32.1039 10017.30 9348.06 117.80
7958 32.1077 10116.50 9413.55 118.24
7959 32.1114 10469.60 9479.48 121.30
7960 32.1152 10590.90 9549.32 120.78
7961 32.1189 10603.60 9619.61 121.90
7962 32.1227 10772.00 9694.04 119.35
7963 32.1265 10845.40 9770.93 123.02
7964 32.1302 11221.70 9848.20 122.23
7965 32.1340 10939.10 9929.93 122.99
7966 32.1377 11557.00 10012.10 127.90
7967 32.1415 11457.90 10099.00 124.53
7968 32.1452 11823.90 10186.20 129.36
7969 32.1490 12120.30 10278.50 130.55
7970 32.1527 12364.80 10371.00 130.42
7971 32.1565 12380.70 10468.70 131.62
7972 32.1603 12757.50 10569.40 134.09
7973 32.1640 12877.30 10670.20 134.48
7974 32.1678 13242.00 10776.70 137.56
7975 32.1715 13291.40 10883.20 137.77
7976 32.1753 13750.70 10995.70 141.33
7977 32.1790 13791.90 11108.10 139.25
7978 32.1828 14171.40 11226.80 142.74
7979 32.1865 14358.00 11345.30 141.29
7980 32.1903 14786.90 11470.20 147.02
7981 32.1940 15012.50 11595.00 146.65
7982 32.1978 15401.50 11726.20 148.14
7983 32.2016 15758.00 11860.90 152.26
7984 32.2053 16259.30 11995.00 154.12
7985 32.2091 16366.50 12136.20 155.29
7986 32.2128 16816.30 12276.80 158.42
7987 32.2166 17296.60 12424.70 159.68
7988 32.2203 17564.80 12571.70 158.43
7989 32.2230 18007.10 12681.10 163.22
7990 32.2267 18272.00 12833.80 163.44
7991 32.2305 18360.50 12993.80 162.28
7992 32.2342 19165.30 13153.00 170.25
7993 32.2380 19197.30 13319.60 170.45
7994 32.2417 19848.80 13485.20 172.73
7995 32.2455 19773.60 13658.30 174.50
7996 32.2492 20738.90 13830.30 178.08
7997 32.2530 20324.30 14010.10 175.33
7998 32.2567 20879.10 14188.30 178.70
7999 32.2605 21250.10 14374.20 180.44
8000 32.2643 21947.20 14563.40 183.14
8001 32.2680 22107.90 14750.50 186.60
8002 32.2718 22527.20 14945.80 186.84
8003 32.2755 22781.30 15138.70 188.89
8004 32.2793 23152.20 15339.70 189.56
8005 32.2830 23147.80 15538.20 190.60
8006 32.2868 23643.50 15744.60 192.14
8007 32.2905 23764.40 15948.30 194.23
8008 32.2943 24636.90 16159.70 198.37
8009 32.2980 24063.80 16368.20 195.36
8010 32.3018 24972.80 16584.40 198.82
8011 32.3055 24762.90 16797.20 199.66
8012 32.3093 25450.60 17017.60 201.43
8013 32.3131 24957.60 17240.10 197.80
8014 32.3168 25412.70 17458.40 199.75
8015 32.3206 25103.20 17684.50 199.46
8016 32.3243 25745.90 17905.60 203.53
8017 32.3281 25247.00 18134.50 201.49
8018 32.3318 25796.90 18358.10 204.51
8019 32.3356 25332.60 18588.90 200.84
8020 32.3393 25307.60 18814.10 198.03
8021 32.3431 25184.30 19046.20 200.62
8022 32.3468 25469.30 19272.50 202.64
8023 32.3506 24985.90 19504.70 200.07
8024 32.3543 25479.60 19731.00 201.69
8025 32.3581 24540.50 19962.80 196.41
8026 32.3619 24816.60 20194.10 198.79
8027 32.3656 24177.20 20418.20 196.27
8028 32.3694 24207.90 20647.40 195.17
8029 32.3731 23470.40 20869.00 191.77
8030 32.3769 23779.40 21095.00 192.93
8031 32.3806 23166.10 21312.90 191.39
8032 32.3844 23104.10 21534.40 187.98
8033 32.3881 22410.60 21747.30 186.12
8034 32.3919 22729.70 21963.00 188.52
8035 32.3956 21647.20 22169.70 181.96
8036 32.3994 22092.90 22378.30 184.46
8037 32.4032 21502.60 22582.90 182.39
8038 32.4069 21543.10 22777.50 182.11
8039 32.4107 21216.70 22972.60 180.12
8040 32.4144 21325.70 23157.40 180.64
8041 32.4182 20801.00 23341.70 178.10
8042 32.4219 21527.50 23515.20 183.85
8043 32.4257 20896.50 23687.20 180.12
8044 32.4294 21454.20 23848.00 179.90
8045 32.4332 21428.70 24006.20 181.96
8046 32.4369 22507.10 24152.80 188.49
8047 32.4407 22848.00 24295.70 190.02
8048 32.4445 24616.10 24430.10 198.19
8049 32.4482 25617.90 24552.90 204.18
8050 32.4520 28509.70 24672.00 217.11
8051 32.4557 30416.10 24777.20 220.56
8052 32.4595 33843.30 24875.80 238.96
8053 32.4632 35787.50 24962.40 246.20
8054 32.4670 38866.60 25041.30 260.21
8055 32.4707 39400.70 25108.40 262.28
8056 32.4745 40656.00 25166.70 267.21
8057 32.4782 40170.00 25213.10 269.25
8058 32.4820 39716.60 25250.00 262.75
8059 32.4858 38108.80 25275.90 258.43
8060 32.4895 38267.30 25290.60 257.87
8061 32.4933 36568.20 25294.80 250.47
8062 32.4970 36349.40 25288.20 245.92
8063 32.5008 35432.60 25270.60 248.85
8064 32.5045 34782.90 25242.80 240.48
8065 32.5083 34317.90 25203.60 241.74
8066 32.5120 34316.60 25154.90 240.24
8067 32.5158 33036.10 25094.50 233.73
8068 32.5196 33998.50 25023.60 239.37
8069 32.5233 32305.30 24944.70 235.26
8070 32.5271 32668.10 24853.70 235.06
8071 32.5308 31354.50 24755.70 226.71
8072 32.5346 31850.10 24645.70 232.71
8073 32.5383 30993.80 24529.70 228.25
8074 32.5421 30714.80 24401.70 225.06
8075 32.5458 30146.60 24269.00 220.90
8076 32.5496 29995.80 24124.40 218.67
8077 32.5533 29162.50 23976.10 218.85
8078 32.5571 29275.60 23816.30 217.96
8079 32.5609 28586.40 23649.40 217.46
8080 32.5646 28477.60 23480.60 214.16
8081 32.5684 27740.60 23300.70 211.02
8082 32.5721 27809.50 23119.90 211.18
8083 32.5759 26782.30 22928.60 208.62
8084 32.5796 26982.10 22737.50 205.83
8085 32.5834 25917.30 22536.20 200.97
8086 32.5871 25955.20 22336.10 205.75
8087 32.5909 25151.00 22126.30 202.38
8088 32.5947 25123.90 21913.00 199.16
8089 32.5984 24512.30 21701.90 198.78
8090 32.6022 24219.10 21482.30 196.07
8091 32.6059 23307.60 21265.60 190.86
8092 32.6097 23701.20 21040.70 193.86
8093 32.6134 23091.90 20820.00 190.34
8094 32.6172 22981.00 20591.40 190.83
8095 32.6209 22079.90 20367.60 186.12
8096 32.6247 22029.00 20136.50 184.59
8097 32.6285 21249.80 19904.50 179.22
8098 32.6322 21287.60 19677.90 181.62
8099 32.6360 20778.70 19445.20 180.11
8100 32.6397 20579.60 19218.20 178.17
8101 32.6435 20054.20 18985.50 174.57
8102 32.6472 20092.30 18759.00 175.15
8103 32.6510 19451.10 18527.20 170.93
8104 32.6547 19294.70 18302.00 170.97
8105 32.6585 18721.50 18071.90 169.91
8106 32.6623 18475.20 17842.80 167.15
8107 32.6660 17932.40 17621.20 165.48
8108 32.6698 18258.00 17394.90 166.84
8109 32.6735 17356.70 17176.20 160.55
8110 32.6773 17603.90 16953.60 161.56
8111 32.6810 17352.30 16738.50 165.23
8112 32.6848 17342.70 16519.90 159.57
8113 32.6885 16333.90 16308.90 152.45
8114 32.6923 16694.30 16094.80 154.55
8115 32.6961 15933.40 15882.80 151.35
8116 32.6998 16061.90 15679.20 151.05
8117 32.7036 15625.20 15472.50 147.48
8118 32.7073 15723.60 15274.10 150.32
8119 32.7111 15165.00 15072.90 147.10
8120 32.7148 15342.00 14880.00 147.19
8121 32.7186 14698.50 14684.60 143.58
8122 32.7224 14895.10 14492.50 145.66
8123 32.7261 14481.20 14308.20 142.90
8124 32.7299 14381.20 14122.00 142.47
8125 32.7336 13933.70 13944.00 140.33
8126 32.7374 14215.40 13764.20 138.70
8127 32.7411 13453.10 13592.30 137.05
8128 32.7449 13814.10 13419.00 139.21
8129 32.7486 13694.50 13253.60 139.48
8130 32.7524 13499.80 13086.80 138.29
8131 32.7562 13306.50 12923.60 137.84
8132 32.7599 13061.10 12767.70 134.47
8133 32.7637 12880.20 12610.90 132.29
8134 32.7674 12686.80 12461.70 132.35
8135 32.7712 12718.40 12311.60 134.09
8136 32.7749 12905.50 12168.70 132.24
8137 32.7787 12270.50 12025.30 131.20
8138 32.7824 12312.30 11888.80 131.29
8139 32.7862 12090.30 11752.00 128.16
8140 32.7900 12122.50 11618.50 129.40
8141 32.7937 11486.50 11491.60 124.32
8142 32.7975 11983.50 11364.60 127.13
8143 32.8012 11584.80 11243.80 126.68
8144 32.8050 11874.30 11123.20 127.06
8145 32.8087 11530.60 11008.50 126.89
8146 32.8125 11653.90 10894.00 126.62
8147 32.8163 11166.20 10782.50 123.49
8148 32.8200 11320.00 10676.90 122.81
8149 32.8238 10994.30 10571.40 122.19
8150 32.8275 11032.90 10471.50 122.14
8151 32.8313 10797.10 10371.70 120.41
8152 32.8350 10785.20 10277.30 120.94
8153 32.8388 10672.90 10183.10 120.03
8154 32.8425 10532.60 10094.10 119.09
8155 32.8463 10415.30 10005.30 118.58
8156 32.8501 10582.00 9919.12 118.74
8157 32.8538 10272.40 9837.79 116.18
8158 32.8576 10411.00 9756.73 117.71
8159 32.8613 10046.10 9680.24 114.96
8160 32.8651 10053.70 9604.04 115.51
8161 32.8688 10006.70 9532.19 116.39
8162 32.8726 10125.00 9460.64 116.57
8163 32.8764 9760.26 9391.42 113.63
8164 32.8801 9813.01 9326.08 113.93
8165 32.8839 9542.07 9261.18 113.03
8166 32.8876 9869.95 9199.94 115.90
8167 32.8914 9449.39 9139.13 111.71
8168 32.8951 9506.04 9081.78 113.34
8169 32.8989 9480.47 9024.86 113.16
8170 32.9027 9486.06 8969.72 111.61
8171 32.9064 9330.76 8917.93 109.56
8172 32.9102 9305.87 8866.35 110.89
8173 32.9139 9440.11 8817.84 112.41
8174 32.9177 9401.03 8769.71 111.80
8175 32.9214 9189.50 8724.37 110.18
8176 32.9252 9171.05 8679.40 110.85
8177 32.9290 9032.07 8635.92 109.14
8178 32.9327 9088.29 8595.02 109.07
8179 32.9365 8921.80 8554.41 106.33
8180 32.9402 9046.54 8516.21 108.85
8181 32.9440 8699.65 8478.27 106.30
8182 32.9477 8877.72 8442.60 107.72
8183 32.9515 8728.99 8407.17 108.12
8184 32.9552 8803.74 8373.85 107.12
8185 32.9590 8562.13 8340.75 104.47
8186 32.9628 8650.61 8308.81 107.19
8187 32.9665 8539.10 8278.71 105.78
8188 32.9703 8560.38 8248.86 106.96
8189 32.9740 8402.91 8220.73 105.73
8190 32.9778 8767.32 8192.78 106.84
8191 32.9815 8414.44 8166.52 105.76
8192 32.9853 8586.14 8140.38 106.91
8193 32.9891 8350.19 8115.15 106.16
8194 32.9928 8439.83 8091.36 105.66
8195 32.9966 8273.79 8067.74 103.22
8196 33.0003 8570.64 8045.46 107.71
8197 33.0041 8346.82 8023.33 105.68
8198 33.0079 8071.38 8001.90 102.36
8199 33.0116 8229.75 7981.70 105.31
8200 33.0154 8427.79 7961.60 105.88
8201 33.0191 8192.66 7942.65 103.47
8202 33.0229 8246.63 7923.77 104.71
8203 33.0266 8000.72 7905.96 102.26
8204 33.0304 8277.17 7888.22 103.82
8205 33.0341 7896.98 7871.47 101.87
8206 33.0379 8085.68 7854.78 102.89
8207 33.0417 8025.41 7838.57 103.16
8208 33.0454 7886.03 7823.28 101.69
8209 33.0492 7810.15 7808.00 101.70
8210 33.0529 7943.50 7793.57 103.00
8211 33.0567 7779.02 7779.16 101.89
8212 33.0605 8058.90 7765.17 103.78
8213 33.0642 7590.74 7751.91 100.33
8214 33.0680 8054.31 7738.69 103.47
8215 33.0717 7803.17 7726.14 100.71
8216 33.0755 7773.76 7713.62 99.93
8217 33.0792 7632.24 7701.74 99.58
8218 33.0830 7980.83 7689.86 102.79
8219 33.0867 7635.26 7678.59 100.11
8220 33.0905 7694.73 7667.32 98.60
8221 33.0943 7597.49 7656.33 100.67
8222 33.0980 7701.56 7645.91 100.29
8223 33.1018 7599.60 7635.46 101.31
8224 33.1055 7918.65 7625.53 102.78
8225 33.1093 7542.06 7615.58 100.05
8226 33.1131 7829.73 7605.87 101.24
8227 33.1168 7466.04 7596.64 99.00
8228 33.1206 7657.83 7587.38 100.17
8229 33.1243 7500.62 7578.58 99.89
8230 33.1281 7598.30 7569.74 99.51
8231 33.1318 7563.57 7561.33 99.38
8232 33.1356 7454.11 7552.89 99.06
8233 33.1394 7321.50 7544.63 97.24
8234 33.1431 7673.55 7536.77 99.62
8235 33.1469 7198.21 7528.87 97.39
8236 33.1506 7578.45 7521.33 99.71
8237 33.1544 7563.28 7513.77 100.76
8238 33.1581 7532.75 7506.55 99.78
8239 33.1619 7355.14 7499.29 100.21
8240 33.1657 7664.03 7492.19 101.00
8241 33.1694 7307.89 7485.41 98.37
8242 33.1732 7458.71 7478.60 97.86
8243 33.1769 7460.04 7472.09 99.04
8244 33.1807 7413.59 7465.54 96.04
8245 33.1844 7217.98 7459.30 97.01
8246 33.1882 7334.30 7453.00 97.82
8247 33.1920 7415.06 7446.84 99.84
8248 33.1957 7626.76 7440.95 99.82
8249 33.1995 7282.79 7435.02 98.18
8250 33.2032 7394.76 7429.36 98.84
8251 33.2070 7349.69 7423.66 98.89
8252 33.2108 7428.88 7418.07 96.28
8253 33.2145 7212.85 7412.72 95.30
8254 33.2183 7469.06 7407.34 98.85
8255 33.2220 7283.59 7402.20 97.16
8256 33.2258 7211.39 7397.01 96.08
8257 33.2295 7269.92 7392.06 97.71
8258 33.2333 7607.96 7387.07 98.16
8259 33.2371 7251.57 7382.18 97.56
8260 33.2408 7407.74 7377.50 99.88
8261 33.2446 7162.88 7372.79 96.39
8262 33.2483 7283.00 7368.29 97.84
8263 33.2521 7205.16 7363.75 97.39
8264 33.2558 7349.56 7359.41 97.86
8265 33.2596 7362.27 7355.04 98.08
8266 33.2634 7381.57 7350.74 98.12
8267 33.2671 7246.40 7346.65 97.16
8268 33.2709 7307.52 7342.52 98.33
8269 33.2746 7162.02 7338.58 95.81
8270 33.2784 7546.65 7334.61 98.89
8271 33.2822 7152.89 7330.72 97.19
8272 33.2859 7460.00 7327.01 96.71
8273 33.2897 7160.03 7323.27 97.42
8274 33.2934 7095.30 7319.70 95.19
8275 33.2972 7182.92 7316.11 96.40
8276 33.3009 7312.98 7312.68 97.91
8277 33.3047 7035.30 7309.24 95.41
8278 33.3085 7346.64 7305.86 98.52
8279 33.3122 7193.14 7302.66 97.10
8280 33.3160 7341.30 7299.43 98.26
8281 33.3197 7158.43 7296.36 96.99
8282 33.3235 7287.16 7293.27 97.95
8283 33.3273 7199.60 7290.27 97.44
8284 33.3310 7238.28 7287.40 96.97
8285 33.3348 7156.40 7284.54 96.92
8286 33.3385 7301.81 7281.82 97.45
8287 33.3423 7273.83 7279.10 99.23
8288 33.3460 7269.20 7276.53 96.36
8289 33.3498 7015.37 7273.96 95.36
8290 33.3536 7163.83 7271.46 96.68
8291 33.3573 7011.43 7269.10 95.90
8292 33.3611 7034.83 7266.75 95.27
8293 33.3648 7057.65 7264.55 96.14
8294 33.3686 7191.49 7262.35 97.10
8295 33.3723 7179.38 7260.30 96.30
8296 33.3761 7270.43 7258.26 97.31
8297 33.3799 7138.43 7256.31 96.47
8298 33.3836 7193.76 7254.49 96.87
8299 33.3874 6936.34 7252.71 94.62
8300 33.3911 7096.10 7251.05 95.86
8301 33.3949 7044.63 7249.43 95.70
8302 33.3987 7161.28 7247.91 97.43
8303 33.4024 6981.02 7246.51 94.54
8304 33.4062 7103.57 7245.17 97.02
8305 33.4099 6975.25 7243.95 95.51
8306 33.4137 7040.47 7242.79 96.31
8307 33.4174 7055.45 7241.76 96.35
8308 33.4212 7067.87 7240.80 95.24
8309 33.4250 6995.94 7239.94 95.93
8310 33.4287 7145.69 7239.21 96.80
8311 33.4325 6644.48 7238.56 92.63
8312 33.4362 7082.38 7238.04 95.73
8313 33.4400 6877.30 7237.61 94.84
8314 33.4438 6990.74 7237.30 95.84
8315 33.4475 6896.22 7237.11 94.89
8316 33.4513 7039.80 7237.04 95.84
8317 33.4550 6936.84 7237.09 95.12
8318 33.4588 6852.67 7237.27 95.42
8319 33.4626 6892.63 7237.58 94.84
8320 33.4663 7073.55 7238.01 97.03
8321 33.4701 6944.86 7238.60 95.51
8322 33.4738 6789.68 7239.31 93.27
8323 33.4776 6707.79 7240.18 93.53
8324 33.4813 6942.47 7241.18 94.42
8325 33.4851 6770.15 7242.35 94.05
8326 33.4889 6946.71 7243.69 93.90
8327 33.4926 6833.06 7245.16 94.76
8328 33.4964 7015.57 7246.83 95.69
8329 33.5001 6775.60 7248.63 93.16
8330 33.5039 7003.54 7250.66 95.32
8331 33.5077 6606.27 7252.87 92.68
8332 33.5114 6988.38 7255.21 95.19
8333 33.5152 6821.08 7257.81 95.50
8334 33.5189 6979.44 7260.53 95.00
8335 33.5227 6794.00 7263.54 93.97
8336 33.5264 6901.36 7266.68 94.54
8337 33.5302 6919.49 7270.12 95.29
8338 33.5340 6946.13 7273.79 96.06
8339 33.5377 6761.10 7277.59 93.62
8340 33.5415 6807.94 7281.74 93.50
8341 33.5452 6834.59 7286.02 95.34
8342 33.5490 6787.96 7290.66 94.56
8343 33.5528 6864.49 7295.58 93.49
8344 33.5565 6965.71 7300.62 94.74
8345 33.5603 6915.04 7306.08 95.97
8346 33.5640 6836.33 7311.68 94.05
8347 33.5678 6710.54 7317.72 93.86
8348 33.5716 6946.78 7324.07 94.51
8349 33.5753 6882.91 7330.55 94.69
8350 33.5791 6995.96 7337.52 95.74
8351 33.5828 6827.64 7344.62 94.58
8352 33.5866 6824.54 7352.26 94.90
8353 33.5903 6912.38 7360.03 94.71
8354 33.5941 6923.76 7368.36 94.41
8355 33.5979 6736.33 7377.06 92.05
8356 33.6016 6905.84 7385.89 95.72
8357 33.6054 6726.44 7395.34 94.14
8358 33.6091 7129.48 7404.93 96.71
8359 33.6129 6865.02 7415.16 94.52
8360 33.6167 7012.11 7425.82 96.28
8361 33.6204 6822.69 7436.59 94.83
8362 33.6242 7057.18 7448.09 96.00
8363 33.6279 6811.17 7459.71 93.97
8364 33.6317 7044.52 7472.11 96.74
8365 33.6355 6886.10 7484.95 94.76
8366 33.6392 7103.04 7497.91 96.52
8367 33.6430 7030.16 7511.69 98.65
8368 33.6467 6933.28 7525.58 90.71
8369 33.6505 6837.40 7540.34 89.81
8370 33.6542 7115.00 7555.19 92.87
8371 33.6580 7066.34 7570.96 92.99
8372 33.6618 7067.40 7587.24 92.78
8373 33.6655 6957.38 7603.63 90.87
8374 33.6693 7324.11 7620.98 93.69
8375 33.6730 6995.69 7638.42 91.42
8376 33.6768 7191.53 7656.86 93.46
8377 33.6806 6998.44 7675.88 91.38
8378 33.6843 7061.17 7694.95 92.44
8379 33.6881 6976.50 7715.12 91.76
8380 33.6918 7348.55 7735.30 94.90
8381 33.6956 7190.97 7756.66 92.97
8382 33.6994 7401.95 7778.59 95.11
8383 33.7031 7192.21 7800.52 93.47
8384 33.7069 7419.55 7823.67 94.97
8385 33.7106 7221.32 7846.78 94.10
8386 33.7144 7353.64 7871.14 94.57
8387 33.7182 7398.79 7896.11 94.52
8388 33.7219 7274.62 7921.06 94.21
8389 33.7257 7337.35 7947.27 94.57
8390 33.7294 7506.44 7973.44 96.02
8391 33.7332 7441.97 8000.91 96.03
8392 33.7369 7548.97 8028.30 95.92
8393 33.7407 7729.39 8057.03 97.75
8394 33.7445 7715.96 8086.42 97.61
8395 33.7482 7526.88 8115.63 95.95
8396 33.7520 7703.91 8146.28 97.87
8397 33.7557 7885.31 8176.74 98.65
8398 33.7595 7942.17 8208.64 99.53
8399 33.7633 7712.44 8241.17 97.30
8400 33.7670 8048.82 8273.42 100.07
8401 33.7708 7884.85 8307.18 99.18
8402 33.7745 8038.04 8340.60 100.20
8403 33.7783 8081.58 8375.56 99.76
8404 33.7821 8126.67 8411.08 100.54
8405 33.7858 8011.56 8446.27 99.14
8406 33.7896 8229.00 8482.93 101.06
8407 33.7933 8239.02 8519.23 102.02
8408 33.7971 8273.26 8557.00 101.14
8409 33.8009 8489.06 8595.35 102.42
8410 33.8046 8469.93 8633.22 103.13
8411 33.8084 8452.98 8672.56 101.61
8412 33.8121 8621.07 8711.39 104.30
8413 33.8159 8337.78 8751.70 101.99
8414 33.8197 8582.33 8792.54 103.17
8415 33.8234 8535.91 8832.68 102.85
8416 33.8272 8738.17 8874.34 104.64
8417 33.8309 8488.41 8915.26 102.82
8418 33.8347 8646.65 8957.68 104.11
8419 33.8384 8903.95 8999.30 104.83
8420 33.8422 8859.55 9042.39 104.65
8421 33.8460 8716.96 9085.73 104.34
8422 33.8497 8961.12 9128.25 106.70
8423 33.8535 8672.61 9172.09 103.27
8424 33.8572 9080.33 9215.02 107.03
8425 33.8610 8753.92 9259.28 103.28
8426 33.8648 8927.87 9303.62 105.24
8427 33.8685 8927.38 9346.95 105.78
8428 33.8723 9202.59 9391.45 107.95
8429 33.8760 8887.71 9434.84 104.82
8430 33.8798 9148.38 9479.34 106.54
8431 33.8836 8915.92 9523.84 105.43
8432 33.8873 9012.32 9567.00 106.50
8433 33.8911 8924.89 9611.20 105.89
8434 33.8948 8998.65 9654.00 106.39
8435 33.8986 9020.39 9697.73 106.28
8436 33.9024 9145.10 9742.82 106.94
8437 33.9061 8816.00 9784.75 104.55
8438 33.9099 8851.63 9827.34 105.08
8439 33.9136 8609.88 9868.40 103.66
8440 33.9174 8978.03 9910.01 106.15
8441 33.9212 8759.17 9950.99 103.22
8442 33.9249 8930.04 9990.29 106.79
8443 33.9287 8823.52 10029.90 104.04
8444 33.9324 9170.49 10067.70 107.41
8445 33.9362 9027.03 10105.70 105.78
8446 33.9400 9030.95 10142.70 107.07
8447 33.9437 8952.74 10177.80 106.15
8448 33.9475 8994.18 10212.90 106.84
8449 33.9512 8863.08 10245.90 105.43
8450 33.9550 9336.23 10278.60 108.44
8451 33.9588 9162.11 10310.10 107.31
8452 33.9625 9254.26 10339.40 109.11
8453 33.9663 9273.43 10368.10 108.35
8454 33.9700 9694.92 10394.70 111.12
8455 33.9738 9608.72 10420.50 110.65
8456 33.9775 9998.49 10444.10 112.55
8457 33.9813 10319.10 10466.70 115.02
8458 33.9851 10698.50 10487.60 116.91
8459 33.9888 10958.20 10506.20 119.32
8460 33.9926 11702.40 10523.60 123.98
8461 33.9963 11977.70 10538.70 125.69
8462 34.0001 12658.30 10552.30 129.32
8463 34.0039 12402.40 10564.00 128.47
8464 34.0076 12714.40 10573.50 128.45
8465 34.0114 12558.20 10581.30 128.81
8466 34.0151 12970.80 10586.90 131.80
8467 34.0189 12748.10 10590.70 130.34
8468 34.0227 12833.10 10592.40 130.98
8469 34.0264 12460.80 10592.00 127.23
8470 34.0302 12659.50 10589.70 129.34
8471 34.0339 12569.30 10585.30 129.69
8472 34.0377 12549.60 10578.90 129.85
8473 34.0415 12195.60 10570.40 126.01
8474 34.0452 12384.20 10560.20 128.97
8475 34.0490 12228.70 10547.70 127.03
8476 34.0527 12609.30 10533.60 128.60
8477 34.0565 12488.10 10517.30 128.39
8478 34.0603 12215.30 10499.10 127.11
8479 34.0640 12240.70 10479.60 127.47
8480 34.0678 12149.00 10457.70 127.73
8481 34.0715 12000.30 10434.70 125.24
8482 34.0753 11931.50 10409.50 125.37
8483 34.0791 11618.80 10382.60 123.49
8484 34.0828 11795.70 10354.80 125.30
8485 34.0866 12061.50 10324.80 126.88
8486 34.0903 11762.00 10294.30 125.40
8487 34.0941 11767.20 10261.50 123.75
8488 34.0979 11530.70 10227.40 124.21
8489 34.1016 11269.30 10192.90 120.59
8490 34.1054 11477.80 10156.40 122.74
8491 34.1091 11173.30 10108.20 122.90
8492 34.1129 11277.70 10069.50 120.95
8493 34.1167 10969.00 10029.90 119.85
8494 34.1204 11104.10 9990.37 120.11
8495 34.1242 10894.80 9948.94 119.63
8496 34.1279 11034.70 9907.87 121.61
8497 34.1317 10889.20 9864.90 121.17
8498 34.1355 10992.20 9821.36 121.74
8499 34.1392 10858.10 9778.34 120.32
8500 34.1430 10731.20 9733.64 119.66
8501 34.1467 10245.90 9689.69 116.47
8502 34.1505 10706.10 9644.11 119.65
8503 34.1543 10329.50 9598.21 116.57
8504 34.1580 10435.10 9553.17 117.87
8505 34.1618 10345.70 9506.72 118.16
8506 34.1655 10414.00 9461.24 117.84
8507 34.1693 10072.20 9414.44 115.76
8508 34.1731 9981.21 9367.49 114.74
8509 34.1768 9781.48 9321.75 113.36
8510 34.1806 9901.10 9274.72 114.12
8511 34.1843 9692.32 9228.99 113.47
8512 34.1881 9716.23 9182.07 113.51
8513 34.1919 9797.28 9135.25 114.49
8514 34.1956 9660.92 9089.78 112.46
8515 34.1994 9651.26 9043.28 113.51
8516 34.2031 9447.91 8998.24 110.91
8517 34.2069 9225.82 8952.19 109.51
8518 34.2107 9536.92 8906.46 109.06
8519 34.2144 9410.56 8862.18 111.32
8520 34.2182 9317.24 8817.07 110.44
8521 34.2219 9239.79 8773.46 110.76
8522 34.2257 9320.35 8729.09 110.36
8523 34.2294 9040.38 8686.23 109.75
8524 34.2332 9289.57 8642.69 109.57
8525 34.2370 8995.60 8599.56 109.46
8526 34.2407 9060.59 8558.04 109.19
8527 34.2445 9006.39 8515.85 107.17
8528 34.2483 9019.03 8474.21 109.80
8529 34.2520 8784.53 8434.12 108.11
8530 34.2558 8988.41 8393.45 107.42
8531 34.2595 8595.64 8354.44 105.82
8532 34.2633 8842.93 8314.90 108.55
8533 34.2671 8407.37 8275.97 104.94
8534 34.2708 8673.13 8238.58 106.73
8535 34.2746 8575.06 8200.81 105.47
8536 34.2783 8543.25 8164.57 104.92
8537 34.2821 8495.09 8127.99 105.28
8538 34.2858 8427.84 8092.93 104.05
8539 34.2896 8426.92 8057.57 105.34
8540 34.2934 8433.10 8022.81 105.18
8541 34.2971 8144.50 7989.58 101.22
8542 34.3009 8621.38 7956.07 107.09
8543 34.3046 8188.72 7924.06 102.73
8544 34.3084 8284.81 7891.80 102.85
8545 34.3122 7909.06 7860.20 101.28
8546 34.3159 8220.17 7830.01 102.22
8547 34.3197 8271.29 7799.61 102.91
8548 34.3234 8199.97 7770.67 102.46
8549 34.3272 7916.82 7741.56 101.06
8550 34.3310 8090.25 7713.10 101.89
8551 34.3347 8090.48 7685.96 102.32
8552 34.3385 8229.09 7658.73 103.75
8553 34.3423 8074.35 7632.10 102.47
8554 34.3460 7949.35 7606.78 100.62
8555 34.3498 7905.16 7581.35 100.65
8556 34.3535 7925.14 7557.20 100.46
8557 34.3573 7824.94 7532.96 99.10
8558 34.3610 7888.08 7509.95 101.31
8559 34.3648 7851.44 7486.87 100.12
8560 34.3686 7863.78 7464.40 100.66
8561 34.3723 7628.34 7443.03 97.94
8562 34.3761 7846.96 7421.67 100.95
8563 34.3798 7776.89 7401.38 100.88
8564 34.3836 7813.83 7381.06 100.15
8565 34.3874 7782.98 7361.32 99.85
8566 34.3911 7571.27 7342.58 98.27
8567 34.3949 7753.12 7323.86 99.65
8568 34.3986 7678.91 7306.11 99.69
8569 34.4024 7490.61 7288.39 97.66
8570 34.4062 7775.84 7271.14 99.40
8571 34.4099 7462.02 7254.82 97.40
8572 34.4137 7513.64 7238.50 97.67
8573 34.4174 7377.27 7223.06 97.02
8574 34.4212 7618.01 7207.64 98.52
8575 34.4250 7611.59 7192.67 98.13
8576 34.4287 7483.40 7178.49 96.54
8577 34.4325 7222.38 7164.35 95.29
8578 34.4362 7579.37 7150.96 98.19
8579 34.4400 7390.31 7137.60 97.15
8580 34.4438 7424.94 7124.63 97.37
8581 34.4475 7320.90 7112.36 96.21
8582 34.4513 7588.32 7100.12 97.76
8583 34.4550 7296.77 7088.54 96.99
8584 34.4588 7397.18 7077.00 97.21
8585 34.4626 7130.65 7065.78 95.14
8586 34.4663 7293.24 7055.17 95.52
8587 34.4701 7402.96 7044.59 97.09
8588 34.4738 7287.18 7034.57 95.84
8589 34.4776 7227.40 7024.58 95.30
8590 34.4814 7370.43 7014.88 95.74
8591 34.4851 7274.73 7005.69 96.12
8592 34.4889 7280.63 6996.52 95.92
8593 34.4926 7007.63 6987.83 93.32
8594 34.4964 7260.23 6979.16 94.80
8595 34.5002 7075.45 6970.73 93.66
8596 34.5039 7509.09 6962.74 97.87
8597 34.5077 7191.23 6954.76 95.49
8598 34.5114 7198.95 6947.20 95.45
8599 34.5152 7163.39 6939.64 95.12
8600 34.5190 7322.98 6932.28 96.18
8601 34.5227 7085.38 6925.31 94.27
8602 34.5265 7175.72 6918.32 95.70
8603 34.5303 7133.22 6911.52 93.97
8604 34.5340 7294.61 6905.06 95.28
8605 34.5378 7089.44 6898.60 94.44
8606 34.5415 7217.52 6892.45 94.50
8607 34.5453 7073.60 6886.30 94.50
8608 34.5490 7252.09 6880.44 95.64
8609 34.5528 6930.99 6874.57 93.42
8610 34.5566 6984.89 6868.84 94.22
8611 34.5603 7009.28 6863.38 93.95
8612 34.5641 7126.03 6857.90 94.36
8613 34.5678 6939.33 6852.69 93.46
8614 34.5716 6991.06 6847.45 93.60
8615 34.5754 6932.66 6842.32 93.50
8616 34.5791 7150.62 6837.44 95.32
8617 34.5829 6998.67 6832.53 93.59
8618 34.5867 6915.05 6827.72 93.06
8619 34.5904 6972.18 6823.13 93.09
8620 34.5942 7035.46 6818.51 94.11
8621 34.5979 7117.68 6814.10 93.95
8622 34.6017 7092.91 6809.66 94.00
8623 34.6054 6919.34 6805.41 93.91
8624 34.6092 6912.98 6801.13 94.08
8625 34.6130 6929.08 6796.93 94.49
8626 34.6167 6944.15 6792.91 94.11
8627 34.6205 6988.43 6788.87 94.05
8628 34.6242 6995.67 6784.99 94.95
8629 34.6280 6853.26 6781.07 93.52
8630 34.6318 7060.54 6777.23 95.40
8631 34.6355 6873.27 6773.55 94.29
8632 34.6393 7054.73 6769.83 95.24
8633 34.6431 6906.33 6766.17 93.61
8634 34.6468 7092.19 6762.66 95.18
8635 34.6506 6781.13 6759.12 93.29
8636 34.6543 7004.86 6755.72 94.61
8637 34.6581 6925.41 6752.28 92.52
8638 34.6618 7080.26 6748.98 95.43
8639 34.6656 6879.25 6745.64 93.68
8640 34.6694 6910.77 6742.36 93.55
8641 34.6731 6917.94 6739.20 95.10
8642 34.6769 6985.31 6736.01 95.31
8643 34.6806 6785.64 6732.94 93.15
8644 34.6844 7037.65 6729.83 94.84
8645 34.6882 6857.51 6726.76 93.17
8646 34.6919 7001.18 6723.82 94.73
8647 34.6957 6827.02 6720.83 93.50
8648 34.6995 6882.91 6717.89 94.11
8649 34.7032 6949.03 6715.06 94.69
8650 34.7070 7069.39 6712.19 95.45
8651 34.7107 6934.32 6709.43 94.59
8652 34.7145 6867.93 6706.63 94.40
8653 34.7182 6785.62 6703.94 94.34
8654 34.7220 6941.20 6701.21 94.59
8655 34.7258 6943.78 6698.51 94.35
8656 34.7295 6947.70 6695.91 93.99
8657 34.7333 6916.91 6693.28 93.89
8658 34.7370 7024.86 6690.74 95.91
8659 34.7408 6979.29 6688.17 95.42
8660 34.7446 7076.08 6685.62 96.14
8661 34.7483 6881.23 6683.17 93.29
8662 34.7521 6974.31 6680.68 94.94
8663 34.7559 6723.33 6678.22 92.56
8664 34.7596 6995.71 6675.85 94.47
8665 34.7634 6928.60 6673.44 94.31
8666 34.7671 6987.32 6671.12 95.40
8667 34.7709 6791.76 6668.77 93.94
8668 34.7747 7122.13 6666.44 95.87
8669 34.7784 6842.87 6664.19 93.30
8670 34.7822 6905.15 6661.91 94.34
8671 34.7859 6763.71 6659.71 92.64
8672 34.7897 7004.45 6657.47 95.36
8673 34.7934 6808.69 6655.32 93.27
8674 34.7972 6870.33 6653.13 91.80
8675 34.8010 6931.20 6650.96 93.56
8676 34.8047 7086.34 6648.87 95.24
8677 34.8085 6939.70 6646.75 94.33
8678 34.8123 6835.37 6644.65 94.03
8679 34.8160 6832.53 6642.62 93.98
8680 34.8198 6881.78 6640.56 93.05
8681 34.8235 6846.25 6638.57 93.35
8682 34.8273 6970.89 6636.55 95.06
8683 34.8311 6784.10 6634.55 94.27
8684 34.8348 6922.82 6632.62 92.76
8685 34.8386 6739.34 6630.66 92.86
8686 34.8423 6906.73 6628.76 93.71
8687 34.8461 6712.02 6626.84 93.39
8688 34.8498 6804.03 6624.98 93.34
8689 34.8536 6672.61 6623.10 92.50
8690 34.8574 6849.66 6621.23 94.16
8691 34.8611 6628.05 6619.43 93.16
8692 34.8649 6850.05 6617.59 93.98
8693 34.8687 6847.63 6615.78 94.26
8694 34.8724 6847.46 6614.03 95.24
8695 34.8762 6751.47 6612.25 93.21
8696 34.8799 6756.60 6610.53 91.51
8697 34.8837 6695.37 6608.78 92.64
8698 34.8875 6875.05 6607.05 93.97
8699 34.8912 6692.82 6605.38 92.07
8700 34.8950 6685.85 6603.69 93.04
8701 34.8987 6768.15 6602.05 93.47
8702 34.9025 6760.82 6600.39 91.87
8703 34.9062 6669.29 6598.78 92.73
8704 34.9100 6749.63 6597.15 93.47
8705 34.9138 6733.38 6595.53 93.20
8706 34.9175 6714.58 6593.97 93.27
8707 34.9213 6660.02 6592.38 91.81
8708 34.9250 6751.67 6590.85 93.24
8709 34.9288 6431.48 6589.30 89.78
8710 34.9326 6757.87 6587.75 92.62
8711 34.9363 6550.74 6586.26 91.69
8712 34.9401 6719.18 6584.75 92.50
8713 34.9438 6645.70 6583.29 92.48
8714 34.9476 6671.97 6581.80 90.94
8715 34.9514 6561.43 6580.33 92.10
8716 34.9551 6759.13 6580.14 93.32
8717 34.9589 6506.50 6578.70 91.67
8718 34.9626 6688.95 6577.31 93.20
8719 34.9664 6432.35 6575.89 90.17
8720 34.9702 6636.95 6574.49 91.86
8721 34.9739 6459.38 6573.13 90.81
8722 34.9777 6575.10 6571.75 91.72
8723 34.9814 6503.65 6570.42 91.68
8724 34.9852 6595.55 6569.07 91.76
8725 34.9890 6569.20 6567.73 92.43
8726 34.9927 6617.83 6566.43 92.26
8727 34.9965 6617.74 6565.11 92.18
8728 35.0002 6733.47 6563.84 94.28
8729 35.0040 6341.18 6562.54 89.26
8730 35.0078 6655.86 6561.26 91.89
8731 35.0115 6395.03 6560.02 90.75
8732 35.0153 6650.41 6558.76 93.03
8733 35.0190 6522.62 6557.54 91.82
8734 35.0228 6667.93 6556.30 92.64
8735 35.0266 6487.12 6555.07 91.76
8736 35.0303 6624.80 6553.88 92.58
8737 35.0341 6552.08 6552.67 91.19
8738 35.0378 6622.56 6551.51 93.57
8739 35.0416 6341.67 6550.32 91.01
8740 35.0454 6549.76 6549.14 91.58
8741 35.0491 6504.90 6548.00 91.31
8742 35.0529 6740.76 6546.84 92.96
8743 35.0566 6423.44 6545.72 91.24
8744 35.0604 6434.66 6544.58 91.21
8745 35.0642 6483.32 6543.45 91.72
8746 35.0679 6688.52 6542.35 92.98
8747 35.0717 6559.60 6541.24 90.98
8748 35.0754 6482.92 6540.16 91.00
8749 35.0792 6360.20 6539.06 90.91
8750 35.0830 6482.14 6537.97 89.89
8751 35.0867 6479.44 6536.92 91.83
8752 35.0905 6710.39 6535.84 93.00
8753 35.0942 6518.40 6534.81 92.13
8754 35.0980 6600.67 6533.75 91.76
8755 35.1018 6502.42 6532.69 90.01
8756 35.1055 6630.33 6531.68 91.50
8757 35.1093 6553.04 6530.64 91.45
8758 35.1130 6751.46 6529.63 92.05
8759 35.1168 6654.54 6528.61 92.64
8760 35.1206 6836.65 6527.59 93.73
8761 35.1243 6568.40 6526.60 90.62
8762 35.1281 6536.03 6525.60 91.99
8763 35.1318 6510.22 6524.62 91.95
8764 35.1356 6644.82 6523.63 91.78
8765 35.1394 6743.54 6522.64 93.21
8766 35.1431 6748.71 6521.68 93.56
8767 35.1469 6691.93 6520.70 92.47
8768 35.1506 6844.06 6519.75 94.40
8769 35.1544 6591.16 6518.78 91.76
8770 35.1582 6930.96 6517.82 94.31
8771 35.1619 6517.53 6516.88 92.40
8772 35.1657 6707.52 6515.93 92.04
8773 35.1694 6615.26 6515.00 92.56
8774 35.1732 6788.26 6514.05 93.50
8775 35.1770 6630.40 6513.11 92.50
8776 35.1807 6736.54 6512.19 92.59
8777 35.1845 6599.58 6511.25 92.31
8778 35.1882 6992.30 6510.34 94.61
8779 35.1920 6690.94 6509.41 92.35
8780 35.1958 6875.46 6508.48 95.21
8781 35.1995 6754.02 6507.58 92.22
8782 35.2033 6557.43 6506.65 92.93
8783 35.2070 6663.02 6505.75 93.57
8784 35.2108 6854.68 6504.83 93.31
8785 35.2146 6697.17 6503.91 93.25
8786 35.2183 6694.23 6503.01 93.37
8787 35.2221 6791.18 6502.10 93.83
8788 35.2258 6862.57 6501.20 93.38
8789 35.2296 6721.85 6500.29 93.11
8790 35.2333 6775.47 6499.51 94.25
8791 35.2371 6814.91 6498.72 94.16
8792 35.2409 7021.56 6497.92 95.43
8793 35.2446 6661.60 6497.14 93.09
8794 35.2484 6920.49 6496.35 94.00
8795 35.2521 6820.20 6495.57 94.78
8796 35.2559 6966.30 6494.78 94.51
8797 35.2597 6865.82 6493.98 94.67
8798 35.2634 7013.39 6493.21 95.53
8799 35.2672 6776.18 6492.42 94.42
8800 35.2709 6809.54 6491.64 93.86
8801 35.2747 6788.09 6490.84 93.94
8802 35.2785 6971.19 6490.05 95.81
8803 35.2822 6729.43 6489.27 93.68
8804 35.2860 6949.39 6488.47 96.66
8805 35.2897 6787.65 6487.69 94.28
8806 35.2935 7050.68 6486.90 96.17
8807 35.2973 6746.06 6486.10 93.98
8808 35.3010 6889.75 6485.32 94.79
8809 35.3048 6692.42 6484.52 93.01
8810 35.3085 7068.11 6483.74 95.39
8811 35.3123 6764.67 6482.94 92.72
8812 35.3161 6941.14 6482.15 95.59
8813 35.3198 6873.05 6481.37 95.21
8814 35.3236 6909.58 6480.57 95.16
8815 35.3273 6805.62 6479.79 92.48
8816 35.3311 7065.08 6478.99 94.64
8817 35.3349 6808.92 6478.19 95.30
8818 35.3386 6999.99 6477.41 94.83
8819 35.3424 6753.00 6476.62 94.70
8820 35.3461 6828.28 6475.84 94.07
8821 35.3499 6746.66 6475.04 94.91
8822 35.3537 6783.91 6474.25 94.31
8823 35.3574 6647.36 6473.47 93.15
8824 35.3612 6669.69 6472.68 92.55
8825 35.3649 6697.29 6471.91 93.72
8826 35.3687 6805.92 6471.12 94.44
8827 35.3725 6665.07 6470.33 91.02
8828 35.3762 6930.19 6469.56 94.82
8829 35.3800 6668.14 6468.77 93.57
8830 35.3837 6795.68 6468.01 93.60
8831 35.3875 6615.75 6467.23 92.55
8832 35.3912 6746.84 6466.47 93.51
8833 35.3950 6448.55 6465.69 92.38
8834 35.3988 6736.39 6464.91 93.67
8835 35.4025 6566.60 6464.16 92.94
8836 35.4063 6674.16 6463.39 94.35
8837 35.4100 6590.05 6462.64 93.37
8838 35.4138 6598.13 6461.87 92.70
8839 35.4176 6618.16 6461.10 93.43
8840 35.4213 6703.34 6460.36 93.66
8841 35.4251 6459.25 6459.60 91.89
8842 35.4288 6681.37 6458.87 93.82
8843 35.4326 6506.37 6458.11 91.90
8844 35.4364 6630.17 6457.36 92.39
8845 35.4401 6465.51 6456.63 91.07
8846 35.4439 6557.18 6455.89 92.79
8847 35.4476 6506.89 6455.17 91.90
8848 35.4514 6700.10 6454.43 93.94
8849 35.4552 6426.62 6453.69 90.81
8850 35.4589 6617.99 6452.98 94.53
8851 35.4627 6444.69 6452.25 91.53
8852 35.4664 6605.52 6451.54 93.16
8853 35.4702 6464.54 6450.82 92.76
8854 35.4740 6593.68 6450.10 92.70
8855 35.4777 6281.30 6449.40 89.52
8856 35.4815 6450.71 6448.69 91.81
8857 35.4852 6348.75 6448.00 90.30
8858 35.4890 6615.55 6447.29 93.44
8859 35.4927 6265.95 6446.61 90.05
8860 35.4965 6667.16 6445.91 93.62
8861 35.5003 6359.75 6445.21 91.94
8862 35.5040 6467.77 6444.54 91.75
8863 35.5078 6296.51 6443.85 89.47
8864 35.5115 6413.69 6443.19 92.10
8865 35.5153 6350.83 6442.51 91.27
8866 35.5191 6423.10 6441.83 91.86
8867 35.5228 6420.06 6441.18 91.34
8868 35.5266 6447.01 6440.51 91.55
8869 35.5303 6417.58 6439.86 91.17
8870 35.5341 6506.38 6439.20 92.10
8871 35.5379 6347.52 6438.54 92.56
8872 35.5416 6613.58 6437.90 93.92
8873 35.5454 6400.68 6437.25 92.26
8874 35.5491 6358.34 6436.62 92.28
8875 35.5529 6328.51 6435.98 91.26
8876 35.5567 6258.69 6435.34 90.20
8877 35.5604 6359.02 6434.72 90.91
8878 35.5642 6396.60 6434.09 91.18
8879 35.5679 6214.28 6433.48 90.07
8880 35.5717 6588.71 6432.85 92.04
8881 35.5754 6395.23 6432.25 89.62
8882 35.5792 6531.60 6431.63 90.94
8883 35.5830 6305.92 6431.01 88.84
8884 35.5867 6286.52 6430.42 88.65
8885 35.5905 6386.18 6429.81 90.38
8886 35.5942 6394.13 6429.23 89.71
8887 35.5980 6117.72 6428.63 87.59
8888 35.6018 6403.10 6428.03 90.29
8889 35.6055 6370.43 6427.45 89.57
8890 35.6093 6471.56 6426.87 90.90
8891 35.6130 6271.92 6426.30 89.17
8892 35.6168 6344.21 6425.72 89.32
8893 35.6206 6140.24 6425.14 88.31
8894 35.6243 6405.23 6424.58 90.11
8895 35.6281 6137.04 6424.01 88.62
8896 35.6318 6192.84 6423.46 88.53
8897 35.6356 6077.02 6422.90 88.48
8898 35.6393 6402.13 6422.35 90.15
8899 35.6431 6220.89 6421.79 89.63
8900 35.6469 6407.30 6421.24 90.25
8901 35.6506 6347.47 6420.71 89.98
8902 35.6544 6339.87 6420.16 89.51
8903 35.6581 6093.20 6419.63 87.79
8904 35.6619 6280.02 6419.09 89.34
8905 35.6657 6299.76 6418.56 89.38
8906 35.6694 6396.69 6418.04 89.96
8907 35.6732 6103.86 6417.51 88.81
8908 35.6769 6498.35 6417.00 91.37
8909 35.6807 6157.62 6416.48 87.10
8910 35.6845 6376.75 6415.96 90.05
8911 35.6882 6302.94 6415.46 89.59
8912 35.6920 6326.78 6414.95 90.46
8913 35.6957 6042.36 6414.46 87.99
8914 35.6995 6347.41 6413.95 90.29
8915 35.7032 6306.15 6413.46 90.20
8916 35.7070 6337.87 6412.97 89.65
8917 35.7108 6060.33 6412.47 88.50
8918 35.7145 6250.06 6412.00 89.44
8919 35.7183 6318.86 6411.51 89.01
8920 35.7220 6300.36 6411.04 89.87
8921 35.7258 6407.53 6410.56 90.44
8922 35.7296 6374.97 6410.08 90.90
8923 35.7333 6261.05 6409.63 90.18
8924 35.7371 6237.38 6409.16 89.84
8925 35.7408 6142.92 6408.70 89.28
8926 35.7446 6306.07 6408.24 89.61
8927 35.7483 6257.27 6407.80 90.56
8928 35.7521 6325.00 6407.33 90.27
8929 35.7559 6302.52 6406.88 89.66
8930 35.7596 6363.17 6406.44 90.41
8931 35.7634 6235.96 6406.00 89.60
8932 35.7671 6093.68 6405.58 88.29
8933 35.7709 6187.61 6405.14 88.46
8934 35.7747 6514.46 6404.71 92.57
8935 35.7784 6299.10 6404.29 89.70
8936 35.7822 6367.68 6403.87 91.63
8937 35.7859 6247.40 6403.47 89.91
8938 35.7897 6250.58 6403.05 88.94
8939 35.7934 6213.89 6402.65 88.83
8940 35.7972 6443.31 6402.25 90.93
8941 35.8010 6218.08 6401.85 88.66
8942 35.8047 6548.52 6401.46 92.78
8943 35.8085 6114.41 6401.07 88.46
8944 35.8122 6374.22 6400.70 90.46
8945 35.8160 6295.46 6400.31 90.43
8946 35.8198 6435.82 6399.94 91.15
8947 35.8235 6135.60 6399.57 88.96
8948 35.8273 6415.93 6399.21 90.30
8949 35.8310 6156.77 6398.86 89.73
8950 35.8348 6302.84 6398.50 89.55
8951 35.8386 6163.87 6398.15 88.95
8952 35.8423 6234.52 6397.82 90.02
8953 35.8461 6101.16 6397.48 88.84
8954 35.8498 6369.16 6397.16 90.71
8955 35.8536 6234.21 6396.83 89.58
8956 35.8573 6175.11 6396.52 87.46
8957 35.8611 5998.71 6396.20 87.59
8958 35.8649 6259.53 6395.89 87.67
8959 35.8686 6116.87 6395.60 87.87
8960 35.8724 6256.12 6395.31 89.85
8961 35.8761 6143.49 6395.03 88.75
8962 35.8799 6157.94 6394.75 87.79
8963 35.8837 6095.67 6394.48 87.97
8964 35.8874 6388.14 6394.22 91.09
8965 35.8912 6266.40 6393.96 90.10
8966 35.8949 6430.76 6393.72 90.88
8967 35.8987 6167.28 6393.48 89.69
8968 35.9024 6201.72 6393.25 88.60
8969 35.9062 6084.21 6393.03 88.62
8970 35.9100 6184.69 6392.82 89.07
8971 35.9137 6136.46 6392.62 86.15
8972 35.9175 6403.12 6392.42 91.45
8973 35.9212 6124.89 6392.24 89.20
8974 35.9250 6362.93 6392.07 89.65
8975 35.9287 6316.82 6391.91 91.23
8976 35.9325 6333.71 6391.75 90.59
8977 35.9363 6268.40 6391.61 90.11
8978 35.9400 6137.20 6391.48 87.80
8979 35.9438 6134.60 6391.36 88.84
8980 35.9475 6159.55 6391.25 89.47
8981 35.9513 6083.04 6391.15 88.22
8982 35.9551 6330.18 6391.06 91.02
8983 35.9588 6251.75 6390.99 89.13
8984 35.9626 6366.97 6390.93 90.10
8985 35.9663 6352.38 6390.88 91.05
8986 35.9701 6449.42 6390.85 90.28
8987 35.9738 6213.78 6390.83 86.86
8988 35.9776 6315.38 6390.82 90.17
8989 35.9814 6203.25 6390.83 90.96
8990 35.9851 6256.77 6390.85 89.73
8991 35.9889 6206.92 6390.89 89.24
8992 35.9926 6407.01 6390.94 91.49
8993 35.9964 6192.15 6391.01 89.23
8994 36.0001 6212.43 6391.10 88.42
8995 36.0039 6181.39 6391.20 88.58
8996 36.0077 6386.99 6391.32 90.68
8997 36.0114 6320.81 6391.45 91.38
8998 36.0152 6353.36 6391.60 90.83
8999 36.0189 6205.44 6391.77 89.22
9000 36.0227 6503.05 6391.96 91.90
9001 36.0265 6313.51 6392.17 90.34
9002 36.0302 6499.37 6392.39 92.14
9003 36.0340 6244.80 6392.64 90.21
9004 36.0377 6470.80 6392.90 89.73
9005 36.0415 6302.40 6393.18 90.39
9006 36.0452 6443.46 6393.48 90.82
9007 36.0490 6419.46 6393.81 92.38
9008 36.0528 6558.46 6394.16 91.10
9009 36.0565 6458.72 6394.52 89.72
9010 36.0603 6558.54 6394.91 90.98
9011 36.0640 6242.42 6395.32 88.11
9012 36.0678 6517.91 6395.75 90.04
9013 36.0715 6411.17 6396.20 90.39
9014 36.0753 6417.89 6396.68 90.23
9015 36.0791 6464.05 6397.19 90.32
9016 36.0828 6436.28 6397.71 90.74
9017 36.0866 6518.24 6398.26 91.03
9018 36.0903 6492.09 6398.82 89.45
9019 36.0941 6473.83 6399.43 90.46
9020 36.0978 6614.81 6400.04 90.71
9021 36.1016 6496.20 6400.69 90.70
9022 36.1054 6600.61 6401.36 90.61
9023 36.1091 6413.12 6402.05 89.63
9024 36.1129 6651.31 6402.78 90.79
9025 36.1166 6682.42 6403.51 91.89
9026 36.1204 6770.34 6404.29 93.03
9027 36.1241 6598.23 6405.08 91.07
9028 36.1279 6603.83 6405.91 90.64
9029 36.1317 6532.25 6406.77 89.74
9030 36.1354 6635.94 6407.63 90.31
9031 36.1392 6546.26 6408.54 91.24
9032 36.1429 6910.05 6409.46 94.27
9033 36.1467 6617.41 6410.42 91.43
9034 36.1505 6873.48 6411.41 93.30
9035 36.1542 6732.80 6412.40 93.11
9036 36.1580 6831.13 6413.44 93.03
9037 36.1617 6665.39 6414.49 91.93
9038 36.1655 6697.11 6415.58 92.06
9039 36.1692 6715.47 6416.68 91.87
9040 36.1730 6769.88 6417.82 92.93
9041 36.1767 6508.14 6418.97 91.16
9042 36.1805 7049.73 6420.17 95.84
9043 36.1843 6660.34 6421.40 92.16
9044 36.1880 6854.27 6422.61 92.98
9045 36.1918 6631.98 6423.89 91.64
9046 36.1955 6918.66 6425.16 94.15
9047 36.1993 6668.30 6426.49 92.30
9048 36.2031 6983.95 6427.84 95.06
9049 36.2068 6726.88 6429.17 93.31
9050 36.2106 7004.08 6430.57 94.65
9051 36.2143 6842.57 6431.95 93.71
9052 36.2181 6830.05 6433.39 93.67
9053 36.2218 6871.18 6434.82 93.81
9054 36.2256 6787.83 6436.30 93.07
9055 36.2294 6812.74 6437.80 93.59
9056 36.2331 7178.25 6439.28 95.23
9057 36.2369 6761.86 6440.83 92.76
9058 36.2406 7049.29 6442.35 95.36
9059 36.2444 6833.64 6443.92 93.16
9060 36.2481 7075.13 6445.47 95.62
9061 36.2519 6895.45 6447.08 93.20
9062 36.2556 6905.58 6448.66 93.93
9063 36.2594 6721.95 6450.30 92.17
9064 36.2632 7016.87 6451.95 95.28
9065 36.2669 6714.75 6453.57 91.90
9066 36.2707 6774.03 6455.24 92.47
9067 36.2744 6663.02 6456.87 91.35
9068 36.2782 6906.38 6458.56 94.23
9069 36.2819 6674.76 6460.21 92.49
9070 36.2857 6853.36 6461.91 94.21
9071 36.2895 6681.73 6463.62 92.28
9072 36.2932 6681.28 6465.28 92.79
9073 36.2970 6727.32 6466.99 93.25
9074 36.3007 6740.73 6468.65 92.85
9075 36.3045 6601.68 6470.35 91.35
9076 36.3082 6689.79 6472.00 92.37
9077 36.3120 6599.50 6473.70 91.71
9078 36.3158 6832.86 6475.38 93.61
9079 36.3195 6490.67 6477.02 90.80
9080 36.3233 6537.50 6478.68 90.99
9081 36.3270 6555.87 6480.29 91.60
9082 36.3308 6564.66 6481.92 91.62
9083 36.3345 6589.89 6483.50 91.52
9084 36.3383 6751.56 6485.09 92.58
9085 36.3421 6358.72 6486.67 88.50
9086 36.3458 6533.94 6488.18 90.16
9087 36.3496 6505.53 6489.71 90.80
9088 36.3533 6681.38 6491.17 92.08
9089 36.3571 6348.20 6492.63 89.61
9090 36.3608 6512.22 6494.02 90.85
9091 36.3646 6378.47 6495.41 89.57
9092 36.3684 6414.46 6496.76 90.31
9093 36.3721 6404.08 6498.04 90.17
9094 36.3759 6486.61 6499.31 91.04
9095 36.3796 6316.80 6500.49 89.60
9096 36.3834 6401.72 6501.67 90.26
9097 36.3871 6339.61 6502.76 89.32
9098 36.3909 6532.53 6503.82 91.57
9099 36.3946 6412.48 6504.81 90.28
9100 36.3984 6515.77 6505.76 91.10
9101 36.4022 6345.58 6506.65 89.91
9102 36.4059 6345.84 6507.46 89.96
9103 36.4097 6265.47 6508.22 89.93
9104 36.4134 6659.92 6508.90 91.85
9105 36.4172 6395.57 6509.53 89.84
9106 36.4209 6545.92 6510.07 91.29
9107 36.4247 6335.55 6510.55 89.04
9108 36.4285 6603.08 6510.96 91.88
9109 36.4322 6513.68 6511.29 91.67
9110 36.4360 6511.54 6511.55 90.87
9111 36.4397 6532.60 6511.73 91.83
9112 36.4435 6561.04 6511.83 91.76
9113 36.4472 6575.35 6511.86 91.04
9114 36.4510 6418.91 6511.81 90.89
9115 36.4547 6321.53 6511.68 89.52
9116 36.4585 6544.82 6511.47 90.94
9117 36.4623 6579.78 6511.18 91.26
9118 36.4660 6536.24 6510.81 91.75
9119 36.4698 6291.58 6510.37 88.52
9120 36.4735 6369.10 6509.85 89.59
9121 36.4773 6197.72 6509.24 87.55
9122 36.4810 6318.02 6508.58 87.24
9123 36.4848 6228.20 6507.82 87.80
9124 36.4885 6458.97 6507.01 91.09
9125 36.4923 6256.02 6506.11 88.44
9126 36.4961 6372.48 6505.13 88.66
9127 36.4998 6276.50 6504.11 88.57
9128 36.5036 6449.83 6503.00 90.31
9129 36.5073 6347.37 6501.85 90.03
9130 36.5111 6352.00 6500.61 90.25
9131 36.5148 6224.83 6499.34 88.61
9132 36.5186 6278.16 6497.98 88.88
9133 36.5224 6075.56 6496.56 87.23
9134 36.5261 6523.87 6495.12 90.73
9135 36.5299 6248.18 6493.59 89.35
9136 36.5336 6339.72 6492.06 90.40
9137 36.5374 6270.94 6490.43 88.97
9138 36.5411 6393.07 6488.80 89.93
9139 36.5449 6154.18 6487.09 87.83
9140 36.5486 6253.66 6485.39 88.56
9141 36.5524 6239.40 6483.59 88.93
9142 36.5562 6367.44 6481.77 90.15
9143 36.5599 6112.94 6479.96 88.43
9144 36.5637 6136.61 6478.07 86.37
9145 36.5674 6280.50 6476.20 88.46
9146 36.5712 6322.10 6474.26 89.72
9147 36.5749 6103.49 6472.35 87.69
9148 36.5787 6232.65 6470.36 88.34
9149 36.5824 6152.76 6468.41 86.76
9150 36.5862 6389.87 6466.39 91.31
9151 36.5900 6225.26 6464.35 89.22
9152 36.5937 6367.36 6462.35 90.50
9153 36.5975 6244.45 6460.29 89.44
9154 36.6012 6215.01 6458.27 89.08
9155 36.6050 6131.77 6456.20 86.69
9156 36.6087 6414.26 6454.17 89.74
9157 36.6125 6294.55 6452.08 89.26
9158 36.6162 6436.37 6450.05 90.48
9159 36.6200 6125.58 6447.96 88.62
9160 36.6238 6277.14 6445.87 88.29
9161 36.6275 6243.94 6443.84 89.61
9162 36.6313 6279.91 6441.76 89.57
9163 36.6350 6370.12 6439.74 89.78
9164 36.6388 6269.53 6437.67 89.17
9165 36.6425 6103.60 6435.66 87.92
9166 36.6463 6411.44 6433.87 89.24
9167 36.6500 6192.82 6431.88 86.83
9168 36.6538 6298.04 6429.85 89.34
9169 36.6576 6176.64 6427.84 89.69
9170 36.6613 6324.35 6425.89 90.34
9171 36.6651 6146.33 6423.90 88.80
9172 36.6688 6346.70 6421.98 90.24
9173 36.6726 6081.25 6420.02 87.34
9174 36.6763 6311.64 6418.14 90.37
9175 36.6801 6019.11 6416.22 86.37
9176 36.6838 6325.56 6414.37 89.38
9177 36.6876 6224.87 6412.49 88.97
9178 36.6913 6302.53 6410.68 89.80
9179 36.6951 6191.05 6408.84 88.63
9180 36.6989 6162.69 6407.02 88.29
9181 36.7026 6073.44 6405.28 88.14
9182 36.7064 6365.49 6403.51 89.92
9183 36.7101 6151.95 6401.81 87.99
9184 36.7139 6203.79 6400.08 86.63
9185 36.7176 6273.34 6398.43 88.58
9186 36.7214 6332.54 6396.76 87.91
9187 36.7251 6180.94 6395.16 87.90
9188 36.7289 6358.20 6393.54 90.42
9189 36.7327 6228.27 6391.95 88.68
9190 36.7364 6280.91 6390.42 89.40
9191 36.7402 6113.70 6388.88 87.34
9192 36.7439 6385.78 6387.41 89.64
9193 36.7477 6184.66 6385.93 88.05
9194 36.7514 6368.45 6384.51 89.95
9195 36.7552 6226.20 6383.09 87.06
9196 36.7589 6200.47 6381.73 87.73
9197 36.7627 6084.51 6380.36 86.68
9198 36.7664 6319.53 6379.06 90.10
9199 36.7702 6130.79 6377.75 88.47
9200 36.7740 6439.39 6376.47 91.03
9201 36.7777 6185.41 6375.25 88.42
9202 36.7815 6155.39 6374.03 88.43
9203 36.7852 6183.71 6372.87 87.82
9204 36.7890 6247.88 6371.71 88.37
9205 36.7927 6170.40 6370.61 89.39
9206 36.7965 6168.90 6369.50 88.52
9207 36.8002 6076.87 6368.46 87.30
9208 36.8040 6343.07 6367.42 89.20
9209 36.8077 6265.21 6366.43 89.19
9210 36.8115 6081.67 6365.45 87.80
9211 36.8153 6121.13 6364.50 88.12
9212 36.8190 6037.12 6363.60 86.92
9213 36.8228 6176.71 6362.71 87.82
9214 36.8265 6251.92 6361.87 89.45
9215 36.8303 6023.49 6361.03 86.70
9216 36.8340 6195.53 6360.25 88.63
9217 36.8378 6255.44 6359.47 88.88
9218 36.8415 6130.76 6358.74 88.97
9219 36.8453 6146.06 6358.02 88.47
9220 36.8490 6270.43 6357.35 88.75
9221 36.8528 6106.48 6356.69 88.34
9222 36.8566 6234.30 6356.05 88.27
9223 36.8603 6212.73 6355.46 89.04
9224 36.8641 6209.90 6354.89 88.09
9225 36.8678 6071.32 6354.35 86.67
9226 36.8716 6343.51 6353.83 89.72
9227 36.8753 6004.38 6353.34 86.77
9228 36.8791 6191.49 6352.87 88.12
9229 36.8828 6015.16 6352.44 86.93
9230 36.8866 6274.13 6352.02 90.24
9231 36.8903 6065.21 6351.64 87.68
9232 36.8941 6275.79 6351.28 89.67
9233 36.8978 5963.39 6350.95 86.43
9234 36.9016 6118.70 6350.63 88.76
9235 36.9054 6019.71 6350.34 85.86
9236 36.9091 6072.91 6350.09 87.52
9237 36.9129 5968.97 6349.85 86.09
9238 36.9166 6159.99 6349.64 88.20
9239 36.9204 6006.64 6349.45 86.84
9240 36.9241 5979.79 6349.28 86.16
9241 36.9279 6102.71 6349.14 87.37
9242 36.9316 6089.89 6349.03 86.78
9243 36.9354 5964.06 6348.93 86.58
9244 36.9391 6377.97 6348.85 89.64
9245 36.9429 6090.33 6348.80 88.24
9246 36.9466 6266.68 6348.78 89.62
9247 36.9504 5972.67 6348.77 86.70
9248 36.9542 6147.86 6348.79 87.62
9249 36.9579 6043.26 6348.83 88.11
9250 36.9617 6265.21 6348.89 88.70
9251 36.9654 6194.16 6348.97 88.09
9252 36.9692 6265.14 6349.07 86.93
9253 36.9729 6071.14 6349.20 87.53
9254 36.9767 6218.30 6349.34 88.79
9255 36.9804 6109.01 6349.51 88.02
9256 36.9842 6129.12 6349.70 88.02
9257 36.9879 6106.35 6349.90 87.34
9258 36.9917 6124.75 6350.13 87.67
9259 36.9939 6155.75 6350.28 88.70
9260 36.9976 6257.33 6350.54 89.69
9261 37.0014 6039.91 6350.82 87.33
9262 37.0052 6163.32 6351.12 88.16
9263 37.0089 6119.91 6351.44 87.77
9264 37.0127 6187.48 6351.79 88.29
9265 37.0164 6072.85 6352.15 88.14
9266 37.0202 6372.39 6352.53 90.85
9267 37.0239 6212.83 6352.93 88.70
9268 37.0277 6194.92 6353.35 88.56
9269 37.0314 6192.90 6353.79 88.33
9270 37.0352 6299.84 6354.26 89.11
9271 37.0390 6072.70 6354.75 87.80
9272 37.0427 6347.50 6355.24 90.19
9273 37.0465 6239.47 6355.77 89.64
9274 37.0502 6227.35 6356.31 87.26
9275 37.0540 6024.30 6356.88 86.63
9276 37.0577 6369.86 6357.46 90.29
9277 37.0615 6186.27 6358.07 88.53
9278 37.0652 6348.53 6358.69 89.44
9279 37.0690 6158.09 6359.34 86.99
9280 37.0728 6442.49 6360.02 91.92
9281 37.0765 6184.04 6360.70 89.08
9282 37.0803 6292.84 6361.43 90.11
9283 37.0840 6250.14 6362.15 89.67
9284 37.0878 6381.33 6362.92 90.59
9285 37.0915 6115.43 6363.69 86.75
9286 37.0953 6204.02 6364.50 88.29
9287 37.0990 6284.69 6365.32 89.37
9288 37.1028 6227.22 6366.18 89.03
9289 37.1066 6158.24 6367.07 89.07
9290 37.1103 6221.48 6367.96 88.05
9291 37.1141 6245.43 6368.90 89.82
9292 37.1178 6224.86 6369.84 89.32
9293 37.1216 6299.36 6370.83 89.42
9294 37.1253 6201.92 6371.83 88.82
9295 37.1291 6284.72 6372.88 89.55
9296 37.1328 6349.72 6373.93 88.95
9297 37.1366 6175.19 6375.04 86.88
9298 37.1404 6320.40 6376.18 89.70
9299 37.1441 6305.11 6377.32 90.91
9300 37.1479 6239.97 6378.52 89.86
9301 37.1516 6250.71 6379.73 89.82
9302 37.1554 6543.57 6381.00 91.98
9303 37.1591 6267.88 6382.28 89.00
9304 37.1629 6382.26 6383.63 91.13
9305 37.1666 6163.13 6384.98 87.70
9306 37.1704 6416.36 6386.40 90.28
9307 37.1741 6139.46 6387.83 88.48
9308 37.1779 6397.09 6389.34 90.74
9309 37.1817 6238.14 6390.89 89.19
9310 37.1854 6408.28 6392.45 90.42
9311 37.1892 6227.41 6394.09 89.56
9312 37.1929 6466.90 6395.74 90.91
9313 37.1967 6260.96 6397.48 89.04
9314 37.2004 6329.19 6399.22 87.79
9315 37.2042 6210.08 6401.07 88.27
9316 37.2079 6480.52 6402.92 89.23
9317 37.2117 6220.76 6404.88 88.40
9318 37.2155 6534.00 6406.89 91.99
9319 37.2192 6369.99 6408.92 89.99
9320 37.2204 6115.56 6409.59 87.21
9321 37.2241 6443.24 6411.69 87.60
9322 37.2279 6327.44 6413.92 87.93
9323 37.2316 6401.08 6416.15 87.98
9324 37.2354 6147.67 6418.52 86.54
9325 37.2391 6403.99 6420.89 88.80
9326 37.2429 6196.29 6423.40 86.55
9327 37.2466 6269.71 6425.92 87.17
9328 37.2504 6126.32 6428.59 86.45
9329 37.2541 6464.89 6431.26 89.38
9330 37.2579 6230.09 6434.10 87.38
9331 37.2616 6450.79 6436.94 89.76
9332 37.2654 6289.14 6439.96 88.36
9333 37.2691 6469.95 6442.98 89.22
9334 37.2729 6163.15 6446.19 86.82
9335 37.2767 6460.98 6449.49 89.63
9336 37.2804 6198.42 6452.81 87.03
9337 37.2842 6392.16 6456.32 88.96
9338 37.2879 6346.03 6459.84 87.49
9339 37.2917 6303.74 6463.58 86.47
9340 37.2954 6267.47 6467.32 88.47
9341 37.2992 6361.80 6456.60 88.01
9342 37.3029 6184.71 6460.60 86.90
9343 37.3067 6374.75 6464.84 88.64
9344 37.3104 6250.00 6469.10 87.02
9345 37.3142 6371.41 6473.60 87.93
9346 37.3179 6359.58 6478.11 89.56
9347 37.3217 6390.01 6482.89 89.71
9348 37.3255 6165.19 6487.81 87.25
9349 37.3292 6255.82 6492.76 87.29
9350 37.3330 6241.79 6497.98 87.14
9351 37.3367 6379.99 6503.22 89.23
9352 37.3405 6346.31 6508.76 88.61
9353 37.3442 6499.85 6514.33 89.48
9354 37.3480 6205.98 6520.21 87.02
9355 37.3517 6451.25 6526.10 89.71
9356 37.3555 6323.61 6532.33 88.38
9357 37.3592 6479.02 6538.57 89.80
9358 37.3630 6362.46 6545.17 88.59
9359 37.3667 6403.10 6551.77 89.00
9360 37.3705 6291.29 6558.76 88.76
9361 37.3743 6528.29 6565.95 90.50
9362 37.3780 6380.28 6573.15 87.49
9363 37.3818 6428.56 6580.75 88.47
9364 37.3855 6562.71 6588.36 89.74
9365 37.3893 6548.74 6596.39 88.93
9366 37.3930 6427.91 6604.43 88.74
9367 37.3968 6494.33 6612.90 89.01
9368 37.4005 6474.60 6621.39 89.60
9369 37.4043 6603.97 6630.34 90.26
9370 37.4080 6553.19 6639.29 90.11
9371 37.4118 6835.46 6648.73 90.31
9372 37.4156 6438.60 6658.41 89.42
9373 37.4193 6572.16 6668.10 90.72
9374 37.4231 6654.35 6678.29 90.91
9375 37.4268 6669.39 6688.49 89.92
9376 37.4306 6642.93 6699.22 90.16
9377 37.4343 6722.93 6709.94 91.19
9378 37.4381 6795.03 6721.21 91.18
9379 37.4418 6846.53 6732.48 92.63
9380 37.4456 6536.99 6744.33 89.76
9381 37.4493 6977.07 6756.14 92.94
9382 37.4531 6741.69 6768.57 90.84
9383 37.4569 6845.21 6781.31 91.65
9384 37.4606 6844.70 6793.99 91.31
9385 37.4644 7002.17 6807.32 93.06
9386 37.4681 6874.42 6820.60 92.50
9387 37.4719 7141.18 6834.55 93.94
9388 37.4756 6730.68 6848.45 90.61
9389 37.4794 7052.67 6863.02 94.04
9390 37.4831 7066.35 6877.54 93.81
9391 37.4869 7262.38 6892.76 95.50
9392 37.4906 7085.71 6907.91 93.47
9393 37.4944 7046.42 6923.78 93.73
9394 37.4982 7346.36 6939.99 95.38
9395 37.5019 7255.16 6956.10 94.43
9396 37.5057 7112.02 6972.98 94.50
9397 37.5094 7479.06 6989.74 97.04
9398 37.5132 7286.07 7007.30 94.67
9399 37.5169 7605.04 7024.71 98.36
9400 37.5207 7559.32 7042.96 97.16
9401 37.5244 7370.75 7061.02 95.39
9402 37.5282 7484.83 7079.96 95.44
9403 37.5319 7714.22 7098.70 98.11
9404 37.5357 7470.50 7118.30 96.78
9405 37.5395 7654.87 7138.25 97.91
9406 37.5432 7882.81 7157.99 99.49
9407 37.5470 7978.59 7178.62 100.12
9408 37.5507 7953.08 7199.03 99.58
9409 37.5545 8017.34 7220.33 100.86
9410 37.5582 8013.65 7241.39 101.19
9411 37.5620 8239.94 7263.37 103.67
9412 37.5657 8134.79 7285.07 102.11
9413 37.5695 8316.24 7307.71 102.99
9414 37.5733 8307.63 7330.65 102.57
9415 37.5770 8561.86 7353.33 105.44
9416 37.5808 8350.66 7376.92 103.24
9417 37.5845 8487.86 7400.22 104.24
9418 37.5883 8505.82 7424.43 103.07
9419 37.5920 8805.54 7448.33 105.93
9420 37.5958 8618.15 7473.19 105.76
9421 37.5995 8785.58 7497.61 106.64
9422 37.6033 8436.44 7523.06 104.65
9423 37.6070 8718.27 7548.06 105.95
9424 37.6108 8610.74 7574.04 104.70
9425 37.6146 8816.68 7600.26 105.92
9426 37.6183 8821.62 7626.07 108.43
9427 37.6221 9015.64 7652.81 107.42
9428 37.6258 8898.75 7681.39 106.70
9429 37.6296 8974.35 7708.60 106.08
9430 37.6333 8833.96 7735.34 105.48
9431 37.6371 9106.49 7762.98 107.90
9432 37.6408 9084.00 7790.12 108.53
9433 37.6446 9084.07 7818.16 107.31
9434 37.6484 8776.96 7846.40 105.93
9435 37.6521 9056.98 7874.04 107.58
9436 37.6559 8841.48 7902.59 107.63
9437 37.6596 9065.13 7930.51 108.85
9438 37.6634 8853.41 7959.33 107.28
9439 37.6671 9052.30 7987.48 107.93
9440 37.6709 8908.04 8016.53 107.78
9441 37.6746 8888.74 8044.85 106.78
9442 37.6784 8692.77 8074.01 107.03
9443 37.6822 8874.93 8103.21 106.44
9444 37.6859 8807.74 8131.66 104.39
9445 37.6897 9023.98 8160.89 107.69
9446 37.6934 8623.78 8189.33 105.73
9447 37.6972 8625.73 8218.52 106.03
9448 37.7009 8759.96 8246.87 106.58
9449 37.7047 8575.00 8275.94 104.77
9450 37.7084 8567.12 8304.12 104.55
9451 37.7122 8643.92 8332.97 104.01
9452 37.7160 8319.12 8361.64 102.28
9453 37.7197 8728.72 8389.44 107.70
9454 37.7235 8475.10 8417.75 103.88
9455 37.7272 8581.96 8445.15 104.91
9456 37.7310 8371.94 8473.04 103.20
9457 37.7347 8654.97 8499.91 105.69
9458 37.7385 8143.94 8527.24 101.57
9459 37.7423 8401.89 8554.24 103.97
9460 37.7460 8252.15 8580.20 103.18
9461 37.7498 8496.86 8606.45 102.13
9462 37.7535 8246.64 8631.65 103.27
9463 37.7573 8428.00 8657.07 103.25
9464 37.7610 8090.98 8681.41 102.39
9465 37.7648 8374.59 8705.89 103.27
9466 37.7685 8178.47 8729.25 102.30
9467 37.7723 8256.81 8752.67 102.38
9468 37.7761 8152.42 8775.55 102.19
9469 37.7798 8288.91 8797.22 102.84
9470 37.7836 8203.53 8818.88 102.41
9471 37.7873 8506.02 8839.33 104.58
9472 37.7911 8605.10 8859.67 105.59
9473 37.7948 8551.10 8878.81 105.19
9474 37.7986 8625.09 8897.73 106.08
9475 37.8023 8922.43 8915.46 106.97
9476 37.8061 9106.80 8932.88 108.37
9477 37.8099 9400.08 8949.55 110.12
9478 37.8136 9268.42 8964.97 108.39
9479 37.8174 9655.42 8980.04 113.68
9480 37.8211 9918.67 8993.89 115.11
9481 37.8249 10123.70 9007.29 114.96
9482 37.8286 9817.31 9019.51 112.58
9483 37.8324 9930.81 9031.21 113.33
9484 37.8362 10057.80 9042.04 115.56
9485 37.8399 10188.50 9051.75 114.45
9486 37.8437 10038.70 9060.85 114.40
9487 37.8474 10192.80 9068.89 116.20
9488 37.8512 9975.56 9076.27 114.08
9489 37.8549 10309.40 9082.63 117.15
9490 37.8587 10219.80 9088.32 115.92
9491 37.8624 10099.20 9093.04 115.41
9492 37.8662 9968.14 9097.06 114.05
9493 37.8700 10211.80 9100.26 115.73
9494 37.8737 9984.01 9102.59 114.41
9495 37.8775 10318.70 9104.21 115.36
9496 37.8812 10000.60 9105.04 113.74
9497 37.8850 10197.20 9105.16 113.84
9498 37.8887 9924.94 9104.57 113.42
9499 37.8925 10013.00 9103.28 114.00
9500 37.8963 9870.99 9101.30 111.84
9501 37.9000 10001.90 9098.77 114.36
9502 37.9038 9667.23 9095.54 110.09
9503 37.9075 9910.71 9091.84 113.32
9504 37.9113 9610.14 9087.48 111.07
9505 37.9150 9740.48 9082.73 111.66
9506 37.9188 9817.20 9077.37 115.10
9507 37.9226 9750.20 9071.53 113.76
9508 37.9263 9562.69 9065.45 110.90
9509 37.9301 9658.65 9058.79 111.55
9510 37.9338 9499.60 9051.98 111.46
9511 37.9376 9631.92 9044.64 112.10
9512 37.9413 9407.02 9037.22 110.43
9513 37.9451 9518.79 9029.34 111.42
9514 37.9488 9313.12 9021.44 108.66
9515 37.9526 9455.71 9013.13 108.88
9516 37.9564 9042.51 9004.66 107.52
9517 37.9601 9296.99 8996.28 110.33
9518 37.9639 9146.84 8987.58 109.53
9519 37.9676 9350.85 8979.04 110.83
9520 37.9714 9104.72 8970.22 109.24
9521 37.9751 9377.36 8961.63 110.72
9522 37.9789 9100.99 8952.73 106.88
9523 37.9827 8859.48 8943.88 105.88
9524 37.9864 9029.94 8935.32 108.00
9525 37.9902 9230.28 8926.63 109.70
9526 37.9939 8890.13 8918.28 106.73
9527 37.9977 9164.33 8909.85 110.00
9528 38.0014 8892.94 8901.79 107.27
9529 38.0052 8977.38 8893.71 108.54
9530 38.0090 8843.55 8885.83 106.33
9531 38.0127 9025.98 8878.38 106.56
9532 38.0165 8934.99 8870.96 108.65
9533 38.0202 9004.90 8864.01 107.78
9534 38.0240 8739.71 8857.12 107.18
9535 38.0277 8921.15 8850.72 108.03
9536 38.0315 8672.96 8844.44 105.68
9537 38.0353 8944.87 8838.48 107.87
9538 38.0390 8800.73 8833.00 106.18
9539 38.0428 8973.14 8827.72 106.49
9540 38.0465 8786.61 8822.91 106.59
9541 38.0503 8832.28 8818.34 106.81
9542 38.0540 8649.43 8814.24 106.81
9543 38.0578 8854.37 8810.41 106.37
9544 38.0616 8653.07 8806.96 105.18
9545 38.0653 8635.46 8803.98 106.56
9546 38.0691 8640.20 8801.30 105.69
9547 38.0728 9013.41 8799.08 108.02
9548 38.0766 8768.08 8797.19 107.68
9549 38.0803 8772.23 8795.74 107.30
9550 38.0841 8825.98 8794.63 106.88
9551 38.0879 8809.80 8793.93 107.17
9552 38.0916 8703.20 8793.62 105.72
9553 38.0954 8774.49 8793.68 107.42
9554 38.0991 8527.07 8794.12 105.56
9555 38.1029 8753.99 8794.94 107.56
9556 38.1066 8519.29 8796.10 105.49
9557 38.1104 8509.41 8797.65 103.92
9558 38.1142 8514.37 8799.57 103.29
9559 38.1179 8735.17 8801.76 108.02
9560 38.1217 8596.62 8804.35 107.15
9561 38.1254 8465.16 8807.18 104.26
9562 38.1292 8325.65 8810.40 102.10
9563 38.1329 8571.29 8813.82 104.98
9564 38.1367 8525.59 8817.61 105.30
9565 38.1405 8252.13 8821.67 103.67
9566 38.1442 8210.87 8825.86 102.50
9567 38.1480 8405.71 8830.40 104.15
9568 38.1517 8222.29 8835.02 103.10
9569 38.1555 8544.32 8839.97 106.13
9570 38.1592 8245.63 8844.94 105.74
9571 38.1630 8477.23 8850.21 104.60
9572 38.1668 8205.92 8855.59 103.93
9573 38.1705 8237.48 8860.95 102.50
9574 38.1743 8029.00 8866.51 101.22
9575 38.1780 8076.77 8872.00 101.99
9576 38.1818 8199.31 8877.65 102.78
9577 38.1856 8122.09 8883.31 102.66
9578 38.1893 8061.99 8888.79 102.50
9579 38.1931 8175.13 8894.37 101.90
9580 38.1968 8056.35 8899.72 102.42
9581 38.2006 8112.03 8905.11 102.77
9582 38.2043 7921.54 8910.21 101.03
9583 38.2081 8071.66 8915.29 101.81
9584 38.2119 7960.39 8920.16 100.09
9585 38.2156 8082.61 8924.68 102.27
9586 38.2194 7963.69 8929.06 103.37
9587 38.2231 8071.17 8933.02 101.28
9588 38.2269 7767.42 8936.79 99.47
9589 38.2306 8087.09 8940.10 102.12
9590 38.2344 7946.09 8943.12 101.07
9591 38.2382 8168.44 8945.71 102.47
9592 38.2419 8022.25 8947.81 102.24
9593 38.2457 8406.90 8949.48 105.79
9594 38.2494 8128.45 8950.63 102.80
9595 38.2532 8323.96 8951.27 103.67
9596 38.2569 8308.35 8951.36 103.44
9597 38.2607 8536.44 8950.86 105.68
9598 38.2645 8592.99 8949.75 105.88
9599 38.2682 8918.44 8948.06 107.64
9600 38.2720 8733.79 8945.68 107.28
9601 38.2757 9160.47 8942.70 109.45
9602 38.2795 8947.79 8938.95 108.35
9603 38.2833 9380.09 8934.48 111.78
9604 38.2870 9125.85 8929.43 110.04
9605 38.2908 9281.59 8923.50 109.16
9606 38.2945 8961.09 8917.01 107.81
9607 38.2983 9280.23 8909.58 111.04
9608 38.3020 9055.47 8901.61 108.32
9609 38.3058 9072.74 8892.65 109.58
9610 38.3096 9035.82 8882.92 108.90
9611 38.3133 9063.91 8872.67 106.72
9612 38.3171 8720.44 8861.38 106.70
9613 38.3208 9311.02 8849.63 112.14
9614 38.3246 8954.23 8836.81 108.46
9615 38.3283 8990.59 8823.56 106.29
9616 38.3321 8822.50 8809.22 107.72
9617 38.3359 9107.54 8794.12 109.48
9618 38.3396 8887.67 8778.69 108.97
9619 38.3434 8905.53 8762.15 107.24
9620 38.3471 8739.79 8745.33 106.40
9621 38.3509 8846.19 8727.39 106.54
9622 38.3547 8808.15 8708.74 107.25
9623 38.3584 8720.60 8689.96 106.95
9624 38.3622 8647.37 8670.04 105.76
9625 38.3659 8765.12 8650.05 107.14
9626 38.3697 8336.55 8628.92 104.44
9627 38.3734 8574.39 8607.80 106.32
9628 38.3772 8588.51 8585.54 106.07
9629 38.3810 8409.15 8562.78 104.96
9630 38.3847 8342.31 8540.09 105.21
9631 38.3885 8454.18 8516.35 104.48
9632 38.3922 8339.34 8492.77 101.31
9633 38.3960 8533.02 8468.13 106.39
9634 38.3997 8259.26 8443.75 103.28
9635 38.4035 8395.45 8418.33 104.78
9636 38.4073 8257.11 8392.57 102.86
9637 38.4110 8242.99 8367.14 103.04
9638 38.4148 7989.13 8340.75 101.09
9639 38.4185 8373.10 8314.75 105.19
9640 38.4223 8186.77 8287.80 103.73
9641 38.4261 8167.36 8260.61 103.01
9642 38.4298 7969.99 8233.95 101.58
9643 38.4336 8218.12 8206.37 103.12
9644 38.4373 8016.00 8179.36 101.34
9645 38.4411 8282.64 8151.47 104.48
9646 38.4449 7963.99 8123.48 102.18
9647 38.4486 8147.04 8096.10 103.72
9648 38.4524 8037.09 8067.90 102.76
9649 38.4561 8073.51 8040.40 103.03
9650 38.4599 7923.06 8012.10 100.72
9651 38.4636 8255.98 7984.54 104.55
9652 38.4674 7909.71 7956.21 101.16
9653 38.4712 7893.94 7927.92 101.19
9654 38.4749 7927.00 7900.37 101.53
9655 38.4787 7916.15 7872.15 98.99
9656 38.4824 7898.01 7844.70 99.99
9657 38.4862 7922.02 7816.59 101.12
9658 38.4900 7701.64 7788.57 99.17
9659 38.4937 7958.85 7761.41 101.70
9660 38.4975 7859.85 7733.62 101.85
9661 38.5012 7922.65 7706.69 101.20
9662 38.5050 7788.54 7679.17 100.26
9663 38.5087 7883.61 7652.54 100.99
9664 38.5125 7748.89 7625.33 100.46
9665 38.5163 7897.36 7598.31 100.61
9666 38.5200 7763.57 7572.19 101.41
9667 38.5238 7958.34 7545.55 101.42
9668 38.5275 7604.86 7519.83 99.34
9669 38.5313 7749.26 7493.61 99.71
9670 38.5351 7758.38 7467.63 100.41
9671 38.5388 7843.63 7442.54 100.71
9672 38.5426 7446.74 7417.04 98.32
9673 38.5463 7588.79 7392.43 98.66
9674 38.5501 7552.59 7367.40 98.91
9675 38.5538 7612.45 7343.31 98.88
9676 38.5576 7304.97 7318.81 97.08
9677 38.5614 7802.40 7294.59 100.14
9678 38.5651 7436.46 7271.29 97.09
9679 38.5689 7683.01 7247.63 100.31
9680 38.5726 7411.77 7224.86 97.18
9681 38.5764 7448.59 7201.80 98.00
9682 38.5802 7361.68 7179.01 96.27
9683 38.5839 7521.64 7157.13 97.32
9684 38.5877 7281.28 7134.94 95.90
9685 38.5914 7249.95 7113.64 96.00
9686 38.5952 7420.53 7092.07 98.18
9687 38.5989 7366.52 7071.37 96.93
9688 38.6027 7101.96 7050.41 95.55
9689 38.6065 7350.12 7029.79 97.92
9690 38.6102 7058.19 7010.00 93.56
9691 38.6140 7308.47 6989.98 96.62
9692 38.6177 7086.57 6970.82 96.78
9693 38.6215 7248.46 6951.42 96.55
9694 38.6253 7010.39 6932.38 94.31
9695 38.6290 7269.27 6914.13 95.48
9696 38.6328 6935.06 6895.72 93.18
9697 38.6365 7134.14 6878.09 95.60
9698 38.6403 6918.66 6860.31 94.08
9699 38.6441 7095.99 6842.84 95.34
9700 38.6478 6688.35 6826.14 92.03
9701 38.6516 7157.92 6809.30 95.59
9702 38.6553 6979.12 6793.21 94.00
9703 38.6591 6966.79 6776.97 93.32
9704 38.6628 6729.89 6761.48 91.52
9705 38.6666 6901.36 6745.87 93.44
9706 38.6704 6866.79 6730.58 92.56
9707 38.6741 6949.37 6715.97 93.49
9708 38.6779 6796.77 6701.25 91.77
9709 38.6816 6877.90 6687.25 92.04
9710 38.6854 6725.43 6673.12 91.00
9711 38.6892 6974.94 6659.31 92.93
9712 38.6929 6694.04 6646.14 90.57
9713 38.6967 6793.04 6632.90 92.16
9714 38.7004 6566.00 6620.27 89.79
9715 38.7042 6834.61 6607.60 91.48
9716 38.7080 6631.63 6595.19 91.35
9717 38.7117 6743.76 6583.38 90.95
9718 38.7155 6594.66 6571.51 89.51
9719 38.7192 6776.85 6560.21 93.62
9720 38.7230 6530.16 6548.86 91.20
9721 38.7267 6717.34 6538.07 91.66
9722 38.7305 6562.36 6527.23 88.03
9723 38.7343 6611.26 6516.65 90.89
9724 38.7380 6476.87 6506.58 89.40
9725 38.7418 6734.92 6496.47 91.73
9726 38.7455 6614.58 6486.87 91.72
9727 38.7493 6439.75 6477.23 89.09
9728 38.7531 6477.61 6467.83 89.43
9729 38.7568 6781.69 6458.89 92.95
9730 38.7606 6500.93 6449.93 90.19
9731 38.7643 6638.62 6441.42 91.76
9732 38.7681 6471.61 6432.89 88.80
9733 38.7719 6692.60 6424.56 91.31
9734 38.7756 6300.54 6416.66 87.77
9735 38.7794 6449.21 6408.73 88.97
9736 38.7831 6497.44 6401.21 88.61
9737 38.7869 6451.11 6393.67 89.88
9738 38.7907 6457.28 6386.33 88.69
9739 38.7944 6352.28 6379.35 88.28
9740 38.7982 6408.19 6372.36 87.97
9741 38.8019 6589.19 6365.72 90.21
9742 38.8057 6376.56 6359.07 89.24
9743 38.8094 6593.76 6352.77 89.78
9744 38.8132 6435.98 6346.44 87.96
9745 38.8170 6604.97 6340.29 90.40
9746 38.8207 6446.79 6334.44 90.80
9747 38.8245 6564.01 6328.59 90.46
9748 38.8282 6321.77 6323.04 88.16
9749 38.8320 6520.20 6317.47 88.94
9750 38.8358 6271.52 6312.05 87.77
9751 38.8395 6444.21 6306.91 89.14
9752 38.8433 6503.64 6301.75 89.77
9753 38.8470 6378.77 6296.86 88.24
9754 38.8508 6233.36 6291.96 87.17
9755 38.8546 6414.78 6287.18 87.19
9756 38.8583 6161.38 6282.65 87.60
9757 38.8621 6422.50 6278.11 90.02
9758 38.8658 6240.03 6273.79 87.94
9759 38.8696 6449.53 6269.46 88.51
9760 38.8734 6229.29 6265.25 88.20
9761 38.8771 6429.77 6261.24 89.48
9762 38.8809 6343.54 6257.23 88.39
9763 38.8846 6554.44 6253.42 90.30
9764 38.8884 6196.71 6249.60 86.70
9765 38.8922 6378.73 6245.87 88.57
9766 38.8959 6392.45 6242.33 89.54
9767 38.8997 6580.12 6238.77 90.99
9768 38.9034 6244.70 6235.40 88.03
9769 38.9072 6432.85 6232.01 87.62
9770 38.9109 6394.38 6228.79 87.26
9771 38.9147 6293.89 6225.55 87.11
9772 38.9185 6407.43 6222.40 89.19
9773 38.9222 6383.69 6219.39 90.00
9774 38.9260 6336.61 6216.37 89.10
9775 38.9297 6383.53 6213.51 88.32
9776 38.9335 6238.54 6210.62 87.67
9777 38.9373 6322.25 6207.80 87.54
9778 38.9410 5997.30 6205.12 86.36
9779 38.9448 6449.78 6202.42 90.04
9780 38.9485 6268.06 6199.85 88.08
9781 38.9523 6442.15 6197.27 88.85
9782 38.9561 6217.73 6194.75 87.22
9783 38.9598 6358.50 6192.34 88.67
9784 38.9636 6262.67 6189.92 88.40
9785 38.9673 6397.30 6187.61 88.58
9786 38.9711 6251.99 6185.29 87.90
9787 38.9749 6279.08 6183.02 88.62
9788 38.9786 6249.48 6180.85 87.67
9789 38.9824 6381.74 6178.66 89.21
9790 38.9861 6277.87 6176.58 87.81
9791 38.9899 6202.91 6174.48 87.16
9792 38.9937 6176.76 6172.42 86.96
9793 38.9974 6412.43 6170.46 88.73
9794 39.0012 6259.36 6168.48 88.40
9795 39.0049 6473.36 6166.59 90.21
9796 39.0087 6227.61 6164.69 87.30
9797 39.0125 6415.65 6162.82 87.54
9798 39.0162 6023.25 6161.04 84.69
9799 39.0200 6294.79 6159.24 88.65
9800 39.0237 6060.14 6157.52 87.00
9801 39.0275 6109.98 6155.79 87.20
9802 39.0312 6095.51 6154.13 86.16
9803 39.0350 6409.57 6152.46 89.30
9804 39.0388 6035.88 6150.82 86.53
9805 39.0425 6177.05 6149.26 88.52
9806 39.0463 6255.92 6147.68 88.76
9807 39.0500 6258.02 6146.17 87.68
9808 39.0538 6150.99 6144.64 88.68
9809 39.0576 6307.94 6143.14 90.48
9810 39.0613 6242.08 6141.71 87.93
9811 39.0651 6235.80 6140.27 87.08
9812 39.0688 6176.52 6138.89 86.82
9813 39.0726 6315.44 6137.49 89.83
9814 39.0764 6200.56 6136.13 89.38
9815 39.0801 6251.94 6134.82 87.59
9816 39.0839 6078.71 6133.50 87.02
9817 39.0876 6301.17 6132.23 89.37
9818 39.0914 6021.69 6130.96 85.62
9819 39.0952 6340.19 6129.71 88.80
9820 39.0989 6095.70 6128.52 88.52
9821 39.1027 6018.36 6127.31 86.83
9822 39.1064 6124.26 6123.06 87.90
9823 39.1102 6262.04 6121.90 88.90
9824 39.1140 6123.96 6120.77 86.80
9825 39.1177 6167.57 6119.68 87.88
9826 39.1215 6056.44 6118.59 87.82
9827 39.1252 6172.81 6117.54 88.42
9828 39.1290 6071.21 6116.49 86.40
9829 39.1328 6087.08 6115.45 87.72
9830 39.1365 5957.70 6114.47 86.59
9831 39.1403 6260.63 6113.48 88.92
9832 39.1440 6130.02 6112.53 86.31
9833 39.1478 6208.87 6111.57 88.75
9834 39.1516 6155.16 6110.64 88.15
9835 39.1553 6253.00 6109.75 88.96
9836 39.1591 5997.81 6108.86 87.19
9837 39.1628 6144.29 6108.00 87.87
9838 39.1666 6075.90 6107.15 87.38
9839 39.1704 6090.48 6106.31 87.76
9840 39.1741 6055.75 6105.52 87.91
9841 39.1779 6201.96 6104.72 88.62
9842 39.1816 5993.13 6103.96 87.25
9843 39.1854 6178.92 6103.20 87.95
9844 39.1892 6101.74 6102.46 87.59
9845 39.1929 6283.20 6101.75 88.78
9846 39.1967 6199.91 6101.05 89.27
9847 39.2004 6264.36 6100.39 88.45
9848 39.2042 6065.92 6099.72 88.26
9849 39.2080 6269.70 6099.08 89.42
9850 39.2117 6069.20 6098.47 87.12
9851 39.2155 6109.02 6098.82 86.19
9852 39.2192 6027.57 6098.24 89.82
9853 39.2230 6084.75 6097.68 89.21
9854 39.2267 6018.57 6097.15 86.58
9855 39.2305 6275.63 6096.62 88.31
9856 39.2343 5949.84 6096.11 86.77
9857 39.2380 6106.82 6095.64 88.75
9858 39.2418 6050.89 6095.17 87.21
9859 39.2455 6035.28 6094.74 87.29
9860 39.2493 6095.74 6094.32 88.25
9861 39.2531 6119.09 6093.91 88.43
9862 39.2568 5901.80 6093.54 86.48
9863 39.2606 6238.66 6093.18 88.52
9864 39.2643 5986.14 6092.85 86.79
9865 39.2681 5960.37 6092.53 86.29
9866 39.2719 6010.20 6092.24 88.04
9867 39.2756 6162.18 6091.98 88.20
9868 39.2794 6154.47 6091.73 88.92
9869 39.2831 6197.49 6091.51 88.32
9870 39.2869 5927.74 6091.31 86.70
9871 39.2907 6181.21 6091.13 88.16
9872 39.2944 5922.15 6090.98 85.41
9873 39.2982 6039.30 6090.85 87.30
9874 39.3019 5921.90 6090.75 85.87
9875 39.3057 6073.77 6090.68 86.45
9876 39.3095 5969.97 6090.63 85.82
9877 39.3132 6242.09 6090.60 88.18
9878 39.3170 5971.22 6090.61 85.88
9879 39.3207 6097.40 6090.64 89.17
9880 39.3245 5966.64 6090.70 85.07
9881 39.3283 6113.78 6090.79 87.26
9882 39.3320 5874.19 6090.91 85.69
9883 39.3358 6097.64 6091.06 88.44
9884 39.3395 5741.97 6091.23 83.53
9885 39.3433 6164.31 6091.45 88.48
9886 39.3471 5925.48 6091.69 86.09
9887 39.3508 6007.02 6091.96 86.47
9888 39.3546 5979.06 6092.28 87.22
9889 39.3583 6034.48 6092.62 86.74
9890 39.3621 5993.27 6093.00 85.16
9891 39.3659 6100.74 6093.42 86.42
9892 39.3696 5989.11 6093.87 86.44
9893 39.3734 6355.39 6094.36 89.48
9894 39.3771 6042.32 6094.89 86.90
9895 39.3809 5919.56 6095.46 85.50
9896 39.3847 5952.68 6096.08 86.93
9897 39.3884 6092.96 6096.73 87.57
9898 39.3922 6035.61 6097.43 86.58
9899 39.3959 6087.46 6098.17 87.19
9900 39.3997 5898.00 6098.96 86.14
9901 39.4035 5978.37 6099.81 86.20
9902 39.4072 5930.93 6100.68 85.61
9903 39.4110 6080.88 6101.62 86.46
9904 39.4147 5870.55 6102.59 83.46
9905 39.4185 5984.83 6103.64 87.19
9906 39.4223 5933.88 6104.74 86.25
9907 39.4260 5984.73 6105.87 85.95
9908 39.4298 5919.81 6107.08 85.14
9909 39.4335 6164.75 6108.33 88.22
9910 39.4373 5859.94 6109.66 83.89
9911 39.4411 6150.74 6111.06 87.36
9912 39.4448 6031.81 6112.48 86.57
9913 39.4486 6147.91 6114.01 86.20
9914 39.4523 5926.55 6115.56 84.97
9915 39.4561 6122.88 6117.22 86.96
9916 39.4599 5982.32 6118.96 86.87
9917 39.4636 6072.22 6120.72 86.69
9918 39.4674 5880.19 6122.60 85.14
9919 39.4711 5978.00 6124.51 85.83
9920 39.4749 5771.04 6126.55 84.51
9921 39.4787 6113.48 6128.67 86.75
9922 39.4824 5908.95 6130.81 84.97
9923 39.4862 5955.15 6133.11 85.08
9924 39.4899 6078.41 6135.42 88.16
9925 39.4937 6155.27 6137.89 87.95
9926 39.4975 5920.58 6140.45 85.28
9927 39.5012 6065.07 6143.03 87.25
9928 39.5050 5934.25 6145.79 86.54
9929 39.5087 5985.40 6148.56 84.28
9930 39.5125 5929.17 6151.52 85.78
9931 39.5163 6038.13 6154.57 85.60
9932 39.5200 6009.28 6157.66 87.81
9933 39.5238 6282.07 6160.94 89.35
9934 39.5275 5920.64 6164.24 87.29
9935 39.5313 6022.67 6167.74 85.20
9936 39.5351 5904.29 6171.36 84.92
9937 39.5388 6098.14 6175.01 86.35
9938 39.5426 5996.69 6178.87 86.97
9939 39.5463 5984.42 6182.76 86.19
9940 39.5501 6103.97 6186.88 86.50
9941 39.5539 6109.56 6191.14 86.83
9942 39.5576 5928.92 6195.41 84.71
9943 39.5614 6163.37 6199.94 87.83
9944 39.5651 5877.95 6204.49 85.57
9945 39.5689 6017.35 6209.30 87.63
9946 39.5727 5907.28 6214.26 85.46
9947 39.5764 6057.57 6219.23 87.11
9948 39.5802 5996.05 6224.49 87.11
9949 39.5839 6137.64 6229.77 86.45
9950 39.5877 6064.35 6235.34 87.06
9951 39.5914 6180.30 6240.93 88.36
9952 39.5952 6029.68 6246.83 87.49
9953 39.5990 6154.81 6252.90 86.84
9954 39.6027 6062.04 6258.98 87.97
9955 39.6065 6259.72 6265.40 88.72
9956 39.6102 5945.14 6271.81 85.71
9957 39.6140 6270.26 6278.59 87.38
9958 39.6178 6035.92 6285.55 85.54
9959 39.6215 6501.49 6292.50 91.02
9960 39.6253 6202.28 6299.83 87.49
9961 39.6290 6168.07 6307.15 86.64
9962 39.6328 5972.26 6314.86 84.52
9963 39.6366 6125.86 6322.77 86.30
9964 39.6403 6059.26 6330.68 86.36
9965 39.6441 6253.00 6338.99 87.59
9966 39.6478 6140.88 6347.28 87.29
9967 39.6516 6189.98 6356.00 86.66
9968 39.6554 6357.28 6364.95 88.80
9969 39.6591 6269.96 6373.85 85.59
9970 39.6629 6153.82 6383.22 86.99
9971 39.6666 6333.69 6392.55 88.62
9972 39.6704 6152.28 6402.35 85.90
9973 39.6742 6188.92 6412.39 87.58
9974 39.6779 6275.15 6422.37 87.22
9975 39.6817 6201.98 6432.84 87.36
9976 39.6854 6032.25 6443.26 86.02
9977 39.6892 6462.40 6454.19 89.78
9978 39.6930 6284.11 6465.32 88.07
9979 39.6967 6407.39 6476.42 88.88
9980 39.7005 6477.16 6488.04 88.86
9981 39.7042 6529.22 6499.60 89.90
9982 39.7080 6364.32 6511.69 89.70
9983 39.7118 6535.96 6524.03 89.15
9984 39.7155 6410.95 6536.27 88.44
9985 39.7193 6561.89 6549.09 91.64
9986 39.7230 6504.59 6561.79 91.01
9987 39.7268 6588.38 6575.09 90.81
9988 39.7306 6660.79 6588.64 91.04
9989 39.7343 6722.33 6602.03 90.65
9990 39.7381 6566.55 6616.06 90.18
9991 39.7418 6723.38 6629.93 91.75
9992 39.7456 6663.21 6644.42 90.95
9993 39.7494 6777.05 6659.15 91.85
9994 39.7531 6712.24 6673.73 91.38
9995 39.7569 6953.48 6688.92 93.58
9996 39.7606 6635.82 6703.96 92.15
9997 39.7644 6985.60 6719.63 94.42
9998 39.7682 6784.00 6735.54 92.19
9999 39.7719 6928.53 6751.24 92.83
10000 39.7757 6840.13 6767.61 92.45
10001 39.7794 7071.92 6783.76 94.76
10002 39.7832 6895.60 6800.57 93.00
10003 39.7870 6955.60 6817.61 92.45
10004 39.7907 6975.25 6834.40 93.51
10005 39.7945 7057.52 6851.89 93.86
10006 39.7982 7022.84 6869.07 92.46
10007 39.8020 7290.15 6886.97 95.44
10008 39.8058 7116.52 6905.04 94.59
10009 39.8095 7312.89 6922.85 94.63
10010 39.8133 7283.45 6941.31 96.13
10011 39.8170 7253.09 6959.49 94.16
10012 39.8208 7098.29 6978.32 96.19
10013 39.8246 7300.35 6997.34 95.92
10014 39.8283 7091.36 7016.02 92.48
10015 39.8321 7373.68 7035.38 95.76
10016 39.8358 7189.45 7054.37 94.86
10017 39.8396 7481.01 7074.04 95.72
10018 39.8434 7277.86 7093.85 95.09
10019 39.8471 7347.09 7113.26 94.47
10020 39.8509 7477.48 7133.34 96.94
10021 39.8546 7610.69 7152.99 98.07
10022 39.8584 7349.77 7173.31 95.34
10023 39.8622 7614.34 7193.70 98.08
10024 39.8659 7308.71 7213.66 95.40
10025 39.8697 7408.75 7234.23 95.17
10026 39.8734 7350.39 7254.34 96.23
10027 39.8772 7575.33 7275.04 95.86
10028 39.8810 7329.77 7295.80 96.51
10029 39.8847 7547.59 7316.04 97.81
10030 39.8885 7412.06 7336.86 94.50
10031 39.8922 7587.47 7357.14 97.27
10032 39.8960 7369.93 7377.98 96.09
10033 39.8998 7451.82 7398.81 97.80
10034 39.9035 7273.38 7419.05 94.19
10035 39.9073 7535.90 7439.81 96.16
10036 39.9110 7276.18 7459.96 95.86
10037 39.9148 7376.40 7480.59 95.63
10038 39.9186 7376.28 7501.13 96.07
10039 39.9223 7595.24 7521.04 99.02
10040 39.9261 7496.23 7541.35 97.98
10041 39.9298 7703.15 7561.01 97.62
10042 39.9336 7529.31 7581.02 98.04
10043 39.9374 7477.52 7600.88 96.69
10044 39.9411 7363.93 7620.02 95.88
10045 39.9449 7611.98 7639.47 98.26
10046 39.9486 7489.57 7658.19 98.13
10047 39.9524 7589.14 7677.17 97.83
10048 39.9562 7383.64 7695.88 96.00
10049 39.9599 7472.99 7713.81 95.89
10050 39.9637 7322.12 7731.92 95.84
10051 39.9674 7397.30 7749.23 96.33
10052 39.9712 7228.94 7766.67 94.91
10053 39.9750 7459.89 7783.73 96.25
10054 39.9787 7194.43 7799.95 92.87
10055 39.9825 7456.18 7816.20 95.72
10056 39.9862 7310.20 7831.61 95.31
10057 39.9900 7494.14 7846.96 95.22
10058 39.9938 7373.26 7861.85 95.22
10059 39.9975 7437.57 7875.84 96.15
10060 40.0013 7440.11 7889.71 96.88
10061 40.0050 7484.35 7902.68 96.98
10062 40.0088 7289.30 7915.45 95.26
10063 40.0125 7532.99 7927.32 97.23
10064 40.0163 7260.35 7938.90 94.03
10065 40.0201 7637.52 7949.87 99.01
10066 40.0238 7574.29 7959.92 97.17
10067 40.0276 7863.84 7969.60 98.45
10068 40.0313 7876.19 7978.37 100.02
10069 40.0351 8188.49 7986.70 101.48
10070 40.0389 8174.67 7994.31 102.11
10071 40.0426 8538.84 8001.03 103.92
10072 40.0464 8669.69 8007.21 105.71
10073 40.0501 8812.65 8012.50 105.47
10074 40.0539 8902.93 8017.19 105.34
10075 40.0577 9300.44 8021.11 109.97
10076 40.0614 9047.12 8024.19 107.74
10077 40.0652 9330.01 8026.58 110.21
10078 40.0689 9229.04 8028.15 109.59
10079 40.0727 9494.47 8028.99 110.55
10080 40.0765 9247.43 8029.03 109.24
10081 40.0802 9426.03 8028.31 109.82
10082 40.0840 9521.91 8026.78 112.29
10083 40.0877 9847.93 8024.54 113.09
10084 40.0915 9734.50 8021.46 111.20
10085 40.0953 9822.17 8017.60 111.06
10086 40.0990 9964.78 8013.09 113.19
10087 40.1028 9853.02 8007.70 112.10
10088 40.1065 9994.33 8001.73 113.00
10089 40.1103 10153.60 7994.85 113.29
10090 40.1141 10055.80 7987.23 112.89
10091 40.1178 10192.80 7979.12 114.32
10092 40.1216 10352.10 7970.09 117.45
10093 40.1253 10219.40 7960.62 114.62
10094 40.1291 10072.80 7950.23 112.89
10095 40.1329 10348.50 7939.17 115.59
10096 40.1366 10118.00 7927.78 114.41
10097 40.1404 10278.40 7915.52 114.92
10098 40.1441 10136.10 7902.94 114.33
10099 40.1479 10075.90 7889.43 112.65
10100 40.1517 9823.93 7875.36 111.86
10101 40.1554 10308.00 7861.12 115.41
10102 40.1592 10139.60 7845.98 114.58
10103 40.1629 10150.70 7830.74 114.39
10104 40.1667 9828.38 7814.61 112.03
10105 40.1705 10116.10 7798.00 113.53
10106 40.1742 9832.09 7781.42 112.30
10107 40.1780 10140.80 7763.96 114.14
10108 40.1817 9757.83 7746.57 111.88
10109 40.1855 10083.70 7728.35 114.39
10110 40.1892 9707.52 7710.25 109.40
10111 40.1930 10072.70 7691.34 114.21
10112 40.1968 9650.04 7672.10 111.91
10113 40.2005 9793.64 7653.09 113.55
10114 40.2043 9603.75 7633.28 109.59
10115 40.2080 9609.21 7613.77 110.17
10116 40.2118 9337.65 7593.47 107.96
10117 40.2156 9650.49 7572.98 111.00
10118 40.2193 9473.29 7552.81 110.06
10119 40.2231 9686.33 7531.95 113.26
10120 40.2268 9228.87 7511.46 107.49
10121 40.2306 9357.71 7490.27 109.43
10122 40.2344 9171.27 7468.96 108.36
10123 40.2381 9056.42 7448.11 106.47
10124 40.2419 9092.08 7426.62 107.83
10125 40.2456 9014.42 7405.59 106.81
10126 40.2494 8888.67 7383.97 106.60
10127 40.2532 9137.17 7362.28 108.73
10128 40.2569 8885.26 7341.14 106.73
10129 40.2607 8837.98 7319.40 104.76
10130 40.2644 8650.71 7298.25 104.61
10131 40.2682 8740.03 7276.52 105.99
10132 40.2720 8565.79 7254.83 105.65
10133 40.2757 8840.15 7233.72 105.99
10134 40.2795 8566.13 7212.11 105.19
10135 40.2832 8476.56 7191.10 104.18
10136 40.2870 8305.21 7169.62 102.20
10137 40.2908 8466.76 7148.18 103.68
10138 40.2945 8289.97 7127.41 102.45
10139 40.2983 8288.10 7106.19 103.19
10140 40.3020 8189.21 7085.62 103.24
10141 40.3058 8155.00 7064.63 102.41
10142 40.3095 7926.07 7044.30 100.50
10143 40.3133 8064.47 7023.57 100.04
10144 40.3171 7761.68 7002.96 97.69
10145 40.3208 8038.31 6983.06 101.19
10146 40.3246 7901.65 6962.76 99.93
10147 40.3283 8004.40 6943.18 100.36
10148 40.3321 7737.22 6923.22 99.04
10149 40.3359 7958.43 6903.45 100.45
10150 40.3396 7635.39 6884.36 97.48
10151 40.3434 7748.67 6864.96 98.99
10152 40.3471 7459.36 6846.25 97.16
10153 40.3509 7503.22 6827.24 97.27
10154 40.3547 7331.67 6808.41 96.23
10155 40.3584 7549.70 6790.28 97.85
10156 40.3622 7317.71 6771.90 94.99
10157 40.3659 7573.01 6754.19 98.31
10158 40.3697 7255.49 6736.24 96.04
10159 40.3735 7334.39 6718.50 95.93
10160 40.3772 7318.86 6701.45 93.93
10161 40.3810 7420.62 6684.16 96.61
10162 40.3847 7284.00 6667.56 95.80
10163 40.3885 7290.65 6650.73 94.69
10164 40.3922 7119.76 6634.58 93.74
10165 40.3960 7397.27 6618.23 96.23
10166 40.3998 7208.04 6602.12 93.67
10167 40.4035 7254.96 6586.66 95.59
10168 40.4073 7021.12 6571.04 92.39
10169 40.4110 7089.59 6556.04 94.11
10170 40.4148 7018.13 6540.91 92.73
10171 40.4186 7000.49 6525.98 91.54
10172 40.4223 6919.43 6511.70 93.90
10173 40.4261 7008.32 6497.29 92.13
10174 40.4298 6890.31 6483.48 92.13
10175 40.4336 6953.82 6469.56 92.93
10176 40.4374 6983.17 6455.87 92.13
10177 40.4411 6849.79 6442.79 91.16
10178 40.4449 6833.97 6429.59 90.33
10179 40.4486 6762.66 6416.97 91.71
10180 40.4524 6763.15 6404.25 91.97
10181 40.4562 6877.76 6391.78 92.46
10182 40.4599 6662.63 6379.86 90.85
10183 40.4637 6924.88 6367.87 91.26
10184 40.4674 6623.96 6356.41 90.84
10185 40.4712 6753.46 6344.88 92.54
10186 40.4750 6737.97 6333.58 91.29
10187 40.4787 6683.79 6322.81 89.52
10188 40.4825 6602.67 6311.97 90.78
10189 40.4862 6677.45 6301.64 90.15
10190 40.4900 6548.33 6291.26 90.57
10191 40.4937 6591.45 6281.36 88.80
10192 40.4975 6466.55 6271.43 87.55
10193 40.5013 6684.94 6261.71 89.33
10194 40.5050 6490.65 6252.47 89.42
10195 40.5088 6484.52 6243.18 89.56
10196 40.5125 6299.24 6234.35 87.30
10197 40.5163 6620.83 6225.48 90.01
10198 40.5201 6438.33 6216.83 90.27
10199 40.5238 6463.05 6208.60 90.42
10200 40.5276 6417.95 6200.35 88.75
10201 40.5313 6609.91 6192.51 89.21
10202 40.5351 6348.69 6184.66 88.24
10203 40.5389 6452.08 6177.00 88.91
10204 40.5426 6362.36 6169.73 88.99
10205 40.5464 6513.97 6162.45 88.58
10206 40.5501 6280.29 6155.54 87.50
10207 40.5539 6376.64 6148.64 88.45
10208 40.5576 6301.02 6142.08 87.80
10209 40.5614 6241.23 6135.53 87.57
10210 40.5652 6393.60 6129.16 89.88
10211 40.5689 6464.67 6123.12 88.82
10212 40.5727 6327.23 6117.08 87.53
10213 40.5764 6347.00 6111.37 87.37
10214 40.5802 6243.72 6105.67 86.11
10215 40.5840 6542.66 6100.13 88.08
10216 40.5877 6257.58 6094.89 86.62
10217 40.5915 6368.96 6089.66 87.07
10218 40.5952 6271.49 6084.72 87.19
10219 40.5990 6427.25 6079.80 88.64
10220 40.6028 6185.95 6075.03 86.77
10221 40.6065 6301.50 6070.52 87.39
10222 40.6103 6254.03 6066.04 86.89
10223 40.6140 6471.11 6061.81 89.13
10224 40.6178 6219.91 6057.60 86.05
10225 40.6215 6424.35 6053.64 89.98
10226 40.6253 6311.23 6049.71 86.99
10227 40.6291 6230.11 6045.91 86.81
10228 40.6328 6242.79 6042.34 86.55
10229 40.6366 6349.43 6038.79 87.70
10230 40.6403 6175.68 6035.47 86.61
10231 40.6441 6377.64 6032.17 87.72
10232 40.6479 6314.45 6029.00 87.92
10233 40.6516 6255.97 6026.03 87.76
10234 40.6554 6141.32 6023.09 86.11
10235 40.6591 6366.04 6020.35 88.26
10236 40.6629 6178.64 6017.65 86.83
10237 40.6666 6346.80 6015.13 87.78
10238 40.6704 6223.60 6012.65 86.30
10239 40.6742 6171.39 6010.28 84.80
10240 40.6779 6291.87 6008.08 87.18
10241 40.6817 6310.60 6005.93 88.23
10242 40.6854 6202.31 6003.94 87.04
10243 40.6892 6238.50 6002.00 86.03
10244 40.6930 6311.18 6000.17 86.74
10245 40.6967 6230.04 5998.48 86.41
10246 40.7005 6038.19 5996.86 86.06
10247 40.7042 6402.11 5995.37 88.31
10248 40.7080 6105.15 5993.94 86.61
10249 40.7117 6377.89 5992.65 87.82
10250 40.7155 5979.52 5991.42 84.40
10251 40.7193 6331.95 5990.30 87.36
10252 40.7230 6178.52 5989.30 88.01
10253 40.7268 6159.56 5988.36 86.80
10254 40.7305 6083.28 5987.24 85.69
10255 40.7343 6197.46 5986.18 86.75
10256 40.7381 6017.11 5985.22 84.86
10257 40.7418 6292.96 5984.37 87.78
10258 40.7456 6048.48 5983.60 84.52
10259 40.7493 6073.92 5982.95 84.95
10260 40.7531 6123.23 5982.38 86.28
10261 40.7569 6105.79 5981.90 85.65
10262 40.7606 6230.31 5981.54 87.30
10263 40.7644 6320.36 5981.26 87.93
10264 40.7681 6008.58 5981.08 85.72
10265 40.7719 6155.11 5980.99 87.05
10266 40.7756 6102.33 5981.01 86.13
10267 40.7794 6215.59 5981.12 87.54
10268 40.7832 5956.27 5981.34 84.01
10269 40.7869 5993.81 5981.64 85.12
10270 40.7907 6041.14 5982.06 86.05
10271 40.7944 6262.51 5982.57 87.93
10272 40.7982 5998.80 5983.19 85.73
10273 40.8020 5940.33 5983.92 85.15
10274 40.8057 5999.36 5984.73 86.10
10275 40.8095 6052.01 5985.67 84.85
10276 40.8132 5923.97 5986.69 84.62
10277 40.8170 6072.44 5987.84 85.25
10278 40.8207 6038.04 5989.07 85.70
10279 40.8245 6252.97 5990.44 88.70
10280 40.8283 5977.84 5991.92 84.33
10281 40.8320 5977.46 5993.47 85.47
10282 40.8358 5850.75 5995.18 84.08
10283 40.8395 6201.37 5996.96 86.48
10284 40.8433 5831.32 5998.90 83.78
10285 40.8470 6040.49 6000.90 86.09
10286 40.8508 5743.11 6003.08 83.91
10287 40.8546 6003.56 6005.38 86.37
10288 40.8583 5840.05 6007.73 83.65
10289 40.8621 6108.07 6010.27 86.49
10290 40.8658 5850.51 6012.87 84.83
10291 40.8696 5953.37 6015.67 83.43
10292 40.8734 5974.92 6018.59 85.45
10293 40.8771 6044.77 6021.56 86.09
10294 40.8809 5953.76 6024.74 84.96
10295 40.8846 6032.96 6027.97 85.54
10296 40.8884 5897.74 6031.41 83.52
10297 40.8921 6076.52 6034.90 86.28
10298 40.8959 5885.29 6038.62 84.56
10299 40.8997 5999.37 6042.47 86.80
10300 40.9034 5919.70 6046.36 85.07
10301 40.9072 5984.92 6050.49 85.98
10302 40.9109 6029.98 6054.66 86.00
10303 40.9147 6001.26 6059.08 85.34
10304 40.9184 5919.16 6063.53 84.18
10305 40.9222 6030.53 6068.24 87.45
10306 40.9260 5909.50 6073.11 85.62
10307 40.9297 5952.00 6077.98 84.86
10308 40.9335 5895.02 6083.16 83.50
10309 40.9372 6087.97 6088.32 86.08
10310 40.9410 5950.04 6093.80 85.53
10311 40.9448 6049.80 6099.42 86.49
10312 40.9485 5974.41 6105.04 85.64
10313 40.9523 6087.58 6110.98 86.48
10314 40.9560 5957.93 6116.91 85.41
10315 40.9598 6033.01 6123.16 86.02
10316 40.9635 6052.70 6129.40 86.12
10317 40.9673 6069.71 6135.97 86.39
10318 40.9711 5978.48 6142.70 85.15
10319 40.9748 6094.09 6149.41 86.63
10320 40.9786 6014.68 6156.46 85.97
10321 40.9823 6231.03 6163.50 88.26
10322 40.9861 6012.27 6170.87 85.96
10323 40.9898 6134.75 6178.22 87.02
10324 40.9936 6006.76 6185.93 85.73
10325 40.9974 6202.98 6193.81 86.32
10326 41.0011 6111.12 6201.63 85.68
10327 41.0049 6256.11 6209.84 87.27
10328 41.0086 6214.00 6218.00 87.79
10329 41.0124 6133.10 6226.53 86.82
10330 41.0162 6057.72 6235.23 85.79
10331 41.0199 6186.05 6243.85 86.21
10332 41.0237 6149.28 6252.88 88.39
10333 41.0274 6308.21 6261.83 87.99
10334 41.0312 6119.41 6271.18 85.93
10335 41.0349 6438.91 6280.44 88.44
10336 41.0387 6264.87 6290.12 87.69
10337 41.0425 6314.71 6299.94 87.59
10338 41.0462 6271.17 6309.68 88.13
10339 41.0500 6420.22 6319.82 89.16
10340 41.0537 6251.31 6329.85 87.75
10341 41.0575 6423.40 6340.30 88.27
10342 41.0612 6368.28 6350.64 88.46
10343 41.0650 6522.18 6361.39 88.35
10344 41.0688 6319.11 6372.31 87.86
10345 41.0725 6583.70 6383.07 90.18
10346 41.0763 6540.36 6394.26 89.90
10347 41.0800 6576.47 6405.31 89.73
10348 41.0838 6401.01 6416.78 88.92
10349 41.0875 6634.24 6428.09 90.61
10350 41.0913 6513.57 6439.82 89.44
10351 41.0951 6753.74 6451.69 91.29
10352 41.0988 6524.17 6463.37 89.66
10353 41.1026 6573.41 6475.49 90.70
10354 41.1063 6630.69 6487.40 90.60
10355 41.1101 6784.77 6499.76 91.33
10356 41.1138 6462.46 6511.89 90.08
10357 41.1176 6555.49 6524.46 88.78
10358 41.1214 6681.36 6537.11 92.26
10359 41.1251 6824.54 6549.55 91.68
10360 41.1289 6522.00 6562.42 89.41
10361 41.1326 6664.61 6575.00 90.26
10362 41.1364 6768.09 6588.04 92.14
10363 41.1401 6816.22 6600.78 91.63
10364 41.1439 6722.88 6613.95 91.18
10365 41.1477 6670.59 6627.16 92.09
10366 41.1514 6586.91 6640.10 90.21
10367 41.1552 6740.02 6653.43 89.83
10368 41.1589 6757.40 6666.46 92.17
10369 41.1627 6883.22 6679.85 93.36
10370 41.1664 6665.37 6692.94 91.42
10371 41.1702 6692.31 6706.39 91.13
10372 41.1740 6780.75 6719.86 91.70
10373 41.1777 6948.63 6732.97 93.17
10374 41.1815 6721.77 6746.44 91.39
10375 41.1852 6735.74 6759.53 90.78
10376 41.1890 6587.68 6772.97 90.61
10377 41.1927 6802.69 6786.02 92.23
10378 41.1965 6768.51 6799.37 91.92
10379 41.2003 6758.08 6812.68 92.67
10380 41.2040 6744.16 6825.57 92.35
10381 41.2078 7046.06 6838.74 94.96
10382 41.2115 6667.89 6851.48 91.39
10383 41.2153 6806.51 6864.47 91.23
10384 41.2190 6644.58 6877.00 89.89
10385 41.2228 6874.77 6889.78 94.90
10386 41.2266 6825.83 6902.40 92.28
10387 41.2303 6815.76 6914.57 91.71
10388 41.2341 6661.64 6926.91 90.65
10389 41.2378 6792.76 6938.77 92.41
10390 41.2416 6629.47 6950.75 90.26
10391 41.2453 6696.80 6962.25 91.09
10392 41.2491 6576.61 6973.85 90.59
10393 41.2529 6662.94 6985.22 91.75
10394 41.2566 6635.05 6996.08 91.32
10395 41.2604 6909.45 7006.98 93.39
10396 41.2641 6388.11 7017.34 89.28
10397 41.2679 6769.65 7027.71 91.36
10398 41.2716 6635.16 7037.53 90.87
10399 41.2754 6637.09 7047.32 90.35
10400 41.2792 6622.54 7056.79 90.98
10401 41.2829 6621.87 7065.68 89.86
10402 41.2867 6535.66 7074.49 90.23
10403 41.2904 6705.49 7082.71 91.18
10404 41.2942 6500.84 7090.80 89.94
10405 41.2979 6879.02 7098.30 93.29
10406 41.3017 6593.05 7105.61 91.11
10407 41.3054 6721.19 7112.34 91.42
10408 41.3092 6645.03 7118.84 90.41
10409 41.3130 6946.64 7124.91 93.82
10410 41.3167 6902.91 7130.39 92.43
10411 41.3205 7043.59 7135.58 92.98
10412 41.3242 7045.76 7140.18 95.37
10413 41.3280 7251.25 7144.44 95.19
10414 41.3317 7140.88 7148.13 94.42
10415 41.3355 7276.12 7151.44 95.77
10416 41.3393 7314.58 7154.25 95.69
10417 41.3430 7376.76 7156.50 96.67
10418 41.3468 7338.11 7158.32 97.41
10419 41.3505 7304.18 7159.59 95.93
10420 41.3543 7499.25 7160.40 97.49
10421 41.3580 7471.11 7160.68 97.03
10422 41.3618 7486.74 7160.45 95.84
10423 41.3656 7521.82 7159.70 97.24
10424 41.3693 7361.16 7158.47 96.42
10425 41.3731 7608.57 7156.69 98.65
10426 41.3768 7469.90 7154.45 96.59
10427 41.3806 7747.42 7151.64 99.55
10428 41.3843 7594.02 7148.41 98.45
10429 41.3881 7798.76 7144.58 99.42
10430 41.3918 7471.29 7140.37 95.69
10431 41.3956 7781.87 7135.54 99.06
10432 41.3994 7407.04 7130.22 96.41
10433 41.4031 7710.84 7124.57 98.45
10434 41.4069 7493.08 7118.28 97.67
10435 41.4106 7831.78 7111.72 99.54
10436 41.4144 7614.09 7104.51 97.73
10437 41.4181 7535.20 7097.06 96.22
10438 41.4219 7683.85 7088.96 100.41
10439 41.4256 7681.55 7080.66 99.78
10440 41.4294 7507.26 7071.73 96.83
10441 41.4332 7677.52 7062.38 97.53
10442 41.4369 7557.50 7052.90 96.91
10443 41.4407 7498.95 7042.77 97.84
10444 41.4444 7478.78 7032.56 96.60
10445 41.4482 7608.69 7021.71 98.56
10446 41.4519 7343.59 7010.82 95.75
10447 41.4557 7581.48 6999.30 97.26
10448 41.4595 7376.25 6987.46 96.13
10449 41.4632 7400.34 6975.63 96.86
10450 41.4670 7354.32 6963.21 95.66
10451 41.4707 7354.28 6950.83 95.95
10452 41.4745 7258.72 6937.87 95.61
10453 41.4782 7387.65 6924.99 96.08
10454 41.4820 7299.65 6911.52 96.85
10455 41.4857 7451.83 6898.23 96.73
10456 41.4895 7196.42 6884.33 95.12
10457 41.4933 7285.33 6870.25 95.19
10458 41.4970 7040.04 6856.35 93.19
10459 41.5008 7169.72 6841.93 94.87
10460 41.5045 7085.07 6827.71 94.23
10461 41.5083 7177.14 6812.98 93.35
10462 41.5120 7168.31 6798.49 94.98
10463 41.5158 7242.59 6783.51 94.86
10464 41.5195 6906.61 6768.79 91.55
10465 41.5233 7232.64 6753.60 97.27
10466 41.5271 7118.94 6738.31 95.15
10467 41.5308 7229.51 6723.35 96.18
10468 41.5346 6723.51 6707.91 91.07
10469 41.5383 7049.90 6692.83 93.81
10470 41.5421 6947.24 6677.29 93.56
10471 41.5458 7060.16 6662.14 93.59
10472 41.5496 6715.36 6646.53 91.86
10473 41.5533 7067.71 6631.33 91.34
10474 41.5571 6875.41 6615.69 93.31
10475 41.5609 6822.77 6600.05 91.31
10476 41.5646 6847.99 6584.85 93.34
10477 41.5684 6900.59 6569.24 92.57
10478 41.5721 6784.25 6554.08 91.94
10479 41.5759 6849.10 6538.52 91.72
10480 41.5796 6629.15 6523.42 90.46
10481 41.5834 6688.93 6507.95 91.49
10482 41.5871 6590.88 6492.95 91.07
10483 41.5909 6815.21 6477.58 93.57
10484 41.5947 6552.17 6462.30 90.24
10485 41.5984 6683.64 6447.47 90.58
10486 41.6022 6563.83 6432.33 91.05
10487 41.6059 6772.65 6417.65 91.49
10488 41.6097 6697.61 6402.68 91.12
10489 41.6134 6585.63 6388.18 90.86
10490 41.6172 6540.37 6373.40 90.14
10491 41.6209 6575.49 6359.08 90.29
10492 41.6247 6537.29 6344.50 90.85
10493 41.6285 6614.18 6330.02 91.11
10494 41.6322 6493.68 6316.03 90.28
10495 41.6360 6622.30 6301.79 90.43
10496 41.6397 6410.34 6288.03 89.28
10497 41.6435 6498.23 6274.13 89.89
10498 41.6472 6498.75 6260.62 90.64
10499 41.6510 6494.32 6246.89 90.33
10500 41.6547 6272.29 6233.63 88.65
10501 41.6585 6617.15 6220.17 91.23
10502 41.6622 6409.30 6207.18 90.05
10503 41.6660 6400.95 6194.00 89.41
10504 41.6698 6340.12 6180.94 88.36
10505 41.6735 6578.09 6168.38 90.79
10506 41.6773 6422.78 6155.62 90.84
10507 41.6810 6597.84 6143.35 91.62
10508 41.6848 6280.50 6130.89 88.73
10509 41.6885 6345.63 6118.90 89.90
10510 41.6923 6246.41 6106.75 88.16
10511 41.6960 6436.59 6095.06 90.47
10512 41.6998 6288.40 6083.22 88.85
10513 41.7036 6435.47 6071.53 90.53
10514 41.7073 6079.21 6060.30 85.62
10515 41.7111 6422.24 6048.92 89.65
10516 41.7148 6257.73 6038.00 88.80
10517 41.7186 6384.58 6026.94 88.34
10518 41.7223 6282.46 6016.33 88.90
10519 41.7261 6302.73 6005.59 90.31
10520 41.7298 6316.36 5995.28 89.71
10521 41.7336 6335.71 5984.85 88.42
10522 41.7373 6067.45 5974.86 86.72
10523 41.7411 6332.84 5964.74 89.11
10524 41.7449 6205.81 5954.79 88.13
10525 41.7486 6244.58 5945.26 88.37
10526 41.7524 6177.18 5935.61 87.80
10527 41.7561 6464.08 5926.38 90.06
10528 41.7599 6248.09 5917.05 88.96
10529 41.7636 6235.62 5908.12 89.13
10530 41.7674 6082.64 5899.09 87.26
10531 41.7711 6275.69 5890.46 89.42
10532 41.7749 6136.95 5881.73 85.76
10533 41.7786 6147.00 5873.40 87.63
10534 41.7824 6070.49 5864.97 87.37
10535 41.7862 6137.29 5856.70 88.86
10536 41.7899 6095.85 5848.79 88.45
10537 41.7937 6212.57 5840.81 88.37
10538 41.7974 5981.89 5833.17 86.27
10539 41.8012 6171.08 5825.49 88.31
10540 41.8049 5990.29 5818.12 87.26
10541 41.8087 6165.48 5810.71 88.35
10542 41.8124 6043.55 5803.62 87.25
10543 41.8162 6270.61 5796.48 89.50
10544 41.8199 6002.77 5789.66 85.72
10545 41.8237 6193.14 5782.78 89.13
10546 41.8274 6006.75 5776.21 87.16
10547 41.8312 6030.97 5769.59 86.47
10548 41.8350 5958.67 5763.10 85.41
10549 41.8387 5946.15 5756.90 85.74
10550 41.8425 5908.80 5750.67 85.20
10551 41.8462 6044.64 5744.71 86.34
10552 41.8500 6036.93 5738.70 87.56
10553 41.8537 5986.11 5732.98 86.53
10554 41.8575 5986.36 5727.21 87.28
10555 41.8612 6073.60 5721.70 87.18
10556 41.8650 5891.01 5716.16 84.58
10557 41.8687 6025.52 5710.87 86.26
10558 41.8725 5929.27 5705.54 86.78
10559 41.8763 6006.18 5700.32 86.65
10560 41.8800 5927.02 5695.34 86.40
10561 41.8838 5930.35 5690.34 84.65
10562 41.8875 5993.14 5685.55 86.70
10563 41.8913 6145.42 5680.74 87.49
10564 41.8950 6038.05 5676.15 85.92
10565 41.8988 6056.52 5671.53 86.33
10566 41.9025 5950.28 5667.11 87.79
10567 41.9063 6202.61 5662.67 88.91
10568 41.9100 6137.07 5658.43 89.08
10569 41.9138 6193.47 5654.17 88.80
10570 41.9175 5925.66 5650.10 85.64
10571 41.9213 5953.75 5646.00 85.26
10572 41.9251 5844.88 5641.98 88.09
10573 41.9288 6071.90 5638.15 87.53
10574 41.9326 5946.85 5634.29 86.55
10575 41.9363 6077.48 5630.61 87.01
10576 41.9401 5893.21 5626.90 86.82
10577 41.9438 6194.14 5623.36 89.01
10578 41.9476 6040.52 5619.80 88.12
10579 41.9513 5962.56 5616.39 85.98
10580 41.9551 6063.49 5612.96 87.98
10581 41.9588 6000.38 5609.69 87.83
10582 41.9626 6064.76 5606.39 87.66
10583 41.9663 6104.40 5603.24 88.67
10584 41.9701 5893.15 5600.07 85.52
10585 41.9738 6146.11 5596.89 88.59
10586 41.9776 5866.63 5593.83 85.32
10587 41.9814 6094.22 5590.83 88.80
10588 41.9851 5922.24 5587.96 86.93
10589 41.9889 6090.29 5585.08 88.12
10590 41.9911 5907.33 5583.42 85.36
10591 41.9948 5922.29 5580.69 84.07
10592 41.9986 5828.65 5577.93 84.85
10593 42.0023 5933.34 5575.30 85.08
10594 42.0061 5716.11 5572.64 82.60
10595 42.0099 6001.34 5570.03 87.87
10596 42.0136 5792.50 5567.52 85.03
10597 42.0174 5969.68 5565.00 86.65
10598 42.0211 5801.42 5562.58 84.09
10599 42.0249 5877.97 5560.14 84.98
10600 42.0286 5837.82 5557.81 85.13
10601 42.0324 5906.69 5555.45 84.94
10602 42.0361 5626.31 5553.19 83.46
10603 42.0399 5780.28 5550.91 81.86
10604 42.0437 5848.29 5548.66 85.48
10605 42.0474 5949.15 5546.51 84.80
10606 42.0512 5664.88 5544.33 84.20
10607 42.0549 5857.47 5542.24 84.70
10608 42.0587 5710.34 5540.14 83.73
10609 42.0624 5764.20 5538.11 83.53
10610 42.0662 5641.93 5536.06 82.90
10611 42.0699 5878.74 5534.10 85.35
10612 42.0737 5614.72 5532.11 83.51
10613 42.0775 5757.26 5530.15 85.39
10614 42.0812 5625.14 5528.27 83.10
10615 42.0850 5661.44 5526.36 82.79
10616 42.0887 5551.45 5524.53 83.16
10617 42.0925 5903.38 5522.68 84.95
10618 42.0962 5596.72 5520.90 82.67
10619 42.1000 5654.94 5519.09 83.68
10620 42.1037 5648.85 5517.35 83.29
10621 42.1075 5759.14 5515.60 84.08
10622 42.1113 5664.62 5513.86 84.10
10623 42.1150 5691.86 5512.19 84.01
10624 42.1188 5541.86 5510.49 82.87
10625 42.1225 5883.56 5508.86 84.87
10626 42.1263 5461.04 5507.20 81.87
10627 42.1300 5689.89 5505.61 83.69
10628 42.1338 5443.79 5503.99 82.35
10629 42.1375 5700.89 5502.43 84.22
10630 42.1413 5494.82 5500.84 82.57
10631 42.1450 5787.38 5499.32 84.88
10632 42.1488 5461.81 5497.77 82.60
10633 42.1526 5549.30 5496.23 82.79
10634 42.1563 5548.59 5494.75 82.24
10635 42.1601 5708.25 5493.25 84.10
10636 42.1638 5581.81 5491.80 84.23
10637 42.1676 5705.48 5490.32 84.71
10638 42.1713 5507.76 5488.90 82.69
10639 42.1751 5594.81 5487.45 84.02
10640 42.1788 5595.04 5486.05 83.12
10641 42.1826 5575.59 5484.62 83.74
10642 42.1864 5524.68 5483.21 82.89
10643 42.1901 5660.00 5481.85 84.50
10644 42.1939 5475.86 5480.46 80.99
10645 42.1976 5784.79 5479.12 84.78
10646 42.2014 5593.86 5477.75 83.63
10647 42.2051 5485.34 5476.43 81.39
10648 42.2089 5463.89 5475.08 82.47
10649 42.2126 5687.82 5473.78 85.50
10650 42.2164 5568.71 5472.45 83.85
10651 42.2201 5559.00 5471.17 82.42
10652 42.2239 5558.17 5469.86 82.80
10653 42.2261 5645.34 5469.10 84.28
10654 42.2299 5582.54 5467.80 83.41
10655 42.2337 5560.33 5466.52 82.93
10656 42.2374 5698.85 5465.27 84.48
10657 42.2412 5476.51 5463.99 82.21
10658 42.2449 5760.90 5462.76 85.24
10659 42.2487 5428.32 5461.50 82.57
10660 42.2524 5671.75 5460.28 84.21
10661 42.2562 5702.41 5459.03 84.82
10662 42.2599 5576.55 5457.82 82.45
10663 42.2637 5532.19 5456.58 82.70
10664 42.2674 5591.22 5455.39 83.83
10665 42.2712 5495.61 5454.16 82.06
10666 42.2749 5515.96 5452.97 83.07
10667 42.2787 5506.81 5451.76 83.34
10668 42.2825 5534.00 5450.55 83.16
10669 42.2862 5563.37 5449.37 83.95
10670 42.2900 5508.71 5448.17 83.32
10671 42.2937 5517.71 5447.01 82.89
10672 42.2975 5569.20 5445.81 84.62
10673 42.3012 5563.53 5444.65 83.78
10674 42.3050 5566.24 5443.47 84.64
10675 42.3087 5496.65 5442.32 83.57
10676 42.3125 5577.00 5441.14 83.85
10677 42.3162 5609.73 5439.99 84.50
10678 42.3200 5461.48 5438.82 81.23
10679 42.3237 5661.73 5437.68 85.67
10680 42.3275 5634.00 5436.51 83.79
10681 42.3313 5514.92 5435.35 82.53
10682 42.3350 5654.98 5434.22 83.73
10683 42.3388 5464.16 5433.06 81.81
10684 42.3425 5524.68 5431.93 83.35
10685 42.3463 5488.59 5430.78 83.21
10686 42.3500 5637.83 5429.65 84.21
10687 42.3538 5401.77 5428.50 82.58
10688 42.3575 5725.99 5427.39 84.95
10689 42.3613 5485.90 5426.24 83.83
10690 42.3650 5621.22 5425.13 83.42
10691 42.3688 5498.40 5423.99 83.51
10692 42.3726 5652.32 5422.85 84.43
10693 42.3763 5417.75 5421.74 82.19
10694 42.3801 5647.46 5420.61 83.98
10695 42.3838 5486.25 5419.50 83.22
10696 42.3876 5570.91 5418.37 82.80
10697 42.3913 5455.05 5417.27 81.96
10698 42.3951 5618.45 5416.15 84.07
10699 42.3988 5484.40 5415.05 83.53
10700 42.4026 5370.91 5413.93 82.09
10701 42.4063 5366.36 5412.84 82.61
10702 42.4101 5394.99 5411.72 81.84
10703 42.4139 5398.56 5410.60 80.99
10704 42.4176 5454.07 5409.52 81.13
10705 42.4214 5458.33 5408.41 85.01
10706 42.4251 5575.93 5407.33 83.58
10707 42.4289 5432.18 5406.23 82.00
10708 42.4326 5386.13 5405.15 81.85
10709 42.4364 5396.15 5404.05 82.23
10710 42.4401 5339.54 5402.98 82.29
10711 42.4439 5347.11 5401.88 81.62
10712 42.4476 5463.93 5400.82 83.11
10713 42.4514 5438.50 5399.73 81.94
10714 42.4552 5366.33 5398.64 81.84
10715 42.4589 5348.91 5397.59 81.07
10716 42.4627 5425.11 5396.51 82.08
10717 42.4664 5236.78 5395.46 81.38
10718 42.4702 5430.22 5394.39 83.87
10719 42.4739 5314.73 5393.35 82.15
10720 42.4777 5503.41 5392.28 84.31
10721 42.4814 5390.31 5391.25 83.03
10722 42.4852 5359.12 5390.19 80.71
10723 42.4889 5351.45 5389.16 82.87
10724 42.4927 5366.79 5388.11 81.01
10725 42.4965 5303.12 5387.06 81.23
10726 42.5002 5519.71 5386.04 82.88
10727 42.5040 5220.77 5385.00 80.57
10728 42.5077 5357.80 5383.99 81.77
10729 42.5115 5291.11 5382.96 81.72
10730 42.5152 5354.57 5381.96 81.33
10731 42.5190 5296.55 5380.93 80.51
10732 42.5227 5504.32 5379.94 84.64
10733 42.5265 5281.50 5380.02 81.36
10734 42.5303 5273.82 5379.01 81.64
10735 42.5340 5272.46 5378.03 81.10
10736 42.5378 5306.75 5377.03 81.53
10737 42.5415 5329.74 5376.06 82.50
10738 42.5453 5329.84 5375.07 82.95
10739 42.5490 5349.36 5374.10 83.00
10740 42.5528 5357.85 5373.12 81.94
10741 42.5565 5321.59 5372.17 81.62
10742 42.5603 5285.75 5371.19 82.60
10743 42.5641 5132.68 5370.23 79.70
10744 42.5678 5388.95 5369.29 83.71
10745 42.5716 5377.29 5368.33 83.01
10746 42.5753 5395.63 5367.40 83.37
10747 42.5791 5198.06 5366.46 80.39
10748 42.5828 5356.08 5365.54 82.01
10749 42.5866 5256.20 5364.60 81.59
10750 42.5903 5287.60 5363.70 82.64
10751 42.5941 5380.17 5362.77 82.73
10752 42.5979 5325.50 5361.85 82.52
10753 42.6016 5158.52 5360.97 81.93
10754 42.6054 5173.36 5360.06 80.89
10755 42.6091 5182.14 5359.18 81.44
10756 42.6129 5303.35 5358.29 82.71
10757 42.6166 5196.52 5357.42 80.79
10758 42.6204 5207.23 5356.53 80.36
10759 42.6241 5308.17 5355.68 84.69
10760 42.6279 5288.34 5354.81 81.92
10761 42.6316 5306.27 5353.97 81.52
10762 42.6354 5315.70 5353.11 82.16
10763 42.6392 5165.28 5352.26 81.42
10764 42.6429 5144.94 5351.44 80.70
10765 42.6467 5215.79 5350.60 81.95
10766 42.6504 5303.62 5349.79 82.78
10767 42.6542 5136.32 5348.97 81.26
10768 42.6579 5346.35 5348.17 83.15
10769 42.6617 5217.24 5347.36 82.10
10770 42.6655 5279.13 5346.56 81.65
10771 42.6692 5276.32 5345.79 83.11
10772 42.6730 5195.25 5345.00 80.80
10773 42.6767 5334.84 5344.24 82.68
10774 42.6805 5329.08 5343.47 82.87
10775 42.6842 5062.04 5342.73 81.63
10776 42.6880 5338.60 5341.97 81.86
10777 42.6917 5310.43 5341.24 81.87
10778 42.6955 5279.28 5340.51 80.13
10779 42.6993 5215.35 5339.78 79.76
10780 42.7030 5330.19 5339.07 82.16
10781 42.7068 5285.80 5338.36 80.31
10782 42.7105 5256.67 5337.67 80.27
10783 42.7143 5095.93 5336.98 78.76
10784 42.7180 5167.12 5336.31 78.46
10785 42.7218 5260.08 5335.63 80.10
10786 42.7255 5261.14 5334.98 80.89
10787 42.7293 5154.75 5334.32 79.20
10788 42.7331 5221.88 5333.67 79.88
10789 42.7368 5188.35 5333.05 80.15
10790 42.7406 5302.10 5332.43 80.33
10791 42.7443 5249.46 5331.82 80.99
10792 42.7481 5277.53 5331.21 80.96
10793 42.7518 5252.64 5330.63 79.78
10794 42.7556 5401.04 5330.05 81.70
10795 42.7593 5219.46 5329.49 80.48
10796 42.7631 5174.26 5328.92 79.94
10797 42.7669 5190.16 5328.37 80.00
10798 42.7706 5246.94 5327.84 80.39
10799 42.7744 5248.91 5327.31 80.91
10800 42.7781 5160.38 5326.81 79.90
10801 42.7819 5296.49 5326.30 81.00
10802 42.7856 5251.64 5325.82 81.12
10803 42.7894 5089.86 5325.34 80.05
10804 42.7932 5250.21 5324.88 80.21
10805 42.7969 5218.95 5324.43 80.02
10806 42.8007 5261.98 5323.99 80.34
10807 42.8044 5298.49 5323.58 81.31
10808 42.8082 5239.93 5323.16 81.10
10809 42.8119 5198.02 5322.78 80.14
10810 42.8157 5322.38 5323.03 81.67
10811 42.8194 4994.08 5322.67 76.49
10812 42.8232 5226.84 5322.31 82.07
10813 42.8270 5279.64 5321.97 80.18
10814 42.8307 5246.05 5321.66 80.27
10815 42.8345 5218.42 5321.35 80.38
10816 42.8382 5275.45 5321.06 81.21
10817 42.8420 5140.60 5320.78 78.55
10818 42.8457 5315.96 5320.53 81.15
10819 42.8495 5059.00 5320.29 79.29
10820 42.8533 5381.58 5320.06 82.38
10821 42.8570 5143.34 5319.85 79.74
10822 42.8608 5281.28 5319.66 80.22
10823 42.8645 5173.25 5319.49 80.53
10824 42.8683 5231.54 5319.33 80.55
10825 42.8720 5152.86 5319.20 80.12
10826 42.8758 5367.33 5319.08 80.56
10827 42.8796 5161.21 5318.98 80.82
10828 42.8833 5245.95 5318.90 81.35
10829 42.8871 5255.26 5318.84 79.77
10830 42.8908 5152.65 5318.80 80.10
10831 42.8946 5152.46 5318.78 78.55
10832 42.8983 5214.17 5318.78 80.36
10833 42.9021 5178.37 5318.80 80.95
10834 42.9059 5104.62 5318.84 79.71
10835 42.9096 5029.43 5318.90 78.99
10836 42.9134 5133.45 5318.99 79.20
10837 42.9171 5214.45 5319.09 79.22
10838 42.9209 5223.76 5319.22 80.76
10839 42.9246 5234.66 5319.37 81.18
10840 42.9284 5281.72 5319.54 81.71
10841 42.9322 5193.82 5319.74 80.39
10842 42.9359 5214.09 5319.96 80.33
10843 42.9397 5206.35 5320.20 80.85
10844 42.9434 5341.89 5320.47 81.41
10845 42.9472 5324.74 5320.76 81.15
10846 42.9509 5440.38 5321.07 81.60
10847 42.9547 5244.69 5321.42 80.83
10848 42.9584 5258.88 5321.78 80.84
10849 42.9622 5321.94 5322.17 81.19
10850 42.9660 5324.22 5322.59 81.27
10851 42.9697 5180.54 5323.03 80.70
10852 42.9735 5277.73 5323.50 82.23
10853 42.9772 5251.83 5323.99 79.05
10854 42.9810 5373.02 5324.52 81.32
10855 42.9847 5421.21 5325.06 82.19
10856 42.9885 5498.19 5325.64 81.49
10857 42.9923 5349.03 5326.25 82.51
10858 42.9960 5486.31 5326.87 81.35
10859 42.9998 5359.96 5327.54 81.87
10860 43.0035 5562.30 5328.21 82.95
10861 43.0073 5313.58 5328.94 81.98
10862 43.0110 5532.83 5329.67 83.71
10863 43.0148 5384.81 5330.45 82.30
10864 43.0186 5424.64 5331.26 79.45
10865 43.0223 5337.20 5332.07 82.06
10866 43.0261 5488.33 5332.94 83.88
10867 43.0298 5499.68 5333.81 82.60
10868 43.0336 5429.61 5334.74 80.80
10869 43.0373 5349.72 5335.67 81.60
10870 43.0411 5690.06 5336.65 85.02
10871 43.0449 5616.44 5337.67 83.98
10872 43.0486 5541.33 5338.69 84.20
10873 43.0524 5513.76 5339.76 82.35
10874 43.0561 5626.41 5340.84 84.59
10875 43.0599 5460.30 5341.97 81.34
10876 43.0636 5603.08 5343.11 83.19
10877 43.0674 5587.06 5344.30 84.24
10878 43.0712 5628.00 5345.53 84.52
10879 43.0749 5420.98 5346.75 82.56
10880 43.0787 5795.83 5348.03 84.35
10881 43.0824 5535.67 5349.31 83.53
10882 43.0862 5813.46 5350.65 85.25
10883 43.0900 5718.08 5352.03 85.62
10884 43.0937 5740.88 5353.39 86.46
10885 43.0975 5805.48 5354.82 85.68
10886 43.1012 5863.19 5356.24 87.24
10887 43.1050 5809.52 5357.73 85.72
10888 43.1087 5850.34 5359.21 86.02
10889 43.1125 5686.41 5360.76 84.70
10890 43.1163 5966.74 5362.33 87.26
10891 43.1200 5684.44 5363.89 84.10
10892 43.1238 5868.68 5365.52 88.19
10893 43.1275 5771.24 5367.13 83.95
10894 43.1313 5874.92 5368.81 85.91
10895 43.1350 5714.46 5370.47 85.42
10896 43.1388 6010.86 5372.21 87.51
10897 43.1426 5870.06 5373.97 85.90
10898 43.1463 6074.91 5375.70 87.82
10899 43.1501 5892.75 5377.51 86.84
10900 43.1538 5933.54 5379.30 87.33
10901 43.1576 5728.72 5381.15 85.82
10902 43.1613 6055.77 5382.99 88.91
10903 43.1651 6043.45 5384.88 89.28
10904 43.1689 6086.68 5386.81 86.86
10905 43.1726 5805.48 5388.70 84.32
10906 43.1764 5927.30 5390.67 84.75
10907 43.1801 5793.11 5392.60 84.23
10908 43.1839 6040.53 5394.61 86.87
10909 43.1876 5867.23 5396.57 85.52
10910 43.1914 6160.16 5398.61 88.11
10911 43.1952 5882.52 5400.67 85.81
10912 43.1989 6086.39 5402.69 87.31
10913 43.2027 6049.23 5404.77 87.31
10914 43.2064 5886.45 5406.82 86.00
10915 43.2102 5960.20 5408.93 86.18
10916 43.2140 6043.68 5411.05 87.77
10917 43.2177 5858.64 5413.13 84.74
10918 43.2215 6023.95 5415.28 87.69
10919 43.2252 5924.93 5417.38 87.02
10920 43.2290 5985.15 5419.54 87.21
10921 43.2327 5925.20 5421.65 86.49
10922 43.2365 5869.68 5423.82 85.27
10923 43.2403 5791.53 5425.99 84.74
10924 43.2440 5818.83 5428.11 84.52
10925 43.2478 5741.66 5430.29 85.00
10926 43.2515 5707.28 5432.41 85.47
10927 43.2553 5733.46 5434.59 85.03
10928 43.2590 5691.83 5436.69 84.76
10929 43.2628 5893.02 5438.86 86.33
10930 43.2666 5645.97 5441.03 83.78
10931 43.2703 5575.55 5443.12 82.07
10932 43.2741 5689.05 5445.26 84.26
10933 43.2778 5361.13 5447.33 82.07
10934 43.2816 5552.79 5449.44 82.98
10935 43.2854 5579.63 5451.54 84.16
10936 43.2891 5573.02 5453.57 83.41
10937 43.2929 5556.15 5455.63 83.44
10938 43.2966 5576.20 5457.62 82.85
10939 43.3004 5451.52 5459.63 81.95
10940 43.3041 5391.85 5461.57 80.82
10941 43.3079 5505.14 5463.53 83.38
10942 43.3117 5530.84 5465.46 83.75
10943 43.3154 5383.54 5467.31 82.51
10944 43.3192 5532.69 5469.18 80.37
10945 43.3229 5463.87 5470.96 83.56
10946 43.3267 5432.80 5472.75 82.85
10947 43.3305 5230.09 5474.51 79.17
10948 43.3342 5354.65 5476.17 81.62
10949 43.3380 5257.86 5477.83 79.76
10950 43.3417 5411.88 5479.40 81.87
10951 43.3455 5271.00 5480.97 80.41
10952 43.3492 5324.19 5482.44 80.86
10953 43.3530 5284.72 5483.90 79.98
10954 43.3568 5215.13 5485.30 80.52
10955 43.3605 5302.47 5486.60 81.19
10956 43.3643 5335.65 5487.89 81.36
10957 43.3680 5263.93 5489.07 80.51
10958 43.3718 5291.47 5490.22 79.80
10959 43.3756 5227.80 5491.31 80.36
10960 43.3793 5387.43 5492.30 81.49
10961 43.3831 5156.03 5493.24 79.65
10962 43.3868 5316.95 5494.08 80.84
10963 43.3906 5228.61 5494.88 80.45
10964 43.3943 5284.27 5495.58 80.27
10965 43.3981 5396.90 5496.22 81.10
10966 43.4019 5392.42 5496.77 81.61
10967 43.4056 5186.78 5497.24 79.27
10968 43.4094 5280.20 5497.63 80.80
10969 43.4131 5158.27 5497.93 79.36
10970 43.4169 5308.94 5498.16 79.82
10971 43.4207 5253.05 5498.29 79.08
10972 43.4244 5452.72 5498.34 84.03
10973 43.4282 5367.40 5498.30 81.26
10974 43.4319 5226.60 5498.18 78.89
10975 43.4357 5206.02 5497.96 80.19
10976 43.4394 5359.05 5497.67 80.72
10977 43.4432 5253.15 5497.27 80.43
10978 43.4470 5479.44 5496.78 82.48
10979 43.4507 5169.77 5496.23 79.64
10980 43.4545 5450.09 5495.56 82.16
10981 43.4582 5255.39 5494.83 80.39
10982 43.4620 5430.67 5493.98 81.95
10983 43.4658 5229.55 5493.05 79.30
10984 43.4695 5326.37 5492.06 81.21
10985 43.4733 5183.40 5490.96 79.34
10986 43.4770 5309.07 5489.80 80.66
10987 43.4808 5121.44 5489.01 79.29
10988 43.4845 5321.32 5488.17 80.84
10989 43.4883 5242.00 5487.21 79.36
10990 43.4921 5128.04 5486.18 79.29
10991 43.4958 5288.19 5485.10 80.65
10992 43.4996 5297.04 5483.91 80.51
10993 43.5033 5136.86 5482.68 79.89
10994 43.5071 5209.36 5481.34 79.73
10995 43.5109 5124.75 5479.94 79.58
10996 43.5146 5174.19 5478.50 80.53
10997 43.5184 5147.31 5476.96 79.00
10998 43.5221 5263.24 5475.39 79.71
10999 43.5259 5165.69 5473.72 80.46
11000 43.5297 5161.58 5472.00 79.87
11001 43.5334 5126.17 5470.26 78.82
11002 43.5372 5153.03 5468.41 78.79
11003 43.5409 5247.14 5466.57 80.07
11004 43.5447 5225.32 5464.62 80.56
11005 43.5484 5092.96 5462.68 79.12
11006 43.5522 5099.05 5460.63 79.77
11007 43.5560 5080.23 5458.55 78.88
11008 43.5597 5323.77 5456.48 81.60
11009 43.5635 5071.00 5454.31 79.20
11010 43.5672 5060.45 5452.17 78.82
11011 43.5710 5160.72 5449.94 80.20
11012 43.5748 5177.15 5447.67 79.78
11013 43.5785 5102.71 5445.44 79.50
11014 43.5823 5215.94 5443.11 81.00
11015 43.5860 5168.77 5440.83 79.82
11016 43.5898 5264.40 5438.46 80.82
11017 43.5936 5111.36 5436.06 77.33
11018 43.5973 5151.99 5433.72 79.32
11019 43.6011 4998.07 5431.30 78.45
11020 43.6048 5238.22 5428.92 80.22
11021 43.6086 4950.40 5426.47 77.91
11022 43.6123 5202.44 5424.08 79.94
11023 43.6161 5093.56 5419.50 78.98
11024 43.6199 5169.88 5417.03 79.72
11025 43.6236 5097.32 5414.63 79.47
11026 43.6274 5242.27 5412.15 80.52
11027 43.6311 5175.90 5409.74 80.46
11028 43.6349 5190.77 5407.27 80.42
11029 43.6387 5098.14 5404.80 78.82
11030 43.6424 5189.22 5402.41 79.87
11031 43.6462 5007.03 5399.95 79.26
11032 43.6499 5079.54 5397.57 78.92
11033 43.6537 4942.01 5395.13 77.38
11034 43.6575 5132.78 5392.70 78.67
11035 43.6612 5020.91 5390.36 78.19
11036 43.6650 5206.79 5387.96 79.51
11037 43.6687 4879.88 5385.65 76.64
11038 43.6725 5165.26 5383.29 79.21
11039 43.6763 5052.11 5380.94 78.56
11040 43.6800 4985.71 5378.68 77.69
11041 43.6838 5024.86 5376.39 78.40
11042 43.6875 5154.99 5374.17 79.31
11043 43.6913 4916.15 5371.92 77.46
11044 43.6950 5095.61 5369.75 78.55
11045 43.6988 5067.49 5367.55 78.23
11046 43.7026 5042.88 5365.38 78.71
11047 43.7063 5147.67 5363.30 78.04
11048 43.7101 5087.37 5361.18 79.18
11049 43.7138 5052.31 5359.16 79.10
11050 43.7176 5099.23 5357.11 78.61
11051 43.7214 4899.85 5355.10 75.48
11052 43.7251 5235.77 5353.17 81.23
11053 43.7289 4999.26 5351.23 77.35
11054 43.7326 5117.96 5349.37 78.41
11055 43.7364 4950.60 5347.51 76.42
11056 43.7402 4915.29 5345.67 77.36
11057 43.7439 5085.91 5343.93 78.94
11058 43.7477 4986.04 5342.18 78.67
11059 43.7514 4862.50 5340.52 77.04
11060 43.7552 5026.71 5338.85 78.14
11061 43.7590 4931.43 5337.22 77.94
11062 43.7627 5223.14 5335.68 81.05
11063 43.7665 4995.76 5334.15 77.90
11064 43.7702 5141.27 5332.70 79.08
11065 43.7740 4986.96 5331.25 78.29
11066 43.7778 5177.71 5329.85 78.96
11067 43.7815 4871.35 5328.54 76.96
11068 43.7853 5103.50 5327.24 79.26
11069 43.7890 4909.97 5326.02 77.50
11070 43.7928 5266.16 5324.82 80.49
11071 43.7965 4932.40 5323.70 76.60
11072 43.8003 5109.92 5322.60 78.41
11073 43.8041 5011.56 5321.55 78.78
11074 43.8078 5172.11 5320.58 79.24
11075 43.8116 4932.36 5319.64 77.40
11076 43.8153 5104.92 5318.78 78.55
11077 43.8191 4896.25 5317.95 76.95
11078 43.8229 5027.44 5317.18 77.54
11079 43.8266 4979.06 5316.48 79.31
11080 43.8304 5112.13 5315.82 78.47
11081 43.8341 4967.98 5315.24 77.07
11082 43.8379 4995.80 5314.69 77.58
11083 43.8417 5008.13 5314.21 78.57
11084 43.8454 5007.08 5313.80 77.48
11085 43.8492 5018.28 5313.44 77.90
11086 43.8529 4977.00 5313.15 77.93
11087 43.8567 4907.95 5312.92 77.93
11088 43.8605 5014.97 5312.75 78.06
11089 43.8642 5036.49 5312.65 78.66
11090 43.8680 5033.21 5312.62 78.49
11091 43.8717 4958.74 5312.64 77.87
11092 43.8755 5010.48 5312.74 77.88
11093 43.8793 4984.17 5312.91 77.61
11094 43.8830 5029.42 5313.14 78.44
11095 43.8868 4948.82 5313.44 77.47
11096 43.8905 5232.99 5313.81 79.83
11097 43.8943 5011.54 5314.26 78.34
11098 43.8981 5105.79 5314.78 76.98
11099 43.9018 5103.09 5315.36 79.40
11100 43.9056 5123.39 5316.03 79.52
11101 43.9093 4893.09 5316.76 75.76
11102 43.9131 5130.35 5317.59 78.43
11103 43.9169 4944.04 5318.49 76.41
11104 43.9206 5063.56 5319.45 76.93
11105 43.9244 5032.90 5320.52 79.02
11106 43.9281 5177.88 5321.64 80.35
11107 43.9319 4990.64 5322.87 77.17
11108 43.9356 5033.20 5324.15 77.72
11109 43.9394 5122.63 5325.56 78.32
11110 43.9432 5065.99 5327.05 77.81
11111 43.9469 5019.36 5328.59 77.92
11112 43.9507 5083.61 5330.26 78.35
11113 43.9544 5095.22 5331.98 79.36
11114 43.9582 5008.83 5334.91 77.52
11115 43.9620 5024.69 5336.85 78.48
11116 43.9657 5132.70 5338.85 79.55
11117 43.9695 5043.82 5340.99 78.64
11118 43.9732 5106.98 5343.18 79.11
11119 43.9770 5046.51 5345.52 78.95
11120 43.9808 5153.11 5347.97 78.80
11121 43.9845 5051.35 5350.46 78.68
11122 43.9883 5316.30 5353.12 80.49
11123 43.9920 4988.87 5355.81 77.71
11124 43.9958 5154.67 5358.69 79.18
11125 43.9996 5031.77 5361.68 79.10
11126 44.0033 5219.29 5364.70 79.78
11127 44.0071 5006.18 5367.92 77.77
11128 44.0108 5348.60 5371.17 81.26
11129 44.0146 5171.40 5374.63 78.93
11130 44.0184 5178.30 5378.20 78.88
11131 44.0221 5109.82 5381.81 78.42
11132 44.0259 5269.43 5385.63 81.80
11133 44.0296 5120.69 5389.49 79.00
11134 44.0334 5215.95 5393.57 79.67
11135 44.0372 5260.89 5397.78 80.16
11136 44.0409 5273.23 5402.01 80.73
11137 44.0447 5244.88 5406.50 80.50
11138 44.0484 5345.63 5411.00 80.17
11139 44.0522 5151.21 5415.76 78.95
11140 44.0560 5203.18 5420.66 79.42
11141 44.0597 5176.93 5425.59 79.66
11142 44.0635 5317.06 5430.78 80.66
11143 44.0672 5175.51 5435.99 79.29
11144 44.0710 5285.30 5441.49 79.52
11145 44.0748 5276.90 5447.15 80.89
11146 44.0785 5193.93 5452.81 78.74
11147 44.0823 5158.04 5458.78 79.67
11148 44.0860 5223.99 5464.76 79.68
11149 44.0898 5258.63 5471.05 80.31
11150 44.0936 5344.29 5477.52 80.08
11151 44.0973 5150.71 5483.97 79.58
11152 44.1011 5414.34 5490.78 81.93
11153 44.1048 5383.84 5497.58 81.79
11154 44.1086 5384.76 5504.73 81.83
11155 44.1124 5401.33 5512.06 82.20
11156 44.1161 5365.16 5519.39 80.77
11157 44.1199 5217.00 5527.08 79.38
11158 44.1236 5634.47 5534.77 83.38
11159 44.1274 5478.90 5542.84 84.01
11160 44.1312 5513.30 5551.10 82.62
11161 44.1349 5423.71 5559.35 80.78
11162 44.1387 5433.70 5568.01 81.20
11163 44.1424 5483.87 5576.62 81.91
11164 44.1462 5714.38 5585.68 84.84
11165 44.1500 5590.19 5594.94 83.24
11166 44.1537 5581.46 5602.14 83.03
11167 44.1575 5627.14 5611.81 82.70
11168 44.1612 5716.40 5621.43 83.84
11169 44.1650 5640.70 5631.52 83.58
11170 44.1688 5782.75 5641.83 85.01
11171 44.1725 5847.89 5652.08 85.65
11172 44.1763 5870.01 5662.81 84.76
11173 44.1800 5825.71 5673.49 84.99
11174 44.1838 6001.16 5684.67 87.56
11175 44.1875 5858.43 5695.77 85.61
11176 44.1913 6061.86 5707.40 87.72
11177 44.1951 5904.05 5719.25 85.52
11178 44.1988 6166.30 5731.02 87.77
11179 44.2026 5983.20 5743.34 86.82
11180 44.2063 6189.39 5755.55 88.27
11181 44.2101 6094.10 5768.33 88.34
11182 44.2139 6186.09 5781.35 87.77
11183 44.2176 6091.09 5794.25 86.39
11184 44.2214 6286.23 5807.74 87.08
11185 44.2252 6401.99 5821.46 92.79
11186 44.2289 6432.59 5835.06 90.40
11187 44.2327 6393.37 5849.26 88.66
11188 44.2364 6544.13 5863.33 90.91
11189 44.2402 6458.12 5878.02 90.27
11190 44.2439 6746.66 5892.55 92.11
11191 44.2477 6677.49 5907.72 92.27
11192 44.2515 6631.39 5923.12 90.54
11193 44.2552 6778.68 5938.38 93.29
11194 44.2590 6926.28 5954.26 92.91
11195 44.2627 6798.30 5969.98 92.96
11196 44.2665 6935.99 5986.37 93.57
11197 44.2703 6894.82 6003.00 93.33
11198 44.2740 7297.92 6019.42 95.95
11199 44.2778 7187.83 6036.53 95.10
11200 44.2815 7341.06 6053.42 96.36
11201 44.2853 7090.05 6071.01 94.67
11202 44.2891 7346.55 6088.82 96.61
11203 44.2928 7410.40 6106.42 97.03
11204 44.2966 7635.82 6124.72 98.92
11205 44.3003 7578.14 6142.76 98.46
11206 44.3041 7745.56 6161.53 99.60
11207 44.3079 7601.67 6180.51 97.62
11208 44.3116 7817.97 6199.24 101.40
11209 44.3154 7727.79 6218.68 98.41
11210 44.3191 7990.57 6237.85 101.34
11211 44.3229 7996.92 6257.73 100.03
11212 44.3267 8144.20 6277.87 105.11
11213 44.3304 8147.94 6297.66 101.42
11214 44.3342 8221.61 6318.21 103.30
11215 44.3379 8103.87 6338.40 102.57
11216 44.3417 8333.78 6359.36 103.95
11217 44.3455 8464.78 6380.51 105.69
11218 44.3492 8371.70 6401.31 103.30
11219 44.3530 8442.10 6422.87 103.68
11220 44.3567 8517.24 6444.02 104.80
11221 44.3605 8521.98 6465.95 103.86
11222 44.3643 8688.17 6488.04 107.16
11223 44.3680 8566.01 6509.74 105.05
11224 44.3718 8828.98 6532.17 108.38
11225 44.3755 8492.88 6554.19 104.02
11226 44.3793 8759.71 6576.94 107.63
11227 44.3831 8699.31 6599.87 107.14
11228 44.3868 8704.36 6622.29 106.17
11229 44.3906 8684.11 6645.52 105.43
11230 44.3943 8874.13 6668.22 108.17
11231 44.3981 8783.03 6691.67 105.95
11232 44.4019 8944.56 6715.22 107.60
11233 44.4056 8782.89 6738.28 107.86
11234 44.4094 9013.58 6762.05 108.55
11235 44.4132 8744.39 6785.90 105.10
11236 44.4169 8830.05 6809.22 108.07
11237 44.4207 8713.59 6833.22 105.20
11238 44.4244 8959.86 6856.68 110.54
11239 44.4282 8696.09 6880.80 107.26
11240 44.4319 8713.04 6904.35 105.65
11241 44.4357 8530.53 6928.54 105.14
11242 44.4395 8717.60 6952.78 107.17
11243 44.4432 8597.09 6976.37 106.43
11244 44.4470 8506.53 7000.64 105.05
11245 44.4507 8458.13 7024.20 104.33
11246 44.4545 8609.56 7048.43 106.02
11247 44.4583 8119.77 7072.59 102.35
11248 44.4620 8404.66 7096.08 104.40
11249 44.4658 8232.47 7120.14 102.97
11250 44.4696 8082.42 7144.10 102.99
11251 44.4733 8133.59 7167.37 102.57
11252 44.4771 8160.76 7191.13 103.46
11253 44.4808 7859.55 7214.18 100.81
11254 44.4846 8169.30 7237.69 102.54
11255 44.4883 7554.67 7260.46 98.71
11256 44.4921 7938.09 7283.65 100.83
11257 44.4959 7651.19 7306.68 98.69
11258 44.4996 7972.34 7328.90 99.02
11259 44.5034 7689.39 7351.51 99.76
11260 44.5072 7838.60 7373.89 101.90
11261 44.5109 7598.88 7395.44 98.47
11262 44.5147 7417.24 7417.28 97.94
11263 44.5184 7390.02 7438.30 96.62
11264 44.5222 7368.16 7459.57 95.25
11265 44.5260 7331.57 7480.50 99.36
11266 44.5297 7504.31 7500.56 97.56
11267 44.5335 7263.39 7520.78 95.63
11268 44.5372 7417.43 7540.13 97.36
11269 44.5410 7044.64 7559.58 94.28
11270 44.5447 7321.93 7578.14 97.03
11271 44.5485 7183.59 7596.74 95.46
11272 44.5523 7323.82 7614.90 97.94
11273 44.5560 7061.52 7632.10 94.35
11274 44.5598 7286.36 7649.30 97.00
11275 44.5636 7111.52 7665.96 95.52
11276 44.5673 7241.07 7681.68 96.25
11277 44.5711 7082.31 7697.28 94.91
11278 44.5748 7018.49 7711.91 95.68
11279 44.5786 6984.01 7726.36 94.49
11280 44.5824 7294.09 7740.18 97.59
11281 44.5861 7197.78 7753.05 96.32
11282 44.5899 7336.26 7765.62 97.63
11283 44.5936 7116.84 7777.24 96.54
11284 44.5974 7165.06 7788.49 95.68
11285 44.6012 7178.68 7799.07 96.86
11286 44.6049 7541.21 7808.68 99.35
11287 44.6087 7332.52 7817.85 97.42
11288 44.6124 7851.55 7826.07 103.03
11289 44.6162 7761.74 7833.78 99.34
11290 44.6200 8028.10 7840.73 101.81
11291 44.6237 7864.25 7846.78 101.48
11292 44.6275 8341.94 7852.22 105.70
11293 44.6312 7872.97 7856.77 101.64
11294 44.6350 8132.89 7860.67 101.54
11295 44.6388 8186.80 7863.76 102.19
11296 44.6425 8266.98 7866.01 104.68
11297 44.6463 8232.96 7867.53 103.37
11298 44.6500 8347.67 7868.23 105.04
11299 44.6538 8259.55 7868.15 104.46
11300 44.6576 8514.15 7867.26 103.72
11301 44.6613 8317.50 7865.63 104.66
11302 44.6651 8370.17 7863.15 105.03
11303 44.6688 8482.84 7859.97 105.99
11304 44.6726 8537.03 7855.91 107.92
11305 44.6764 8283.61 7851.06 103.91
11306 44.6801 8780.39 7845.58 108.10
11307 44.6839 8499.65 7839.18 108.50
11308 44.6876 8732.89 7832.21 106.26
11309 44.6914 8496.62 7824.29 106.12
11310 44.6952 8750.56 7815.62 106.06
11311 44.6989 8526.41 7806.47 107.26
11312 44.7027 8618.58 7796.36 107.94
11313 44.7064 8622.81 7785.81 107.79
11314 44.7102 8587.73 7774.30 106.99
11315 44.7140 8382.83 7762.09 103.43
11316 44.7177 8588.17 7749.56 107.54
11317 44.7215 8249.78 7736.04 103.95
11318 44.7252 8527.15 7722.27 106.96
11319 44.7290 8307.22 7707.49 106.45
11320 44.7328 8352.14 7692.13 104.89
11321 44.7365 8040.39 7676.58 102.71
11322 44.7403 8158.28 7660.07 103.52
11323 44.7440 8099.37 7643.45 103.90
11324 44.7478 8243.75 7625.86 104.83
11325 44.7516 8004.71 7607.74 102.52
11326 44.7553 8085.30 7589.62 103.25
11327 44.7591 7930.85 7570.56 100.38
11328 44.7628 8050.33 7551.54 103.49
11329 44.7666 7822.15 7531.60 102.10
11330 44.7704 7871.73 7511.22 101.06
11331 44.7741 7854.34 7491.01 99.70
11332 44.7779 7736.15 7469.86 100.33
11333 44.7816 7597.96 7448.94 99.92
11334 44.7854 7803.54 7427.09 101.67
11335 44.7892 7622.41 7404.95 99.93
11336 44.7929 7671.22 7383.07 100.37
11337 44.7967 7556.40 7360.34 99.64
11338 44.8004 7465.79 7338.34 98.59
11339 44.8042 7455.36 7315.10 99.10
11340 44.8080 7678.27 7291.61 99.03
11341 44.8155 7529.56 7244.62 96.05
11342 44.8192 7210.33 7221.16 96.89
11343 44.8230 7371.24 7196.94 96.82
11344 44.8268 7162.38 7172.54 98.27
11345 44.8305 7326.67 7148.68 98.17
11346 44.8343 7002.65 7124.04 94.88
11347 44.8380 7172.65 7099.96 95.68
11348 44.8418 6936.85 7075.13 94.10
11349 44.8456 7087.03 7050.24 95.24
11350 44.8493 6849.35 7025.93 94.32
11351 44.8531 7044.42 7000.94 95.91
11352 44.8568 6788.89 6976.55 93.84
11353 44.8606 6968.00 6951.50 95.34
11354 44.8644 6545.20 6926.42 92.11
11355 44.8681 6955.96 6902.03 94.02
11356 44.8719 6629.39 6876.97 92.12
11357 44.8756 6830.16 6852.58 93.98
11358 44.8794 6582.05 6827.59 91.60
11359 44.8832 6891.50 6802.64 93.89
11360 44.8869 6654.91 6778.42 91.69
11361 44.8907 6629.83 6753.59 92.30
11362 44.8944 6459.84 6729.51 91.21
11363 44.8982 6535.20 6704.85 91.47
11364 44.9020 6485.51 6680.30 90.59
11365 44.9057 6615.70 6656.47 92.53
11366 44.9095 6289.04 6632.14 88.90
11367 44.9132 6409.30 6608.54 91.43
11368 44.9170 6404.11 6584.45 90.56
11369 44.9208 6476.06 6560.47 91.07
11370 44.9245 6179.68 6537.28 89.21
11371 44.9283 6310.33 6513.59 90.97
11372 44.9320 6317.07 6490.67 89.37
11373 44.9358 6169.54 6467.32 88.17
11374 44.9396 6093.49 6444.10 87.11
11375 44.9433 6319.17 6421.68 89.21
11376 44.9471 6084.36 6398.83 89.00
11377 44.9508 6280.22 6376.76 90.33
11378 44.9546 6038.52 6354.28 88.33
11379 44.9584 6058.75 6332.00 89.09
11380 44.9621 5930.40 6310.48 86.84
11381 44.9659 6157.90 6288.60 88.65
11382 44.9696 5828.78 6267.47 85.96
11383 44.9734 6290.60 6246.01 89.92
11384 44.9772 5910.93 6224.73 87.23
11385 44.9809 5984.40 6204.24 85.47
11386 44.9847 5881.68 6183.40 85.50
11387 44.9884 5945.49 6163.32 87.13
11388 44.9922 5788.52 6142.94 86.49
11389 44.9960 6027.09 6122.76 87.78
11390 44.9997 5875.74 6103.37 85.64
11391 45.0035 5961.62 6083.64 86.06
11392 45.0072 5758.53 6064.69 85.48
11393 45.0110 5842.42 6045.45 86.65
11394 45.0148 5707.76 6026.45 85.81
11395 45.0185 5847.04 6008.17 85.19
11396 45.0223 5847.97 5989.66 84.89
11397 45.0260 6070.95 5971.84 89.43
11398 45.0298 5702.33 5953.80 85.74
11399 45.0336 5849.38 5935.99 86.34
11400 45.0373 5762.06 5918.90 85.29
11401 45.0411 5878.06 5901.57 86.59
11402 45.0448 5594.46 5884.93 82.67
11403 45.0486 5958.73 5868.10 88.10
11404 45.0524 5789.31 5851.50 85.46
11405 45.0561 5815.93 5835.58 86.31
11406 45.0599 5704.77 5819.45 83.81
11407 45.0636 5779.72 5804.01 85.08
11408 45.0674 5660.58 5788.36 84.23
11409 45.0712 5744.62 5772.99 85.83
11410 45.0749 5661.53 5758.23 84.73
11411 45.0787 5834.19 5743.33 86.45
11412 45.0824 5662.60 5729.04 83.85
11413 45.0862 5709.01 5714.61 85.35
11414 45.0900 5631.36 5700.41 86.65
11415 45.0937 5714.44 5686.81 85.86
11416 45.0975 5673.37 5673.07 84.56
11417 45.1012 5715.22 5659.92 84.45
11418 45.1050 5592.05 5646.65 85.93
11419 45.1088 5633.18 5633.61 84.05
11420 45.1125 5433.77 5621.13 82.88
11421 45.1163 5667.14 5608.53 85.10
11422 45.1200 5505.50 5596.49 82.00
11423 45.1238 5766.55 5584.33 86.65
11424 45.1276 5552.19 5572.40 84.72
11425 45.1313 5613.81 5560.99 84.09
11426 45.1351 5548.47 5549.50 83.34
11427 45.1388 5560.93 5538.50 83.16
11428 45.1426 5429.16 5527.43 81.05
11429 45.1464 5555.70 5516.56 83.70
11430 45.1501 5447.04 5506.18 83.50
11431 45.1539 5673.81 5495.72 85.61
11432 45.1576 5544.35 5485.72 83.22
11433 45.1614 5667.67 5475.67 85.54
11434 45.1651 5340.57 5466.05 82.43
11435 45.1689 5556.58 5456.38 84.71
11436 45.1727 5407.42 5446.90 82.23
11437 45.1764 5617.54 5437.86 84.65
11438 45.1802 5339.51 5428.75 82.53
11439 45.1839 5603.77 5420.06 84.29
11440 45.1877 5503.56 5411.30 83.73
11441 45.1915 5591.42 5402.74 83.57
11442 45.1952 5383.66 5394.57 82.21
11443 45.1990 5560.45 5386.35 83.59
11444 45.2027 5386.76 5378.51 82.56
11445 45.2065 5557.83 5370.62 84.71
11446 45.2103 5396.16 5362.91 82.44
11447 45.2140 5469.27 5355.55 83.83
11448 45.2178 5458.00 5348.15 83.25
11449 45.2215 5442.04 5341.10 82.31
11450 45.2253 5485.07 5334.01 84.66
11451 45.2291 5541.85 5327.08 85.42
11452 45.2328 5343.57 5320.47 81.45
11453 45.2366 5380.43 5313.82 81.51
11454 45.2403 5305.98 5307.49 82.00
11455 45.2441 5394.12 5301.13 82.08
11456 45.2479 5236.00 5294.90 81.31
11457 45.2516 5390.38 5288.97 82.63
11458 45.2554 5271.56 5283.02 81.35
11459 45.2591 5321.30 5277.35 82.44
11460 45.2629 5304.47 5271.64 82.47
11461 45.2667 5486.20 5266.07 84.24
11462 45.2704 5190.60 5260.76 80.66
11463 45.2742 5325.40 5255.43 81.33
11464 45.2779 5242.22 5250.35 81.17
11465 45.2817 5321.50 5245.25 82.22
11466 45.2855 5186.76 5240.26 79.93
11467 45.2892 5210.10 5235.52 80.25
11468 45.2930 5236.43 5230.74 81.53
11469 45.2967 5259.92 5226.20 81.49
11470 45.3005 5191.44 5221.64 80.15
11471 45.3043 5299.26 5217.17 82.81
11472 45.3080 5187.04 5212.93 80.59
11473 45.3118 5332.91 5208.66 80.30
11474 45.3155 5228.48 5204.59 81.07
11475 45.3193 5245.11 5200.51 80.22
11476 45.3231 5056.72 5196.52 78.44
11477 45.3268 5295.39 5192.72 84.51
11478 45.3306 4928.43 5188.90 79.26
11479 45.3343 5111.51 5185.26 78.15
11480 45.3381 5178.67 5181.61 81.32
11481 45.3418 5172.02 5178.13 80.42
11482 45.3494 5215.91 5171.22 81.62
11483 45.3531 5004.38 5167.96 78.28
11484 45.3569 5196.91 5164.69 80.51
11485 45.3606 4989.92 5161.57 78.56
11486 45.3644 5211.24 5158.44 81.69
11487 45.3682 4975.95 5155.37 79.71
11488 45.3719 5114.73 5152.45 80.82
11489 45.3757 4932.33 5149.51 78.20
11490 45.3794 5229.13 5146.71 81.36
11491 45.3832 5038.74 5143.90 79.90
11492 45.3870 5194.28 5141.15 80.69
11493 45.3907 5070.70 5138.52 79.69
11494 45.3945 5175.46 5135.88 80.53
11495 45.3982 5066.97 5133.36 79.86
11496 45.4020 5099.36 5130.83 79.27
11497 45.4058 4997.43 5128.35 79.98
11498 45.4095 5088.85 5125.98 78.81
11499 45.4133 5119.69 5123.60 79.46
11500 45.4170 5194.49 5121.33 81.61
11501 45.4208 5053.08 5119.05 79.16
11502 45.4246 5063.62 5116.81 78.53
11503 45.4283 5019.94 5114.68 79.83
11504 45.4321 5220.08 5112.52 81.66
11505 45.4358 5121.45 5110.47 80.08
11506 45.4396 5180.00 5108.40 80.54
11507 45.4434 5038.83 5106.38 79.64
11508 45.4471 5072.02 5104.44 79.43
11509 45.4509 5093.12 5102.49 80.16
11510 45.4546 5092.64 5100.63 79.27
11511 45.4584 5018.83 5098.76 79.51
11512 45.4622 5037.78 5096.91 80.02
11513 45.4659 5095.62 5095.16 80.60
11514 45.4697 5183.82 5093.38 81.45
11515 45.4734 5114.21 5091.69 80.47
11516 45.4772 5246.63 5089.98 82.27
11517 45.4809 5071.31 5088.35 79.89
11518 45.4847 4990.97 5086.71 79.70
11519 45.4885 4984.09 5085.09 78.63
11520 45.4922 5133.08 5083.54 80.57
11521 45.4960 5028.62 5081.98 79.64
11522 45.4997 4931.52 5080.50 78.38
11523 45.5035 5054.72 5078.99 79.28
11524 45.5073 5212.34 5077.52 80.81
11525 45.5110 5027.44 5076.10 77.83
11526 45.5148 5120.97 5074.67 80.20
11527 45.5185 4982.93 5073.31 79.40
11528 45.5223 5249.82 5071.93 81.01
11529 45.5261 5020.92 5070.58 79.84
11530 45.5298 5086.14 5069.28 81.11
11531 45.5336 5080.23 5067.97 79.15
11532 45.5373 5162.19 5066.72 79.41
11533 45.5411 5048.18 5065.46 80.04
11534 45.5449 5191.68 5064.21 80.60
11535 45.5486 5145.73 5063.02 80.29
11536 45.5524 5007.87 5061.82 79.00
11537 45.5561 5018.87 5060.67 79.42
11538 45.5599 5113.35 5059.50 80.74
11539 45.5636 4941.24 5058.39 77.97
11540 45.5674 5076.05 5057.27 79.76
11541 45.5712 5112.99 5056.16 80.53
11542 45.5749 5226.00 5055.10 81.39
11543 45.5787 5074.68 5054.04 79.27
11544 45.5824 5214.54 5053.01 81.29
11545 45.5862 5058.53 5051.98 79.73
11546 45.5900 5026.08 5050.96 79.14
11547 45.5937 5066.96 5049.99 78.56
11548 45.5975 5142.91 5049.01 78.52
11549 45.6012 5030.48 5048.07 79.07
11550 45.6050 5180.81 5047.12 79.10
11551 45.6088 4967.51 5046.19 79.66
11552 45.6125 5216.19 5045.30 81.83
11553 45.6163 5164.21 5044.40 81.28
11554 45.6200 5010.69 5043.54 79.58
11555 45.6238 5113.10 5042.67 78.46
11556 45.6276 5140.68 5041.81 80.76
11557 45.6313 5128.18 5041.00 79.76
11558 45.6351 5056.55 5040.18 79.14
11559 45.6388 4980.18 5039.40 78.21
11560 45.6426 5021.24 5038.60 78.62
11561 45.6463 4911.22 5037.85 78.68
11562 45.6501 5038.49 5037.09 80.08
11563 45.6539 4952.04 5036.35 79.51
11564 45.6576 5044.04 5035.63 80.20
11565 45.6614 4880.71 5034.92 77.81
11566 45.6651 5155.80 5034.23 81.30
11567 45.6689 5047.09 5033.55 80.27
11568 45.6727 5082.35 5032.88 80.50
11569 45.6764 4985.34 5032.24 79.33
11570 45.6802 5009.83 5031.60 79.24
11571 45.6839 4871.23 5030.99 78.11
11572 45.6877 5069.42 5030.38 80.85
11573 45.6915 4884.71 5029.79 79.03
11574 45.6952 5082.24 5029.22 80.90
11575 45.6990 4968.86 5028.66 78.75
11576 45.7027 4951.86 5028.12 79.56
11577 45.7065 5063.94 5027.59 80.82
11578 45.7102 5037.96 5027.09 80.57
11579 45.7140 4776.30 5026.58 78.38
11580 45.7178 5170.95 5026.10 81.44
11581 45.7215 4913.70 5025.64 78.30
11582 45.7253 4945.00 5025.19 78.10
11583 45.7290 4885.55 5024.76 81.02
11584 45.7328 4985.01 5024.34 79.46
11585 45.7366 4892.81 5023.93 78.85
11586 45.7403 4925.34 5023.55 79.40
11587 45.7441 4887.19 5023.18 77.88
11588 45.7478 4895.91 5022.84 78.71
11589 45.7516 4825.45 5022.50 78.34
11590 45.7553 4909.65 5022.19 78.74
11591 45.7591 4909.71 5021.88 76.82
11592 45.7629 4917.53 5021.60 78.05
11593 45.7666 4778.24 5021.34 77.78
11594 45.7704 4963.59 5021.09 79.32
11595 45.7741 4739.83 5020.87 76.83
11596 45.7779 4967.06 5020.66 79.98
11597 45.7817 4899.11 5020.46 79.20
11598 45.7854 4944.54 5020.30 80.23
11599 45.7892 4844.14 5020.15 78.40
11600 45.7929 5023.01 5020.02 80.34
11601 45.7967 4763.80 5019.91 77.07
11602 45.8004 4941.02 5019.82 79.68
11603 45.8042 4759.76 5019.75 77.09
11604 45.8080 4942.22 5019.70 78.55
11605 45.8117 4795.42 5019.67 76.96
11606 45.8155 4917.29 5019.67 78.64
11607 45.8192 4960.14 5019.69 80.49
11608 45.8230 4838.98 5019.73 77.26
11609 45.8268 4810.77 5019.79 78.42
11610 45.8305 4959.29 5019.88 82.15
11611 45.8343 4765.94 5019.99 77.02
11612 45.8380 5017.37 5020.13 79.36
11613 45.8418 4794.77 5020.29 78.12
11614 45.8456 4938.88 5020.48 79.54
11615 45.8493 4879.06 5020.69 79.15
11616 45.8531 4935.07 5020.93 78.86
11617 45.8568 4870.92 5021.19 78.45
11618 45.8606 4916.65 5021.49 79.02
11619 45.8643 4887.37 5021.81 78.46
11620 45.8681 4891.39 5022.16 79.03
11621 45.8719 4866.31 5022.55 79.08
11622 45.8756 4858.83 5022.95 78.68
11623 45.8794 4863.17 5023.39 76.87
11624 45.8831 5011.08 5023.85 79.87
11625 45.8869 4915.96 5024.36 79.45
11626 45.8907 4878.95 5024.90 78.85
11627 45.8944 4799.77 5025.46 78.73
11628 45.8982 4746.36 5026.06 75.95
11629 45.9019 4963.46 5026.68 78.65
11630 45.9057 4947.62 5027.36 79.93
11631 45.9094 4867.54 5028.05 78.35
11632 45.9132 4891.01 5028.80 79.10
11633 45.9170 4907.30 5029.58 79.34
11634 45.9207 4944.10 5030.38 79.37
11635 45.9245 4774.71 5031.24 76.26
11636 45.9282 5012.89 5032.12 82.31
11637 45.9320 4863.30 5033.06 77.30
11638 45.9357 4723.47 5034.01 76.85
11639 45.9395 4843.19 5035.03 77.33
11640 45.9433 4787.65 5036.10 77.91
11641 45.9470 4909.84 5037.18 79.33
11642 45.9508 4952.50 5038.32 78.68
11643 45.9545 4855.58 5039.49 79.09
11644 45.9583 4865.56 5040.73 79.81
11645 45.9621 4765.44 5042.02 76.82
11646 45.9658 4984.13 5043.32 81.53
11647 45.9696 4884.15 5044.70 79.30
11648 45.9733 5033.40 5046.10 80.40
11649 45.9771 4789.10 5047.58 78.76
11650 45.9808 5050.11 5049.07 80.47
11651 45.9846 4891.52 5050.66 78.88
11652 45.9884 5015.42 5052.29 80.36
11653 45.9921 4810.47 5053.94 78.68
11654 45.9959 5026.80 5055.69 81.18
11655 45.9996 4940.10 5057.44 78.12
11656 46.0034 4951.23 5059.29 80.30
11657 46.0071 4855.38 5061.16 78.47
11658 46.0109 5031.62 5063.13 79.58
11659 46.0147 4843.73 5065.16 79.03
11660 46.0184 5110.62 5067.20 80.79
11661 46.0222 4946.96 5069.35 79.44
11662 46.0259 5118.57 5071.51 79.96
11663 46.0297 4934.35 5073.78 81.82
11664 46.0335 5089.78 5076.12 81.23
11665 46.0372 4964.87 5078.46 79.36
11666 46.0410 5077.97 5080.93 81.25
11667 46.0447 5046.67 5083.40 80.55
11668 46.0485 5112.72 5086.00 79.81
11669 46.0522 5019.23 5088.61 80.80
11670 46.0560 5130.48 5091.35 80.01
11671 46.0598 5096.49 5094.16 78.62
11672 46.0635 5138.28 5096.97 79.75
11673 46.0673 5005.14 5099.92 78.44
11674 46.0710 5160.31 5102.87 79.72
11675 46.0748 5125.42 5105.97 80.15
11676 46.0785 5138.70 5109.06 79.54
11677 46.0823 5023.98 5112.32 78.68
11678 46.0861 5059.82 5115.64 79.24
11679 46.0898 5115.99 5118.96 79.51
11680 46.0936 5226.75 5122.44 80.80
11681 46.0973 5208.05 5125.91 80.01
11682 46.1011 5273.24 5129.55 80.78
11683 46.1049 5098.96 5133.28 78.38
11684 46.1086 5343.75 5136.98 81.66
11685 46.1124 5314.09 5140.87 81.00
11686 46.1161 5321.21 5144.73 82.03
11687 46.1199 5095.08 5148.78 79.15
11688 46.1236 5346.60 5152.81 81.09
11689 46.1274 5150.62 5157.03 80.28
11690 46.1312 5516.52 5161.34 84.30
11691 46.1349 5382.03 5165.62 81.54
11692 46.1387 5382.35 5170.11 81.79
11693 46.1424 5305.27 5174.55 81.42
11694 46.1462 5547.46 5179.21 83.38
11695 46.1499 5480.17 5183.83 82.29
11696 46.1537 5523.16 5188.66 83.48
11697 46.1575 5389.87 5193.59 81.76
11698 46.1612 5480.59 5198.47 83.04
11699 46.1650 5383.87 5203.57 82.19
11700 46.1687 5745.88 5208.63 85.15
11701 46.1725 5350.45 5213.92 81.83
11702 46.1762 5694.46 5219.16 82.60
11703 46.1800 5632.56 5224.63 82.62
11704 46.1838 5603.25 5230.19 83.78
11705 46.1875 5699.56 5235.70 84.16
11706 46.1913 5741.14 5241.44 84.41
11707 46.1950 5655.86 5247.13 84.00
11708 46.1988 5814.34 5253.06 85.49
11709 46.2025 5674.35 5258.92 84.21
11710 46.2063 5901.28 5265.04 84.70
11711 46.2101 5820.07 5271.25 85.27
11712 46.2138 6000.99 5277.38 86.06
11713 46.2176 5893.53 5283.78 86.38
11714 46.2213 5899.08 5290.09 84.32
11715 46.2251 5861.16 5296.67 84.86
11716 46.2288 6180.95 5303.15 88.87
11717 46.2326 6024.71 5309.91 87.51
11718 46.2364 6238.07 5316.75 87.85
11719 46.2401 5887.91 5323.60 86.14
11720 46.2439 6196.92 5330.72 88.60
11721 46.2476 6023.06 5337.74 87.27
11722 46.2514 6283.86 5345.03 90.19
11723 46.2551 6108.40 5350.44 87.61
11724 46.2589 6112.34 5357.91 89.14
11725 46.2627 6236.33 5365.47 89.80
11726 46.2664 6315.80 5372.91 88.38
11727 46.2702 6323.91 5380.63 89.71
11728 46.2739 6602.33 5388.24 91.93
11729 46.2777 6242.32 5396.14 89.99
11730 46.2814 6630.08 5403.90 92.35
11731 46.2852 6374.16 5411.95 90.40
11732 46.2890 6657.98 5420.08 91.86
11733 46.2927 6413.96 5428.06 91.25
11734 46.2965 6600.90 5436.35 91.28
11735 46.3002 6366.95 5444.48 90.63
11736 46.3040 6713.46 5452.90 92.96
11737 46.3077 6359.35 5461.17 90.32
11738 46.3115 6619.20 5469.74 93.25
11739 46.3152 6514.27 5478.14 91.55
11740 46.3190 6737.24 5486.83 94.16
11741 46.3228 6632.60 5495.58 92.81
11742 46.3265 6800.03 5504.17 92.39
11743 46.3303 6759.62 5513.05 95.50
11744 46.3340 6662.79 5521.74 92.73
11745 46.3378 6667.10 5530.72 92.59
11746 46.3415 6787.45 5539.51 92.81
11747 46.3453 6473.42 5548.60 92.27
11748 46.3491 6676.08 5557.73 93.65
11749 46.3528 6576.53 5566.66 90.70
11750 46.3566 6622.64 5575.86 93.05
11751 46.3603 6586.90 5584.87 91.93
11752 46.3641 6721.54 5594.14 93.78
11753 46.3678 6484.68 5603.21 90.92
11754 46.3716 6517.77 5612.54 90.75
11755 46.3754 6609.11 5621.90 93.09
11756 46.3791 6503.65 5631.03 91.01
11757 46.3829 6548.69 5640.43 92.45
11758 46.3866 6654.31 5649.58 90.97
11759 46.3904 6400.89 5659.00 89.75
11760 46.3941 6603.21 5668.17 92.97
11761 46.3979 6379.28 5677.59 90.81
11762 46.4017 6414.60 5687.01 91.53
11763 46.4054 6292.53 5696.16 90.45
11764 46.4092 6333.57 5705.56 88.97
11765 46.4129 6114.56 5714.68 88.28
11766 46.4167 6325.30 5724.04 89.75
11767 46.4204 6267.37 5733.11 90.14
11768 46.4242 6240.70 5742.42 85.90
11769 46.4279 6156.76 5751.42 90.13
11770 46.4317 6288.78 5760.64 90.71
11771 46.4355 5921.12 5769.79 85.77
11772 46.4392 6158.32 5778.67 89.82
11773 46.4430 5903.56 5787.71 87.75
11774 46.4467 6097.05 5796.46 87.38
11775 46.4505 5881.80 5805.38 86.97
11776 46.4542 6042.25 5813.98 87.50
11777 46.4580 5845.94 5822.73 86.08
11778 46.4618 5839.82 5831.39 87.06
11779 46.4655 5841.14 5839.74 85.98
11780 46.4693 6022.65 5848.19 88.22
11781 46.4730 5830.47 5856.33 86.75
11782 46.4768 5939.08 5864.57 87.02
11783 46.4805 5768.36 5872.48 86.69
11784 46.4843 5864.49 5880.47 86.73
11785 46.4880 5628.31 5888.12 84.75
11786 46.4918 5757.96 5895.84 85.04
11787 46.4956 5557.19 5903.41 82.67
11788 46.4993 5979.41 5910.62 86.69
11789 46.5031 5520.69 5917.86 82.55
11790 46.5068 5847.78 5924.76 86.77
11791 46.5106 5703.70 5931.66 83.91
11792 46.5143 5732.61 5938.20 86.14
11793 46.5181 5598.17 5944.73 85.31
11794 46.5219 5770.04 5951.06 85.08
11795 46.5256 5509.93 5957.03 81.84
11796 46.5294 5764.95 5962.95 87.58
11797 46.5331 5581.40 5968.50 85.93
11798 46.5369 5641.19 5973.98 84.05
11799 46.5406 5576.03 5979.10 82.50
11800 46.5444 5728.02 5984.12 84.14
11801 46.5481 5749.15 5988.77 84.22
11802 46.5519 5756.09 5993.30 84.21
11803 46.5557 5631.42 5997.58 83.00
11804 46.5594 5784.29 6001.50 84.51
11805 46.5632 5665.53 6005.25 83.50
11806 46.5669 5889.11 6008.66 85.62
11807 46.5707 5791.51 6011.88 84.86
11808 46.5744 6052.56 6014.75 85.53
11809 46.5782 5777.81 6017.42 84.81
11810 46.5819 5925.21 6019.74 85.89
11811 46.5857 5824.13 6021.84 85.07
11812 46.5895 5857.55 6023.65 85.33
11813 46.5932 5846.96 6025.12 85.81
11814 46.5970 6037.55 6026.34 86.60
11815 46.6007 5998.80 6027.24 86.00
11816 46.6045 5956.60 6027.87 85.89
11817 46.6082 5949.66 6028.19 87.32
11818 46.6120 5986.58 6028.22 86.75
11819 46.6157 5980.63 6027.95 86.82
11820 46.6195 5944.25 6027.38 85.08
11821 46.6233 5939.00 6026.51 85.25
11822 46.6270 6099.68 6025.36 87.52
11823 46.6308 6034.23 6023.89 88.21
11824 46.6345 5973.11 6022.17 86.58
11825 46.6383 5839.27 6020.11 84.49
11826 46.6420 6005.57 6017.81 86.25
11827 46.6458 5829.31 6015.17 84.30
11828 46.6495 6110.84 6012.31 87.48
11829 46.6533 5952.63 6009.10 86.16
11830 46.6571 6005.14 6005.60 86.97
11831 46.6608 5801.69 6001.92 85.11
11832 46.6646 5998.54 5997.88 86.67
11833 46.6683 6027.74 5993.68 87.13
11834 46.6721 5962.80 5989.10 86.12
11835 46.6758 5765.74 5984.39 85.38
11836 46.6796 5834.08 5979.30 84.57
11837 46.6833 5789.61 5974.11 83.24
11838 46.6871 5893.96 5968.53 85.39
11839 46.6908 5859.46 5962.87 86.50
11840 46.6946 5943.04 5956.82 87.50
11841 46.6984 5784.84 5950.54 84.97
11842 46.7021 5833.74 5944.24 85.82
11843 46.7059 5716.98 5937.53 82.66
11844 46.7096 5906.24 5930.81 86.51
11845 46.7134 5659.44 5923.70 84.16
11846 46.7171 5786.13 5916.60 84.93
11847 46.7209 5583.22 5909.12 83.97
11848 46.7246 5639.17 5901.67 82.70
11849 46.7284 5465.94 5893.84 81.45
11850 46.7322 5858.82 5885.86 86.79
11851 46.7359 5391.54 5877.92 81.49
11852 46.7397 5768.86 5869.62 84.13
11853 46.7434 5522.65 5861.40 83.01
11854 46.7472 5545.84 5852.82 82.69
11855 46.7509 5558.97 5844.34 84.05
11856 46.7547 5569.46 5835.51 83.70
11857 46.7584 5447.63 5826.79 82.38
11858 46.7622 5620.71 5817.73 83.38
11859 46.7659 5509.11 5808.80 81.65
11860 46.7697 5595.40 5799.54 83.74
11861 46.7735 5457.49 5790.18 83.46
11862 46.7772 5583.32 5780.99 84.21
11863 46.7810 5344.68 5771.47 81.50
11864 46.7847 5564.11 5762.13 82.95
11865 46.7885 5427.68 5752.47 82.37
11866 46.7922 5473.90 5743.00 81.47
11867 46.7960 5479.37 5733.24 81.83
11868 46.7997 5416.67 5723.67 82.33
11869 46.8035 5261.86 5713.80 81.31
11870 46.8072 5525.43 5704.15 83.57
11871 46.8110 5251.92 5694.21 80.92
11872 46.8148 5266.86 5684.24 80.87
11873 46.8185 5263.11 5674.51 81.07
11874 46.8223 5494.84 5664.49 81.80
11875 46.8260 5227.01 5654.73 78.68
11876 46.8298 5303.08 5644.69 80.87
11877 46.8335 5383.69 5634.90 80.90
11878 46.8373 5525.52 5624.87 83.91
11879 46.8410 5303.94 5615.08 81.12
11880 46.8448 5384.87 5605.05 81.90
11881 46.8485 5159.66 5595.28 80.67
11882 46.8523 5290.18 5585.28 82.67
11883 46.8561 5143.00 5575.27 79.92
11884 46.8598 5298.46 5565.57 80.42
11885 46.8636 5178.02 5555.63 80.62
11886 46.8673 5357.61 5545.98 81.46
11887 46.8711 5284.54 5536.09 80.19
11888 46.8748 5323.10 5526.51 82.11
11889 46.8786 5157.38 5516.69 80.26
11890 46.8823 5418.04 5507.19 82.88
11891 46.8861 5225.83 5497.46 80.95
11892 46.8898 5193.45 5488.04 80.76
11893 46.8936 5160.94 5478.41 80.76
11894 46.8973 5164.18 5469.08 80.90
11895 46.9011 5206.77 5459.57 80.64
11896 46.9049 5201.88 5450.10 79.79
11897 46.9086 5074.15 5440.95 80.53
11898 46.9124 5174.14 5431.60 80.30
11899 46.9161 5051.37 5422.57 79.41
11900 46.9199 5347.32 5413.35 81.68
11901 46.9236 5104.18 5404.45 79.37
11902 46.9274 5125.79 5395.37 79.87
11903 46.9311 5162.00 5386.60 81.26
11904 46.9349 5226.66 5377.65 81.36
11905 46.9386 5132.73 5369.03 78.88
11906 46.9424 5174.99 5360.23 80.24
11907 46.9462 5124.05 5351.53 79.30
11908 46.9499 5028.55 5343.12 79.38
11909 46.9537 5129.77 5334.56 79.74
11910 46.9574 5209.99 5326.31 81.29
11911 46.9612 5136.46 5317.92 79.46
11912 46.9649 5268.26 5309.83 81.45
11913 46.9687 5124.22 5301.61 80.02
11914 46.9724 5195.43 5293.68 80.36
11915 46.9762 5042.08 5285.62 78.94
11916 46.9799 5231.50 5277.86 82.07
11917 46.9837 5196.12 5270.63 80.29
11918 46.9874 5313.00 5263.04 82.09
11919 46.9912 5110.97 5255.33 79.57
11920 46.9950 5254.74 5247.71 80.14
11921 46.9971 4992.76 5243.53 78.15
11922 47.0009 5178.86 5236.06 81.62
11923 47.0046 5055.46 5228.86 80.82
11924 47.0084 5228.70 5221.56 80.75
11925 47.0122 4856.74 5214.34 76.52
11926 47.0159 5118.52 5207.41 82.20
11927 47.0197 5008.19 5200.38 81.12
11928 47.0234 5277.31 5193.62 81.19
11929 47.0272 5084.48 5186.77 78.58
11930 47.0309 5168.60 5180.19 79.68
11931 47.0347 5113.78 5173.52 79.13
11932 47.0385 5062.52 5166.94 78.62
11933 47.0422 4922.00 5160.62 77.23
11934 47.0460 5184.71 5154.23 79.73
11935 47.0497 5074.00 5148.09 78.75
11936 47.0535 5189.46 5141.87 80.02
11937 47.0572 5029.05 5135.90 78.67
11938 47.0610 5097.78 5129.87 77.97
11939 47.0647 5040.03 5124.07 78.83
11940 47.0685 5168.23 5118.21 79.82
11941 47.0723 5201.35 5112.45 80.09
11942 47.0760 5153.35 5106.91 79.68
11943 47.0798 4922.77 5101.32 78.22
11944 47.0835 5239.89 5095.95 80.25
11945 47.0873 5021.01 5090.54 78.13
11946 47.0910 5050.75 5085.34 78.58
11947 47.0948 4938.24 5080.09 78.96
11948 47.0985 5130.57 5075.06 79.84
11949 47.1023 5130.28 5069.98 79.95
11950 47.1061 4930.84 5064.98 76.91
11951 47.1098 5092.77 5060.20 78.49
11952 47.1136 5088.57 5055.38 79.36
11953 47.1173 4999.73 5050.75 79.69
11954 47.1211 5127.33 5046.09 79.76
11955 47.1248 4997.75 5041.62 77.71
11956 47.1286 5036.09 5037.12 78.44
11957 47.1323 4960.61 5032.81 77.30
11958 47.1361 5129.96 5028.47 79.59
11959 47.1399 4923.26 5024.20 77.77
11960 47.1436 5195.15 5020.12 80.46
11961 47.1474 4947.95 5016.00 78.13
11962 47.1511 4965.02 5012.07 78.25
11963 47.1549 4866.02 5008.11 77.59
11964 47.1586 5119.59 5004.32 79.34
11965 47.1624 4897.04 5000.50 78.20
11966 47.1661 5124.81 4996.86 78.90
11967 47.1699 4849.10 4993.19 75.66
11968 47.1736 4904.47 4989.68 77.33
11969 47.1774 4935.65 4986.15 78.86
11970 47.1812 5207.62 4982.68 81.52
11971 47.1849 4979.09 4979.38 78.40
11972 47.1887 5034.63 4976.05 79.29
11973 47.1924 4813.74 4972.88 75.35
11974 47.1962 4906.56 4969.69 78.27
11975 47.1999 4857.99 4966.64 77.54
11976 47.2037 5004.52 4963.58 78.57
11977 47.2074 4931.43 4960.66 78.59
11978 47.2112 4961.52 4957.72 77.23
11979 47.2150 4867.92 4954.84 76.59
11980 47.2187 5108.97 4952.10 80.64
11981 47.2213 4831.82 4950.20 75.06
11982 47.2251 5004.85 4947.49 76.07
11983 47.2288 4902.47 4944.90 77.60
11984 47.2326 4996.16 4942.30 77.21
11985 47.2363 4765.88 4939.82 75.18
11986 47.2401 5081.53 4937.34 77.66
11987 47.2438 4817.75 4934.96 75.86
11988 47.2476 4916.26 4932.58 76.33
11989 47.2513 4884.92 4930.32 76.68
11990 47.2551 4942.96 4928.05 77.50
11991 47.2589 4817.18 4925.82 75.87
11992 47.2626 4865.79 4923.71 76.59
11993 47.2664 4922.23 4921.59 77.67
11994 47.2701 4904.09 4919.58 77.11
11995 47.2739 4855.40 4917.55 76.61
11996 47.2776 4949.24 4915.63 77.22
11997 47.2814 4736.63 4913.70 75.35
11998 47.2851 4947.01 4911.86 77.23
11999 47.2889 5009.05 4910.02 77.08
12000 47.2926 4931.02 4908.28 76.54
12001 47.2964 4815.68 4906.53 75.63
12002 47.3001 4945.89 4904.86 77.65
12003 47.3039 4832.49 4903.20 76.02
12004 47.3077 4843.68 4901.57 76.73
12005 47.3114 4776.75 4900.03 75.72
12006 47.3152 4932.84 4898.49 76.78
12007 47.3189 4701.34 4897.02 75.58
12008 47.3227 4896.65 4895.56 76.49
12009 47.3264 4866.10 4894.17 76.57
12010 47.3302 5041.45 4892.78 79.14
12011 47.3339 4898.04 4891.46 76.31
12012 47.3377 4844.99 4890.14 76.52
12013 47.3414 4931.64 4888.89 77.17
12014 47.3452 4850.10 4887.64 75.97
12015 47.3489 4805.85 4886.46 76.30
12016 47.3527 4922.05 4885.27 76.74
12017 47.3565 4892.71 4884.12 76.93
12018 47.3602 4909.54 4883.04 76.87
12019 47.3640 4811.89 4881.95 75.26
12020 47.3677 4821.49 4880.92 76.28
12021 47.3715 4748.12 4879.89 76.19
12022 47.3752 4882.21 4878.92 77.19
12023 47.3790 4851.65 4877.96 76.77
12024 47.3827 4841.28 4877.04 76.95
12025 47.3865 4789.02 4876.13 74.84
12026 47.3902 4846.84 4875.27 77.17
12027 47.3940 4645.57 4874.41 75.02
12028 47.3978 4797.25 4873.57 76.03
12029 47.4015 4756.66 4872.79 75.59
12030 47.4053 4756.79 4872.01 75.82
12031 47.4090 4752.21 4871.27 75.78
12032 47.4128 4819.76 4870.53 76.84
12033 47.4165 4611.63 4869.84 74.61
12034 47.4203 4822.59 4869.16 76.31
12035 47.4240 4650.71 4868.51 74.25
12036 47.4278 4988.89 4867.86 78.04
12037 47.4315 4693.56 4867.26 76.00
12038 47.4353 4840.47 4866.66 76.22
12039 47.4391 4714.53 4866.07 75.38
12040 47.4428 4983.32 4865.53 77.09
12041 47.4466 4656.25 4864.99 75.03
12042 47.4503 4715.02 4864.48 75.14
12043 47.4541 4676.58 4863.97 75.51
12044 47.4578 4852.51 4863.50 76.53
12045 47.4616 4746.34 4863.03 75.48
12046 47.4653 4837.89 4862.59 76.42
12047 47.4691 4699.96 4862.16 75.53
12048 47.4728 4658.97 4861.75 75.33
12049 47.4766 4698.18 4861.35 75.82
12050 47.4804 4696.52 4860.96 75.07
12051 47.4841 4790.58 4860.60 76.76
12052 47.4879 4758.48 4860.24 75.16
12053 47.4916 4579.88 4859.90 74.34
12054 47.4954 4741.06 4859.57 75.23
12055 47.4991 4596.26 4859.27 74.06
12056 47.5029 4860.77 4858.96 76.13
12057 47.5066 4785.67 4858.67 75.78
12058 47.5104 4607.47 4858.39 73.78
12059 47.5141 4739.47 4858.13 75.58
12060 47.5179 4637.55 4857.87 75.57
12061 47.5217 4768.86 4857.63 75.80
12062 47.5254 4835.02 4857.40 75.40
12063 47.5292 4740.03 4857.17 76.71
12064 47.5329 4865.10 4856.96 76.63
12065 47.5367 4650.44 4856.75 75.27
12066 47.5404 4811.11 4856.55 76.21
12067 47.5442 4674.23 4856.36 74.93
12068 47.5479 4732.87 4856.18 75.78
12069 47.5517 4661.24 4856.00 74.70
12070 47.5555 4886.14 4855.83 76.83
12071 47.5592 4811.32 4855.67 76.56
12072 47.5630 4843.25 4855.51 77.00
12073 47.5667 4655.14 4855.36 74.20
12074 47.5705 4719.63 4855.21 75.85
12075 47.5742 4711.80 4855.07 76.05
12076 47.5780 4847.55 4854.93 76.54
12077 47.5817 4752.96 4854.80 76.23
12078 47.5855 4857.28 4854.66 77.04
12079 47.5893 4625.52 4854.54 74.83
12080 47.5930 4788.70 4854.41 76.58
12081 47.5968 4497.04 4854.29 72.20
12082 47.6005 4899.96 4854.17 77.56
12083 47.6043 4731.19 4854.04 75.44
12084 47.6080 4662.32 4853.92 76.05
12085 47.6118 4729.30 4853.79 74.85
12086 47.6155 4814.89 4853.67 76.35
12087 47.6193 4512.70 4853.55 74.33
12088 47.6231 4792.53 4853.42 75.88
12089 47.6268 4596.66 4853.30 74.19
12090 47.6306 4866.98 4853.17 78.70
12091 47.6343 4719.14 4853.03 76.41
12092 47.6381 4871.58 4852.90 76.37
12093 47.6418 4763.35 4852.76 76.03
12094 47.6456 4668.26 4852.61 75.19
12095 47.6493 4722.36 4852.46 75.98
12096 47.6531 4834.85 4852.31 76.89
12097 47.6569 4640.80 4852.15 75.33
12098 47.6606 4781.31 4851.99 76.46
12099 47.6644 4661.97 4851.81 75.62
12100 47.6681 4744.39 4851.63 76.97
12101 47.6719 4602.38 4851.45 75.29
12102 47.6756 4745.47 4851.25 76.29
12103 47.6794 4654.87 4851.05 75.62
12104 47.6831 4807.05 4850.84 76.37
12105 47.6869 4605.73 4850.62 74.06
12106 47.6907 4634.34 4850.39 74.48
12107 47.6944 4712.56 4850.15 75.86
12108 47.6982 4766.92 4849.89 75.16
12109 47.7019 4730.66 4849.64 75.38
12110 47.7057 4877.68 4849.36 76.45
12111 47.7094 4697.64 4849.08 75.07
12112 47.7132 4783.58 4848.78 74.90
12113 47.7169 4563.34 4848.48 73.76
12114 47.7207 4774.78 4848.16 75.87
12115 47.7245 4711.55 4847.82 74.15
12116 47.7282 4874.44 4847.48 76.60
12117 47.7320 4744.70 4847.12 76.45
12118 47.7357 4800.27 4846.75 76.19
12119 47.7395 4676.70 4846.36 75.05
12120 47.7432 4817.96 4845.97 76.05
12121 47.7470 4695.65 4845.56 75.37
12122 47.7507 4748.69 4845.14 76.09
12123 47.7545 4702.86 4844.69 75.26
12124 47.7583 4735.21 4844.24 75.21
12125 47.7620 4878.63 4843.78 77.40
12126 47.7658 4782.26 4843.29 75.32
12127 47.7695 4707.30 4842.80 75.00
12128 47.7733 4778.23 4842.29 75.62
12129 47.7770 4824.85 4841.77 76.88
12130 47.7808 4726.63 4839.95 75.93
12131 47.7846 4729.11 4839.39 75.45
12132 47.7883 4774.77 4838.84 76.08
12133 47.7921 4700.46 4838.25 75.54
12134 47.7958 4801.37 4837.67 76.14
12135 47.7996 4871.19 4837.06 76.79
12136 47.8033 4869.89 4836.45 76.31
12137 47.8071 4771.89 4835.81 75.96
12138 47.8108 4921.97 4835.17 78.19
12139 47.8146 4710.45 4834.51 75.21
12140 47.8184 4746.79 4833.83 75.98
12141 47.8221 4720.81 4833.16 75.59
12142 47.8259 4771.64 4832.45 74.98
12143 47.8296 4736.19 4831.76 76.25
12144 47.8334 4760.93 4831.03 76.25
12145 47.8371 4588.23 4830.31 73.70
12146 47.8409 4707.45 4829.56 75.12
12147 47.8447 4669.59 4828.80 75.45
12148 47.8484 4748.29 4828.05 76.33
12149 47.8522 4742.26 4827.27 75.78
12150 47.8559 4677.88 4826.50 74.64
12151 47.8597 4688.07 4825.70 75.16
12152 47.8634 4923.43 4824.91 77.50
12153 47.8672 4723.56 4824.09 75.60
12154 47.8709 4718.69 4823.29 74.92
12155 47.8747 4668.46 4822.45 74.24
12156 47.8785 4824.96 4821.60 76.54
12157 47.8822 4686.96 4820.78 74.73
12158 47.8860 4778.24 4819.92 75.24
12159 47.8897 4687.90 4819.08 75.43
12160 47.8935 4705.99 4818.21 75.03
12161 47.8972 4646.14 4817.36 74.83
12162 47.9010 4693.90 4816.47 74.40
12163 47.9048 4574.85 4815.59 73.37
12164 47.9085 4752.00 4814.72 76.14
12165 47.9123 4630.73 4813.82 73.86
12166 47.9160 4706.91 4812.94 75.40
12167 47.9198 4491.26 4812.04 72.81
12168 47.9235 4865.89 4811.16 76.35
12169 47.9273 4557.70 4810.24 73.22
12170 47.9311 4816.72 4809.33 77.23
12171 47.9348 4663.66 4808.44 74.55
12172 47.9386 4721.03 4807.52 74.66
12173 47.9423 4649.79 4806.62 75.09
12174 47.9461 4660.60 4805.70 74.32
12175 47.9498 4641.53 4804.79 75.12
12176 47.9536 4619.25 4803.87 74.06
12177 47.9574 4734.66 4802.94 75.63
12178 47.9611 4776.42 4802.04 75.99
12179 47.9649 4725.58 4801.11 75.44
12180 47.9686 4864.40 4800.20 76.17
12181 47.9724 4623.85 4799.28 73.83
12182 47.9761 4842.03 4798.37 76.52
12183 47.9799 4644.29 4797.44 74.73
12184 47.9837 4638.87 4796.52 74.22
12185 47.9874 4649.37 4795.61 74.45
12186 47.9912 4782.80 4794.69 75.11
12187 47.9949 4790.94 4793.79 76.06
12188 47.9987 4773.90 4792.87 75.11
12189 48.0024 4668.32 4791.97 74.59
12190 48.0062 4744.53 4791.05 75.44
12191 48.0100 4603.18 4790.13 74.40
12192 48.0137 4734.06 4789.24 75.08
12193 48.0175 4626.44 4788.33 75.04
12194 48.0212 4809.83 4787.45 75.47
12195 48.0250 4639.20 4786.54 73.42
12196 48.0287 4801.61 4785.66 75.49
12197 48.0325 4646.47 4784.76 74.87
12198 48.0363 4629.63 4783.86 74.40
12199 48.0400 4672.85 4782.99 74.70
12200 48.0438 4904.83 4782.10 76.94
12201 48.0475 4685.96 4781.24 75.46
12202 48.0513 4650.79 4780.35 75.05
12203 48.0550 4720.01 4779.50 75.90
12204 48.0588 4778.71 4778.62 75.99
12205 48.0626 4743.34 4777.75 76.82
12206 48.0663 4686.57 4776.90 75.10
12207 48.0701 4650.12 4776.03 75.43
12208 48.0738 4656.88 4775.20 75.25
12209 48.0776 4778.53 4774.34 76.91
12210 48.0813 4725.29 4773.51 76.45
12211 48.0851 4704.59 4772.66 76.35
12212 48.0889 4758.30 4771.82 76.05
12213 48.0926 4680.66 4771.00 74.41
12214 48.0964 4794.87 4770.17 77.29
12215 48.1001 4593.03 4769.36 74.68
12216 48.1039 4704.97 4768.53 75.21
12217 48.1076 4733.22 4767.73 75.66
12218 48.1114 4823.92 4766.92 76.36
12219 48.1152 4582.56 4766.10 74.28
12220 48.1189 4747.40 4765.32 75.12
12221 48.1227 4764.70 4764.52 76.11
12222 48.1264 4766.53 4763.74 74.17
12223 48.1302 4795.29 4762.95 77.72
12224 48.1339 4765.77 4762.18 76.59
12225 48.1377 4676.06 4761.39 74.17
12226 48.1415 4724.24 4760.62 75.33
12227 48.1452 4711.62 4759.86 75.38
12228 48.1490 4760.50 4759.09 75.89
12229 48.1527 4596.89 4758.35 74.73
12230 48.1565 4786.24 4757.59 76.02
12231 48.1602 4588.35 4756.86 74.99
12232 48.1640 4822.40 4756.10 76.94
12233 48.1678 4684.31 4755.36 75.17
12234 48.1715 4777.54 4754.64 76.37
12235 48.1753 4684.39 4753.91 75.66
12236 48.1790 4796.39 4753.20 76.52
12237 48.1828 4785.84 4752.48 76.76
12238 48.1865 4799.95 4751.77 76.35
12239 48.1903 4662.61 4751.06 75.02
12240 48.1941 4834.16 4750.35 77.02
12241 48.1978 4739.09 4749.66 76.49
12242 48.2016 4922.79 4748.97 77.48
12243 48.2053 4593.15 4748.29 74.90
12244 48.2091 4846.24 4747.60 77.82
12245 48.2129 4783.29 4746.92 76.64
12246 48.2166 4913.55 4746.26 77.69
12247 48.2204 4731.43 4745.58 75.76
12248 48.2241 4713.54 4744.93 75.41
12249 48.2279 4710.28 4744.27 75.53
12250 48.2316 4652.06 4743.63 75.74
12251 48.2354 4668.53 4742.97 75.60
12252 48.2392 4790.61 4742.33 77.05
12253 48.2429 4594.54 4741.70 74.94
12254 48.2467 4852.71 4741.06 77.31
12255 48.2504 4570.96 4740.45 74.02
12256 48.2542 4688.92 4739.82 75.56
12257 48.2579 4658.82 4739.21 76.00
12258 48.2617 4842.15 4738.59 76.89
12259 48.2655 4706.16 4737.98 75.90
12260 48.2692 4715.65 4737.38 76.76
12261 48.2730 4747.61 4736.78 76.80
12262 48.2767 4784.03 4736.20 76.79
12263 48.2805 4574.22 4735.60 75.20
12264 48.2843 4768.35 4735.01 77.13
12265 48.2880 4656.20 4734.44 75.68
12266 48.2918 4892.25 4733.86 77.73
12267 48.2955 4668.42 4733.30 75.51
12268 48.2993 4894.43 4732.73 78.36
12269 48.3030 4660.75 4733.23 76.39
12270 48.3068 4758.15 4732.67 75.83
12271 48.3106 4712.17 4732.12 77.05
12272 48.3143 4660.71 4731.58 75.46
12273 48.3181 4594.22 4731.04 75.08
12274 48.3218 4791.95 4730.51 77.30
12275 48.3256 4622.48 4729.97 74.66
12276 48.3293 4772.54 4729.46 75.99
12277 48.3331 4727.02 4728.92 77.49
12278 48.3369 4706.45 4728.40 76.32
12279 48.3406 4613.52 4727.90 74.35
12280 48.3444 4731.90 4727.38 76.62
12281 48.3481 4581.97 4726.89 75.17
12282 48.3519 4773.22 4726.38 76.42
12283 48.3557 4645.18 4725.89 76.13
12284 48.3594 4819.76 4725.40 78.00
12285 48.3632 4603.26 4724.91 75.30
12286 48.3669 4860.27 4724.44 78.25
12287 48.3707 4581.32 4723.96 75.37
12288 48.3744 4660.73 4723.49 75.83
12289 48.3782 4614.34 4723.02 74.93
12290 48.3820 4646.45 4722.55 74.86
12291 48.3857 4656.43 4722.09 75.78
12292 48.3895 4682.29 4721.63 75.63
12293 48.3932 4592.84 4721.19 75.34
12294 48.3970 4652.31 4720.74 74.98
12295 48.4008 4633.67 4720.29 75.27
12296 48.4045 4567.72 4719.85 75.12
12297 48.4083 4653.42 4719.41 76.28
12298 48.4120 4688.80 4718.99 75.86
12299 48.4158 4727.78 4718.55 77.07
12300 48.4195 4736.88 4718.13 75.77
12301 48.4233 4607.10 4717.71 75.35
12302 48.4271 4656.52 4717.29 74.32
12303 48.4308 4647.96 4716.88 77.01
12304 48.4346 4716.06 4716.46 76.21
12305 48.4383 4687.55 4716.07 75.16
12306 48.4421 4714.53 4715.66 76.29
12307 48.4459 4526.76 4715.26 75.07
12308 48.4496 4759.54 4714.87 76.84
12309 48.4534 4649.95 4714.47 75.90
12310 48.4571 4607.00 4714.09 75.50
12311 48.4609 4663.05 4713.70 75.13
12312 48.4646 4726.74 4713.32 77.01
12313 48.4684 4662.69 4712.94 75.46
12314 48.4722 4553.47 4712.56 74.64
12315 48.4759 4638.91 4712.20 75.07
12316 48.4797 4668.01 4711.82 76.13
12317 48.4834 4803.57 4711.46 77.25
12318 48.4872 4639.64 4711.09 74.98
12319 48.4910 4639.25 4710.73 75.33
12320 48.4947 4763.49 4710.38 76.97
12321 48.4985 4643.86 4710.02 76.12
12322 48.5022 4640.27 4709.68 75.67
12323 48.5060 4702.37 4709.33 76.40
12324 48.5097 4773.50 4708.99 77.30
12325 48.5135 4550.20 4708.65 75.40
12326 48.5173 4703.93 4708.31 75.93
12327 48.5210 4645.84 4707.98 75.67
12328 48.5248 4755.34 4707.64 75.86
12329 48.5285 4567.76 4707.31 76.02
12330 48.5323 4536.75 4706.99 75.99
12331 48.5361 4628.80 4706.66 75.94
12332 48.5398 4743.33 4706.35 76.65
12333 48.5436 4663.71 4706.03 76.62
12334 48.5473 4791.52 4705.71 76.44
12335 48.5511 4588.08 4705.40 75.24
12336 48.5549 4654.27 4705.08 75.73
12337 48.5586 4640.04 4704.78 76.42
12338 48.5624 4654.07 4704.47 75.09
12339 48.5661 4622.86 4704.18 75.68
12340 48.5699 4697.87 4703.88 76.14
12341 48.5736 4623.49 4703.58 76.82
12342 48.5774 4703.82 4703.29 76.68
12343 48.5812 4765.72 4702.99 76.68
12344 48.5849 4758.51 4702.71 76.97
12345 48.5887 4583.92 4702.41 75.25
12346 48.5924 4715.98 4702.14 74.90
12347 48.5962 4639.14 4701.85 77.19
12348 48.6000 4713.96 4701.57 77.15
12349 48.6037 4571.25 4701.30 75.85
12350 48.6075 4776.04 4701.02 76.95
12351 48.6112 4557.24 4700.75 75.72
12352 48.6150 4689.83 4700.48 76.04
12353 48.6188 4585.58 4700.21 75.58
12354 48.6225 4713.71 4699.95 77.97
12355 48.6263 4671.77 4699.69 74.60
12356 48.6300 4772.08 4699.43 77.99
12357 48.6338 4573.54 4699.17 75.92
12358 48.6375 4769.10 4698.92 77.55
12359 48.6413 4660.30 4698.67 77.06
12360 48.6451 4665.17 4698.42 74.42
12361 48.6488 4612.47 4698.17 74.62
12362 48.6526 4547.07 4697.93 73.64
12363 48.6563 4582.44 4697.69 74.41
12364 48.6601 4693.24 4697.44 75.40
12365 48.6639 4641.46 4697.20 74.60
12366 48.6676 4603.99 4696.97 74.72
12367 48.6714 4550.92 4696.74 73.31
12368 48.6751 4543.95 4696.51 73.86
12369 48.6789 4524.55 4696.28 73.34
12370 48.6827 4768.48 4696.06 75.78
12371 48.6864 4674.45 4695.84 75.09
12372 48.6902 4612.41 4695.61 74.24
12373 48.6939 4551.13 4695.40 73.95
12374 48.6977 4620.17 4695.18 74.15
12375 48.7014 4487.85 4694.97 73.41
12376 48.7052 4734.00 4694.76 75.05
12377 48.7090 4670.54 4694.55 75.68
12378 48.7127 4650.68 4694.35 75.76
12379 48.7165 4497.59 4694.14 73.81
12380 48.7202 4562.92 4693.95 73.70
12381 48.7240 4623.57 4693.75 74.75
12382 48.7278 4539.13 4693.55 73.32
12383 48.7315 4669.00 4693.36 76.13
12384 48.7353 4669.11 4693.17 74.89
12385 48.7390 4546.81 4692.99 73.10
12386 48.7428 4792.33 4692.80 75.52
12387 48.7466 4560.68 4692.62 74.12
12388 48.7503 4594.32 4692.44 74.20
12389 48.7541 4644.28 4692.26 75.46
12390 48.7578 4610.04 4692.09 74.85
12391 48.7616 4647.14 4691.92 74.98
12392 48.7654 4642.77 4691.75 75.26
12393 48.7691 4571.79 4691.59 74.57
12394 48.7729 4741.94 4691.42 75.99
12395 48.7766 4544.86 4691.27 73.94
12396 48.7804 4803.37 4691.11 75.86
12397 48.7842 4536.60 4690.96 74.07
12398 48.7879 4700.33 4690.81 75.84
12399 48.7917 4663.28 4690.66 75.85
12400 48.7954 4490.31 4690.51 73.74
12401 48.7992 4607.01 4690.37 73.61
12402 48.8029 4677.08 4690.24 74.85
12403 48.8067 4507.52 4690.10 73.84
12404 48.8105 4690.35 4689.97 76.09
12405 48.8142 4715.14 4689.84 74.50
12406 48.8180 4670.45 4689.71 75.78
12407 48.8217 4613.30 4689.59 74.74
12408 48.8255 4567.60 4689.48 73.17
12409 48.8293 4524.86 4689.36 73.59
12410 48.8330 4653.79 4689.25 76.04
12411 48.8368 4653.75 4689.14 74.31
12412 48.8405 4700.86 4689.04 75.08
12413 48.8443 4412.60 4688.94 72.57
12414 48.8481 4660.76 4688.84 74.75
12415 48.8518 4492.36 4688.75 74.10
12416 48.8556 4659.53 4688.66 75.11
12417 48.8593 4529.80 4688.57 74.48
12418 48.8631 4641.66 4688.49 74.40
12419 48.8669 4569.74 4688.41 75.57
12420 48.8706 4671.37 4688.33 75.00
12421 48.8744 4562.55 4688.26 74.24
12422 48.8781 4770.64 4688.20 76.56
12423 48.8819 4612.35 4688.13 74.82
12424 48.8857 4591.62 4688.08 74.50
12425 48.8894 4568.93 4688.02 74.18
12426 48.8932 4612.28 4687.97 74.41
12427 48.8969 4493.22 4687.93 74.41
12428 48.9007 4622.87 4687.89 75.22
12429 48.9044 4391.38 4687.85 72.62
12430 48.9082 4628.54 4687.82 75.26
12431 48.9120 4561.62 4687.79 74.12
12432 48.9157 4524.04 4687.77 73.85
12433 48.9195 4501.10 4687.75 73.82
12434 48.9232 4596.97 4687.74 74.14
12435 48.9270 4536.60 4687.73 72.29
12436 48.9308 4627.81 4687.73 77.04
12437 48.9345 4471.76 4687.73 74.19
12438 48.9383 4665.38 4687.74 75.70
12439 48.9420 4529.78 4687.75 74.33
12440 48.9458 4570.08 4687.76 74.49
12441 48.9496 4577.49 4687.79 75.36
12442 48.9533 4639.97 4687.82 75.34
12443 48.9571 4471.51 4687.85 73.24
12444 48.9608 4619.59 4687.89 75.96
12445 48.9646 4659.70 4687.93 75.91
12446 48.9684 4612.61 4687.98 75.06
12447 48.9721 4523.27 4688.04 73.97
12448 48.9759 4705.75 4688.10 75.84
12449 48.9796 4506.46 4688.17 74.56
12450 48.9834 4663.57 4688.24 75.23
12451 48.9872 4474.10 4688.55 73.52
12452 48.9909 4684.01 4688.87 75.43
12453 48.9947 4566.67 4689.19 74.69
12454 48.9984 4544.76 4689.51 74.58
12455 49.0022 4592.05 4689.85 73.44
12456 49.0060 4664.32 4690.20 75.55
12457 49.0097 4568.44 4690.54 74.89
12458 49.0135 4582.12 4690.90 74.43
12459 49.0172 4500.79 4691.25 74.26
12460 49.0210 4539.09 4691.62 74.45
12461 49.0248 4533.10 4692.00 74.11
12462 49.0285 4633.12 4692.38 73.98
12463 49.0323 4605.43 4692.77 76.36
12464 49.0360 4591.27 4693.16 75.34
12465 49.0398 4642.41 4693.56 75.90
12466 49.0436 4662.61 4693.98 75.70
12467 49.0473 4654.12 4694.39 75.91
12468 49.0511 4667.35 4694.82 76.25
12469 49.0548 4635.79 4695.24 75.37
12470 49.0586 4752.53 4695.68 76.40
12471 49.0624 4637.00 4696.13 75.89
12472 49.0661 4844.27 4696.58 77.84
12473 49.0699 4635.42 4697.04 74.85
12474 49.0736 4740.95 4697.51 76.91
12475 49.0774 4743.40 4697.99 77.10
12476 49.0811 4821.03 4698.46 77.53
12477 49.0849 4497.54 4699.17 74.24
12478 49.0887 4699.52 4699.68 76.49
12479 49.0924 4547.31 4700.18 75.05
12480 49.0962 4628.98 4700.71 75.05
12481 49.0999 4590.94 4701.22 75.55
12482 49.1037 4693.11 4701.76 76.03
12483 49.1075 4764.17 4702.31 76.93
12484 49.1112 4703.50 4702.85 76.93
12485 49.1150 4711.97 4703.41 76.43
12486 49.1187 4770.73 4703.97 77.19
12487 49.1225 4712.55 4704.56 77.03
12488 49.1263 4671.49 4705.14 76.40
12489 49.1300 4631.37 4705.73 76.14
12490 49.1338 4837.61 4706.33 76.68
12491 49.1375 4772.64 4706.93 76.58
12492 49.1413 4651.71 4707.56 75.30
12493 49.1451 4671.29 4708.19 75.73
12494 49.1488 4806.55 4708.82 76.77
12495 49.1526 4780.80 4709.47 77.06
12496 49.1563 4773.17 4710.11 76.63
12497 49.1601 4702.47 4710.78 75.41
12498 49.1639 4826.25 4711.46 77.98
12499 49.1676 4616.51 4712.13 75.36
12500 49.1714 4877.09 4712.83 77.91
12501 49.1751 4843.30 4713.52 77.28
12502 49.1789 4806.21 4714.23 77.12
12503 49.1827 4913.16 4714.95 78.44
12504 49.1864 4847.36 4715.67 78.24
12505 49.1902 4757.11 4716.41 77.03
12506 49.1939 4874.70 4717.14 78.96
12507 49.1977 4828.79 4717.90 77.45
12508 49.2015 4958.36 4718.67 79.07
12509 49.2052 4731.71 4719.43 76.86
12510 49.2090 4902.72 4720.22 78.48
12511 49.2127 4872.91 4721.00 78.30
12512 49.2165 4939.12 4721.80 78.53
12513 49.2203 4759.53 4722.62 75.88
12514 49.2240 4987.06 4723.42 78.14
12515 49.2278 4828.47 4724.25 76.91
12516 49.2315 5013.06 4725.07 80.47
12517 49.2353 4884.06 4725.92 77.53
12518 49.2391 5025.16 4726.78 78.48
12519 49.2428 4970.30 4727.63 79.37
12520 49.2466 4956.67 4728.50 78.36
12521 49.2503 4808.22 4729.36 76.58
12522 49.2541 5175.70 4730.26 81.17
12523 49.2579 4832.62 4731.16 78.40
12524 49.2616 5044.41 4732.05 80.01
12525 49.2654 4900.31 4732.97 78.39
12526 49.2691 4929.41 4733.87 78.65
12527 49.2729 4886.29 4734.81 77.84
12528 49.2767 5078.72 4735.75 79.28
12529 49.2804 4857.11 4736.68 78.79
12530 49.2842 4928.33 4737.64 78.64
12531 49.2879 4781.05 4738.58 77.72
12532 49.2917 4973.67 4739.56 79.45
12533 49.2955 4877.02 4740.54 77.49
12534 49.2992 5071.75 4741.51 78.99
12535 49.3030 4967.91 4742.51 78.54
12536 49.3067 4917.57 4743.48 78.97
12537 49.3105 4887.92 4744.50 78.45
12538 49.3143 5007.82 4745.52 79.03
12539 49.3180 4882.93 4746.52 77.75
12540 49.3218 4964.71 4747.55 78.16
12541 49.3255 4834.96 4748.56 76.43
12542 49.3293 4923.17 4749.61 78.48
12543 49.3331 5131.99 4750.66 81.61
12544 49.3368 4978.86 4751.69 78.11
12545 49.3406 4904.46 4752.75 77.82
12546 49.3443 5051.41 4753.79 79.18
12547 49.3481 4858.83 4754.87 78.16
12548 49.3519 4902.07 4755.95 78.08
12549 49.3556 4919.78 4757.01 77.69
12550 49.3594 4978.63 4758.09 77.26
12551 49.3631 4802.82 4759.16 77.56
12552 49.3669 5098.66 4760.26 79.36
12553 49.3707 4825.72 4761.36 77.52
12554 49.3744 4904.55 4762.44 78.04
12555 49.3782 4850.77 4763.54 78.27
12556 49.3819 5012.76 4764.63 79.54
12557 49.3857 4931.53 4765.74 77.45
12558 49.3895 4938.55 4766.86 78.61
12559 49.3932 4768.68 4767.95 77.21
12560 49.3970 4920.17 4769.07 78.72
12561 49.4007 4782.68 4770.17 77.90
12562 49.4045 5014.01 4771.29 78.87
12563 49.4083 4727.16 4772.42 76.02
12564 49.4120 5102.16 4773.51 80.46
12565 49.4158 4761.24 4774.64 76.92
12566 49.4195 4749.30 4775.74 77.15
12567 49.4233 4860.58 4776.86 77.18
12568 49.4271 4827.94 4777.99 76.45
12569 49.4308 4766.14 4779.08 78.94
12570 49.4346 4863.44 4780.21 78.52
12571 49.4383 4784.26 4781.30 77.17
12572 49.4421 4831.84 4782.42 77.41
12573 49.4459 4673.35 4783.53 76.11
12574 49.4496 4936.94 4784.61 79.03
12575 49.4534 4830.30 4785.72 78.50
12576 49.4571 4728.29 4786.80 76.66
12577 49.4609 4678.04 4787.90 75.74
12578 49.4647 4832.08 4788.99 77.98
12579 49.4684 4795.78 4790.05 77.58
12580 49.4722 4818.68 4791.14 76.81
12581 49.4759 4691.54 4792.19 76.54
12582 49.4797 4853.12 4793.26 79.04
12583 49.4835 4572.40 4794.32 74.78
12584 49.4872 4689.51 4795.34 76.41
12585 49.4910 4682.45 4796.39 76.00
12586 49.4947 4605.86 4797.40 75.70
12587 49.4985 4663.93 4798.43 76.41
12588 49.5023 4738.85 4799.45 76.81
12589 49.5060 4694.79 4800.44 75.58
12590 49.5098 4809.73 4801.43 78.10
12591 49.5135 4692.85 4802.39 75.89
12592 49.5173 4732.67 4803.37 76.49
12593 49.5211 4548.93 4804.33 75.29
12594 49.5248 4766.23 4805.26 76.54
12595 49.5286 4511.57 4806.19 74.22
12596 49.5323 4726.55 4807.09 77.41
12597 49.5361 4646.10 4808.00 76.18
12598 49.5399 4653.50 4808.90 76.84
12599 49.5436 4643.46 4809.76 75.65
12600 49.5474 4733.11 4810.62 76.64
12601 49.5511 4658.32 4811.45 76.37
12602 49.5549 4687.29 4812.28 76.15
12603 49.5587 4681.63 4813.10 76.84
12604 49.5624 4710.17 4813.88 76.63
12605 49.5662 4583.60 4814.66 75.27
12606 49.5699 4763.86 4815.40 76.23
12607 49.5737 4633.27 4816.15 76.29
12608 49.5774 4656.11 4816.86 75.85
12609 49.5812 4541.94 4817.57 75.50
12610 49.5850 4790.97 4818.27 77.99
12611 49.5887 4590.85 4818.92 75.76
12612 49.5925 4705.07 4819.58 77.07
12613 49.5963 4660.68 4820.21 75.89
12614 49.6000 4718.15 4820.81 76.70
12615 49.6038 4626.17 4821.40 76.34
12616 49.6075 4761.55 4821.96 75.58
12617 49.6113 4715.01 4822.52 75.77
12618 49.6151 4768.68 4823.06 75.46
12619 49.6188 4654.47 4823.57 75.20
12620 49.6226 4747.96 4824.06 75.82
12621 49.6263 4704.92 4824.53 75.35
12622 49.6301 4897.45 4824.99 76.61
12623 49.6338 4768.63 4825.42 77.35
12624 49.6376 4769.56 4825.84 75.35
12625 49.6414 4613.96 4826.24 73.63
12626 49.6451 4696.42 4826.61 75.27
12627 49.6489 4651.45 4826.98 74.99
12628 49.6527 4944.60 4827.32 76.66
12629 49.6564 4657.16 4827.64 74.69
12630 49.6602 4894.38 4827.95 77.50
12631 49.6639 4715.44 4828.23 75.47
12632 49.6677 4738.77 4828.51 75.69
12633 49.6715 4696.91 4828.77 74.89
12634 49.6752 4744.56 4829.00 75.24
12635 49.6790 4649.81 4829.23 75.21
12636 49.6827 4782.26 4829.44 76.12
12637 49.6865 4738.60 4829.63 75.54
12638 49.6902 4805.43 4829.81 76.49
12639 49.6940 4534.74 4829.98 73.48
12640 49.6978 4943.71 4830.13 78.48
12641 49.7015 4783.95 4830.28 76.17
12642 49.7053 4728.80 4830.41 75.35
12643 49.7090 4727.75 4830.52 75.10
12644 49.7128 4841.56 4830.63 76.89
12645 49.7166 4743.92 4830.73 75.78
12646 49.7203 4710.82 4830.82 75.59
12647 49.7241 4711.16 4830.90 75.72
12648 49.7279 4744.13 4830.98 75.67
12649 49.7316 4666.78 4831.04 74.89
12650 49.7354 4755.44 4831.10 77.01
12651 49.7391 4738.20 4831.15 75.69
12652 49.7429 4755.23 4831.20 75.97
12653 49.7467 4753.55 4831.25 76.47
12654 49.7504 4796.34 4831.29 75.77
12655 49.7542 4537.11 4831.33 74.14
12656 49.7579 4840.00 4831.37 76.93
12657 49.7617 4777.48 4831.40 76.82
12658 49.7654 4762.90 4831.44 75.88
12659 49.7692 4589.49 4831.47 74.69
12660 49.7730 4760.79 4831.51 75.87
12661 49.7767 4796.86 4831.55 77.18
12662 49.7805 4838.95 4831.59 76.76
12663 49.7842 4639.09 4831.63 75.23
12664 49.7880 4677.11 4831.68 75.28
12665 49.7918 4683.36 4831.74 75.86
12666 49.7955 4734.16 4831.80 75.63
12667 49.7993 4630.20 4831.87 75.11
12668 49.8031 4807.52 4831.94 76.41
12669 49.8068 4694.25 4832.02 74.53
12670 49.8106 4730.61 4832.12 76.14
12671 49.8143 4523.01 4832.22 74.41
12672 49.8181 4971.03 4832.33 78.08
12673 49.8218 4654.60 4832.45 74.73
12674 49.8256 4655.52 4832.59 74.53
12675 49.8294 4613.07 4832.74 73.03
12676 49.8331 4755.66 4832.90 76.88
12677 49.8369 4561.95 4833.08 74.40
12678 49.8406 4744.09 4833.27 75.65
12679 49.8444 4470.66 4833.48 73.56
12680 49.8482 4704.31 4833.71 75.86
12681 49.8519 4712.58 4833.95 75.69
12682 49.8557 4664.79 4834.21 75.12
12683 49.8594 4703.88 4834.49 75.66
12684 49.8632 4648.89 4834.79 73.98
12685 49.8670 4721.75 4835.12 73.84
12686 49.8707 4635.06 4835.46 74.52
12687 49.8745 4655.02 4835.83 75.17
12688 49.8782 4780.06 4836.21 75.88
12689 49.8820 4719.21 4836.63 75.76
12690 49.8858 4693.36 4837.07 74.91
12691 49.8895 4662.83 4837.52 74.59
12692 49.8933 4861.27 4838.02 76.76
12693 49.8970 4707.45 4838.53 74.86
12694 49.9008 4833.00 4839.08 76.76
12695 49.9046 4746.08 4839.66 76.38
12696 49.9083 4646.72 4840.25 74.96
12697 49.9121 4724.32 4840.89 75.88
12698 49.9158 4826.37 4841.54 76.69
12699 49.9196 4789.28 4842.24 76.66
12700 49.9234 4939.42 4842.98 78.57
12701 49.9271 4631.35 4843.73 73.83
12702 49.9309 4921.45 4844.53 77.44
12703 49.9346 4816.47 4845.35 77.53
12704 49.9384 4742.83 4846.22 75.80
12705 49.9422 4766.57 4847.13 75.79
12706 49.9459 4766.60 4848.06 74.86
12707 49.9497 4819.65 4849.05 75.81
12708 49.9534 4918.39 4850.05 77.32
12709 49.9572 4806.37 4851.12 76.19
12710 49.9610 4801.96 4852.23 76.26
12711 49.9647 4632.57 4853.35 74.28
12712 49.9685 4719.11 4854.54 75.80
12713 49.9722 4665.61 4855.75 75.86
12714 49.9760 4878.38 4857.04 77.96
12715 49.9798 4739.03 4858.36 76.83
12716 49.9835 4801.59 4859.70 77.09
12717 49.9873 4639.19 4861.12 75.24
12718 49.9910 4775.48 4862.56 76.18
12719 49.9948 4846.99 4864.07 77.65
12720 49.9986 4916.28 4865.64 77.76
12721 50.0023 4745.97 4867.22 77.20
12722 50.0061 4827.83 4868.90 76.53
12723 50.0098 4822.15 4870.57 76.87
12724 50.0136 4985.24 4872.35 78.36
12725 50.0174 4813.68 4874.18 76.21
12726 50.0211 4853.74 4876.02 76.59
12727 50.0249 4802.45 4877.96 74.39
12728 50.0286 4964.12 4879.91 76.60
12729 50.0324 4850.61 4881.96 78.64
12730 50.0362 4975.70 4884.08 78.65
12731 50.0399 4834.78 4886.20 77.88
12732 50.0437 4925.65 4888.43 78.27
12733 50.0474 4840.63 4890.67 77.11
12734 50.0512 4962.34 4893.03 78.78
12735 50.0550 4907.64 4895.46 77.89
12736 50.0587 4944.11 4897.88 78.03
12737 50.0625 4916.42 4900.43 78.36
12738 50.0662 5015.44 4902.98 79.40
12739 50.0700 4869.03 4905.66 78.06
12740 50.0738 5026.48 4908.42 79.56
12741 50.0775 4804.45 4911.17 77.81
12742 50.0813 5045.09 4914.05 80.13
12743 50.0850 5008.48 4916.94 78.69
12744 50.0888 4957.37 4919.98 78.07
12745 50.0926 5024.27 4923.08 79.11
12746 50.0963 4905.15 4926.18 78.00
12747 50.1001 4947.03 4929.43 77.29
12748 50.1038 4839.42 4932.68 76.87
12749 50.1076 4923.42 4936.08 78.02
12750 50.1114 5017.16 4939.56 79.17
12751 50.1151 4906.88 4943.02 77.07
12752 50.1189 5066.53 4946.67 79.21
12753 50.1226 4942.85 4950.29 76.24
12754 50.1264 5191.68 4954.08 79.29
12755 50.1302 4957.77 4957.96 77.09
12756 50.1339 5185.27 4961.82 80.98
12757 50.1377 5045.31 4965.87 79.26
12758 50.1414 5249.97 4969.89 79.85
12759 50.1452 4965.72 4974.10 77.86
12760 50.1490 5148.36 4978.40 80.25
12761 50.1527 5061.82 4982.68 78.82
12762 50.1565 5216.94 4987.15 80.90
12763 50.1602 5210.78 4991.59 80.92
12764 50.1640 5268.55 4996.24 81.50
12765 50.1678 5103.78 5000.98 80.12
12766 50.1715 5297.68 5005.68 81.07
12767 50.1753 5235.95 5010.60 81.45
12768 50.1790 5210.66 5015.48 80.29
12769 50.1828 5197.04 5020.58 80.02
12770 50.1865 5325.70 5025.64 81.31
12771 50.1903 5152.96 5030.94 80.52
12772 50.1941 5313.22 5036.32 81.72
12773 50.1978 5231.57 5041.66 80.51
12774 50.2016 5223.00 5047.23 80.88
12775 50.2053 5327.34 5052.76 81.49
12776 50.2091 5452.08 5058.53 82.88
12777 50.2129 5413.02 5064.40 83.21
12778 50.2166 5379.92 5070.22 81.36
12779 50.2204 5438.41 5076.28 83.28
12780 50.2241 5472.12 5082.29 82.55
12781 50.2279 5374.44 5088.55 81.28
12782 50.2317 5500.82 5094.92 82.50
12783 50.2354 5451.50 5101.21 83.97
12784 50.2392 5466.23 5107.78 82.36
12785 50.2429 5409.65 5114.27 81.81
12786 50.2467 5614.82 5120.78 82.66
12787 50.2505 5431.54 5127.66 83.04
12788 50.2542 5684.36 5134.46 84.87
12789 50.2580 5628.93 5141.53 84.63
12790 50.2617 5732.03 5148.53 84.62
12791 50.2655 5673.93 5155.81 84.50
12792 50.2693 5848.69 5163.21 85.16
12793 50.2730 5815.18 5170.51 85.03
12794 50.2768 5878.34 5178.11 86.93
12795 50.2805 5787.15 5185.62 85.78
12796 50.2843 5933.61 5193.42 87.07
12797 50.2881 5939.19 5201.34 86.23
12798 50.2918 6026.41 5209.14 86.85
12799 50.2956 6016.35 5217.27 87.38
12800 50.2993 6155.53 5225.27 88.61
12801 50.3031 5903.68 5233.60 86.70
12802 50.3068 6192.30 5241.81 88.81
12803 50.3106 6158.01 5250.36 88.53
12804 50.3144 6275.28 5258.99 89.53
12805 50.3181 6161.22 5267.52 88.23
12806 50.3219 6316.79 5276.36 88.31
12807 50.3256 6313.06 5285.08 89.91
12808 50.3294 6273.15 5294.14 87.98
12809 50.3332 6527.81 5303.30 92.93
12810 50.3369 6522.47 5312.31 92.35
12811 50.3407 6392.89 5321.68 89.99
12812 50.3444 6678.15 5330.89 93.16
12813 50.3482 6524.51 5340.45 91.09
12814 50.3520 6468.19 5350.12 91.50
12815 50.3557 6523.07 5359.62 92.70
12816 50.3595 6722.01 5369.52 93.49
12817 50.3632 6678.05 5379.21 93.41
12818 50.3670 6735.30 5389.27 93.37
12819 50.3708 6522.02 5399.41 92.15
12820 50.3745 6771.22 5409.39 93.88
12821 50.3783 6649.09 5419.72 91.52
12822 50.3820 6956.38 5429.88 94.99
12823 50.3858 6714.42 5440.40 94.30
12824 50.3896 6927.80 5451.01 95.00
12825 50.3933 6789.28 5461.44 93.69
12826 50.3971 6933.19 5472.23 95.39
12827 50.4008 6851.51 5482.81 94.94
12828 50.4046 6900.66 5493.78 94.79
12829 50.4084 6758.05 5504.82 93.19
12830 50.4121 7014.92 5515.65 95.60
12831 50.4159 6704.61 5526.86 93.31
12832 50.4196 7020.29 5537.85 96.14
12833 50.4234 6722.54 5549.21 91.74
12834 50.4272 6943.25 5560.64 95.09
12835 50.4309 6826.00 5571.85 94.08
12836 50.4347 6816.06 5583.43 94.74
12837 50.4384 6846.20 5594.78 94.34
12838 50.4422 6748.26 5606.49 93.55
12839 50.4459 6768.86 5617.96 93.04
12840 50.4497 6945.17 5629.80 94.93
12841 50.4535 6847.15 5641.70 93.74
12842 50.4572 6764.00 5653.35 94.10
12843 50.4610 6853.65 5665.37 93.32
12844 50.4647 6821.84 5677.11 94.41
12845 50.4685 6740.90 5689.23 92.39
12846 50.4723 6716.03 5701.39 93.28
12847 50.4760 6353.82 5713.27 90.73
12848 50.4798 6527.38 5725.52 92.51
12849 50.4835 6499.17 5737.47 91.90
12850 50.4873 6559.33 5749.79 91.74
12851 50.4911 6416.78 5762.13 90.31
12852 50.4948 6569.01 5774.18 90.46
12853 50.4986 6504.57 5786.58 91.03
12854 50.5023 6503.67 5798.67 90.94
12855 50.5061 6444.73 5811.10 91.00
12856 50.5098 6297.96 5823.22 89.08
12857 50.5136 6450.76 5835.67 91.94
12858 50.5174 6340.89 5848.12 90.84
12859 50.5211 6244.09 5860.26 90.73
12860 50.5249 6408.29 5872.72 91.18
12861 50.5286 6179.35 5884.83 87.69
12862 50.5324 6336.45 5897.27 90.31
12863 50.5362 6272.92 5909.68 91.08
12864 50.5399 6163.86 5921.74 88.65
12865 50.5437 6123.10 5934.11 88.43
12866 50.5474 6178.66 5946.12 89.50
12867 50.5512 6122.99 5958.42 88.82
12868 50.5550 6286.65 5970.68 89.62
12869 50.5587 5940.38 5982.56 87.66
12870 50.5625 6205.52 5994.72 89.50
12871 50.5662 5902.34 6006.50 86.84
12872 50.5700 6120.90 6018.55 88.15
12873 50.5738 6061.11 6030.51 86.89
12874 50.5775 6198.98 6042.10 89.44
12875 50.5813 5856.20 6053.91 85.31
12876 50.5850 6205.34 6065.34 89.65
12877 50.5888 5863.11 6076.99 85.92
12878 50.5925 6012.56 6088.23 88.08
12879 50.5963 6082.42 6099.69 88.23
12880 50.6001 5967.53 6111.04 86.81
12881 50.6038 5851.71 6121.96 85.82
12882 50.6076 5940.83 6133.08 86.90
12883 50.6113 5943.45 6143.78 87.14
12884 50.6151 5977.89 6154.64 87.19
12885 50.6189 5906.59 6165.37 86.00
12886 50.6226 5995.55 6175.67 87.23
12887 50.6264 5847.39 6186.11 85.63
12888 50.6301 5934.06 6196.12 85.33
12889 50.6339 6066.82 6206.26 88.69
12890 50.6377 6035.61 6216.22 88.03
12891 50.6414 5709.47 6225.77 85.37
12892 50.6452 5858.89 6235.39 85.46
12893 50.6489 5862.99 6244.60 85.35
12894 50.6527 6128.50 6253.87 88.24
12895 50.6564 5844.52 6262.72 86.45
12896 50.6602 6177.50 6271.61 89.05
12897 50.6640 6024.08 6280.31 87.47
12898 50.6677 6289.12 6288.58 88.79
12899 50.6715 6060.60 6296.87 88.11
12900 50.6752 6185.75 6304.74 88.80
12901 50.6790 6141.67 6312.61 88.73
12902 50.6828 6332.00 6320.26 89.79
12903 50.6865 6283.24 6327.49 89.49
12904 50.6903 6251.16 6334.71 89.04
12905 50.6940 6288.91 6341.51 89.62
12906 50.6978 6502.38 6348.27 90.79
12907 50.7015 6517.00 6354.62 91.29
12908 50.7053 6507.27 6360.92 90.98
12909 50.7091 6591.11 6366.97 92.26
12910 50.7128 6606.50 6372.65 92.62
12911 50.7166 6482.17 6378.24 91.35
12912 50.7203 6810.18 6383.44 94.42
12913 50.7241 6665.72 6388.55 92.59
12914 50.7279 6714.68 6393.42 92.16
12915 50.7316 6648.44 6397.93 91.36
12916 50.7354 6865.10 6402.31 95.84
12917 50.7391 6682.71 6406.35 92.53
12918 50.7429 6833.46 6410.25 93.45
12919 50.7467 6830.93 6413.92 93.63
12920 50.7504 6995.99 6417.25 95.50
12921 50.7542 6878.66 6420.44 94.66
12922 50.7579 7048.17 6423.32 95.64
12923 50.7617 6898.11 6426.04 95.49
12924 50.7654 6928.60 6428.46 94.55
12925 50.7692 6811.51 6430.71 93.31
12926 50.7730 6941.52 6432.74 94.86
12927 50.7767 6907.17 6434.49 94.99
12928 50.7805 7052.23 6436.06 96.88
12929 50.7842 6986.79 6437.38 94.51
12930 50.7880 7020.48 6438.52 96.14
12931 50.7918 7024.61 6439.44 94.32
12932 50.7955 7033.91 6440.13 95.33
12933 50.7993 6969.94 6440.62 95.16
12934 50.8030 6881.61 6440.91 94.41
12935 50.8068 6937.99 6441.00 94.72
12936 50.8105 6861.62 6440.89 93.24
12937 50.8143 6820.68 6440.59 93.84
12938 50.8181 6870.94 6440.09 93.49
12939 50.8218 6807.31 6439.43 94.29
12940 50.8256 6742.55 6438.56 92.17
12941 50.8293 6740.35 6437.54 91.85
12942 50.8331 6737.92 6436.31 93.35
12943 50.8369 6814.25 6434.91 95.50
12944 50.8406 7152.57 6433.38 96.05
12945 50.8444 6618.59 6431.64 92.81
12946 50.8481 6888.59 6429.80 93.79
12947 50.8519 6757.62 6427.74 93.61
12948 50.8556 6760.64 6425.59 93.54
12949 50.8594 6574.00 6423.23 92.43
12950 50.8632 6796.93 6420.72 91.85
12951 50.8669 6619.10 6418.13 92.89
12952 50.8707 6617.34 6415.34 92.70
12953 50.8744 6525.63 6412.48 91.34
12954 50.8782 6648.65 6409.41 92.48
12955 50.8819 6487.78 6406.29 90.31
12956 50.8857 6611.18 6402.96 91.76
12957 50.8895 6535.33 6399.50 91.79
12958 50.8932 6538.49 6396.01 91.42
12959 50.8970 6509.37 6392.31 91.51
12960 50.9007 6585.38 6388.59 92.52
12961 50.9045 6572.32 6384.65 92.26
12962 50.9083 6404.57 6380.59 91.15
12963 50.9120 6439.31 6376.53 91.76
12964 50.9158 6531.79 6372.25 91.28
12965 50.9195 6410.95 6367.98 90.33
12966 50.9233 6451.83 6363.48 90.42
12967 50.9270 6326.19 6359.00 88.48
12968 50.9308 6293.04 6354.30 89.93
12969 50.9346 6352.17 6349.49 92.50
12970 50.9383 6363.77 6344.71 89.87
12971 50.9421 6193.04 6339.70 89.43
12972 50.9458 6421.78 6334.72 90.71
12973 50.9496 6223.96 6329.51 90.04
12974 50.9534 6355.66 6324.19 89.66
12975 50.9571 6097.43 6318.93 88.45
12976 50.9609 6228.41 6313.42 89.98
12977 50.9646 6112.23 6307.97 88.70
12978 50.9684 6152.04 6302.27 88.12
12979 50.9721 6107.85 6296.63 88.56
12980 50.9759 6115.65 6290.74 88.40
12981 50.9797 6111.74 6284.74 88.81
12982 50.9834 6108.73 6278.82 88.97
12983 50.9872 6034.89 6272.64 88.04
12984 50.9909 6034.18 6266.53 87.23
12985 50.9947 5922.68 6260.16 87.83
12986 50.9984 6170.64 6253.86 89.59
12987 51.0022 5983.23 6247.29 87.64
12988 51.0060 6113.33 6240.64 88.53
12989 51.0097 6008.97 6234.06 87.15
12990 51.0135 6112.69 6227.21 89.77
12991 51.0172 5989.56 6220.43 86.81
12992 51.0210 6177.30 6213.39 89.22
12993 51.0248 5968.86 6206.24 86.82
12994 51.0285 6011.21 6199.19 87.49
12995 51.0323 6005.39 6191.85 86.39
12996 51.0360 6166.83 6184.60 90.24
12997 51.0398 5802.73 6177.08 86.43
12998 51.0435 5991.35 6169.64 87.07
12999 51.0473 6177.49 6161.92 89.76
13000 51.0511 6120.95 6154.09 88.45
13001 51.0548 6074.39 6146.38 88.01
13002 51.0586 6165.04 6138.36 88.57
13003 51.0623 6069.71 6130.47 87.86
13004 51.0661 6017.96 6122.26 88.02
13005 51.0698 5866.57 6114.18 86.51
13006 51.0736 6107.87 6105.79 87.49
13007 51.0774 6009.45 6097.31 87.34
13008 51.0811 6157.85 6088.96 88.58
13009 51.0849 5886.74 6080.30 86.26
13010 51.0886 6134.01 6071.77 87.60
13011 51.0924 6121.51 6062.92 88.61
13012 51.0961 6214.46 6054.24 89.50
13013 51.0999 5973.97 6045.22 86.66
13014 51.1037 6276.21 6036.13 89.09
13015 51.1074 5995.80 6027.19 87.36
13016 51.1112 6113.29 6017.93 88.02
13017 51.1149 6071.62 6009.40 87.68
13018 51.1187 6012.30 5999.99 87.91
13019 51.1224 6150.15 5990.76 88.77
13020 51.1262 6146.51 5981.21 87.84
13021 51.1300 6031.50 5971.59 85.99
13022 51.1337 6150.60 5962.16 90.30
13023 51.1375 6069.27 5952.41 87.46
13024 51.1412 6041.63 5942.86 85.51
13025 51.1450 6085.23 5932.99 87.26
13026 51.1487 6116.82 5923.33 87.68
13027 51.1525 6027.57 5913.35 87.66
13028 51.1563 6090.75 5903.32 88.35
13029 51.1600 6010.12 5893.51 87.73
13030 51.1638 6099.66 5883.39 88.41
13031 51.1675 5987.12 5873.50 87.09
13032 51.1713 5952.88 5863.30 86.53
13033 51.1750 5983.85 5853.34 87.65
13034 51.1788 6066.42 5843.08 87.54
13035 51.1826 5973.94 5832.78 87.05
13036 51.1863 6048.42 5822.73 87.73
13037 51.1901 5851.09 5812.40 86.02
13038 51.1938 5887.19 5802.30 87.42
13039 51.1976 5788.67 5791.93 86.02
13040 51.2013 5905.51 5781.81 85.89
13041 51.2051 5763.46 5771.42 85.27
13042 51.2089 6115.36 5761.00 87.95
13043 51.2126 5780.03 5750.86 85.93
13044 51.2164 5826.81 5740.46 85.24
13045 51.2201 5853.70 5730.32 85.93
13046 51.2239 5870.88 5719.92 86.43
13047 51.2276 5676.71 5709.79 83.78
13048 51.2314 5829.18 5699.41 84.61
13049 51.2352 5745.52 5689.04 86.56
13050 51.2389 5765.72 5678.96 85.75
13051 51.2427 5713.26 5668.62 85.08
13052 51.2464 5818.24 5658.58 85.31
13053 51.2502 5673.83 5648.29 84.50
13054 51.2539 5822.61 5638.30 85.35
13055 51.2577 5634.15 5628.07 84.76
13056 51.2615 5773.11 5617.88 85.60
13057 51.2652 5510.69 5607.98 81.97
13058 51.2690 5644.33 5597.85 84.34
13059 51.2727 5513.12 5588.03 83.38
13060 51.2765 5699.91 5577.98 84.78
13061 51.2802 5715.69 5568.25 85.23
13062 51.2840 5693.98 5558.30 84.81
13063 51.2878 5678.85 5548.40 84.31
13064 51.2915 5765.19 5538.79 85.97
13065 51.2953 5479.40 5529.00 83.81
13066 51.2990 5563.23 5519.50 83.61
13067 51.3028 5446.75 5509.81 82.56
13068 51.3065 5511.11 5500.43 82.77
13069 51.3103 5565.43 5490.86 83.34
13070 51.3141 5597.88 5481.33 84.18
13071 51.3178 5446.40 5472.13 83.70
13072 51.3216 5599.57 5462.74 83.44
13073 51.3253 5362.46 5453.65 82.09
13074 51.3291 5417.11 5444.40 82.39
13075 51.3328 5315.03 5435.45 81.49
13076 51.3366 5499.95 5426.34 84.84
13077 51.3404 5230.30 5417.29 81.20
13078 51.3441 5409.61 5408.55 82.31
13079 51.3479 5309.75 5399.64 81.39
13080 51.3516 5236.75 5391.05 80.73
13081 51.3554 5227.34 5382.29 80.36
13082 51.3591 5381.32 5373.84 82.85
13083 51.3629 5425.76 5365.60 82.66
13084 51.3666 5307.22 5357.30 80.90
13085 51.3704 5276.51 5348.85 81.35
13086 51.3742 5316.59 5340.49 81.63
13087 51.3779 5187.48 5332.41 80.63
13088 51.3817 5437.84 5324.20 82.18
13089 51.3854 5253.47 5316.29 80.12
13090 51.3892 5276.27 5308.24 81.59
13091 51.3929 5204.56 5300.49 80.83
13092 51.3967 5323.12 5292.60 82.13
13093 51.4005 5250.59 5284.81 80.91
13094 51.4042 5252.15 5277.29 81.86
13095 51.4080 5054.49 5269.67 79.26
13096 51.4117 5391.48 5262.32 82.95
13097 51.4155 5175.85 5254.86 79.08
13098 51.4192 5226.69 5247.67 80.82
13099 51.4230 5135.67 5240.38 80.83
13100 51.4267 5297.68 5233.36 81.15
13101 51.4305 5181.30 5226.25 78.69
13102 51.4343 5343.58 5219.21 83.02
13103 51.4380 5107.45 5212.45 79.36
13104 51.4418 5128.40 5205.59 79.48
13105 51.4455 5250.81 5198.99 80.64
13106 51.4493 5313.19 5192.30 79.86
13107 51.4530 5092.26 5185.88 79.14
13108 51.4568 5150.87 5179.35 80.05
13109 51.4606 5093.27 5172.92 79.39
13110 51.4643 5095.88 5166.75 79.63
13111 51.4681 5002.15 5160.50 77.76
13112 51.4718 5160.17 5154.49 80.04
13113 51.4756 4888.25 5148.41 78.41
13114 51.4793 5132.83 5142.57 79.84
13115 51.4831 5084.15 5136.66 79.88
13116 51.4868 5159.27 5131.00 79.76
13117 51.4906 4937.53 5125.26 79.14
13118 51.4944 4952.70 5119.62 77.28
13119 51.4981 5141.14 5114.19 80.73
13120 51.5019 5144.46 5108.72 80.32
13121 51.5056 5013.10 5103.47 78.90
13122 51.5094 5172.28 5098.17 79.82
13123 51.5131 4904.53 5093.08 76.61
13124 51.5169 5132.26 5087.95 80.29
13125 51.5206 5113.28 5083.03 79.85
13126 51.5244 4952.11 5078.06 78.94
13127 51.5282 5095.94 5073.18 79.71
13128 51.5319 5097.28 5068.50 78.60
13129 51.5357 4982.49 5063.79 77.77
13130 51.5394 5038.58 5059.29 78.64
13131 51.5432 4933.82 5054.74 77.37
13132 51.5469 4993.48 5050.40 76.53
13133 51.5507 4897.88 5046.02 76.78
13134 51.5544 4897.43 5041.84 77.22
13135 51.5582 4878.46 5037.63 77.21
13136 51.5620 5171.14 5033.50 79.84
13137 51.5657 4753.37 5029.56 76.07
13138 51.5695 4904.34 5025.60 77.22
13139 51.5732 4908.42 5021.82 77.68
13140 51.5770 4881.95 5018.01 77.11
13141 51.5807 4962.56 5014.39 77.00
13142 51.5845 5001.07 5010.75 77.57
13143 51.5882 4898.06 5007.28 77.45
13144 51.5920 4979.25 5003.80 76.59
13145 51.5958 4859.32 5000.40 76.94
13146 51.5995 4974.93 4997.17 78.32
13147 51.6033 4874.38 4993.92 76.76
13148 51.6070 4872.94 4990.85 76.90
13149 51.6108 4927.45 4987.76 77.35
13150 51.6145 4911.92 4984.84 77.79
13151 51.6183 4781.28 4981.91 75.70
13152 51.6220 4804.55 4979.14 76.30
13153 51.6258 4802.68 4976.37 75.77
13154 51.6296 4824.87 4973.68 76.15
13155 51.6333 4923.51 4971.13 77.29
13156 51.6371 4879.49 4968.60 77.84
13157 51.6408 4932.78 4966.20 77.78
13158 51.6446 4927.60 4963.81 76.56
13159 51.6483 4783.26 4961.57 74.02
13160 51.6521 4990.46 4959.33 78.70
13161 51.6558 4864.87 4957.23 76.39
13162 51.6596 4941.89 4955.15 77.52
13163 51.6634 4937.19 4953.15 76.78
13164 51.6671 4743.82 4951.27 75.82
13165 51.6709 4735.12 4949.41 75.61
13166 51.6746 4925.92 4947.68 75.14
13167 51.6784 4860.14 4945.98 76.73
13168 51.6821 4762.23 4942.00 75.39
13169 51.6859 4722.90 4940.45 74.57
13170 51.6896 4892.73 4939.01 76.74
13171 51.6934 4909.10 4937.60 76.13
13172 51.6971 4913.97 4936.31 77.57
13173 51.7009 4858.04 4935.05 76.65
13174 51.7047 4886.05 4933.86 76.77
13175 51.7084 4782.83 4932.78 76.05
13176 51.7122 4867.82 4931.74 76.15
13177 51.7159 4867.77 4930.81 77.15
13178 51.7197 4991.69 4929.92 75.84
13179 51.7234 4844.11 4929.12 75.94
13180 51.7272 4854.55 4928.38 75.25
13181 51.7309 4707.20 4927.72 74.99
13182 51.7347 4874.42 4927.13 75.64
13183 51.7384 4830.31 4926.61 77.10
13184 51.7422 4867.33 4926.03 77.50
13185 51.7460 4813.88 4925.51 76.06
13186 51.7497 4823.76 4925.09 75.64
13187 51.7535 4813.19 4924.72 75.87
13188 51.7572 4891.46 4924.43 76.61
13189 51.7610 4775.80 4924.21 75.86
13190 51.7647 4869.06 4924.07 76.63
13191 51.7685 4872.49 4924.00 76.69
13192 51.7722 4872.44 4924.00 76.52
13193 51.7760 4800.18 4924.07 76.65
13194 51.7798 4908.48 4924.21 77.59
13195 51.7835 4767.36 4924.43 75.62
13196 51.7873 4752.46 4924.72 75.69
13197 51.7910 4770.00 4925.08 76.03
13198 51.7948 4766.69 4925.52 76.12
13199 51.7985 4735.96 4926.02 74.56
13200 51.8023 4824.78 4926.61 76.33
13201 51.8060 4784.34 4927.26 75.65
13202 51.8098 4896.60 4927.99 77.08
13203 51.8135 4798.72 4928.79 74.79
13204 51.8173 4930.99 4929.67 77.12
13205 51.8211 4808.46 4930.64 74.64
13206 51.8248 4708.21 4931.65 75.22
13207 51.8286 4764.21 4932.76 76.11
13208 51.8323 4788.53 4933.92 74.41
13209 51.8361 4770.73 4935.19 76.10
13210 51.8398 4900.67 4936.49 76.58
13211 51.8436 4748.46 4937.91 74.97
13212 51.8473 4812.17 4939.36 75.14
13213 51.8511 4698.31 4940.93 73.64
13214 51.8548 4745.73 4942.54 74.18
13215 51.8586 4733.57 4944.26 74.33
13216 51.8623 4879.66 4946.01 76.67
13217 51.8661 4739.14 4947.89 74.35
13218 51.8699 4813.75 4949.85 75.32
13219 51.8736 4723.89 4951.83 74.34
13220 51.8774 4813.01 4953.94 76.83
13221 51.8811 4910.55 4956.08 78.38
13222 51.8849 4988.62 4958.35 77.37
13223 51.8886 4891.24 4960.64 75.64
13224 51.8924 4888.50 4963.07 76.97
13225 51.8961 4803.19 4965.52 74.56
13226 51.8999 4855.97 4968.11 75.96
13227 51.9036 4802.97 4970.71 75.93
13228 51.9074 4765.74 4973.46 75.96
13229 51.9112 4872.63 4976.29 75.93
13230 51.9149 4941.72 4979.13 77.47
13231 51.9187 4783.65 4982.13 75.79
13232 51.9224 5047.99 4985.13 76.18
13233 51.9262 4836.24 4988.28 76.07
13234 51.9299 4924.20 4991.44 75.68
13235 51.9337 4857.89 4994.76 76.25
13236 51.9374 4854.51 4998.08 76.56
13237 51.9412 4733.83 5001.57 74.38
13238 51.9449 4968.44 5005.05 77.21
13239 51.9487 4888.12 5008.70 76.38
13240 51.9524 4956.05 5012.34 76.70
13241 51.9562 4863.84 5016.16 75.83
13242 51.9599 4928.48 5019.97 77.77
13243 51.9637 4902.13 5023.95 77.18
13244 51.9675 4992.92 5028.03 76.23
13245 51.9712 4983.00 5032.08 77.57
13246 51.9750 4952.24 5036.33 77.40
13247 51.9787 4908.42 5040.54 75.92
13248 51.9825 5113.92 5044.96 77.34
13249 51.9862 4979.74 5049.34 76.78
13250 51.9900 5044.34 5053.92 77.66
13251 51.9922 4965.48 5056.61 78.66
13252 51.9959 5211.27 5061.20 80.32
13253 51.9997 4928.22 5066.01 76.98
13254 52.0034 5142.76 5070.77 80.56
13255 52.0072 5139.00 5075.75 80.25
13256 52.0110 5137.18 5080.80 80.72
13257 52.0147 5235.15 5085.81 81.08
13258 52.0185 5253.01 5091.04 80.08
13259 52.0222 5251.00 5096.22 80.22
13260 52.0260 5168.88 5101.61 79.93
13261 52.0297 5235.83 5106.95 80.11
13262 52.0335 5290.04 5112.52 79.17
13263 52.0372 5133.85 5118.02 78.96
13264 52.0410 5203.43 5123.76 80.01
13265 52.0448 5318.27 5129.58 81.14
13266 52.0485 5212.14 5135.33 80.36
13267 52.0523 5399.42 5141.32 81.77
13268 52.0560 5429.37 5147.23 81.84
13269 52.0598 5325.58 5153.38 81.42
13270 52.0635 5430.92 5159.45 81.95
13271 52.0673 5414.26 5165.77 80.95
13272 52.0710 5482.15 5172.00 81.77
13273 52.0748 5528.81 5178.49 82.97
13274 52.0786 5507.57 5185.05 81.14
13275 52.0823 5522.88 5191.52 82.73
13276 52.0861 5689.55 5198.24 84.51
13277 52.0898 5636.57 5204.87 83.33
13278 52.0936 5650.93 5211.74 83.61
13279 52.0973 5451.63 5218.52 81.95
13280 52.1011 5504.83 5225.55 83.00
13281 52.1048 5585.32 5232.47 82.64
13282 52.1086 5631.72 5239.65 83.45
13283 52.1124 5688.55 5246.92 83.35
13284 52.1161 5755.30 5254.06 84.10
13285 52.1199 5690.98 5261.47 83.89
13286 52.1236 5891.18 5268.75 86.55
13287 52.1274 5884.48 5276.30 85.92
13288 52.1311 5822.27 5283.72 84.12
13289 52.1349 5831.01 5291.41 82.73
13290 52.1386 5994.82 5298.96 87.27
13291 52.1424 5863.69 5306.79 84.86
13292 52.1462 5977.77 5314.69 86.29
13293 52.1499 5805.74 5322.44 84.14
13294 52.1537 5976.78 5330.46 86.30
13295 52.1574 5949.96 5338.32 85.94
13296 52.1612 6127.51 5346.46 84.94
13297 52.1649 5900.34 5354.44 85.57
13298 52.1687 6115.45 5362.70 86.73
13299 52.1724 6016.31 5370.79 85.39
13300 52.1762 6142.26 5379.16 87.19
13301 52.1800 6066.48 5387.58 85.75
13302 52.1837 6051.42 5395.83 87.21
13303 52.1875 6079.40 5404.34 86.93
13304 52.1912 6129.43 5412.69 87.19
13305 52.1950 6134.10 5421.29 87.42
13306 52.1987 6209.32 5429.73 87.29
13307 52.2025 6021.19 5438.42 86.93
13308 52.2062 6311.09 5446.93 86.52
13309 52.2100 6083.17 5455.70 86.29
13310 52.2137 6166.85 5464.28 86.05
13311 52.2175 6168.51 5473.11 87.23
13312 52.2209 6032.52 5481.06 87.25
13313 52.2247 6340.79 5489.95 90.04
13314 52.2285 6079.66 5498.88 87.37
13315 52.2322 6043.92 5507.58 88.01
13316 52.2360 6172.41 5516.56 89.70
13317 52.2397 6201.07 5525.30 88.77
13318 52.2435 6104.48 5534.30 87.40
13319 52.2472 6249.34 5543.07 90.39
13320 52.2510 5958.41 5552.10 87.41
13321 52.2547 6162.63 5560.89 86.77
13322 52.2585 5874.92 5569.92 86.88
13323 52.2622 6122.95 5578.72 89.19
13324 52.2660 6083.46 5587.75 89.03
13325 52.2697 6137.82 5596.54 88.43
13326 52.2735 5932.40 5605.55 88.28
13327 52.2773 6263.26 5614.56 89.92
13328 52.2810 6012.06 5623.30 87.24
13329 52.2848 6104.62 5632.27 88.93
13330 52.2885 6054.71 5640.98 87.99
13331 52.2923 5966.62 5649.89 86.24
13332 52.2960 5876.14 5658.54 86.62
13333 52.2998 5951.07 5667.39 87.25
13334 52.3035 5915.80 5675.97 86.71
13335 52.3073 6031.42 5684.73 87.31
13336 52.3110 5996.61 5693.22 87.32
13337 52.3148 6044.34 5701.90 88.56
13338 52.3185 5924.89 5710.29 87.22
13339 52.3223 5949.34 5718.84 87.86
13340 52.3261 5756.06 5727.33 85.03
13341 52.3298 5936.57 5735.52 86.47
13342 52.3336 5757.77 5743.88 85.43
13343 52.3373 5954.43 5751.93 88.02
13344 52.3411 5663.60 5760.12 84.57
13345 52.3448 5801.31 5768.01 83.59
13346 52.3486 5780.32 5776.03 85.82
13347 52.3523 5747.00 5783.72 85.21
13348 52.3561 5812.36 5791.55 85.99
13349 52.3598 5720.50 5799.05 84.59
13350 52.3636 5792.09 5806.65 86.11
13351 52.3674 5754.89 5814.13 85.21
13352 52.3711 5693.02 5821.30 84.61
13353 52.3749 5652.86 5828.53 85.30
13354 52.3786 5771.84 5835.45 85.77
13355 52.3824 5789.63 5842.42 85.65
13356 52.3861 5473.62 5849.07 82.75
13357 52.3899 5744.42 5855.76 85.37
13358 52.3936 5729.02 5862.12 85.94
13359 52.3974 5715.58 5868.50 85.13
13360 52.4011 5675.78 5874.55 84.25
13361 52.4049 5666.98 5880.61 84.12
13362 52.4087 5703.60 5886.49 85.37
13363 52.4124 5855.85 5892.05 86.32
13364 52.4162 5565.02 5897.58 83.09
13365 52.4199 5654.21 5902.79 83.41
13366 52.4237 5660.50 5907.96 84.59
13367 52.4274 5836.87 5912.79 86.60
13368 52.4312 5585.31 5917.57 82.28
13369 52.4349 5713.76 5922.03 85.98
13370 52.4387 5776.65 5926.40 85.65
13371 52.4424 5764.69 5930.45 85.24
13372 52.4462 5719.10 5934.40 85.20
13373 52.4500 5864.26 5938.13 86.15
13374 52.4537 5645.00 5941.55 84.07
13375 52.4575 5978.27 5944.83 87.61
13376 52.4612 5676.12 5947.82 84.44
13377 52.4650 5797.60 5950.65 85.84
13378 52.4687 5869.88 5953.19 86.54
13379 52.4725 5905.21 5955.56 86.79
13380 52.4762 5862.06 5957.65 85.46
13381 52.4800 6032.48 5959.54 87.99
13382 52.4837 6064.79 5961.16 86.84
13383 52.4875 6072.80 5962.58 87.67
13384 52.4913 5884.74 5963.75 86.52
13385 52.4950 6139.96 5964.65 88.90
13386 52.4988 6069.63 5965.33 88.21
13387 52.5025 6087.30 5965.76 86.97
13388 52.5063 6183.92 5965.95 88.70
13389 52.5100 6131.90 5965.90 87.90
13390 52.5138 6225.97 5965.60 90.20
13391 52.5175 6206.45 5965.06 89.23
13392 52.5213 6194.86 5964.27 89.92
13393 52.5251 6225.37 5963.22 89.52
13394 52.5288 6205.19 5961.97 88.48
13395 52.5326 6450.19 5960.44 91.12
13396 52.5363 6317.97 5958.71 90.13
13397 52.5401 6519.15 5956.70 91.78
13398 52.5438 6375.23 5954.51 90.49
13399 52.5476 6460.59 5952.02 91.16
13400 52.5513 6488.52 5949.38 91.71
13401 52.5551 6483.37 5946.42 91.42
13402 52.5588 6273.36 5943.33 89.70
13403 52.5626 6419.95 5939.92 90.81
13404 52.5664 6241.56 5936.28 90.71
13405 52.5701 6548.45 5932.54 91.62
13406 52.5739 6218.36 5928.47 89.80
13407 52.5776 6380.17 5924.30 91.05
13408 52.5814 6238.14 5919.81 89.44
13409 52.5851 6514.33 5915.24 91.65
13410 52.5889 6315.79 5910.35 89.90
13411 52.5926 6412.47 5905.40 92.38
13412 52.5964 6206.37 5900.11 89.16
13413 52.6002 6381.02 5894.64 90.52
13414 52.6039 6243.13 5889.13 89.23
13415 52.6077 6230.12 5883.30 88.40
13416 52.6114 6058.41 5877.45 88.47
13417 52.6152 6173.40 5871.28 89.13
13418 52.6189 6131.27 5865.10 87.86
13419 52.6227 6342.29 5858.60 90.50
13420 52.6264 6143.97 5852.11 87.88
13421 52.6302 6253.85 5845.31 88.00
13422 52.6377 6350.83 5831.45 90.04
13423 52.6415 6074.74 5824.22 88.12
13424 52.6452 6171.23 5817.06 88.19
13425 52.6490 6126.74 5809.58 88.94
13426 52.6527 6071.63 5802.17 88.55
13427 52.6565 6017.95 5794.46 88.38
13428 52.6602 6118.90 5786.84 88.36
13429 52.6640 5942.74 5778.91 88.55
13430 52.6678 6063.72 5770.88 87.87
13431 52.6715 5998.58 5762.97 88.37
13432 52.6753 5971.81 5754.75 88.32
13433 52.6790 5906.61 5746.68 87.71
13434 52.6828 6009.82 5738.30 85.72
13435 52.6865 5890.12 5730.07 83.87
13436 52.6903 6148.08 5721.54 86.19
13437 52.6941 5811.75 5712.95 83.51
13438 52.6978 6129.70 5704.53 84.77
13439 52.7053 5974.55 5687.29 81.56
13440 52.7128 5988.67 5669.87 85.01
13441 52.7166 5743.63 5660.97 82.66
13442 52.7203 5872.41 5652.29 84.43
13443 52.7241 5806.07 5643.32 83.54
13444 52.7279 5951.80 5634.35 84.86
13445 52.7316 5659.59 5625.57 81.28
13446 52.7354 5804.06 5616.56 84.22
13447 52.7391 5673.64 5607.75 82.88
13448 52.7429 5824.26 5598.70 82.88
13449 52.7466 5631.46 5589.88 81.49
13450 52.7504 5704.18 5580.83 81.74
13451 52.7541 5732.96 5572.00 82.74
13452 52.7579 5844.45 5562.94 83.89
13453 52.7617 5693.72 5553.89 82.50
13454 52.7654 5856.37 5545.09 84.12
13455 52.7692 5469.29 5536.07 81.30
13456 52.7729 5518.23 5527.29 81.24
13457 52.7767 5603.53 5518.30 82.53
13458 52.7804 5616.06 5509.57 82.34
13459 52.7842 5558.78 5500.63 81.68
13460 52.7880 5754.87 5491.70 82.55
13461 52.7917 5480.03 5483.05 81.43
13462 52.7955 5701.08 5474.20 83.11
13463 52.7992 5418.13 5465.63 80.80
13464 52.8030 5564.80 5456.85 81.69
13465 52.8067 5585.09 5448.35 82.11
13466 52.8105 5596.20 5439.66 82.04
13467 52.8143 5575.87 5431.02 82.96
13468 52.8180 5546.64 5422.66 81.52
13469 52.8218 5425.43 5414.12 80.54
13470 52.8255 5414.87 5405.86 80.53
13471 52.8293 5446.60 5397.43 80.32
13472 52.8330 5491.09 5389.28 80.30
13473 52.8368 5461.44 5380.96 82.48
13474 52.8405 5446.98 5372.93 81.61
13475 52.8443 5414.88 5364.74 80.45
13476 52.8481 5325.64 5356.62 79.23
13477 52.8518 5262.96 5348.78 79.16
13478 52.8556 5360.43 5340.79 80.00
13479 52.8593 5201.85 5333.09 78.97
13480 52.8631 5478.35 5325.25 81.75
13481 52.8668 5318.88 5317.68 79.63
13482 52.8706 5374.15 5309.99 80.51
13483 52.8744 5346.96 5302.38 79.86
13484 52.8781 5528.77 5295.04 81.43
13485 52.8819 5355.03 5287.59 80.45
13486 52.8856 5336.40 5280.41 80.08
13487 52.8894 5337.48 5273.13 80.25
13488 52.8931 5273.73 5266.10 79.43
13489 52.8969 5240.66 5258.99 79.01
13490 52.9006 5378.57 5252.14 79.93
13491 52.9044 5153.77 5245.20 78.06
13492 52.9082 5264.95 5238.34 78.14
13493 52.9119 5350.67 5231.75 80.30
13494 52.9157 5337.33 5225.07 79.52
13495 52.9194 5256.31 5218.66 79.32
13496 52.9232 5360.58 5212.17 80.47
13497 52.9269 5162.41 5205.94 78.67
13498 52.9307 5161.06 5199.62 77.23
13499 52.9345 5105.66 5193.41 79.39
13500 52.9382 5241.83 5187.46 79.60
13501 52.9420 5246.28 5181.44 79.12
13502 52.9457 5277.17 5175.68 79.12
13503 52.9495 5095.00 5169.85 76.59
13504 52.9532 5273.65 5164.28 79.75
13505 52.9570 5099.77 5158.65 77.97
13506 52.9608 5239.69 5153.12 79.22
13507 52.9645 5258.62 5147.83 79.76
13508 52.9683 5342.84 5142.51 79.45
13509 52.9720 5122.25 5137.41 78.43
13510 52.9758 5240.48 5132.29 79.26
13511 52.9795 5240.82 5127.39 79.57
13512 52.9833 5237.63 5122.47 79.50
13513 52.9871 5209.20 5117.64 78.70
13514 52.9908 5317.55 5113.04 80.34
13515 52.9946 4977.46 5108.42 77.63
13516 52.9983 5149.19 5104.03 79.05
13517 53.0021 5047.92 5099.60 77.50
13518 53.0058 5130.13 5095.40 78.41
13519 53.0096 5175.60 5091.19 79.20
13520 53.0134 5153.58 5087.08 78.82
13521 53.0171 5205.08 5083.18 78.43
13522 53.0209 5273.48 5079.27 79.44
13523 53.0246 5283.75 5075.57 78.42
13524 53.0284 5224.35 5071.86 79.01
13525 53.0321 4940.17 5068.36 75.98
13526 53.0359 5209.09 5064.86 80.70
13527 53.0397 5086.33 5061.46 78.40
13528 53.0434 5230.67 5058.25 79.24
13529 53.0472 5090.59 5055.06 78.08
13530 53.0509 5213.82 5052.04 78.85
13531 53.0547 5128.65 5049.05 77.70
13532 53.0584 5251.20 5046.23 78.13
13533 53.0622 5038.43 5043.44 78.16
13534 53.0660 5331.73 5040.74 80.56
13535 53.0697 5099.73 5038.20 78.24
13536 53.0735 5253.67 5035.71 79.39
13537 53.0772 5033.02 5033.37 77.71
13538 53.0810 5072.08 5031.21 78.08
13539 53.0848 5006.17 5029.00 77.59
13540 53.0885 5145.78 5026.95 78.82
13541 53.0923 5036.12 5024.93 77.55
13542 53.0960 5086.72 5023.06 78.05
13543 53.0998 5190.50 5021.24 78.84
13544 53.1035 5220.03 5019.55 79.41
13545 53.1073 5070.46 5017.91 78.18
13546 53.1111 5207.42 5016.36 79.42
13547 53.1148 5065.78 5014.94 78.52
13548 53.1186 5174.81 5013.58 78.04
13549 53.1223 5128.29 5012.34 78.50
13550 53.1261 5181.60 5011.15 79.23
13551 53.1298 5032.21 5010.08 76.71
13552 53.1336 5246.30 5009.07 78.96
13553 53.1374 5115.92 5008.15 79.81
13554 53.1411 5083.30 5007.34 77.88
13555 53.1449 5079.15 5006.58 77.33
13556 53.1486 5212.40 5005.93 79.48
13557 53.1524 5065.75 5005.35 78.25
13558 53.1561 5000.15 5004.86 78.28
13559 53.1599 4940.65 5004.44 77.69
13560 53.1637 5165.34 5004.11 79.91
13561 53.1674 5092.11 5003.85 79.36
13562 53.1712 5112.09 5003.67 79.67
13563 53.1749 5043.96 5003.57 79.80
13564 53.1787 5196.08 5003.55 80.60
13565 53.1824 5008.21 5003.59 78.60
13566 53.1862 5290.11 5003.71 80.93
13567 53.1900 5209.75 5003.91 80.80
13568 53.1937 5283.24 5004.17 80.45
13569 53.1975 5104.85 5004.51 79.70
13570 53.2012 5327.89 5004.91 81.17
13571 53.2050 5128.59 5005.39 78.07
13572 53.2088 5326.58 5005.94 80.96
13573 53.2125 5101.35 5006.53 80.18
13574 53.2163 5257.11 5007.21 80.84
13575 53.2200 5095.28 5007.93 79.73
13576 53.2238 5260.90 5008.73 80.82
13577 53.2275 5011.12 5009.57 78.80
13578 53.2313 5123.13 5010.50 78.53
13579 53.2351 5038.29 5011.48 79.94
13580 53.2388 5196.77 5012.50 81.14
13581 53.2426 5072.38 5013.59 79.30
13582 53.2463 5250.00 5014.71 80.00
13583 53.2501 5287.11 5015.92 80.91
13584 53.2538 5286.37 5017.14 81.09
13585 53.2576 5128.66 5018.45 79.46
13586 53.2614 5265.30 5019.80 80.08
13587 53.2651 5261.48 5021.17 81.20
13588 53.2689 5150.11 5022.62 80.15
13589 53.2726 5217.93 5024.08 78.83
13590 53.2764 5301.21 5025.61 80.76
13591 53.2802 5073.18 5027.19 78.31
13592 53.2839 5167.19 5028.77 79.88
13593 53.2877 5103.21 5030.42 79.48
13594 53.2914 5155.95 5032.08 79.36
13595 53.2952 5110.90 5033.80 79.44
13596 53.2989 5265.07 5035.52 80.13
13597 53.3027 5136.52 5037.32 78.42
13598 53.3065 5315.28 5039.15 81.13
13599 53.3102 5021.00 5040.95 78.77
13600 53.3140 5278.56 5042.83 80.73
13601 53.3177 4992.60 5044.69 76.60
13602 53.3215 5122.13 5046.62 79.56
13603 53.3253 5087.83 5048.58 79.39
13604 53.3290 5130.25 5050.50 78.81
13605 53.3328 5024.08 5052.49 77.37
13606 53.3365 5151.58 5054.44 81.84
13607 53.3403 5010.42 5056.46 78.45
13608 53.3440 5108.22 5058.44 78.74
13609 53.3478 5035.88 5060.48 77.08
13610 53.3516 5100.54 5062.53 77.71
13611 53.3553 5110.26 5064.53 79.17
13612 53.3591 5227.45 5066.60 79.38
13613 53.3628 5153.27 5068.61 80.10
13614 53.3666 5100.22 5070.68 78.09
13615 53.3704 5043.84 5072.75 77.42
13616 53.3741 5039.00 5074.75 78.63
13617 53.3779 4932.67 5076.81 77.32
13618 53.3816 5206.67 5078.81 79.21
13619 53.3854 5070.22 5080.85 78.39
13620 53.3891 5110.94 5082.82 79.05
13621 53.3929 4993.03 5084.84 78.06
13622 53.3967 5131.55 5086.84 79.37
13623 53.4004 4981.51 5088.77 77.07
13624 53.4042 4904.82 5090.73 77.49
13625 53.4079 5046.31 5092.62 78.62
13626 53.4117 5013.50 5094.53 78.18
13627 53.4155 5021.31 5096.42 78.77
13628 53.4192 5045.65 5098.23 78.75
13629 53.4230 4904.03 5100.06 77.23
13630 53.4267 5129.04 5101.81 77.99
13631 53.4305 4982.43 5103.58 76.51
13632 53.4342 5090.54 5105.26 79.21
13633 53.4380 4918.45 5106.94 77.90
13634 53.4418 5031.51 5108.59 76.14
13635 53.4455 4969.47 5110.15 76.92
13636 53.4493 4994.38 5111.70 77.51
13637 53.4530 4914.56 5113.17 76.64
13638 53.4568 5138.32 5114.63 79.34
13639 53.4606 5013.73 5116.04 77.57
13640 53.4643 4969.58 5117.36 78.11
13641 53.4681 4904.76 5118.65 76.62
13642 53.4718 5013.30 5119.86 77.51
13643 53.4756 4821.42 5121.04 76.58
13644 53.4793 5124.08 5122.13 78.98
13645 53.4831 4887.64 5123.19 76.94
13646 53.4869 4966.24 5124.18 77.84
13647 53.4906 5206.02 5125.09 79.25
13648 53.4944 5099.18 5125.94 78.03
13649 53.4981 4871.53 5126.71 75.32
13650 53.5019 5127.31 5127.43 79.21
13651 53.5057 4993.16 5128.08 77.66
13652 53.5094 5100.50 5128.63 78.39
13653 53.5132 4865.91 5129.13 76.46
13654 53.5169 5188.65 5129.53 78.68
13655 53.5207 4989.04 5129.88 77.41
13656 53.5245 4977.47 5130.14 75.96
13657 53.5282 5003.98 5130.32 77.80
13658 53.5320 5220.81 5130.42 78.11
13659 53.5357 5125.95 5130.44 80.22
13660 53.5395 5247.87 5130.38 80.64
13661 53.5432 5103.20 5130.23 78.97
13662 53.5470 5020.95 5130.00 78.00
13663 53.5508 5133.78 5129.69 79.32
13664 53.5545 5203.87 5129.30 78.77
13665 53.5583 5002.39 5128.82 76.96
13666 53.5620 5282.90 5128.26 80.24
13667 53.5658 4994.81 5127.61 77.37
13668 53.5696 5324.40 5126.87 81.48
13669 53.5733 5043.22 5126.06 78.18
13670 53.5771 5342.93 5125.15 80.43
13671 53.5808 5185.88 5124.17 79.67
13672 53.5846 5326.76 5123.08 81.07
13673 53.5884 5076.22 5121.92 79.12
13674 53.5921 5257.94 5120.69 80.72
13675 53.5959 5189.63 5119.35 79.60
13676 53.5996 5258.40 5117.97 79.22
13677 53.6034 5025.26 5116.46 78.18
13678 53.6071 5238.27 5114.92 80.31
13679 53.6109 5024.48 5113.25 78.62
13680 53.6147 5310.34 5111.50 80.21
13681 53.6184 5256.35 5109.72 80.16
13682 53.6222 5455.48 5107.81 79.98
13683 53.6259 5252.09 5105.87 80.15
13684 53.6297 5209.37 5103.81 80.73
13685 53.6335 5064.70 5101.68 77.47
13686 53.6372 5377.10 5099.52 83.11
13687 53.6410 5173.48 5097.24 80.98
13688 53.6447 5361.90 5094.94 80.15
13689 53.6485 5103.19 5092.51 77.36
13690 53.6523 5303.64 5090.02 79.89
13691 53.6560 5223.60 5087.53 79.20
13692 53.6598 5269.87 5084.90 78.95
13693 53.6635 5188.62 5082.28 78.50
13694 53.6673 5162.74 5079.53 78.98
13695 53.6711 5146.63 5076.71 78.43
13696 53.6748 5166.25 5073.92 79.42
13697 53.6786 5095.07 5070.98 77.48
13698 53.6823 5164.05 5068.07 78.44
13699 53.6861 5295.06 5065.03 79.34
13700 53.6898 5362.67 5062.02 80.30
13701 53.6936 5129.49 5058.88 78.13
13702 53.6974 5311.78 5055.69 79.41
13703 53.7011 5054.96 5052.53 77.91
13704 53.7049 5182.06 5049.24 79.16
13705 53.7086 5292.91 5046.00 80.05
13706 53.7124 5252.21 5042.62 79.38
13707 53.7162 5217.52 5039.21 79.78
13708 53.7199 5208.98 5035.84 78.65
13709 53.7237 5147.93 5032.35 78.81
13710 53.7274 5167.62 5028.92 79.30
13711 53.7312 5156.15 5025.36 78.08
13712 53.7350 5105.30 5021.77 78.28
13713 53.7387 5073.91 5018.25 79.36
13714 53.7425 5216.51 5014.59 78.49
13715 53.7462 5046.14 5011.01 77.64
13716 53.7500 5120.45 5007.30 77.83
13717 53.7538 5104.53 5003.58 77.64
13718 53.7575 5306.49 4999.92 80.02
13719 53.7613 5110.38 4996.15 78.54
13720 53.7650 5089.40 4992.45 77.72
13721 53.7688 5082.24 4988.64 78.06
13722 53.7725 5103.58 4984.92 78.64
13723 53.7763 5062.36 4981.06 76.39
13724 53.7801 5101.92 4977.21 77.48
13725 53.7838 5031.62 4973.44 77.51
13726 53.7876 5162.66 4969.56 78.89
13727 53.7913 5096.94 4965.76 78.31
13728 53.7951 5125.99 4961.86 79.18
13729 53.7989 5001.81 4957.95 77.89
13730 53.8026 5112.85 4954.14 78.55
13731 53.8064 4999.93 4950.22 77.15
13732 53.8101 5080.70 4946.40 78.09
13733 53.8139 4970.71 4942.47 77.20
13734 53.8177 5094.41 4938.54 78.14
13735 53.8214 5098.79 4934.71 78.67
13736 53.8252 5127.00 4930.78 77.29
13737 53.8289 5089.32 4926.95 77.82
13738 53.8327 4992.91 4923.03 76.46
13739 53.8365 4787.29 4919.10 75.96
13740 53.8402 5093.74 4915.28 78.46
13741 53.8440 4994.34 4911.37 77.12
13742 53.8477 4885.19 4907.56 75.30
13743 53.8515 4896.62 4903.66 76.30
13744 53.8553 4928.97 4899.77 76.59
13745 53.8590 4862.45 4895.99 76.08
13746 53.8628 5071.96 4892.11 76.97
13747 53.8665 4935.16 4888.35 77.34
13748 53.8703 5019.69 4884.50 77.57
13749 53.8741 4884.36 4880.66 76.38
13750 53.8778 5076.85 4876.93 78.15
13751 53.8816 4886.08 4873.12 76.28
13752 53.8853 5111.91 4869.41 77.59
13753 53.8891 4785.60 4865.63 75.65
13754 53.8929 4923.46 4861.85 76.96
13755 53.8966 4825.44 4858.20 76.77
13756 53.9004 5159.60 4854.46 78.63
13757 53.9041 4814.93 4850.84 75.58
13758 53.9079 4955.23 4847.14 76.78
13759 53.9116 4863.24 4843.54 76.53
13760 53.9154 4941.79 4839.88 77.19
13761 53.9192 4797.57 4836.23 75.22
13762 53.9229 4903.98 4832.70 76.53
13763 53.9267 4772.06 4829.10 75.67
13764 53.9304 4896.51 4825.60 75.99
13765 53.9342 4828.00 4822.04 74.81
13766 53.9380 4892.63 4818.50 78.08
13767 53.9417 4843.04 4815.07 76.45
13768 53.9455 5043.92 4811.57 77.56
13769 53.9492 4797.48 4808.19 75.57
13770 53.9530 4890.28 4804.73 76.52
13771 53.9568 4911.58 4801.30 76.73
13772 53.9605 4899.57 4797.99 76.75
13773 53.9643 4806.45 4794.61 75.61
13774 53.9680 4930.01 4791.34 76.66
13775 53.9718 4745.02 4788.01 74.70
13776 53.9756 4790.20 4784.71 76.33
13777 53.9793 4685.98 4781.51 75.12
13778 53.9831 4828.68 4778.26 75.91
13779 53.9868 4834.18 4775.12 76.68
13780 53.9906 4678.48 4771.91 74.23
13781 53.9944 4737.25 4768.74 75.12
13782 53.9981 4827.17 4765.67 76.18
13783 54.0019 4811.52 4762.55 75.63
13784 54.0056 4917.15 4759.54 76.84
13785 54.0094 4771.53 4756.47 75.42
13786 54.0132 4726.90 4753.43 74.81
13787 54.0169 4783.04 4749.50 76.03
13788 54.0207 4948.18 4746.51 75.89
13789 54.0244 4683.24 4743.64 75.28
13790 54.0282 4934.12 4740.71 77.19
13791 54.0320 4681.69 4737.81 74.85
13792 54.0357 4829.40 4735.01 76.34
13793 54.0395 4807.11 4732.16 77.57
13794 54.0432 4773.05 4729.42 75.44
13795 54.0470 4597.55 4726.63 73.86
13796 54.0508 4888.87 4723.87 76.96
13797 54.0545 4651.48 4721.21 75.14
13798 54.0583 4812.62 4718.51 75.55
13799 54.0620 4554.23 4715.90 74.06
13800 54.0658 4857.09 4713.26 76.93
13801 54.0696 4786.26 4710.64 75.19
13802 54.0733 4819.77 4708.11 76.31
13803 54.0771 4752.85 4705.55 75.86
13804 54.0808 4906.96 4703.08 77.44
13805 54.0846 4663.79 4700.58 75.11
13806 54.0884 4980.75 4698.10 77.08
13807 54.0921 4706.53 4695.71 74.58
13808 54.0959 4822.85 4693.29 75.55
13809 54.0996 4597.06 4690.96 74.30
13810 54.1034 4823.96 4688.59 76.21
13811 54.1072 4836.47 4686.25 76.56
13812 54.1109 4816.15 4684.01 75.60
13813 54.1147 4522.32 4681.72 73.68
13814 54.1184 4860.04 4679.53 76.81
13815 54.1222 4813.70 4677.30 76.69
13816 54.1259 4912.13 4675.15 77.55
13817 54.1297 4702.74 4672.98 74.54
13818 54.1335 4917.39 4670.83 76.19
13819 54.1372 4802.04 4668.76 76.69
13820 54.1410 4832.48 4666.67 76.74
13821 54.1447 4833.92 4664.66 76.58
13822 54.1485 4789.33 4662.61 74.49
13823 54.1523 4643.96 4660.60 74.56
13824 54.1560 4877.59 4658.66 76.79
13825 54.1598 4730.25 4656.69 74.78
13826 54.1636 4917.97 4654.75 76.49
13827 54.1673 4694.40 4652.89 74.37
13828 54.1711 4934.75 4651.00 76.81
13829 54.1748 4659.68 4649.19 74.85
13830 54.1786 4872.58 4647.35 76.27
13831 54.1823 4829.76 4645.58 76.24
13832 54.1861 4830.15 4643.79 76.03
13833 54.1899 4689.37 4642.03 73.67
13834 54.1936 4932.91 4640.33 76.89
13835 54.1974 4677.81 4638.61 74.27
13836 54.2011 4826.10 4636.96 76.31
13837 54.2049 4595.69 4635.29 73.64
13838 54.2087 4900.94 4633.64 76.68
13839 54.2124 4663.52 4632.06 74.23
13840 54.2162 4720.40 4630.45 75.38
13841 54.2199 4682.94 4628.91 75.34
13842 54.2237 4733.18 4627.35 75.06
13843 54.2275 4757.63 4625.81 75.20
13844 54.2312 4803.16 4624.34 74.76
13845 54.2350 4740.65 4622.84 74.90
13846 54.2387 4770.40 4621.41 76.58
13847 54.2425 4692.79 4619.95 74.41
13848 54.2463 4936.47 4618.52 76.42
13849 54.2500 4779.21 4617.15 75.41
13850 54.2538 4853.07 4615.76 76.11
13851 54.2575 4903.24 4614.42 76.24
13852 54.2613 4938.27 4613.07 77.52
13853 54.2651 4677.73 4611.74 74.93
13854 54.2688 4853.50 4610.46 75.87
13855 54.2726 4654.36 4609.16 75.08
13856 54.2763 4786.49 4607.92 75.25
13857 54.2801 4578.30 4606.67 74.43
13858 54.2839 4771.70 4605.44 75.75
13859 54.2876 4776.92 4604.25 75.99
13860 54.2914 4744.93 4603.05 75.42
13861 54.2951 4647.09 4601.89 74.03
13862 54.2989 4767.04 4600.72 75.38
13863 54.3027 4627.31 4599.57 74.04
13864 54.3064 4847.11 4598.47 76.52
13865 54.3102 4610.08 4597.35 73.82
13866 54.3139 4801.59 4596.28 74.92
13867 54.3177 4669.04 4595.20 74.98
13868 54.3215 4595.90 4594.13 73.83
13869 54.3252 4594.09 4593.10 75.09
13870 54.3290 4679.52 4592.06 74.62
13871 54.3327 4688.90 4591.07 74.73
13872 54.3365 4657.70 4590.06 74.81
13873 54.3403 4595.01 4589.06 75.28
13874 54.3440 4793.97 4588.11 76.09
13875 54.3478 4530.35 4587.15 73.64
13876 54.3515 4470.98 4586.23 73.15
13877 54.3553 4627.94 4585.29 74.93
13878 54.3591 4728.70 4584.37 75.14
13879 54.3628 4635.88 4583.48 75.09
13880 54.3666 4593.01 4582.59 74.18
13881 54.3703 4628.73 4581.73 74.15
13882 54.3741 4724.22 4580.86 75.06
13883 54.3779 4534.47 4580.00 73.61
13884 54.3816 4676.73 4579.18 75.36
13885 54.3854 4504.81 4578.35 73.38
13886 54.3891 4578.31 4577.55 74.11
13887 54.3929 4508.41 4576.74 73.24
13888 54.3967 4588.48 4575.95 73.73
13889 54.4004 4504.42 4575.19 72.95
13890 54.4042 4769.42 4574.41 75.79
13891 54.4079 4576.05 4573.67 74.04
13892 54.4117 4744.84 4572.92 74.89
13893 54.4155 4453.83 4572.18 72.10
13894 54.4192 4544.93 4571.47 74.32
13895 54.4230 4619.38 4570.76 74.71
13896 54.4267 4556.61 4570.07 74.02
13897 54.4305 4538.27 4569.37 72.63
13898 54.4343 4562.28 4568.68 73.39
13899 54.4380 4508.65 4568.02 74.76
13900 54.4418 4521.72 4567.35 74.05
13901 54.4455 4398.53 4566.71 72.58
13902 54.4493 4555.92 4566.06 74.46
13903 54.4531 4429.00 4565.42 71.55
13904 54.4568 4549.75 4564.81 73.74
13905 54.4606 4354.23 4564.19 72.53
13906 54.4643 4587.59 4563.59 73.36
13907 54.4681 4492.71 4562.98 72.38
13908 54.4719 4432.24 4562.39 73.21
13909 54.4756 4432.89 4561.81 73.59
13910 54.4794 4579.37 4561.24 74.20
13911 54.4831 4415.92 4560.68 72.68
13912 54.4869 4590.23 4560.12 74.32
13913 54.4907 4486.54 4559.56 72.55
13914 54.4944 4664.14 4559.03 75.58
13915 54.4982 4519.07 4558.49 73.85
13916 54.5019 4579.89 4557.97 74.48
13917 54.5057 4478.38 4557.45 73.35
13918 54.5095 4525.41 4556.93 74.18
13919 54.5132 4488.30 4556.44 73.21
13920 54.5170 4589.27 4555.94 75.02
13921 54.5208 4428.05 4555.44 72.70
13922 54.5245 4477.18 4554.97 73.43
13923 54.5283 4489.44 4554.49 73.25
13924 54.5320 4411.42 4554.03 71.66
13925 54.5358 4489.83 4553.56 74.12
13926 54.5396 4544.55 4553.10 73.67
13927 54.5433 4358.83 4552.66 71.64
13928 54.5471 4688.32 4552.21 73.94
13929 54.5508 4414.64 4551.78 72.71
13930 54.5546 4574.84 4551.34 74.49
13931 54.5583 4500.36 4550.92 74.06
13932 54.5621 4482.84 4550.49 73.06
13933 54.5659 4406.14 4550.07 72.71
13934 54.5696 4536.98 4549.67 74.57
13935 54.5734 4503.54 4549.26 73.36
13936 54.5772 4542.36 4548.86 74.44
13937 54.5809 4574.38 4548.47 72.87
13938 54.5847 4545.43 4548.08 74.68
13939 54.5884 4384.50 4547.71 72.36
13940 54.5922 4516.26 4547.33 73.74
13941 54.5960 4397.44 4546.95 72.49
13942 54.5997 4681.96 4546.59 75.61
13943 54.6035 4463.06 4546.22 73.79
13944 54.6072 4577.46 4545.87 74.23
13945 54.6110 4456.17 4545.51 73.08
13946 54.6148 4436.13 4545.16 73.19
13947 54.6185 4401.42 4544.83 72.64
13948 54.6223 4497.54 4544.49 74.06
13949 54.6260 4264.75 4544.16 71.75
13950 54.6298 4577.23 4543.82 75.24
13951 54.6336 4335.60 4543.50 71.95
13952 54.6373 4620.94 4543.18 75.05
13953 54.6411 4395.96 4542.86 74.71
13954 54.6448 4558.54 4542.56 75.21
13955 54.6486 4434.82 4542.25 73.60
13956 54.6524 4641.19 4541.94 75.30
13957 54.6561 4411.60 4541.65 72.79
13958 54.6599 4458.31 4541.35 73.63
13959 54.6636 4328.93 4541.06 71.92
13960 54.6674 4444.92 4540.77 73.28
13961 54.6712 4321.94 4540.49 72.64
13962 54.6749 4482.02 4540.21 73.33
13963 54.6787 4422.72 4539.94 73.02
13964 54.6824 4541.36 4539.67 75.06
13965 54.6862 4339.23 4539.40 72.47
13966 54.6900 4532.67 4539.14 74.51
13967 54.6937 4330.27 4538.88 71.58
13968 54.6975 4402.12 4538.62 73.06
13969 54.7012 4405.37 4538.37 73.64
13970 54.7050 4477.71 4538.12 73.45
13971 54.7088 4361.14 4537.88 73.41
13972 54.7125 4500.20 4537.64 73.93
13973 54.7163 4466.17 4537.40 74.07
13974 54.7200 4424.09 4537.17 71.61
13975 54.7238 4323.59 4536.94 72.36
13976 54.7276 4495.70 4536.71 74.73
13977 54.7313 4315.93 4536.49 71.88
13978 54.7351 4591.48 4536.26 73.82
13979 54.7388 4427.96 4536.05 74.74
13980 54.7426 4426.47 4535.83 71.87
13981 54.7464 4403.07 4535.62 73.25
13982 54.7501 4558.58 4535.42 74.79
13983 54.7539 4431.05 4535.22 73.59
13984 54.7576 4557.43 4535.02 74.67
13985 54.7614 4446.91 4534.82 72.69
13986 54.7652 4488.23 4534.62 73.39
13987 54.7689 4458.29 4534.44 73.36
13988 54.7727 4551.08 4534.25 72.48
13989 54.7764 4353.80 4534.07 71.98
13990 54.7802 4558.99 4533.88 73.84
13991 54.7840 4415.27 4533.70 72.66
13992 54.7877 4474.27 4533.53 73.43
13993 54.7915 4316.82 4533.36 72.44
13994 54.7952 4374.17 4533.19 71.75
13995 54.7990 4396.58 4533.03 73.86
13996 54.8028 4464.26 4532.86 73.90
13997 54.8065 4397.40 4532.71 72.73
13998 54.8103 4418.80 4532.55 72.06
13999 54.8140 4574.56 4532.40 72.46
14000 54.8178 4623.10 4532.24 75.76
14001 54.8216 4401.81 4532.09 72.76
14002 54.8253 4486.70 4531.95 74.53
14003 54.8291 4424.21 4531.81 72.13
14004 54.8328 4559.90 4531.67 73.86
14005 54.8366 4340.00 4531.53 71.83
14006 54.8404 4467.42 4531.40 75.45
14007 54.8441 4327.16 4531.27 72.50
14008 54.8479 4458.71 4531.15 73.27
14009 54.8516 4338.89 4531.02 73.24
14010 54.8554 4474.84 4530.90 73.81
14011 54.8592 4435.86 4530.78 73.21
14012 54.8629 4550.81 4530.67 73.26
14013 54.8667 4360.76 4530.55 73.05
14014 54.8704 4387.48 4530.44 72.26
14015 54.8742 4335.06 4530.33 72.74
14016 54.8780 4555.17 4530.23 74.22
14017 54.8817 4425.87 4530.13 72.20
14018 54.8855 4617.25 4530.03 75.24
14019 54.8892 4442.00 4529.93 73.55
14020 54.8930 4635.76 4529.84 75.60
14021 54.8968 4306.72 4529.75 72.09
14022 54.9005 4448.15 4529.66 74.00
14023 54.9043 4304.80 4529.57 72.42
14024 54.9080 4557.17 4529.49 74.53
14025 54.9118 4451.19 4529.41 72.84
14026 54.9156 4550.27 4529.33 73.89
14027 54.9193 4449.42 4529.26 73.86
14028 54.9231 4481.34 4529.19 72.79
14029 54.9268 4443.39 4529.12 73.04
14030 54.9306 4489.74 4529.05 73.35
14031 54.9344 4374.35 4528.99 70.70
14032 54.9381 4437.96 4528.93 74.27
14033 54.9419 4472.28 4528.87 74.50
14034 54.9456 4516.24 4528.82 72.80
14035 54.9494 4447.72 4528.76 73.08
14036 54.9532 4594.13 4528.71 74.96
14037 54.9569 4560.46 4528.67 74.39
14038 54.9607 4502.31 4528.62 73.38
14039 54.9644 4414.41 4528.58 74.17
14040 54.9682 4535.58 4528.54 74.42
14041 54.9720 4366.94 4528.50 73.54
14042 54.9757 4509.96 4528.47 75.00
14043 54.9795 4309.80 4528.44 72.50
14044 54.9832 4456.40 4528.41 72.55
14045 54.9870 4420.10 4528.38 73.83
14046 54.9908 4495.11 4528.36 74.47
14047 54.9945 4424.93 4528.49 72.59
14048 54.9983 4479.12 4528.47 74.28
14049 55.0020 4440.28 4528.46 73.03
14050 55.0058 4479.61 4528.45 73.07
14051 55.0096 4363.41 4528.44 72.96
14052 55.0133 4487.66 4528.43 74.00
14053 55.0171 4305.46 4528.42 72.18
14054 55.0208 4440.20 4528.42 73.54
14055 55.0246 4400.32 4528.42 71.96
14056 55.0284 4462.96 4528.43 73.92
14057 55.0321 4470.39 4528.43 73.40
14058 55.0359 4338.05 4528.44 70.62
14059 55.0396 4506.31 4528.45 75.08
14060 55.0434 4553.74 4528.47 74.07
14061 55.0472 4343.82 4528.48 72.29
14062 55.0509 4451.71 4528.50 73.09
14063 55.0547 4347.73 4528.52 72.66
14064 55.0584 4457.63 4528.55 73.42
14065 55.0622 4316.65 4528.58 72.21
14066 55.0660 4562.02 4528.61 74.66
14067 55.0697 4486.14 4528.65 74.56
14068 55.0735 4589.81 4528.68 74.83
14069 55.0772 4299.85 4528.72 72.91
14070 55.0810 4438.54 4528.76 73.47
14071 55.0848 4353.17 4528.80 73.80
14072 55.0885 4470.38 4528.85 74.47
14073 55.0923 4431.50 4528.90 73.55
14074 55.0960 4361.88 4528.95 73.16
14075 55.0998 4411.58 4529.01 73.56
14076 55.1035 4389.13 4529.07 72.17
14077 55.1073 4406.56 4529.13 73.55
14078 55.1111 4568.33 4529.20 74.56
14079 55.1148 4346.23 4529.26 72.85
14080 55.1186 4388.43 4529.33 73.03
14081 55.1223 4456.39 4529.41 73.73
14082 55.1261 4411.87 4529.48 73.14
14083 55.1299 4568.78 4529.56 75.41
14084 55.1336 4441.92 4529.64 73.11
14085 55.1374 4437.37 4529.73 75.01
14086 55.1412 4445.04 4529.82 74.37
14087 55.1449 4319.63 4529.91 72.36
14088 55.1487 4445.75 4530.01 74.22
14089 55.1524 4417.73 4530.10 73.15
14090 55.1562 4511.98 4530.21 74.82
14091 55.1599 4350.44 4530.31 72.76
14092 55.1637 4500.77 4530.42 74.44
14093 55.1675 4404.39 4530.53 73.76
14094 55.1712 4468.45 4530.64 72.71
14095 55.1750 4407.07 4530.76 73.64
14096 55.1787 4452.92 4530.88 73.82
14097 55.1825 4319.13 4531.01 72.98
14098 55.1863 4362.08 4531.14 72.73
14099 55.1900 4463.84 4531.27 73.62
14100 55.1938 4499.31 4531.40 72.72
14101 55.1975 4479.19 4531.54 74.28
14102 55.2013 4510.08 4531.69 73.91
14103 55.2051 4405.36 4531.84 73.08
14104 55.2088 4623.49 4531.99 75.95
14105 55.2126 4448.75 4532.14 74.08
14106 55.2163 4466.53 4532.30 74.41
14107 55.2201 4462.73 4532.47 74.19
14108 55.2239 4597.05 4532.64 74.91
14109 55.2276 4524.21 4532.80 74.96
14110 55.2314 4608.33 4532.98 75.81
14111 55.2351 4350.09 4533.16 72.51
14112 55.2389 4582.03 4533.35 76.67
14113 55.2427 4443.99 4533.54 74.40
14114 55.2464 4502.92 4533.73 73.77
14115 55.2502 4443.85 4533.93 72.91
14116 55.2539 4472.34 4534.13 74.19
14117 55.2577 4446.59 4534.34 73.10
14118 55.2615 4627.97 4534.56 76.08
14119 55.2652 4443.48 4534.78 74.05
14120 55.2690 4494.31 4535.01 74.14
14121 55.2727 4322.12 4535.24 73.23
14122 55.2765 4519.97 4535.47 73.54
14123 55.2803 4441.13 4535.72 74.16
14124 55.2840 4606.61 4535.96 75.25
14125 55.2878 4355.06 4536.22 73.23
14126 55.2915 4532.23 4536.48 74.76
14127 55.2953 4556.95 4536.75 74.90
14128 55.2991 4603.00 4537.02 74.84
14129 55.3028 4350.17 4537.30 72.13
14130 55.3066 4537.45 4537.59 75.18
14131 55.3103 4421.19 4537.88 73.26
14132 55.3141 4540.79 4538.18 73.13
14133 55.3179 4421.86 4538.50 74.35
14134 55.3216 4510.61 4538.81 73.77
14135 55.3254 4485.61 4539.13 74.32
14136 55.3291 4560.91 4539.46 74.85
14137 55.3329 4301.91 4539.80 72.56
14138 55.3367 4454.97 4540.15 73.55
14139 55.3404 4510.15 4540.50 76.29
14140 55.3442 4625.89 4540.87 74.66
14141 55.3479 4478.69 4541.24 73.75
14142 55.3517 4506.64 4541.63 74.03
14143 55.3554 4446.61 4542.02 73.65
14144 55.3592 4443.23 4542.42 73.29
14145 55.3630 4562.38 4542.84 74.57
14146 55.3667 4343.33 4543.25 72.09
14147 55.3705 4385.77 4543.69 72.38
14148 55.3742 4546.21 4544.12 74.43
14149 55.3780 4449.41 4544.58 72.85
14150 55.3818 4422.61 4544.99 73.33
14151 55.3855 4312.22 4545.46 72.25
14152 55.3893 4438.55 4545.95 73.13
14153 55.3930 4563.93 4546.44 74.47
14154 55.3968 4616.82 4546.95 74.27
14155 55.4006 4509.96 4547.48 74.48
14156 55.4043 4521.02 4548.01 74.14
14157 55.4081 4447.53 4548.56 73.62
14158 55.4118 4569.66 4549.11 74.69
14159 55.4156 4424.40 4549.69 73.18
14160 55.4194 4396.32 4550.29 72.25
14161 55.4231 4292.15 4550.88 72.98
14162 55.4269 4578.58 4551.50 75.22
14163 55.4306 4378.04 4552.12 73.23
14164 55.4344 4439.20 4552.77 71.73
14165 55.4382 4355.20 4553.43 74.84
14166 55.4419 4503.47 4554.10 73.87
14167 55.4457 4378.72 4554.79 71.43
14168 55.4494 4562.08 4555.49 74.44
14169 55.4532 4569.06 4556.22 74.59
14170 55.4570 4594.74 4556.96 73.86
14171 55.4607 4425.62 4557.71 73.51
14172 55.4645 4627.96 4558.48 75.23
14173 55.4682 4433.33 4559.26 74.47
14174 55.4720 4404.87 4560.08 73.30
14175 55.4757 4447.44 4560.89 74.62
14176 55.4795 4558.15 4561.74 75.65
14177 55.4833 4372.65 4562.61 72.88
14178 55.4870 4450.98 4563.47 72.05
14179 55.4908 4525.34 4564.38 74.22
14180 55.4945 4603.39 4565.29 76.01
14181 55.4983 4489.69 4566.23 75.27
14182 55.5021 4722.34 4567.20 75.46
14183 55.5058 4532.50 4568.17 75.63
14184 55.5096 4518.03 4569.18 74.31
14185 55.5133 4623.96 4570.18 75.11
14186 55.5171 4523.81 4571.24 74.50
14187 55.5209 4381.58 4572.31 72.93
14188 55.5246 4617.56 4573.38 75.64
14189 55.5284 4456.20 4574.50 72.18
14190 55.5321 4708.42 4575.62 75.98
14191 55.5359 4485.70 4576.78 73.33
14192 55.5396 4626.73 4577.94 77.29
14193 55.5434 4549.76 4579.16 74.14
14194 55.5472 4662.06 4580.40 75.26
14195 55.5509 4412.34 4581.63 73.00
14196 55.5547 4474.34 4582.92 74.62
14197 55.5584 4412.95 4584.20 73.08
14198 55.5622 4579.08 4585.54 76.05
14199 55.5660 4501.83 4586.91 75.45
14200 55.5697 4624.33 4588.26 73.75
14201 55.5735 4418.16 4589.68 71.53
14202 55.5772 4800.91 4591.09 75.46
14203 55.5810 4554.29 4592.57 72.62
14204 55.5848 4708.05 4594.07 74.49
14205 55.5885 4484.97 4595.56 72.72
14206 55.5923 4606.45 4597.12 73.37
14207 55.5960 4590.04 4598.67 73.64
14208 55.5998 4660.68 4600.28 74.36
14209 55.6036 4548.91 4601.93 73.45
14210 55.6073 4592.31 4603.57 73.18
14211 55.6111 4580.80 4605.27 73.03
14212 55.6148 4498.45 4606.96 72.09
14213 55.6186 4685.59 4608.73 74.40
14214 55.6223 4546.70 4610.48 73.04
14215 55.6261 4525.62 4612.32 73.07
14216 55.6299 4740.18 4614.18 75.19
14217 55.6336 4759.69 4616.03 75.10
14218 55.6374 4691.97 4617.95 73.71
14219 55.6411 4566.25 4619.86 74.37
14220 55.6449 4696.15 4621.85 74.59
14221 55.6487 4598.86 4623.88 73.35
14222 55.6524 4859.11 4625.89 75.00
14223 55.6562 4631.73 4627.98 73.43
14224 55.6599 4773.52 4630.06 75.70
14225 55.6637 4752.01 4632.22 75.14
14226 55.6675 4658.73 4634.42 74.13
14227 55.6712 4788.60 4636.59 74.40
14228 55.6750 4722.71 4638.86 74.76
14229 55.6787 4748.06 4641.11 75.03
14230 55.6825 4761.42 4643.45 75.21
14231 55.6862 4691.81 4645.76 75.19
14232 55.6900 4894.65 4648.17 75.04
14233 55.6938 4788.62 4650.62 75.11
14234 55.6975 4773.66 4653.05 74.91
14235 55.7013 4714.85 4655.57 74.98
14236 55.7050 4933.52 4658.06 76.92
14237 55.7088 4750.35 4660.66 75.28
14238 55.7126 4951.44 4663.30 77.03
14239 55.7163 4705.68 4665.90 74.41
14240 55.7201 4844.71 4668.61 76.58
14241 55.7238 4970.04 4671.29 76.11
14242 55.7276 4818.20 4674.08 76.06
14243 55.7314 4738.72 4676.91 75.04
14244 55.7351 5046.11 4679.70 77.18
14245 55.7389 4987.29 4682.60 77.51
14246 55.7426 4932.44 4685.47 77.68
14247 55.7464 4833.18 4688.45 75.52
14248 55.7501 5056.05 4691.39 78.15
14249 55.7539 4960.96 4694.46 76.27
14250 55.7577 5067.65 4697.56 76.79
14251 55.7614 4970.66 4700.62 77.39
14252 55.7652 5089.76 4703.80 78.33
14253 55.7689 5019.17 4706.93 76.84
14254 55.7727 5101.98 4710.19 78.17
14255 55.7765 4887.83 4713.49 76.16
14256 55.7802 5231.99 4716.75 79.77
14257 55.7840 4950.20 4720.12 76.66
14258 55.7877 5189.00 4723.46 78.61
14259 55.7915 5119.99 4726.91 77.96
14260 55.7952 5217.25 4730.32 79.09
14261 55.7990 5157.40 4733.86 78.78
14262 55.8028 5262.36 4737.44 78.88
14263 55.8065 5267.85 4740.96 78.94
14264 55.8103 5296.27 4744.61 79.57
14265 55.8140 5049.58 4748.21 77.59
14266 55.8178 5307.33 4751.95 79.44
14267 55.8216 5066.73 4755.73 77.37
14268 55.8253 5436.93 4759.44 79.82
14269 55.8291 5277.83 4763.29 80.30
14270 55.8328 5321.52 4767.08 79.47
14271 55.8366 5190.88 4771.02 78.28
14272 55.8404 5301.03 4774.98 80.65
14273 55.8441 5458.54 4778.88 81.44
14274 55.8479 5450.53 4782.93 80.74
14275 55.8516 5387.07 4786.90 79.94
14276 55.8554 5485.37 4791.02 80.93
14277 55.8591 5412.59 4795.07 80.83
14278 55.8629 5549.77 4799.26 82.34
14279 55.8667 5332.96 4803.49 79.48
14280 55.8704 5540.70 4807.65 81.75
14281 55.8742 5455.88 4811.95 80.29
14282 55.8779 5611.43 4816.17 82.42
14283 55.8817 5602.27 4820.55 82.30
14284 55.8854 5670.20 4824.83 82.77
14285 55.8892 5471.24 4829.28 81.00
14286 55.8930 5591.64 4833.76 81.60
14287 55.8967 5613.26 4838.14 82.98
14288 55.9005 5798.69 4842.68 83.45
14289 55.9042 5699.15 4847.14 82.66
14290 55.9080 5709.35 4851.74 82.95
14291 55.9118 5618.36 4856.37 82.11
14292 55.9155 5769.02 4860.92 83.75
14293 55.9193 5647.98 4865.61 82.62
14294 55.9230 5818.46 4870.22 83.56
14295 55.9268 5750.34 4874.97 83.87
14296 55.9305 5709.04 4879.62 83.04
14297 55.9343 5676.54 4884.43 81.61
14298 55.9381 5737.15 4889.27 83.43
14299 55.9418 5830.46 4894.00 86.51
14300 55.9456 5834.74 4898.89 84.73
14301 55.9493 5799.73 4903.67 84.19
14302 55.9531 5816.51 4908.61 83.42
14303 55.9569 5846.88 4913.56 84.01
14304 55.9606 5746.47 4918.41 83.62
14305 55.9644 5764.16 4923.41 83.46
14306 55.9681 5975.07 4928.29 85.29
14307 55.9719 5797.99 4933.33 83.67
14308 55.9756 5818.09 4938.25 84.90
14309 55.9794 5916.31 4943.33 84.98
14310 55.9832 6016.32 4948.42 85.41
14311 55.9869 5687.18 4953.39 83.46
14312 55.9907 5829.43 4958.50 84.72
14313 55.9944 5818.33 4963.50 83.93
14314 55.9982 5816.16 4968.64 84.18
14315 56.0019 5754.29 4973.65 83.85
14316 56.0057 5797.86 4978.81 84.07
14317 56.0095 5883.35 4983.99 85.09
14318 56.0132 5780.97 4989.02 84.53
14319 56.0170 5632.75 4994.20 82.49
14320 56.0207 5846.81 4999.25 84.70
14321 56.0245 5817.53 5004.43 83.54
14322 56.0283 5669.22 5009.62 82.98
14323 56.0320 5732.90 5014.67 83.95
14324 56.0358 5682.93 5019.85 83.09
14325 56.0395 5434.11 5024.89 82.65
14326 56.0433 5882.57 5030.07 86.04
14327 56.0470 5560.68 5035.10 82.45
14328 56.0508 5631.12 5040.27 83.55
14329 56.0546 5618.33 5045.42 83.41
14330 56.0583 5627.03 5050.42 82.53
14331 56.0621 5422.84 5055.54 81.31
14332 56.0658 5627.82 5060.52 82.83
14333 56.0696 5612.76 5065.61 83.20
14334 56.0733 5611.15 5070.56 82.70
14335 56.0771 5380.00 5075.61 81.30
14336 56.0809 5481.34 5080.65 82.25
14337 56.0846 5366.42 5085.53 79.99
14338 56.0884 5420.03 5090.51 80.83
14339 56.0921 5407.61 5095.33 81.44
14340 56.0959 5424.75 5100.25 81.55
14341 56.0996 5229.41 5105.02 80.34
14342 56.1034 5413.64 5109.87 80.86
14343 56.1072 5303.58 5114.69 80.46
14344 56.1109 5416.30 5119.35 80.67
14345 56.1147 5206.17 5124.09 78.56
14346 56.1184 5413.73 5128.66 81.53
14347 56.1222 5189.14 5133.32 79.68
14348 56.1259 5368.18 5137.80 80.58
14349 56.1297 5206.75 5142.36 79.20
14350 56.1335 5217.81 5146.85 79.65
14351 56.1372 5069.32 5151.19 76.27
14352 56.1410 5338.40 5155.58 80.21
14353 56.1447 5121.58 5159.80 79.61
14354 56.1485 5143.52 5164.08 78.41
14355 56.1523 5168.72 5168.28 79.10
14356 56.1560 5082.96 5172.32 79.04
14357 56.1598 5187.69 5176.39 79.99
14358 56.1635 5239.45 5180.49 79.72
14359 56.1673 5066.74 5184.42 78.22
14360 56.1710 5178.28 5188.18 80.16
14361 56.1748 5032.51 5191.95 78.06
14362 56.1786 5250.09 5195.65 80.72
14363 56.1823 4947.95 5199.17 77.18
14364 56.1861 5237.53 5202.71 80.62
14365 56.1898 5034.05 5206.06 78.70
14366 56.1936 5085.79 5209.42 78.94
14367 56.1973 4952.50 5212.60 77.53
14368 56.2011 5071.50 5215.77 79.10
14369 56.2049 5030.25 5218.85 79.09
14370 56.2086 5115.87 5221.75 79.33
14371 56.2124 4951.24 5224.63 77.27
14372 56.2161 5000.11 5227.33 78.12
14373 56.2199 5018.40 5230.01 78.04
14374 56.2236 5108.41 5232.51 78.94
14375 56.2274 5014.81 5234.97 78.56
14376 56.2312 5164.67 5237.32 79.99
14377 56.2349 4929.38 5239.50 77.52
14378 56.2387 4945.11 5241.63 76.98
14379 56.2424 5049.56 5243.59 79.74
14380 56.2462 4981.68 5245.49 77.99
14381 56.2499 5019.55 5247.22 78.47
14382 56.2537 5234.95 5248.88 79.83
14383 56.2575 5058.67 5250.43 79.18
14384 56.2612 5121.06 5251.81 79.67
14385 56.2650 4978.88 5253.10 78.60
14386 56.2687 5143.48 5254.25 77.96
14387 56.2725 5020.50 5255.30 78.88
14388 56.2762 5128.22 5256.20 79.78
14389 56.2800 4898.39 5257.00 77.51
14390 56.2838 5199.21 5257.67 80.65
14391 56.2875 5025.27 5258.20 78.69
14392 56.2913 5201.25 5258.62 80.16
14393 56.2950 5115.94 5258.90 79.17
14394 56.2988 5213.06 5259.06 80.21
14395 56.3025 5093.04 5259.09 79.94
14396 56.3063 5276.98 5258.99 79.97
14397 56.3101 5188.93 5258.77 80.67
14398 56.3138 5046.38 5258.43 78.52
14399 56.3176 5235.75 5257.94 80.26
14400 56.3213 5304.52 5257.35 81.52
14401 56.3251 5137.87 5256.62 80.30
14402 56.3288 5254.85 5255.78 81.17
14403 56.3326 5241.75 5254.79 80.74
14404 56.3363 5255.85 5253.71 79.76
14405 56.3401 5153.08 5252.48 79.93
14406 56.3439 5241.27 5251.12 81.53
14407 56.3476 5200.94 5249.68 79.83
14408 56.3514 5279.71 5248.07 80.66
14409 56.3551 5115.91 5246.40 79.23
14410 56.3589 5196.76 5244.56 80.34
14411 56.3626 5172.98 5242.65 80.78
14412 56.3664 5293.29 5240.58 81.72
14413 56.3702 5125.14 5238.40 78.69
14414 56.3739 5050.87 5236.16 79.89
14415 56.3777 5101.86 5233.75 79.24
14416 56.3814 5195.19 5231.30 80.57
14417 56.3852 5008.46 5228.67 77.78
14418 56.3889 5168.28 5226.01 80.11
14419 56.3927 5146.16 5223.18 78.98
14420 56.3964 5040.75 5220.33 78.25
14421 56.4002 4991.94 5217.30 78.35
14422 56.4040 5073.53 5214.17 79.04
14423 56.4077 5029.24 5211.03 79.89
14424 56.4115 5221.26 5207.71 79.34
14425 56.4152 4948.89 5204.39 77.21
14426 56.4190 4995.63 5200.90 77.87
14427 56.4227 5072.82 5197.41 79.05
14428 56.4265 5039.41 5193.74 79.55
14429 56.4303 4925.98 5189.99 78.69
14430 56.4340 5157.78 5186.27 78.85
14431 56.4378 4889.24 5182.36 76.74
14432 56.4415 5192.85 5178.49 82.15
14433 56.4453 4998.86 5174.44 79.43
14434 56.4490 5098.26 5170.43 78.79
14435 56.4528 4924.14 5166.24 77.45
14436 56.4566 5047.38 5161.99 78.20
14437 56.4603 4921.91 5157.78 78.16
14438 56.4641 5093.90 5153.41 79.61
14439 56.4678 4890.73 5149.09 77.17
14440 56.4716 5024.26 5144.60 78.78
14441 56.4753 4718.44 5140.18 75.32
14442 56.4791 4929.30 5135.58 77.27
14443 56.4828 4868.20 5131.06 77.14
14444 56.4866 4920.55 5126.37 78.32
14445 56.4904 4902.69 5121.63 77.54
14446 56.4941 4932.65 5116.98 78.12
14447 56.4979 4742.13 5112.16 75.83
14448 56.5016 4804.35 5107.43 76.12
14449 56.5054 4762.46 5102.54 76.34
14450 56.5091 4905.25 5097.74 76.80
14451 56.5129 4722.97 5092.78 75.95
14452 56.5166 4918.52 5087.92 77.08
14453 56.5204 4918.42 5082.91 77.38
14454 56.5242 4918.05 5077.87 78.69
14455 56.5279 4829.33 5072.94 77.70
14456 56.5317 4785.29 5067.85 76.39
14457 56.5354 4756.46 5062.87 75.14
14458 56.5392 4942.59 5057.75 78.30
14459 56.5429 4895.06 5052.75 78.10
14460 56.5467 4947.35 5047.58 77.01
14461 56.5504 4950.80 5042.56 77.42
14462 56.5542 4862.78 5037.38 76.77
14463 56.5580 4648.90 5032.19 74.91
14464 56.5617 4855.96 5027.12 76.58
14465 56.5655 4652.51 5021.91 74.72
14466 56.5692 4940.83 5016.85 77.57
14467 56.5730 4820.20 5011.64 76.55
14468 56.5767 4903.27 5006.56 78.11
14469 56.5805 4718.66 5001.35 75.73
14470 56.5843 4746.80 4996.14 75.85
14471 56.5880 4675.58 4991.07 75.17
14472 56.5918 4797.35 4985.87 75.96
14473 56.5955 4738.17 4980.81 76.38
14474 56.5993 4784.34 4975.62 75.90
14475 56.6030 4806.35 4970.57 75.98
14476 56.6068 4816.87 4965.40 76.03
14477 56.6105 4748.30 4960.38 75.71
14478 56.6143 4914.87 4955.23 77.33
14479 56.6180 4762.08 4950.23 75.33
14480 56.6218 4974.99 4945.11 78.63
14481 56.6256 4714.72 4940.01 75.95
14482 56.6293 4740.26 4935.06 75.73
14483 56.6331 4705.81 4929.98 75.80
14484 56.6368 4767.50 4925.07 73.74
14485 56.6406 4808.92 4920.03 76.89
14486 56.6443 4890.24 4915.15 78.40
14487 56.6481 4756.03 4910.17 75.71
14488 56.6518 4876.79 4905.33 76.92
14489 56.6556 4724.13 4900.40 75.92
14490 56.6594 4788.99 4895.48 76.00
14491 56.6631 4669.51 4890.72 75.12
14492 56.6669 4730.98 4885.86 75.74
14493 56.6706 4566.90 4881.15 74.66
14494 56.6744 4801.25 4876.34 76.64
14495 56.6781 4658.90 4871.69 74.79
14496 56.6819 4684.55 4866.94 74.69
14497 56.6856 4639.73 4862.35 75.08
14498 56.6894 4724.20 4857.66 75.81
14499 56.6932 4762.24 4853.01 76.28
14500 56.6969 4744.88 4848.51 76.05
14501 56.7007 4517.00 4843.92 73.46
14502 56.7044 4547.93 4839.48 72.56
14503 56.7082 4671.25 4834.96 74.65
14504 56.7119 4868.53 4830.59 77.45
14505 56.7157 4602.05 4826.14 74.28
14506 56.7194 4747.85 4821.84 76.71
14507 56.7232 4604.84 4817.46 75.67
14508 56.7270 4714.05 4813.12 76.73
14509 56.7307 4777.32 4808.93 77.64
14510 56.7345 4791.39 4804.67 76.41
14511 56.7382 4581.04 4800.56 73.78
14512 56.7420 4620.81 4796.37 76.28
14513 56.7457 4487.21 4792.33 73.03
14514 56.7495 4627.84 4788.22 74.17
14515 56.7532 4520.38 4784.26 73.77
14516 56.7570 4613.96 4780.23 74.85
14517 56.7607 4646.36 4776.36 75.52
14518 56.7645 4598.94 4772.41 75.26
14519 56.7683 4417.43 4768.51 73.11
14520 56.7720 4698.56 4764.75 75.68
14521 56.7758 4498.66 4760.94 74.49
14522 56.7795 4583.37 4757.26 74.80
14523 56.7833 4540.46 4753.53 75.28
14524 56.7870 4568.74 4749.94 72.72
14525 56.7908 4562.91 4746.29 74.70
14526 56.7945 4702.77 4742.78 75.60
14527 56.7983 4550.72 4739.23 74.21
14528 56.8020 4789.99 4735.80 75.98
14529 56.8058 4683.69 4732.33 75.57
14530 56.8096 4720.49 4728.91 76.05
14531 56.8133 4506.84 4725.62 73.61
14532 56.8171 4573.30 4722.28 74.36
14533 56.8208 4603.40 4719.08 75.37
14534 56.8246 4608.63 4715.84 74.37
14535 56.8283 4523.91 4712.72 73.21
14536 56.8321 4591.32 4709.57 74.87
14537 56.8358 4495.90 4706.54 72.90
14538 56.8396 4562.77 4703.48 73.42
14539 56.8433 4562.21 4700.54 75.13
14540 56.8471 4687.47 4697.57 75.83
14541 56.8509 4453.03 4694.64 72.20
14542 56.8546 4597.02 4691.84 74.22
14543 56.8584 4473.96 4689.18 73.00
14544 56.8621 4612.13 4686.47 74.92
14545 56.8659 4496.90 4683.73 73.48
14546 56.8696 4582.30 4681.10 75.32
14547 56.8734 4568.23 4678.45 74.79
14548 56.8771 4584.46 4675.92 74.52
14549 56.8809 4506.88 4673.36 74.19
14550 56.8846 4543.81 4670.92 74.48
14551 56.8884 4465.11 4668.46 73.64
14552 56.8922 4484.39 4666.04 74.50
14553 56.8959 4556.82 4663.73 74.23
14554 56.8997 4477.87 4661.41 74.49
14555 56.9034 4430.98 4659.19 72.98
14556 56.9072 4543.96 4656.96 74.97
14557 56.9109 4455.46 4654.83 73.44
14558 56.9147 4622.58 4652.69 75.56
14559 56.9184 4587.73 4650.66 75.31
14560 56.9222 4560.16 4648.61 72.68
14561 56.9259 4431.76 4646.66 73.66
14562 56.9297 4590.11 4644.71 74.76
14563 56.9334 4386.04 4642.85 73.26
14564 56.9372 4570.53 4640.99 73.42
14565 56.9410 4339.32 4639.17 72.98
14566 56.9447 4593.14 4637.45 74.33
14567 56.9485 4432.12 4635.73 73.09
14568 56.9522 4471.92 4634.10 73.62
14569 56.9560 4444.31 4632.47 73.51
14570 56.9597 4605.21 4630.92 74.37
14571 56.9635 4462.35 4629.39 74.32
14572 56.9672 4532.96 4627.94 74.24
14573 56.9710 4349.59 4626.49 71.80
14574 56.9747 4552.44 4625.12 74.24
14575 56.9785 4450.26 4623.77 73.14
14576 56.9822 4584.43 4622.50 74.11
14577 56.9860 4432.15 4621.23 73.85
14578 56.9897 4601.97 4620.05 74.72
14579 56.9919 4662.22 4619.36 75.62
14580 56.9957 4493.09 4618.22 73.35
14581 56.9995 4349.38 4617.12 72.76
14582 57.0032 4511.45 4616.10 73.67
14583 57.0070 4585.40 4615.09 74.63
14584 57.0107 4697.19 4614.16 76.90
14585 57.0145 4526.56 4613.24 75.15
14586 57.0182 4572.83 4612.39 74.68
14587 57.0220 4388.60 4611.57 72.06
14588 57.0257 4567.70 4610.81 75.15
14589 57.0295 4569.70 4610.08 75.37
14590 57.0333 4381.51 4609.40 72.21
14591 57.0370 4454.23 4608.78 73.22
14592 57.0408 4571.34 4608.18 74.37
14593 57.0445 4438.54 4607.65 73.19
14594 57.0483 4503.39 4607.14 73.64
14595 57.0520 4322.41 4606.70 71.93
14596 57.0558 4548.41 4606.29 74.29
14597 57.0595 4511.37 4605.93 73.98
14598 57.0633 4478.87 4605.61 74.49
14599 57.0671 4506.37 4605.34 74.00
14600 57.0708 4472.86 4605.12 73.58
14601 57.0746 4468.16 4604.94 73.49
14602 57.0783 4589.24 4604.81 74.30
14603 57.0821 4396.92 4604.72 73.48
14604 57.0858 4715.80 4604.68 75.47
14605 57.0896 4525.93 4604.68 73.68
14606 57.0933 4619.28 4604.73 74.46
14607 57.0971 4415.25 4604.83 72.91
14608 57.1009 4577.06 4604.98 74.53
14609 57.1046 4444.54 4605.16 72.69
14610 57.1084 4652.44 4605.40 75.96
14611 57.1121 4531.91 4605.68 74.48
14612 57.1159 4436.10 4606.02 73.19
14613 57.1196 4478.30 4606.39 73.93
14614 57.1234 4530.93 4606.81 71.87
14615 57.1271 4430.82 4607.27 73.68
14616 57.1309 4550.48 4607.80 75.53
14617 57.1347 4559.89 4608.37 74.14
14618 57.1384 4614.89 4608.97 74.79
14619 57.1422 4394.02 4609.64 73.12
14620 57.1459 4495.26 4610.33 73.57
14621 57.1497 4319.32 4611.10 72.14
14622 57.1534 4578.98 4611.89 74.56
14623 57.1572 4416.36 4612.75 73.46
14624 57.1609 4586.22 4613.63 74.90
14625 57.1647 4451.87 4614.59 73.11
14626 57.1684 4581.17 4615.58 73.95
14627 57.1722 4599.32 4616.63 74.88
14628 57.1760 4541.63 4617.74 74.36
14629 57.1797 4500.11 4618.86 74.11
14630 57.1835 4648.98 4620.07 75.37
14631 57.1872 4443.44 4621.30 72.96
14632 57.1910 4483.26 4622.61 72.15
14633 57.1947 4425.65 4623.93 72.63
14634 57.1985 4712.84 4625.34 76.25
14635 57.2022 4422.37 4626.76 72.83
14636 57.2060 4525.08 4628.27 74.88
14637 57.2098 4435.06 4629.84 74.29
14638 57.2135 4585.31 4631.41 75.74
14639 57.2173 4530.79 4633.08 75.59
14640 57.2200 4562.06 4634.30 72.24
14641 57.2238 4510.37 4636.06 71.26
14642 57.2275 4656.12 4637.82 72.65
14643 57.2313 4798.93 4639.69 74.47
14644 57.2350 4664.43 4641.56 72.17
14645 57.2388 4607.65 4643.53 71.91
14646 57.2425 4630.60 4645.50 73.92
14647 57.2463 4655.71 4647.58 72.47
14648 57.2500 4600.16 4649.65 71.57
14649 57.2538 4587.70 4651.88 71.08
14650 57.2575 4515.59 4654.10 71.43
14651 57.2613 4632.38 4656.44 71.65
14652 57.2651 4658.59 4658.84 72.90
14653 57.2688 4733.22 4661.22 73.27
14654 57.2726 4477.68 4663.73 70.89
14655 57.2763 4774.18 4666.22 74.06
14656 57.2801 4672.98 4668.84 72.27
14657 57.2838 4821.65 4671.44 74.41
14658 57.2876 4611.79 4674.17 72.61
14659 57.2913 4766.12 4676.89 72.61
14660 57.2951 4608.74 4679.73 72.30
14661 57.2988 4706.87 4682.56 73.06
14662 57.3026 4784.69 4685.52 74.00
14663 57.3063 4816.83 4688.46 74.12
14664 57.3101 4613.62 4691.53 72.05
14665 57.3138 4765.17 4694.58 72.69
14666 57.3176 4749.77 4697.77 74.39
14667 57.3214 4805.20 4701.03 72.58
14668 57.3251 4747.25 4704.25 73.39
14669 57.3289 4797.25 4707.62 73.73
14670 57.3326 4758.44 4710.96 73.66
14671 57.3364 4836.45 4714.45 73.71
14672 57.3401 4955.40 4717.91 77.60
14673 57.3439 5121.81 4721.52 76.83
14674 57.3476 4793.32 4725.09 73.25
14675 57.3514 4790.22 4728.83 72.71
14676 57.3551 4686.57 4732.51 71.35
14677 57.3589 4810.84 4736.37 73.41
14678 57.3626 4707.29 4740.18 72.44
14679 57.3664 4879.65 4744.15 74.45
14680 57.3702 4792.44 4748.18 73.30
14681 57.3739 5025.85 4752.17 74.91
14682 57.3777 4836.46 4756.33 74.09
14683 57.3814 4915.43 4760.44 74.48
14684 57.3852 4962.61 4764.72 74.24
14685 57.3889 5058.28 4768.95 75.70
14686 57.3927 5025.18 4773.35 75.34
14687 57.3964 5141.20 4777.70 76.92
14688 57.4002 5015.32 4782.23 74.84
14689 57.4039 5183.19 4786.70 76.55
14690 57.4077 5007.51 4791.35 75.18
14691 57.4114 5209.31 4795.94 76.51
14692 57.4152 4994.92 4800.71 74.76
14693 57.4189 5305.03 4805.42 77.14
14694 57.4227 5098.50 4810.32 76.45
14695 57.4265 5243.91 4815.29 76.89
14696 57.4302 5213.54 4820.18 77.74
14697 57.4340 5518.28 4825.27 79.46
14698 57.4377 5285.79 4830.28 77.00
14699 57.4415 5379.92 4835.49 79.41
14700 57.4452 5314.47 4840.62 76.97
14701 57.4490 5509.80 4845.95 79.20
14702 57.4527 5378.42 4851.20 77.67
14703 57.4565 5579.74 4856.65 80.24
14704 57.4602 5479.16 4862.02 78.56
14705 57.4640 5678.77 4867.60 81.30
14706 57.4678 5675.76 4873.24 81.13
14707 57.4715 5701.29 4878.78 81.20
14708 57.4753 5616.46 4884.54 79.34
14709 57.4790 5636.19 4890.20 79.57
14710 57.4828 5597.44 4896.08 79.41
14711 57.4865 5855.22 4901.85 82.62
14712 57.4903 5827.23 4907.85 81.84
14713 57.4940 5945.96 4913.74 82.42
14714 57.4978 5885.11 4919.85 81.92
14715 57.5015 5948.24 4925.85 83.24
14716 57.5053 5819.42 4932.08 81.43
14717 57.5091 5979.14 4938.37 83.38
14718 57.5128 5998.29 4944.53 83.06
14719 57.5166 6063.81 4950.93 84.53
14720 57.5203 5949.69 4957.20 82.23
14721 57.5241 6268.86 4963.71 84.69
14722 57.5278 6167.47 4970.09 84.51
14723 57.5316 6313.03 4976.70 85.49
14724 57.5353 6173.25 4983.19 82.45
14725 57.5391 6379.51 4989.91 87.68
14726 57.5428 6263.27 4996.49 85.09
14727 57.5466 6485.24 5003.32 86.52
14728 57.5503 6176.99 5010.00 83.06
14729 57.5541 6477.44 5016.92 86.82
14730 57.5579 6312.60 5023.89 86.09
14731 57.5616 6597.71 5030.72 87.49
14732 57.5654 6472.30 5037.78 87.16
14733 57.5691 6589.66 5044.71 88.06
14734 57.5729 6460.23 5051.86 86.02
14735 57.5766 6669.19 5058.87 87.10
14736 57.5804 6752.47 5066.12 89.04
14737 57.5841 6558.71 5073.21 88.35
14738 57.5879 6496.06 5080.54 87.56
14739 57.5917 6808.63 5087.91 90.14
14740 57.5954 6565.30 5095.12 86.51
14741 57.5992 6851.61 5102.56 89.47
14742 57.6029 6673.55 5109.85 89.53
14743 57.6067 6771.46 5117.37 89.05
14744 57.6104 6715.88 5124.63 88.33
14745 57.6142 6565.07 5132.21 86.67
14746 57.6179 6705.67 5139.63 89.82
14747 57.6254 6618.98 5154.75 87.71
14748 57.6292 6743.86 5162.46 89.48
14749 57.6330 6728.19 5170.19 89.49
14750 57.6367 6722.54 5177.75 87.19
14751 57.6405 6679.26 5185.53 89.64
14752 57.6442 6687.44 5193.13 89.19
14753 57.6480 6665.28 5200.95 88.76
14754 57.6517 6662.83 5208.59 87.76
14755 57.6555 6601.74 5216.47 86.77
14756 57.6592 6526.98 5224.13 86.76
14757 57.6630 6759.72 5232.03 90.28
14758 57.6668 6779.97 5239.93 89.42
14759 57.6705 6397.23 5247.64 86.60
14760 57.6743 6604.80 5255.55 88.76
14761 57.6780 6516.77 5263.28 88.78
14762 57.6818 6608.35 5271.21 91.18
14763 57.6855 6277.67 5278.94 87.77
14764 57.6893 6629.81 5286.87 91.10
14765 57.6930 6466.00 5294.60 89.73
14766 57.6968 6374.92 5302.53 88.99
14767 57.7005 6274.14 5310.24 88.35
14768 57.7043 6466.74 5318.15 90.53
14769 57.7081 6399.84 5326.07 89.87
14770 57.7118 6337.81 5333.74 88.47
14771 57.7156 6288.28 5341.63 88.29
14772 57.7193 6343.81 5349.27 88.68
14773 57.7231 6310.16 5357.12 88.36
14774 57.7268 6256.69 5364.72 88.35
14775 57.7306 6171.20 5372.52 87.61
14776 57.7343 6290.18 5380.06 88.08
14777 57.7381 5957.62 5387.81 85.31
14778 57.7419 6264.01 5395.51 88.90
14779 57.7456 6138.08 5402.96 87.54
14780 57.7494 6083.37 5410.59 85.75
14781 57.7531 5952.81 5417.96 86.65
14782 57.7569 5865.47 5425.51 84.85
14783 57.7606 6059.54 5432.79 86.21
14784 57.7644 5909.72 5440.23 85.18
14785 57.7681 5780.14 5447.41 83.77
14786 57.7719 5942.41 5454.75 85.57
14787 57.7757 5845.67 5462.01 85.07
14788 57.7794 5967.43 5469.03 85.73
14789 57.7832 5764.48 5476.17 84.69
14790 57.7869 5823.70 5483.05 85.05
14791 57.7907 5691.53 5490.05 83.39
14792 57.7944 5799.40 5496.79 84.46
14793 57.7982 5658.19 5503.63 83.40
14794 57.8020 5769.98 5510.40 83.03
14795 57.8057 5698.13 5516.90 83.62
14796 57.8095 5764.83 5523.48 84.33
14797 57.8132 5649.53 5529.81 83.18
14798 57.8170 5521.88 5536.20 81.49
14799 57.8207 5513.94 5542.34 82.08
14800 57.8245 5704.58 5548.53 83.65
14801 57.8282 5702.42 5554.47 84.02
14802 57.8320 5693.27 5560.45 83.11
14803 57.8358 5518.60 5566.32 80.29
14804 57.8395 5643.86 5571.93 83.48
14805 57.8433 5535.23 5577.56 84.00
14806 57.8470 5657.31 5582.94 82.52
14807 57.8508 5551.49 5588.33 82.19
14808 57.8545 5711.02 5593.46 83.10
14809 57.8583 5504.03 5598.59 81.76
14810 57.8620 5593.29 5603.46 82.82
14811 57.8658 5559.86 5608.31 82.81
14812 57.8696 5640.58 5613.04 82.72
14813 57.8733 5496.87 5617.49 82.15
14814 57.8771 5605.35 5621.92 82.76
14815 57.8808 5507.52 5626.09 81.96
14816 57.8846 5653.98 5630.22 83.65
14817 57.8883 5531.22 5634.09 82.08
14818 57.8921 5802.62 5637.90 84.44
14819 57.8959 5399.56 5641.55 81.40
14820 57.8996 5534.30 5644.95 82.89
14821 57.9034 5587.38 5648.27 82.60
14822 57.9071 5739.31 5651.35 84.11
14823 57.9109 5456.79 5654.34 81.53
14824 57.9146 5733.91 5657.08 83.63
14825 57.9184 5647.96 5659.72 83.62
14826 57.9221 5844.62 5662.13 85.12
14827 57.9259 5617.30 5664.42 83.43
14828 57.9297 5879.17 5666.53 86.01
14829 57.9334 5635.36 5668.41 82.74
14830 57.9372 5853.92 5670.16 83.60
14831 57.9409 5799.19 5671.68 86.34
14832 57.9447 5998.38 5673.06 86.18
14833 57.9484 5731.53 5674.23 83.57
14834 57.9522 5881.71 5675.23 84.98
14835 57.9559 5805.90 5676.04 85.49
14836 57.9597 5917.66 5676.67 85.27
14837 57.9635 5883.03 5677.12 86.21
14838 57.9672 6029.03 5677.37 86.21
14839 57.9710 5980.11 5677.44 86.93
14840 57.9747 5980.83 5677.32 86.28
14841 57.9785 5932.51 5677.01 86.06
14842 57.9822 6150.53 5676.53 87.56
14843 57.9860 5873.70 5675.85 84.38
14844 57.9898 6017.62 5674.98 86.63
14845 57.9935 6005.91 5673.95 85.64
14846 57.9973 6120.09 5672.71 87.20
14847 58.0010 6111.03 5671.33 88.00
14848 58.0048 6223.04 5669.72 87.40
14849 58.0085 6045.58 5667.97 88.15
14850 58.0123 6357.13 5666.00 88.49
14851 58.0161 6239.09 5663.85 87.40
14852 58.0198 6273.66 5661.58 89.25
14853 58.0236 6102.79 5659.08 86.98
14854 58.0273 6284.37 5656.47 89.20
14855 58.0311 6185.22 5653.62 87.89
14856 58.0348 6345.61 5650.68 88.92
14857 58.0386 6130.89 5647.49 87.24
14858 58.0424 6368.88 5644.14 92.21
14859 58.0461 6253.19 5640.72 89.66
14860 58.0499 6310.53 5637.04 88.40
14861 58.0536 6292.78 5633.31 88.45
14862 58.0574 6433.40 5629.33 90.25
14863 58.0611 6193.91 5625.30 88.14
14864 58.0649 6375.35 5621.01 90.04
14865 58.0686 6117.42 5616.69 88.38
14866 58.0724 6369.21 5612.12 90.43
14867 58.0762 6206.81 5607.40 89.10
14868 58.0799 6344.85 5602.68 89.95
14869 58.0837 6233.24 5597.69 90.03
14870 58.0874 6249.20 5592.70 89.15
14871 58.0912 6089.44 5587.46 86.36
14872 58.0949 6216.18 5582.23 88.38
14873 58.0987 6055.95 5576.74 88.00
14874 58.1025 6306.97 5571.14 89.24
14875 58.1062 5948.74 5565.56 85.61
14876 58.1100 6025.15 5559.72 86.20
14877 58.1137 5887.18 5553.95 84.92
14878 58.1175 6204.13 5547.90 87.61
14879 58.1212 6026.38 5541.93 87.19
14880 58.1250 6063.19 5535.68 87.83
14881 58.1288 5991.71 5529.35 87.14
14882 58.1325 6119.25 5523.10 88.01
14883 58.1363 5886.76 5516.59 84.85
14884 58.1400 5972.56 5510.17 86.02
14885 58.1438 5826.26 5503.50 86.09
14886 58.1475 5965.72 5496.92 86.13
14887 58.1513 5985.05 5490.11 86.25
14888 58.1551 5813.05 5483.21 84.73
14889 58.1588 5752.16 5476.44 85.49
14890 58.1626 5845.40 5469.41 83.91
14891 58.1663 5733.99 5462.52 82.94
14892 58.1701 5855.00 5455.38 84.30
14893 58.1738 5876.62 5448.37 85.10
14894 58.1776 5740.34 5441.13 83.20
14895 58.1814 5873.77 5433.85 85.02
14896 58.1851 5732.85 5426.71 83.79
14897 58.1889 5726.69 5419.34 83.88
14898 58.1926 5667.18 5412.12 82.32
14899 58.1964 5614.61 5404.67 82.66
14900 58.2001 5687.18 5397.39 82.98
14901 58.2039 5641.79 5389.88 83.32
14902 58.2077 5595.90 5382.35 82.72
14903 58.2114 5486.82 5374.99 81.90
14904 58.2152 5647.38 5367.40 82.56
14905 58.2189 5488.72 5360.01 80.41
14906 58.2227 5673.50 5352.39 82.90
14907 58.2264 5582.72 5344.96 82.16
14908 58.2302 5556.33 5337.33 82.73
14909 58.2340 5392.68 5329.69 80.14
14910 58.2377 5625.78 5322.24 81.97
14911 58.2415 5431.60 5314.59 81.45
14912 58.2452 5613.99 5307.14 83.18
14913 58.2490 5299.54 5299.49 79.50
14914 58.2527 5504.48 5292.04 80.76
14915 58.2565 5476.84 5284.40 81.35
14916 58.2603 5584.94 5276.76 81.89
14917 58.2640 5315.07 5269.35 80.93
14918 58.2678 5277.60 5261.73 80.18
14919 58.2715 5371.54 5254.34 80.12
14920 58.2753 5449.30 5246.75 82.02
14921 58.2790 5353.66 5239.40 81.31
14922 58.2828 5457.98 5231.86 81.23
14923 58.2866 5215.36 5224.33 79.26
14924 58.2903 5454.00 5217.04 81.70
14925 58.2941 5180.92 5209.57 78.79
14926 58.2978 5322.34 5202.33 80.25
14927 58.3016 5316.12 5194.91 80.13
14928 58.3053 5273.51 5187.74 79.23
14929 58.3091 5167.26 5180.38 79.33
14930 58.3129 5396.00 5173.08 80.28
14931 58.3166 5151.78 5165.99 78.34
14932 58.3204 5376.92 5158.75 80.33
14933 58.3241 5171.07 5151.73 79.26
14934 58.3279 5245.73 5144.58 79.73
14935 58.3316 5125.68 5137.64 79.42
14936 58.3354 5194.40 5130.57 79.32
14937 58.3392 5169.18 5123.54 77.13
14938 58.3429 5373.57 5116.73 82.14
14939 58.3467 5030.36 5109.79 78.06
14940 58.3504 5162.05 5103.08 78.19
14941 58.3542 5043.40 5096.22 77.45
14942 58.3580 5088.83 5089.43 78.39
14943 58.3617 5181.86 5082.86 79.20
14944 58.3655 5190.50 5076.17 79.74
14945 58.3692 4979.68 5069.70 77.16
14946 58.3730 5166.50 5063.12 79.22
14947 58.3767 5092.01 5056.75 78.56
14948 58.3805 5237.96 5050.28 80.64
14949 58.3843 4987.20 5043.87 78.12
14950 58.3880 5107.53 5037.67 79.17
14951 58.3918 5026.94 5031.36 77.67
14952 58.3955 5083.62 5025.28 78.80
14953 58.3993 4812.60 5019.10 75.53
14954 58.4030 5037.85 5013.12 78.28
14955 58.4068 4952.15 5007.06 77.95
14956 58.4106 5061.50 5001.05 78.37
14957 58.4143 4832.23 4995.27 76.89
14958 58.4181 5069.14 4989.38 77.67
14959 58.4218 4859.02 4983.73 77.19
14960 58.4256 5021.05 4977.97 77.75
14961 58.4294 4892.62 4972.27 76.86
14962 58.4331 4907.47 4966.80 77.59
14963 58.4369 5038.00 4961.23 77.00
14964 58.4406 5023.72 4955.89 78.56
14965 58.4444 4880.07 4950.45 78.51
14966 58.4481 4916.43 4945.24 77.08
14967 58.4519 4907.82 4939.93 76.14
14968 58.4557 5030.41 4934.71 78.75
14969 58.4594 4832.89 4929.68 76.51
14970 58.4632 4883.18 4924.59 77.21
14971 58.4669 4853.47 4919.69 76.44
14972 58.4707 4993.61 4914.73 78.09
14973 58.4744 4795.36 4909.96 76.48
14974 58.4782 4959.24 4905.14 77.68
14975 58.4820 4875.64 4900.37 76.08
14976 58.4857 4937.23 4895.81 77.41
14977 58.4895 4874.28 4891.19 77.40
14978 58.4932 4981.87 4886.75 78.07
14979 58.4970 4911.63 4882.26 77.03
14980 58.5008 4901.30 4877.85 78.22
14981 58.5045 4813.09 4873.61 76.28
14982 58.5083 4976.25 4869.33 79.08
14983 58.5120 4762.39 4865.22 76.13
14984 58.5158 4773.61 4861.08 75.28
14985 58.5195 4635.03 4857.10 73.45
14986 58.5233 4872.10 4853.09 77.38
14987 58.5271 4810.96 4849.15 76.35
14988 58.5308 4959.35 4845.37 77.47
14989 58.5346 4847.90 4841.56 77.03
14990 58.5383 4826.47 4837.92 75.04
14991 58.5421 4721.08 4834.23 77.21
14992 58.5459 4917.01 4830.62 77.31
14993 58.5496 4751.02 4827.17 75.77
14994 58.5534 4776.40 4823.69 75.35
14995 58.5571 4725.93 4820.36 75.07
14996 58.5609 4946.69 4817.01 78.11
14997 58.5646 4826.40 4813.80 76.25
14998 58.5684 4823.39 4810.58 75.61
14999 58.5722 4825.21 4807.42 75.62
15000 58.5759 4872.09 4804.41 78.15
15001 58.5797 4745.94 4801.37 76.23
15002 58.5834 4827.43 4798.48 75.50
15003 58.5872 4603.24 4795.57 74.71
15004 58.5909 4815.70 4792.79 76.78
15005 58.5947 4851.74 4790.00 77.69
15006 58.5985 4703.69 4787.27 75.36
15007 58.6022 4777.17 4784.68 76.39
15008 58.6060 4845.70 4782.07 75.85
15009 58.6097 4704.99 4779.58 75.79
15010 58.6135 4748.91 4777.09 76.23
15011 58.6173 4615.49 4774.65 74.86
15012 58.6210 4894.61 4772.33 77.50
15013 58.6248 4658.25 4770.00 75.84
15014 58.6285 4987.99 4767.80 78.57
15015 58.6323 4592.65 4765.58 75.37
15016 58.6361 4850.66 4763.42 76.55
15017 58.6398 4567.27 4761.37 73.50
15018 58.6436 4830.24 4759.32 79.92
15019 58.6473 4608.59 4757.36 74.63
15020 58.6511 4736.06 4755.41 75.92
15021 58.6548 4814.65 4753.56 74.56
15022 58.6586 4860.08 4751.71 76.98
15023 58.6624 4685.65 4749.90 74.67
15024 58.6661 4792.22 4748.19 76.17
15025 58.6699 4641.78 4746.48 74.91
15026 58.6736 4758.70 4745.04 76.52
15027 58.6774 4759.75 4743.42 76.81
15028 58.6812 4772.52 4741.85 74.40
15029 58.6849 4672.80 4740.36 75.94
15030 58.6887 4848.78 4738.87 77.43
15031 58.6924 4663.03 4737.46 76.40
15032 58.6962 4699.79 4736.06 76.45
15033 58.6999 4572.28 4734.73 74.23
15034 58.7037 4701.78 4733.40 75.75
15035 58.7075 4661.47 4732.11 75.42
15036 58.7112 4775.15 4730.89 77.47
15037 58.7150 4642.67 4729.67 74.73
15038 58.7187 4620.36 4728.52 75.42
15039 58.7225 4746.00 4727.38 76.01
15040 58.7263 4742.82 4726.27 76.64
15041 58.7300 4764.85 4725.21 76.44
15042 58.7338 4742.80 4724.16 76.78
15043 58.7375 4551.76 4723.17 72.73
15044 58.7413 4877.09 4722.18 77.48
15045 58.7450 4599.35 4721.24 75.61
15046 58.7488 4696.48 4720.30 75.83
15047 58.7526 4600.14 4719.40 74.42
15048 58.7563 4749.06 4718.53 75.65
15049 58.7601 4504.73 4717.68 72.83
15050 58.7638 4725.20 4716.86 75.83
15051 58.7676 4676.68 4716.04 75.74
15052 58.7714 4658.63 4715.25 74.48
15053 58.7751 4533.96 4714.49 74.15
15054 58.7789 4681.75 4713.73 75.14
15055 58.7826 4536.09 4713.01 74.15
15056 58.7864 4567.06 4712.29 74.27
15057 58.7901 4451.57 4711.60 73.72
15058 58.7939 4649.79 4710.91 75.03
15059 58.7977 4638.66 4710.23 75.66
15060 58.8014 4485.96 4709.58 72.70
15061 58.8052 4574.02 4708.92 74.69
15062 58.8089 4647.24 4708.29 75.54
15063 58.8127 4537.87 4707.64 74.68
15064 58.8165 4621.49 4707.01 75.38
15065 58.8202 4502.21 4706.41 71.97
15066 58.8240 4536.31 4705.79 73.96
15067 58.8277 4492.70 4705.19 73.41
15068 58.8315 4556.19 4704.57 74.80
15069 58.8353 4530.56 4703.96 73.29
15070 58.8390 4739.30 4703.38 74.90
15071 58.8428 4630.38 4702.77 75.48
15072 58.8465 4636.84 4702.18 74.81
15073 58.8503 4621.82 4701.57 74.81
15074 58.8540 4713.66 4700.97 75.72
15075 58.8578 4651.00 4700.35 74.52
15076 58.8616 4630.61 4699.73 74.12
15077 58.8653 4575.04 4699.12 74.61
15078 58.8691 4628.09 4698.49 74.81
15079 58.8728 4548.88 4697.86 74.56
15080 58.8766 4718.45 4697.22 74.36
15081 58.8804 4573.19 4696.56 74.54
15082 58.8841 4579.62 4695.91 73.98
15083 58.8879 4610.58 4695.23 74.04
15084 58.8916 4685.37 4694.56 75.57
15085 58.8954 4601.13 4693.85 74.63
15086 58.8992 4522.31 4693.42 73.20
15087 58.9029 4660.30 4692.71 74.92
15088 58.9067 4597.15 4691.96 74.62
15089 58.9104 4541.49 4691.22 73.98
15090 58.9142 4705.95 4690.44 75.66
15091 58.9179 4513.78 4689.67 72.65
15092 58.9217 4643.10 4687.71 75.51
15093 58.9255 4553.35 4686.88 73.00
15094 58.9292 4619.39 4686.06 74.29
15095 58.9330 4593.40 4685.19 74.36
15096 58.9367 4556.53 4684.33 73.34
15097 58.9405 4597.18 4683.43 74.71
15098 58.9443 4858.50 4682.50 78.77
15099 58.9480 4586.54 4681.58 74.58
15100 58.9518 4684.20 4680.61 74.29
15101 58.9555 4495.96 4679.65 73.21
15102 58.9593 4738.28 4678.64 76.00
15103 58.9631 4656.09 4677.60 75.04
15104 58.9668 4700.96 4676.58 75.91
15105 58.9706 4615.72 4675.50 74.06
15106 58.9743 4793.69 4674.43 76.16
15107 58.9781 4628.72 4673.30 74.72
15108 58.9819 4783.51 4672.16 75.92
15109 58.9856 4643.22 4671.01 75.88
15110 58.9894 4796.65 4669.82 76.22
15111 58.9931 4614.89 4668.64 74.27
15112 58.9969 4790.48 4667.40 75.78
15113 59.0006 4722.22 4666.17 75.25
15114 59.0044 4833.38 4664.88 76.01
15115 59.0082 4646.72 4663.57 75.15
15116 59.0119 4741.20 4662.27 75.51
15117 59.0157 4677.75 4660.91 75.46
15118 59.0194 4938.79 4659.57 77.18
15119 59.0232 4611.56 4658.16 75.29
15120 59.0270 4713.29 4656.74 75.09
15121 59.0307 4750.26 4655.33 76.17
15122 59.0345 4742.90 4653.86 76.27
15123 59.0382 4501.77 4652.41 72.46
15124 59.0420 4766.98 4650.89 76.57
15125 59.0458 4786.34 4649.36 76.93
15126 59.0495 4787.20 4647.84 76.62
15127 59.0533 4808.69 4646.27 76.25
15128 59.0570 4671.37 4644.71 74.80
15129 59.0608 4872.17 4643.10 77.79
15130 59.0646 4828.36 4641.46 76.45
15131 59.0683 4779.90 4639.85 76.93
15132 59.0721 4826.27 4638.18 77.83
15133 59.0758 4722.20 4636.53 76.48
15134 59.0796 4944.67 4634.82 77.68
15135 59.0833 4776.53 4633.14 76.49
15136 59.0871 4817.71 4631.39 76.63
15137 59.0909 4763.01 4629.63 77.04
15138 59.0946 4888.39 4627.90 76.98
15139 59.0984 4665.23 4626.11 75.60
15140 59.1021 4692.72 4624.35 75.91
15141 59.1059 4909.03 4622.53 77.41
15142 59.1097 4777.51 4620.70 77.10
15143 59.1134 4811.49 4618.90 77.19
15144 59.1172 4794.39 4617.03 76.07
15145 59.1209 4764.72 4615.21 77.89
15146 59.1247 4785.79 4613.32 75.72
15147 59.1285 4815.36 4611.42 76.72
15148 59.1322 4956.42 4609.56 76.52
15149 59.1360 4753.93 4607.63 75.36
15150 59.1397 4781.69 4605.75 74.68
15151 59.1435 4764.29 4603.82 78.34
15152 59.1473 4919.50 4601.87 77.19
15153 59.1510 4771.08 4599.96 75.22
15154 59.1548 4842.17 4597.99 75.24
15155 59.1585 4737.22 4596.07 74.23
15156 59.1623 4825.36 4594.09 75.48
15157 59.1660 4811.05 4592.15 75.41
15158 59.1698 4723.21 4590.16 75.85
15159 59.1736 4774.68 4588.16 75.95
15160 59.1773 4877.12 4586.21 76.17
15161 59.1811 4676.07 4584.20 75.37
15162 59.1848 4736.82 4582.24 75.26
15163 59.1886 4775.09 4580.22 76.43
15164 59.1924 4928.36 4578.19 77.63
15165 59.1961 4724.23 4576.22 76.18
15166 59.1999 4926.20 4574.20 77.45
15167 59.2036 4649.28 4572.22 74.08
15168 59.2074 4742.51 4570.19 76.32
15169 59.2112 4778.45 4568.16 76.06
15170 59.2149 4850.24 4566.18 76.35
15171 59.2187 4697.15 4564.15 76.00
15172 59.2224 4905.00 4562.17 76.90
15173 59.2262 4703.47 4560.14 74.51
15174 59.2300 4743.47 4558.11 75.90
15175 59.2337 4719.80 4556.13 74.93
15176 59.2375 4723.37 4554.10 76.15
15177 59.2412 4643.07 4552.12 73.45
15178 59.2450 4775.60 4550.10 76.90
15179 59.2488 4675.54 4548.07 74.77
15180 59.2525 4769.93 4546.11 76.58
15181 59.2563 4736.03 4544.09 76.05
15182 59.2600 4790.83 4542.13 75.98
15183 59.2638 4745.28 4540.12 75.27
15184 59.2676 4716.96 4538.12 75.97
15185 59.2713 4607.25 4536.17 74.03
15186 59.2751 4704.61 4534.18 74.82
15187 59.2788 4644.91 4532.24 74.71
15188 59.2826 4698.77 4530.26 75.35
15189 59.2863 4663.34 4528.33 74.91
15190 59.2901 4741.48 4526.36 75.61
15191 59.2939 4665.55 4524.39 74.98
15192 59.2976 4716.45 4522.49 75.88
15193 59.3014 4640.32 4520.54 75.12
15194 59.3051 4722.62 4518.64 75.68
15195 59.3089 4517.93 4516.70 74.38
15196 59.3127 4587.95 4514.77 73.94
15197 59.3164 4626.46 4512.90 74.79
15198 59.3202 4763.92 4510.99 75.90
15199 59.3239 4615.30 4509.13 74.80
15200 59.3277 4691.78 4507.23 75.25
15201 59.3315 4552.14 4505.35 74.34
15202 59.3352 4681.54 4503.52 74.48
15203 59.3390 4478.42 4501.65 71.86
15204 59.3427 4601.24 4499.83 76.34
15205 59.3465 4497.08 4497.98 75.03
15206 59.3503 4664.57 4496.14 74.24
15207 59.3540 4461.16 4493.69 73.46
15208 59.3578 4701.02 4491.86 76.09
15209 59.3615 4476.91 4490.10 73.14
15210 59.3653 4546.43 4488.30 74.52
15211 59.3691 4469.09 4486.51 73.36
15212 59.3728 4616.69 4484.77 74.00
15213 59.3766 4434.88 4483.00 72.46
15214 59.3803 4584.10 4481.29 74.18
15215 59.3841 4316.63 4479.55 72.20
15216 59.3879 4520.22 4477.81 74.54
15217 59.3916 4436.87 4476.14 72.64
15218 59.3954 4536.32 4474.42 73.88
15219 59.3991 4493.55 4472.77 74.13
15220 59.4029 4521.61 4471.08 73.95
15221 59.4067 4499.58 4469.40 73.20
15222 59.4104 4587.97 4467.78 74.10
15223 59.4142 4368.61 4466.13 71.74
15224 59.4179 4605.79 4464.53 74.31
15225 59.4217 4451.81 4462.90 73.40
15226 59.4254 4467.88 4461.32 74.00
15227 59.4292 4425.03 4459.72 74.44
15228 59.4330 4492.75 4458.13 74.00
15229 59.4367 4444.73 4456.59 72.70
15230 59.4405 4512.16 4455.02 72.06
15231 59.4442 4414.09 4453.52 74.58
15232 59.4480 4463.11 4451.97 73.64
15233 59.4518 4387.99 4450.45 72.42
15234 59.4555 4411.22 4448.97 70.99
15235 59.4593 4357.60 4447.47 72.00
15236 59.4630 4422.79 4446.01 72.68
15237 59.4668 4350.76 4444.54 71.95
15238 59.4706 4447.85 4443.08 73.59
15239 59.4743 4403.92 4441.66 72.83
15240 59.4781 4471.96 4440.22 74.05
15241 59.4818 4305.15 4438.84 72.35
15242 59.4856 4538.57 4437.42 74.60
15243 59.4894 4296.27 4436.03 71.77
15244 59.4931 4491.32 4434.68 73.68
15245 59.4969 4340.40 4433.31 73.44
15246 59.5006 4375.38 4431.98 73.02
15247 59.5044 4253.50 4430.64 72.08
15248 59.5082 4458.64 4429.30 73.59
15249 59.5119 4387.40 4428.02 73.29
15250 59.5157 4396.17 4426.71 72.21
15251 59.5194 4306.35 4425.45 71.59
15252 59.5232 4426.55 4424.17 73.33
15253 59.5270 4296.23 4422.91 72.53
15254 59.5307 4391.83 4421.69 72.57
15255 59.5345 4226.31 4420.45 70.80
15256 59.5382 4356.19 4419.25 71.15
15257 59.5420 4354.91 4418.04 73.61
15258 59.5457 4413.30 4416.87 74.21
15259 59.5495 4308.58 4415.68 71.35
15260 59.5533 4260.06 4414.51 71.10
15261 59.5570 4305.46 4413.37 72.34
15262 59.5608 4488.56 4412.23 73.54
15263 59.5645 4333.67 4411.12 73.12
15264 59.5683 4409.78 4410.00 72.98
15265 59.5721 4411.93 4408.89 72.79
15266 59.5758 4414.49 4407.82 72.65
15267 59.5796 4339.23 4406.74 72.19
15268 59.5833 4421.42 4405.69 73.06
15269 59.5871 4372.62 4404.63 73.49
15270 59.5909 4335.41 4403.59 72.23
15271 59.5946 4342.37 4402.58 73.20
15272 59.5984 4355.69 4401.56 72.78
15273 59.6021 4318.96 4400.58 72.52
15274 59.6059 4366.34 4399.58 73.50
15275 59.6097 4384.22 4398.60 74.04
15276 59.6134 4501.64 4397.66 75.36
15277 59.6172 4386.99 4396.70 72.48
15278 59.6209 4364.97 4395.78 72.95
15279 59.6247 4207.97 4394.84 70.84
15280 59.6285 4511.88 4393.92 73.71
15281 59.6322 4311.43 4393.03 72.30
15282 59.6360 4385.58 4392.14 73.12
15283 59.6397 4302.53 4391.27 70.94
15284 59.6435 4493.53 4390.40 75.44
15285 59.6473 4324.53 4389.54 72.86
15286 59.6510 4330.41 4388.71 71.84
15287 59.6548 4377.94 4387.88 73.01
15288 59.6585 4422.02 4387.07 73.69
15289 59.6623 4260.98 4386.26 72.27
15290 59.6660 4451.36 4385.48 73.76
15291 59.6698 4271.86 4384.68 72.45
15292 59.6736 4305.77 4383.90 72.08
15293 59.6773 4169.27 4383.15 71.24
15294 59.6811 4453.73 4382.40 73.58
15295 59.6848 4283.84 4381.67 72.36
15296 59.6886 4360.10 4380.94 71.13
15297 59.6924 4286.07 4380.21 71.85
15298 59.6961 4260.62 4379.52 71.58
15299 59.6999 4247.03 4378.82 72.37
15300 59.7036 4441.78 4378.14 73.61
15301 59.7074 4179.95 4377.46 71.87
15302 59.7112 4290.02 4376.79 72.54
15303 59.7149 4364.79 4376.15 72.87
15304 59.7187 4258.97 4375.50 71.94
15305 59.7224 4283.79 4374.88 73.46
15306 59.7262 4318.02 4374.25 72.32
15307 59.7300 4246.49 4373.63 72.17
15308 59.7337 4314.15 4373.04 72.40
15309 59.7375 4264.43 4372.44 72.37
15310 59.7412 4241.12 4371.87 70.20
15311 59.7450 4313.12 4371.29 73.61
15312 59.7488 4295.74 4370.73 71.85
15313 59.7525 4325.23 4370.19 72.28
15314 59.7563 4326.08 4369.64 72.76
15315 59.7600 4400.50 4369.12 73.20
15316 59.7638 4268.61 4368.59 72.21
15317 59.7676 4411.13 4368.07 73.02
15318 59.7713 4367.75 4367.57 72.57
15319 59.7751 4307.00 4367.07 72.61
15320 59.7788 4317.33 4366.60 73.30
15321 59.7826 4236.94 4366.12 71.94
15322 59.7864 4293.63 4365.64 72.40
15323 59.7901 4284.38 4365.38 72.51
15324 59.7939 4275.38 4364.93 72.47
15325 59.7976 4199.35 4364.50 71.55
15326 59.8014 4292.68 4364.06 72.57
15327 59.8051 4275.73 4363.65 71.79
15328 59.8089 4185.86 4363.23 71.98
15329 59.8127 4218.68 4362.82 70.86
15330 59.8164 4169.88 4362.43 71.81
15331 59.8202 4132.59 4362.04 70.34
15332 59.8239 4281.28 4361.66 72.97
15333 59.8277 4164.95 4361.29 71.35
15334 59.8315 4277.30 4360.92 72.18
15335 59.8352 4289.80 4360.57 72.64
15336 59.8390 4349.59 4360.22 70.89
15337 59.8427 4144.46 4359.89 71.04
15338 59.8465 4296.09 4359.56 73.69
15339 59.8503 4150.69 4359.23 70.07
15340 59.8540 4408.01 4358.92 72.83
15341 59.8578 4140.71 4358.61 69.95
15342 59.8615 4273.72 4358.32 70.88
15343 59.8653 4201.12 4358.03 71.10
15344 59.8691 4313.70 4357.73 71.99
15345 59.8728 4126.46 4357.46 70.73
15346 59.8766 4290.91 4357.19 71.93
15347 59.8803 4183.92 4356.94 71.76
15348 59.8841 4309.99 4356.68 73.07
15349 59.8879 4200.77 4356.43 71.66
15350 59.8916 4405.22 4356.20 72.77
15351 59.8954 4192.41 4355.96 71.32
15352 59.8991 4306.12 4355.74 72.76
15353 59.9029 4223.22 4355.52 70.88
15354 59.9067 4253.72 4355.31 71.97
15355 59.9104 4184.89 4355.11 70.85
15356 59.9142 4300.23 4354.91 71.32
15357 59.9179 4191.51 4354.73 71.31
15358 59.9217 4192.48 4354.54 70.71
15359 59.9254 4247.23 4354.37 71.50
15360 59.9292 4164.70 4354.20 70.02
15361 59.9330 4215.43 4354.03 71.15
15362 59.9367 4317.66 4353.88 72.53
15363 59.9405 4109.96 4353.73 69.77
15364 59.9442 4380.52 4353.59 75.08
15365 59.9480 4280.44 4353.45 72.82
15366 59.9518 4268.93 4353.32 71.66
15367 59.9555 4169.88 4353.20 70.80
15368 59.9593 4180.79 4353.08 70.91
15369 59.9630 4404.42 4352.97 73.25
15370 59.9668 4300.02 4352.87 71.74
15371 59.9706 4280.30 4352.77 71.57
15372 59.9743 4311.84 4352.68 71.58
15373 59.9781 4232.21 4352.60 71.21
15374 59.9818 4364.69 4352.52 72.70
15375 59.9856 4302.96 4352.44 72.17
15376 59.9894 4285.64 4352.37 71.84
15377 59.9931 4185.97 4352.31 71.63
15378 59.9969 4314.30 4352.26 72.26
15379 60.0006 4161.14 4352.21 70.89
15380 60.0044 4209.01 4352.17 70.21
15381 60.0082 4225.75 4352.10 70.34
15382 60.0119 4317.24 4352.03 72.36
15383 60.0157 4344.16 4351.97 72.64
15384 60.0194 4374.33 4351.92 73.01
15385 60.0232 4289.06 4351.88 73.88
15386 60.0270 4326.54 4351.83 72.87
15387 60.0307 4290.60 4351.80 72.16
15388 60.0345 4417.74 4351.77 73.30
15389 60.0382 4198.60 4351.74 71.97
15390 60.0420 4415.31 4351.72 72.78
15391 60.0457 4421.22 4351.71 76.29
15392 60.0495 4260.67 4351.70 71.69
15393 60.0533 4236.73 4351.70 71.56
15394 60.0570 4386.90 4351.70 72.54
15395 60.0608 4427.17 4351.71 72.00
15396 60.0645 4327.46 4351.72 73.52
15397 60.0683 4329.98 4351.74 72.86
15398 60.0721 4363.39 4351.76 73.74
15399 60.0758 4290.38 4351.79 72.47
15400 60.0796 4413.25 4351.83 73.18
15401 60.0833 4265.60 4351.86 72.79
15402 60.0871 4358.01 4351.91 73.69
15403 60.0909 4371.41 4351.96 73.17
15404 60.0946 4401.22 4352.01 73.60
15405 60.0984 4426.47 4352.07 73.74
15406 60.1021 4397.43 4352.14 72.93
15407 60.1059 4397.25 4352.21 74.56
15408 60.1097 4390.50 4352.29 73.50
15409 60.1134 4296.12 4352.37 72.28
15410 60.1172 4355.78 4352.45 73.36
15411 60.1209 4456.41 4352.54 74.03
15412 60.1247 4423.56 4352.64 73.76
15413 60.1285 4332.65 4352.74 72.41
15414 60.1322 4498.98 4352.84 74.03
15415 60.1360 4301.40 4352.95 72.70
15416 60.1397 4454.54 4353.07 74.23
15417 60.1435 4440.66 4353.19 74.57
15418 60.1472 4567.80 4353.31 76.49
15419 60.1510 4328.41 4353.44 72.05
15420 60.1548 4424.91 4353.57 72.14
15421 60.1585 4410.42 4353.71 73.39
15422 60.1623 4448.00 4353.85 74.09
15423 60.1660 4461.87 4354.00 73.74
15424 60.1698 4436.51 4354.15 73.25
15425 60.1736 4439.03 4354.31 74.51
15426 60.1773 4599.83 4354.47 75.64
15427 60.1811 4356.31 4354.64 73.42
15428 60.1848 4386.62 4354.81 73.48
15429 60.1886 4384.89 4354.99 73.33
15430 60.1924 4463.14 4355.17 74.18
15431 60.1961 4489.25 4355.35 75.22
15432 60.1999 4384.19 4355.54 73.20
15433 60.2036 4500.46 4355.73 73.82
15434 60.2074 4330.93 4355.93 73.05
15435 60.2112 4375.14 4356.13 73.66
15436 60.2149 4512.66 4356.34 75.54
15437 60.2187 4340.72 4356.55 72.37
15438 60.2224 4298.49 4356.76 72.72
15439 60.2262 4455.14 4356.98 75.28
15440 60.2299 4572.62 4357.20 73.48
15441 60.2337 4438.68 4357.43 73.02
15442 60.2375 4532.93 4357.66 74.22
15443 60.2412 4420.43 4357.90 73.02
15444 60.2450 4431.13 4358.14 73.85
15445 60.2487 4334.86 4358.38 73.21
15446 60.2525 4433.59 4358.63 73.96
15447 60.2563 4349.73 4358.89 72.61
15448 60.2600 4351.99 4359.14 73.46
15449 60.2638 4347.09 4359.40 72.28
15450 60.2675 4450.28 4359.66 74.16
15451 60.2713 4332.67 4359.93 73.48
15452 60.2751 4271.80 4360.21 71.99
15453 60.2788 4423.16 4360.49 74.11
15454 60.2826 4382.38 4360.77 73.49
15455 60.2863 4434.96 4361.05 73.80
15456 60.2901 4395.63 4361.34 73.72
15457 60.2938 4275.44 4361.63 71.87
15458 60.2976 4306.53 4361.93 73.71
15459 60.3014 4336.82 4362.24 72.83
15460 60.3051 4339.80 4362.53 73.96
15461 60.3089 4375.58 4362.85 72.56
15462 60.3126 4353.56 4363.15 72.72
15463 60.3164 4316.54 4363.47 72.39
15464 60.3202 4372.46 4363.80 74.01
15465 60.3239 4252.64 4364.12 71.44
15466 60.3277 4480.03 4364.45 74.98
15467 60.3314 4293.26 4364.77 72.87
15468 60.3352 4469.49 4365.11 74.87
15469 60.3390 4405.59 4365.45 73.52
15470 60.3427 4265.82 4365.79 69.47
15471 60.3465 4333.79 4366.14 74.32
15472 60.3502 4347.77 4366.48 72.28
15473 60.3540 4220.05 4366.84 71.62
15474 60.3577 4383.84 4367.19 71.71
15475 60.3615 4315.96 4367.55 72.23
15476 60.3653 4305.02 4367.92 72.33
15477 60.3690 4214.25 4368.28 72.37
15478 60.3728 4287.30 4368.66 72.06
15479 60.3765 4212.20 4369.03 71.68
15480 60.3803 4291.23 4369.41 72.61
15481 60.3841 4234.94 4369.79 71.66
15482 60.3878 4291.83 4370.17 72.20
15483 60.3916 4206.02 4370.56 71.85
15484 60.3953 4350.67 4370.95 74.04
15485 60.3991 4212.50 4371.35 71.83
15486 60.4029 4270.71 4371.75 72.51
15487 60.4066 4115.98 4372.15 71.29
15488 60.4104 4353.25 4372.56 72.09
15489 60.4141 4202.51 4372.95 71.08
15490 60.4179 4313.92 4373.37 72.47
15491 60.4216 4078.56 4373.78 70.07
15492 60.4254 4292.41 4374.20 72.51
15493 60.4292 4253.13 4374.63 72.34
15494 60.4329 4290.45 4375.05 71.71
15495 60.4367 4120.87 4375.48 70.64
15496 60.4404 4253.06 4375.91 71.89
15497 60.4442 4226.28 4376.35 71.75
15498 60.4480 4426.12 4376.83 73.61
15499 60.4517 4164.31 4377.27 71.76
15500 60.4555 4327.57 4377.72 73.05
15501 60.4592 4194.15 4378.16 72.14
15502 60.4630 4264.84 4378.62 71.73
15503 60.4668 4121.06 4379.08 71.38
15504 60.4705 4235.43 4379.53 72.28
15505 60.4743 4253.73 4380.00 72.82
15506 60.4780 4227.16 4380.46 71.93
15507 60.4818 4143.35 4380.94 72.10
15508 60.4855 4408.07 4381.40 74.45
15509 60.4893 4133.75 4381.89 70.36
15510 60.4931 4398.29 4382.38 74.33
15511 60.4968 4094.94 4382.85 70.46
15512 60.5006 4224.46 4383.35 72.85
15513 60.5043 4191.80 4383.84 71.96
15514 60.5081 4147.57 4384.34 70.93
15515 60.5119 4293.27 4384.85 70.56
15516 60.5156 4229.76 4385.35 72.17
15517 60.5194 4166.85 4385.87 71.32
15518 60.5231 4242.78 4386.37 72.45
15519 60.5269 4101.73 4386.90 69.42
15520 60.5306 4361.76 4387.42 74.01
15521 60.5344 4243.08 4387.95 71.94
15522 60.5382 4356.14 4388.49 72.86
15523 60.5419 4238.35 4389.02 69.95
15524 60.5457 4275.34 4389.57 74.54
15525 60.5494 4137.78 4390.11 71.60
15526 60.5532 4310.22 4390.67 71.60
15527 60.5570 4212.97 4391.24 71.18
15528 60.5607 4370.89 4391.80 72.60
15529 60.5645 4229.11 4392.38 72.56
15530 60.5682 4254.71 4392.94 71.64
15531 60.5720 4255.79 4393.53 71.40
15532 60.5757 4370.84 4394.11 72.69
15533 60.5795 4130.41 4394.72 70.74
15534 60.5833 4357.87 4395.33 72.84
15535 60.5870 4369.39 4395.93 72.65
15536 60.5908 4248.63 4396.55 70.23
15537 60.5945 4278.16 4397.17 72.14
15538 60.5983 4290.97 4397.81 72.06
15539 60.6021 4274.18 4398.45 71.44
15540 60.6058 4236.65 4399.10 71.17
15541 60.6096 4239.74 4399.76 70.35
15542 60.6133 4327.69 4400.41 71.72
15543 60.6171 4200.68 4401.09 71.07
15544 60.6208 4354.77 4401.76 73.35
15545 60.6246 4376.74 4402.46 72.31
15546 60.6284 4281.32 4403.17 70.11
15547 60.6321 4189.90 4403.87 71.41
15548 60.6359 4446.32 4404.60 72.88
15549 60.6396 4290.99 4405.31 71.72
15550 60.6434 4322.59 4406.06 70.82
15551 60.6472 4283.05 4406.82 73.95
15552 60.6509 4317.31 4407.57 72.75
15553 60.6547 4271.74 4408.35 71.45
15554 60.6584 4405.17 4409.12 72.94
15555 60.6622 4300.49 4409.93 71.98
15556 60.6659 4341.98 4410.72 72.26
15557 60.6697 4232.26 4411.56 70.97
15558 60.6735 4319.19 4412.40 72.07
15559 60.6772 4277.80 4413.23 71.86
15560 60.6810 4203.33 4414.10 70.70
15561 60.6847 4310.88 4414.96 72.24
15562 60.6885 4447.07 4415.87 74.44
15563 60.6923 4235.82 4416.78 71.06
15564 60.6960 4395.67 4417.68 73.09
15565 60.6998 4197.81 4418.62 71.05
15566 60.7035 4290.84 4419.56 71.99
15567 60.7073 4442.51 4420.53 73.63
15568 60.7110 4424.41 4421.50 72.73
15569 60.7148 4276.78 4422.51 72.07
15570 60.7186 4378.93 4423.53 72.51
15571 60.7223 4345.83 4424.54 72.19
15572 60.7261 4472.53 4425.61 73.86
15573 60.7298 4301.37 4426.65 72.11
15574 60.7336 4304.68 4427.75 72.37
15575 60.7373 4351.23 4428.83 71.89
15576 60.7411 4318.86 4429.97 70.78
15577 60.7449 4287.66 4431.12 72.88
15578 60.7486 4392.83 4432.26 74.06
15579 60.7524 4320.54 4433.46 72.19
15580 60.7561 4385.67 4434.64 72.64
15581 60.7599 4275.37 4435.87 71.72
15582 60.7637 4402.02 4437.13 73.06
15583 60.7674 4385.03 4438.38 72.98
15584 60.7712 4380.13 4439.68 72.36
15585 60.7749 4354.56 4440.97 72.88
15586 60.7787 4437.46 4442.31 72.07
15587 60.7824 4346.78 4443.64 72.23
15588 60.7862 4431.32 4445.03 73.16
15589 60.7900 4330.59 4446.45 71.90
15590 60.7937 4356.82 4447.85 72.57
15591 60.7975 4339.98 4449.31 71.26
15592 60.8012 4461.29 4450.76 73.19
15593 60.8050 4411.30 4452.28 73.11
15594 60.8087 4500.50 4453.77 72.57
15595 60.8125 4321.60 4455.34 70.12
15596 60.8163 4443.64 4456.93 72.93
15597 60.8200 4391.11 4458.50 73.57
15598 60.8238 4436.46 4460.15 73.91
15599 60.8275 4337.17 4461.77 72.76
15600 60.8313 4614.49 4463.48 74.27
15601 60.8351 4379.87 4465.20 72.60
15602 60.8388 4386.95 4466.91 72.42
15603 60.8426 4287.87 4468.70 70.46
15604 60.8463 4409.78 4470.46 73.89
15605 60.8501 4433.32 4472.30 73.43
15606 60.8538 4497.10 4474.12 73.67
15607 60.8576 4398.30 4476.02 71.86
15608 60.8614 4567.96 4477.95 73.67
15609 60.8651 4473.49 4479.87 73.16
15610 60.8689 4525.96 4481.86 74.31
15611 60.8726 4434.97 4483.83 73.10
15612 60.8764 4525.80 4485.88 73.56
15613 60.8801 4492.85 4487.91 73.92
15614 60.8839 4654.07 4490.02 75.23
15615 60.8877 4545.09 4492.17 73.96
15616 60.8914 4498.04 4494.30 74.85
15617 60.8952 4398.81 4496.51 73.05
15618 60.8989 4716.68 4498.70 76.04
15619 60.9027 4478.53 4500.98 73.59
15620 60.9064 4636.93 4503.23 74.43
15621 60.9102 4486.65 4505.58 72.75
15622 60.9140 4670.51 4507.96 73.85
15623 60.9177 4532.91 4510.31 73.81
15624 60.9215 4592.79 4512.76 74.53
15625 60.9252 4657.78 4515.18 75.85
15626 60.9290 4629.84 4517.70 75.43
15627 60.9328 4673.51 4520.25 75.30
15628 60.9365 4744.01 4522.77 76.04
15629 60.9403 4675.13 4525.39 75.00
15630 60.9440 4647.71 4527.98 74.37
15631 60.9478 4664.67 4530.68 75.37
15632 60.9515 4815.75 4533.34 76.85
15633 60.9553 4761.92 4536.10 75.17
15634 60.9591 4693.39 4538.91 74.90
15635 60.9628 4763.81 4541.67 76.65
15636 60.9666 4886.13 4544.55 77.30
15637 60.9703 4760.07 4547.39 77.11
15638 60.9741 4824.45 4550.34 76.89
15639 60.9778 4751.91 4553.25 76.29
15640 60.9816 4810.33 4556.27 76.31
15641 60.9854 4776.68 4559.34 77.04
15642 60.9891 5027.56 4562.35 79.19
15643 60.9929 4834.33 4565.49 76.59
15644 60.9966 5032.95 4568.58 78.21
15645 61.0004 4979.10 4571.80 77.89
15646 61.0041 4964.47 4574.96 78.97
15647 61.0079 4969.35 4578.25 77.77
15648 61.0117 5045.41 4581.57 78.53
15649 61.0154 5004.79 4584.85 78.51
15650 61.0192 5014.87 4588.24 78.62
15651 61.0229 5002.98 4591.59 77.82
15652 61.0267 5157.95 4595.07 80.20
15653 61.0304 5017.60 4598.49 78.26
15654 61.0342 5153.18 4602.04 79.33
15655 61.0380 5287.24 4605.64 81.09
15656 61.0417 5151.75 4609.17 78.73
15657 61.0455 5103.67 4612.84 80.81
15658 61.0492 5143.87 4616.45 79.25
15659 61.0530 5311.84 4620.19 80.40
15660 61.0567 5246.73 4623.87 78.61
15661 61.0605 5159.03 4627.68 79.37
15662 61.0643 5380.49 4630.42 80.70
15663 61.0680 5256.16 4634.21 81.23
15664 61.0718 5475.55 4638.14 82.85
15665 61.0755 5363.86 4642.01 79.82
15666 61.0793 5436.72 4646.01 81.41
15667 61.0830 5292.99 4649.95 78.37
15668 61.0868 5648.27 4654.03 83.36
15669 61.0906 5452.63 4658.14 82.01
15670 61.0943 5486.33 4662.19 81.68
15671 61.0981 5419.45 4666.37 81.77
15672 61.1018 5355.38 4670.49 80.73
15673 61.1056 5389.21 4674.76 81.38
15674 61.1093 5763.99 4678.94 84.50
15675 61.1131 5437.63 4683.27 80.95
15676 61.1169 5496.28 4687.64 82.44
15677 61.1206 5438.29 4691.93 80.32
15678 61.1244 5559.53 4696.37 83.40
15679 61.1281 5468.44 4700.72 81.72
15680 61.1319 5609.38 4705.22 83.02
15681 61.1356 5429.83 4709.65 82.59
15682 61.1394 5497.73 4714.21 81.94
15683 61.1431 5440.80 4718.70 80.30
15684 61.1469 5576.04 4723.34 85.31
15685 61.1507 5512.48 4728.02 82.56
15686 61.1544 5680.77 4732.59 83.33
15687 61.1582 5409.73 4737.33 80.82
15688 61.1619 5587.44 4741.96 84.02
15689 61.1657 5387.76 4746.77 81.48
15690 61.1694 5557.65 4751.46 82.28
15691 61.1732 5487.70 4756.32 82.11
15692 61.1770 5602.04 4761.21 83.04
15693 61.1807 5700.06 4765.99 85.55
15694 61.1845 5713.19 4770.93 83.67
15695 61.1882 5501.57 4775.76 82.98
15696 61.1920 5656.44 4780.76 83.77
15697 61.1957 5334.54 4785.64 80.38
15698 61.1995 5484.59 4790.70 82.16
15699 61.2033 5451.13 4795.77 81.97
15700 61.2070 5495.99 4800.73 82.11
15701 61.2108 5513.03 4805.84 82.24
15702 61.2145 5493.23 4810.85 81.93
15703 61.2183 5366.50 4816.01 81.46
15704 61.2220 5598.67 4821.06 81.73
15705 61.2258 5475.53 4826.26 82.69
15706 61.2295 5552.12 4831.36 83.19
15707 61.2333 5473.57 4836.60 82.73
15708 61.2371 5525.85 4841.85 82.80
15709 61.2408 5395.33 4847.00 79.98
15710 61.2446 5444.47 4852.30 81.22
15711 61.2483 5471.11 4857.47 83.70
15712 61.2521 5382.91 4862.80 81.32
15713 61.2558 5336.88 4868.00 81.54
15714 61.2596 5441.65 4873.35 82.15
15715 61.2634 5256.65 4878.71 79.57
15716 61.2671 5280.50 4883.94 80.25
15717 61.2709 5216.46 4889.32 80.14
15718 61.2746 5304.12 4894.58 80.95
15719 61.2784 5346.25 4899.97 81.20
15720 61.2821 5407.69 4905.24 82.27
15721 61.2859 5232.22 4910.65 80.50
15722 61.2896 5394.58 4915.92 80.68
15723 61.2934 5096.45 4921.34 79.82
15724 61.2972 5221.50 4926.76 80.63
15725 61.3009 5165.70 4932.03 79.68
15726 61.3047 5236.16 4937.46 80.91
15727 61.3084 5124.29 4942.73 79.20
15728 61.3122 5253.74 4948.15 80.21
15729 61.3159 5270.90 4953.41 80.01
15730 61.3197 5189.29 4958.82 80.11
15731 61.3235 5157.46 4964.21 79.63
15732 61.3272 5168.79 4969.46 80.00
15733 61.3310 5151.63 4974.83 80.10
15734 61.3347 5261.08 4980.06 80.36
15735 61.3385 5140.91 4985.41 79.61
15736 61.3422 5156.10 4990.61 77.66
15737 61.3460 5043.88 4995.93 80.17
15738 61.3497 5286.32 5001.10 81.25
15739 61.3535 5051.88 5006.39 78.41
15740 61.3573 5166.46 5011.65 79.82
15741 61.3610 5182.95 5016.77 78.80
15742 61.3648 5167.19 5021.98 79.81
15743 61.3685 5016.65 5027.05 78.33
15744 61.3723 5063.39 5032.21 78.59
15745 61.3760 4980.59 5037.22 77.55
15746 61.3798 5073.76 5042.33 79.17
15747 61.3836 5048.37 5047.41 78.29
15748 61.3873 4975.42 5052.33 77.35
15749 61.3911 5073.70 5057.35 78.27
15750 61.3948 5224.11 5062.19 80.66
15751 61.3986 5063.22 5067.13 79.35
15752 61.4023 5173.59 5071.90 78.86
15753 61.4061 5103.75 5076.77 77.95
15754 61.4098 5205.81 5081.45 80.05
15755 61.4136 4961.14 5086.23 77.88
15756 61.4174 5209.84 5090.96 79.13
15757 61.4211 5008.96 5095.52 78.28
15758 61.4249 5112.60 5100.15 79.14
15759 61.4286 5041.54 5104.62 78.86
15760 61.4324 5200.69 5109.15 79.80
15761 61.4361 4997.52 5113.51 77.91
15762 61.4399 5104.75 5117.93 78.99
15763 61.4436 5044.43 5122.18 76.41
15764 61.4474 5198.18 5126.49 81.36
15765 61.4512 5055.12 5130.75 78.88
15766 61.4549 5150.50 5134.82 78.87
15767 61.4587 5053.94 5138.95 77.89
15768 61.4624 5177.87 5142.91 79.63
15769 61.4662 5021.84 5146.90 78.22
15770 61.4699 4963.45 5150.73 78.16
15771 61.4737 5140.90 5154.59 79.48
15772 61.4774 5069.26 5158.29 79.08
15773 61.4812 5090.39 5162.01 79.48
15774 61.4850 5199.77 5165.67 80.26
15775 61.4887 5107.52 5169.15 79.48
15776 61.4925 5245.45 5172.66 80.57
15777 61.4962 5058.18 5176.00 78.83
15778 61.5000 5225.76 5179.35 80.39
15779 61.5037 5261.82 5182.55 81.23
15780 61.5075 5169.96 5185.75 79.28
15781 61.5112 5092.54 5188.79 79.48
15782 61.5150 5185.58 5191.83 79.61
15783 61.5188 5071.88 5194.79 78.73
15784 61.5225 5350.25 5197.59 80.79
15785 61.5263 5194.69 5200.39 80.57
15786 61.5300 5310.88 5203.03 81.89
15787 61.5338 5304.15 5205.66 81.01
15788 61.5375 5323.53 5208.14 81.41
15789 61.5413 5249.22 5210.62 79.29
15790 61.5450 5213.48 5212.93 80.53
15791 61.5488 5272.10 5215.22 81.31
15792 61.5525 5258.52 5217.36 79.64
15793 61.5563 5256.10 5219.47 79.08
15794 61.5601 5266.78 5221.50 79.46
15795 61.5638 5171.22 5223.38 79.63
15796 61.5676 5277.25 5225.24 80.30
15797 61.5713 5274.09 5226.95 80.63
15798 61.5751 5308.74 5228.63 78.91
15799 61.5788 5375.84 5230.17 81.22
15800 61.5826 5358.58 5231.66 81.45
15801 61.5863 5077.56 5233.03 79.83
15802 61.5901 5241.13 5234.35 79.96
15803 61.5939 5450.94 5235.57 82.69
15804 61.5976 5330.97 5236.68 79.90
15805 61.6014 5341.58 5237.73 80.12
15806 61.6051 5180.07 5238.66 80.18
15807 61.6089 5256.45 5239.53 80.84
15808 61.6126 5371.78 5240.29 81.35
15809 61.6164 5144.71 5240.98 80.28
15810 61.6201 5385.44 5241.57 81.22
15811 61.6239 5236.94 5242.09 80.09
15812 61.6276 5382.71 5242.50 81.85
15813 61.6314 5267.65 5242.84 81.86
15814 61.6352 5242.15 5243.09 80.82
15815 61.6389 5182.39 5243.25 79.52
15816 61.6427 5127.73 5243.33 78.15
15817 61.6464 5275.65 5243.32 81.64
15818 61.6502 5264.49 5243.23 79.88
15819 61.6539 5079.07 5243.05 79.17
15820 61.6577 5196.42 5242.78 77.95
15821 61.6614 5183.02 5242.44 80.04
15822 61.6652 5125.35 5242.00 79.02
15823 61.6689 5085.94 5241.50 79.04
15824 61.6727 5229.17 5240.89 80.30
15825 61.6765 5021.74 5240.20 79.52
15826 61.6802 5191.97 5239.45 80.18
15827 61.6840 5135.86 5238.60 79.32
15828 61.6877 5139.91 5237.69 79.59
15829 61.6915 5183.02 5236.67 79.46
15830 61.6952 5128.29 5235.60 80.31
15831 61.6990 4984.72 5234.42 78.19
15832 61.7027 5143.83 5233.20 80.53
15833 61.7065 4972.89 5231.86 77.63
15834 61.7102 5163.99 5230.48 80.80
15835 61.7140 5105.56 5228.98 78.60
15836 61.7178 5005.69 5227.41 78.13
15837 61.7215 5091.79 5225.80 78.36
15838 61.7253 5173.79 5224.07 80.51
15839 61.7290 5118.84 5222.31 79.58
15840 61.7328 5126.81 5220.42 79.93
15841 61.7365 5076.00 5218.52 79.72
15842 61.7403 5070.96 5216.48 78.97
15843 61.7440 4989.49 5214.43 76.91
15844 61.7478 5098.88 5212.25 80.85
15845 61.7515 4982.88 5210.05 78.69
15846 61.7553 5046.47 5207.72 79.41
15847 61.7591 5016.08 5205.31 78.53
15848 61.7628 5038.27 5202.90 78.38
15849 61.7666 4972.08 5200.35 77.96
15850 61.7703 4898.99 5197.80 77.85
15851 61.7741 4936.73 5195.11 78.73
15852 61.7778 4936.84 5192.42 77.84
15853 61.7816 5024.56 5189.59 78.07
15854 61.7853 4972.55 5186.76 79.22
15855 61.7891 4908.41 5183.80 78.36
15856 61.7928 5105.41 5180.84 79.31
15857 61.7966 5049.64 5177.73 78.98
15858 61.8003 5021.82 5174.64 78.52
15859 61.8041 4885.88 5171.40 78.15
15860 61.8079 4823.92 5168.09 76.49
15861 61.8116 4995.26 5164.81 78.21
15862 61.8154 4940.38 5161.37 77.14
15863 61.8191 4979.91 5157.97 77.93
15864 61.8229 4892.61 5154.40 78.19
15865 61.8266 4981.22 5150.87 79.00
15866 61.8304 4977.53 5147.18 77.91
15867 61.8341 4990.83 5143.53 79.45
15868 61.8379 4916.35 5139.71 77.57
15869 61.8416 4818.37 5135.94 76.15
15870 61.8454 4937.76 5132.01 77.35
15871 61.8491 4808.97 5128.12 77.48
15872 61.8529 4946.83 5124.07 78.43
15873 61.8567 4819.23 5119.96 76.18
15874 61.8604 4872.74 5115.91 75.74
15875 61.8642 4938.29 5111.69 77.70
15876 61.8679 4994.55 5107.53 78.09
15877 61.8717 4887.96 5103.20 77.24
15878 61.8754 4913.34 5098.94 77.34
15879 61.8792 4968.90 5094.50 78.49
15880 61.8829 5012.68 5090.14 79.08
15881 61.8867 4857.85 5085.60 77.88
15882 61.8904 5106.91 5081.14 79.10
15883 61.8942 4880.12 5076.50 77.73
15884 61.8979 4938.17 5071.95 77.52
15885 61.9017 4869.15 5067.22 77.83
15886 61.9054 4925.01 5062.58 77.84
15887 61.9092 4908.72 5057.77 77.64
15888 61.9130 4929.56 5052.91 77.74
15889 61.9167 4815.30 5048.14 78.03
15890 61.9205 4822.18 5043.18 77.20
15891 61.9242 4811.89 5038.34 77.78
15892 61.9280 4906.74 5033.31 78.76
15893 61.9317 4887.60 5028.40 77.55
15894 61.9355 4924.78 5023.30 77.55
15895 61.9392 4864.38 5018.31 77.01
15896 61.9430 4773.89 5013.14 75.19
15897 61.9467 4790.67 5008.08 77.59
15898 61.9505 4843.40 5002.85 77.64
15899 61.9542 4815.89 4997.73 77.29
15900 61.9580 4791.05 4992.44 75.76
15901 61.9617 4813.67 4987.27 77.21
15902 61.9655 4733.05 4981.92 76.22
15903 61.9693 4797.44 4976.55 75.74
15904 61.9730 4920.65 4971.30 78.35
15905 61.9768 4793.04 4965.89 77.11
15906 61.9805 4847.39 4960.59 76.09
15907 61.9843 4807.74 4955.13 77.15
15908 61.9880 4743.99 4949.79 75.42
15909 61.9903 4957.80 4946.47 78.79
15910 61.9940 4834.52 4941.10 76.58
15911 61.9978 4745.79 4935.57 76.63
15912 62.0016 4820.57 4930.04 76.65
15913 62.0053 4705.58 4924.62 75.71
15914 62.0091 4819.13 4919.06 76.44
15915 62.0128 4818.03 4913.62 77.47
15916 62.0166 4864.04 4908.04 78.19
15917 62.0203 4738.47 4902.58 76.30
15918 62.0241 5054.87 4896.98 79.29
15919 62.0278 4913.29 4891.51 76.62
15920 62.0316 4763.16 4885.89 76.80
15921 62.0354 4850.34 4880.26 77.83
15922 62.0391 4809.61 4874.78 75.99
15923 62.0429 4721.89 4869.14 74.72
15924 62.0466 4752.80 4863.66 75.26
15925 62.0504 4805.77 4858.02 76.66
15926 62.0541 4865.96 4852.55 76.96
15927 62.0579 4735.04 4846.91 76.16
15928 62.0616 4768.07 4841.42 74.55
15929 62.0654 4830.07 4835.80 76.74
15930 62.0691 4894.52 4830.33 77.66
15931 62.0729 4697.68 4824.72 76.66
15932 62.0767 4783.54 4819.10 76.21
15933 62.0804 4730.42 4813.65 76.65
15934 62.0842 4758.40 4808.06 75.23
15935 62.0879 4681.50 4802.63 74.68
15936 62.0917 4753.61 4797.05 76.65
15937 62.0954 4795.90 4791.65 77.04
15938 62.0992 4770.85 4786.09 76.37
15939 62.1029 4725.70 4780.71 76.79
15940 62.1067 4724.87 4775.18 75.74
15941 62.1105 4721.71 4769.68 75.83
15942 62.1142 4692.99 4764.33 76.07
15943 62.1180 4684.58 4758.86 76.92
15944 62.1217 4693.43 4753.55 76.22
15945 62.1255 4714.03 4748.11 75.65
15946 62.1292 4661.64 4742.83 74.32
15947 62.1330 4625.31 4737.43 76.11
15948 62.1367 4755.43 4732.19 75.70
15949 62.1405 4694.96 4726.83 75.99
15950 62.1442 4749.77 4721.63 74.35
15951 62.1480 4618.90 4716.31 75.29
15952 62.1518 4624.21 4711.01 74.84
15953 62.1555 4505.92 4705.87 74.12
15954 62.1593 4579.12 4700.62 74.82
15955 62.1630 4645.93 4695.53 76.36
15956 62.1668 4723.50 4690.34 76.28
15957 62.1705 4495.55 4685.29 73.89
15958 62.1743 4741.10 4680.15 76.30
15959 62.1780 4628.40 4675.15 74.83
15960 62.1818 4575.50 4670.06 75.60
15961 62.1855 4513.92 4665.30 74.21
15962 62.1893 4526.31 4660.26 75.23
15963 62.1930 4601.66 4655.38 74.56
15964 62.1968 4607.71 4650.39 76.06
15965 62.2006 4493.50 4645.44 73.44
15966 62.2043 4736.75 4640.64 75.96
15967 62.2081 4648.40 4635.74 74.70
15968 62.2118 4664.56 4631.00 76.22
15969 62.2156 4617.55 4626.17 75.36
15970 62.2191 4614.86 4621.73 75.26
15971 62.2229 4482.15 4616.95 74.74
15972 62.2266 4520.04 4612.33 76.21
15973 62.2304 4615.19 4607.62 75.14
15974 62.2341 4560.52 4603.05 75.80
15975 62.2379 4586.52 4598.40 75.92
15976 62.2416 4526.55 4593.90 74.48
15977 62.2454 4463.25 4589.31 75.27
15978 62.2491 4552.04 4584.88 76.52
15979 62.2529 4411.85 4580.36 73.93
15980 62.2566 4552.33 4575.98 75.87
15981 62.2604 4459.19 4571.53 75.43
15982 62.2641 4532.63 4567.22 73.00
15983 62.2679 4536.87 4562.82 75.00
15984 62.2716 4521.30 4558.58 75.47
15985 62.2754 4537.32 4554.26 74.99
15986 62.2792 4397.00 4549.97 73.11
15987 62.2829 4495.24 4545.82 73.96
15988 62.2867 4586.49 4541.61 75.29
15989 62.2904 4471.52 4537.52 74.77
15990 62.2942 4459.55 4533.38 75.32
15991 62.2979 4441.95 4529.36 74.22
15992 62.3017 4431.98 4525.28 75.08
15993 62.3054 4454.92 4521.34 75.05
15994 62.3092 4418.95 4517.32 74.10
15995 62.3129 4462.16 4513.44 75.21
15996 62.3167 4223.98 4509.50 72.62
15997 62.3204 4390.35 4505.69 73.47
15998 62.3242 4458.38 4501.81 73.75
15999 62.3279 4399.94 4497.63 73.34
16000 62.3317 4381.83 4493.82 74.54
16001 62.3354 4389.14 4490.14 74.96
16002 62.3392 4319.85 4486.40 72.63
16003 62.3430 4373.24 4482.69 72.77
16004 62.3467 4403.45 4479.12 75.96
16005 62.3505 4475.12 4475.48 74.68
16006 62.3542 4313.04 4471.98 73.43
16007 62.3580 4467.50 4468.41 74.22
16008 62.3617 4291.64 4464.96 72.28
16009 62.3655 4298.99 4461.46 73.06
16010 62.3692 4306.07 4458.09 73.25
16011 62.3730 4452.02 4454.66 73.91
16012 62.3767 4215.94 4451.34 71.73
16013 62.3805 4387.13 4447.98 73.87
16014 62.3842 4196.98 4444.74 71.93
16015 62.3880 4353.07 4441.44 73.30
16016 62.3917 4344.64 4438.26 72.85
16017 62.3955 4376.52 4435.02 73.51
16018 62.3993 4154.64 4431.82 71.43
16019 62.4030 4390.02 4428.74 73.94
16020 62.4068 4375.90 4425.61 73.91
16021 62.4105 4357.95 4422.59 72.33
16022 62.4143 4363.16 4419.52 73.40
16023 62.4180 4359.05 4416.56 73.64
16024 62.4218 4129.85 4413.56 71.13
16025 62.4255 4226.22 4410.67 72.30
16026 62.4293 4268.38 4407.73 72.24
16027 62.4330 4389.57 4404.90 74.68
16028 62.4368 4287.09 4402.02 72.10
16029 62.4405 4313.56 4399.25 72.95
16030 62.4443 4283.54 4396.44 71.87
16031 62.4481 4501.11 4393.65 75.27
16032 62.4518 4335.75 4390.97 72.62
16033 62.4556 4154.58 4388.25 71.32
16034 62.4593 4278.95 4385.63 71.45
16035 62.4631 4308.04 4382.97 72.64
16036 62.4668 4232.52 4380.41 71.76
16037 62.4706 4329.57 4377.81 71.87
16038 62.4743 4244.34 4375.30 72.29
16039 62.4781 4383.25 4372.76 74.17
16040 62.4818 4219.11 4370.32 71.37
16041 62.4856 4338.02 4367.84 73.39
16042 62.4893 4126.95 4365.45 70.87
16043 62.4931 4146.44 4363.02 71.43
16044 62.4969 4206.47 4360.62 72.33
16045 62.5006 4315.36 4358.32 72.80
16046 62.5044 4254.04 4355.98 73.44
16047 62.5081 4238.93 4353.73 71.94
16048 62.5119 4275.30 4351.44 73.00
16049 62.5156 4264.44 4349.24 72.87
16050 62.5194 4245.14 4347.01 73.12
16051 62.5231 4236.44 4344.86 71.85
16052 62.5269 4146.96 4342.68 72.12
16053 62.5306 4273.43 4340.59 72.98
16054 62.5344 4207.50 4338.46 71.69
16055 62.5382 4095.31 4336.37 70.19
16056 62.5419 4243.73 4334.35 71.58
16057 62.5457 4198.03 4332.30 72.21
16058 62.5494 4282.29 4330.33 73.90
16059 62.5532 4261.34 4328.34 72.12
16060 62.5569 4237.44 4326.41 71.60
16061 62.5607 4230.62 4324.47 72.17
16062 62.5644 4045.45 4322.59 70.08
16063 62.5682 4142.63 4320.70 71.16
16064 62.5719 4127.42 4318.87 71.22
16065 62.5757 4214.03 4317.02 71.53
16066 62.5794 4221.55 4315.24 72.43
16067 62.5832 4260.45 4313.43 71.48
16068 62.5870 4164.24 4311.65 71.75
16069 62.5907 4209.62 4309.94 71.95
16070 62.5945 4191.00 4308.20 72.44
16071 62.5982 4124.00 4306.53 69.89
16072 62.6020 4268.27 4304.83 71.80
16073 62.6057 4203.25 4303.21 71.84
16074 62.6095 4273.53 4301.56 72.46
16075 62.6132 4168.26 4299.97 71.91
16076 62.6170 4124.96 4298.37 71.16
16077 62.6207 4125.65 4296.82 69.87
16078 62.6245 4151.86 4295.26 70.81
16079 62.6283 4198.72 4293.71 71.08
16080 62.6320 4131.06 4292.23 71.01
16081 62.6358 4232.24 4290.73 71.74
16082 62.6395 4135.55 4289.28 69.92
16083 62.6433 4199.19 4287.82 70.58
16084 62.6470 4024.60 4286.41 70.06
16085 62.6508 4130.42 4284.99 71.66
16086 62.6545 4126.16 4283.61 70.90
16087 62.6583 4188.10 4282.22 70.35
16088 62.6620 4159.80 4280.89 71.16
16089 62.6658 4189.23 4279.54 70.77
16090 62.6696 4062.68 4278.20 70.13
16091 62.6733 4022.46 4276.92 70.80
16092 62.6771 4029.80 4275.62 70.51
16093 62.6808 4156.01 4274.38 71.70
16094 62.6846 4166.16 4273.11 72.00
16095 62.6883 4202.73 4271.90 71.92
16096 62.6921 4049.51 4270.67 70.15
16097 62.6958 4141.68 4269.49 71.10
16098 62.6996 4250.06 4268.29 72.26
16099 62.7033 4194.81 4267.14 72.07
16100 62.7071 4173.43 4265.97 71.71
16101 62.7109 4126.43 4264.82 70.65
16102 62.7146 4215.08 4263.72 72.11
16103 62.7184 4227.86 4262.60 72.97
16104 62.7221 4189.31 4261.52 71.11
16105 62.7259 4129.21 4260.44 71.09
16106 62.7296 4124.19 4259.39 71.00
16107 62.7334 4195.76 4258.33 72.39
16108 62.7371 4118.35 4257.31 70.33
16109 62.7409 4192.43 4256.28 71.37
16110 62.7447 4051.63 4255.26 69.35
16111 62.7484 4285.80 4254.28 73.53
16112 62.7522 4168.44 4253.29 70.68
16113 62.7559 4242.28 4252.36 72.35
16114 62.7597 4103.51 4251.43 70.99
16115 62.7634 4191.64 4250.53 71.61
16116 62.7672 4107.29 4249.61 70.42
16117 62.7709 4103.67 4248.74 71.18
16118 62.7747 4147.79 4247.85 71.20
16119 62.7785 4169.46 4246.98 71.12
16120 62.7822 4202.17 4246.14 71.98
16121 62.7860 4141.43 4245.29 71.75
16122 62.7897 4158.81 4244.47 72.29
16123 62.7935 4047.62 4243.64 70.74
16124 62.7972 4107.97 4242.85 71.57
16125 62.8010 4017.96 4242.05 70.96
16126 62.8047 4163.44 4241.28 71.60
16127 62.8085 4109.40 4240.50 70.90
16128 62.8122 4070.60 4239.75 70.76
16129 62.8160 4236.86 4238.99 72.73
16130 62.8198 4097.51 4238.24 70.95
16131 62.8235 4250.83 4237.53 71.96
16132 62.8273 4044.11 4236.80 70.77
16133 62.8310 4140.36 4236.11 71.43
16134 62.8348 3996.24 4235.40 70.33
16135 62.8385 4229.56 4234.72 71.92
16136 62.8423 4036.16 4234.04 70.36
16137 62.8460 4169.90 4233.38 70.98
16138 62.8498 4138.25 4232.71 72.27
16139 62.8536 4236.48 4232.06 70.91
16140 62.8573 4177.08 4231.43 70.71
16141 62.8611 4161.88 4230.79 71.70
16142 62.8648 4114.15 4230.18 70.92
16143 62.8686 4222.71 4229.56 72.46
16144 62.8723 4101.66 4228.97 70.95
16145 62.8761 4076.55 4228.37 71.17
16146 62.8798 4135.26 4227.79 71.89
16147 62.8836 4220.10 4227.21 72.64
16148 62.8874 4102.11 4226.63 72.17
16149 62.8911 4104.42 4226.08 71.49
16150 62.8949 4206.23 4225.52 72.70
16151 62.8986 4245.80 4224.99 72.77
16152 62.9024 4152.44 4224.45 72.15
16153 62.9061 4096.57 4223.93 71.94
16154 62.9099 4079.24 4223.40 69.65
16155 62.9136 4115.41 4222.90 71.08
16156 62.9174 4012.03 4222.39 70.10
16157 62.9212 4165.04 4221.89 71.73
16158 62.9249 4090.38 4221.41 71.31
16159 62.9287 4086.68 4220.92 71.79
16160 62.9324 4167.00 4220.46 72.52
16161 62.9362 4133.11 4219.99 71.82
16162 62.9399 4071.85 4219.53 71.22
16163 62.9437 4160.21 4219.08 71.21
16164 62.9475 4118.80 4218.63 72.92
16165 62.9512 4229.26 4218.20 72.72
16166 62.9550 4213.79 4217.77 72.67
16167 62.9587 4154.14 4217.35 71.82
16168 62.9625 4173.49 4216.93 72.04
16169 62.9662 4116.71 4216.53 71.28
16170 62.9700 4278.18 4216.12 72.92
16171 62.9737 4157.51 4215.73 72.51
16172 62.9775 4173.27 4215.33 70.52
16173 62.9813 4124.11 4214.95 72.70
16174 62.9850 4097.82 4214.58 70.75
16175 62.9888 4198.62 4214.21 73.00
16176 62.9925 4212.61 4213.85 72.95
16177 62.9963 4206.58 4213.49 72.24
16178 63.0000 4068.68 4213.14 69.96
16179 63.0038 4081.54 4212.79 70.59
16180 63.0075 4007.29 4212.46 69.42
16181 63.0113 4012.62 4212.13 70.81
16182 63.0151 4224.55 4211.80 72.14
16183 63.0188 4153.50 4211.49 71.57
16184 63.0226 4126.35 4211.17 70.28
16185 63.0263 4095.49 4210.86 71.62
16186 63.0301 4046.42 4210.56 71.11
16187 63.0338 4161.23 4210.27 72.74
16188 63.0376 4084.47 4209.98 71.96
16189 63.0414 4178.02 4209.69 71.49
16190 63.0451 4109.95 4209.42 71.48
16191 63.0489 4282.55 4209.14 75.95
16192 63.0526 4082.18 4208.88 71.28
16193 63.0564 4206.44 4208.62 72.87
16194 63.0601 4051.17 4208.37 70.20
16195 63.0639 4247.01 4208.12 72.99
16196 63.0676 4074.09 4207.88 72.01
16197 63.0714 3986.19 4207.65 71.01
16198 63.0752 4069.11 4207.41 69.41
16199 63.0789 4217.04 4207.19 73.03
16200 63.0827 4131.52 4206.97 71.71
16201 63.0864 4140.55 4206.76 72.53
16202 63.0902 4198.47 4206.55 73.02
16203 63.0939 4168.79 4206.35 72.77
16204 63.0977 4102.03 4206.16 70.03
16205 63.1015 4263.01 4205.96 73.34
16206 63.1052 4177.02 4205.78 72.10
16207 63.1090 4108.53 4205.60 72.52
16208 63.1127 4117.46 4205.43 71.21
16209 63.1165 4075.98 4205.26 70.67
16210 63.1202 4211.73 4205.10 73.09
16211 63.1240 4081.67 4204.94 71.97
16212 63.1278 4177.30 4204.79 73.35
16213 63.1315 4148.82 4204.65 72.69
16214 63.1353 4029.98 4204.51 70.58
16215 63.1390 4088.41 4204.38 71.76
16216 63.1428 4030.70 4204.25 69.79
16217 63.1465 4048.52 4204.13 71.99
16218 63.1503 4085.09 4204.01 72.65
16219 63.1541 4216.46 4203.90 73.44
16220 63.1578 4219.93 4203.80 72.45
16221 63.1616 4147.95 4203.70 71.16
16222 63.1653 4119.76 4203.61 70.22
16223 63.1691 4173.93 4203.52 71.13
16224 63.1728 4017.56 4203.44 69.68
16225 63.1766 4187.81 4203.36 70.97
16226 63.1803 4096.24 4203.29 70.83
16227 63.1841 4075.58 4203.23 69.88
16228 63.1879 4083.40 4203.17 70.27
16229 63.1916 4080.52 4203.12 69.79
16230 63.1954 4175.87 4203.07 70.86
16231 63.1991 4151.83 4203.03 70.36
16232 63.2029 4130.13 4203.00 71.40
16233 63.2066 4146.63 4202.97 69.82
16234 63.2104 3973.33 4202.95 69.15
16235 63.2142 4095.35 4202.93 70.48
16236 63.2179 4121.95 4202.92 70.49
16237 63.2217 4108.54 4202.92 70.21
16238 63.2254 4095.62 4202.92 68.79
16239 63.2292 4081.43 4202.93 70.44
16240 63.2329 4174.65 4202.94 71.27
16241 63.2367 4098.69 4202.96 70.77
16242 63.2405 4094.90 4202.99 70.50
16243 63.2442 4044.23 4203.02 68.32
16244 63.2480 4148.46 4203.05 71.23
16245 63.2517 4167.61 4203.10 71.13
16246 63.2555 4026.60 4203.32 69.52
16247 63.2592 4223.59 4203.38 71.31
16248 63.2630 4151.96 4203.44 70.25
16249 63.2668 4125.31 4203.51 70.68
16250 63.2705 4184.53 4203.59 71.37
16251 63.2743 4091.99 4203.67 70.43
16252 63.2780 4093.03 4203.76 70.26
16253 63.2818 4131.78 4203.85 70.21
16254 63.2855 4060.87 4203.95 70.04
16255 63.2893 4084.30 4204.06 70.17
16256 63.2931 4125.87 4204.18 70.70
16257 63.2968 4159.53 4204.29 71.04
16258 63.3006 4123.28 4204.42 70.64
16259 63.3043 4218.98 4204.55 71.12
16260 63.3081 4184.08 4204.70 71.76
16261 63.3118 4151.79 4204.84 71.17
16262 63.3156 3933.39 4204.99 69.17
16263 63.3194 4081.80 4205.16 70.10
16264 63.3231 4068.49 4205.32 70.01
16265 63.3269 4184.79 4205.50 71.86
16266 63.3306 4033.71 4205.67 69.18
16267 63.3344 4135.68 4205.86 70.58
16268 63.3381 4130.76 4206.05 70.16
16269 63.3419 4253.48 4206.25 70.04
16270 63.3457 4071.85 4206.46 69.08
16271 63.3494 4130.79 4206.67 72.76
16272 63.3532 4055.49 4206.90 69.63
16273 63.3569 4074.76 4207.12 69.69
16274 63.3607 4174.40 4207.35 70.72
16275 63.3644 4342.14 4207.59 71.98
16276 63.3682 4101.55 4207.84 70.24
16277 63.3720 4173.02 4208.10 71.03
16278 63.3757 4090.67 4208.36 70.60
16279 63.3795 4186.25 4208.63 71.35
16280 63.3832 4094.35 4208.90 69.88
16281 63.3870 4143.20 4209.19 70.41
16282 63.3907 4069.30 4209.47 69.77
16283 63.3945 4106.62 4209.77 70.30
16284 63.3983 4044.23 4210.08 70.19
16285 63.4020 4209.14 4210.38 71.11
16286 63.4058 4028.99 4210.70 70.37
16287 63.4095 4043.43 4211.02 69.66
16288 63.4133 4187.52 4211.36 71.51
16289 63.4170 4131.55 4211.70 70.80
16290 63.4208 4200.58 4212.04 70.85
16291 63.4246 4122.91 4212.40 69.17
16292 63.4283 4196.58 4212.76 71.84
16293 63.4321 4146.24 4213.13 68.83
16294 63.4358 4019.69 4213.50 70.36
16295 63.4396 4158.53 4213.88 71.35
16296 63.4433 4075.50 4214.26 69.91
16297 63.4471 4033.46 4214.66 68.47
16298 63.4509 4020.09 4215.07 70.91
16299 63.4546 4203.59 4215.47 71.50
16300 63.4584 4164.35 4215.90 70.26
16301 63.4621 4142.61 4216.31 69.74
16302 63.4659 4077.45 4216.75 69.97
16303 63.4696 4152.71 4217.18 70.98
16304 63.4734 4057.07 4217.63 70.48
16305 63.4772 4079.53 4218.09 70.84
16306 63.4809 4060.35 4218.54 70.90
16307 63.4847 4170.92 4219.01 71.59
16308 63.4884 4019.56 4219.48 69.59
16309 63.4922 4163.68 4219.97 71.75
16310 63.4960 4167.20 4220.46 71.40
16311 63.4997 4159.86 4220.95 71.64
16312 63.5035 4133.26 4221.45 70.81
16313 63.5072 4166.08 4221.95 71.26
16314 63.5110 4129.43 4222.48 70.10
16315 63.5147 4196.89 4222.99 71.63
16316 63.5185 4144.90 4223.52 71.76
16317 63.5223 4174.52 4224.07 71.30
16318 63.5260 4115.29 4224.60 70.86
16319 63.5298 4227.66 4225.16 71.76
16320 63.5335 4058.81 4225.71 69.78
16321 63.5373 4147.50 4226.27 70.55
16322 63.5410 4078.94 4226.83 71.06
16323 63.5448 4027.80 4227.42 68.92
16324 63.5486 4333.41 4228.00 74.27
16325 63.5523 4270.72 4228.58 72.61
16326 63.5561 4123.67 4229.19 71.18
16327 63.5598 4222.87 4229.78 71.93
16328 63.5636 4111.90 4230.40 69.89
16329 63.5674 4138.70 4231.02 71.41
16330 63.5711 4177.37 4231.63 71.79
16331 63.5749 4169.07 4232.27 70.21
16332 63.5786 4103.07 4232.89 70.64
16333 63.5824 4161.88 4233.54 70.80
16334 63.5861 4151.10 4234.17 71.46
16335 63.5899 4232.16 4234.83 72.75
16336 63.5937 4185.76 4235.49 71.97
16337 63.5974 4143.74 4236.15 71.19
16338 63.6012 4156.70 4236.82 70.88
16339 63.6049 4271.11 4237.48 72.64
16340 63.6087 4154.50 4238.17 71.30
16341 63.6124 4221.80 4238.84 72.49
16342 63.6162 4133.66 4239.54 71.72
16343 63.6200 4340.42 4240.24 73.48
16344 63.6237 4273.40 4240.94 71.57
16345 63.6275 4286.24 4241.65 73.13
16346 63.6312 4339.67 4242.35 72.80
16347 63.6350 4347.32 4243.07 74.07
16348 63.6388 4213.58 4243.80 73.37
16349 63.6425 4310.21 4244.51 71.76
16350 63.6463 4348.60 4245.25 71.67
16351 63.6500 4427.08 4245.97 74.67
16352 63.6538 4169.38 4246.72 70.62
16353 63.6575 4222.29 4247.45 70.55
16354 63.6613 4142.58 4248.20 69.77
16355 63.6651 4287.90 4248.96 70.95
16356 63.6688 4152.80 4249.70 70.22
16357 63.6726 4248.19 4250.47 71.41
16358 63.6763 4269.14 4251.22 72.37
16359 63.6801 4375.06 4251.99 71.96
16360 63.6838 4230.77 4252.74 71.62
16361 63.6876 4265.64 4253.52 71.62
16362 63.6914 4257.16 4254.31 71.41
16363 63.6951 4238.45 4255.07 71.36
16364 63.6989 4271.36 4255.86 69.62
16365 63.7026 4351.42 4256.63 72.59
16366 63.7064 4121.20 4257.42 70.32
16367 63.7102 4219.72 4258.22 69.81
16368 63.7139 4245.71 4258.99 70.75
16369 63.7177 4323.35 4259.79 71.88
16370 63.7214 4160.98 4260.57 70.57
16371 63.7252 4271.60 4261.37 70.78
16372 63.7289 4174.71 4262.15 71.02
16373 63.7327 4270.27 4262.95 72.19
16374 63.7365 4261.19 4263.76 71.61
16375 63.7402 4247.94 4264.54 71.76
16376 63.7440 4337.02 4265.35 71.43
16377 63.7477 4268.14 4266.13 71.81
16378 63.7515 4251.89 4266.94 72.15
16379 63.7553 4364.39 4267.75 72.62
16380 63.7590 4158.50 4268.53 70.30
16381 63.7628 4268.29 4269.33 71.15
16382 63.7665 4204.97 4270.11 71.25
16383 63.7703 4312.72 4270.92 70.25
16384 63.7740 4302.46 4271.70 72.47
16385 63.7778 4328.32 4272.50 71.64
16386 63.7816 4200.97 4273.29 70.70
16387 63.7853 4213.86 4274.07 70.80
16388 63.7891 4103.79 4274.86 70.06
16389 63.7928 4208.11 4275.63 70.36
16390 63.7966 4275.79 4276.42 71.86
16391 63.8004 4211.73 4277.20 70.79
16392 63.8041 4206.16 4277.96 71.48
16393 63.8079 4168.42 4278.74 70.66
16394 63.8116 4266.27 4279.50 70.44
16395 63.8154 3988.91 4280.26 69.26
16396 63.8191 4282.03 4281.01 71.85
16397 63.8229 4200.23 4281.77 70.96
16398 63.8267 4108.19 4282.53 68.95
16399 63.8304 4268.11 4283.25 71.62
16400 63.8342 4226.36 4284.00 71.71
16401 63.8379 4308.00 4284.72 70.99
16402 63.8417 4082.34 4285.45 68.79
16403 63.8455 4152.17 4286.18 68.70
16404 63.8492 4326.32 4286.87 72.24
16405 63.8530 4190.02 4287.58 70.98
16406 63.8567 4184.34 4288.27 69.39
16407 63.8605 4226.10 4288.97 70.71
16408 63.8642 4103.10 4289.63 67.95
16409 63.8680 4163.75 4290.31 70.46
16410 63.8718 4163.82 4290.98 70.90
16411 63.8755 4162.23 4291.62 71.09
16412 63.8793 4129.80 4292.28 70.27
16413 63.8830 4205.01 4292.90 70.99
16414 63.8868 4254.90 4293.56 70.90
16415 63.8906 4171.02 4294.18 70.42
16416 63.8943 4095.74 4294.77 70.41
16417 63.8981 4202.55 4295.38 70.68
16418 63.9018 4159.86 4295.95 69.49
16419 63.9056 4192.74 4296.52 71.19
16420 63.9093 4079.02 4297.07 70.50
16421 63.9131 4235.10 4297.62 70.90
16422 63.9169 4162.08 4298.16 70.71
16423 63.9206 4189.96 4298.67 71.00
16424 63.9244 4206.70 4299.18 70.71
16425 63.9281 4313.56 4299.66 72.92
16426 63.9319 4136.88 4300.15 69.11
16427 63.9357 4181.99 4300.62 70.95
16428 63.9394 4184.58 4301.06 70.56
16429 63.9432 4142.95 4301.50 69.32
16430 63.9469 4099.79 4301.91 70.78
16431 63.9507 4147.70 4302.32 71.39
16432 63.9545 4167.65 4302.72 70.65
16433 63.9582 4338.82 4303.08 71.77
16434 63.9620 4193.56 4303.44 70.61
16435 63.9657 4137.96 4303.77 70.49
16436 63.9695 4219.46 4304.10 71.08
16437 63.9732 4325.05 4304.40 72.35
16438 63.9770 4246.10 4304.69 71.38
16439 63.9808 4189.09 4304.97 70.80
16440 63.9845 4228.10 4305.22 70.06
16441 63.9883 4296.97 4305.45 71.15
16442 63.9920 4089.26 4305.66 69.88
16443 63.9958 4172.40 4305.86 70.66
16444 63.9996 4209.17 4306.05 71.82
16445 64.0033 4315.05 4306.20 72.30
16446 64.0071 4100.73 4306.35 69.64
16447 64.0108 4256.53 4306.47 71.45
16448 64.0146 4200.31 4306.57 71.29
16449 64.0183 4235.88 4306.65 70.25
16450 64.0221 4201.35 4306.72 70.98
16451 64.0259 4205.01 4306.76 70.46
16452 64.0296 4125.40 4306.78 70.81
16453 64.0334 4291.30 4306.78 71.65
16454 64.0371 4247.04 4306.77 72.03
16455 64.0409 4277.32 4306.73 71.65
16456 64.0446 4192.53 4306.67 70.17
16457 64.0484 4374.32 4306.60 73.78
16458 64.0522 4203.14 4306.49 71.57
16459 64.0558 4254.66 4306.38 72.22
16460 64.0597 4195.71 4306.23 71.21
16461 64.0634 4236.81 4306.08 71.59
16462 64.0672 4406.22 4305.90 73.21
16463 64.0710 4291.74 4305.69 72.08
16464 64.0747 4376.14 4305.47 73.36
16465 64.0785 4277.60 4305.22 72.21
16466 64.0822 4367.66 4304.96 72.59
16467 64.0860 4324.64 4304.67 71.94
16468 64.0898 4370.64 4304.37 72.89
16469 64.0935 4432.55 4304.05 72.38
16470 64.0973 4341.55 4303.70 72.63
16471 64.1010 4380.45 4303.34 71.64
16472 64.1048 4368.27 4302.95 73.03
16473 64.1086 4439.44 4302.54 73.80
16474 64.1123 4436.10 4302.12 73.53
16475 64.1161 4307.85 4301.67 73.10
16476 64.1198 4402.59 4301.22 73.94
16477 64.1236 4370.65 4300.73 72.18
16478 64.1274 4357.82 4300.22 71.45
16479 64.1311 4463.10 4299.71 72.72
16480 64.1349 4449.36 4299.16 72.83
16481 64.1386 4390.18 4298.61 72.96
16482 64.1424 4409.61 4298.03 72.06
16483 64.1461 4407.01 4297.44 70.72
16484 64.1499 4412.68 4296.82 73.85
16485 64.1537 4306.87 4296.18 72.38
16486 64.1574 4322.47 4295.54 71.29
16487 64.1612 4511.92 4294.87 73.36
16488 64.1649 4310.25 4294.20 71.55
16489 64.1687 4405.84 4293.50 72.47
16490 64.1724 4338.08 4292.77 72.27
16491 64.1762 4466.51 4292.05 73.56
16492 64.1800 4360.54 4291.29 71.45
16493 64.1836 4379.59 4290.54 71.32
16494 64.1875 4307.78 4289.76 71.50
16495 64.1912 4456.23 4288.98 72.85
16496 64.1950 4440.30 4288.16 73.45
16497 64.1988 4441.24 4287.33 72.47
16498 64.2025 4409.22 4286.51 73.38
16499 64.2063 4397.94 4285.65 72.59
16500 64.2100 4427.46 4284.80 72.86
16501 64.2138 4389.81 4283.91 72.62
16502 64.2176 4398.28 4283.02 72.66
16503 64.2213 4314.11 4282.13 71.55
16504 64.2251 4292.01 4281.20 71.39
16505 64.2288 4471.18 4280.29 73.64
16506 64.2326 4304.60 4279.34 71.89
16507 64.2364 4390.33 4278.38 71.95
16508 64.2401 4393.00 4277.44 71.83
16509 64.2439 4422.45 4276.46 72.97
16510 64.2476 4415.99 4275.50 71.59
16511 64.2514 4490.07 4274.50 75.18
16512 64.2552 4304.44 4273.49 72.36
16513 64.2589 4356.30 4272.49 71.51
16514 64.2627 4412.70 4271.46 72.12
16515 64.2664 4262.61 4270.45 71.47
16516 64.2702 4326.67 4269.40 71.85
16517 64.2739 4406.75 4268.38 72.56
16518 64.2777 4384.22 4267.31 72.10
16519 64.2815 4361.60 4266.25 72.07
16520 64.2852 4271.95 4265.20 71.94
16521 64.2890 4421.92 4264.11 73.25
16522 64.2927 4444.79 4263.05 72.55
16523 64.2965 4437.43 4261.95 73.09
16524 64.3003 4433.46 4260.85 73.35
16525 64.3040 4299.26 4259.77 71.69
16526 64.3078 4348.64 4258.65 71.88
16527 64.3114 4353.70 4257.57 71.84
16528 64.3153 4220.91 4256.44 70.68
16529 64.3191 4389.56 4255.31 72.36
16530 64.3228 4298.07 4254.20 71.86
16531 64.3266 4235.51 4253.07 71.47
16532 64.3303 4341.70 4251.95 71.56
16533 64.3341 4400.11 4250.81 72.87
16534 64.3378 4257.40 4249.69 71.87
16535 64.3416 4366.89 4248.54 72.66
16536 64.3454 4369.90 4247.39 71.54
16537 64.3491 4256.30 4246.26 71.12
16538 64.3529 4239.20 4245.10 71.75
16539 64.3566 4247.27 4243.97 71.43
16540 64.3604 4229.35 4242.80 70.91
16541 64.3642 4353.73 4241.64 71.44
16542 64.3679 4292.52 4240.50 71.45
16543 64.3717 4386.34 4239.34 72.30
16544 64.3754 4374.88 4238.20 72.81
16545 64.3792 4351.82 4237.03 71.78
16546 64.3830 4283.67 4235.86 71.18
16547 64.3867 4433.06 4234.72 72.87
16548 64.3905 4342.13 4233.55 71.76
16549 64.3942 4204.57 4232.41 70.86
16550 64.3980 4121.39 4231.23 70.21
16551 64.4018 4289.81 4230.07 71.29
16552 64.4055 4265.13 4228.93 70.93
16553 64.4093 4254.62 4227.76 71.32
16554 64.4130 4280.80 4226.63 71.84
16555 64.4168 4270.46 4225.46 71.09
16556 64.4206 4308.01 4224.29 70.86
16557 64.4243 4225.37 4223.16 70.44
16558 64.4281 4331.61 4222.00 71.43
16559 64.4318 4257.87 4220.88 71.71
16560 64.4356 4167.60 4219.71 71.08
16561 64.4392 4288.13 4218.60 71.24
16562 64.4431 4349.13 4217.44 71.57
16563 64.4469 4142.50 4216.29 68.08
16564 64.4506 4324.55 4215.17 73.55
16565 64.4544 4198.74 4214.03 69.60
16566 64.4581 4196.14 4212.92 69.90
16567 64.4619 4315.79 4211.78 71.23
16568 64.4657 4202.30 4210.65 70.48
16569 64.4694 4281.13 4209.54 71.61
16570 64.4732 4146.76 4208.42 70.65
16571 64.4769 4203.08 4207.32 70.45
16572 64.4807 4275.81 4206.20 71.16
16573 64.4844 4363.40 4205.12 72.63
16574 64.4882 4300.35 4204.00 71.59
16575 64.4920 4159.75 4202.90 69.35
16576 64.4957 4200.80 4201.82 70.78
16577 64.4995 4401.09 4200.72 72.99
16578 64.5032 4086.15 4199.66 69.38
16579 64.5070 4051.74 4198.57 69.76
16580 64.5108 4157.49 4197.48 70.65
16581 64.5145 4307.71 4196.43 71.43
16582 64.5183 4146.84 4195.35 70.57
16583 64.5220 4165.95 4194.31 70.89
16584 64.5258 4297.96 4193.24 71.02
16585 64.5296 4190.77 4192.18 71.21
16586 64.5333 4195.21 4191.15 69.96
16587 64.5371 4190.66 4190.10 71.37
16588 64.5408 4236.48 4189.08 70.62
16589 64.5446 4175.33 4188.05 70.23
16590 64.5484 4170.69 4187.01 69.80
16591 64.5521 4141.12 4186.01 71.68
16592 64.5559 4008.30 4184.98 68.52
16593 64.5596 4185.39 4183.99 70.14
16594 64.5634 4169.87 4182.98 69.91
16595 64.5671 4211.59 4182.00 70.50
16596 64.5709 4154.13 4181.00 70.88
16597 64.5747 4281.04 4180.01 71.20
16598 64.5784 4135.42 4179.05 69.04
16599 64.5822 4150.06 4178.06 70.76
16600 64.5859 4153.14 4177.11 70.21
16601 64.5897 4049.41 4176.14 69.64
16602 64.5935 4232.46 4175.18 70.83
16603 64.5972 4177.67 4174.25 70.47
16604 64.6010 4241.81 4173.30 72.13
16605 64.6047 4106.41 4172.38 70.64
16606 64.6085 4000.57 4171.44 69.37
16607 64.6123 4040.74 4170.51 69.34
16608 64.6160 4166.54 4169.61 70.92
16609 64.6198 4224.63 4168.69 71.05
16610 64.6235 4217.91 4167.81 70.35
16611 64.6273 4188.52 4166.90 70.70
16612 64.6311 4119.52 4166.00 70.39
16613 64.6348 4133.85 4165.13 70.83
16614 64.6386 4154.26 4164.24 70.87
16615 64.6423 4156.65 4163.39 70.40
16616 64.6461 4114.23 4162.51 69.15
16617 64.6499 4180.45 4161.65 72.72
16618 64.6536 4181.56 4160.81 70.07
16619 64.6574 4175.82 4159.96 71.22
16620 64.6611 4089.36 4159.14 69.57
16621 64.6649 4202.83 4158.30 70.94
16622 64.6686 4099.74 4157.49 70.57
16623 64.6724 4121.29 4156.67 70.67
16624 64.6762 4092.91 4155.85 70.66
16625 64.6799 4220.33 4155.06 71.86
16626 64.6837 4024.25 4154.26 69.88
16627 64.6874 4030.05 4153.48 69.84
16628 64.6912 4092.21 4152.69 70.63
16629 64.6950 4113.38 4151.91 70.66
16630 64.6987 4152.27 4151.15 70.85
16631 64.7025 3988.09 4150.38 69.20
16632 64.7062 4067.30 4149.64 70.28
16633 64.7100 4161.47 4148.88 71.33
16634 64.7138 4112.53 4148.13 71.06
16635 64.7175 3946.67 4147.41 68.90
16636 64.7213 4049.02 4146.67 69.70
16637 64.7250 3986.52 4145.96 69.52
16638 64.7288 4100.23 4145.24 71.08
16639 64.7325 4126.98 4144.55 71.13
16640 64.7363 4173.59 4143.84 71.55
16641 64.7401 4025.67 4143.14 69.97
16642 64.7438 4017.53 4142.46 69.57
16643 64.7476 4025.62 4141.77 69.36
16644 64.7513 4085.41 4141.11 72.45
16645 64.7551 4156.05 4140.43 71.09
16646 64.7589 4111.22 4139.77 70.84
16647 64.7626 3999.11 4139.12 67.45
16648 64.7664 4131.83 4138.47 70.47
16649 64.7701 4031.42 4137.83 69.26
16650 64.7739 4073.50 4137.19 70.77
16651 64.7777 4069.28 4136.56 69.95
16652 64.7814 4032.59 4135.95 70.59
16653 64.7852 4099.43 4135.32 70.86
16654 64.7889 4088.27 4134.73 70.09
16655 64.7927 3961.20 4134.12 69.58
16656 64.7965 4008.81 4133.52 69.86
16657 64.8002 3980.56 4132.94 67.64
16658 64.8040 4136.34 4132.35 71.13
16659 64.8077 3999.60 4131.78 68.78
16660 64.8115 4039.96 4131.20 70.37
16661 64.8152 4091.31 4130.65 71.52
16662 64.8190 4139.48 4130.08 71.16
16663 64.8228 4055.61 4129.52 70.46
16664 64.8265 4028.79 4128.98 70.09
16665 64.8303 4146.95 4128.44 70.77
16666 64.8340 3996.34 4127.91 69.41
16667 64.8378 4021.14 4127.38 70.12
16668 64.8416 3999.86 4126.85 68.88
16669 64.8453 4167.66 4126.34 70.24
16670 64.8491 4024.87 4125.83 70.36
16671 64.8528 4045.58 4125.33 71.38
16672 64.8566 3967.02 4124.83 68.98
16673 64.8604 4054.70 4124.33 70.10
16674 64.8641 3927.46 4123.85 68.97
16675 64.8679 4048.21 4123.36 70.03
16676 64.8716 3990.28 4122.90 69.81
16677 64.8754 4095.74 4122.42 70.68
16678 64.8791 4064.06 4121.97 70.10
16679 64.8829 4030.73 4121.50 69.78
16680 64.8867 4060.35 4121.04 68.94
16681 64.8904 4093.86 4120.60 71.46
16682 64.8942 4004.87 4120.16 69.47
16683 64.8979 4059.22 4119.73 70.58
16684 64.9017 3987.19 4119.29 68.69
16685 64.9055 4060.68 4118.86 69.44
16686 64.9092 4067.66 4118.45 70.14
16687 64.9130 4107.20 4118.03 71.23
16688 64.9167 4076.18 4117.63 70.33
16689 64.9205 4097.96 4117.22 70.13
16690 64.9243 4077.88 4116.81 70.61
16691 64.9280 4039.17 4116.42 69.62
16692 64.9318 3977.43 4116.03 70.23
16693 64.9355 4113.46 4115.66 70.18
16694 64.9393 4023.05 4115.27 70.08
16695 64.9430 4091.60 4114.90 71.28
16696 64.9468 3960.16 4114.53 68.21
16697 64.9506 4174.96 4114.16 72.43
16698 64.9543 3971.19 4113.81 69.04
16699 64.9581 4060.41 4113.45 69.62
16700 64.9618 4061.64 4113.10 70.59
16701 64.9656 4000.87 4112.75 69.66
16702 64.9694 3972.88 4112.41 69.32
16703 64.9731 4007.33 4112.08 70.02
16704 64.9769 3981.04 4111.74 69.16
16705 64.9806 4138.44 4111.42 70.47
16706 64.9844 4059.38 4111.09 70.68
16707 64.9882 4034.46 4110.77 71.40
16708 64.9919 4132.58 4110.46 70.83
16709 64.9957 4197.18 4110.15 72.26
16710 64.9994 3983.57 4109.85 70.56
16711 65.0032 4005.54 4109.55 69.73
16712 65.0070 4027.42 4109.25 70.33
16713 65.0107 4082.09 4108.96 69.74
16714 65.0145 4090.57 4108.67 71.53
16715 65.0182 4032.11 4108.39 70.93
16716 65.0220 4268.79 4108.10 72.95
16717 65.0257 4099.75 4107.83 70.45
16718 65.0295 4220.32 4107.56 73.11
16719 65.0333 4050.96 4107.29 70.47
16720 65.0370 4044.58 4107.02 71.09
16721 65.0408 4099.65 4106.76 70.70
16722 65.0445 4079.65 4106.51 69.58
16723 65.0483 4084.76 4106.25 69.78
16724 65.0521 3997.52 4106.00 71.63
16725 65.0558 4029.41 4105.76 70.71
16726 65.0596 4105.00 4105.52 71.27
16727 65.0633 4068.91 4105.28 70.78
16728 65.0671 4154.82 4105.05 70.05
16729 65.0708 4065.91 4104.82 70.09
16730 65.0746 4063.53 4104.59 70.05
16731 65.0784 4011.75 4104.36 70.69
16732 65.0821 4024.51 4104.15 71.51
16733 65.0859 4102.95 4103.93 69.77
16734 65.0896 4057.38 4103.72 69.55
16735 65.0934 4135.85 4103.51 70.26
16736 65.0972 4084.22 4103.30 68.66
16737 65.1009 4119.66 4103.10 69.59
16738 65.1047 4052.27 4102.90 69.42
16739 65.1084 4217.50 4102.71 70.76
16740 65.1122 4116.31 4102.51 70.10
16741 65.1160 4233.29 4102.32 70.70
16742 65.1197 4172.95 4102.14 70.08
16743 65.1235 4164.17 4101.95 70.19
16744 65.1272 4084.27 4101.78 69.37
16745 65.1310 4172.56 4101.60 70.87
16746 65.1348 4059.93 4101.42 68.96
16747 65.1385 4159.30 4101.25 70.42
16748 65.1423 4062.56 4101.08 68.80
16749 65.1460 4209.03 4100.92 69.72
16750 65.1498 4102.80 4100.76 70.70
16751 65.1535 4109.81 4100.60 70.31
16752 65.1573 4146.10 4100.44 70.19
16753 65.1611 4118.21 4100.29 69.85
16754 65.1648 4064.34 4100.14 69.10
16755 65.1686 4236.35 4100.00 71.09
16756 65.1723 4153.90 4099.85 70.64
16757 65.1761 4082.31 4099.71 69.50
16758 65.1799 4087.21 4099.57 70.27
16759 65.1836 4125.45 4099.43 69.54
16760 65.1874 4129.79 4099.30 69.85
16761 65.1911 4195.77 4099.17 71.03
16762 65.1949 4110.43 4099.04 70.26
16763 65.1986 4168.21 4098.92 70.59
16764 65.2024 4179.65 4098.79 70.70
16765 65.2062 4023.89 4098.67 69.07
16766 65.2099 4127.32 4098.56 70.17
16767 65.2137 4137.04 4098.44 70.81
16768 65.2174 4077.89 4098.33 70.04
16769 65.2212 4225.65 4098.22 70.19
16770 65.2250 4061.05 4098.11 69.59
16771 65.2287 4088.03 4098.01 69.60
16772 65.2325 4044.28 4097.91 68.07
16773 65.2362 4219.97 4097.81 70.18
16774 65.2400 4091.46 4097.71 70.00
16775 65.2438 4028.45 4097.61 68.69
16776 65.2475 4070.92 4097.52 68.65
16777 65.2513 4026.69 4097.43 70.74
16778 65.2550 4105.68 4097.35 70.80
16779 65.2588 3969.12 4097.26 68.60
16780 65.2625 4128.26 4097.18 69.09
16781 65.2663 3972.22 4097.10 68.30
16782 65.2701 4053.66 4097.02 69.37
16783 65.2738 3970.28 4096.94 68.27
16784 65.2776 4078.19 4096.87 69.41
16785 65.2813 4045.66 4096.80 69.68
16786 65.2851 4007.13 4096.73 69.32
16787 65.2889 4041.57 4096.66 69.53
16788 65.2926 4172.62 4096.60 70.92
16789 65.2964 4104.87 4096.54 70.22
16790 65.3001 3965.13 4096.48 68.82
16791 65.3039 4003.59 4096.42 68.82
16792 65.3077 4109.71 4096.36 70.02
16793 65.3114 4073.90 4096.31 68.82
16794 65.3152 3955.78 4096.26 67.53
16795 65.3189 4153.76 4096.21 70.18
16796 65.3227 4060.25 4096.17 69.52
16797 65.3264 4040.22 4096.12 68.88
16798 65.3302 4080.31 4096.08 70.32
16799 65.3340 3972.86 4096.04 67.29
16800 65.3377 4051.85 4096.00 69.44
16801 65.3415 4013.99 4095.97 68.95
16802 65.3452 4054.91 4095.93 69.35
16803 65.3490 3951.73 4095.90 68.19
16804 65.3527 4107.06 4095.87 71.28
16805 65.3565 3983.24 4095.84 68.30
16806 65.3603 3941.28 4095.82 68.16
16807 65.3640 4055.78 4095.80 68.74
16808 65.3678 4057.15 4095.78 70.01
16809 65.3715 3983.35 4095.76 68.87
16810 65.3753 4078.94 4095.74 69.38
16811 65.3791 3944.08 4095.72 68.60
16812 65.3828 4013.59 4095.71 69.50
16813 65.3866 4017.50 4095.70 69.29
16814 65.3903 4034.50 4095.70 69.83
16815 65.3941 3988.80 4095.69 68.99
16816 65.3979 3922.12 4095.68 68.43
16817 65.4016 4075.79 4095.68 69.24
16818 65.4054 3925.37 4095.68 68.60
16819 65.4091 3972.42 4095.68 68.71
16820 65.4129 4039.16 4095.69 68.82
16821 65.4166 3938.69 4095.70 68.65
16822 65.4204 4114.02 4095.70 70.18
16823 65.4242 3954.78 4095.71 68.45
16824 65.4279 4009.19 4095.73 68.95
16825 65.4317 4015.87 4095.74 69.83
16826 65.4354 4034.92 4095.76 69.35
16827 65.4392 4067.62 4095.78 69.41
16828 65.4430 3966.47 4095.80 68.70
16829 65.4467 4142.33 4095.82 69.22
16830 65.4505 4135.01 4095.85 70.45
16831 65.4542 3921.55 4095.88 69.10
16832 65.4580 3974.42 4095.91 67.79
16833 65.4617 4081.17 4095.94 69.23
16834 65.4655 4011.41 4095.97 69.04
16835 65.4693 4046.27 4096.01 69.57
16836 65.4730 3984.47 4096.04 68.66
16837 65.4768 3987.35 4096.09 68.99
16838 65.4805 3914.88 4096.13 68.93
16839 65.4843 4043.28 4096.17 70.03
16840 65.4880 3991.18 4096.22 68.79
16841 65.4918 3962.09 4096.27 68.19
16842 65.4956 4016.12 4096.32 68.73
16843 65.4993 4023.22 4096.37 68.75
16844 65.5031 3974.52 4096.43 68.99
16845 65.5068 4012.55 4096.49 68.81
16846 65.5106 4041.85 4096.47 69.71
16847 65.5144 3952.12 4096.46 69.13
16848 65.5181 4011.83 4096.45 69.19
16849 65.5219 4127.36 4096.44 70.15
16850 65.5256 3947.66 4096.43 67.74
16851 65.5294 4099.93 4096.43 70.54
16852 65.5331 3972.29 4096.43 68.69
16853 65.5369 4022.42 4096.43 70.20
16854 65.5407 4100.38 4096.43 69.76
16855 65.5444 3999.67 4096.44 68.33
16856 65.5482 3885.67 4096.44 67.25
16857 65.5519 3990.80 4096.45 70.53
16858 65.5557 3954.95 4096.63 68.86
16859 65.5595 4012.18 4096.65 68.72
16860 65.5632 4133.62 4096.66 71.06
16861 65.5670 4053.51 4096.69 69.14
16862 65.5707 3881.02 4096.71 67.74
16863 65.5745 4089.43 4096.74 69.53
16864 65.5782 4059.25 4096.77 69.46
16865 65.5820 4082.77 4096.80 69.59
16866 65.5858 4013.78 4096.83 69.15
16867 65.5895 4188.45 4096.87 69.90
16868 65.5933 3965.34 4096.91 68.48
16869 65.5970 4003.32 4096.95 69.13
16870 65.6008 3963.11 4097.00 68.93
16871 65.6045 4048.56 4097.04 69.57
16872 65.6083 4036.90 4097.10 69.92
16873 65.6121 4049.08 4097.15 69.70
16874 65.6158 3933.20 4097.21 68.77
16875 65.6196 4088.40 4097.27 69.19
16876 65.6233 4074.78 4096.64 69.66
16877 65.6271 4114.03 4096.71 70.24
16878 65.6309 4125.96 4096.78 70.86
16879 65.6346 4016.20 4096.85 68.60
16880 65.6384 3990.37 4096.93 69.19
16881 65.6421 4096.69 4097.01 70.32
16882 65.6459 4056.81 4097.10 69.05
16883 65.6496 3977.41 4097.19 67.38
16884 65.6534 4057.82 4097.28 71.05
16885 65.6572 3987.97 4097.37 68.99
16886 65.6609 3967.56 4097.47 68.13
16887 65.6647 4049.92 4097.57 69.98
16888 65.6684 4060.77 4097.68 69.28
16889 65.6722 4057.18 4097.79 69.43
16890 65.6759 4036.91 4097.90 69.98
16891 65.6797 4136.64 4098.02 70.62
16892 65.6835 3979.77 4098.14 69.78
16893 65.6872 4125.38 4098.26 70.85
16894 65.6910 3945.31 4098.39 69.13
16895 65.6947 4085.93 4098.52 70.80
16896 65.6985 3833.97 4098.66 67.38
16897 65.7023 4218.89 4098.80 71.62
16898 65.7060 4033.53 4098.95 69.76
16899 65.7098 4081.42 4099.10 70.39
16900 65.7135 4036.96 4099.25 70.21
16901 65.7173 4069.14 4099.41 69.78
16902 65.7210 4016.95 4099.57 69.77
16903 65.7248 4062.82 4099.74 70.65
16904 65.7286 4007.32 4099.91 69.40
16905 65.7323 4155.24 4100.08 71.36
16906 65.7361 4034.71 4100.26 70.15
16907 65.7398 4020.39 4100.44 68.64
16908 65.7436 4010.17 4100.63 69.55
16909 65.7473 4179.94 4100.83 70.36
16910 65.7511 4150.37 4101.03 71.87
16911 65.7549 4007.56 4101.23 68.25
16912 65.7586 4038.21 4101.44 70.01
16913 65.7624 4124.77 4101.73 70.54
16914 65.7661 4068.25 4101.94 69.29
16915 65.7699 4166.91 4102.17 71.49
16916 65.7736 4056.40 4102.39 69.95
16917 65.7774 3949.06 4102.63 68.78
16918 65.7812 4045.06 4102.86 70.13
16919 65.7849 4240.17 4103.11 72.02
16920 65.7887 3988.58 4103.35 69.74
16921 65.7924 4078.51 4103.61 69.91
16922 65.7962 4176.38 4103.87 71.14
16923 65.7999 4206.61 4104.13 71.11
16924 65.8037 4014.25 4104.40 69.63
16925 65.8075 4110.41 4104.68 69.87
16926 65.8112 4165.39 4104.96 71.18
16927 65.8150 4068.50 4105.24 70.59
16928 65.8187 4032.19 4105.53 69.63
16929 65.8225 4139.60 4105.83 69.66
16930 65.8263 4049.45 4106.14 69.46
16931 65.8300 4127.36 4106.44 69.19
16932 65.8338 4062.34 4106.76 70.51
16933 65.8375 4045.56 4107.07 69.82
16934 65.8413 4082.43 4107.40 69.89
16935 65.8450 4175.01 4107.73 70.52
16936 65.8488 4055.13 4108.07 68.23
16937 65.8525 4042.25 4108.40 70.97
16938 65.8563 4035.34 4108.76 70.02
16939 65.8601 4141.57 4109.12 70.50
16940 65.8638 4087.30 4109.47 69.81
16941 65.8676 4197.50 4109.84 70.87
16942 65.8713 4140.35 4110.21 70.57
16943 65.8751 4009.30 4110.59 69.80
16944 65.8788 4093.71 4110.97 69.77
16945 65.8826 4099.49 4111.36 70.93
16946 65.8864 4113.44 4111.76 70.52
16947 65.8901 4208.06 4112.16 70.81
16948 65.8939 4116.72 4112.57 69.19
16949 65.8976 4069.47 4112.98 68.81
16950 65.9014 4109.14 4113.40 70.37
16951 65.9051 4063.97 4113.82 69.36
16952 65.9089 4143.68 4114.26 70.53
16953 65.9127 4093.13 4114.70 69.97
16954 65.9164 4104.41 4115.14 69.73
16955 65.9202 4232.05 4115.60 70.47
16956 65.9239 4192.94 4116.05 71.31
16957 65.9277 3997.04 4116.51 68.55
16958 65.9315 4098.57 4116.99 70.03
16959 65.9352 4224.89 4117.46 71.08
16960 65.9390 4205.05 4117.94 71.30
16961 65.9427 4157.22 4118.42 70.71
16962 65.9465 3994.54 4118.92 68.01
16963 65.9502 4157.49 4119.41 71.23
16964 65.9540 4198.75 4119.92 72.00
16965 65.9578 4102.29 4120.44 70.40
16966 65.9615 4133.90 4120.95 69.94
16967 65.9653 4262.50 4121.48 73.08
16968 65.9690 4164.02 4122.00 70.78
16969 65.9728 4203.68 4122.54 70.48
16970 65.9765 4141.68 4123.08 70.09
16971 65.9803 4161.22 4123.63 71.13
16972 65.9841 4097.44 4124.19 70.03
16973 65.9877 4176.02 4124.74 70.78
16974 65.9916 4353.84 4125.32 72.93
16975 65.9953 4157.98 4125.88 70.48
16976 65.9991 4164.55 4126.46 71.01
16977 66.0028 4205.61 4127.03 70.90
16978 66.0066 4140.49 4127.63 70.59
16979 66.0103 4270.63 4128.21 71.69
16980 66.0141 4105.38 4128.82 70.87
16981 66.0179 4313.98 4129.43 72.60
16982 66.0216 4143.53 4130.04 70.45
16983 66.0254 4134.93 4130.66 70.97
16984 66.0291 4035.71 4131.27 69.25
16985 66.0329 4306.71 4131.91 72.34
16986 66.0366 4276.17 4132.53 72.62
16987 66.0404 4262.46 4133.17 72.01
16988 66.0442 4209.97 4133.82 71.78
16989 66.0479 4180.15 4134.46 70.17
16990 66.0517 4284.64 4135.12 74.24
16991 66.0554 4262.92 4135.77 73.20
16992 66.0592 4136.85 4136.44 70.61
16993 66.0629 4405.32 4137.10 73.86
16994 66.0667 4381.78 4137.78 72.55
16995 66.0705 4239.86 4138.47 71.72
16996 66.0742 4197.88 4139.14 71.93
16997 66.0780 4280.14 4139.83 73.75
16998 66.0817 4308.74 4140.51 73.19
16999 66.0855 4212.93 4141.22 72.50
17000 66.0892 4349.81 4141.91 72.32
17001 66.0930 4179.92 4142.62 72.56
17002 66.0968 4242.23 4143.34 72.68
17003 66.1005 4198.40 4144.04 72.35
17004 66.1043 4301.23 4144.76 71.82
17005 66.1080 4193.07 4145.47 72.27
17006 66.1118 4276.65 4146.20 71.82
17007 66.1155 4378.05 4146.92 73.96
17008 66.1193 4207.08 4147.66 72.65
17009 66.1230 4257.75 4148.38 73.92
17010 66.1267 4210.54 4149.13 72.57
17011 66.1306 4295.13 4149.88 74.37
17012 66.1343 4201.47 4150.61 72.14
17013 66.1381 4306.22 4151.37 74.22
17014 66.1418 4239.54 4152.11 72.33
17015 66.1456 4372.67 4152.87 73.91
17016 66.1493 4243.37 4153.61 71.81
17017 66.1531 4150.46 4154.38 74.21
17018 66.1568 4116.02 4155.13 73.14
17019 66.1606 4172.21 4155.90 71.20
17020 66.1644 4163.67 4156.67 72.25
17021 66.1681 4378.76 4157.42 73.33
17022 66.1719 4283.29 4158.20 73.55
17023 66.1756 4212.15 4158.96 71.76
17024 66.1794 4270.38 4159.73 73.81
17025 66.1831 4264.00 4160.49 72.64
17026 66.1869 4177.73 4161.27 73.11
17027 66.1907 4303.66 4162.05 73.95
17028 66.1944 4160.25 4162.81 72.30
17029 66.1982 4282.20 4163.60 73.20
17030 66.2019 4217.42 4164.36 72.66
17031 66.2057 4135.99 4165.14 70.69
17032 66.2094 4299.39 4165.90 71.67
17033 66.2132 4226.15 4166.68 72.34
17034 66.2170 4159.51 4167.47 72.23
17035 66.2207 4147.70 4168.23 70.87
17036 66.2245 4289.60 4169.01 73.59
17037 66.2282 4116.81 4169.76 70.87
17038 66.2320 4214.02 4170.54 73.27
17039 66.2357 4141.95 4171.30 71.29
17040 66.2395 4160.06 4172.07 72.35
17041 66.2432 4196.17 4172.82 72.03
17042 66.2470 4153.15 4173.59 71.91
17043 66.2508 4255.74 4174.36 71.70
17044 66.2545 4167.82 4175.10 74.39
17045 66.2583 4254.09 4175.86 72.55
17046 66.2620 4108.38 4176.60 71.26
17047 66.2658 4216.87 4177.36 72.07
17048 66.2695 4231.43 4178.09 72.64
17049 66.2733 4290.12 4178.84 72.98
17050 66.2770 4045.49 4179.56 71.27
17051 66.2808 4295.99 4180.29 73.84
17052 66.2846 4081.94 4181.03 70.43
17053 66.2883 4226.93 4181.74 72.53
17054 66.2921 4109.04 4182.46 72.01
17055 66.2958 4075.45 4183.16 70.71
17056 66.2996 4144.97 4183.87 70.63
17057 66.3033 4054.69 4184.56 70.62
17058 66.3071 4179.40 4185.26 71.61
17059 66.3108 4143.65 4185.93 71.88
17060 66.3146 4017.97 4186.62 71.04
17061 66.3184 4208.10 4187.30 70.27
17062 66.3221 4008.40 4187.95 70.80
17063 66.3259 4159.46 4188.62 71.54
17064 66.3296 4058.15 4189.25 70.84
17065 66.3334 4095.50 4189.90 69.96
17066 66.3371 4150.53 4190.52 72.49
17067 66.3409 4052.11 4191.15 70.31
17068 66.3446 4134.76 4191.76 72.53
17069 66.3484 3934.90 4192.37 68.99
17070 66.3522 4254.69 4192.96 72.90
17071 66.3559 4112.94 4193.54 72.49
17072 66.3597 3960.76 4194.12 69.93
17073 66.3634 4144.06 4194.68 70.58
17074 66.3672 4036.15 4195.23 70.09
17075 66.3709 4200.40 4195.77 72.47
17076 66.3747 4034.90 4196.30 70.98
17077 66.3784 3976.55 4196.81 71.18
17078 66.3822 4009.41 4197.33 70.12
17079 66.3860 4195.13 4197.83 73.13
17080 66.3897 4048.88 4198.30 70.72
17081 66.3935 4195.95 4198.77 71.47
17082 66.3972 4170.19 4199.22 72.47
17083 66.4010 4158.42 4199.67 71.65
17084 66.4047 4005.07 4200.08 70.45
17085 66.4085 4041.33 4200.50 71.64
17086 66.4122 3966.92 4200.90 70.08
17087 66.4160 3999.63 4201.29 71.16
17088 66.4198 4000.72 4201.66 70.72
17089 66.4235 4174.86 4202.01 71.13
17090 66.4273 3980.78 4202.35 70.55
17091 66.4310 4026.04 4202.67 71.59
17092 66.4348 4094.13 4202.98 71.70
17093 66.4385 4167.78 4203.27 72.84
17094 66.4423 4029.64 4203.55 71.45
17095 66.4460 3942.53 4203.81 69.89
17096 66.4498 4062.75 4204.06 69.86
17097 66.4536 4049.06 4204.29 72.78
17098 66.4573 4164.84 4204.49 72.34
17099 66.4611 4087.49 4204.69 71.52
17100 66.4648 4026.41 4204.86 70.76
17101 66.4686 4155.22 4205.02 70.96
17102 66.4723 4068.98 4205.16 70.52
17103 66.4761 4008.28 4205.28 71.38
17104 66.4798 3930.63 4205.38 68.98
17105 66.4836 4131.94 4205.47 71.67
17106 66.4873 4001.67 4205.53 69.63
17107 66.4911 4110.70 4205.58 71.15
17108 66.4949 4111.93 4205.61 71.01
17109 66.4986 4011.04 4205.62 70.65
17110 66.5024 4091.12 4205.62 71.50
17111 66.5061 4191.53 4205.59 71.47
17112 66.5099 4040.92 4205.55 70.88
17113 66.5136 4116.95 4205.49 71.49
17114 66.5174 4076.39 4205.40 70.92
17115 66.5211 4087.83 4205.30 71.12
17116 66.5249 4067.14 4205.18 71.69
17117 66.5287 4057.08 4205.04 70.38
17118 66.5324 4241.56 4204.88 72.56
17119 66.5362 4157.68 4204.70 71.47
17120 66.5399 4143.50 4204.51 71.69
17121 66.5437 4184.02 4204.29 71.56
17122 66.5474 4091.86 4204.06 70.40
17123 66.5512 4202.22 4203.80 71.26
17124 66.5549 4125.34 4203.54 71.90
17125 66.5586 4167.79 4203.24 71.85
17126 66.5624 4115.96 4202.93 70.26
17127 66.5662 4232.78 4202.60 71.31
17128 66.5700 4155.10 4202.25 70.66
17129 66.5737 4116.06 4201.89 70.93
17130 66.5775 4160.47 4201.50 69.51
17131 66.5812 4184.19 4201.18 71.08
17132 66.5850 4197.41 4200.75 71.89
17133 66.5887 4108.45 4200.32 71.07
17134 66.5925 4147.93 4199.86 71.14
17135 66.5962 4250.96 4199.39 72.15
17136 66.6000 4127.52 4198.90 69.81
17137 66.6037 4189.26 4198.39 70.63
17138 66.6075 4161.04 4197.86 71.64
17139 66.6113 4221.91 4197.31 72.06
17140 66.6150 4215.42 4196.76 72.19
17141 66.6188 4158.56 4196.18 71.42
17142 66.6225 4197.17 4195.60 71.20
17143 66.6263 4170.02 4194.98 71.69
17144 66.6300 4249.16 4194.37 71.62
17145 66.6338 4324.09 4193.72 71.62
17146 66.6375 4153.62 4193.07 71.30
17147 66.6413 4250.52 4192.40 72.09
17148 66.6450 4175.47 4191.72 71.66
17149 66.6488 4249.73 4191.02 69.92
17150 66.6526 4306.42 4190.30 73.98
17151 66.6563 4246.38 4189.58 73.21
17152 66.6601 4222.31 4188.83 71.93
17153 66.6638 4196.59 4188.09 70.96
17154 66.6676 4182.33 4187.31 71.24
17155 66.6713 4321.30 4186.54 72.63
17156 66.6751 4154.96 4185.74 71.81
17157 66.6788 4199.04 4184.94 71.31
17158 66.6826 4205.88 4184.12 71.80
17159 66.6863 4175.34 4183.30 71.07
17160 66.6901 4139.87 4182.45 71.82
17161 66.6939 4228.04 4181.59 72.14
17162 66.6976 4162.03 4180.74 71.26
17163 66.7014 4202.22 4179.86 70.09
17164 66.7051 4223.74 4178.98 70.55
17165 66.7089 4248.03 4178.08 71.58
17166 66.7126 4247.77 4177.19 72.21
17167 66.7164 4124.47 4176.27 71.11
17168 66.7201 4211.39 4175.36 72.08
17169 66.7239 4187.23 4174.42 71.60
17170 66.7276 4201.97 4173.50 71.89
17171 66.7314 4181.63 4172.54 72.18
17172 66.7351 4280.31 4171.60 72.56
17173 66.7389 4225.52 4170.63 72.43
17174 66.7426 4066.24 4169.67 69.94
17175 66.7464 4171.76 4168.69 71.70
17176 66.7502 4179.94 4167.69 70.75
17177 66.7539 4173.09 4166.72 71.95
17178 66.7577 4237.27 4165.71 72.33
17179 66.7614 4243.49 4164.73 72.45
17180 66.7652 4166.35 4163.71 71.24
17181 66.7689 4175.41 4162.71 71.03
17182 66.7727 4026.12 4161.69 70.63
17183 66.7764 4230.31 4160.68 71.85
17184 66.7802 4194.42 4159.65 70.13
17185 66.7839 4145.78 4158.64 72.26
17186 66.7877 4111.39 4157.59 70.34
17187 66.7914 4130.37 4156.57 71.03
17188 66.7952 4167.67 4155.52 71.54
17189 66.7990 4155.16 4154.47 70.00
17190 66.8027 4280.28 4153.44 72.71
17191 66.8065 4235.35 4152.38 71.91
17192 66.8102 4257.65 4151.35 71.29
17193 66.8140 4179.41 4150.29 71.26
17194 66.8177 4129.80 4149.25 71.94
17195 66.8215 4090.69 4148.19 70.79
17196 66.8252 4127.31 4147.15 71.07
17197 66.8290 4306.30 4146.08 72.22
17198 66.8327 4127.30 4145.04 71.85
17199 66.8365 4322.62 4143.98 72.62
17200 66.8402 4031.58 4142.94 70.41
17201 66.8440 4379.97 4141.87 73.44
17202 66.8478 4120.56 4140.80 71.10
17203 66.8515 4060.91 4139.77 69.70
17204 66.8553 4090.10 4138.70 72.10
17205 66.8590 4000.42 4137.66 70.31
17206 66.8627 4216.92 4136.60 72.11
17207 66.8665 4187.75 4135.57 71.41
17208 66.8703 4073.64 4134.51 70.25
17209 66.8740 4158.74 4133.48 71.98
17210 66.8778 4164.02 4132.42 70.81
17211 66.8815 4148.02 4131.39 71.50
17212 66.8853 4191.80 4130.34 72.19
17213 66.8890 4183.46 4129.32 72.15
17214 66.8928 4057.28 4128.28 70.86
17215 66.8965 4217.08 4127.26 72.50
17216 66.9003 4079.82 4126.22 71.33
17217 66.9040 4142.68 4125.22 71.03
17218 66.9078 3933.29 4124.19 69.55
17219 66.9115 4074.67 4123.19 70.98
17220 66.9153 4109.96 4122.16 71.18
17221 66.9191 4048.05 4121.15 69.97
17222 66.9228 4086.13 4120.16 70.42
17223 66.9266 4133.69 4119.15 70.14
17224 66.9303 4198.03 4118.17 72.10
17225 66.9341 4004.66 4117.17 71.17
17226 66.9378 4072.04 4116.21 70.78
17227 66.9416 4084.92 4115.21 70.61
17228 66.9453 4042.59 4114.26 70.99
17229 66.9491 4061.18 4113.28 69.92
17230 66.9528 4162.76 4112.33 72.03
17231 66.9566 4115.99 4111.37 70.85
17232 66.9603 3962.78 4110.43 70.06
17233 66.9641 4054.81 4109.48 69.55
17234 66.9678 3923.03 4108.56 69.11
17235 66.9716 4148.98 4107.62 71.34
17236 66.9753 4123.34 4106.71 72.08
17237 66.9791 4084.37 4105.78 71.86
17238 66.9829 4126.24 4104.87 70.35
17239 66.9866 4151.37 4103.98 72.17
17240 66.9889 4103.62 4103.43 71.78
17241 66.9927 4101.69 4102.53 70.79
17242 66.9964 4034.59 4101.66 70.98
17243 67.0002 4153.32 4100.77 71.99
17244 67.0039 4122.74 4099.92 71.52
17245 67.0077 4082.91 4099.05 71.23
17246 67.0115 3969.16 4098.19 70.90
17247 67.0152 4016.80 4097.36 70.15
17248 67.0190 4028.76 4096.51 70.71
17249 67.0227 4097.27 4095.70 71.06
17250 67.0265 4156.31 4094.87 71.97
17251 67.0302 4043.93 4094.07 70.40
17252 67.0340 4100.56 4093.26 70.63
17253 67.0377 4080.33 4092.48 70.28
17254 67.0415 4026.68 4091.69 71.12
17255 67.0452 4053.36 4090.93 70.93
17256 67.0490 4013.38 4090.15 69.45
17257 67.0528 4084.10 4089.39 70.09
17258 67.0565 4053.57 4088.65 69.87
17259 67.0603 4053.75 4087.91 70.50
17260 67.0640 4049.57 4087.19 68.65
17261 67.0678 3996.23 4086.46 69.47
17262 67.0715 4054.40 4085.77 70.70
17263 67.0753 4067.05 4085.06 70.84
17264 67.0790 4108.25 4084.38 70.92
17265 67.0828 4049.50 4083.69 70.42
17266 67.0866 4042.60 4083.01 69.18
17267 67.0903 4101.92 4082.37 69.98
17268 67.0941 4069.63 4081.71 70.94
17269 67.0978 4169.97 4081.08 71.74
17270 67.1016 3985.90 4080.45 70.17
17271 67.1053 4092.19 4079.84 70.95
17272 67.1091 4042.26 4079.22 69.91
17273 67.1127 4038.91 4078.63 70.61
17274 67.1166 4044.86 4078.04 69.87
17275 67.1203 4044.00 4077.47 69.20
17276 67.1241 3995.00 4076.90 69.96
17277 67.1278 3948.19 4076.36 69.40
17278 67.1316 3904.03 4075.81 69.23
17279 67.1354 4001.70 4075.27 67.82
17280 67.1391 4049.81 4074.76 71.70
17281 67.1429 4101.82 4074.24 71.99
17282 67.1466 3912.83 4073.76 69.16
17283 67.1504 3965.30 4073.26 68.95
17284 67.1541 4099.94 4072.79 70.62
17285 67.1579 4090.96 4072.33 70.64
17286 67.1616 4107.10 4071.88 71.51
17287 67.1654 4015.58 4071.43 69.75
17288 67.1691 4019.06 4071.01 70.19
17289 67.1729 4066.12 4070.59 70.20
17290 67.1766 3975.86 4070.19 70.41
17291 67.1804 3973.25 4069.79 69.89
17292 67.1842 3961.54 4069.40 69.52
17293 67.1879 4129.52 4069.04 69.58
17294 67.1917 4076.25 4068.74 69.35
17295 67.1954 4006.95 4068.40 69.49
17296 67.1992 4007.17 4068.06 70.10
17297 67.2029 4135.24 4067.74 71.36
17298 67.2067 3979.32 4067.43 70.04
17299 67.2104 4006.52 4067.14 70.05
17300 67.2142 3978.70 4066.84 69.93
17301 67.2179 3975.62 4066.57 70.37
17302 67.2181 3915.16 4066.56 68.08
17303 67.2218 4037.86 4066.30 69.09
17304 67.2256 3875.63 4066.05 67.04
17305 67.2293 4049.74 4065.82 69.00
17306 67.2331 4035.67 4065.59 69.58
17307 67.2368 3896.85 4065.38 67.57
17308 67.2405 3959.89 4065.18 68.75
17309 67.2443 4042.92 4064.99 69.42
17310 67.2481 3985.55 4064.81 68.33
17311 67.2517 3998.54 4064.65 69.57
17312 67.2556 3949.14 4064.50 69.21
17313 67.2593 3956.31 4064.36 68.42
17314 67.2631 3913.47 4064.24 67.10
17315 67.2668 3882.74 4064.12 66.94
17316 67.2706 3862.83 4064.02 68.05
17317 67.2743 4099.10 4063.94 69.52
17318 67.2781 3873.72 4063.86 67.65
17319 67.2819 3998.81 4063.79 69.43
17320 67.2856 3914.69 4063.74 68.05
17321 67.2894 4003.73 4063.71 69.21
17322 67.2931 3864.06 4063.68 67.85
17323 67.2969 3972.63 4063.67 69.30
17324 67.3006 3859.33 4063.67 67.41
17325 67.3044 4076.76 4063.68 69.62
17326 67.3081 3985.94 4063.70 69.08
17327 67.3119 4052.42 4063.74 69.38
17328 67.3156 3886.55 4063.79 67.76
17329 67.3194 3971.80 4063.85 68.80
17330 67.3231 3919.76 4063.92 68.40
17331 67.3269 4066.95 4064.01 69.53
17332 67.3306 3976.65 4064.11 69.21
17333 67.3344 4017.88 4064.22 68.81
17334 67.3382 4089.06 4064.35 69.74
17335 67.3419 4121.17 4064.48 69.68
17336 67.3457 4009.77 4064.63 68.82
17337 67.3494 4117.88 4064.79 68.99
17338 67.3532 4120.91 4064.97 71.25
17339 67.3569 4090.62 4065.15 70.24
17340 67.3607 4061.94 4065.36 69.91
17341 67.3644 3980.51 4065.57 68.81
17342 67.3682 4077.38 4065.79 68.24
17343 67.3719 4020.07 4066.02 69.52
17344 67.3757 4023.46 4066.28 68.72
17345 67.3794 4042.48 4066.53 69.24
17346 67.3832 4074.83 4066.81 69.75
17347 67.3870 4244.26 4067.10 70.99
17348 67.3907 4015.11 4067.39 69.50
17349 67.3945 4238.76 4067.70 71.48
17350 67.3982 4083.53 4068.02 70.07
17351 67.4020 4076.10 4068.36 70.07
17352 67.4057 4096.58 4068.70 69.50
17353 67.4095 4185.87 4069.06 70.80
17354 67.4132 4159.59 4069.43 70.92
17355 67.4170 4231.39 4069.81 71.27
17356 67.4207 4137.73 4070.20 69.41
17357 67.4245 4089.28 4070.61 69.86
17358 67.4282 4150.28 4071.02 70.07
17359 67.4320 4161.19 4071.46 70.40
17360 67.4358 4215.76 4071.90 70.38
17361 67.4395 4128.98 4072.35 70.95
17362 67.4433 4103.44 4072.82 69.62
17363 67.4470 4208.10 4073.29 70.27
17364 67.4508 4044.81 4073.78 68.68
17365 67.4545 4241.01 4074.27 72.50
17366 67.4583 4166.96 4074.79 70.66
17367 67.4620 4229.05 4075.30 70.85
17368 67.4658 4282.67 4075.84 70.76
17369 67.4695 4109.78 4076.37 69.89
17370 67.4733 4222.81 4076.93 70.76
17371 67.4770 4321.01 4077.49 71.84
17372 67.4808 4226.31 4078.08 71.79
17373 67.4846 4320.16 4078.67 72.25
17374 67.4883 4172.44 4079.26 70.56
17375 67.4921 4342.82 4079.87 72.43
17376 67.4958 4290.97 4080.48 71.68
17377 67.4996 4300.94 4081.12 72.28
17378 67.5033 4400.63 4081.75 73.52
17379 67.5071 4295.70 4082.41 71.85
17380 67.5108 4209.84 4083.06 71.03
17381 67.5146 4286.08 4083.74 71.33
17382 67.5183 4254.72 4084.42 71.57
17383 67.5221 4346.29 4085.12 72.88
17384 67.5259 4401.90 4085.83 73.00
17385 67.5296 4419.59 4086.53 72.48
17386 67.5334 4425.13 4087.26 72.60
17387 67.5371 4274.87 4087.98 71.80
17388 67.5409 4352.14 4088.73 72.81
17389 67.5446 4417.27 4089.47 72.14
17390 67.5484 4274.65 4090.23 70.66
17391 67.5521 4498.92 4090.99 75.46
17392 67.5558 4392.83 4091.78 72.97
17393 67.5596 4500.12 4092.56 73.40
17394 67.5634 4318.28 4093.36 70.62
17395 67.5672 4393.43 4094.18 72.49
17396 67.5709 4401.44 4094.98 73.49
17397 67.5747 4482.31 4095.81 74.00
17398 67.5784 4383.37 4096.63 72.52
17399 67.5822 4383.50 4097.48 73.05
17400 67.5859 4357.42 4098.31 72.39
17401 67.5897 4446.73 4099.17 73.87
17402 67.5934 4352.25 4100.02 71.94
17403 67.5972 4485.70 4100.91 73.71
17404 67.6009 4416.02 4101.77 73.41
17405 67.6047 4555.03 4102.67 74.84
17406 67.6085 4262.50 4103.57 71.96
17407 67.6122 4408.51 4104.46 73.01
17408 67.6160 4410.02 4105.38 73.43
17409 67.6197 4452.80 4106.28 72.82
17410 67.6235 4409.85 4107.21 73.09
17411 67.6272 4372.95 4108.13 72.67
17412 67.6310 4431.71 4109.07 73.58
17413 67.6347 4445.46 4110.00 72.80
17414 67.6385 4476.18 4109.85 73.71
17415 67.6423 4310.75 4110.81 71.53
17416 67.6460 4358.41 4111.76 72.45
17417 67.6498 4423.73 4112.74 71.55
17418 67.6535 4338.59 4113.69 74.20
17419 67.6573 4419.56 4114.68 73.51
17420 67.6610 4378.55 4115.65 72.04
17421 67.6648 4298.28 4116.65 71.17
17422 67.6685 4276.67 4117.63 71.79
17423 67.6723 4341.75 4118.63 72.48
17424 67.6761 4433.22 4119.65 73.71
17425 67.6798 4242.87 4120.63 70.89
17426 67.6836 4345.05 4121.66 73.08
17427 67.6873 4416.60 4122.65 72.26
17428 67.6911 4334.43 4123.68 72.10
17429 67.6948 4393.09 4124.69 73.51
17430 67.6986 4266.67 4125.73 71.62
17431 67.7023 4331.74 4126.74 72.39
17432 67.7061 4255.22 4127.78 71.64
17433 67.7097 4240.61 4128.80 71.40
17434 67.7136 4303.69 4129.85 72.08
17435 67.7174 4214.60 4130.89 71.25
17436 67.7211 4200.70 4131.92 71.28
17437 67.7249 4346.07 4132.97 71.81
17438 67.7286 4073.67 4134.00 70.02
17439 67.7324 4208.73 4135.05 71.88
17440 67.7361 4243.60 4136.08 71.71
17441 67.7399 4316.29 4137.14 72.57
17442 67.7436 4305.11 4138.17 71.87
17443 67.7474 4176.11 4139.23 70.69
17444 67.7512 4161.08 4140.28 69.56
17445 67.7549 4256.10 4141.31 73.45
17446 67.7587 4232.82 4142.37 71.44
17447 67.7624 4186.95 4143.40 70.81
17448 67.7662 4169.17 4144.45 71.28
17449 67.7699 4167.42 4145.47 70.64
17450 67.7737 4094.13 4146.53 70.65
17451 67.7774 4257.79 4147.55 72.05
17452 67.7812 4210.74 4148.60 71.62
17453 67.7850 4308.43 4149.65 71.97
17454 67.7887 4088.70 4150.66 69.94
17455 67.7925 4153.69 4151.70 71.35
17456 67.7962 4073.31 4152.71 69.81
17457 67.8000 4153.67 4153.74 70.94
17458 67.8037 4035.98 4154.75 70.05
17459 67.8075 4245.69 4155.77 71.24
17460 67.8112 4192.73 4156.76 71.27
17461 67.8150 4185.04 4157.78 71.54
17462 67.8188 4219.95 4158.79 71.38
17463 67.8225 4144.10 4159.77 70.69
17464 67.8263 4179.81 4160.77 70.84
17465 67.8300 4210.58 4161.73 70.94
17466 67.8338 4196.87 4162.72 71.29
17467 67.8375 4097.50 4163.68 70.23
17468 67.8413 4093.98 4164.65 70.92
17469 67.8451 4093.92 4165.62 70.33
17470 67.8487 4003.97 4166.55 68.05
17471 67.8526 4158.20 4167.50 71.57
17472 67.8563 4203.10 4168.42 72.49
17473 67.8601 4080.74 4169.35 71.14
17474 67.8638 4119.73 4170.25 69.87
17475 67.8676 4073.52 4171.17 69.82
17476 67.8713 4133.36 4172.05 70.86
17477 67.8751 4012.85 4172.94 69.09
17478 67.8788 4016.25 4173.81 69.54
17479 67.8826 4090.26 4174.68 70.04
17480 67.8864 3998.15 4175.55 69.64
17481 67.8901 4115.23 4176.38 71.12
17482 67.8939 3919.75 4177.22 68.92
17483 67.8976 4106.37 4178.03 70.38
17484 67.9014 4088.04 4178.85 70.89
17485 67.9051 4164.52 4179.63 71.02
17486 67.9089 4214.80 4180.43 71.63
17487 67.9127 4081.54 4181.21 70.55
17488 67.9164 4048.55 4181.95 69.65
17489 67.9202 4179.51 4182.70 71.85
17490 67.9239 4170.43 4183.43 71.46
17491 67.9277 4043.73 4184.15 69.33
17492 67.9314 4092.22 4184.84 71.15
17493 67.9352 4182.47 4185.54 71.20
17494 67.9390 4090.43 4186.22 69.97
17495 67.9427 4025.04 4186.87 70.64
17496 67.9465 3980.19 4187.52 69.15
17497 67.9502 4100.15 4188.14 68.37
17498 67.9540 4088.30 4188.76 71.93
17499 67.9577 3954.54 4189.35 70.10
17500 67.9615 3934.12 4189.93 68.44
17501 67.9652 4066.87 4190.49 69.32
17502 67.9690 4106.28 4191.04 70.22
17503 67.9728 4143.01 4191.58 71.04
17504 67.9765 4018.16 4192.09 69.63
17505 67.9803 4106.68 4192.59 70.48
17506 67.9840 3999.34 4193.06 70.19
17507 67.9877 4039.80 4193.52 69.71
17508 67.9915 3973.91 4193.96 69.78
17509 67.9953 4116.71 4194.39 70.63
17510 67.9990 4011.09 4194.79 70.38
17511 68.0028 4051.20 4195.19 70.52
17512 68.0066 4200.48 4195.57 72.30
17513 68.0103 4104.89 4195.91 71.17
17514 68.0141 4101.44 4196.25 70.78
17515 68.0178 4099.03 4196.56 70.97
17516 68.0216 4213.93 4196.87 72.36
17517 68.0253 3980.45 4197.14 69.72
17518 68.0291 3954.68 4197.41 69.86
17519 68.0329 4131.67 4197.65 71.22
17520 68.0366 4110.96 4197.87 71.13
17521 68.0404 4120.58 4198.08 70.81
17522 68.0441 4140.72 4198.26 71.90
17523 68.0479 3984.18 4198.43 68.75
17524 68.0516 4023.50 4198.58 69.23
17525 68.0554 4163.27 4198.71 72.57
17526 68.0592 4087.24 4198.82 71.07
17527 68.0629 4170.15 4198.92 71.25
17528 68.0667 4181.61 4198.99 70.87
17529 68.0704 4095.81 4199.05 71.20
17530 68.0742 4122.21 4199.09 70.79
17531 68.0779 4058.05 4199.11 70.85
17532 68.0817 4228.20 4199.11 73.03
17533 68.0855 4242.65 4199.09 72.61
17534 68.0892 4149.32 4199.06 70.82
17535 68.0930 4163.74 4199.01 71.27
17536 68.0967 4069.06 4198.94 70.28
17537 68.1005 4177.87 4198.85 71.99
17538 68.1042 4071.73 4198.75 71.14
17539 68.1080 4190.24 4198.63 72.18
17540 68.1118 4110.27 4198.49 71.33
17541 68.1155 4105.77 4198.34 71.56
17542 68.1193 4102.00 4198.17 71.02
17543 68.1230 4174.74 4197.99 70.98
17544 68.1268 4212.77 4197.79 71.91
17545 68.1305 4155.65 4197.57 71.55
17546 68.1343 4150.63 4197.34 71.61
17547 68.1380 4277.43 4197.09 72.38
17548 68.1418 4148.59 4196.83 71.66
17549 68.1456 4123.44 4196.55 71.66
17550 68.1493 4131.32 4196.26 70.94
17551 68.1531 4141.75 4195.95 71.58
17552 68.1568 4280.76 4195.64 74.03
17553 68.1606 4290.17 4195.31 72.61
17554 68.1643 4099.18 4194.97 69.88
17555 68.1681 4255.33 4194.61 71.53
17556 68.1719 4315.34 4194.23 73.34
17557 68.1756 4240.87 4193.86 72.06
17558 68.1794 4042.90 4193.46 70.90
17559 68.1831 4192.88 4193.06 70.96
17560 68.1869 4168.73 4192.64 70.77
17561 68.1906 4118.20 4192.22 70.48
17562 68.1944 4273.23 4191.78 71.26
17563 68.1982 4256.38 4191.32 71.49
17564 68.2019 4204.28 4190.88 72.06
17565 68.2057 4288.60 4190.41 72.53
17566 68.2094 4151.59 4189.94 70.98
17567 68.2132 4133.23 4189.45 71.14
17568 68.2170 4175.34 4188.95 71.42
17569 68.2207 4242.44 4188.46 72.11
17570 68.2245 4208.13 4187.95 71.00
17571 68.2282 4195.75 4187.44 71.20
17572 68.2320 4082.46 4186.91 70.88
17573 68.2357 4308.55 4186.39 72.80
17574 68.2395 4194.29 4185.85 71.55
17575 68.2433 4183.38 4185.30 71.96
17576 68.2470 4017.64 4184.77 69.52
17577 68.2508 4196.97 4184.21 70.61
17578 68.2545 4055.32 4183.65 71.28
17579 68.2583 4201.13 4183.08 71.62
17580 68.2620 4142.81 4182.52 70.37
17581 68.2658 4254.90 4181.93 71.60
17582 68.2694 4121.57 4181.36 70.77
17583 68.2733 4147.65 4180.77 71.98
17584 68.2771 4080.40 4180.18 69.87
17585 68.2808 4225.77 4179.60 72.50
17586 68.2846 4219.58 4179.01 71.52
17587 68.2883 4261.51 4178.42 72.23
17588 68.2921 4113.63 4177.82 71.29
17589 68.2959 4165.18 4177.22 70.94
17590 68.2996 4168.67 4176.64 70.16
17591 68.3034 4258.05 4176.03 72.27
17592 68.3071 4148.89 4175.45 71.53
17593 68.3109 4176.04 4174.84 71.27
17594 68.3146 4292.29 4174.25 72.83
17595 68.3184 4219.20 4173.65 71.49
17596 68.3222 4163.67 4173.05 71.59
17597 68.3259 4101.68 4172.47 70.07
17598 68.3297 4163.71 4171.87 71.46
17599 68.3334 4194.12 4171.29 71.77
17600 68.3372 4052.18 4170.69 69.86
17601 68.3409 4127.07 4170.11 71.06
17602 68.3447 4301.85 4169.52 72.24
17603 68.3485 4212.81 4168.93 71.53
17604 68.3522 4106.61 4168.36 68.19
17605 68.3560 4294.47 4167.78 73.91
17606 68.3597 4142.80 4167.22 71.92
17607 68.3635 4231.92 4166.64 71.62
17608 68.3672 4204.20 4166.08 71.12
17609 68.3710 4128.65 4165.52 70.29
17610 68.3748 4228.38 4164.96 70.98
17611 68.3785 4188.78 4164.41 70.62
17612 68.3823 4181.88 4163.86 72.01
17613 68.3860 4175.85 4163.32 71.24
17614 68.3898 4042.28 4162.78 69.69
17615 68.3936 4201.86 4162.24 70.12
17616 68.3973 4192.43 4161.72 71.84
17617 68.4011 4182.29 4161.19 72.39
17618 68.4048 4071.58 4160.68 69.97
17619 68.4086 4211.01 4160.17 72.19
17620 68.4123 4116.03 4159.67 70.96
17621 68.4161 4217.60 4159.16 71.63
17622 68.4199 4016.11 4158.67 70.49
17623 68.4236 4189.18 4158.19 71.86
17624 68.4274 4079.72 4157.71 70.49
17625 68.4311 4147.12 4157.24 70.61
17626 68.4349 4210.37 4156.77 72.08
17627 68.4386 4196.40 4156.32 72.17
17628 68.4424 4103.66 4155.86 70.65
17629 68.4462 4173.35 4155.41 71.62
17630 68.4499 4114.35 4154.98 69.93
17631 68.4537 4162.59 4154.54 71.18
17632 68.4574 4180.83 4154.13 72.22
17633 68.4612 4193.04 4153.71 71.72
17634 68.4649 4088.80 4153.30 70.20
17635 68.4687 4110.24 4152.90 70.33
17636 68.4725 4180.45 4152.50 70.66
17637 68.4762 4162.46 4152.12 71.18
17638 68.4800 4190.98 4151.74 72.78
17639 68.4837 4202.47 4151.38 72.12
17640 68.4875 4162.02 4151.01 71.52
17641 68.4913 4305.75 4150.66 72.92
17642 68.4950 4154.90 4150.31 71.55
17643 68.4988 4204.58 4149.97 72.09
17644 68.5025 4089.88 4149.65 71.04
17645 68.5063 4198.40 4149.32 72.33
17646 68.5100 4085.97 4149.01 70.46
17647 68.5138 4182.57 4148.70 71.01
17648 68.5176 4084.50 4148.40 71.78
17649 68.5213 4175.52 4148.12 72.05
17650 68.5251 4104.84 4147.83 70.63
17651 68.5288 4139.50 4147.56 70.73
17652 68.5326 4091.74 4147.29 71.29
17653 68.5362 4118.49 4147.04 71.19
17654 68.5401 4057.93 4146.78 71.02
17655 68.5439 4138.93 4146.54 71.39
17656 68.5476 4003.33 4146.30 70.72
17657 68.5514 4115.37 4146.07 69.55
17658 68.5551 4208.05 4145.86 74.00
17659 68.5589 4248.31 4145.65 73.06
17660 68.5627 4035.38 4145.44 70.05
17661 68.5664 4065.56 4145.24 70.90
17662 68.5702 4050.69 4145.05 70.48
17663 68.5739 4167.28 4144.87 71.89
17664 68.5777 4119.04 4144.69 71.28
17665 68.5814 4190.56 4144.53 71.44
17666 68.5852 4026.10 4144.36 70.44
17667 68.5890 4123.05 4144.21 71.25
17668 68.5927 4123.02 4144.06 71.41
17669 68.5965 4221.27 4143.92 71.98
17670 68.6002 3966.12 4143.79 70.24
17671 68.6040 4078.37 4143.66 70.48
17672 68.6078 4111.41 4143.54 71.03
17673 68.6115 3987.49 4143.42 70.51
17674 68.6153 4046.47 4143.31 70.92
17675 68.6190 4017.52 4143.21 70.08
17676 68.6228 4110.63 4143.10 71.11
17677 68.6266 4104.42 4143.01 71.18
17678 68.6303 4101.70 4142.93 70.77
17679 68.6341 4179.21 4142.84 71.76
17680 68.6378 3922.89 4142.77 70.27
17681 68.6416 4174.49 4142.69 71.06
17682 68.6453 4109.74 4142.63 70.58
17683 68.6491 4160.63 4142.56 71.24
17684 68.6529 3885.91 4142.50 67.42
17685 68.6566 4223.98 4142.45 72.97
17686 68.6604 4031.43 4142.40 68.73
17687 68.6640 4131.57 4142.35 70.54
17688 68.6679 3888.69 4142.31 67.92
17689 68.6716 4075.64 4142.27 69.61
17690 68.6754 3959.90 4142.23 68.09
17691 68.6792 4075.54 4142.19 70.65
17692 68.6829 3970.79 4142.16 69.74
17693 68.6867 4006.38 4142.13 69.84
17694 68.6904 4067.46 4142.10 71.33
17695 68.6942 4010.21 4142.07 70.09
17696 68.6980 4069.28 4142.04 70.16
17697 68.7017 4017.49 4142.02 69.74
17698 68.7055 3900.05 4142.00 69.11
17699 68.7092 4046.98 4141.98 69.30
17700 68.7130 4086.55 4141.95 71.17
17701 68.7168 4033.24 4141.93 70.07
17702 68.7205 4017.27 4141.91 70.03
17703 68.7243 4095.76 4141.89 71.26
17704 68.7280 4048.15 4141.87 69.66
17705 68.7318 4096.19 4141.84 70.30
17706 68.7355 4067.64 4141.82 69.51
17707 68.7393 4041.28 4141.79 70.60
17708 68.7431 3957.47 4141.76 69.40
17709 68.7468 4099.46 4141.73 70.35
17710 68.7506 4025.50 4141.70 68.59
17711 68.7543 4137.08 4141.67 70.87
17712 68.7581 4171.36 4141.63 72.14
17713 68.7619 4046.41 4141.58 70.01
17714 68.7656 3907.10 4141.54 67.92
17715 68.7694 4037.25 4141.49 69.28
17716 68.7731 4047.05 4141.43 69.66
17717 68.7769 4005.25 4141.38 70.10
17718 68.7807 4083.36 4141.31 70.29
17719 68.7844 4036.90 4141.25 68.28
17720 68.7882 3947.54 4141.17 69.24
17721 68.7918 4058.31 4141.09 69.62
17722 68.7957 3999.54 4141.01 69.61
17723 68.7994 4027.51 4140.98 69.79
17724 68.8032 3982.79 4140.88 69.85
17725 68.8070 3929.36 4140.77 67.03
17726 68.8107 4009.53 4140.66 69.86
17727 68.8145 4069.03 4140.54 70.61
17728 68.8182 3933.70 4140.41 68.62
17729 68.8220 3965.77 4140.27 69.30
17730 68.8257 4050.16 4140.13 70.55
17731 68.8295 4000.33 4139.97 69.51
17732 68.8333 3923.67 4139.58 67.38
17733 68.8370 3976.00 4139.41 68.63
17734 68.8408 4074.77 4139.23 70.80
17735 68.8445 4062.19 4139.04 69.95
17736 68.8483 3940.40 4138.83 68.15
17737 68.8521 3950.15 4138.62 67.62
17738 68.8558 3977.31 4138.39 70.58
17739 68.8596 4034.09 4138.16 69.88
17740 68.8633 4093.63 4137.91 69.15
17741 68.8671 4033.36 4137.65 69.81
17742 68.8709 3988.82 4137.38 68.77
17743 68.8746 4131.92 4137.10 70.20
17744 68.8784 3901.35 4136.80 68.72
17745 68.8821 4086.61 4136.50 70.39
17746 68.8859 3955.63 4136.17 69.69
17747 68.8897 4019.10 4135.84 69.79
17748 68.8934 3907.27 4135.49 68.91
17749 68.8972 4037.92 4135.13 69.24
17750 68.9009 4018.66 4134.76 70.18
17751 68.9047 4012.01 4134.37 69.79
17752 68.9084 4034.87 4133.98 70.38
17753 68.9122 3969.74 4133.56 69.05
17754 68.9160 3994.10 4133.12 70.80
17755 68.9196 3989.84 4132.69 70.36
17756 68.9235 4104.83 4132.22 70.80
17757 68.9272 4115.23 4131.75 70.44
17758 68.9310 3877.26 4131.26 68.71
17759 68.9348 4093.86 4130.75 70.88
17760 68.9385 4163.40 4130.24 71.23
17761 68.9423 4102.56 4129.70 70.19
17762 68.9460 3992.14 4129.16 70.19
17763 68.9498 3927.36 4128.59 67.84
17764 68.9535 4171.64 4128.02 70.15
17765 68.9573 4123.44 4127.42 72.37
17766 68.9611 3965.15 4126.80 67.91
17767 68.9648 4044.37 4126.18 70.42
17768 68.9686 3975.48 4125.53 69.09
17769 68.9723 4092.02 4124.89 69.79
17770 68.9761 4187.87 4124.21 69.68
17771 68.9799 4099.86 4123.51 71.01
17772 68.9836 4106.97 4122.82 70.66
17773 68.9874 4103.62 4122.09 71.69
17774 68.9911 4112.74 4121.37 70.66
17775 68.9949 4301.60 4120.61 72.35
17776 68.9987 4147.67 4119.83 71.21
17777 69.0024 4223.12 4119.06 72.74
17778 69.0062 4015.51 4118.26 69.82
17779 69.0099 4106.38 4117.46 71.04
17780 69.0137 4089.67 4116.62 71.31
17781 69.0175 4176.22 4115.77 71.04
17782 69.0212 4134.60 4114.93 71.95
17783 69.0250 4130.28 4114.05 71.12
17784 69.0287 4062.30 4113.18 70.65
17785 69.0325 4192.84 4112.27 71.46
17786 69.0363 4100.56 4111.34 71.38
17787 69.0400 4217.93 4110.43 72.38
17788 69.0438 3955.48 4109.47 69.52
17789 69.0475 3969.42 4108.53 69.64
17790 69.0513 3987.50 4107.55 68.61
17791 69.0550 4293.06 4106.58 73.80
17792 69.0588 4202.72 4105.57 72.21
17793 69.0626 4118.44 4104.55 71.38
17794 69.0663 4068.69 4103.54 70.27
17795 69.0701 4114.29 4102.49 70.83
17796 69.0738 4304.19 4101.46 72.81
17797 69.0776 4067.08 4100.38 70.85
17798 69.0814 4196.85 4099.30 71.55
17799 69.0851 4123.41 4098.23 70.38
17800 69.0889 4145.50 4097.12 71.33
17801 69.0926 4083.89 4096.03 71.61
17802 69.0964 4193.94 4094.89 71.76
17803 69.1002 4160.15 4093.75 71.19
17804 69.1039 4072.23 4092.62 71.07
17805 69.1077 4213.91 4091.45 71.53
17806 69.1114 4077.30 4090.31 70.21
17807 69.1152 4173.60 4089.12 71.90
17808 69.1189 4262.22 4087.95 72.77
17809 69.1227 4140.25 4086.75 70.18
17810 69.1265 4036.42 4085.53 69.27
17811 69.1302 4147.93 4084.33 69.75
17812 69.1340 4166.24 4083.10 70.90
17813 69.1377 4080.82 4081.88 69.30
17814 69.1415 4082.27 4080.63 69.43
17815 69.1453 4108.46 4079.37 69.76
17816 69.1490 3907.11 4078.13 67.58
17817 69.1528 4243.49 4076.86 70.97
17818 69.1565 4104.61 4075.60 70.25
17819 69.1603 4042.41 4074.31 70.08
17820 69.1641 4095.11 4073.01 69.27
17821 69.1678 3963.20 4071.74 67.77
17822 69.1716 4001.88 4070.42 69.21
17823 69.1753 4147.38 4069.14 70.51
17824 69.1791 4089.21 4067.81 70.41
17825 69.1829 4126.78 4066.48 70.48
17826 69.1866 4018.53 4065.18 69.08
17827 69.1904 4039.05 4063.83 69.23
17828 69.1941 4193.63 4062.52 71.49
17829 69.1979 4043.70 4061.17 70.03
17830 69.2016 4170.89 4059.85 70.74
17831 69.2054 4136.81 4058.49 70.18
17832 69.2092 4005.28 4057.12 70.06
17833 69.2129 4125.60 4055.79 70.47
17834 69.2167 4223.47 4054.41 71.56
17835 69.2204 4155.95 4053.07 71.22
17836 69.2242 4174.39 4051.69 71.70
17837 69.2280 4118.60 4050.30 69.51
17838 69.2317 3998.26 4048.95 68.66
17839 69.2355 4255.82 4047.57 72.30
17840 69.2392 4109.83 4046.21 69.84
17841 69.2430 4122.87 4044.82 70.42
17842 69.2468 4062.48 4043.42 69.67
17843 69.2505 3986.04 4042.06 68.63
17844 69.2543 4079.06 4040.66 68.83
17845 69.2580 4134.52 4039.30 71.88
17846 69.2618 4076.91 4037.90 69.40
17847 69.2656 4104.37 4036.50 69.24
17848 69.2693 4006.02 4035.13 69.17
17849 69.2731 4155.33 4033.72 71.00
17850 69.2768 4019.88 4032.36 69.65
17851 69.2806 4027.09 4030.95 69.92
17852 69.2844 4089.33 4029.55 70.59
17853 69.2881 4016.58 4028.19 68.59
17854 69.2919 4116.56 4026.78 70.70
17855 69.2956 4167.42 4025.42 69.39
17856 69.2994 4094.06 4024.01 69.88
17857 69.3031 4064.82 4022.65 70.10
17858 69.3069 4004.76 4021.25 68.89
17859 69.3107 4017.31 4019.85 69.83
17860 69.3144 3993.26 4018.49 69.56
17861 69.3182 3990.68 4017.09 69.27
17862 69.3219 4057.12 4015.73 70.70
17863 69.3257 3940.06 4014.34 68.72
17864 69.3295 4123.57 4012.95 70.16
17865 69.3332 4119.60 4011.60 70.96
17866 69.3370 4055.27 4010.22 69.42
17867 69.3407 3981.80 4008.87 69.31
17868 69.3445 4048.52 4007.49 70.48
17869 69.3483 3952.96 4006.11 68.25
17870 69.3520 3987.54 4004.77 68.36
17871 69.3558 4011.01 4003.40 70.69
17872 69.3595 4097.37 4002.07 70.71
17873 69.3633 4111.67 4000.70 71.07
17874 69.3671 3990.08 3999.34 69.18
17875 69.3708 3989.33 3998.02 69.25
17876 69.3746 3820.99 3996.67 67.57
17877 69.3783 3898.52 3995.35 67.76
17878 69.3821 3978.02 3994.01 69.01
17879 69.3859 3987.28 3992.66 69.61
17880 69.3896 3955.61 3991.36 68.51
17881 69.3934 4010.44 3990.02 69.86
17882 69.3971 3938.71 3988.73 69.20
17883 69.4009 4003.24 3987.40 69.92
17884 69.4047 3903.72 3986.08 68.92
17885 69.4084 4022.83 3984.80 69.61
17886 69.4122 4032.24 3983.49 69.98
17887 69.4159 3968.97 3982.22 68.89
17888 69.4197 3949.35 3980.92 69.68
17889 69.4234 3953.74 3979.65 69.38
17890 69.4272 3945.89 3978.36 69.52
17891 69.4310 4032.51 3977.07 68.76
17892 69.4347 3820.87 3975.83 68.11
17893 69.4385 3966.58 3974.55 68.80
17894 69.4422 4040.19 3973.31 69.82
17895 69.4460 3989.12 3972.05 68.32
17896 69.4498 3891.79 3970.79 68.52
17897 69.4535 3950.67 3969.57 68.10
17898 69.4573 4009.86 3968.32 71.94
17899 69.4610 3925.67 3967.12 69.31
17900 69.4648 3997.88 3965.88 68.67
17901 69.4686 3874.75 3964.65 66.95
17902 69.4723 3791.13 3963.46 67.60
17903 69.4761 4010.17 3962.25 69.50
17904 69.4798 3899.51 3961.06 69.27
17905 69.4836 4013.32 3959.86 70.01
17906 69.4874 3861.56 3958.67 68.24
17907 69.4911 4068.37 3957.51 70.07
17908 69.4949 3911.63 3956.32 68.66
17909 69.4986 4016.72 3955.17 69.91
17910 69.5024 3945.55 3954.00 69.01
17911 69.5062 3950.24 3952.84 70.00
17912 69.5099 4072.93 3951.71 70.10
17913 69.5137 3906.06 3950.56 69.58
17914 69.5174 3819.71 3949.44 67.62
17915 69.5212 4019.87 3948.30 70.12
17916 69.5250 3805.61 3947.17 67.78
17917 69.5287 3811.88 3946.08 67.13
17918 69.5325 3882.39 3944.96 68.69
17919 69.5362 3876.46 3943.88 68.66
17920 69.5400 3939.78 3942.77 69.38
17921 69.5438 4000.96 3941.68 69.91
17922 69.5475 3893.22 3940.62 68.09
17923 69.5513 3916.43 3939.53 68.15
17924 69.5550 4025.22 3938.49 70.41
17925 69.5588 3807.96 3937.42 67.81
17926 69.5625 3842.00 3936.39 68.15
17927 69.5663 3925.93 3935.33 68.60
17928 69.5701 3913.66 3934.29 69.59
17929 69.5738 4048.83 3933.28 70.23
17930 69.5776 3901.05 3932.25 68.82
17931 69.5813 3926.90 3931.25 69.83
17932 69.5851 3888.45 3930.23 68.80
17933 69.5889 3994.54 3929.22 69.15
17934 69.5926 3842.35 3928.25 68.68
17935 69.5964 3803.98 3927.25 67.92
17936 69.6001 3908.82 3926.29 69.71
17937 69.6039 3909.88 3925.31 69.36
17938 69.6077 3833.07 3924.34 67.29
17939 69.6114 3826.94 3923.40 66.48
17940 69.6152 3800.27 3922.45 66.77
17941 69.6189 3883.70 3921.52 68.13
17942 69.6227 3889.89 3920.58 67.85
17943 69.6265 3824.61 3919.64 67.06
17944 69.6302 3824.04 3918.74 67.39
17945 69.6340 3848.87 3917.82 68.00
17946 69.6377 3916.88 3916.93 68.22
17947 69.6415 3806.79 3916.03 66.93
17948 69.6453 3868.42 3915.13 67.74
17949 69.6490 3828.03 3914.27 67.00
17950 69.6528 3798.61 3913.38 66.14
17951 69.6565 3833.33 3912.53 69.27
17952 69.6603 3794.99 3911.67 67.26
17953 69.6640 3931.55 3910.81 68.52
17954 69.6678 3868.17 3909.98 67.14
17955 69.6716 3801.33 3909.13 67.21
17956 69.6753 3846.62 3908.32 67.83
17957 69.6791 3871.52 3907.49 67.81
17958 69.6828 3930.46 3906.69 69.06
17959 69.6866 3983.70 3905.87 69.30
17960 69.6904 3891.77 3905.07 68.48
17961 69.6941 3847.94 3904.29 67.88
17962 69.6979 3793.25 3903.50 66.94
17963 69.7016 3936.20 3902.73 69.02
17964 69.7054 3810.88 3901.96 66.90
17965 69.7092 3923.33 3901.18 68.26
17966 69.7129 3819.95 3900.44 68.10
17967 69.7167 3821.46 3899.69 66.58
17968 69.7204 3917.99 3898.96 68.68
17969 69.7242 3850.01 3898.22 67.47
17970 69.7280 3829.12 3897.49 67.20
17971 69.7317 3926.11 3896.78 68.23
17972 69.7355 3881.86 3896.06 67.64
17973 69.7392 3809.84 3895.37 66.94
17974 69.7430 3778.64 3894.67 67.08
17975 69.7468 3908.43 3893.97 68.00
17976 69.7505 3791.83 3893.30 66.38
17977 69.7543 3743.64 3892.62 66.28
17978 69.7580 3979.47 3891.96 70.45
17979 69.7618 3791.86 3891.29 67.09
17980 69.7656 3849.95 3890.64 67.31
17981 69.7693 3838.88 3890.00 67.49
17982 69.7731 3912.83 3889.35 68.61
17983 69.7768 3873.37 3888.73 67.60
17984 69.7806 3790.87 3888.10 67.54
17985 69.7844 3916.34 3887.47 68.86
17986 69.7881 3840.33 3886.90 67.86
17987 69.7918 3829.73 3886.29 67.83
17988 69.7956 3816.21 3885.70 67.79
17989 69.7994 3875.60 3885.11 67.61
17990 69.8030 3828.97 3884.53 67.54
17991 69.8069 3764.47 3883.95 66.83
17992 69.8107 3701.28 3883.37 66.41
17993 69.8144 3942.33 3882.82 68.89
17994 69.8182 3770.93 3882.25 67.38
17995 69.8219 3837.64 3881.71 67.39
17996 69.8257 3756.32 3881.16 67.17
17997 69.8295 3784.02 3880.62 67.16
17998 69.8332 3696.04 3880.10 66.24
17999 69.8370 3879.82 3879.57 68.10
18000 69.8407 3885.92 3879.06 67.27
18001 69.8445 3854.60 3878.55 67.62
18002 69.8483 3795.36 3878.04 67.33
18003 69.8520 3868.14 3877.55 66.24
18004 69.8558 3868.76 3877.05 67.99
18005 69.8595 3879.36 3876.58 68.23
18006 69.8633 3758.56 3876.09 66.74
18007 69.8671 3872.83 3875.62 68.10
18008 69.8708 3737.39 3875.16 66.35
18009 69.8746 3760.24 3874.69 66.50
18010 69.8783 3770.64 3874.25 66.89
18011 69.8821 3780.37 3873.80 66.71
18012 69.8859 3839.16 3873.35 68.29
18013 69.8896 3922.70 3872.93 69.09
18014 69.8934 3775.78 3872.49 67.73
18015 69.8971 3747.41 3872.08 67.01
18016 69.9009 3854.69 3871.66 67.86
18017 69.9047 3871.62 3871.24 68.23
18018 69.9084 3764.67 3870.85 67.40
18019 69.9122 3887.81 3870.45 68.98
18020 69.9159 3863.47 3870.06 68.58
18021 69.9196 3899.88 3869.67 68.35
18022 69.9234 3919.21 3869.30 68.97
18023 69.9272 3927.58 3868.92 69.12
18024 69.9310 3880.91 3868.55 67.76
18025 69.9347 3782.61 3868.19 67.78
18026 69.9385 3836.91 3867.83 67.18
18027 69.9422 3793.44 3867.49 67.99
18028 69.9460 3817.92 3867.14 67.98
18029 69.9498 3899.51 3866.80 67.23
18030 69.9535 3735.95 3866.47 66.23
18031 69.9573 3862.00 3866.15 69.60
18032 69.9610 3814.20 3865.83 68.10
18033 69.9648 3688.11 3865.51 65.86
18034 69.9686 3807.22 3865.20 67.09
18035 69.9723 3853.10 3864.90 67.51
18036 69.9761 3765.13 3864.60 67.18
18037 69.9798 3844.52 3864.31 68.04
18038 69.9836 3733.27 3864.02 66.74
18039 69.9874 3797.09 3863.74 67.16
18040 69.9911 3690.11 3863.47 66.62
18041 69.9949 3783.68 3863.20 67.70
18042 69.9986 3736.54 3862.94 66.70
18043 70.0024 3938.87 3862.67 68.67
18044 70.0062 3812.02 3862.42 68.03
18045 70.0099 3741.18 3862.17 67.43
18046 70.0137 3760.40 3861.93 67.22
18047 70.0174 3672.71 3861.70 66.23
18048 70.0212 3696.40 3861.46 67.01
18049 70.0249 3891.40 3861.24 68.88
18050 70.0287 3770.23 3861.02 66.89
18051 70.0325 3755.78 3860.80 67.42
18052 70.0362 3942.51 3860.60 69.81
18053 70.0400 3861.58 3860.39 68.21
18054 70.0437 3733.23 3860.19 67.12
18055 70.0474 3793.40 3860.00 67.60
18056 70.0513 3789.60 3859.81 66.95
18057 70.0550 3869.39 3859.63 68.34
18058 70.0588 3824.66 3859.45 69.60
18059 70.0625 3703.07 3859.28 66.79
18060 70.0663 3731.53 3859.11 66.93
18061 70.0701 3763.59 3858.95 66.91
18062 70.0738 3802.74 3858.79 67.82
18063 70.0776 3747.81 3858.64 67.28
18064 70.0813 3771.84 3858.50 69.02
18065 70.0851 3820.02 3858.36 67.38
18066 70.0889 3674.17 3858.22 65.45
18067 70.0926 3700.90 3858.09 66.78
18068 70.0964 3770.75 3857.97 66.43
18069 70.1001 3839.61 3857.85 66.83
18070 70.1039 3586.10 3857.73 65.09
18071 70.1076 3793.65 3857.63 67.29
18072 70.1114 3880.79 3857.52 67.76
18073 70.1152 3704.99 3857.42 66.75
18074 70.1189 3778.18 3857.33 66.97
18075 70.1227 3846.64 3857.24 67.94
18076 70.1264 3761.28 3857.16 66.41
18077 70.1302 3789.82 3857.08 66.63
18078 70.1340 3761.85 3857.01 66.49
18079 70.1377 3822.23 3856.94 67.79
18080 70.1415 3751.85 3856.88 66.46
18081 70.1452 3899.34 3856.83 68.37
18082 70.1490 3735.75 3856.77 66.39
18083 70.1528 3819.77 3856.73 66.59
18084 70.1565 3898.66 3856.69 68.55
18085 70.1603 3809.48 3856.65 68.52
18086 70.1640 3829.17 3856.62 67.66
18087 70.1678 3713.79 3856.60 65.53
18088 70.1716 3787.88 3856.58 67.26
18089 70.1752 3602.89 3856.56 64.79
18090 70.1791 3785.01 3856.56 67.08
18091 70.1828 3741.58 3856.55 66.73
18092 70.1866 3816.94 3856.56 67.86
18093 70.1903 3618.06 3856.56 65.65
18094 70.1941 3744.75 3856.57 67.02
18095 70.1979 3753.34 3856.59 67.04
18096 70.2016 3757.02 3856.62 67.18
18097 70.2054 3773.94 3856.64 66.00
18098 70.2091 3839.92 3856.68 68.30
18099 70.2129 3747.17 3856.72 66.57
18100 70.2167 3754.28 3856.77 67.14
18101 70.2204 3718.77 3856.82 66.93
18102 70.2242 3714.35 3856.87 66.14
18103 70.2279 3725.30 3856.93 66.35
18104 70.2317 3793.51 3857.00 66.75
18105 70.2355 3814.12 3857.08 68.10
18106 70.2392 3842.23 3857.15 68.79
18107 70.2430 3753.37 3857.24 67.59
18108 70.2467 3671.45 3857.33 66.00
18109 70.2505 3854.32 3857.42 66.11
18110 70.2543 3792.00 3857.53 66.09
18111 70.2580 3761.55 3857.63 68.06
18112 70.2618 3799.00 3857.75 67.68
18113 70.2655 3788.81 3857.86 67.31
18114 70.2693 3578.74 3857.99 65.22
18115 70.2730 3770.70 3858.12 67.43
18116 70.2768 3855.31 3858.25 68.19
18117 70.2806 3743.00 3858.40 66.37
18118 70.2843 3713.27 3858.54 66.46
18119 70.2881 3812.99 3858.70 67.78
18120 70.2918 3660.26 3858.86 66.17
18121 70.2956 3800.68 3859.02 66.93
18122 70.2994 3696.63 3859.20 66.48
18123 70.3030 3863.01 3859.37 68.51
18124 70.3069 3733.60 3859.56 66.96
18125 70.3106 3810.64 3859.75 67.47
18126 70.3144 3764.04 3859.95 67.55
18127 70.3181 3756.03 3860.15 66.72
18128 70.3219 3697.93 3860.35 66.75
18129 70.3257 3693.99 3860.57 65.04
18130 70.3294 3732.15 3860.79 67.05
18131 70.3332 3689.49 3861.02 66.33
18132 70.3369 3782.31 3861.25 68.28
18133 70.3407 3798.23 3861.50 66.76
18134 70.3445 3870.33 3861.75 68.51
18135 70.3482 3829.47 3862.00 68.33
18136 70.3520 3734.41 3862.26 66.29
18137 70.3557 3747.15 3862.52 66.50
18138 70.3595 3800.42 3862.80 68.23
18139 70.3633 3750.07 3863.09 66.84
18140 70.3670 3674.82 3863.37 66.12
18141 70.3708 3820.67 3863.67 67.55
18142 70.3745 3619.04 3863.96 66.42
18143 70.3783 3715.69 3864.32 67.02
18144 70.3820 3757.86 3864.63 66.33
18145 70.3858 3721.54 3864.96 67.62
18146 70.3896 3738.32 3865.29 66.74
18147 70.3933 3895.95 3865.62 67.31
18148 70.3971 3734.15 3865.97 67.84
18149 70.4008 3866.44 3866.32 68.38
18150 70.4046 3799.42 3866.68 67.98
18151 70.4084 3767.60 3867.05 67.05
18152 70.4121 3748.51 3867.42 67.30
18153 70.4159 3583.63 3867.81 65.81
18154 70.4196 3743.44 3868.19 67.76
18155 70.4234 3748.21 3868.59 67.61
18156 70.4272 3715.41 3869.00 67.08
18157 70.4308 3846.73 3869.41 67.54
18158 70.4347 3620.58 3869.83 66.12
18159 70.4384 3823.46 3870.25 67.69
18160 70.4422 3791.84 3870.69 68.44
18161 70.4459 3649.96 3871.13 66.50
18162 70.4497 3674.47 3871.59 66.39
18163 70.4535 3710.14 3872.05 65.92
18164 70.4572 3663.05 3872.52 66.79
18165 70.4610 3715.66 3873.00 67.79
18166 70.4647 3835.36 3873.48 68.10
18167 70.4685 3664.66 3873.97 66.10
18168 70.4723 3733.43 3874.48 67.31
18169 70.4760 3687.89 3874.98 66.82
18170 70.4798 3722.03 3875.51 67.54
18171 70.4835 3819.38 3876.03 67.87
18172 70.4873 3702.29 3876.57 67.01
18173 70.4910 3744.86 3877.11 66.42
18174 70.4948 3695.71 3877.67 66.93
18175 70.4986 3656.14 3878.24 66.98
18176 70.5023 3654.09 3878.80 66.42
18177 70.5061 3825.58 3879.39 68.58
18178 70.5098 3778.91 3879.98 66.84
18179 70.5136 3737.60 3880.58 66.81
18180 70.5174 3643.53 3881.20 67.04
18181 70.5211 3727.36 3881.81 67.88
18182 70.5249 3815.69 3882.45 68.42
18183 70.5286 3740.23 3883.07 67.63
18184 70.5324 3775.32 3883.73 67.39
18185 70.5362 3755.16 3884.40 67.69
18186 70.5399 3743.67 3885.05 67.02
18187 70.5437 3729.43 3885.74 67.56
18188 70.5474 3819.52 3886.41 67.91
18189 70.5512 3795.78 3887.12 67.65
18190 70.5549 3895.76 3887.82 67.72
18191 70.5587 3797.07 3888.54 70.09
18192 70.5625 3640.16 3889.28 67.15
18193 70.5662 3818.75 3890.01 66.37
18194 70.5700 3820.76 3890.77 66.30
18195 70.5737 3779.52 3891.51 66.30
18196 70.5775 3718.25 3892.29 66.45
18197 70.5812 3938.94 3893.06 67.49
18198 70.5850 3803.44 3893.86 66.37
18199 70.5888 3925.16 3894.68 68.06
18200 70.5925 3853.09 3895.48 67.16
18201 70.5963 3850.13 3896.31 67.20
18202 70.6000 3883.58 3897.13 67.12
18203 70.6038 3879.70 3897.99 68.10
18204 70.6076 3877.34 3898.86 67.56
18205 70.6113 3743.36 3899.71 66.12
18206 70.6151 3909.51 3900.60 67.68
18207 70.6188 3789.38 3901.48 66.87
18208 70.6226 3716.27 3902.39 65.71
18209 70.6263 3903.14 3903.29 67.76
18210 70.6301 3852.41 3904.23 67.01
18211 70.6339 3873.59 3905.18 67.20
18212 70.6376 3837.41 3906.11 67.81
18213 70.6414 3961.80 3907.08 67.12
18214 70.6451 3824.62 3908.04 67.29
18215 70.6489 3793.70 3909.03 66.19
18216 70.6527 3688.65 3910.04 65.80
18217 70.6564 3884.45 3911.04 66.97
18218 70.6602 3922.49 3912.07 70.04
18219 70.6639 3809.15 3913.08 67.31
18220 70.6677 3896.08 3914.14 67.45
18221 70.6714 3841.50 3915.18 67.68
18222 70.6752 3986.93 3916.26 68.65
18223 70.6790 4007.68 3917.36 69.39
18224 70.6827 4010.39 3918.43 69.33
18225 70.6865 3944.18 3919.55 67.68
18226 70.6902 3935.85 3920.65 68.76
18227 70.6940 4016.46 3921.80 69.13
18228 70.6977 3909.49 3922.92 68.40
18229 70.7015 3946.62 3924.10 68.45
18230 70.7053 3970.97 3925.28 69.11
18231 70.7090 3946.84 3926.44 68.30
18232 70.7128 4009.83 3927.65 68.59
18233 70.7165 3971.08 3928.84 68.50
18234 70.7203 4016.92 3930.07 69.02
18235 70.7241 4027.50 3931.32 69.28
18236 70.7278 3961.21 3932.54 68.62
18237 70.7316 4081.71 3933.82 69.29
18238 70.7353 3966.29 3935.07 68.82
18239 70.7391 4085.20 3936.36 70.10
18240 70.7428 4027.26 3937.64 69.09
18241 70.7466 4013.95 3938.96 69.16
18242 70.7504 3949.21 3940.30 68.83
18243 70.7541 3947.99 3941.62 67.86
18244 70.7579 4153.27 3942.98 71.04
18245 70.7616 4063.10 3944.32 70.60
18246 70.7654 4041.19 3945.71 69.78
18247 70.7692 4089.51 3947.12 69.49
18248 70.7729 4098.75 3948.50 69.15
18249 70.7767 4129.00 3949.93 69.74
18250 70.7804 4125.73 3951.33 70.00
18251 70.7842 4077.82 3952.79 69.39
18252 70.7879 3998.21 3954.22 69.14
18253 70.7917 4003.88 3955.70 69.41
18254 70.7955 4119.59 3957.20 70.41
18255 70.7992 4123.64 3958.67 69.78
18256 70.8030 4106.25 3960.15 70.37
18257 70.8067 4084.94 3961.64 69.44
18258 70.8105 4087.44 3963.19 69.83
18259 70.8143 4160.72 3964.75 69.91
18260 70.8180 4217.83 3966.29 71.18
18261 70.8218 4195.07 3967.88 70.60
18262 70.8255 4198.66 3969.44 70.65
18263 70.8293 4225.84 3971.05 70.62
18264 70.8330 4081.42 3972.63 70.11
18265 70.8368 4080.04 3974.27 69.21
18266 70.8405 4063.35 3975.88 70.42
18267 70.8443 4266.39 3977.54 71.15
18268 70.8481 4174.52 3979.22 70.65
18269 70.8518 4111.13 3980.87 70.00
18270 70.8556 4115.93 3982.57 69.26
18271 70.8593 4176.67 3984.24 71.53
18272 70.8631 4162.12 3985.97 71.34
18273 70.8669 4190.30 3987.71 69.89
18274 70.8706 4181.07 3989.41 70.14
18275 70.8744 4263.53 3991.18 71.22
18276 70.8781 4274.99 3992.91 71.39
18277 70.8819 4214.00 3994.70 71.16
18278 70.8856 4163.64 3996.45 71.01
18279 70.8894 4133.05 3998.27 70.32
18280 70.8932 4000.75 4000.09 69.28
18281 70.8969 4209.81 4001.88 70.92
18282 70.9007 4234.35 4003.73 70.85
18283 70.9044 4141.56 4005.54 69.76
18284 70.9082 4217.16 4007.41 71.45
18285 70.9119 4251.53 4009.25 71.25
18286 70.9157 4108.82 4011.14 69.94
18287 70.9195 4121.55 4013.05 70.63
18288 70.9232 4111.64 4014.91 70.22
18289 70.9270 4118.90 4016.84 69.99
18290 70.9307 4081.62 4018.73 69.73
18291 70.9345 4082.00 4020.68 69.60
18292 70.9382 4249.31 4022.59 72.48
18293 70.9420 4074.96 4024.55 69.64
18294 70.9458 4178.34 4026.53 70.90
18295 70.9495 4126.99 4028.47 70.60
18296 70.9533 4074.11 4030.48 68.93
18297 70.9569 4177.19 4032.43 69.58
18298 70.9608 4180.16 4034.45 72.29
18299 70.9645 4296.87 4036.43 71.43
18300 70.9683 4080.51 4038.47 69.75
18301 70.9721 4216.23 4040.52 70.21
18302 70.9758 4055.16 4042.52 69.56
18303 70.9796 4136.11 4044.58 70.17
18304 70.9833 4115.69 4046.60 69.81
18305 70.9871 4197.48 4048.68 71.20
18306 70.9908 4154.09 4050.72 71.08
18307 70.9946 4076.03 4052.81 69.67
18308 70.9984 4051.88 4054.92 69.51
18309 71.0021 4152.95 4056.98 70.31
18310 71.0059 4187.68 4059.08 70.69
18311 71.0096 4137.51 4061.13 70.77
18312 71.0134 4237.17 4063.25 71.25
18313 71.0171 4240.90 4065.32 71.65
18314 71.0209 4130.48 4067.45 70.25
18315 71.0247 4196.40 4069.58 70.71
18316 71.0284 4068.06 4071.67 69.08
18317 71.0322 4099.32 4073.82 69.79
18318 71.0359 4079.68 4075.91 69.95
18319 71.0397 4215.51 4078.07 70.81
18320 71.0434 4094.46 4080.17 70.77
18321 71.0472 4144.53 4082.34 71.38
18322 71.0510 4119.11 4084.51 70.40
18323 71.0547 3973.50 4086.63 67.53
18324 71.0585 4157.55 4088.81 71.94
18325 71.0622 4107.12 4090.93 70.64
18326 71.0660 4118.89 4093.12 69.72
18327 71.0697 4166.99 4095.25 69.79
18328 71.0735 4042.66 4097.44 68.66
18329 71.0773 4094.49 4099.63 69.85
18330 71.0810 4136.52 4101.76 70.48
18331 71.0847 4180.68 4103.96 70.83
18332 71.0885 4183.59 4106.10 71.01
18333 71.0923 4210.53 4108.30 71.45
18334 71.0959 4163.21 4110.44 70.91
18335 71.0998 4094.28 4112.64 70.96
18336 71.1036 4070.26 4114.84 69.83
18337 71.1073 4159.65 4116.97 71.10
18338 71.1111 4169.33 4119.17 70.51
18339 71.1148 4261.58 4121.31 72.10
18340 71.1186 4109.36 4123.51 70.56
18341 71.1223 4115.61 4125.64 70.13
18342 71.1261 4189.33 4127.83 71.43
18343 71.1299 4031.29 4130.02 69.75
18344 71.1336 3983.81 4132.14 69.09
18345 71.1374 4145.37 4134.32 71.43
18346 71.1411 4034.40 4136.44 69.81
18347 71.1449 4220.17 4138.61 72.02
18348 71.1486 4106.68 4140.72 70.40
18349 71.1524 4182.50 4142.88 71.06
18350 71.1562 4160.13 4145.04 69.56
18351 71.1599 4033.14 4147.13 71.19
18352 71.1637 4192.50 4149.28 71.32
18353 71.1674 4077.29 4151.36 69.65
18354 71.1712 4035.77 4153.49 69.16
18355 71.1749 4137.30 4155.56 70.44
18356 71.1787 4085.26 4157.67 69.85
18357 71.1824 4070.99 4159.73 70.03
18358 71.1862 4192.98 4161.83 71.18
18359 71.1900 4197.14 4163.92 70.72
18360 71.1937 4145.77 4165.94 71.31
18361 71.1975 4095.82 4168.02 69.67
18362 71.2012 4227.80 4170.02 72.84
18363 71.2050 4118.49 4172.07 71.07
18364 71.2087 4220.57 4174.05 71.22
18365 71.2125 4247.23 4176.08 72.48
18366 71.2163 4132.68 4178.09 70.51
18367 71.2200 4159.61 4180.04 71.49
18368 71.2237 4226.92 4182.03 71.39
18369 71.2275 4235.30 4183.96 71.82
18370 71.2313 4138.16 4185.92 70.68
18371 71.2350 4146.87 4187.81 70.73
18372 71.2388 4184.12 4189.75 72.09
18373 71.2425 4134.41 4191.62 70.87
18374 71.2463 4110.39 4193.52 70.40
18375 71.2501 4105.63 4195.41 70.59
18376 71.2538 4126.72 4197.23 69.83
18377 71.2576 4134.26 4199.09 71.49
18378 71.2613 4078.28 4200.87 70.19
18379 71.2651 4225.23 4202.69 71.63
18380 71.2688 4190.31 4204.45 71.13
18381 71.2726 4096.83 4206.24 70.26
18382 71.2764 4045.67 4208.00 70.17
18383 71.2801 4083.27 4209.70 70.49
18384 71.2839 4087.25 4211.43 70.08
18385 71.2876 4086.36 4213.09 70.21
18386 71.2914 4071.94 4214.78 70.60
18387 71.2951 3897.76 4216.40 68.32
18388 71.2989 3961.55 4218.05 69.29
18389 71.3027 4165.19 4219.67 70.43
18390 71.3064 4105.78 4221.23 70.50
18391 71.3102 4105.79 4222.81 70.37
18392 71.3139 4049.96 4224.33 69.74
18393 71.3177 4150.89 4225.87 71.50
18394 71.3214 4140.99 4227.34 71.54
18395 71.3252 3966.89 4228.83 68.92
18396 71.3289 4053.54 4230.26 69.56
18397 71.3327 4087.25 4231.70 70.17
18398 71.3365 4136.53 4233.12 71.32
18399 71.3402 4048.12 4234.47 69.70
18400 71.3440 4039.56 4235.84 70.21
18401 71.3477 4120.30 4237.15 70.16
18402 71.3515 4015.12 4238.47 69.58
18403 71.3552 4058.89 4239.72 68.91
18404 71.3590 4031.56 4240.99 70.92
18405 71.3627 4108.13 4242.20 70.92
18406 71.3665 4090.48 4243.41 70.61
18407 71.3703 4061.32 4244.59 69.80
18408 71.3740 4116.97 4245.72 70.73
18409 71.3778 4120.59 4246.85 70.36
18410 71.3815 4006.96 4247.92 70.19
18411 71.3853 4153.78 4249.00 71.18
18412 71.3890 4052.87 4250.02 69.99
18413 71.3928 3972.09 4251.03 69.38
18414 71.3965 3991.00 4251.99 69.37
18415 71.4003 3951.67 4252.95 69.38
18416 71.4041 4131.83 4253.88 70.95
18417 71.4078 4184.73 4254.75 71.48
18418 71.4116 4034.72 4255.62 69.11
18419 71.4153 4159.74 4256.43 70.90
18420 71.4191 3966.53 4257.24 69.68
18421 71.4228 4087.21 4258.00 70.27
18422 71.4266 4168.33 4258.74 70.95
18423 71.4303 4054.13 4259.44 70.32
18424 71.4341 4075.82 4260.12 69.85
18425 71.4379 4149.12 4260.78 71.25
18426 71.4416 3992.62 4261.38 68.92
18427 71.4454 4050.83 4261.97 70.69
18428 71.4491 4049.17 4262.51 69.97
18429 71.4529 4065.85 4263.04 68.25
18430 71.4566 4094.88 4263.52 69.48
18431 71.4604 4206.44 4263.98 72.86
18432 71.4641 4068.70 4264.40 69.90
18433 71.4679 4019.22 4264.80 68.48
18434 71.4717 4029.68 4265.16 68.42
18435 71.4754 4090.57 4265.48 69.75
18436 71.4792 3968.37 4265.78 68.96
18437 71.4829 3921.97 4266.04 69.35
18438 71.4867 4081.88 4266.27 70.28
18439 71.4904 3908.67 4266.46 68.45
18440 71.4942 4043.42 4266.62 70.15
18441 71.4979 3940.85 4266.75 68.96
18442 71.5017 3906.12 4266.85 68.67
18443 71.5055 4040.18 4266.91 70.07
18444 71.5092 4010.62 4266.94 69.48
18445 71.5130 3964.53 4266.94 69.34
18446 71.5166 4039.23 4266.90 70.45
18447 71.5205 4056.71 4266.83 70.28
18448 71.5242 4007.15 4266.72 69.76
18449 71.5280 3987.98 4266.58 69.96
18450 71.5317 4099.81 4266.41 69.72
18451 71.5355 3954.99 4266.20 69.90
18452 71.5393 4190.55 4265.96 71.27
18453 71.5430 4010.17 4265.69 69.24
18454 71.5468 4043.93 4265.38 70.06
18455 71.5505 4083.27 4265.04 70.12
18456 71.5543 4100.01 4264.66 68.94
18457 71.5580 3972.69 4264.26 70.49
18458 71.5618 4055.10 4263.82 70.97
18459 71.5655 4145.78 4263.35 71.02
18460 71.5693 4002.36 4262.83 69.01
18461 71.5730 4080.50 4262.30 70.57
18462 71.5768 4127.45 4261.71 70.45
18463 71.5806 4046.24 4261.10 70.01
18464 71.5843 4106.93 4260.46 70.97
18465 71.5881 4115.64 4259.78 71.24
18466 71.5918 4016.89 4259.08 70.16
18467 71.5956 4047.70 4258.33 70.11
18468 71.5993 4073.49 4257.57 70.61
18469 71.6031 4068.92 4256.75 69.73
18470 71.6068 4002.76 4255.93 69.53
18471 71.6106 3963.37 4255.05 69.35
18472 71.6144 4093.87 4254.13 70.15
18473 71.6181 4240.70 4253.21 72.57
18474 71.6219 3963.79 4252.23 69.38
18475 71.6256 4096.85 4251.25 70.21
18476 71.6294 4124.88 4250.21 71.42
18477 71.6331 3990.41 4249.17 69.28
18478 71.6369 4145.70 4248.06 72.01
18479 71.6406 4126.03 4246.96 71.05
18480 71.6444 4155.22 4245.79 71.69
18481 71.6481 4009.22 4244.63 70.09
18482 71.6519 4034.21 4243.41 69.27
18483 71.6556 3990.18 4242.15 68.35
18484 71.6594 4125.14 4240.90 73.14
18485 71.6632 4129.39 4239.58 71.49
18486 71.6669 4048.72 4238.28 70.40
18487 71.6707 4082.66 4236.91 70.50
18488 71.6744 4209.57 4235.54 71.24
18489 71.6782 4046.39 4234.12 70.07
18490 71.6819 4108.19 4232.70 70.64
18491 71.6857 4029.72 4231.22 70.76
18492 71.6894 4071.58 4229.75 70.26
18493 71.6932 4161.12 4228.22 71.37
18494 71.6970 4015.45 4226.66 70.07
18495 71.7007 4101.57 4225.12 70.90
18496 71.7045 4071.34 4223.51 71.22
18497 71.7082 4213.42 4221.92 72.01
18498 71.7120 4028.65 4220.26 70.47
18499 71.7157 4036.30 4218.62 70.30
18500 71.7195 4106.28 4216.91 70.80
18501 71.7232 4175.69 4215.23 72.23
18502 71.7270 4031.10 4213.48 70.85
18503 71.7307 4066.14 4211.75 70.39
18504 71.7345 4119.95 4209.96 71.28
18505 71.7382 4040.32 4208.20 70.84
18506 71.7420 4161.38 4206.36 71.85
18507 71.7458 4081.94 4204.50 71.35
18508 71.7495 4058.01 4202.68 71.14
18509 71.7533 4037.77 4200.79 70.52
18510 71.7570 4010.69 4198.93 69.10
18511 71.7608 4160.30 4196.99 72.34
18512 71.7645 3982.94 4195.10 68.36
18513 71.7683 3938.50 4193.14 69.38
18514 71.7720 4079.47 4191.20 70.24
18515 71.7758 4111.55 4189.21 70.87
18516 71.7795 4010.05 4187.25 70.25
18517 71.7833 4080.98 4185.22 70.66
18518 71.7871 4044.66 4183.18 69.70
18519 71.7908 4001.80 4181.18 69.79
18520 71.7946 4091.73 4179.11 70.71
18521 71.7983 4005.62 4177.08 69.94
18522 71.8021 3987.68 4174.99 69.17
18523 71.8058 4088.38 4172.94 69.85
18524 71.8096 4045.69 4170.82 70.48
18525 71.8133 4070.60 4168.75 71.01
18526 71.8171 4011.96 4166.61 70.37
18527 71.8208 4128.74 4164.52 71.79
18528 71.8246 3971.41 4162.36 70.08
18529 71.8283 4022.98 4160.25 69.98
18530 71.8321 3987.71 4158.08 69.86
18531 71.8358 4056.53 4155.96 69.48
18532 71.8396 3925.33 4153.77 69.33
18533 71.8434 4077.56 4151.57 70.73
18534 71.8471 3921.46 4149.43 69.08
18535 71.8509 3960.54 4147.22 69.27
18536 71.8546 4021.95 4145.07 69.63
18537 71.8584 3925.82 4142.85 69.40
18538 71.8621 3869.40 4140.69 69.36
18539 71.8659 3969.79 4138.47 68.90
18540 71.8696 3959.44 4136.30 70.39
18541 71.8734 3959.72 4134.07 69.13
18542 71.8771 3952.56 4131.90 69.31
18543 71.8809 3919.75 4129.66 69.55
18544 71.8846 3925.08 4127.49 69.12
18545 71.8884 3927.97 4125.25 70.06
18546 71.8922 3913.03 4123.02 69.83
18547 71.8959 3900.87 4120.84 69.29
18548 71.8997 3945.25 4118.60 69.75
18549 71.9034 3821.53 4116.43 67.95
18550 71.9072 3918.87 4114.20 68.90
18551 71.9109 3924.39 4112.02 68.92
18552 71.9147 3822.58 4109.80 68.07
18553 71.9184 3907.42 4107.63 69.89
18554 71.9222 4014.89 4105.41 70.08
18555 71.9259 3903.80 4103.25 68.97
18556 71.9297 3963.53 4101.11 70.64
18557 71.9334 3831.72 4098.96 68.41
18558 71.9372 3935.03 4096.75 70.65
18559 71.9409 3970.63 4094.61 70.22
18560 71.9447 3872.77 4092.41 68.44
18561 71.9485 3876.68 4090.22 68.84
18562 71.9522 3935.22 4088.10 69.39
18563 71.9560 3891.56 4085.92 68.28
18564 71.9597 3972.71 4083.81 71.59
18565 71.9635 3934.14 4081.65 70.10
18566 71.9672 3905.22 4079.55 69.71
18567 71.9710 3863.55 4076.81 68.63
18568 71.9747 3842.13 4074.73 68.49
18569 71.9785 3876.54 4072.60 68.07
18570 71.9821 3839.02 4070.54 68.36
18571 71.9860 3815.89 4068.43 67.32
18572 71.9883 3853.50 4067.16 68.31
18573 71.9920 3959.64 4065.11 69.46
18574 71.9958 3882.74 4063.03 68.42
18575 71.9995 3837.19 4061.01 68.27
18576 72.0033 3909.55 4058.95 69.36
18577 72.0070 3897.18 4056.95 68.91
18578 72.0108 3832.46 4054.91 68.24
18579 72.0145 3706.86 4052.93 67.38
18580 72.0183 3905.96 4050.92 68.05
18581 72.0221 3904.10 4048.91 69.56
18582 72.0258 3867.18 4046.97 68.37
18583 72.0296 4040.49 4044.99 69.68
18584 72.0333 3825.27 4043.08 68.12
18585 72.0371 3772.91 4041.12 67.31
18586 72.0408 3789.58 4039.23 66.20
18587 72.0446 3854.38 4037.30 69.49
18588 72.0483 3844.42 4035.44 69.09
18589 72.0521 3826.65 4033.54 68.14
18590 72.0559 3926.62 4031.65 68.45
18591 72.0596 4032.28 4029.83 70.26
18592 72.0634 3941.82 4027.97 68.85
18593 72.0671 3852.28 4026.17 68.31
18594 72.0709 3902.71 4024.35 69.18
18595 72.0746 3915.44 4022.58 69.48
18596 72.0784 3970.03 4020.79 69.86
18597 72.0821 3762.31 4019.05 67.52
18598 72.0859 3852.16 4017.28 68.64
18599 72.0896 3942.59 4015.58 68.69
18600 72.0934 3848.18 4013.84 68.21
18601 72.0972 3894.58 4012.13 68.84
18602 72.1009 3837.07 4010.47 67.87
18603 72.1047 3895.21 4008.79 69.43
18604 72.1084 3896.94 4007.16 68.89
18605 72.1122 3776.83 4005.51 67.32
18606 72.1159 3692.15 4003.92 67.39
18607 72.1197 3889.52 4002.39 68.47
18608 72.1234 3801.46 4000.83 68.84
18609 72.1272 3991.62 3999.24 69.93
18610 72.1309 3848.04 3997.72 68.90
18611 72.1347 3882.78 3996.17 69.03
18612 72.1385 3888.50 3994.63 68.04
18613 72.1422 3865.18 3993.16 67.33
18614 72.1460 3811.40 3991.66 70.21
18615 72.1497 3870.94 3990.22 69.17
18616 72.1535 3938.00 3988.75 69.50
18617 72.1572 3929.43 3987.35 69.20
18618 72.1610 3829.39 3985.92 67.81
18619 72.1647 3942.84 3984.55 69.24
18620 72.1685 3816.39 3983.16 68.01
18621 72.1722 3945.84 3981.82 70.11
18622 72.1760 3846.44 3980.46 68.26
18623 72.1798 3903.02 3979.13 69.08
18624 72.1835 3887.33 3977.84 68.99
18625 72.1873 3847.57 3976.54 68.63
18626 72.1910 3921.24 3975.29 69.93
18627 72.1948 3951.39 3974.03 69.68
18628 72.1985 3842.02 3972.81 68.82
18629 72.2023 4024.24 3971.59 70.34
18630 72.2060 4049.08 3970.41 70.41
18631 72.2097 4038.39 3969.22 71.09
18632 72.2135 3898.33 3968.07 69.72
18633 72.2173 3815.35 3966.92 68.14
18634 72.2210 3964.80 3965.81 69.96
18635 72.2231 3959.94 3965.19 68.76
18636 72.2269 3932.41 3964.08 69.26
18637 72.2306 3786.33 3963.02 68.15
18638 72.2344 3975.18 3961.95 69.24
18639 72.2381 4050.50 3960.92 70.87
18640 72.2419 3982.88 3959.88 70.12
18641 72.2456 3896.10 3958.89 68.60
18642 72.2494 4071.49 3957.89 69.99
18643 72.2531 3851.53 3956.94 67.80
18644 72.2569 3958.87 3955.97 68.08
18645 72.2606 4051.36 3955.05 72.15
18646 72.2644 3990.45 3954.12 69.75
18647 72.2682 3951.24 3953.21 70.09
18648 72.2719 3925.33 3952.34 68.78
18649 72.2757 3900.65 3951.47 68.45
18650 72.2794 3910.03 3950.63 69.29
18651 72.2832 4020.60 3949.79 68.51
18652 72.2869 3905.37 3948.99 68.73
18653 72.2907 3979.67 3948.19 68.99
18654 72.2944 4032.81 3947.42 71.03
18655 72.2982 4119.43 3946.65 72.08
18656 72.3019 4065.85 3945.92 70.62
18657 72.3057 3850.21 3945.18 68.60
18658 72.3094 4017.92 3944.48 70.56
18659 72.3132 3991.22 3943.78 69.58
18660 72.3170 3925.26 3943.10 67.72
18661 72.3207 3977.50 3942.45 69.15
18662 72.3245 3957.76 3941.80 68.59
18663 72.3282 3877.13 3941.18 68.92
18664 72.3319 4014.98 3940.56 69.87
18665 72.3357 3935.23 3939.97 69.99
18666 72.3395 3954.44 3939.38 70.90
18667 72.3431 3833.16 3938.83 68.66
18668 72.3470 3910.95 3938.27 69.47
18669 72.3507 3873.67 3937.75 69.15
18670 72.3545 3919.64 3937.22 68.48
18671 72.3582 3855.57 3936.33 69.27
18672 72.3620 3930.06 3935.84 69.65
18673 72.3658 4003.59 3935.36 70.04
18674 72.3695 3850.23 3934.91 68.34
18675 72.3733 3959.26 3934.46 69.78
18676 72.3770 3908.32 3934.04 68.15
18677 72.3808 3952.52 3933.62 68.93
18678 72.3845 3999.94 3933.22 70.67
18679 72.3883 3890.10 3932.83 69.27
18680 72.3920 3895.72 3932.47 68.98
18681 72.3958 3881.40 3932.10 67.95
18682 72.3995 4017.80 3931.76 69.95
18683 72.4033 3846.67 3931.42 68.85
18684 72.4070 4025.72 3931.11 71.60
18685 72.4108 3828.34 3930.80 69.13
18686 72.4146 3821.55 3930.50 68.18
18687 72.4183 3882.59 3930.23 69.87
18688 72.4221 3822.20 3929.95 67.94
18689 72.4258 3817.98 3929.70 67.98
18690 72.4296 3984.91 3929.45 69.49
18691 72.4333 3862.82 3929.22 69.27
18692 72.4371 3954.36 3929.00 69.98
18693 72.4408 3892.56 3928.79 68.97
18694 72.4446 3880.24 3928.59 69.39
18695 72.4484 3915.12 3928.40 68.70
18696 72.4521 3810.80 3928.22 69.01
18697 72.4559 3793.52 3928.05 67.57
18698 72.4596 3930.02 3927.89 71.12
18699 72.4634 3723.29 3927.74 68.17
18700 72.4671 3849.18 3927.60 68.12
18701 72.4709 3692.29 3927.47 65.71
18702 72.4746 3913.78 3927.35 68.98
18703 72.4784 3828.89 3927.24 68.74
18704 72.4821 3911.93 3927.14 69.10
18705 72.4859 3865.61 3927.04 69.55
18706 72.4897 3765.23 3926.95 67.78
18707 72.4934 3869.58 3926.88 69.34
18708 72.4972 3956.68 3926.80 69.96
18709 72.5009 3777.56 3926.74 67.78
18710 72.5047 3790.96 3926.68 67.72
18711 72.5084 3794.25 3926.63 68.90
18712 72.5122 3780.40 3926.59 68.61
18713 72.5159 3749.00 3926.55 68.10
18714 72.5197 3818.28 3926.51 68.27
18715 72.5234 3780.34 3926.49 67.60
18716 72.5272 3793.85 3926.46 69.08
18717 72.5310 3814.23 3926.45 67.89
18718 72.5347 3780.36 3926.44 68.45
18719 72.5385 3738.39 3926.43 67.52
18720 72.5422 3730.00 3926.43 67.68
18721 72.5460 3823.99 3926.43 68.83
18722 72.5497 3804.69 3926.43 68.01
18723 72.5535 3802.45 3926.44 68.24
18724 72.5572 3785.83 3926.45 66.15
18725 72.5610 3777.14 3926.46 69.81
18726 72.5647 3708.34 3926.48 68.75
18727 72.5685 3740.89 3926.49 67.17
18728 72.5723 3739.20 3926.51 67.59
18729 72.5760 3863.81 3926.53 68.46
18730 72.5798 3787.10 3926.55 68.60
18731 72.5835 3755.00 3926.57 68.08
18732 72.5873 3822.32 3926.59 69.04
18733 72.5910 3844.40 3926.62 69.37
18734 72.5948 3808.08 3926.64 68.88
18735 72.5985 3680.25 3926.66 67.41
18736 72.6023 3893.92 3926.68 69.96
18737 72.6061 3787.41 3926.70 69.68
18738 72.6098 3856.24 3926.72 68.89
18739 72.6136 3852.94 3926.73 68.97
18740 72.6173 3802.63 3926.75 68.54
18741 72.6211 3757.92 3926.76 68.71
18742 72.6248 3703.51 3926.77 68.97
18743 72.6286 3720.39 3926.77 67.44
18744 72.6323 3779.53 3926.77 66.94
18745 72.6360 3725.52 3926.77 68.21
18746 72.6399 3830.11 3926.77 69.99
18747 72.6436 3791.42 3926.76 68.63
18748 72.6474 3878.20 3926.74 70.30
18749 72.6511 3742.99 3926.72 68.13
18750 72.6549 3757.56 3926.69 67.81
18751 72.6586 3839.20 3926.66 68.40
18752 72.6624 3818.36 3926.63 68.97
18753 72.6661 3665.25 3926.58 67.06
18754 72.6699 3730.68 3926.53 67.04
18755 72.6737 3815.45 3926.48 68.55
18756 72.6774 3837.19 3926.41 68.51
18757 72.6812 3818.64 3926.34 70.21
18758 72.6849 3717.70 3926.27 66.87
18759 72.6887 3779.28 3926.18 66.38
18760 72.6924 3877.66 3926.08 67.02
18761 72.6962 3842.54 3925.98 66.86
18762 72.6999 3639.01 3925.87 65.31
18763 72.7037 3759.53 3925.75 66.55
18764 72.7075 3740.43 3925.62 66.39
18765 72.7112 3724.54 3925.48 66.45
18766 72.7150 3720.47 3925.33 65.95
18767 72.7187 3733.48 3925.17 66.08
18768 72.7225 3723.35 3925.00 66.10
18769 72.7262 3792.39 3924.82 66.89
18770 72.7300 3844.22 3924.63 66.64
18771 72.7337 3777.39 3924.43 66.37
18772 72.7375 3852.30 3924.21 67.33
18773 72.7413 3895.93 3923.98 67.49
18774 72.7450 3736.51 3923.75 66.15
18775 72.7488 3746.81 3923.50 66.18
18776 72.7525 3822.94 3923.24 67.13
18777 72.7563 3657.12 3922.97 63.68
18778 72.7600 3930.30 3922.69 68.82
18779 72.7638 3772.79 3922.39 66.98
18780 72.7676 3754.77 3922.07 65.90
18781 72.7713 3788.52 3921.76 66.17
18782 72.7750 3809.13 3921.42 66.26
18783 72.7788 3824.90 3921.07 66.30
18784 72.7826 3741.29 3920.71 66.74
18785 72.7863 3770.48 3920.34 66.44
18786 72.7901 3695.03 3919.95 66.45
18787 72.7938 3918.55 3919.55 68.06
18788 72.7976 3766.30 3919.13 66.94
18789 72.8013 3729.24 3918.71 66.32
18790 72.8051 3854.21 3918.26 67.98
18791 72.8089 3812.93 3917.80 66.72
18792 72.8126 3727.99 3917.34 66.30
18793 72.8164 3825.56 3916.84 66.80
18794 72.8201 3952.94 3916.35 68.83
18795 72.8239 3822.46 3915.84 67.12
18796 72.8276 3883.71 3915.32 67.31
18797 72.8314 3815.12 3914.77 66.76
18798 72.8352 3872.51 3914.21 67.27
18799 72.8389 3797.54 3913.65 65.99
18800 72.8427 3911.34 3913.06 67.78
18801 72.8464 3889.94 3912.47 67.84
18802 72.8502 3874.70 3911.86 67.14
18803 72.8539 3859.33 3911.24 66.60
18804 72.8577 3776.42 3910.60 66.11
18805 72.8615 3875.39 3909.94 68.44
18806 72.8652 3764.17 3909.28 66.28
18807 72.8690 3893.43 3908.59 68.07
18808 72.8727 3804.31 3907.91 66.79
18809 72.8765 3908.31 3907.19 66.64
18810 72.8802 3788.75 3906.48 66.67
18811 72.8840 3852.61 3905.78 67.64
18812 72.8877 3922.46 3905.05 67.83
18813 72.8915 3995.22 3904.28 68.35
18814 72.8953 3849.96 3903.49 67.20
18815 72.8990 3878.90 3902.72 66.20
18816 72.9028 3933.70 3901.91 67.69
18817 72.9065 3855.20 3901.11 67.20
18818 72.9103 3875.71 3900.28 67.14
18819 72.9140 3911.52 3899.45 68.01
18820 72.9178 3914.68 3898.59 67.46
18821 72.9216 3938.07 3897.72 68.40
18822 72.9253 3784.50 3896.86 66.29
18823 72.9291 3961.24 3895.96 68.80
18824 72.9328 3895.64 3895.07 68.08
18825 72.9366 3934.20 3894.16 68.23
18826 72.9403 4042.74 3893.25 69.30
18827 72.9441 3903.98 3892.31 68.71
18828 72.9479 3947.57 3891.35 68.75
18829 72.9516 4059.31 3890.42 68.93
18830 72.9554 3889.17 3889.44 66.49
18831 72.9591 3932.14 3888.48 69.08
18832 72.9629 3933.12 3887.49 68.36
18833 72.9666 4066.60 3886.51 69.92
18834 72.9704 3871.25 3885.49 66.81
18835 72.9741 3863.95 3884.49 66.99
18836 72.9779 3923.19 3883.46 68.27
18837 72.9817 3867.78 3882.41 67.50
18838 72.9854 4047.06 3881.39 69.00
18839 72.9892 3857.28 3880.32 67.95
18840 72.9929 3732.65 3879.28 66.18
18841 72.9967 3879.92 3878.20 67.72
18842 73.0004 3806.46 3877.14 67.88
18843 73.0042 3880.49 3876.05 68.03
18844 73.0080 3807.43 3874.94 66.82
18845 73.0117 3980.47 3873.86 69.60
18846 73.0155 3900.46 3872.75 68.79
18847 73.0192 3847.28 3871.65 67.27
18848 73.0230 4006.91 3870.52 69.22
18849 73.0267 3925.32 3869.41 68.52
18850 73.0305 3872.70 3868.26 67.50
18851 73.0343 3957.51 3867.11 68.00
18852 73.0380 3963.51 3865.98 69.28
18853 73.0418 3836.75 3864.82 66.91
18854 73.0455 3987.54 3863.68 69.12
18855 73.0493 3925.80 3862.51 68.90
18856 73.0531 3832.79 3861.33 67.38
18857 73.0568 3803.92 3860.18 66.40
18858 73.0606 3872.08 3858.99 69.25
18859 73.0642 3922.41 3857.83 68.30
18860 73.0681 3798.57 3856.63 66.21
18861 73.0718 3919.63 3855.46 67.68
18862 73.0756 3801.86 3854.25 67.22
18863 73.0793 3859.79 3853.07 67.96
18864 73.0831 3786.00 3851.86 66.74
18865 73.0869 3891.45 3850.64 68.16
18866 73.0906 3839.69 3849.46 68.03
18867 73.0944 3863.50 3848.24 67.65
18868 73.0981 3850.01 3847.04 67.94
18869 73.1019 3811.44 3845.82 67.77
18870 73.1056 3951.34 3844.62 68.52
18871 73.1094 3864.86 3843.39 68.71
18872 73.1132 3756.09 3842.15 66.87
18873 73.1169 3926.41 3840.95 68.45
18874 73.1207 3816.17 3839.72 67.09
18875 73.1244 3813.71 3838.51 67.60
18876 73.1282 3823.47 3837.27 67.52
18877 73.1319 3796.31 3836.07 67.09
18878 73.1357 3771.13 3834.82 66.80
18879 73.1395 3939.53 3833.58 68.67
18880 73.1432 3855.35 3832.37 67.70
18881 73.1470 3865.24 3831.13 67.46
18882 73.1507 3774.75 3829.92 66.49
18883 73.1545 3735.89 3828.68 65.62
18884 73.1583 3892.68 3827.44 69.34
18885 73.1620 3822.94 3826.23 69.16
18886 73.1658 3787.92 3824.99 67.05
18887 73.1695 3813.23 3823.78 66.82
18888 73.1733 3772.94 3822.54 65.54
18889 73.1770 3758.76 3821.33 66.20
18890 73.1808 3910.34 3820.09 67.63
18891 73.1846 3858.01 3818.86 66.99
18892 73.1883 3851.74 3817.65 67.17
18893 73.1921 3846.78 3816.41 67.28
18894 73.1958 3754.73 3815.22 66.82
18895 73.1996 3828.81 3813.98 67.11
18896 73.2033 3819.15 3812.79 66.44
18897 73.2071 3924.53 3811.56 67.61
18898 73.2109 3883.04 3810.33 68.28
18899 73.2146 3791.91 3809.14 66.87
18900 73.2184 3850.45 3807.92 67.87
18901 73.2221 3778.23 3806.73 67.20
18902 73.2259 3781.82 3805.52 66.34
18903 73.2296 3725.71 3804.34 66.49
18904 73.2334 3782.64 3803.13 67.11
18905 73.2372 3645.74 3801.92 65.20
18906 73.2409 3705.56 3800.74 66.17
18907 73.2447 3686.91 3799.54 66.55
18908 73.2484 3741.54 3798.37 65.83
18909 73.2522 3705.82 3797.18 65.93
18910 73.2559 3756.26 3796.02 65.42
18911 73.2597 3859.58 3794.83 68.23
18912 73.2635 3855.49 3793.64 68.57
18913 73.2672 3749.84 3792.49 66.93
18914 73.2710 3687.70 3791.31 64.62
18915 73.2747 3728.52 3790.17 66.42
18916 73.2785 3687.03 3788.99 65.61
18917 73.2823 3784.42 3787.83 67.28
18918 73.2860 3804.15 3786.69 65.78
18919 73.2898 3735.27 3785.53 66.76
18920 73.2935 3728.68 3784.41 67.05
18921 73.2973 3732.04 3783.25 67.31
18922 73.3010 3705.26 3782.14 65.85
18923 73.3048 3799.23 3780.99 67.13
18924 73.3086 3820.54 3779.85 67.40
18925 73.3123 3725.06 3778.75 67.08
18926 73.3161 3648.14 3777.61 65.78
18927 73.3198 3754.98 3776.52 66.18
18928 73.3235 3761.12 3775.39 67.20
18929 73.3274 3757.36 3774.27 67.05
18930 73.3311 3777.65 3773.19 67.01
18931 73.3349 3570.32 3772.08 65.21
18932 73.3386 3630.92 3771.00 66.50
18933 73.3424 3689.44 3769.90 65.48
18934 73.3461 3744.99 3768.84 67.42
18935 73.3499 3613.64 3767.74 65.54
18936 73.3537 3767.18 3766.66 67.11
18937 73.3574 3549.46 3765.60 64.07
18938 73.3612 3697.84 3764.53 67.41
18939 73.3649 3744.25 3763.48 66.80
18940 73.3687 3606.73 3762.41 64.96
18941 73.3724 3627.42 3761.38 65.15
18942 73.3762 3588.29 3760.32 65.49
18943 73.3800 3690.23 3759.26 64.84
18944 73.3837 3624.18 3758.24 65.34
18945 73.3875 3706.95 3757.20 66.41
18946 73.3912 3682.44 3756.18 66.07
18947 73.3950 3730.34 3755.15 66.71
18948 73.3988 3681.61 3754.12 65.98
18949 73.4025 3684.60 3753.12 66.03
18950 73.4063 3712.74 3752.09 66.49
18951 73.4100 3811.98 3751.11 68.04
18952 73.4138 3566.23 3750.09 64.92
18953 73.4175 3681.36 3749.11 66.14
18954 73.4213 3672.96 3748.11 65.76
18955 73.4251 3678.93 3747.11 65.24
18956 73.4288 3613.76 3746.14 65.88
18957 73.4326 3655.52 3745.15 65.57
18958 73.4363 3701.01 3744.20 66.65
18959 73.4401 3663.72 3743.21 66.41
18960 73.4439 3620.46 3742.24 64.69
18961 73.4476 3692.78 3741.29 66.42
18962 73.4513 3521.25 3740.35 65.00
18963 73.4551 3629.66 3739.42 64.85
18964 73.4589 3706.07 3738.46 65.76
18965 73.4625 3647.68 3737.53 67.09
18966 73.4664 3670.62 3736.58 65.66
18967 73.4702 3598.91 3735.63 65.36
18968 73.4739 3680.18 3734.71 65.68
18969 73.4777 3641.76 3733.78 65.90
18970 73.4814 3693.11 3732.87 66.76
18971 73.4852 3628.25 3731.95 66.55
18972 73.4890 3618.63 3731.02 65.91
18973 73.4927 3663.19 3730.13 65.88
18974 73.4965 3651.75 3729.21 66.76
18975 73.5002 3648.80 3728.32 66.35
18976 73.5040 3650.43 3727.42 66.62
18977 73.5077 3655.73 3726.54 65.55
18978 73.5115 3570.98 3725.64 65.29
18979 73.5153 3544.81 3724.74 65.24
18980 73.5190 3643.35 3723.87 66.33
18981 73.5228 3633.48 3722.98 65.60
18982 73.5265 3718.48 3722.12 66.72
18983 73.5303 3657.60 3721.24 66.06
18984 73.5341 3633.22 3720.36 66.10
18985 73.5378 3538.33 3719.51 65.24
18986 73.5416 3596.01 3718.64 65.15
18987 73.5453 3640.41 3717.80 65.64
18988 73.5491 3686.37 3716.93 66.33
18989 73.5528 3678.42 3716.09 66.02
18990 73.5566 3628.12 3715.24 64.74
18991 73.5604 3691.61 3714.39 68.66
18992 73.5641 3543.16 3713.56 66.64
18993 73.5679 3607.24 3712.71 65.41
18994 73.5716 3595.95 3711.89 65.85
18995 73.5754 3622.72 3711.04 65.90
18996 73.5791 3665.79 3710.21 66.77
18997 73.5829 3595.32 3709.39 64.65
18998 73.5867 3567.45 3708.56 66.43
18999 73.5903 3644.97 3707.75 66.66
19000 73.5942 3599.26 3706.92 65.66
19001 73.5979 3577.99 3706.12 65.64
19002 73.6017 3634.48 3705.30 66.45
19003 73.6055 3622.75 3704.48 65.62
19004 73.6092 3719.85 3703.68 65.33
19005 73.6130 3639.82 3702.87 65.67
19006 73.6167 3630.83 3702.08 66.66
19007 73.6205 3576.39 3701.27 65.49
19008 73.6243 3574.29 3700.46 65.08
19009 73.6280 3694.99 3699.68 66.47
19010 73.6318 3617.04 3698.88 65.40
19011 73.6355 3710.85 3698.10 66.84
19012 73.6393 3711.57 3697.30 66.94
19013 73.6431 3622.38 3696.50 66.81
19014 73.6468 3646.62 3695.73 63.71
19015 73.6506 3549.91 3694.94 63.09
19016 73.6543 3626.85 3694.17 63.61
19017 73.6581 3627.08 3693.38 63.57
19018 73.6619 3702.16 3692.60 66.08
19019 73.6656 3556.20 3691.83 63.34
19020 73.6694 3544.40 3691.05 62.15
19021 73.6731 3656.52 3690.29 64.15
19022 73.6769 3594.96 3689.51 63.28
19023 73.6806 3539.84 3688.76 63.28
19024 73.6844 3554.99 3687.98 63.89
19025 73.6882 3517.73 3687.21 63.14
19026 73.6919 3565.30 3686.46 63.40
19027 73.6957 3471.63 3685.69 63.07
19028 73.6994 3650.21 3684.94 65.17
19029 73.7032 3629.52 3684.17 64.34
19030 73.7069 3541.44 3683.41 62.90
19031 73.7107 3484.27 3682.67 62.48
19032 73.7145 3502.94 3681.90 63.61
19033 73.7181 3639.12 3681.16 64.52
19034 73.7220 3714.86 3680.40 65.15
19035 73.7257 3635.46 3679.66 64.72
19036 73.7295 3631.97 3678.91 64.35
19037 73.7333 3579.22 3678.15 63.66
19038 73.7370 3611.67 3677.42 63.79
19039 73.7408 3731.18 3676.67 65.12
19040 73.7445 3586.50 3675.93 63.55
19041 73.7483 3576.14 3675.19 63.69
19042 73.7521 3613.29 3674.44 64.09
19043 73.7558 3521.33 3673.54 63.42
19044 73.7596 3575.77 3672.62 63.23
19045 73.7633 3640.71 3671.73 65.74
19046 73.7671 3653.80 3670.81 64.44
19047 73.7709 3638.87 3669.89 64.35
19048 73.7746 3572.56 3669.00 62.96
19049 73.7784 3570.45 3668.09 64.08
19050 73.7821 3598.52 3667.20 63.81
19051 73.7859 3561.25 3666.29 63.47
19052 73.7897 3519.33 3665.38 63.76
19053 73.7934 3726.34 3664.50 64.50
19054 73.7972 3578.96 3663.59 64.38
19055 73.8009 3550.38 3662.71 64.09
19056 73.8047 3594.88 3661.81 63.43
19057 73.8085 3564.05 3660.90 63.42
19058 73.8122 3617.30 3660.03 64.07
19059 73.8160 3625.81 3659.13 63.85
19060 73.8197 3639.97 3658.25 64.25
19061 73.8235 3578.62 3657.36 63.85
19062 73.8272 3554.91 3656.48 63.27
19063 73.8310 3456.12 3655.59 62.30
19064 73.8348 3521.89 3654.70 62.35
19065 73.8385 3621.82 3653.83 64.70
19066 73.8423 3579.57 3652.94 63.60
19067 73.8459 3587.11 3652.08 63.99
19068 73.8498 3615.95 3651.19 64.23
19069 73.8536 3636.46 3650.30 63.91
19070 73.8573 3544.39 3649.44 62.44
19071 73.8611 3649.35 3648.56 65.69
19072 73.8648 3507.12 3647.70 63.31
19073 73.8686 3473.83 3646.82 62.51
19074 73.8724 3444.96 3645.94 62.09
19075 73.8761 3524.71 3645.09 62.16
19076 73.8799 3607.69 3644.22 64.09
19077 73.8836 3503.44 3643.36 63.16
19078 73.8874 3635.29 3642.49 65.28
19079 73.8912 3571.93 3641.62 63.46
19080 73.8949 3473.79 3640.78 62.65
19081 73.8987 3492.86 3639.91 63.12
19082 73.9024 3488.70 3639.07 63.22
19083 73.9062 3461.09 3638.21 62.36
19084 73.9100 3474.36 3637.35 62.67
19085 73.9137 3448.27 3636.51 62.63
19086 73.9175 3344.56 3635.65 60.69
19087 73.9212 3539.54 3634.82 64.12
19088 73.9250 3502.60 3633.97 62.61
19089 73.9287 3569.83 3633.14 63.73
19090 73.9325 3512.41 3632.29 63.31
19091 73.9363 3448.87 3631.44 62.39
19092 73.9400 3563.83 3630.62 64.55
19093 73.9438 3441.06 3629.77 62.39
19094 73.9475 3451.36 3628.95 62.27
19095 73.9513 3478.18 3628.11 63.30
19096 73.9551 3610.39 3627.27 63.59
19097 73.9588 3356.02 3626.46 60.90
19098 73.9626 3549.92 3625.62 64.53
19099 73.9663 3480.98 3624.81 62.92
19100 73.9701 3532.69 3623.98 63.27
19101 73.9739 3351.23 3623.15 61.23
19102 73.9776 3464.52 3622.34 63.14
19103 73.9814 3509.22 3621.52 63.04
19104 73.9851 3568.36 3620.72 63.40
19105 73.9889 3412.95 3619.90 62.18
19106 73.9927 3499.50 3619.08 63.41
19107 73.9964 3380.36 3618.29 62.23
19108 74.0002 3499.11 3617.48 63.11
19109 74.0039 3479.35 3616.68 63.12
19110 74.0077 3461.65 3615.88 63.06
19111 74.0115 3458.62 3615.07 62.69
19112 74.0152 3456.35 3614.29 62.40
19113 74.0190 3452.61 3613.48 62.88
19114 74.0227 3349.74 3612.70 61.52
19115 74.0265 3433.18 3611.91 62.43
19116 74.0303 3491.33 3611.11 62.96
19117 74.0340 3503.30 3610.34 62.67
19118 74.0378 3511.09 3609.54 63.49
19119 74.0415 3337.57 3608.78 61.50
19120 74.0453 3489.71 3607.99 63.09
19121 74.0490 3443.04 3607.23 63.25
19122 74.0528 3490.14 3606.45 63.14
19123 74.0566 3490.69 3605.67 62.02
19124 74.0603 3492.65 3604.91 64.90
19125 74.0641 3561.71 3604.14 64.55
19126 74.0678 3445.90 3603.38 62.01
19127 74.0716 3498.01 3602.62 62.77
19128 74.0754 3394.21 3601.85 61.96
19129 74.0791 3559.60 3601.10 64.10
19130 74.0829 3538.51 3600.34 63.35
19131 74.0866 3418.11 3599.60 62.65
19132 74.0904 3573.74 3598.85 63.76
19133 74.0942 3455.10 3598.09 62.96
19134 74.0979 3436.27 3597.36 62.80
19135 74.1017 3559.01 3596.61 63.69
19136 74.1054 3458.97 3595.88 63.10
19137 74.1092 3463.92 3595.14 62.78
19138 74.1130 3472.13 3594.40 63.42
19139 74.1167 3367.86 3593.68 61.21
19140 74.1205 3495.68 3592.94 63.29
19141 74.1242 3353.89 3592.23 62.30
19142 74.1280 3426.25 3591.50 62.11
19143 74.1318 3377.69 3590.77 61.33
19144 74.1355 3543.54 3590.06 63.16
19145 74.1393 3580.90 3589.34 64.63
19146 74.1430 3474.36 3588.64 62.14
19147 74.1468 3376.42 3587.92 61.45
19148 74.1506 3396.73 3587.20 61.83
19149 74.1543 3459.07 3586.51 61.80
19150 74.1581 3480.06 3585.80 61.74
19151 74.1618 3481.51 3585.11 63.92
19152 74.1656 3425.67 3584.40 62.40
19153 74.1694 3489.02 3583.70 62.28
19154 74.1731 3383.32 3583.02 61.72
19155 74.1769 3429.53 3582.32 62.26
19156 74.1806 3474.58 3581.65 62.69
19157 74.1844 3543.34 3580.96 63.09
19158 74.1882 3443.50 3580.27 62.27
19159 74.1919 3394.57 3579.60 61.90
19160 74.1957 3431.49 3578.92 62.40
19161 74.1994 3319.05 3578.26 61.29
19162 74.2032 3409.07 3577.58 62.21
19163 74.2070 3378.37 3576.90 61.62
19164 74.2107 3456.67 3576.25 62.72
19165 74.2145 3413.92 3575.58 62.42
19166 74.2182 3479.17 3574.93 62.36
19167 74.2220 3442.33 3574.27 62.08
19168 74.2257 3487.53 3573.63 62.02
19169 74.2295 3454.53 3572.97 62.45
19170 74.2333 3484.65 3572.31 61.75
19171 74.2370 3514.48 3571.68 63.31
19172 74.2408 3486.79 3571.03 63.23
19173 74.2445 3404.63 3570.40 61.45
19174 74.2483 3466.23 3569.75 62.95
19175 74.2521 3513.74 3569.11 63.33
19176 74.2558 3434.82 3568.49 62.12
19177 74.2596 3420.01 3567.85 61.71
19178 74.2633 3579.02 3567.24 65.16
19179 74.2671 3507.73 3566.61 63.18
19180 74.2709 3423.68 3565.98 62.77
19181 74.2746 3419.73 3565.38 61.44
19182 74.2784 3375.11 3564.75 61.42
19183 74.2821 3444.97 3564.15 62.72
19184 74.2859 3497.20 3563.54 62.84
19185 74.2897 3438.03 3562.92 62.38
19186 74.2934 3410.34 3562.33 62.51
19187 74.2972 3333.61 3561.72 61.94
19188 74.3009 3459.68 3561.14 62.87
19189 74.3047 3427.59 3560.53 62.50
19190 74.3085 3334.45 3559.94 60.85
19191 74.3122 3486.11 3559.36 63.01
19192 74.3160 3553.28 3558.76 63.31
19193 74.3197 3398.69 3558.19 61.97
19194 74.3235 3405.75 3557.60 61.71
19195 74.3273 3425.40 3557.02 62.39
19196 74.3310 3446.36 3556.45 62.57
19197 74.3348 3336.45 3555.88 61.69
19198 74.3385 3499.16 3555.32 62.75
19199 74.3423 3423.36 3554.74 62.45
19200 74.3461 3342.73 3554.17 61.27
19201 74.3498 3490.17 3553.62 63.00
19202 74.3536 3382.36 3553.06 61.36
19203 74.3573 3288.09 3552.51 60.13
19204 74.3611 3404.88 3551.96 62.40
19205 74.3649 3361.33 3551.40 61.76
19206 74.3686 3514.89 3550.86 62.98
19207 74.3724 3353.26 3550.31 61.69
19208 74.3761 3439.58 3549.78 62.30
19209 74.3799 3395.07 3549.24 61.72
19210 74.3837 3450.60 3548.70 62.50
19211 74.3874 3391.29 3548.18 61.51
19212 74.3912 3414.10 3547.64 62.12
19213 74.3949 3265.31 3547.12 60.11
19214 74.3987 3542.82 3546.60 63.31
19215 74.4025 3454.07 3546.07 62.42
19216 74.4062 3455.31 3545.56 62.54
19217 74.4100 3384.30 3545.04 62.35
19218 74.4137 3439.28 3544.54 61.89
19219 74.4175 3463.82 3544.03 62.19
19220 74.4213 3430.90 3543.51 62.52
19221 74.4250 3464.52 3543.02 62.03
19222 74.4288 3433.26 3542.52 61.61
19223 74.4325 3464.84 3542.03 62.05
19224 74.4363 3384.02 3541.53 61.42
19225 74.4401 3488.85 3541.03 62.57
19226 74.4438 3483.78 3540.55 62.26
19227 74.4476 3496.73 3540.06 62.40
19228 74.4513 3373.38 3539.59 62.34
19229 74.4551 3451.92 3539.10 62.01
19230 74.4589 3420.33 3538.62 61.10
19231 74.4626 3487.39 3538.15 64.26
19232 74.4664 3447.08 3537.68 62.54
19233 74.4701 3469.72 3537.22 61.88
19234 74.4739 3382.66 3536.75 62.07
19235 74.4777 3505.99 3536.28 62.71
19236 74.4814 3346.98 3535.83 61.35
19237 74.4852 3409.20 3535.37 62.36
19238 74.4889 3394.47 3534.92 61.11
19239 74.4927 3409.01 3534.47 61.53
19240 74.4965 3345.46 3534.01 61.50
19241 74.5002 3525.77 3533.58 63.22
19242 74.5040 3408.91 3533.13 61.17
19243 74.5077 3341.81 3532.70 61.29
19244 74.5115 3379.64 3532.26 61.04
19245 74.5153 3398.11 3531.82 61.82
19246 74.5190 3454.75 3531.40 62.53
19247 74.5228 3484.56 3530.97 62.75
19248 74.5265 3416.59 3530.55 61.69
19249 74.5303 3451.81 3530.12 62.35
19250 74.5341 3507.66 3529.70 62.16
19251 74.5378 3464.95 3529.29 61.97
19252 74.5416 3455.03 3528.88 62.97
19253 74.5453 3382.52 3528.47 61.15
19254 74.5491 3545.01 3528.06 63.51
19255 74.5529 3377.92 3527.65 61.24
19256 74.5566 3432.88 3527.26 61.14
19257 74.5604 3448.53 3526.86 61.65
19258 74.5641 3414.85 3526.47 63.80
19259 74.5679 3477.88 3526.07 61.64
19260 74.5717 3407.87 3525.68 62.04
19261 74.5754 3474.08 3525.30 61.61
19262 74.5791 3410.40 3524.91 61.76
19263 74.5829 3475.44 3524.54 62.99
19264 74.5867 3531.91 3524.15 63.17
19265 74.5903 3462.10 3523.79 62.54
19266 74.5942 3552.57 3523.41 63.68
19267 74.5980 3428.52 3523.04 62.69
19268 74.6017 3481.64 3522.68 62.86
19269 74.6055 3516.95 3522.31 63.05
19270 74.6092 3590.83 3521.96 65.27
19271 74.6130 3551.20 3521.60 64.23
19272 74.6168 3459.93 3521.24 64.26
19273 74.6205 3506.39 3520.90 64.07
19274 74.6243 3429.96 3520.54 63.51
19275 74.6280 3426.19 3520.21 64.01
19276 74.6318 3537.62 3519.86 64.62
19277 74.6356 3337.84 3519.52 62.88
19278 74.6393 3423.79 3519.19 62.95
19279 74.6431 3460.03 3518.85 64.42
19280 74.6468 3395.42 3518.52 63.01
19281 74.6506 3411.98 3518.19 63.66
19282 74.6544 3429.13 3517.86 63.25
19283 74.6581 3381.33 3517.55 62.79
19284 74.6619 3579.40 3517.23 65.65
19285 74.6656 3468.83 3516.92 64.44
19286 74.6694 3395.08 3516.60 62.93
19287 74.6732 3530.11 3516.29 64.70
19288 74.6769 3375.98 3515.99 62.97
19289 74.6807 3423.23 3515.68 64.20
19290 74.6845 3496.86 3515.38 63.86
19291 74.6882 3497.36 3515.08 64.04
19292 74.6920 3487.23 3514.79 63.29
19293 74.6957 3513.34 3514.50 64.40
19294 74.6995 3402.03 3514.21 63.48
19295 74.7033 3452.61 3513.92 64.37
19296 74.7069 3336.49 3513.64 62.97
19297 74.7108 3393.29 3513.36 63.14
19298 74.7145 3345.10 3513.08 63.64
19299 74.7183 3363.28 3512.81 63.34
19300 74.7220 3465.52 3512.54 64.62
19301 74.7258 3410.50 3512.27 63.78
19302 74.7296 3433.13 3512.00 63.15
19303 74.7333 3383.09 3511.75 62.90
19304 74.7371 3400.59 3511.48 63.35
19305 74.7408 3386.48 3511.23 62.98
19306 74.7446 3417.76 3510.98 63.84
19307 74.7484 3493.27 3510.72 64.00
19308 74.7521 3454.07 3510.48 64.10
19309 74.7559 3478.58 3510.23 64.83
19310 74.7596 3365.80 3510.00 62.28
19311 74.7634 3321.55 3509.76 63.93
19312 74.7672 3467.70 3509.52 64.51
19313 74.7709 3328.86 3509.29 62.83
19314 74.7747 3370.37 3509.06 62.17
19315 74.7784 3428.22 3508.84 63.53
19316 74.7822 3412.80 3508.61 63.72
19317 74.7860 3311.15 3508.39 63.42
19318 74.7897 3506.78 3508.17 64.64
19319 74.7935 3411.70 3507.96 63.14
19320 74.7972 3300.22 3507.75 62.43
19321 74.8010 3328.07 3507.54 62.68
19322 74.8048 3412.55 3507.33 62.56
19323 74.8085 3360.85 3507.14 62.28
19324 74.8123 3422.45 3506.94 64.07
19325 74.8160 3374.67 3506.74 62.92
19326 74.8198 3356.71 3506.55 63.16
19327 74.8236 3397.23 3506.36 63.93
19328 74.8273 3396.03 3506.17 63.78
19329 74.8311 3351.74 3505.99 62.86
19330 74.8347 3414.77 3505.81 64.03
19331 74.8386 3342.70 3505.63 63.17
19332 74.8424 3385.36 3505.46 64.31
19333 74.8461 3380.01 3505.29 63.11
19334 74.8499 3390.07 3505.12 63.39
19335 74.8536 3481.29 3504.96 63.78
19336 74.8574 3470.88 3504.79 63.23
19337 74.8612 3366.48 3504.63 63.51
19338 74.8649 3352.43 3504.48 64.12
19339 74.8687 3276.97 3504.32 61.80
19340 74.8724 3360.93 3504.17 62.88
19341 74.8762 3359.28 3504.03 62.72
19342 74.8800 3233.25 3503.88 61.44
19343 74.8837 3445.64 3503.74 63.54
19344 74.8875 3340.87 3503.60 62.82
19345 74.8912 3309.31 3503.47 62.28
19346 74.8950 3355.33 3503.34 63.04
19347 74.8988 3301.28 3503.21 62.57
19348 74.9025 3315.46 3503.09 62.40
19349 74.9063 3354.40 3502.96 63.83
19350 74.9100 3439.67 3502.85 63.90
19351 74.9138 3276.38 3502.73 61.75
19352 74.9176 3375.25 3502.61 63.77
19353 74.9213 3356.06 3502.51 63.43
19354 74.9251 3379.33 3502.40 63.25
19355 74.9288 3397.90 3502.30 63.43
19356 74.9326 3334.92 3502.19 62.78
19357 74.9364 3325.41 3502.10 62.70
19358 74.9401 3335.79 3502.00 62.87
19359 74.9439 3329.51 3501.97 63.06
19360 74.9476 3334.79 3501.88 63.47
19361 74.9514 3318.93 3501.80 62.81
19362 74.9552 3353.45 3501.71 62.61
19363 74.9589 3296.09 3501.64 61.22
19364 74.9627 3360.48 3501.56 63.76
19365 74.9664 3310.90 3501.49 63.27
19366 74.9702 3343.57 3501.42 62.64
19367 74.9739 3233.28 3501.35 61.35
19368 74.9777 3376.94 3501.29 62.54
19369 74.9815 3309.33 3501.23 62.38
19370 74.9852 3430.57 3501.17 63.60
19371 74.9890 3335.25 3501.12 62.85
19372 74.9927 3374.22 3501.07 63.26
19373 74.9965 3462.33 3501.02 64.88
19374 75.0003 3360.01 3500.98 63.32
19375 75.0040 3334.90 3500.94 62.25
19376 75.0078 3409.54 3500.90 63.52
19377 75.0115 3332.43 3500.86 63.32
19378 75.0153 3349.36 3500.83 63.24
19379 75.0191 3409.23 3500.81 64.37
19380 75.0228 3358.85 3500.78 64.01
19381 75.0266 3320.57 3500.76 63.18
19382 75.0303 3359.39 3500.74 63.15
19383 75.0341 3330.32 3500.72 63.13
19384 75.0379 3256.57 3500.71 61.84
19385 75.0416 3336.19 3500.70 64.16
19386 75.0454 3338.04 3500.54 62.46
19387 75.0491 3442.49 3500.53 63.27
19388 75.0529 3353.48 3500.53 63.55
19389 75.0567 3292.77 3500.54 61.87
19390 75.0604 3339.54 3500.54 63.19
19391 75.0642 3361.54 3500.55 64.50
19392 75.0679 3416.67 3500.57 63.32
19393 75.0717 3379.02 3500.58 62.87
19394 75.0755 3325.82 3500.60 62.45
19395 75.0792 3333.76 3500.63 62.83
19396 75.0830 3297.30 3500.65 62.99
19397 75.0867 3360.86 3500.68 63.72
19398 75.0905 3348.85 3500.72 63.02
19399 75.0943 3348.03 3500.75 63.05
19400 75.0980 3312.81 3500.79 62.78
19401 75.1018 3381.12 3500.84 62.77
19402 75.1055 3325.16 3500.88 62.79
19403 75.1093 3343.63 3500.93 63.14
19404 75.1131 3297.49 3500.98 62.53
19405 75.1168 3365.09 3501.04 63.24
19406 75.1206 3313.27 3501.10 61.66
19407 75.1243 3386.81 3501.16 63.77
19408 75.1281 3426.98 3501.23 63.85
19409 75.1319 3463.91 3501.30 63.08
19410 75.1356 3359.38 3501.37 62.17
19411 75.1394 3397.65 3501.45 63.89
19412 75.1431 3360.08 3501.53 63.31
19413 75.1469 3328.67 3501.61 61.61
19414 75.1507 3441.98 3501.70 63.98
19415 75.1544 3367.61 3501.79 62.53
19416 75.1582 3496.28 3501.89 63.64
19417 75.1619 3420.41 3501.98 64.16
19418 75.1657 3448.19 3502.08 64.75
19419 75.1695 3483.87 3502.19 63.69
19420 75.1732 3375.50 3502.30 63.22
19421 75.1770 3419.15 3502.41 63.94
19422 75.1807 3534.09 3502.52 64.92
19423 75.1845 3360.25 3502.64 63.40
19424 75.1883 3383.24 3502.76 63.44
19425 75.1920 3454.16 3502.89 62.94
19426 75.1958 3583.15 3503.02 66.06
19427 75.1995 3488.39 3503.15 64.60
19428 75.2033 3551.60 3503.29 65.50
19429 75.2070 3412.74 3503.43 63.88
19430 75.2108 3495.83 3503.57 63.84
19431 75.2146 3559.10 3503.72 64.92
19432 75.2183 3504.83 3503.87 65.12
19433 75.2221 3447.10 3504.03 64.45
19434 75.2258 3452.53 3504.19 63.93
19435 75.2296 3535.03 3504.35 64.58
19436 75.2334 3525.68 3504.52 64.86
19437 75.2371 3534.92 3504.69 65.48
19438 75.2409 3435.03 3504.86 64.25
19439 75.2446 3532.53 3505.04 64.37
19440 75.2484 3467.86 3505.22 64.56
19441 75.2522 3489.52 3505.41 64.31
19442 75.2559 3465.86 3505.60 64.25
19443 75.2597 3466.86 3505.79 63.30
19444 75.2634 3505.33 3505.98 66.08
19445 75.2672 3549.45 3506.18 65.98
19446 75.2710 3551.19 3506.39 65.35
19447 75.2747 3586.69 3506.60 64.81
19448 75.2785 3593.57 3506.81 64.95
19449 75.2822 3468.66 3507.02 64.93
19450 75.2860 3549.05 3507.25 65.62
19451 75.2898 3521.76 3507.48 64.80
19452 75.2935 3571.40 3507.70 64.67
19453 75.2973 3610.17 3507.93 65.55
19454 75.3010 3534.45 3508.17 65.52
19455 75.3048 3555.18 3508.41 65.64
19456 75.3086 3502.38 3508.65 64.98
19457 75.3123 3567.38 3508.90 64.91
19458 75.3161 3609.70 3509.15 65.27
19459 75.3198 3668.34 3509.40 66.23
19460 75.3236 3718.80 3509.67 67.13
19461 75.3274 3612.77 3509.93 65.90
19462 75.3311 3721.89 3510.20 67.13
19463 75.3349 3680.08 3510.47 66.16
19464 75.3386 3697.58 3510.74 67.10
19465 75.3424 3714.66 3511.02 67.97
19466 75.3461 3600.73 3511.30 65.46
19467 75.3499 3762.71 3511.59 68.11
19468 75.3537 3721.51 3511.89 66.53
19469 75.3574 3701.84 3512.17 66.11
19470 75.3612 3705.93 3512.48 66.23
19471 75.3649 3712.02 3512.77 67.57
19472 75.3687 3598.95 3513.08 65.79
19473 75.3725 3706.89 3513.40 66.44
19474 75.3762 3680.26 3513.71 65.79
19475 75.3800 3624.88 3514.03 65.26
19476 75.3837 3729.90 3514.35 67.24
19477 75.3875 3660.96 3514.68 66.37
19478 75.3913 3813.57 3515.01 67.83
19479 75.3950 3550.50 3515.34 65.12
19480 75.3988 3792.36 3515.68 67.33
19481 75.4025 3690.14 3516.01 66.79
19482 75.4063 3765.29 3516.36 67.15
19483 75.4100 3715.90 3516.71 66.08
19484 75.4138 3732.05 3517.06 67.11
19485 75.4176 3814.55 3517.42 67.37
19486 75.4213 3761.96 3517.78 67.50
19487 75.4251 3766.01 3518.14 66.96
19488 75.4288 3780.84 3518.50 67.92
19489 75.4326 3791.19 3518.88 67.90
19490 75.4364 3705.34 3519.26 67.02
19491 75.4401 3789.82 3519.63 67.24
19492 75.4439 3869.22 3520.01 68.10
19493 75.4476 3667.95 3520.39 65.95
19494 75.4513 3670.21 3520.78 66.53
19495 75.4552 3883.98 3521.18 69.00
19496 75.4589 3744.73 3521.57 66.33
19497 75.4627 3829.65 3521.97 68.68
19498 75.4664 3755.45 3522.36 68.36
19499 75.4702 3768.21 3522.77 67.30
19500 75.4740 3789.84 3523.19 66.67
19501 75.4777 3802.32 3523.59 67.09
19502 75.4815 3924.53 3524.01 67.98
19503 75.4852 3767.63 3524.42 66.77
19504 75.4890 3839.60 3524.84 68.46
19505 75.4927 3800.13 3525.26 68.22
19506 75.4965 3768.57 3525.69 67.33
19507 75.5003 3869.71 3526.12 68.54
19508 75.5040 3894.61 3526.55 69.16
19509 75.5078 3814.98 3526.98 68.01
19510 75.5115 3888.83 3527.42 69.39
19511 75.5153 3918.55 3527.86 69.04
19512 75.5191 3882.39 3528.31 69.25
19513 75.5228 3827.11 3528.74 68.42
19514 75.5266 3734.11 3529.20 67.49
19515 75.5303 3775.48 3529.64 67.68
19516 75.5341 3698.06 3530.09 66.68
19517 75.5379 3656.43 3530.55 66.23
19518 75.5416 3814.57 3531.00 69.04
19519 75.5454 3790.91 3531.46 67.90
19520 75.5491 3797.58 3531.91 67.99
19521 75.5529 3697.07 3532.38 66.90
19522 75.5567 3815.45 3532.85 67.76
19523 75.5604 3679.51 3533.31 66.36
19524 75.5642 3934.67 3533.78 70.37
19525 75.5679 3687.68 3534.24 66.98
19526 75.5717 3686.08 3534.72 66.55
19527 75.5754 3747.26 3535.18 67.20
19528 75.5791 3742.19 3535.66 66.89
19529 75.5830 3790.21 3536.13 67.56
19530 75.5867 3630.15 3536.60 66.12
19531 75.5905 3735.49 3537.08 67.87
19532 75.5942 3672.08 3537.55 67.42
19533 75.5980 3613.87 3538.03 66.12
19534 75.6018 3783.76 3538.52 68.54
19535 75.6055 3608.20 3538.99 66.59
19536 75.6093 3744.86 3539.47 67.60
19537 75.6130 3513.42 3539.95 64.76
19538 75.6168 3726.40 3540.43 66.94
19539 75.6205 3763.77 3540.90 67.33
19540 75.6243 3692.44 3541.39 67.13
19541 75.6281 3735.92 3541.87 68.55
19542 75.6318 3718.37 3542.34 67.49
19543 75.6356 3582.18 3542.83 65.25
19544 75.6393 3537.59 3543.30 65.77
19545 75.6431 3602.09 3543.78 66.77
19546 75.6469 3646.96 3544.26 66.56
19547 75.6506 3536.69 3544.73 66.19
19548 75.6544 3565.30 3545.21 66.54
19549 75.6581 3500.38 3545.68 65.55
19550 75.6619 3701.49 3546.16 67.13
19551 75.6657 3693.62 3546.64 66.85
19552 75.6694 3570.83 3547.10 65.90
19553 75.6732 3603.57 3547.57 66.31
19554 75.6769 3538.64 3548.03 64.87
19555 75.6807 3584.65 3548.50 66.89
19556 75.6844 3590.41 3548.96 65.34
19557 75.6882 3565.68 3549.42 65.00
19558 75.6920 3445.68 3549.88 65.24
19559 75.6957 3485.37 3550.33 64.76
19560 75.6995 3621.72 3550.79 66.44
19561 75.7032 3510.64 3551.23 65.60
19562 75.7069 3486.43 3551.68 65.53
19563 75.7108 3496.87 3552.13 66.03
19564 75.7145 3607.09 3552.57 66.83
19565 75.7183 3528.49 3553.01 65.95
19566 75.7220 3648.98 3553.43 67.67
19567 75.7258 3460.85 3553.87 65.52
19568 75.7295 3522.10 3554.29 66.23
19569 75.7333 3460.60 3554.71 65.10
19570 75.7371 3516.15 3555.13 65.24
19571 75.7408 3572.28 3555.54 65.64
19572 75.7446 3632.84 3555.95 66.96
19573 75.7483 3600.94 3556.35 66.34
19574 75.7521 3508.06 3556.75 65.89
19575 75.7559 3603.54 3557.15 66.43
19576 75.7596 3448.71 3557.53 64.15
19577 75.7634 3497.34 3557.91 65.92
19578 75.7671 3556.27 3558.28 66.75
19579 75.7709 3375.61 3558.65 63.97
19580 75.7746 3459.44 3559.01 64.39
19581 75.7784 3342.41 3559.37 63.74
19582 75.7822 3525.82 3559.73 65.20
19583 75.7859 3357.75 3560.07 64.18
19584 75.7897 3508.30 3560.41 64.12
19585 75.7934 3538.97 3560.73 65.39
19586 75.7972 3387.94 3561.06 64.10
19587 75.8010 3472.73 3561.38 65.20
19588 75.8047 3477.71 3561.68 65.83
19589 75.8085 3365.44 3561.98 63.95
19590 75.8122 3590.02 3562.27 65.95
19591 75.8160 3320.49 3562.56 64.13
19592 75.8197 3495.94 3562.83 65.51
19593 75.8235 3449.00 3563.10 63.75
19594 75.8273 3481.96 3563.36 64.95
19595 75.8310 3530.04 3563.61 65.21
19596 75.8347 3446.65 3563.85 64.60
19597 75.8385 3536.61 3564.08 64.40
19598 75.8423 3398.73 3564.30 65.15
19599 75.8460 3401.71 3564.51 63.72
19600 75.8498 3484.57 3564.71 65.78
19601 75.8536 3446.23 3564.91 64.12
19602 75.8573 3374.95 3565.08 63.87
19603 75.8611 3343.61 3565.26 63.43
19604 75.8648 3428.71 3565.52 65.82
19605 75.8686 3443.40 3565.67 64.28
19606 75.8724 3389.77 3565.81 62.67
19607 75.8761 3363.28 3565.94 63.84
19608 75.8799 3343.93 3566.06 63.35
19609 75.8836 3392.40 3566.16 64.42
19610 75.8874 3395.35 3566.26 65.34
19611 75.8911 3444.83 3566.34 64.67
19612 75.8949 3460.15 3566.41 65.18
19613 75.8987 3306.07 3566.47 63.01
19614 75.9024 3435.71 3566.52 64.44
19615 75.9062 3354.64 3566.56 64.12
19616 75.9099 3468.27 3566.58 64.60
19617 75.9137 3366.90 3566.59 63.90
19618 75.9175 3501.41 3566.59 64.00
19619 75.9212 3421.79 3566.57 64.13
19620 75.9250 3446.39 3566.55 65.38
19621 75.9287 3524.42 3566.51 66.02
19622 75.9325 3359.65 3566.46 64.24
19623 75.9362 3383.63 3566.39 63.34
19624 75.9400 3443.75 3566.31 64.10
19625 75.9438 3405.72 3566.22 65.19
19626 75.9475 3403.33 3566.11 64.57
19627 75.9513 3512.35 3565.99 65.56
19628 75.9550 3416.43 3565.86 64.25
19629 75.9588 3356.45 3565.71 63.56
19630 75.9625 3450.00 3565.55 63.29
19631 75.9663 3393.46 3565.38 65.38
19632 75.9701 3362.87 3565.18 64.34
19633 75.9738 3424.15 3564.99 64.50
19634 75.9776 3535.98 3564.77 64.91
19635 75.9813 3497.35 3564.54 65.26
19636 75.9851 3402.79 3564.30 64.18
19637 75.9888 3378.22 3564.04 64.11
19638 75.9926 3417.97 3563.77 64.36
19639 75.9964 3352.42 3563.48 63.38
19640 76.0001 3507.91 3563.18 65.39
19641 76.0039 3486.40 3562.86 64.47
19642 76.0076 3381.99 3562.54 64.02
19643 76.0114 3378.98 3562.19 63.90
19644 76.0152 3436.57 3561.83 64.77
19645 76.0189 3247.66 3561.47 62.47
19646 76.0227 3520.59 3561.08 65.49
19647 76.0264 3340.63 3560.68 64.41
19648 76.0302 3467.38 3560.27 65.39
19649 76.0339 3424.56 3559.84 64.57
19650 76.0377 3500.83 3559.40 64.27
19651 76.0415 3460.09 3558.94 64.74
19652 76.0452 3419.62 3558.48 65.13
19653 76.0490 3449.57 3557.99 65.54
19654 76.0527 3521.58 3557.50 64.66
19655 76.0565 3379.51 3556.98 62.04
19656 76.0602 3545.09 3556.47 63.40
19657 76.0640 3526.40 3555.92 64.86
19658 76.0678 3506.58 3555.37 63.15
19659 76.0715 3472.29 3554.81 63.77
19660 76.0753 3576.31 3554.23 64.02
19661 76.0790 3570.60 3553.65 64.26
19662 76.0828 3521.33 3553.04 64.97
19663 76.0865 3421.70 3552.43 62.51
19664 76.0903 3545.98 3551.80 64.25
19665 76.0941 3530.08 3551.15 64.86
19666 76.0978 3479.51 3550.51 63.91
19667 76.1015 3506.90 3549.83 64.55
19668 76.1053 3514.37 3549.16 64.57
19669 76.1091 3513.43 3548.46 64.75
19670 76.1128 3488.69 3547.77 64.81
19671 76.1166 3520.68 3547.05 65.14
19672 76.1204 3553.04 3546.32 63.39
19673 76.1241 3506.64 3545.59 64.40
19674 76.1279 3568.43 3544.83 64.85
19675 76.1316 3499.26 3544.09 64.19
19676 76.1354 3444.09 3543.31 63.59
19677 76.1391 3369.70 3542.54 62.14
19678 76.1429 3617.66 3541.74 65.93
19679 76.1467 3452.25 3540.93 63.93
19680 76.1504 3599.44 3540.12 64.53
19681 76.1542 3464.27 3539.29 64.21
19682 76.1579 3607.07 3538.47 65.21
19683 76.1617 3513.91 3537.62 63.54
19684 76.1654 3530.28 3536.78 66.20
19685 76.1692 3510.01 3535.91 64.57
19686 76.1730 3529.50 3535.03 65.41
19687 76.1767 3531.09 3534.17 65.00
19688 76.1805 3575.78 3533.27 65.12
19689 76.1842 3584.09 3532.39 65.59
19690 76.1880 3597.14 3531.48 65.58
19691 76.1917 3564.62 3530.58 65.28
19692 76.1955 3567.65 3529.65 65.40
19693 76.1993 3540.17 3528.71 64.63
19694 76.2030 3587.08 3527.79 65.26
19695 76.2068 3504.99 3526.84 64.99
19696 76.2105 3514.49 3525.90 64.22
19697 76.2143 3595.70 3524.93 65.43
19698 76.2180 3535.29 3523.99 64.31
19699 76.2218 3550.72 3523.01 65.29
19700 76.2256 3656.26 3522.02 66.09
19701 76.2293 3551.91 3521.05 65.14
19702 76.2331 3481.62 3520.06 64.13
19703 76.2368 3456.23 3519.08 64.37
19704 76.2406 3604.21 3518.07 65.18
19705 76.2443 3604.86 3517.08 66.13
19706 76.2481 3589.21 3516.06 65.37
19707 76.2519 3543.45 3515.04 64.92
19708 76.2556 3332.82 3514.04 63.57
19709 76.2594 3596.29 3513.01 64.93
19710 76.2631 3482.24 3512.00 64.65
19711 76.2669 3502.96 3510.96 65.89
19712 76.2706 3511.16 3509.94 65.72
19713 76.2744 3541.72 3508.89 64.05
19714 76.2782 3577.06 3507.84 65.05
19715 76.2819 3564.81 3506.82 65.33
19716 76.2857 3586.67 3505.76 65.69
19717 76.2894 3500.90 3504.73 64.88
19718 76.2932 3442.08 3503.67 64.13
19719 76.2969 3513.75 3502.63 64.70
19720 76.3007 3540.47 3501.57 65.44
19721 76.3045 3498.62 3500.50 64.83
19722 76.3082 3571.98 3499.46 66.20
19723 76.3120 3600.29 3498.39 66.12
19724 76.3157 3584.08 3497.35 65.60
19725 76.3195 3469.34 3496.28 64.06
19726 76.3232 3328.17 3495.23 63.02
19727 76.3270 3402.33 3494.16 62.94
19728 76.3307 3509.69 3493.11 64.79
19729 76.3345 3383.47 3492.04 63.07
19730 76.3383 3420.34 3490.96 63.38
19731 76.3420 3403.16 3489.92 64.03
19732 76.3458 3395.27 3488.84 63.64
19733 76.3495 3387.19 3487.80 64.23
19734 76.3533 3476.48 3486.73 64.82
19735 76.3570 3411.66 3485.68 63.48
19736 76.3608 3344.60 3484.61 62.00
19737 76.3646 3482.10 3483.54 65.89
19738 76.3683 3406.58 3482.50 63.55
19739 76.3721 3427.22 3481.44 63.35
19740 76.3758 3463.14 3480.40 63.34
19741 76.3796 3398.12 3479.34 63.84
19742 76.3833 3443.67 3478.31 63.90
19743 76.3871 3483.83 3477.25 64.63
19744 76.3908 3559.11 3476.22 65.16
19745 76.3946 3398.04 3475.17 62.84
19746 76.3984 3520.23 3474.12 64.28
19747 76.4021 3379.76 3473.10 64.05
19748 76.4059 3422.18 3472.05 64.08
19749 76.4096 3372.08 3471.04 63.03
19750 76.4134 3405.79 3470.03 63.95
19751 76.4171 3455.91 3469.02 64.27
19752 76.4209 3415.22 3467.99 64.25
19753 76.4247 3431.13 3466.96 64.39
19754 76.4284 3602.03 3465.97 66.83
19755 76.4322 3415.10 3464.95 64.46
19756 76.4359 3394.18 3463.96 63.94
19757 76.4397 3374.52 3462.95 64.14
19758 76.4434 3500.03 3461.97 64.73
19759 76.4472 3347.08 3460.97 63.93
19760 76.4509 3474.99 3460.00 64.65
19761 76.4547 3426.95 3459.01 64.19
19762 76.4585 3435.71 3458.02 64.29
19763 76.4622 3297.99 3457.06 61.77
19764 76.4660 3483.63 3456.09 65.99
19765 76.4697 3416.63 3455.14 64.43
19766 76.4735 3451.58 3454.18 64.02
19767 76.4772 3335.36 3453.24 61.82
19768 76.4810 3476.32 3452.29 64.47
19769 76.4848 3271.16 3451.34 62.51
19770 76.4885 3402.40 3450.42 63.16
19771 76.4923 3361.42 3449.49 63.62
19772 76.4960 3377.03 3448.58 62.61
19773 76.4998 3457.82 3447.66 64.02
19774 76.5035 3427.45 3446.76 64.33
19775 76.5073 3323.02 3446.00 61.35
19776 76.5110 3460.57 3445.25 63.80
19777 76.5148 3352.11 3444.50 62.91
19778 76.5186 3436.56 3443.75 63.99
19779 76.5222 3385.32 3443.03 63.57
19780 76.5261 3410.77 3442.29 63.68
19781 76.5298 3509.55 3441.59 66.93
19782 76.5336 3295.86 3440.86 60.52
19783 76.5373 3552.55 3440.17 63.08
19784 76.5411 3405.86 3439.47 61.61
19785 76.5448 3479.72 3438.79 63.14
19786 76.5486 3558.15 3438.10 63.76
19787 76.5523 3408.79 3437.43 62.07
19788 76.5561 3290.78 3436.76 60.75
19789 76.5599 3420.36 3436.09 62.08
19790 76.5636 3538.48 3435.44 62.77
19791 76.5674 3431.80 3434.79 63.33
19792 76.5711 3458.19 3434.16 62.43
19793 76.5749 3360.55 3433.53 61.32
19794 76.5786 3407.41 3432.91 61.74
19795 76.5824 3391.34 3432.29 61.87
19796 76.5861 3503.82 3431.70 62.96
19797 76.5899 3483.09 3431.09 62.61
19798 76.5937 3376.22 3430.50 61.74
19799 76.5974 3407.21 3429.93 61.85
19800 76.6012 3491.08 3429.35 62.55
19801 76.6049 3470.12 3428.79 63.16
19802 76.6087 3458.44 3428.23 63.17
19803 76.6124 3443.38 3427.69 62.65
19804 76.6162 3466.59 3427.14 62.63
19805 76.6199 3540.90 3426.62 63.11
19806 76.6237 3541.94 3426.10 63.74
19807 76.6275 3377.51 3425.58 61.26
19808 76.6312 3525.40 3425.08 63.58
19809 76.6350 3425.68 3424.58 62.43
19810 76.6387 3497.20 3424.10 63.10
19811 76.6425 3446.10 3423.62 62.64
19812 76.6462 3634.77 3423.15 65.27
19813 76.6500 3514.59 3422.69 64.02
19814 76.6537 3534.38 3422.24 63.68
19815 76.6575 3497.57 3421.79 62.99
19816 76.6612 3487.46 3421.35 62.31
19817 76.6650 3522.55 3420.94 63.53
19818 76.6688 3531.77 3420.51 64.28
19819 76.6725 3369.42 3420.11 61.98
19820 76.6763 3466.70 3419.71 63.05
19821 76.6800 3494.36 3419.33 62.95
19822 76.6838 3441.49 3418.95 63.07
19823 76.6875 3489.37 3418.58 62.89
19824 76.6913 3616.50 3418.22 64.26
19825 76.6950 3484.67 3417.87 63.23
19826 76.6988 3519.30 3417.52 62.70
19827 76.7026 3497.74 3417.18 63.51
19828 76.7063 3487.91 3416.86 63.68
19829 76.7101 3528.25 3416.55 63.39
19830 76.7138 3505.05 3416.25 63.02
19831 76.7176 3426.15 3415.94 62.42
19832 76.7213 3525.60 3415.66 63.75
19833 76.7251 3576.99 3415.38 64.68
19834 76.7288 3605.11 3415.11 64.67
19835 76.7326 3475.37 3414.85 63.04
19836 76.7364 3486.22 3414.60 62.67
19837 76.7401 3664.03 3414.36 64.34
19838 76.7439 3671.21 3414.12 65.70
19839 76.7476 3592.97 3413.90 63.89
19840 76.7514 3526.64 3413.69 63.99
19841 76.7551 3578.98 3413.49 63.98
19842 76.7589 3606.75 3413.29 63.91
19843 76.7626 3485.88 3413.11 62.48
19844 76.7664 3575.02 3412.93 65.36
19845 76.7701 3511.18 3412.76 63.87
19846 76.7739 3677.46 3412.60 65.71
19847 76.7777 3573.35 3412.45 63.45
19848 76.7814 3647.87 3412.31 65.10
19849 76.7852 3575.70 3412.18 64.88
19850 76.7889 3688.64 3412.05 64.94
19851 76.7927 3547.98 3411.94 63.78
19852 76.7964 3606.29 3411.84 64.70
19853 76.8002 3573.13 3411.74 64.22
19854 76.8039 3589.40 3411.65 64.66
19855 76.8077 3601.77 3411.58 64.39
19856 76.8114 3612.62 3411.51 64.05
19857 76.8152 3701.21 3411.45 65.57
19858 76.8190 3775.07 3411.39 66.01
19859 76.8227 3640.96 3411.35 64.89
19860 76.8265 3558.03 3411.32 63.35
19861 76.8302 3518.91 3411.29 63.80
19862 76.8340 3651.05 3411.27 64.94
19863 76.8377 3631.74 3411.27 64.65
19864 76.8415 3753.46 3411.27 65.94
19865 76.8452 3779.00 3411.28 66.85
19866 76.8490 3506.24 3411.29 63.38
19867 76.8527 3595.33 3411.32 64.20
19868 76.8565 3694.20 3411.35 65.51
19869 76.8602 3559.31 3411.39 63.52
19870 76.8640 3663.26 3411.44 64.33
19871 76.8678 3592.49 3411.50 64.98
19872 76.8715 3792.33 3411.57 66.49
19873 76.8753 3772.56 3411.65 65.86
19874 76.8790 3665.03 3411.73 64.44
19875 76.8828 3600.10 3411.82 64.02
19876 76.8865 3749.02 3411.92 65.81
19877 76.8903 3511.75 3412.02 63.96
19878 76.8940 3661.48 3412.13 64.96
19879 76.8978 3702.14 3412.26 66.36
19880 76.9015 3629.17 3412.39 65.75
19881 76.9053 3637.70 3412.52 65.31
19882 76.9090 3598.29 3412.67 64.34
19883 76.9128 3622.59 3412.82 64.78
19884 76.9166 3769.51 3412.98 66.09
19885 76.9203 3627.08 3413.14 64.22
19886 76.9241 3706.80 3413.32 65.72
19887 76.9278 3544.65 3413.50 64.36
19888 76.9316 3741.18 3413.69 65.30
19889 76.9353 3639.66 3413.88 64.12
19890 76.9391 3669.92 3414.07 65.13
19891 76.9428 3590.46 3414.28 64.72
19892 76.9466 3670.34 3414.49 66.07
19893 76.9503 3586.91 3414.71 64.34
19894 76.9541 3597.75 3414.94 64.46
19895 76.9578 3614.31 3415.17 64.73
19896 76.9616 3745.69 3415.41 64.70
19897 76.9654 3633.18 3415.66 65.11
19898 76.9691 3633.34 3415.91 65.94
19899 76.9729 3633.61 3416.17 64.87
19900 76.9766 3611.75 3416.43 64.20
19901 76.9804 3673.40 3416.70 65.20
19902 76.9841 3562.03 3416.97 63.89
19903 76.9879 3646.63 3417.26 65.19
19904 76.9916 3650.86 3417.54 64.81
19905 76.9938 3546.93 3417.71 63.69
19906 76.9976 3617.09 3418.00 65.50
19907 77.0014 3671.61 3418.31 66.24
19908 77.0051 3736.57 3418.61 67.11
19909 77.0089 3553.86 3418.92 65.41
19910 77.0126 3695.13 3419.23 66.65
19911 77.0164 3687.68 3419.55 68.90
19912 77.0201 3744.45 3419.87 65.00
19913 77.0239 3611.16 3420.20 63.79
19914 77.0276 3538.96 3420.53 63.05
19915 77.0314 3637.47 3420.86 64.82
19916 77.0352 3536.90 3421.21 63.70
19917 77.0389 3786.76 3421.55 65.86
19918 77.0427 3557.31 3421.90 63.51
19919 77.0464 3617.53 3422.24 64.14
19920 77.0502 3649.24 3422.60 63.97
19921 77.0539 3540.06 3422.95 64.55
19922 77.0577 3614.54 3423.32 64.08
19923 77.0614 3605.56 3423.68 63.84
19924 77.0652 3570.22 3424.05 63.47
19925 77.0690 3517.31 3424.42 63.24
19926 77.0727 3532.18 3424.79 63.38
19927 77.0765 3678.13 3425.16 64.63
19928 77.0802 3608.97 3425.54 64.15
19929 77.0840 3567.70 3425.92 63.55
19930 77.0877 3656.16 3426.29 64.28
19931 77.0915 3626.40 3426.68 64.83
19932 77.0952 3635.62 3427.06 65.05
19933 77.0990 3544.59 3427.45 63.78
19934 77.1027 3593.95 3427.83 64.01
19935 77.1065 3488.93 3428.22 62.75
19936 77.1103 3524.31 3428.61 63.71
19937 77.1140 3583.42 3429.00 63.40
19938 77.1178 3551.12 3429.39 63.97
19939 77.1215 3530.54 3429.78 63.60
19940 77.1253 3599.43 3430.17 64.24
19941 77.1290 3470.43 3430.55 63.02
19942 77.1328 3545.11 3430.95 64.53
19943 77.1365 3511.94 3431.34 64.13
19944 77.1403 3491.61 3431.73 63.40
19945 77.1441 3586.11 3432.13 63.99
19946 77.1478 3556.82 3432.51 63.12
19947 77.1516 3489.43 3432.90 63.34
19948 77.1553 3435.62 3433.28 63.47
19949 77.1591 3437.71 3433.67 62.80
19950 77.1628 3438.03 3434.05 62.90
19951 77.1666 3543.71 3434.44 63.57
19952 77.1703 3383.07 3434.81 62.63
19953 77.1741 3410.74 3435.20 62.26
19954 77.1779 3471.93 3435.58 62.99
19955 77.1816 3373.93 3435.95 62.27
19956 77.1854 3507.16 3436.32 62.72
19957 77.1891 3400.04 3436.69 62.68
19958 77.1929 3573.31 3437.06 64.66
19959 77.1966 3427.41 3437.41 62.54
19960 77.2004 3455.20 3437.77 62.67
19961 77.2041 3412.01 3438.13 62.41
19962 77.2079 3471.82 3438.48 63.36
19963 77.2116 3422.22 3438.82 63.29
19964 77.2153 3480.27 3439.17 63.58
19965 77.2192 3369.78 3439.51 62.14
19966 77.2229 3459.40 3439.84 62.55
19967 77.2232 3438.74 3439.87 63.06
19968 77.2269 3461.36 3440.19 62.97
19969 77.2307 3405.50 3440.52 62.75
19970 77.2345 3414.16 3440.84 62.66
19971 77.2382 3379.62 3441.15 62.68
19972 77.2420 3409.72 3441.47 62.60
19973 77.2457 3380.15 3441.76 63.10
19974 77.2495 3442.36 3442.06 63.09
19975 77.2532 3399.33 3442.35 63.21
19976 77.2570 3393.11 3442.64 62.40
19977 77.2607 3408.86 3442.91 62.20
19978 77.2645 3414.14 3443.18 63.48
19979 77.2682 3444.47 3443.44 63.97
19980 77.2720 3422.82 3443.70 63.30
19981 77.2757 3334.93 3443.95 62.27
19982 77.2795 3402.96 3444.19 62.56
19983 77.2832 3277.01 3444.42 61.61
19984 77.2870 3335.27 3444.65 62.05
19985 77.2908 3368.08 3444.87 63.11
19986 77.2945 3414.71 3445.08 63.52
19987 77.2983 3276.05 3445.28 62.16
19988 77.3020 3262.96 3445.47 62.13
19989 77.3058 3401.52 3445.66 63.06
19990 77.3095 3340.20 3445.83 63.13
19991 77.3133 3350.85 3446.00 62.82
19992 77.3170 3217.54 3446.15 61.20
19993 77.3208 3383.98 3446.30 62.72
19994 77.3245 3342.53 3446.43 62.43
19995 77.3283 3279.37 3446.56 62.12
19996 77.3319 3349.31 3446.68 63.62
19997 77.3358 3399.80 3446.79 63.47
19998 77.3395 3251.15 3446.88 61.93
19999 77.3433 3296.47 3446.97 62.65
20000 77.3470 3346.56 3447.04 62.83
20001 77.3508 3408.39 3447.11 64.00
20002 77.3546 3383.09 3447.16 63.84
20003 77.3583 3328.42 3447.21 62.39
20004 77.3621 3331.66 3447.24 61.57
20005 77.3658 3329.18 3447.26 63.30
20006 77.3696 3403.77 3447.27 63.72
20007 77.3733 3273.18 3447.27 61.96
20008 77.3771 3353.85 3447.25 63.11
20009 77.3808 3229.90 3447.23 60.71
20010 77.3846 3481.49 3447.19 62.72
20011 77.3883 3306.19 3447.14 62.93
20012 77.3921 3221.96 3447.08 61.42
20013 77.3958 3339.73 3447.00 62.44
20014 77.3996 3374.61 3446.92 63.19
20015 77.4034 3258.54 3446.82 61.50
20016 77.4071 3289.95 3446.71 61.91
20017 77.4109 3346.72 3446.58 63.03
20018 77.4146 3384.11 3446.45 63.22
20019 77.4184 3193.34 3446.30 61.14
20020 77.4221 3379.11 3446.14 63.39
20021 77.4259 3176.61 3445.96 60.66
20022 77.4296 3444.04 3445.78 63.12
20023 77.4334 3358.76 3445.58 62.57
20024 77.4371 3298.40 3445.36 62.25
20025 77.4409 3292.03 3445.14 62.78
20026 77.4447 3325.82 3444.90 63.10
20027 77.4484 3325.30 3444.65 62.53
20028 77.4522 3365.71 3444.38 63.21
20029 77.4559 3277.15 3444.10 62.26
20030 77.4597 3351.52 3443.81 62.33
20031 77.4634 3342.60 3443.51 62.21
20032 77.4672 3331.33 3443.19 63.50
20033 77.4709 3365.51 3442.86 63.42
20034 77.4747 3428.76 3442.52 63.50
20035 77.4784 3335.85 3442.17 62.33
20036 77.4821 3352.56 3441.79 62.43
20037 77.4859 3290.29 3441.42 61.68
20038 77.4897 3320.56 3441.02 62.61
20039 77.4935 3309.44 3440.60 62.44
20040 77.4972 3418.49 3440.19 63.44
20041 77.5010 3403.12 3439.75 63.05
20042 77.5047 3404.20 3439.31 63.31
20043 77.5085 3329.49 3438.85 62.88
20044 77.5122 3365.09 3438.38 63.18
20045 77.5160 3376.57 3437.89 63.43
20046 77.5197 3323.11 3437.40 62.77
20047 77.5235 3282.27 3436.89 61.96
20048 77.5272 3403.61 3436.37 64.19
20049 77.5310 3306.21 3435.83 62.74
20050 77.5348 3368.16 3435.28 63.21
20051 77.5385 3390.26 3434.73 63.39
20052 77.5423 3274.74 3434.15 62.53
20053 77.5460 3299.37 3433.58 63.46
20054 77.5498 3306.32 3432.98 63.49
20055 77.5535 3342.41 3432.38 63.10
20056 77.5573 3401.30 3431.76 63.48
20057 77.5610 3278.48 3431.14 61.05
20058 77.5648 3281.60 3430.49 63.21
20059 77.5685 3302.73 3429.85 63.06
20060 77.5723 3227.04 3429.18 61.29
20061 77.5761 3411.42 3428.50 62.25
20062 77.5798 3308.26 3427.83 62.20
20063 77.5836 3362.01 3427.13 62.82
20064 77.5873 3227.49 3426.43 62.46
20065 77.5911 3355.16 3425.71 62.86
20066 77.5948 3325.48 3424.99 63.26
20067 77.5986 3374.66 3424.25 64.14
20068 77.6023 3443.06 3423.51 64.28
20069 77.6061 3249.38 3422.75 62.73
20070 77.6098 3284.59 3422.00 62.42
20071 77.6136 3203.23 3421.21 62.05
20072 77.6174 3409.36 3420.42 63.95
20073 77.6211 3390.08 3419.64 64.23
20074 77.6249 3443.50 3418.83 64.44
20075 77.6286 3242.27 3418.03 62.92
20076 77.6324 3266.80 3417.20 62.67
20077 77.6360 3284.04 3416.38 62.74
20078 77.6399 3314.92 3415.54 62.50
20079 77.6436 3378.78 3414.70 63.65
20080 77.6474 3353.36 3413.84 62.74
20081 77.6511 3361.91 3412.99 63.21
20082 77.6549 3346.06 3412.11 63.37
20083 77.6587 3282.33 3411.23 61.96
20084 77.6624 3369.59 3410.36 62.91
20085 77.6662 3376.01 3409.46 64.69
20086 77.6774 3272.03 3406.76 61.89
20087 77.6812 3306.56 3405.83 64.13
20088 77.6849 3347.28 3404.92 63.26
20089 77.6887 3377.86 3403.98 62.35
20090 77.6925 3283.30 3403.03 62.22
20091 77.6962 3345.91 3402.10 62.77
20092 77.7000 3402.39 3401.14 63.72
20093 77.7037 3243.67 3400.20 62.06
20094 77.7075 3372.24 3399.23 63.35
20095 77.7112 3325.35 3398.28 63.06
20096 77.7150 3326.50 3397.30 63.16
20097 77.7187 3211.87 3396.34 61.35
20098 77.7225 3216.70 3395.34 61.59
20099 77.7263 3248.60 3394.35 62.50
20100 77.7300 3262.71 3393.38 62.19
20101 77.7338 3267.85 3392.37 62.46
20102 77.7375 3309.78 3391.39 62.76
20103 77.7413 3241.86 3390.38 61.16
20104 77.7450 3267.19 3389.39 62.54
20105 77.7488 3310.94 3388.37 62.11
20106 77.7525 3323.27 3387.37 62.88
20107 77.7563 3349.25 3386.34 63.08
20108 77.7601 3321.05 3385.31 61.58
20109 77.7638 3292.09 3384.31 61.79
20110 77.7676 3357.51 3383.27 64.18
20111 77.7713 3270.06 3382.25 62.42
20112 77.7750 3202.38 3381.21 61.36
20113 77.7788 3257.00 3380.20 62.16
20114 77.7826 3278.32 3379.15 62.59
20115 77.7863 3238.83 3378.13 61.00
20116 77.7901 3285.99 3377.07 62.02
20117 77.7938 3314.39 3376.04 63.65
20118 77.7976 3265.20 3374.99 62.38
20119 77.8014 3258.06 3373.93 62.65
20120 77.8051 3382.28 3372.90 63.94
20121 77.8089 3264.30 3371.84 61.58
20122 77.8126 3247.96 3370.80 60.90
20123 77.8164 3327.16 3369.74 63.45
20124 77.8201 3228.54 3368.71 61.69
20125 77.8239 3211.03 3367.64 62.04
20126 77.8276 3318.29 3366.60 61.69
20127 77.8314 3277.16 3365.53 62.22
20128 77.8352 3168.52 3364.47 60.81
20129 77.8389 3227.24 3363.43 60.60
20130 77.8427 3223.01 3362.36 61.52
20131 77.8464 3221.57 3361.32 61.09
20132 77.8502 3289.46 3360.26 62.32
20133 77.8539 3279.88 3359.22 62.75
20134 77.8577 3247.96 3358.15 61.18
20135 77.8615 3128.66 3357.08 58.21
20136 77.8652 3272.67 3356.04 62.77
20137 77.8690 3198.04 3354.97 60.77
20138 77.8727 3205.93 3353.93 61.24
20139 77.8765 3221.58 3352.86 61.52
20140 77.8802 3193.90 3351.82 60.25
20141 77.8840 3120.89 3350.76 60.16
20142 77.8877 3190.30 3349.72 60.65
20143 77.8915 3230.84 3348.65 61.91
20144 77.8953 3136.80 3347.59 60.88
20145 77.8990 3288.70 3346.55 62.51
20146 77.9028 3209.76 3345.49 61.52
20147 77.9065 3192.82 3344.45 61.42
20148 77.9103 3290.66 3343.39 62.18
20149 77.9140 3222.03 3342.36 62.03
20150 77.9178 3270.45 3341.30 62.12
20151 77.9216 3113.81 3340.24 59.93
20152 77.9253 3315.56 3339.22 63.02
20153 77.9291 3256.60 3338.16 61.72
20154 77.9328 3288.67 3337.14 62.18
20155 77.9366 3194.24 3336.09 61.38
20156 77.9403 3232.97 3335.07 61.23
20157 77.9441 3081.14 3334.02 60.16
20158 77.9478 3219.96 3333.00 60.63
20159 77.9516 3220.81 3331.96 62.04
20160 77.9554 3158.79 3330.92 60.49
20161 77.9591 3230.19 3329.90 61.57
20162 77.9629 3153.57 3328.87 58.83
20163 77.9666 3234.88 3327.86 61.99
20164 77.9704 3179.90 3326.83 60.26
20165 77.9741 3173.55 3325.82 60.97
20166 77.9779 3182.08 3324.79 60.92
20167 77.9816 3168.70 3323.79 59.92
20168 77.9854 3160.20 3322.77 60.78
20169 77.9892 3129.62 3321.75 60.44
20170 77.9929 3272.94 3320.75 61.52
20171 77.9967 3168.35 3319.74 61.34
20172 78.0004 3296.19 3318.75 62.53
20173 78.0042 3204.55 3317.74 61.73
20174 78.0079 3179.58 3316.75 61.44
20175 78.0117 3105.51 3315.75 60.34
20176 78.0155 3101.52 3314.74 60.03
20177 78.0192 3170.29 3313.77 60.74
20178 78.0230 3149.32 3312.77 61.10
20179 78.0267 3218.75 3311.80 61.61
20180 78.0305 3095.81 3310.89 60.08
20181 78.0342 3191.14 3309.92 61.10
20182 78.0380 3064.02 3308.93 59.70
20183 78.0418 3174.66 3307.95 60.54
20184 78.0455 3183.11 3306.99 61.49
20185 78.0493 3233.45 3306.01 62.36
20186 78.0530 3198.57 3305.06 61.75
20187 78.0568 3080.41 3304.08 60.25
20188 78.0605 3204.72 3303.14 61.02
20189 78.0643 3136.59 3302.17 60.30
20190 78.0680 3231.97 3301.06 62.28
20191 78.0718 3165.40 3300.10 61.06
20192 78.0756 3144.82 3299.14 60.74
20193 78.0793 3177.63 3298.20 60.80
20194 78.0831 3165.54 3297.25 60.61
20195 78.0868 3176.57 3296.32 61.38
20196 78.0906 3103.91 3295.38 60.70
20197 78.0943 3234.24 3294.45 62.14
20198 78.0981 3074.22 3293.51 59.81
20199 78.1019 3081.01 3292.57 60.55
20200 78.1056 3239.35 3291.66 62.28
20201 78.1094 3113.28 3290.72 60.68
20202 78.1131 3210.35 3289.82 61.56
20203 78.1169 3011.69 3288.89 59.81
20204 78.1206 3090.04 3287.99 60.35
20205 78.1244 3124.60 3287.06 60.02
20206 78.1282 3283.45 3286.14 62.31
20207 78.1319 3187.30 3285.25 61.62
20208 78.1357 3205.33 3284.34 61.59
20209 78.1394 3125.70 3283.45 60.66
20210 78.1432 3205.45 3282.54 61.03
20211 78.1469 3203.25 3281.66 61.18
20212 78.1507 3115.32 3280.76 60.69
20213 78.1545 3095.74 3279.86 60.36
20214 78.1582 3071.18 3278.98 60.49
20215 78.1620 3132.98 3278.09 60.41
20216 78.1657 3125.29 3277.22 61.52
20217 78.1695 3143.03 3276.33 60.71
20218 78.1732 3116.48 3275.47 59.93
20219 78.1770 3280.73 3274.59 61.70
20220 78.1808 3109.51 3273.71 60.38
20221 78.1845 3149.56 3272.85 60.89
20222 78.1883 3135.08 3271.97 60.58
20223 78.1920 3225.78 3271.12 61.44
20224 78.1958 3186.64 3270.25 60.33
20225 78.1995 3253.47 3269.41 61.78
20226 78.2033 3164.24 3268.54 60.76
20227 78.2069 3215.28 3267.71 61.83
20228 78.2108 3255.75 3266.84 61.69
20229 78.2146 3158.51 3265.99 60.92
20230 78.2183 3201.38 3265.16 61.81
20231 78.2221 3138.51 3264.31 60.09
20232 78.2258 3154.13 3263.48 60.84
20233 78.2296 3058.94 3262.63 59.81
20234 78.2333 3137.41 3261.81 61.03
20235 78.2371 3207.41 3260.97 60.76
20236 78.2409 3041.49 3260.13 59.37
20237 78.2446 3053.07 3259.32 60.04
20238 78.2484 3141.75 3258.49 60.32
20239 78.2521 3145.41 3257.68 61.35
20240 78.2559 3139.62 3256.84 60.47
20241 78.2597 3147.35 3256.02 60.21
20242 78.2634 3162.46 3255.22 59.75
20243 78.2672 3126.86 3254.40 61.73
20244 78.2709 3192.58 3253.60 61.37
20245 78.2747 3256.52 3252.78 61.97
20246 78.2784 3188.19 3251.99 60.47
20247 78.2822 3064.38 3251.18 59.40
20248 78.2860 3186.05 3250.37 61.12
20249 78.2897 3071.16 3249.58 60.73
20250 78.2935 3173.54 3248.78 61.36
20251 78.2972 3216.35 3247.99 60.89
20252 78.3010 3127.68 3247.19 60.79
20253 78.3047 3102.18 3246.41 59.29
20254 78.3085 3088.96 3245.62 59.84
20255 78.3123 3215.54 3244.83 61.50
20256 78.3160 3144.49 3244.06 60.51
20257 78.3198 3266.19 3243.27 61.86
20258 78.3235 3208.64 3242.50 61.44
20259 78.3273 3139.65 3241.71 60.79
20260 78.3310 3150.55 3240.95 61.00
20261 78.3347 3105.43 3240.17 60.02
20262 78.3386 3193.21 3239.39 61.25
20263 78.3423 3104.07 3238.64 59.73
20264 78.3461 3168.58 3237.86 61.19
20265 78.3498 3081.75 3237.11 59.87
20266 78.3536 3159.24 3236.34 60.91
20267 78.3573 3022.06 3235.59 60.09
20268 78.3611 3045.09 3234.83 59.14
20269 78.3649 3184.80 3234.06 61.25
20270 78.3686 3143.08 3233.32 60.84
20271 78.3724 3128.75 3232.56 60.22
20272 78.3761 3127.62 3231.83 59.75
20273 78.3799 3139.84 3231.07 60.67
20274 78.3836 2978.95 3230.34 59.45
20275 78.3874 3123.39 3229.59 60.88
20276 78.3912 2949.53 3228.84 58.57
20277 78.3949 3165.53 3228.11 60.27
20278 78.3987 3087.43 3227.37 60.08
20279 78.4024 3169.98 3226.65 60.77
20280 78.4062 3195.16 3225.91 61.36
20281 78.4100 3008.30 3225.17 58.78
20282 78.4137 3194.41 3224.45 60.80
20283 78.4175 3031.93 3223.71 59.69
20284 78.4212 3120.75 3223.00 60.22
20285 78.4250 3159.90 3222.27 59.74
20286 78.4287 3186.99 3221.57 61.60
20287 78.4325 3139.43 3220.84 60.03
20288 78.4363 3090.18 3220.11 60.16
20289 78.4400 3068.44 3219.41 58.43
20290 78.4438 3148.89 3218.69 60.70
20291 78.4475 3148.82 3218.00 60.04
20292 78.4513 3113.07 3217.28 60.57
20293 78.4550 3113.83 3216.59 59.83
20294 78.4588 3080.01 3215.88 60.37
20295 78.4625 3134.14 3215.17 59.91
20296 78.4663 3133.28 3214.48 61.24
20297 78.4701 3093.20 3213.77 59.90
20298 78.4737 3126.97 3213.09 59.29
20299 78.4776 3143.82 3212.39 60.37
20300 78.4813 3178.64 3211.71 61.52
20301 78.4851 3103.40 3211.01 60.10
20302 78.4889 3080.59 3210.32 60.26
20303 78.4926 3152.26 3209.65 60.73
20304 78.4964 3117.74 3208.96 60.50
20305 78.5001 3059.13 3208.29 59.90
20306 78.5039 3134.59 3207.60 60.73
20307 78.5077 3084.81 3206.92 59.97
20308 78.5114 3037.64 3206.26 59.66
20309 78.5152 3139.53 3205.58 60.80
20310 78.5189 3058.83 3204.92 59.87
20311 78.5227 3078.86 3204.24 59.38
20312 78.5264 3220.10 3203.59 61.30
20313 78.5302 3127.39 3202.92 60.98
20314 78.5340 3153.95 3202.25 61.07
20315 78.5377 3164.36 3201.60 61.44
20316 78.5415 3132.89 3200.94 60.63
20317 78.5452 3098.77 3200.29 60.90
20318 78.5490 3185.28 3199.63 60.60
20319 78.5528 3102.73 3198.98 59.94
20320 78.5565 3098.08 3198.34 60.30
20321 78.5603 3185.41 3197.69 60.94
20322 78.5640 2985.16 3197.05 58.10
20323 78.5678 3265.90 3196.41 64.08
20324 78.5715 3105.29 3195.78 60.68
20325 78.5753 3087.61 3195.13 59.66
20326 78.5791 3073.55 3194.49 60.01
20327 78.5828 3155.39 3193.87 61.41
20328 78.5866 3109.25 3193.23 60.68
20329 78.5903 3125.62 3192.62 59.44
20330 78.5941 3138.99 3191.99 60.65
20331 78.5979 3148.23 3191.35 60.68
20332 78.6015 3053.47 3190.74 59.97
20333 78.6054 3176.02 3190.12 61.55
20334 78.6091 3048.06 3189.51 59.51
20335 78.6129 3077.05 3188.89 59.67
20336 78.6166 3264.58 3188.29 61.74
20337 78.6204 3131.94 3187.67 60.04
20338 78.6242 3181.73 3187.06 61.09
20339 78.6279 3154.25 3186.46 61.08
20340 78.6317 3085.06 3185.85 60.24
20341 78.6354 3074.51 3185.26 60.31
20342 78.6392 2982.18 3184.66 59.32
20343 78.6429 3095.42 3184.07 60.53
20344 78.6467 3225.16 3183.47 61.91
20345 78.6505 3180.06 3182.87 61.52
20346 78.6542 3106.24 3182.30 60.74
20347 78.6580 3120.98 3181.70 60.97
20348 78.6617 3089.48 3181.13 60.57
20349 78.6655 2983.80 3180.54 58.10
20350 78.6693 3190.26 3179.95 62.90
20351 78.6730 3107.11 3179.39 60.30
20352 78.6768 3157.85 3178.81 60.89
20353 78.6805 3215.37 3178.24 60.95
20354 78.6843 3068.87 3177.67 60.34
20355 78.6880 3108.16 3177.11 60.14
20356 78.6918 3143.21 3176.54 61.05
20357 78.6956 3117.22 3175.97 60.45
20358 78.6993 3092.12 3175.42 60.86
20359 78.7031 3083.18 3174.85 59.77
20360 78.7068 3200.23 3174.31 61.66
20361 78.7106 3121.93 3173.75 60.77
20362 78.7144 3159.97 3173.19 61.05
20363 78.7181 3083.72 3172.65 60.29
20364 78.7219 3061.65 3172.10 60.77
20365 78.7256 3160.76 3171.56 60.78
20366 78.7293 3147.52 3171.02 60.91
20367 78.7331 2996.15 3170.49 59.21
20368 78.7369 3122.15 3169.94 61.42
20369 78.7407 3055.28 3169.40 60.20
20370 78.7444 3068.61 3168.88 60.54
20371 78.7482 3164.24 3168.34 61.69
20372 78.7519 3091.32 3167.83 60.66
20373 78.7557 3041.43 3167.30 60.39
20374 78.7595 2995.61 3166.77 58.74
20375 78.7632 3057.57 3166.26 58.45
20376 78.7670 3075.11 3165.73 59.88
20377 78.7707 3120.19 3165.23 61.54
20378 78.7745 3062.13 3164.71 60.47
20379 78.7783 3058.93 3164.19 59.78
20380 78.7820 3085.68 3163.70 60.50
20381 78.7858 2977.54 3163.18 59.19
20382 78.7895 3073.85 3162.69 60.41
20383 78.7933 3085.68 3162.19 60.53
20384 78.7970 3029.78 3161.69 59.85
20385 78.8008 3123.16 3161.19 60.73
20386 78.8046 3112.84 3160.70 60.89
20387 78.8083 3065.63 3160.21 59.68
20388 78.8121 3133.83 3159.72 61.16
20389 78.8158 3069.44 3159.24 59.88
20390 78.8196 3063.09 3158.75 60.21
20391 78.8234 3088.84 3158.27 60.31
20392 78.8271 3127.52 3157.80 60.51
20393 78.8309 3161.82 3157.32 60.95
20394 78.8346 3015.02 3156.85 59.77
20395 78.8384 3045.22 3156.37 59.49
20396 78.8422 3027.64 3155.90 59.85
20397 78.8459 3066.89 3155.44 59.43
20398 78.8497 3087.99 3154.97 60.44
20399 78.8534 3159.53 3154.52 60.96
20400 78.8571 3039.97 3154.06 59.69
20401 78.8609 3167.97 3153.61 61.10
20402 78.8647 2996.93 3153.15 57.79
20403 78.8685 3068.83 3152.69 61.41
20404 78.8722 3090.12 3152.25 60.21
20405 78.8760 3086.41 3151.80 59.92
20406 78.8797 3165.40 3151.36 60.84
20407 78.8835 3077.77 3150.92 60.29
20408 78.8873 2967.36 3150.48 58.59
20409 78.8910 3061.42 3150.05 59.57
20410 78.8948 3105.88 3149.61 60.00
20411 78.8985 3018.68 3149.18 59.77
20412 78.9023 3075.29 3148.75 59.29
20413 78.9060 3072.48 3148.33 60.00
20414 78.9098 3131.84 3147.90 60.63
20415 78.9136 3107.11 3147.48 60.58
20416 78.9173 3068.24 3147.07 59.59
20417 78.9211 3067.74 3146.65 59.92
20418 78.9248 3128.52 3146.24 60.99
20419 78.9286 3050.64 3145.82 59.48
20420 78.9324 3105.95 3145.41 58.90
20421 78.9361 3076.99 3145.01 59.85
20422 78.9399 3108.34 3144.60 59.41
20423 78.9436 3067.97 3144.21 59.51
20424 78.9474 3026.59 3143.81 60.31
20425 78.9512 3051.40 3143.41 59.77
20426 78.9549 3067.41 3143.02 60.12
20427 78.9587 3058.24 3142.63 60.27
20428 78.9624 3012.31 3142.24 58.33
20429 78.9662 3029.76 3141.85 59.82
20430 78.9700 3112.08 3141.47 61.65
20431 78.9737 2993.57 3141.09 58.71
20432 78.9775 3176.50 3140.71 59.68
20433 78.9812 2991.99 3140.34 59.63
20434 78.9849 3034.81 3139.96 59.76
20435 78.9887 3151.80 3139.60 60.95
20436 78.9925 3211.73 3139.23 61.67
20437 78.9963 3036.76 3138.86 59.51
20438 79.0000 3052.14 3138.50 60.04
20439 79.0038 3117.63 3138.14 60.45
20440 79.0075 3053.85 3137.79 59.69
20441 79.0113 3084.85 3137.43 59.93
20442 79.0151 3072.88 3137.07 60.04
20443 79.0188 3053.16 3136.73 59.37
20444 79.0226 3189.65 3136.38 61.08
20445 79.0263 3094.52 3136.04 59.93
20446 79.0301 3070.00 3135.70 60.39
20447 79.0338 3001.04 3135.36 58.59
20448 79.0376 3052.11 3135.02 59.89
20449 79.0414 3039.96 3134.68 59.56
20450 79.0451 3066.85 3134.36 59.85
20451 79.0489 2968.64 3134.03 59.05
20452 79.0526 3010.75 3133.71 60.24
20453 79.0564 3090.54 3133.38 60.44
20454 79.0602 3137.75 3133.06 60.19
20455 79.0639 3132.32 3132.75 59.32
20456 79.0677 2989.48 3132.43 59.94
20457 79.0714 3127.11 3132.12 60.85
20458 79.0752 3084.97 3131.81 60.19
20459 79.0790 3014.43 3131.50 59.22
20460 79.0827 3108.82 3131.20 60.33
20461 79.0865 3086.69 3130.90 59.18
20462 79.0902 3104.01 3130.60 60.25
20463 79.0940 3052.58 3130.30 59.75
20464 79.0978 3014.41 3130.01 59.70
20465 79.1015 3006.77 3129.72 59.39
20466 79.1053 3044.55 3129.43 59.09
20467 79.1090 3101.49 3129.15 59.16
20468 79.1127 3143.66 3128.87 60.89
20469 79.1165 3101.30 3128.59 60.09
20470 79.1203 3093.39 3128.31 60.61
20471 79.1241 3000.45 3128.04 60.05
20472 79.1278 3117.77 3127.77 60.31
20473 79.1316 3076.49 3127.50 59.51
20474 79.1353 3055.21 3127.24 59.54
20475 79.1391 3088.16 3126.98 59.67
20476 79.1429 3009.29 3126.71 58.98
20477 79.1466 3057.71 3126.46 60.13
20478 79.1504 3073.34 3126.21 58.96
20479 79.1541 3041.00 3125.96 59.35
20480 79.1579 3052.82 3125.71 59.83
20481 79.1617 2978.87 3125.46 58.64
20482 79.1654 3103.30 3125.22 59.13
20483 79.1692 3201.54 3124.98 62.27
20484 79.1729 3156.12 3124.75 60.56
20485 79.1767 3099.74 3124.51 59.72
20486 79.1805 3103.94 3124.28 59.76
20487 79.1842 3050.20 3124.06 59.49
20488 79.1880 3094.74 3123.83 59.61
20489 79.1917 3167.49 3123.61 60.64
20490 79.1955 3101.65 3123.39 59.90
20491 79.1992 3002.29 3123.18 58.94
20492 79.2030 3123.26 3122.96 60.32
20493 79.2068 3010.84 3122.75 59.37
20494 79.2105 3090.94 3122.55 59.98
20495 79.2143 3061.96 3122.35 59.66
20496 79.2180 3105.59 3122.15 60.12
20497 79.2218 2992.86 3121.95 59.00
20498 79.2256 3108.77 3121.75 60.28
20499 79.2293 3023.29 3121.57 59.13
20500 79.2331 3047.09 3121.38 59.28
20501 79.2368 3006.00 3121.19 59.43
20502 79.2405 3026.31 3121.01 59.16
20503 79.2444 3148.23 3120.83 60.66
20504 79.2481 3102.63 3120.66 60.65
20505 79.2519 3055.48 3120.48 60.34
20506 79.2556 3172.17 3120.32 61.24
20507 79.2594 3100.47 3120.17 60.25
20508 79.2632 3025.51 3120.13 58.50
20509 79.2669 3060.86 3120.10 59.71
20510 79.2707 3181.35 3120.07 61.81
20511 79.2744 3092.17 3120.04 59.94
20512 79.2782 3121.17 3120.02 59.85
20513 79.2819 3185.69 3120.00 60.52
20514 79.2857 2949.17 3119.98 57.71
20515 79.2895 3032.34 3119.96 59.65
20516 79.2932 3039.58 3119.95 59.41
20517 79.2970 3104.26 3119.95 60.51
20518 79.3007 2931.95 3119.94 58.25
20519 79.3045 3099.13 3119.94 60.49
20520 79.3083 3021.58 3119.94 59.51
20521 79.3120 3053.04 3119.94 59.61
20522 79.3158 3146.34 3119.95 60.99
20523 79.3195 3049.87 3119.97 59.76
20524 79.3233 3074.88 3119.98 59.97
20525 79.3271 2992.90 3120.00 59.54
20526 79.3308 3029.49 3120.02 59.60
20527 79.3346 2946.81 3120.05 58.75
20528 79.3383 2941.94 3120.08 58.46
20529 79.3421 2954.74 3120.11 58.61
20530 79.3459 3065.12 3120.15 59.79
20531 79.3496 3000.87 3120.19 59.24
20532 79.3534 3038.71 3120.23 59.30
20533 79.3571 3110.92 3120.28 60.25
20534 79.3609 3045.43 3120.33 59.06
20535 79.3647 2977.83 3120.38 57.60
20536 79.3683 3090.07 3120.44 61.00
20537 79.3722 3013.83 3120.50 59.27
20538 79.3759 3070.87 3120.57 59.31
20539 79.3797 2935.14 3120.63 58.56
20540 79.3834 3059.18 3120.71 59.59
20541 79.3872 2986.24 3120.78 59.21
20542 79.3910 3068.87 3120.86 59.29
20543 79.3947 3084.94 3120.94 60.11
20544 79.3985 2993.14 3121.03 59.35
20545 79.4022 2908.04 3121.12 58.25
20546 79.4060 3059.06 3121.22 59.50
20547 79.4098 3014.43 3121.31 59.48
20548 79.4135 3069.47 3121.41 59.80
20549 79.4173 2966.61 3121.52 58.89
20550 79.4210 2987.85 3121.63 58.03
20551 79.4248 3093.59 3121.74 59.52
20552 79.4286 3003.22 3121.86 59.40
20553 79.4323 3004.35 3121.98 59.31
20554 79.4361 3086.25 3122.11 59.92
20555 79.4398 3020.87 3122.24 59.12
20556 79.4436 3028.07 3122.37 59.33
20557 79.4474 3080.29 3122.50 59.34
20558 79.4511 2932.74 3122.64 58.60
20559 79.4549 3037.44 3122.79 59.49
20560 79.4586 3071.86 3122.94 60.11
20561 79.4624 2937.96 3123.09 58.30
20562 79.4662 3053.71 3123.25 59.70
20563 79.4699 3051.93 3123.41 60.52
20564 79.4737 3116.88 3123.57 60.47
20565 79.4774 2965.76 3123.74 58.60
20566 79.4812 3040.48 3123.91 59.59
20567 79.4850 3103.05 3124.09 59.83
20568 79.4887 3016.64 3124.27 59.62
20569 79.4925 3070.25 3124.46 59.77
20570 79.4961 3009.07 3124.64 58.79
20571 79.5000 3089.48 3124.84 59.69
20572 79.5037 3054.57 3125.03 59.22
20573 79.5075 2947.89 3125.23 59.45
20574 79.5113 3070.35 3125.44 60.47
20575 79.5150 3098.75 3125.65 60.40
20576 79.5188 3032.04 3125.86 59.91
20577 79.5225 3042.99 3126.08 59.93
20578 79.5263 3106.27 3126.30 60.16
20579 79.5301 3102.22 3126.53 60.08
20580 79.5338 3054.00 3126.76 59.74
20581 79.5376 3101.06 3127.00 60.20
20582 79.5413 3005.78 3127.23 58.46
20583 79.5451 2965.22 3127.48 58.82
20584 79.5489 2952.54 3127.73 58.51
20585 79.5526 2944.45 3127.98 59.31
20586 79.5564 3112.86 3128.24 60.31
20587 79.5601 3050.84 3128.49 59.44
20588 79.5639 3103.63 3128.76 59.37
20589 79.5677 3122.06 3129.04 61.91
20590 79.5714 3151.71 3129.31 61.43
20591 79.5752 3043.89 3129.59 59.61
20592 79.5789 3052.17 3129.87 58.82
20593 79.5827 3148.38 3130.16 60.69
20594 79.5865 3038.44 3130.45 60.32
20595 79.5902 3047.87 3130.75 60.02
20596 79.5940 3118.28 3131.05 60.51
20597 79.5977 3034.32 3131.35 59.57
20598 79.6015 3150.04 3131.66 60.26
20599 79.6053 3206.68 3131.98 61.46
20600 79.6090 3064.09 3132.30 60.36
20601 79.6128 3027.96 3132.62 59.30
20602 79.6165 3094.67 3132.95 59.36
20603 79.6203 3029.86 3133.29 59.21
20604 79.6239 3090.54 3133.62 60.03
20605 79.6278 3021.29 3133.96 59.10
20606 79.6316 3111.37 3134.31 60.20
20607 79.6353 3040.89 3134.66 58.97
20608 79.6391 3044.02 3135.02 59.19
20609 79.6428 3127.30 3135.38 59.78
20610 79.6466 3074.91 3135.75 58.24
20611 79.6504 3111.58 3136.12 59.48
20612 79.6541 3186.03 3136.49 61.02
20613 79.6579 3224.59 3136.87 60.91
20614 79.6616 3191.01 3137.25 60.64
20615 79.6654 3097.50 3137.65 59.19
20616 79.6692 3185.90 3138.05 61.93
20617 79.6729 3120.94 3138.44 60.25
20618 79.6767 3128.21 3138.85 60.37
20619 79.6804 3157.59 3139.25 60.25
20620 79.6842 3070.51 3139.67 59.15
20621 79.6880 3126.45 3140.09 59.64
20622 79.6917 3185.81 3140.51 60.46
20623 79.6955 3064.71 3140.94 58.86
20624 79.6992 3186.97 3141.37 59.45
20625 79.7030 3187.59 3141.81 60.81
20626 79.7068 3150.03 3142.25 60.45
20627 79.7105 3284.10 3142.70 61.80
20628 79.7143 3091.09 3143.15 59.86
20629 79.7180 3187.01 3143.60 60.05
20630 79.7218 3273.40 3144.07 61.95
20631 79.7256 3064.72 3144.54 59.29
20632 79.7293 3081.93 3145.01 59.72
20633 79.7331 3133.80 3145.49 60.17
20634 79.7368 3170.41 3145.96 60.28
20635 79.7406 3209.60 3146.46 60.39
20636 79.7443 3156.90 3146.94 59.89
20637 79.7481 3253.50 3147.44 61.41
20638 79.7519 3140.45 3147.95 59.51
20639 79.7556 3209.33 3148.45 60.89
20640 79.7594 3212.08 3148.97 60.49
20641 79.7631 3263.77 3149.48 61.16
20642 79.7669 3171.07 3150.00 60.13
20643 79.7707 3248.30 3150.54 61.68
20644 79.7744 3149.97 3151.06 60.41
20645 79.7782 3116.03 3151.60 59.83
20646 79.7819 3248.24 3152.14 61.07
20647 79.7857 3273.05 3152.69 61.38
20648 79.7895 3205.28 3153.25 59.96
20649 79.7932 3225.07 3153.80 60.72
20650 79.7970 3145.68 3154.37 60.20
20651 79.8007 3299.26 3154.92 61.66
20652 79.8045 3295.43 3155.50 61.29
20653 79.8083 3185.43 3156.08 60.65
20654 79.8120 3164.61 3156.66 60.24
20655 79.8158 3333.94 3157.25 61.88
20656 79.8195 3328.04 3157.83 61.28
20657 79.8233 3260.01 3158.44 61.49
20658 79.8271 3207.35 3159.05 60.66
20659 79.8308 3311.24 3159.65 61.74
20660 79.8346 3194.82 3160.26 60.20
20661 79.8383 3308.14 3160.87 62.17
20662 79.8421 3374.31 3161.50 61.75
20663 79.8459 3287.37 3162.14 61.38
20664 79.8496 3351.95 3162.76 62.64
20665 79.8534 3315.75 3163.40 61.09
20666 79.8571 3267.53 3164.04 61.33
20667 79.8609 3352.51 3164.69 61.39
20668 79.8646 3237.75 3165.33 59.87
20669 79.8684 3321.15 3166.00 61.68
20670 79.8722 3357.20 3166.67 62.63
20671 79.8759 3350.60 3167.32 61.66
20672 79.8797 3377.53 3168.00 62.26
20673 79.8834 3310.23 3168.67 61.05
20674 79.8872 3322.73 3169.36 61.50
20675 79.8910 3326.21 3170.06 61.91
20676 79.8947 3325.08 3170.74 60.56
20677 79.8985 3283.95 3171.44 60.85
20678 79.9022 3357.71 3172.13 62.12
20679 79.9060 3341.03 3172.85 61.72
20680 79.9098 3380.20 3173.57 62.76
20681 79.9135 3390.53 3174.27 62.81
20682 79.9173 3481.49 3175.00 62.54
20683 79.9210 3434.12 3175.72 63.17
20684 79.9248 3387.33 3176.46 62.97
20685 79.9286 3295.88 3177.20 61.74
20686 79.9323 3436.94 3177.93 62.99
20687 79.9361 3434.32 3178.47 62.67
20688 79.9398 3328.57 3179.21 62.20
20689 79.9436 3386.98 3179.97 62.85
20690 79.9473 3366.41 3180.72 62.55
20691 79.9511 3445.09 3181.49 62.28
20692 79.9549 3493.27 3182.27 64.26
20693 79.9586 3319.33 3183.03 61.69
20694 79.9624 3418.08 3183.81 62.57
20695 79.9661 3429.50 3184.59 62.58
20696 79.9699 3438.48 3185.38 63.93
20697 79.9737 3505.78 3186.18 63.50
20698 79.9774 3446.92 3186.97 63.15
20699 79.9812 3478.64 3187.78 63.43
20700 79.9849 3448.93 3188.57 62.49
20701 79.9887 3429.76 3189.39 62.00
20702 79.9925 3356.46 3190.21 61.31
20703 79.9962 3492.58 3191.01 63.79
20704 80.0000 3418.42 3191.85 61.76
20705 80.0037 3436.71 3192.66 62.77
20706 80.0075 3430.21 3193.50 62.91
20707 80.0113 3479.51 3194.35 62.58
20708 80.0150 3406.28 3195.17 62.73
20709 80.0188 3463.79 3196.02 63.35
20710 80.0225 3371.08 3196.86 62.40
20711 80.0263 3468.27 3197.72 63.59
20712 80.0300 3620.55 3198.56 64.83
20713 80.0338 3454.50 3199.43 62.72
20714 80.0376 3368.26 3200.30 63.54
20715 80.0413 3454.43 3201.15 63.13
20716 80.0451 3534.91 3202.03 63.19
20717 80.0488 3492.85 3202.89 63.13
20718 80.0526 3513.94 3203.78 62.87
20719 80.0564 3441.42 3204.67 63.17
20720 80.0601 3543.46 3205.54 64.31
20721 80.0639 3382.69 3206.44 61.93
20722 80.0676 3452.40 3207.32 63.98
20723 80.0714 3419.21 3208.22 63.90
20724 80.0752 3493.41 3209.13 63.31
20725 80.0789 3340.91 3210.02 62.08
20726 80.0827 3485.72 3210.93 63.16
20727 80.0864 3457.91 3211.82 63.85
20728 80.0902 3509.84 3212.75 64.62
20729 80.0940 3396.44 3213.67 62.10
20730 80.0977 3373.24 3214.58 62.77
20731 80.1015 3386.85 3215.50 63.03
20732 80.1052 3386.12 3216.41 62.68
20733 80.1090 3366.88 3217.35 62.77
20734 80.1127 3484.45 3218.29 64.42
20735 80.1165 3441.78 3219.20 63.72
20736 80.1203 3535.44 3220.15 65.68
20737 80.1240 3562.30 3221.07 65.09
20738 80.1278 3473.64 3222.02 64.15
20739 80.1315 3447.17 3222.95 63.62
20740 80.1353 3443.40 3223.90 63.99
20741 80.1391 3368.67 3224.85 63.24
20742 80.1428 3338.11 3225.78 62.39
20743 80.1466 3452.98 3226.75 63.34
20744 80.1503 3375.33 3227.68 62.84
20745 80.1541 3545.75 3228.64 65.53
20746 80.1579 3388.19 3229.61 63.75
20747 80.1616 3460.47 3230.55 63.98
20748 80.1654 3351.60 3231.52 61.76
20749 80.1691 3360.55 3232.46 63.62
20750 80.1729 3428.65 3233.43 63.79
20751 80.1767 3427.99 3234.40 62.68
20752 80.1804 3321.42 3235.35 61.42
20753 80.1842 3359.36 3236.32 63.31
20754 80.1879 3358.04 3237.27 62.99
20755 80.1917 3320.71 3238.25 62.15
20756 80.1954 3364.60 3239.20 63.09
20757 80.1992 3400.54 3240.18 63.32
20758 80.2030 3262.32 3241.15 62.44
20759 80.2067 3407.04 3242.10 62.33
20760 80.2105 3384.36 3243.08 63.64
20761 80.2142 3352.85 3244.03 63.26
20762 80.2180 3313.39 3245.01 62.23
20763 80.2218 3329.84 3245.99 63.19
20764 80.2255 3358.69 3246.94 62.30
20765 80.2293 3330.25 3247.92 63.01
20766 80.2330 3380.65 3248.87 63.74
20767 80.2368 3268.82 3249.85 62.39
20768 80.2405 3384.48 3250.82 63.76
20769 80.2443 3366.56 3251.77 63.15
20770 80.2481 3396.82 3252.75 63.81
20771 80.2518 3400.45 3253.69 63.52
20772 80.2556 3342.20 3254.67 62.94
20773 80.2593 3267.43 3255.61 61.94
20774 80.2631 3343.60 3256.58 63.04
20775 80.2669 3252.25 3257.55 60.86
20776 80.2706 3395.17 3258.49 64.89
20777 80.2744 3263.08 3259.45 62.11
20778 80.2781 3275.12 3260.39 61.58
20779 80.2819 3170.80 3261.35 60.63
20780 80.2857 3338.40 3262.30 61.61
20781 80.2894 3245.22 3263.23 61.86
20782 80.2932 3305.91 3264.19 62.87
20783 80.2969 3181.53 3265.11 61.11
20784 80.3007 3263.07 3266.06 62.40
20785 80.3045 3263.78 3267.00 62.38
20786 80.3082 3300.95 3267.92 62.25
20787 80.3120 3368.87 3268.85 63.71
20788 80.3157 3314.16 3269.76 62.64
20789 80.3195 3208.44 3270.69 62.28
20790 80.3232 3300.79 3271.59 62.50
20791 80.3270 3210.89 3272.51 61.84
20792 80.3308 3296.97 3273.43 62.48
20793 80.3345 3350.67 3274.32 61.73
20794 80.3383 3279.24 3275.23 62.65
20795 80.3420 3213.37 3276.11 62.12
20796 80.3458 3229.84 3277.01 61.88
20797 80.3496 3190.63 3277.90 60.97
20798 80.3533 3253.05 3278.77 62.22
20799 80.3571 3286.71 3279.65 62.42
20800 80.3608 3219.95 3280.51 61.60
20801 80.3646 3182.06 3281.38 60.28
20802 80.3683 3246.16 3282.25 62.39
20803 80.3721 3271.25 3283.09 62.53
20804 80.3759 3211.81 3283.94 60.75
20805 80.3796 3206.93 3284.77 61.26
20806 80.3834 3120.53 3285.61 59.92
20807 80.3871 3258.19 3286.42 62.13
20808 80.3909 3298.13 3287.25 62.85
20809 80.3947 3150.04 3288.08 60.84
20810 80.3984 3216.18 3288.87 61.01
20811 80.4022 3265.67 3289.68 61.75
20812 80.4059 3144.29 3290.46 60.71
20813 80.4097 3138.63 3291.25 60.88
20814 80.4135 3179.08 3292.03 61.43
20815 80.4172 3234.17 3292.79 61.93
20816 80.4210 3240.06 3293.56 62.20
20817 80.4247 3088.19 3294.30 60.26
20818 80.4285 3200.61 3295.05 61.43
20819 80.4322 3214.15 3295.78 61.95
20820 80.4360 3245.77 3296.51 61.90
20821 80.4398 3182.47 3297.24 60.62
20822 80.4435 3224.54 3297.93 61.47
20823 80.4473 3242.52 3298.64 62.81
20824 80.4510 3256.80 3299.32 60.44
20825 80.4548 3218.39 3300.01 61.82
20826 80.4586 3135.86 3300.69 61.09
20827 80.4623 3090.68 3301.34 59.95
20828 80.4661 3161.77 3302.00 60.15
20829 80.4698 3217.04 3302.63 62.17
20830 80.4736 3210.77 3303.27 61.69
20831 80.4774 3201.71 3303.90 61.47
20832 80.4811 3138.29 3304.50 60.87
20833 80.4849 3200.22 3305.10 59.50
20834 80.4886 3204.99 3305.68 61.43
20835 80.4924 3092.69 3306.27 59.82
20836 80.4961 3259.83 3306.83 62.02
20837 80.4999 3152.23 3307.39 60.15
20838 80.5037 3169.54 3307.94 61.09
20839 80.5074 3147.10 3308.47 60.91
20840 80.5112 3085.19 3308.99 59.91
20841 80.5149 3092.76 3309.49 60.13
20842 80.5187 3171.54 3310.00 61.24
20843 80.5225 3176.20 3310.49 61.56
20844 80.5262 3148.26 3310.96 60.66
20845 80.5300 3146.42 3311.42 60.52
20846 80.5337 3123.82 3311.87 59.42
20847 80.5375 3112.16 3312.31 60.53
20848 80.5412 3182.63 3312.73 60.47
20849 80.5450 3077.34 3313.14 59.17
20850 80.5488 3192.26 3313.55 62.01
20851 80.5525 3155.59 3313.93 60.60
20852 80.5563 3129.17 3314.31 60.66
20853 80.5600 3158.10 3314.66 60.59
20854 80.5638 3159.07 3315.01 61.21
20855 80.5676 3071.63 3315.35 59.60
20856 80.5713 3235.32 3315.67 62.14
20857 80.5751 3242.48 3315.98 61.14
20858 80.5788 3179.43 3316.27 60.16
20859 80.5826 3255.68 3316.55 61.43
20860 80.5863 3176.16 3316.81 61.31
20861 80.5901 3209.22 3317.07 60.43
20862 80.5939 3193.89 3317.31 60.81
20863 80.5976 3155.34 3317.54 60.32
20864 80.6014 3086.06 3317.75 59.34
20865 80.6051 3222.26 3317.95 61.81
20866 80.6089 3221.59 3318.14 61.38
20867 80.6127 3175.08 3318.31 61.45
20868 80.6164 3189.51 3318.46 61.05
20869 80.6202 3188.85 3318.61 60.90
20870 80.6239 3232.01 3318.73 61.43
20871 80.6277 3210.86 3318.85 61.55
20872 80.6314 3196.51 3318.95 60.52
20873 80.6352 3189.70 3319.09 61.38
20874 80.6390 3204.19 3319.16 61.03
20875 80.6427 3138.51 3319.22 60.33
20876 80.6465 3135.94 3319.27 60.20
20877 80.6502 3245.65 3319.30 61.93
20878 80.6540 3127.58 3319.31 59.99
20879 80.6577 3085.03 3319.32 60.55
20880 80.6615 3239.17 3319.30 61.53
20881 80.6653 3093.19 3319.28 58.94
20882 80.6690 3125.51 3319.24 59.72
20883 80.6728 3159.36 3319.18 61.71
20884 80.6765 3290.90 3319.12 62.35
20885 80.6803 3272.42 3319.03 61.61
20886 80.6841 3326.41 3318.94 61.98
20887 80.6878 3226.86 3318.83 61.37
20888 80.6916 3220.67 3318.70 61.70
20889 80.6953 3211.39 3318.57 61.07
20890 80.6991 3162.11 3318.41 61.54
20891 80.7028 3082.06 3318.25 59.69
20892 80.7066 3190.59 3318.06 60.84
20893 80.7104 3271.77 3317.87 61.57
20894 80.7141 3156.65 3317.67 60.67
20895 80.7179 3118.91 3317.44 60.08
20896 80.7216 3175.94 3317.21 60.02
20897 80.7254 3232.60 3316.96 61.36
20898 80.7292 3198.98 3316.70 61.14
20899 80.7329 3196.33 3316.43 61.13
20900 80.7367 3233.92 3316.13 61.57
20901 80.7404 3254.76 3315.84 61.61
20902 80.7442 3122.94 3315.52 60.25
20903 80.7479 3315.19 3315.20 62.79
20904 80.7517 3108.80 3314.85 60.43
20905 80.7555 3208.23 3314.49 62.00
20906 80.7592 3395.63 3314.13 62.27
20907 80.7630 3184.71 3313.75 61.62
20908 80.7667 3170.28 3313.36 58.92
20909 80.7705 3154.07 3312.95 62.30
20910 80.7742 3203.87 3312.54 61.69
20911 80.7780 3178.19 3312.11 60.91
20912 80.7818 3163.23 3311.66 59.60
20913 80.7855 3107.54 3311.22 60.04
20914 80.7893 3216.39 3310.74 60.86
20915 80.7930 3146.99 3310.27 60.88
20916 80.7968 3127.77 3309.78 60.28
20917 80.8005 3249.37 3309.29 62.07
20918 80.8043 3076.07 3308.77 60.14
20919 80.8081 3190.47 3308.23 61.56
20920 80.8118 3168.38 3307.71 61.69
20921 80.8156 3107.81 3307.15 61.10
20922 80.8193 3233.92 3306.60 61.95
20923 80.8231 3183.42 3306.02 61.27
20924 80.8269 3207.87 3305.44 61.62
20925 80.8306 3036.04 3304.85 59.45
20926 80.8344 3169.19 3304.24 61.18
20927 80.8381 3188.92 3303.64 60.08
20928 80.8419 3340.79 3303.01 62.93
20929 80.8456 3160.75 3302.38 60.58
20930 80.8494 3112.21 3301.73 60.91
20931 80.8532 3232.76 3301.07 60.72
20932 80.8569 3170.15 3300.42 61.56
20933 80.8607 3101.58 3299.73 59.71
20934 80.8644 3154.87 3299.06 60.57
20935 80.8682 3157.34 3298.36 60.99
20936 80.8719 3157.88 3297.67 61.03
20937 80.8757 3194.74 3296.95 60.79
20938 80.8795 3269.98 3296.22 61.57
20939 80.8832 3211.75 3295.50 61.33
20940 80.8870 3130.84 3294.75 60.91
20941 80.8907 3108.65 3294.02 60.67
20942 80.8945 3238.94 3293.25 61.11
20943 80.8983 3199.09 3292.48 61.48
20944 80.9020 3123.63 3291.72 61.09
20945 80.9058 3257.67 3290.93 61.94
20946 80.9095 3181.08 3290.15 61.51
20947 80.9133 3260.24 3289.34 62.00
20948 80.9170 3198.43 3288.55 60.88
20949 80.9208 3176.93 3287.73 60.87
20950 80.9245 3128.07 3286.92 60.50
20951 80.9283 3198.02 3286.09 61.43
20952 80.9321 3208.98 3285.25 60.46
20953 80.9358 3118.29 3284.42 59.87
20954 80.9396 3218.20 3283.56 60.42
20955 80.9433 3142.82 3282.72 60.57
20956 80.9471 3176.18 3281.85 61.09
20957 80.9508 3130.73 3281.00 60.26
20958 80.9546 3136.96 3280.12 60.54
20959 80.9584 3160.97 3279.23 60.21
20960 80.9621 3194.07 3278.36 60.57
20961 80.9659 3163.98 3277.46 59.92
20962 80.9696 3175.29 3276.57 60.25
20963 80.9734 3161.23 3275.67 59.85
20964 80.9772 3213.22 3274.75 60.01
20965 80.9809 3268.26 3273.85 62.38
20966 80.9847 3206.08 3272.93 61.91
20967 80.9884 3198.29 3272.02 60.52
20968 80.9922 3245.31 3271.08 61.24
20969 80.9959 3201.77 3270.17 60.40
20970 80.9997 3123.05 3269.22 59.70
20971 81.0035 3049.55 3268.28 58.97
20972 81.0072 3141.45 3267.35 59.92
20973 81.0110 3166.96 3266.39 61.35
20974 81.0147 3200.53 3265.46 61.41
20975 81.0185 3154.12 3264.49 60.82
20976 81.0222 3223.20 3263.55 61.23
20977 81.0260 3192.02 3262.58 60.51
20978 81.0298 3026.58 3261.61 57.91
20979 81.0335 3042.39 3260.66 58.40
20980 81.0373 3066.56 3259.68 58.69
20981 81.0410 3068.37 3258.72 59.50
20982 81.0448 3182.14 3257.74 60.05
20983 81.0485 3056.74 3256.78 59.68
20984 81.0523 3159.29 3255.60 60.63
20985 81.0560 3245.52 3254.63 61.82
20986 81.0598 3178.15 3253.64 60.49
20987 81.0636 3213.95 3252.65 60.84
20988 81.0673 3163.06 3251.68 59.66
20989 81.0711 3162.04 3250.68 60.87
20990 81.0748 3196.90 3249.71 61.50
20991 81.0786 3183.08 3248.71 61.12
20992 81.0823 3110.29 3247.73 60.62
20993 81.0861 3136.78 3246.73 60.92
20994 81.0899 3171.51 3245.73 60.98
20995 81.0936 3102.22 3244.75 60.82
20996 81.0974 3201.52 3243.75 60.71
20997 81.1011 3083.53 3242.77 60.40
20998 81.1049 3150.11 3241.77 60.88
20999 81.1086 3137.01 3240.79 60.47
21000 81.1124 3153.85 3239.79 61.22
21001 81.1162 3134.80 3238.79 61.49
21002 81.1199 3100.42 3237.81 60.43
21003 81.1237 3196.65 3236.81 61.50
21004 81.1274 3093.68 3235.84 60.99
21005 81.1312 3142.84 3234.83 60.60
21006 81.1349 3089.83 3233.86 60.41
21007 81.1387 3036.75 3232.86 60.18
21008 81.1425 3068.54 3231.87 59.74
21009 81.1462 3120.48 3230.89 61.01
21010 81.1500 3140.41 3229.90 60.95
21011 81.1537 3119.92 3228.93 60.04
21012 81.1575 3076.92 3227.94 60.59
21013 81.1612 3097.42 3226.98 60.76
21014 81.1650 3114.15 3225.99 60.44
21015 81.1688 3072.24 3225.00 59.53
21016 81.1725 3153.00 3224.04 62.97
21017 81.1763 3113.39 3223.06 60.66
21018 81.1800 3144.01 3222.10 61.83
21019 81.1838 3016.65 3221.13 59.96
21020 81.1875 3076.37 3220.18 59.32
21021 81.1913 3175.37 3219.21 62.04
21022 81.1950 3001.87 3218.26 59.90
21023 81.1988 3167.49 3217.29 61.73
21024 81.2026 3110.44 3216.33 60.06
21025 81.2063 3007.04 3215.40 60.37
21026 81.2101 3078.16 3214.44 61.43
21027 81.2138 3137.66 3213.51 61.27
21028 81.2176 3018.16 3212.56 60.36
21029 81.2213 3127.66 3211.64 60.89
21030 81.2251 3121.75 3210.69 61.29
21031 81.2289 3143.31 3209.75 61.49
21032 81.2326 3105.18 3208.84 60.95
21033 81.2364 3065.06 3207.91 59.24
21034 81.2401 3086.21 3207.00 61.11
21035 81.2439 3134.36 3206.08 61.53
21036 81.2476 3145.70 3205.18 62.18
21037 81.2514 3191.57 3204.26 62.45
21038 81.2551 3105.44 3203.37 60.94
21039 81.2589 3073.26 3202.46 60.57
21040 81.2627 3091.56 3201.56 60.79
21041 81.2664 3022.32 3200.68 57.96
21042 81.2702 3106.36 3199.78 61.30
21043 81.2739 3132.81 3198.92 62.58
21044 81.2777 3087.42 3198.03 60.55
21045 81.2814 3081.07 3197.17 60.09
21046 81.2852 3174.51 3196.29 61.99
21047 81.2890 3042.97 3195.42 61.26
21048 81.2927 2988.60 3194.58 59.63
21049 81.2965 3108.98 3193.72 60.72
21050 81.3002 3179.46 3192.88 61.72
21051 81.3040 3053.30 3192.03 60.45
21052 81.3077 2999.44 3191.20 59.45
21053 81.3114 3156.34 3190.36 61.73
21054 81.3152 3146.27 3189.54 61.28
21055 81.3190 3077.95 3188.71 60.75
21056 81.3228 2961.01 3187.88 59.99
21057 81.3265 3064.20 3187.08 60.68
21058 81.3303 3162.70 3186.27 62.20
21059 81.3340 3068.75 3185.48 60.87
21060 81.3378 3001.70 3184.67 59.99
21061 81.3415 3150.69 3183.89 62.01
21062 81.3453 3123.30 3183.10 61.56
21063 81.3490 3056.67 3182.33 60.90
21064 81.3528 3101.34 3181.55 60.87
21065 81.3566 3055.04 3180.78 60.00
21066 81.3603 3213.46 3180.02 62.66
21067 81.3641 3075.16 3179.26 60.88
21068 81.3678 3083.80 3178.52 59.41
21069 81.3716 3119.33 3177.77 62.20
21070 81.3753 2993.36 3177.04 59.99
21071 81.3791 3055.12 3176.30 58.95
21072 81.3829 3033.11 3175.56 60.53
21073 81.3866 3014.89 3174.85 59.95
21074 81.3904 3136.68 3174.13 61.18
21075 81.3941 3027.46 3173.43 60.40
21076 81.3979 3046.61 3172.72 60.56
21077 81.4016 3074.06 3172.03 60.20
21078 81.4054 3005.40 3171.33 59.19
21079 81.4091 3115.69 3170.65 60.61
21080 81.4129 3010.56 3169.97 59.51
21081 81.4167 3061.32 3169.28 60.47
21082 81.4204 2966.63 3168.62 59.12
21083 81.4242 3057.06 3167.95 60.76
21084 81.4279 3059.84 3167.31 60.66
21085 81.4317 3115.57 3166.65 61.46
21086 81.4354 3030.79 3166.02 60.12
21087 81.4392 3107.69 3165.37 61.43
21088 81.4429 3040.46 3164.75 59.11
21089 81.4467 3000.88 3164.12 60.09
21090 81.4505 2978.39 3163.49 59.78
21091 81.4542 3027.22 3162.89 59.91
21092 81.4580 3053.56 3162.28 59.29
21093 81.4617 3038.70 3161.69 60.10
21094 81.4655 2964.14 3161.08 58.14
21095 81.4692 3051.05 3160.50 60.43
21096 81.4730 3106.41 3159.92 60.22
21097 81.4767 3000.92 3159.35 59.76
21098 81.4805 3095.45 3158.78 60.32
21099 81.4842 3053.65 3158.22 60.24
21100 81.4880 3057.21 3157.66 60.86
21101 81.4918 3070.36 3157.10 60.83
21102 81.4955 2979.18 3156.57 59.50
21103 81.4993 2991.71 3156.02 60.04
21104 81.5030 2972.82 3155.49 59.97
21105 81.5068 3006.09 3154.96 59.99
21106 81.5105 3025.40 3154.45 60.18
21107 81.5143 2998.52 3153.93 60.27
21108 81.5180 3116.11 3153.43 61.35
21109 81.5218 3042.15 3152.91 59.95
21110 81.5256 3093.37 3152.41 61.37
21111 81.5293 2976.32 3151.93 60.07
21112 81.5331 3147.20 3151.44 60.48
21113 81.5368 3052.01 3150.96 59.23
21114 81.5406 3085.75 3150.49 59.56
21115 81.5443 3094.79 3150.02 59.33
21116 81.5481 3079.91 3149.56 59.85
21117 81.5518 2994.88 3149.11 58.45
21118 81.5556 3091.98 3148.65 59.41
21119 81.5594 2952.08 3148.20 58.61
21120 81.5631 3000.11 3147.77 58.83
21121 81.5669 3027.89 3147.33 58.29
21122 81.5706 3010.49 3146.91 59.98
21123 81.5744 3075.38 3146.48 60.44
21124 81.5781 3005.83 3146.08 58.78
21125 81.5819 3155.44 3145.66 60.16
21126 81.5856 3047.97 3145.26 59.66
21127 81.5894 3013.56 3144.86 59.45
21128 81.5932 2999.49 3144.46 58.88
21129 81.5969 3167.63 3144.07 61.16
21130 81.6007 2980.42 3143.68 58.86
21131 81.6044 2986.67 3143.31 58.66
21132 81.6082 2957.52 3142.93 59.05
21133 81.6119 3083.61 3142.57 59.65
21134 81.6157 3003.72 3142.20 58.74
21135 81.6194 2982.35 3141.85 58.79
21136 81.6232 3060.95 3141.49 59.22
21137 81.6269 2939.85 3141.15 58.03
21138 81.6307 3015.12 3140.80 58.45
21139 81.6344 3000.44 3140.47 58.46
21140 81.6382 2926.79 3140.13 58.70
21141 81.6420 3092.86 3139.80 60.11
21142 81.6457 3044.99 3139.48 59.51
21143 81.6495 3014.96 3139.16 59.42
21144 81.6532 2944.95 3138.85 57.18
21145 81.6570 3045.76 3138.53 59.69
21146 81.6607 3047.80 3138.23 59.79
21147 81.6645 2970.78 3137.93 58.59
21148 81.6682 2959.29 3137.64 57.80
21149 81.6720 2981.72 3137.34 58.59
21150 81.6757 2988.77 3137.06 59.34
21151 81.6795 2996.89 3136.77 58.78
21152 81.6833 3039.82 3136.49 59.18
21153 81.6870 2978.61 3136.21 58.37
21154 81.6908 2984.34 3135.94 59.13
21155 81.6945 3028.01 3135.68 59.23
21156 81.6983 3125.48 3135.41 60.22
21157 81.7020 3067.45 3135.15 58.73
21158 81.7058 3104.66 3134.90 60.20
21159 81.7095 2834.63 3134.65 57.15
21160 81.7133 3091.97 3134.40 60.07
21161 81.7170 3119.08 3134.16 60.19
21162 81.7208 2962.49 3133.91 58.29
21163 81.7246 3003.16 3133.67 59.18
21164 81.7283 2790.39 3133.44 56.79
21165 81.7321 3044.47 3133.20 58.77
21166 81.7358 3055.29 3132.98 59.47
21167 81.7396 2902.85 3132.75 57.50
21168 81.7433 2967.59 3132.53 58.32
21169 81.7471 2906.59 3132.31 57.93
21170 81.7508 2933.72 3132.10 58.32
21171 81.7546 2975.99 3131.88 58.61
21172 81.7583 2987.53 3131.67 58.91
21173 81.7621 3032.48 3131.46 58.69
21174 81.7658 2917.67 3131.26 57.78
21175 81.7696 2966.16 3131.06 58.09
21176 81.7734 2941.74 3130.85 58.82
21177 81.7771 2934.41 3130.66 57.75
21178 81.7809 3090.93 3130.46 59.74
21179 81.7846 2956.79 3130.27 58.71
21180 81.7884 3012.13 3130.08 59.62
21181 81.7921 3004.75 3129.89 59.23
21182 81.7959 3026.53 3129.70 60.42
21183 81.7996 3003.37 3129.52 59.69
21184 81.8034 2982.85 3129.33 58.94
21185 81.8071 2884.86 3129.15 58.10
21186 81.8109 2902.79 3128.97 57.59
21187 81.8147 2864.95 3128.79 57.81
21188 81.8184 2921.21 3128.62 58.00
21189 81.8222 2869.47 3128.44 57.23
21190 81.8259 2947.06 3128.27 58.57
21191 81.8297 3048.03 3128.10 60.36
21192 81.8334 2918.71 3127.93 58.23
21193 81.8372 2935.62 3127.75 57.77
21194 81.8409 2935.85 3127.59 58.24
21195 81.8447 2899.18 3127.42 57.25
21196 81.8484 2975.38 3127.25 58.77
21197 81.8522 2894.73 3127.08 58.16
21198 81.8559 2994.06 3126.92 59.37
21199 81.8597 2838.62 3126.76 57.39
21200 81.8635 2905.14 3126.59 58.34
21201 81.8672 3055.22 3126.43 59.22
21202 81.8710 2933.43 3126.27 57.95
21203 81.8747 3039.18 3126.11 60.37
21204 81.8785 2899.91 3125.94 58.54
21205 81.8822 2937.71 3125.78 58.41
21206 81.8860 3004.62 3125.62 58.74
21207 81.8897 2929.97 3125.46 58.47
21208 81.8935 2975.63 3125.30 59.17
21209 81.8972 2934.74 3125.14 58.94
21210 81.9010 3013.47 3124.97 58.98
21211 81.9047 2977.93 3124.82 58.94
21212 81.9084 2981.74 3124.65 58.19
21213 81.9122 2994.58 3124.49 58.91
21214 81.9160 2928.62 3124.33 58.49
21215 81.9196 2914.19 3124.17 57.99
21216 81.9235 2996.09 3124.00 58.24
21217 81.9273 2955.16 3123.84 58.55
21218 81.9310 2945.03 3123.67 59.33
21219 81.9348 3042.28 3123.51 60.38
21220 81.9385 3048.29 3123.35 60.20
21221 81.9423 2934.15 3123.18 58.36
21222 81.9460 3066.22 3123.02 58.93
21223 81.9498 3035.48 3122.85 58.66
21224 81.9535 2829.97 3122.68 56.02
21225 81.9573 2933.86 3122.51 57.58
21226 81.9610 2868.70 3122.34 57.81
21227 81.9648 2894.16 3122.17 56.50
21228 81.9685 2921.32 3122.00 58.00
21229 81.9723 2941.09 3121.83 59.51
21230 81.9760 3003.59 3121.67 58.97
21231 81.9798 2950.73 3121.49 57.66
21232 81.9836 2859.71 3121.32 54.96
21233 81.9873 2916.48 3121.14 56.39
21234 81.9911 3030.13 3120.96 60.38
21235 81.9948 2956.90 3120.78 58.98
21236 81.9986 2983.68 3120.60 57.64
21237 82.0023 2951.91 3120.42 56.09
21238 82.0061 3002.31 3120.23 55.38
21239 82.0098 2927.87 3120.05 52.94
loop_
_refln_index_h
_refln_index_k
_refln_index_l
_refln_F_squared_calc
_refln_F_squared_meas
_refln_observed_status
_refln_d_spacing
1 0 1 8633.71 69150.09 o 5.946490
1 1 1 28.46 24.64 o 4.855289
1 0 2 10818.95 152570.20 o 3.760890
1 1 2 10283.69 77484.70 o 3.433208
2 0 2 87.11 68.65 o 2.973245
2 1 2 2275.08 245.77 < 2.803202
1 0 3 139.79 53.53 o 2.659351
1 1 3 6079.54 4732.52 o 2.535592
2 2 2 7543.52 4173.82 o 2.427644
2 0 3 3383.53 1555.97 o 2.332405
2 -1 3 935.86 686.98 o 2.247562
2 1 3 935.86 686.98 o 2.247562
0 0 4 1777.10 1644.18 o 2.102402
2 2 3 2053.88 3402.48 o 2.039629
1 0 4 1261.38 2089.62 o 2.039629
1 1 4 4087.33 5184.75 o 1.982163
3 0 3 10607.92 13456.08 o 1.982163
3 1 3 2.86 2.35 o 1.929296
2 0 4 3414.88 5533.90 o 1.880445
2 -1 4 3838.61 5911.00 o 1.835127
2 1 4 3838.61 5911.01 o 1.835127
3 2 3 90.01 68.88 < 1.792934
2 2 4 6232.18 5934.10 o 1.716604
3 0 4 31.15 16.59 o 1.681921
3 -1 4 451.13 493.21 o 1.649259
1 0 5 1394.88 1524.99 o 1.649259
3 1 4 451.13 493.21 o 1.649259
1 1 5 914.92 872.02 o 1.618430
3 3 3 2435.84 2321.64 o 1.618430
3 -2 4 7.38 7.12 o 1.561625
3 2 4 7.38 7.13 o 1.561625
2 0 5 1674.31 1616.22 o 1.561625
2 1 5 1476.93 796.57 o 1.535377
2 -1 5 1476.93 796.57 o 1.535377
4 0 4 2356.20 2895.01 o 1.486623
2 2 5 278.77 321.27 o 1.463925
4 1 4 40.69 46.89 o 1.463925
3 3 4 2272.01 1980.93 o 1.442236
3 0 5 187.78 163.72 o 1.442236
3 1 5 1762.46 1702.05 o 1.421483
3 -1 5 1762.46 1702.05 o 1.421483
4 2 4 1105.06 1179.48 o 1.401601
1 0 6 822.24 1143.93 o 1.382531
3 -2 5 383.51 418.74 o 1.364218
1 1 6 1074.12 1172.77 o 1.364218
3 2 5 383.52 418.74 o 1.364218
2 0 6 208.13 130.22 o 1.329676
4 3 4 782.51 383.30 o 1.313360
2 1 6 5.57 2.73 o 1.313360
2 -1 6 5.57 2.73 o 1.313360
4 0 5 751.18 367.95 o 1.313360
4 1 5 887.67 982.39 o 1.297630
4 -1 5 887.67 982.39 o 1.297630
3 3 5 551.27 611.07 o 1.282453
2 2 6 361.50 358.33 o 1.267796
3 0 6 1644.83 1515.86 o 1.253630
4 -2 5 137.50 126.72 o 1.253630
4 2 5 137.50 126.71 o 1.253630
3 -1 6 581.96 635.58 o 1.239929
3 1 6 581.96 635.58 o 1.239929
4 4 4 2816.02 3302.25 o 1.213822
3 -2 6 1167.26 1457.61 o 1.201372
3 2 6 1167.25 1457.61 o 1.201372
4 3 5 516.55 754.69 o 1.189298
1 0 7 271.44 396.57 o 1.189298
4 -3 5 516.56 754.69 o 1.189298
5 0 5 817.37 1194.18 o 1.189298
1 1 7 236.52 246.01 o 1.177580
5 1 5 26.56 27.63 o 1.177580
4 0 6 686.23 734.42 o 1.166203
2 0 7 394.65 512.09 o 1.155148
4 1 6 399.77 518.73 o 1.155148
4 -1 6 399.77 518.73 o 1.155148
2 -1 7 197.61 248.04 o 1.144403
5 2 5 1011.30 1269.42 o 1.144403
3 3 6 1998.34 2508.39 o 1.144403
2 1 7 197.61 248.04 o 1.144403
4 2 6 700.92 365.48 o 1.123781
4 -2 6 700.92 365.48 o 1.123781
4 4 5 20.36 8.85 o 1.113880
2 2 7 469.60 204.26 o 1.113880
3 0 7 710.10 896.76 o 1.104236
5 3 5 677.34 738.22 o 1.094838
3 1 7 2129.13 2320.47 o 1.094838
3 -1 7 2129.12 2320.47 o 1.094838
5 0 6 306.43 316.69 o 1.076740
4 3 6 237.43 245.38 o 1.076740
4 -3 6 237.43 245.38 o 1.076740
5 1 6 216.37 189.00 o 1.068021
5 -1 6 216.37 189.00 o 1.068021
3 -2 7 209.39 182.91 o 1.068021
3 2 7 209.40 182.91 o 1.068021
0 0 8 4403.38 3934.16 o 1.051201
4 0 7 71.83 62.84 o 1.043083
5 2 6 961.74 841.32 o 1.043083
5 -2 6 961.74 841.32 o 1.043083
1 0 8 220.66 193.03 o 1.043083
4 1 7 472.42 371.04 o 1.035151
1 1 8 2810.85 2207.63 o 1.035151
5 4 5 993.02 779.91 o 1.035151
4 -1 7 472.42 371.04 o 1.035151
3 3 7 537.02 362.54 o 1.027397
2 0 8 94.81 48.38 o 1.019815
4 4 6 371.86 189.77 o 1.019815
4 -2 7 308.72 135.55 o 1.012398
2 -1 8 438.73 192.63 o 1.012398
4 2 7 308.72 135.55 o 1.012398
2 1 8 438.73 192.63 o 1.012398
5 3 6 131.96 69.17 o 1.005140
5 -3 6 131.96 69.17 o 1.005140
2 2 8 64.18 37.79 o 0.991082
6 0 6 134.34 79.09 o 0.991082
6 1 6 204.88 179.94 o 0.984270
3 0 8 0.00 0.00 < 0.984270
5 0 7 182.64 215.25 o 0.977597
4 3 7 60.60 71.42 o 0.977597
3 1 8 126.03 148.53 o 0.977597
3 -1 8 126.03 148.53 o 0.977597
4 -3 7 60.60 71.42 o 0.977597
5 5 5 1334.23 1466.93 o 0.971058
5 1 7 726.56 798.82 o 0.971058
5 -1 7 726.56 798.82 o 0.971058
6 2 6 367.99 394.44 o 0.964648
5 -4 6 301.70 310.13 o 0.958364
3 -2 8 526.73 541.45 o 0.958364
3 2 8 526.73 541.45 o 0.958364
5 4 6 301.70 310.12 o 0.958364
5 -2 7 637.98 628.29 o 0.952200
5 2 7 637.98 628.29 o 0.952200
4 0 8 25.69 27.97 o 0.940223
4 -1 8 23.55 26.29 o 0.934401
4 1 8 23.55 26.29 o 0.934401
6 3 6 518.84 579.07 o 0.934401
4 4 7 359.75 401.52 o 0.934401
3 3 8 513.19 560.15 o 0.928686
1 0 9 581.50 634.71 o 0.928686
1 1 9 81.31 91.24 o 0.923074
5 -3 7 67.03 75.22 o 0.923074
5 3 7 67.03 75.22 o 0.923074
4 2 8 451.23 480.36 o 0.917563
4 -2 8 451.23 480.36 o 0.917563
6 0 7 231.34 240.25 o 0.912150
2 0 9 0.09 0.00 < 0.912150
5 5 6 0.01 0.00 < 0.906831
2 -1 9 331.51 377.41 o 0.906831
2 1 9 331.51 377.41 o 0.906831
6 1 7 98.74 112.41 o 0.906831
6 -1 7 98.74 112.41 o 0.906831
6 4 6 148.56 87.00 o 0.896467
4 3 8 287.40 322.39 o 0.891416
5 0 8 25.96 29.12 o 0.891416
6 2 7 94.82 106.36 o 0.891416
6 -2 7 94.82 106.36 o 0.891416
4 -3 8 287.40 322.39 o 0.891416
2 2 9 264.49 296.69 o 0.891416
5 -4 7 217.97 238.41 o 0.886450
5 1 8 86.54 94.66 o 0.886450
5 -1 8 86.54 94.66 o 0.886450
3 0 9 220.41 241.09 o 0.886450
5 4 7 217.97 238.42 o 0.886450
3 1 9 681.96 618.19 o 0.881566
3 -1 9 681.96 618.19 o 0.881566
5 2 8 1891.69 1560.63 o 0.872036
5 -2 8 1891.70 1560.63 o 0.872036
3 -2 9 191.24 157.10 o 0.867385
6 3 7 236.49 194.27 o 0.867385
3 2 9 191.24 157.10 o 0.867385
6 -3 7 236.49 194.27 o 0.867385
4 4 8 1005.23 1250.52 o 0.858302
6 5 6 0.03 0.00 < 0.853866
4 0 9 0.59 0.00 < 0.853866
4 1 9 243.66 287.94 o 0.849499
4 -1 9 243.66 287.94 o 0.849499
5 -3 8 45.59 53.87 o 0.849499
7 0 7 632.56 747.50 o 0.849499
5 3 8 45.59 53.87 o 0.849499
7 1 7 59.84 67.04 o 0.845197
5 5 7 16.59 18.59 o 0.845197
3 3 9 160.52 179.81 o 0.845197
6 0 8 309.42 321.75 o 0.840961
6 -4 7 957.78 890.14 o 0.836787
4 2 9 327.56 304.43 o 0.836787
1 0 10 204.98 190.51 o 0.836787
6 1 8 83.63 77.73 o 0.836787
6 -1 8 83.64 77.73 o 0.836787
4 -2 9 327.57 304.43 o 0.836787
6 4 7 957.78 890.14 o 0.836787
1 1 10 455.28 430.38 o 0.832675
7 2 7 518.82 490.44 o 0.832675
2 0 10 126.41 76.67 o 0.824630
6 2 8 74.19 45.00 o 0.824630
6 -2 8 74.19 45.00 o 0.824630
2 1 10 5.39 6.04 o 0.820694
5 4 8 22.61 25.36 o 0.820694
2 -1 10 5.39 6.04 o 0.820694
5 -4 8 22.61 25.36 o 0.820694
4 -3 9 117.93 131.13 o 0.816813
5 0 9 130.52 145.13 o 0.816813
4 3 9 117.93 131.13 o 0.816813
5 1 9 394.92 389.30 o 0.812987
5 -1 9 394.92 389.30 o 0.812987
7 3 7 456.80 450.31 o 0.812987
6 6 6 1929.72 1837.67 o 0.809215
2 2 10 482.86 459.83 o 0.809215
6 3 8 30.30 28.48 o 0.805494
3 0 10 1381.62 1298.87 o 0.805494
6 -3 8 30.30 28.48 o 0.805494
3 -1 10 215.01 192.16 o 0.801825
5 -2 9 104.62 93.50 o 0.801825
6 -5 7 8.61 7.70 o 0.801825
6 5 7 8.61 7.70 o 0.801825
5 2 9 104.62 93.50 o 0.801825
3 1 10 215.01 192.16 o 0.801825
4 4 9 354.23 219.47 o 0.791109
3 -2 10 218.21 135.20 o 0.791109
3 2 10 218.21 135.20 o 0.791109
7 0 8 26.26 16.27 o 0.791109
7 4 7 267.95 134.58 o 0.787632
5 5 8 824.55 414.13 o 0.787632
7 -1 8 177.79 89.29 o 0.787632
7 1 8 177.79 89.29 o 0.787632
5 3 9 48.47 35.59 o 0.784200
5 -3 9 48.46 35.59 o 0.784200
4 0 10 299.30 232.62 o 0.780812
6 -4 8 11.20 8.71 o 0.780812
6 4 8 11.20 8.71 o 0.780812
7 -2 8 84.62 67.02 o 0.777468
4 1 10 236.64 187.41 o 0.777468
6 0 9 448.12 354.89 o 0.777468
4 -1 10 236.64 187.41 o 0.777468
7 2 8 84.62 67.02 o 0.777468
6 1 9 38.38 31.06 o 0.774167
3 3 10 443.19 358.67 o 0.774167
6 -1 9 38.38 31.06 o 0.774167
4 -2 10 171.11 126.51 o 0.767689
4 2 10 171.11 126.51 o 0.767689
6 6 7 477.13 405.09 o 0.764510
6 -2 9 41.50 35.24 o 0.764510
6 2 9 41.50 35.24 o 0.764510
7 -3 8 37.05 24.47 o 0.761370
5 4 9 234.05 154.58 o 0.761370
1 0 11 38.37 25.34 o 0.761370
7 3 8 37.05 24.47 o 0.761370
5 -4 9 234.05 154.57 o 0.761370
1 1 11 324.75 250.79 o 0.758269
7 5 7 0.86 0.00 < 0.758269
6 -5 8 396.88 309.39 o 0.752178
2 0 11 34.33 26.76 o 0.752178
6 5 8 396.88 309.39 o 0.752178
4 -3 10 156.76 122.20 o 0.752178
5 0 10 103.65 80.80 o 0.752178
4 3 10 156.76 122.20 o 0.752178
6 3 9 403.69 340.34 o 0.749187
2 1 11 334.36 281.89 o 0.749187
5 -1 10 79.49 67.02 o 0.749187
2 -1 11 334.36 281.89 o 0.749187
5 1 10 79.49 67.02 o 0.749187
6 -3 9 403.69 340.35 o 0.749187
8 0 8 393.01 334.97 o 0.743311
7 -4 8 183.69 155.57 o 0.740425
7 4 8 183.69 155.57 o 0.740425
8 1 8 0.00 0.00 < 0.740425
5 -2 10 163.11 138.14 o 0.740425
5 2 10 163.11 138.14 o 0.740425
2 2 11 40.24 34.08 o 0.740425
7 0 9 476.89 380.32 o 0.737571
3 0 11 9.05 7.21 o 0.737571
3 -1 11 116.43 94.34 o 0.734751
3 1 11 116.43 94.34 o 0.734751
5 5 9 0.51 0.00 < 0.734751
7 1 9 85.49 69.27 o 0.734751
7 -1 9 85.49 69.27 o 0.734751
8 2 8 6.29 5.02 o 0.731962
4 4 10 107.37 85.61 o 0.731962
6 4 9 574.78 464.60 o 0.729205
6 -4 9 574.78 464.60 o 0.729205
3 2 11 38.83 29.15 o 0.726479
7 6 7 145.09 108.95 o 0.726479
5 3 10 110.39 82.89 o 0.726479
3 -2 11 38.83 29.15 o 0.726479
7 -2 9 506.28 380.15 o 0.726479
5 -3 10 110.39 82.89 o 0.726479
7 2 9 506.28 380.15 o 0.726479
6 6 8 0.26 0.00 < 0.721118
6 0 10 26.63 21.52 o 0.721118
4 0 11 167.29 157.39 o 0.718481
6 1 10 39.38 37.05 o 0.718481
6 -1 10 39.38 37.05 o 0.718481
8 3 8 52.73 49.60 o 0.718481
7 -5 8 78.53 68.20 o 0.715873
7 5 8 78.53 68.20 o 0.715873
4 1 11 69.79 60.60 o 0.715873
4 -1 11 69.79 60.60 o 0.715873
7 -3 9 193.86 145.62 o 0.713294
3 3 11 21.65 16.26 o 0.713294
7 3 9 193.86 145.62 o 0.713294
6 2 10 123.98 90.39 o 0.710741
6 -2 10 123.98 90.39 o 0.710741
4 2 11 139.27 100.78 o 0.708217
5 4 10 23.20 16.79 o 0.708217
4 -2 11 139.27 100.78 o 0.708217
5 -4 10 23.20 16.79 o 0.708217
6 5 9 31.79 22.94 o 0.705719
6 -5 9 31.79 22.94 o 0.705719
0 0 12 455.50 307.07 o 0.700801
8 4 8 405.26 273.20 o 0.700801
6 3 10 73.60 51.18 o 0.698380
1 0 12 207.33 144.18 o 0.698380
6 -3 10 73.60 51.18 o 0.698380
8 0 9 1.36 0.00 < 0.698380
4 3 11 158.20 109.74 o 0.695984
7 -4 9 78.74 54.62 o 0.695984
1 1 12 138.11 95.81 o 0.695984
4 -3 11 158.20 109.74 o 0.695984
5 0 11 69.58 48.27 o 0.695984
8 1 9 80.02 55.51 o 0.695984
8 -1 9 80.02 55.51 o 0.695984
7 4 9 78.74 54.62 o 0.695984
5 -1 11 270.57 192.59 o 0.693613
5 1 11 270.57 192.59 o 0.693613
7 7 7 14.63 10.41 o 0.693613
2 0 12 9.83 6.56 o 0.691265
7 -6 8 164.27 121.63 o 0.688942
2 -1 12 367.83 272.34 o 0.688942
8 2 9 53.97 39.96 o 0.688942
7 0 10 149.91 110.99 o 0.688942
8 -2 9 53.97 39.96 o 0.688942
7 6 8 164.27 121.63 o 0.688942
2 1 12 367.83 272.34 o 0.688942
5 5 10 45.03 26.55 o 0.686642
5 2 11 273.56 161.29 o 0.686642
7 1 10 192.60 113.55 o 0.686642
5 -2 11 273.56 161.29 o 0.686642
7 -1 10 192.60 113.55 o 0.686642
6 4 10 139.04 73.34 o 0.682109
2 2 12 172.48 90.98 o 0.682109
6 -4 10 139.04 73.34 o 0.682109
7 -2 10 44.65 35.77 o 0.679876
6 6 9 139.31 111.60 o 0.679876
4 4 11 53.65 42.97 o 0.679876
8 5 8 2.53 2.03 o 0.679876
7 2 10 44.65 35.77 o 0.679876
3 0 12 38.84 31.11 o 0.679876
3 -1 12 31.83 20.76 o 0.677665
8 3 9 78.47 51.17 o 0.677665
8 -3 9 78.47 51.17 o 0.677665
3 1 12 31.83 20.76 o 0.677665
7 -5 9 5.78 4.26 o 0.675476
5 -3 11 68.98 50.76 o 0.675476
7 5 9 5.78 4.26 o 0.675476
5 3 11 68.98 50.76 o 0.675476
6 0 11 14.73 12.33 o 0.671160
3 -2 12 56.67 47.44 o 0.671160
3 2 12 56.67 47.44 o 0.671160
7 -3 10 146.90 131.44 o 0.669032
6 1 11 69.47 62.16 o 0.669032
6 -1 11 69.47 62.16 o 0.669032
7 3 10 146.90 131.44 o 0.669032
4 0 12 170.60 132.14 o 0.664838
6 5 10 87.41 65.15 o 0.662770
4 1 12 204.60 152.49 o 0.662770
6 2 11 199.54 148.72 o 0.662770
6 -5 10 87.41 65.15 o 0.662770
4 -1 12 204.60 152.49 o 0.662770
6 -2 11 199.54 148.72 o 0.662770
8 -4 9 244.02 181.87 o 0.662770
8 4 9 244.02 181.87 o 0.662770
9 0 9 610.79 424.03 o 0.660721
5 4 11 355.13 246.55 o 0.660721
3 3 12 354.60 246.18 o 0.660721
7 7 8 4.37 3.03 o 0.660721
5 -4 11 355.13 246.55 o 0.660721
9 1 9 59.19 38.27 o 0.658691
4 2 12 61.61 35.68 o 0.656680
4 -2 12 61.61 35.68 o 0.656680
8 6 8 1.47 0.00 < 0.656680
8 0 10 243.23 140.87 o 0.656680
7 -4 10 404.36 196.19 o 0.654687
7 4 10 404.36 196.19 o 0.654687
8 1 10 56.92 27.62 o 0.654687
8 -1 10 56.92 27.62 o 0.654687
7 -6 9 148.55 63.83 o 0.652712
6 3 11 72.27 31.05 o 0.652712
6 -3 11 72.27 31.05 o 0.652712
7 6 9 148.55 63.83 o 0.652712
9 2 9 240.96 103.54 o 0.652712
8 2 10 36.23 24.03 o 0.648815
8 -2 10 36.23 24.03 o 0.648815
4 3 12 39.53 36.39 o 0.646893
5 0 12 89.47 82.37 o 0.646893
4 -3 12 39.53 36.40 o 0.646893
5 1 12 73.94 54.07 o 0.644987
8 5 9 0.15 0.00 < 0.644987
5 -1 12 73.94 54.07 o 0.644987
1 0 13 0.78 0.00 < 0.644987
7 0 11 155.26 113.54 o 0.644987
8 -5 9 0.15 0.00 < 0.644987
9 3 9 196.02 134.67 o 0.643099
5 5 11 431.90 296.73 o 0.643099
1 1 13 9.97 6.85 o 0.643099
7 1 11 164.04 112.70 o 0.643099
7 -1 11 164.04 112.70 o 0.643099
6 6 10 767.71 507.31 o 0.641227
2 0 13 220.72 141.32 o 0.639371
6 4 11 20.45 13.09 o 0.639371
6 -4 11 20.45 13.09 o 0.639371
5 2 12 18.54 11.87 o 0.639371
8 -3 10 8.63 5.52 o 0.639371
5 -2 12 18.54 11.87 o 0.639371
8 3 10 8.63 5.52 o 0.639371
7 -5 10 33.93 20.73 o 0.637531
2 -1 13 16.28 9.95 o 0.637531
2 1 13 16.28 9.95 o 0.637531
7 5 10 33.93 20.73 o 0.637531
7 2 11 92.65 56.62 o 0.637531
7 -2 11 92.65 56.62 o 0.637531
4 4 12 233.34 122.67 o 0.633898
2 2 13 148.70 75.58 o 0.632105
8 7 8 3.22 1.64 o 0.632105
9 4 9 43.03 20.07 o 0.630327
5 -3 12 153.28 71.49 o 0.630327
3 0 13 526.07 245.36 o 0.630327
5 3 12 153.28 71.49 o 0.630327
