#------------------------------------------------------------------------------
#$Date: 2015-06-04 12:53:36 +0300 (Thu, 04 Jun 2015) $
#$Revision: 137913 $
#$URL: svn://www.crystallography.net/cod/cif/4/34/31/4343120.cif $
#------------------------------------------------------------------------------
#
# This file is available in the Crystallography Open Database (COD),
# http://www.crystallography.net/
#
# All data on this site have been placed in the public domain by the
# contributors.
#
data_4343120
loop_
_publ_author_name
'Prakash, Jai'
'Mesbah, Adel'
'Beard, Jessica'
'Leb\`egue, S\'ebastien'
'Malliakas, Christos D.'
'Ibers, James A.'
_publ_section_title
;
 Three New Quaternary Actinide Chalcogenides Ba2TiUTe7, Ba2CrUTe7, and
 Ba2CrThTe7: Syntheses, Crystal Structures, Transport Properties, and
 Theoretical Studies.
;
_journal_issue                   7
_journal_name_full               'Inorganic chemistry'
_journal_page_first              3688
_journal_page_last               3694
_journal_paper_doi               10.1021/acs.inorgchem.5b00338
_journal_volume                  54
_journal_year                    2015
_chemical_formula_sum            'Ba2 Te7 Ti U'
_chemical_formula_weight         1453.81
_chemical_name_common            Ba2TiUTe7
_space_group_crystal_system      orthorhombic
_space_group_IT_number           62
_space_group_name_Hall           '-P 2ac 2n'
_space_group_name_H-M_alt        'P n m a'
_symmetry_space_group_name_Hall  '-P 2ac 2n'
_symmetry_space_group_name_H-M   'P n m a'
_atom_sites_solution_primary     direct
_atom_sites_solution_secondary   difmap
_audit_creation_method           SHELXL-2014/6
_cell_angle_alpha                90
_cell_angle_beta                 90
_cell_angle_gamma                90
_cell_formula_units_Z            4
_cell_length_a                   12.4970(2)
_cell_length_b                   6.14295(10)
_cell_length_c                   18.5883(3)
_cell_measurement_reflns_used    6057
_cell_measurement_temperature    100(2)
_cell_measurement_theta_max      30.03
_cell_measurement_theta_min      2.73
_cell_volume                     1426.99(4)
_computing_cell_refinement       'Bruker SAINT'
_computing_data_collection       'Bruker APEX2'
_computing_data_reduction        'Bruker SAINT'
_computing_molecular_graphics    'Bruker SHELXTL'
_computing_publication_material  'Bruker SHELXTL'
_computing_structure_refinement  'SHELXL-2014/6 (Sheldrick, 2014)'
_computing_structure_solution    'SHELXS-97 (Sheldrick 2008)'
_diffrn_ambient_temperature      100(2)
_diffrn_measured_fraction_theta_full 0.996
_diffrn_measured_fraction_theta_max 0.997
_diffrn_measurement_device_type  'Bruker APEX-II CCD'
_diffrn_measurement_method       '\f and \w scans'
_diffrn_radiation_type           MoK\a
_diffrn_radiation_wavelength     0.71073
_diffrn_reflns_av_R_equivalents  0.0297
_diffrn_reflns_av_unetI/netI     0.0201
_diffrn_reflns_laue_measured_fraction_full 0.996
_diffrn_reflns_laue_measured_fraction_max 0.997
_diffrn_reflns_limit_h_max       17
_diffrn_reflns_limit_h_min       -17
_diffrn_reflns_limit_k_max       5
_diffrn_reflns_limit_k_min       -8
_diffrn_reflns_limit_l_max       26
_diffrn_reflns_limit_l_min       -26
_diffrn_reflns_number            15343
_diffrn_reflns_point_group_measured_fraction_full 0.996
_diffrn_reflns_point_group_measured_fraction_max 0.997
_diffrn_reflns_theta_full        25.242
_diffrn_reflns_theta_max         30.034
_diffrn_reflns_theta_min         3.493
_diffrn_source                   'fine-focus sealed tube'
_exptl_absorpt_coefficient_mu    31.277
_exptl_absorpt_correction_T_max  0.65980
_exptl_absorpt_correction_T_min  0.46887
_exptl_absorpt_correction_type   numerical
_exptl_absorpt_process_details   'face indexed (SADABS; Sheldric, 2012/1'
_exptl_crystal_colour            black
_exptl_crystal_density_diffrn    6.767
_exptl_crystal_density_meas      ?
_exptl_crystal_description       needle
_exptl_crystal_F_000             2360
_exptl_crystal_size_max          0.080
_exptl_crystal_size_mid          0.030
_exptl_crystal_size_min          0.025
_refine_diff_density_max         1.069
_refine_diff_density_min         -2.385
_refine_diff_density_rms         0.319
_refine_ls_extinction_coef       0.000065(17)
_refine_ls_extinction_expression Fc^*^=kFc[1+0.001xFc^2^\l^3^/sin(2\q)]^-1/4^
_refine_ls_extinction_method     SHELXL
_refine_ls_goodness_of_fit_ref   1.237
_refine_ls_hydrogen_treatment    undef
_refine_ls_matrix_type           full
_refine_ls_number_parameters     62
_refine_ls_number_reflns         2268
_refine_ls_number_restraints     0
_refine_ls_restrained_S_all      1.237
_refine_ls_R_factor_all          0.0248
_refine_ls_R_factor_gt           0.0192
_refine_ls_shift/su_max          0.004
_refine_ls_shift/su_mean         0.001
_refine_ls_structure_factor_coef Fsqd
_refine_ls_weighting_details
'w=1/[\s^2^(Fo^2^)+(0.0177P)^2^] where P=(1.0000Fo^2^+0.0000Fc^2^)'
_refine_ls_weighting_scheme      calc
_refine_ls_wR_factor_gt          0.0414
_refine_ls_wR_factor_ref         0.0426
_reflns_Friedel_coverage         0.000
_reflns_number_gt                2004
_reflns_number_total             2268
_reflns_threshold_expression     'I > 2\s(I)'
_cod_data_source_file            ic5b00338_si_001.cif
_cod_data_source_block           Ba2TiUTe7
_cod_depositor_comments
;
The following automatic conversions were performed:

'_exptl_crystal_density_meas' value 'not measured' was changed to '?'
- the value is perceived as not measured.

Automatic conversion script
Id: cif_fix_values 3271 2015-04-21 07:52:19Z andrius 
;
_cod_database_code               4343120
_shelx_space_group_comment
;
The symmetry employed for this shelxl refinement is uniquely defined
by the following loop, which should always be used as a source of
symmetry information in preference to the above space-group names.
They are only intended as comments.
;
_shelxl_version_number           2014/6
_shelx_res_file
;
TITL Ba2UTiTe7 in Pnma after abs correction and tidy
CELL 0.71073 12.49697 6.14295 18.5883 90 90 90
ZERR 4 0.00021 0.0001 0.00031 0 0 0
LATT 1
SYMM 0.5-X,-Y,0.5+Z
SYMM 0.5+X,0.5-Y,0.5-Z
SYMM -X,0.5+Y,-Z

SFAC Ti Te Ba U
UNIT 4 28 8 4

L.S. 4
PLAN  20
SIZE 0.025 0.03 0.08
TEMP -173.07
BOND
fmap 2
acta
OMIT 1 0 2
OMIT 2 0 0
OMIT 1 0 1

WGHT    0.017700    0.000000    0.000000    0.000000    0.000000    1.000000
EXTI    0.000065
FVAR       0.07380
U1    4    0.291762    0.250000    0.376057    10.50000    0.00899    0.00694 =
         0.00665    0.00000    0.00027    0.00000
BA1   3    0.322570    0.250000    0.057982    10.50000    0.00902    0.00713 =
         0.00541    0.00000   -0.00093    0.00000
BA2   3    0.445375    0.250000    0.722829    10.50000    0.00633    0.00729 =
         0.00724    0.00000    0.00050    0.00000
TE1   2    0.078399    0.001406    0.398204    11.00000    0.00696    0.00981 =
         0.00677   -0.00096   -0.00027    0.00139
TE2   2    0.307721    0.002068    0.231140    11.00000    0.00746    0.00891 =
         0.00512    0.00115   -0.00034   -0.00014
TE3   2    0.040185    0.250000    0.123584    10.50000    0.00649    0.00483 =
         0.00542    0.00000   -0.00018    0.00000
TE4   2    0.320690    0.250000    0.541123    10.50000    0.00686    0.00500 =
         0.00502    0.00000    0.00031    0.00000
TE5   2    0.639464    0.250000    0.584482    10.50000    0.00559    0.00455 =
         0.00436    0.00000   -0.00025    0.00000
TI1   1    0.000000    0.000000    0.000000    10.50000    0.01606    0.02232 =
         0.01520   -0.00090    0.00113    0.00052
HKLF 4

REM  Ba2UTiTe7 in Pnma after abs correction and tidy
REM R1 =  0.0192 for    2004 Fo > 4sig(Fo)  and  0.0248 for all    2268 data
REM     62 parameters refined using      0 restraints

END

WGHT      0.0185      7.8198

REM Highest difference peak  1.069,  deepest hole -2.385,  1-sigma level  0.319
Q1    1  -0.0061 -0.1665 -0.0014  11.00000  0.05    1.07
Q2    1   0.2728  0.1107  0.3662  11.00000  0.05    0.95
Q3    1   0.2769  0.0910  0.1010  11.00000  0.05    0.95
Q4    1   0.3344  0.1478  0.5443  11.00000  0.05    0.93
Q5    1   0.6430  0.1602  0.5878  11.00000  0.05    0.89
Q6    1   0.0235  0.1301  0.1263  11.00000  0.05    0.89
Q7    1   0.3190  0.0739  0.3259  11.00000  0.05    0.88
Q8    1   0.0832  0.0943  0.1118  11.00000  0.05    0.88
Q9    1   0.0728  0.0925  0.3910  11.00000  0.05    0.88
Q10   1   0.0636 -0.0851 -0.0158  11.00000  0.05    0.86
Q11   1   0.5653  0.0902  0.5970  11.00000  0.05    0.86
Q12   1   0.5868  0.0959  0.5582  11.00000  0.05    0.85
Q13   1   0.4239  0.1830  0.5582  11.00000  0.05    0.85
Q14   1   0.3457  0.1177  0.3650  11.00000  0.05    0.82
Q15   1  -0.0535 -0.2500  0.4055  10.50000  0.05    0.82
Q16   1   0.1553  0.1561  0.1432  11.00000  0.05    0.82
Q17   1   0.5255  0.1798  0.5704  11.00000  0.05    0.82
Q18   1  -0.0594 -0.1545  0.4575  11.00000  0.05    0.82
Q19   1   0.0898 -0.0740 -0.0702  11.00000  0.05    0.81
Q20   1   0.3339  0.1532  0.7336  11.00000  0.05    0.81
;
_shelx_res_checksum              96325
_shelx_hkl_file
;
   1   0   0 0.34072 0.49805   3
  -2   0   0 -1.3430 1.01270   3
  -3   0   0 1.24640 1.77209   3
   3   0   0 1.87559 1.80831   3
   4   0   0 -5.6553 2.02916   1
   4   0   0 -1.8045 2.07352   3
  -4   0   0 -3.2001 2.06570   2
   4   0   0 -5.0540 1.94472   2
  -4   0   0 -1.8233 2.22336   1
  -5   0   0 0.96018 2.22041   1
  -5   0   0 -1.5357 2.05392   2
   5   0   0 0.38831 2.17356   1
   5   0   0 1.57283 2.13106   2
   5   0   0 0.39443 2.18859   3
   6   0   0 264.370 7.81976   2
  -6   0   0 266.094 7.91592   1
   6   0   0 256.128 7.90787   1
  -6   0   0 257.670 7.86458   2
  -7   0   0 5.45926 2.54754   1
  -7   0   0 2.70121 2.34695   2
   7   0   0 -2.3118 2.37041   1
   7   0   0 -5.9841 1.95473   2
   8   0   0 3720.69 59.3598   2
  -8   0   0 3709.32 59.3877   2
  -8   0   0 3850.98 59.5336   1
   8   0   0 3799.28 59.4864   1
  -9   0   0 -1.5459 2.67073   1
   9   0   0 -2.3477 2.75376   1
  -9   0   0 0.26146 2.70313   2
  10   0   0 198.943 9.18927   1
 -10   0   0 204.486 8.87822   1
 -11   0   0 -1.2755 3.19267   1
  11   0   0 4.46282 3.69603   1
  12   0   0 47.7917 6.02862   1
 -12   0   0 55.2816 6.26263   1
  13   0   0 -4.4677 3.87543   1
 -13   0   0 -6.0954 3.53847   1
 -14   0   0 25.3027 5.52859   1
  14   0   0 24.7709 5.80512   1
 -15   0   0 -0.6658 4.59483   1
  15   0   0 16.8073 5.41056   1
 -16   0   0 200.516 11.9474   1
  16   0   0 188.860 12.3325   1
 -17   0   0 -0.4552 4.94155   1
  17   0   0 -8.6399 4.67185   1
   0   1   0 -0.3621 1.15951   5
   1   1   0 1.18886 1.21133   5
  -1  -1   0 -1.8192 1.09932   5
  -1   1   0 -0.5441 0.69859   3
   1  -1   0 0.29409 0.76049   2
   2  -1   0 482.702 8.78363   2
   2  -1   0 494.115 8.51069   3
  -2   1   0 499.909 8.55591   3
   2  -1   0 519.578 8.55576   1
   2   1   0 497.271 8.62961   5
  -2  -1   0 508.760 8.62792   2
  -2  -1   0 504.928 8.61992   5
  -3  -1   0 0.42514 1.64860   2
   3   1   0 1.19029 1.48273   5
   3  -1   0 -1.1874 1.65820   2
   3  -1   0 -0.4796 1.60117   1
   3  -1   0 0.29158 1.56763   3
  -3  -1   0 1.83926 1.37561   5
  -3  -1   0 -1.9939 1.53799   1
   3   1   0 -0.1194 1.85197   3
  -3   1   0 -0.9548 1.64750   3
   4   1   0 1233.18 21.5632   3
   4   1   0 1282.10 19.0917   5
   4  -1   0 1243.27 20.9757   2
  -4  -1   0 1246.94 20.5198   1
   4  -1   0 1239.41 20.7614   3
  -4  -1   0 1263.65 20.9328   2
  -4   1   0 1250.18 20.8337   3
   4  -1   0 1289.19 20.7530   1
  -4  -1   0 1271.84 18.8369   5
   5  -1   0 -0.9634 1.92775   3
  -5  -1   0 0.22915 1.20141   5
   5   1   0 -0.6289 2.23801   3
  -5   1   0 0.72313 2.22155   1
   5  -1   0 0.52217 2.05037   1
   5  -1   0 -0.4699 2.14990   2
  -5   1   0 -0.7438 2.02037   3
  -5  -1   0 -0.4097 1.87037   1
  -5  -1   0 -1.4336 1.96173   2
   6   1   0 1324.51 23.4546   1
  -6   1   0 1328.49 23.4698   3
  -6  -1   0 1340.74 23.0464   1
  -6  -1   0 1311.87 23.4816   2
  -6   1   0 1334.98 23.5915   1
   6  -1   0 1317.43 23.3777   3
   6  -1   0 1312.52 23.3281   1
  -6  -1   0 1363.00 19.7876   5
   6  -1   0 1346.22 23.6003   2
  -7   1   0 -2.1233 2.33145   1
  -7  -1   0 -2.2061 1.91476   1
  -7   1   0 1.10441 2.22574   2
  -7  -1   0 0.06523 2.29288   2
   7  -1   0 1.92073 2.38033   1
   7   1   0 0.45140 2.37191   1
   7  -1   0 0.41411 2.29874   2
  -7   1   0 1.35899 1.34145   5
  -8   1   0 247.790 5.50325   5
   8   1   0 250.295 8.73913   1
   8  -1   0 241.881 8.57423   1
  -8   1   0 246.167 8.83308   1
   8  -1   0 255.818 8.91320   2
  -8  -1   0 228.193 8.26957   1
  -8  -1   0 247.179 8.77285   2
   9   1   0 0.47407 2.91102   1
   9  -1   0 1.30918 2.78362   1
  -9  -1   0 3.36816 2.92648   2
   9  -1   0 0.52223 2.82327   2
  -9  -1   0 1.01815 2.60775   1
  -9   1   0 -0.1921 2.73962   1
 -10   1   0 510.123 14.3163   1
  10  -1   0 487.672 14.0493   1
 -10  -1   0 528.889 14.3584   2
  10   1   0 497.639 14.2218   1
  10  -1   0 495.074 14.2677   2
 -10  -1   0 514.314 13.9536   1
 -11   1   0 1.19262 3.24091   1
 -11  -1   0 0.98047 3.31239   1
  11   1   0 6.93468 4.09643   1
  11  -1   0 -1.1992 3.25883   1
 -11  -1   0 -3.2813 3.13410   2
  12  -1   0 111.529 8.28682   1
 -12  -1   0 114.195 8.21231   1
 -12   1   0 115.242 8.52265   1
 -13  -1   0 4.28669 3.82254   1
  13  -1   0 -4.7562 3.94283   1
 -13   1   0 1.44462 3.89449   1
 -14   1   0 64.7320 7.57425   1
 -14  -1   0 72.5963 7.44866   1
  14  -1   0 62.2756 7.15499   1
 -15  -1   0 -3.2446 4.04100   1
 -15   1   0 1.78972 4.94937   1
  15  -1   0 5.85753 4.97123   1
  16  -1   0 37.2047 6.92732   1
 -16  -1   0 44.1945 6.97281   1
 -17  -1   0 1.98018 4.91868   1
  17  -1   0 -5.2576 4.92355   1
   0   2   0 936.086 16.3802   5
   0  -2   0 928.843 17.3001   4
   1   2   0 -1.6237 1.88793   5
  -1   2   0 1.25067 2.07909   5
  -1  -2   0 -0.9757 2.11340   4
   1  -2   0 1.23361 2.08849   4
  -2   2   0 178.106 5.76622   5
   2  -2   0 175.534 4.28182   2
  -2  -2   0 183.421 3.70999   2
   2  -2   0 176.785 4.18391   2
  -2   2   0 177.776 4.04324   3
  -2  -2   0 183.025 3.84166   2
   2   2   0 186.910 5.86020   5
  -3   2   0 -0.6598 1.35419   3
   3  -2   0 -1.3064 1.55331   2
  -3  -2   0 -1.0892 1.44144   2
  -3  -2   0 -0.2174 0.86143   1
   3  -2   0 -0.9130 1.42113   3
  -3   2   0 -1.7180 1.85377   5
   3  -2   0 1.57471 1.31887   1
   3   2   0 -0.0670 1.87972   5
  -4  -2   0 15.1761 1.88061   1
   4  -2   0 16.3677 2.49851   2
  -4  -2   0 15.9282 2.39178   2
  -4   2   0 12.6743 2.18522   3
   4  -2   0 13.1180 2.16826   3
   4   2   0 11.8694 2.71608   3
   4   2   0 18.6235 2.57285   5
   4  -2   0 13.8181 2.04467   1
  -4  -2   0 12.6311 2.28779   2
  -4   2   0 14.4303 2.50313   5
   5   2   0 1.65296 1.81596   5
  -5   2   0 -2.1334 1.76887   5
  -5   2   0 1.61095 1.86214   3
  -5  -2   0 1.28840 1.71104   1
   5  -2   0 -1.1359 1.73742   3
   5  -2   0 2.34651 1.84704   1
   5  -2   0 -1.5868 1.89130   2
  -5  -2   0 2.02857 1.97572   2
  -6  -2   0 607.664 13.4776   2
  -6   2   0 620.193 13.0079   3
   6  -2   0 648.231 13.0252   1
   6  -2   0 649.554 13.1362   3
  -6   2   0 620.805 12.1404   5
   6  -2   0 631.353 13.7067   2
   6   2   0 644.629 12.0961   5
  -6  -2   0 625.297 12.5176   1
  -7   2   0 0.67880 2.39644   1
  -7   2   0 0.90389 1.73395   5
  -7  -2   0 -0.3189 2.01218   1
  -7  -2   0 -5.7464 2.08285   2
   7  -2   0 -0.6426 2.10345   1
  -7   2   0 0.74547 2.24860   3
   7  -2   0 1.00989 2.42997   2
  -8  -2   0 12.1421 3.12527   2
   8  -2   0 11.6894 3.02204   1
  -8  -2   0 10.1410 2.76467   1
   8  -2   0 6.61061 3.05455   2
  -8   2   0 10.9577 2.18322   5
   9  -2   0 -2.1277 2.58340   1
  -9  -2   0 -1.9544 2.41449   1
  -9  -2   0 0.53804 2.81989   2
   9  -2   0 1.77022 2.92872   2
  10  -2   0 628.337 16.2145   1
  10  -2   0 669.818 17.3056   2
 -10  -2   0 681.314 15.9420   1
 -10  -2   0 729.567 17.3888   2
 -11  -2   0 1.54920 3.15201   1
  11  -2   0 -3.7398 3.39953   2
 -11  -2   0 2.82963 3.60237   2
  11  -2   0 -1.9089 3.21616   1
 -12  -2   0 693.217 17.7955   1
 -12  -2   0 745.399 19.5379   2
  12  -2   0 698.000 18.5046   1
 -13  -2   0 -0.7346 3.63222   1
  13  -2   0 4.93727 4.24748   1
  14  -2   0 86.5920 8.27615   1
 -14  -2   0 111.067 8.80089   1
 -15  -2   0 -3.1471 3.96301   1
  15  -2   0 -3.9410 4.16844   1
  16  -2   0 31.5819 6.79956   1
 -16  -2   0 57.4423 7.11403   1
 -17  -2   0 1.24651 4.53849   1
  17  -2   0 4.63840 5.04530   1
   0  -3   0 0.58542 2.30518   4
   0   3   0 0.16314 2.17332   5
   1  -3   0 -1.0819 2.24155   4
  -1   3   0 -0.6613 2.07019   5
  -1  -3   0 0.99865 2.23641   4
   1   3   0 -1.8885 2.13733   5
   2  -3   0 314.157 5.91859   2
   2  -3   0 317.367 9.40728   4
  -2  -3   0 311.644 5.12314   2
  -2   3   0 310.991 5.87077   3
   2  -3   0 324.395 6.11811   2
  -2   3   0 312.149 8.75116   5
   2   3   0 301.282 8.65752   5
  -2  -3   0 298.558 9.13834   4
  -2  -3   0 317.128 5.14796   2
   3   3   0 2.86600 2.30509   5
   3  -3   0 -1.8231 1.35896   2
  -3   3   0 0.12494 1.23065   3
  -3  -3   0 -0.1642 2.53640   4
  -3  -3   0 0.76624 1.23829   2
  -3   3   0 0.97826 2.23917   5
  -3  -3   0 2.68337 1.44860   2
   3  -3   0 0.16207 1.51377   2
  -4  -3   0 772.689 14.1078   2
   4  -3   0 787.130 14.3709   2
   4  -3   0 800.400 14.5972   2
  -4   3   0 774.007 15.6421   5
   4   3   0 792.136 15.6004   5
  -4  -3   0 761.880 13.7251   2
  -4   3   0 800.467 13.6126   3
  -5  -3   0 -3.6245 1.80215   2
  -5   3   0 1.24598 1.74004   3
  -5   3   0 1.11731 2.13681   5
   5   3   0 -0.9339 2.16466   5
   5  -3   0 1.72666 1.97621   2
  -5  -3   0 0.27001 1.92192   2
   5  -3   0 0.72717 1.74916   3
   5  -3   0 -1.9852 1.28148   1
  -6  -3   0 892.444 14.9697   1
   6  -3   0 931.944 16.9572   3
  -6   3   0 902.833 16.7722   3
   6  -3   0 904.481 16.1737   1
   6  -3   0 940.393 18.0521   2
  -6  -3   0 900.188 17.5898   2
  -6   3   0 902.701 17.5161   5
   6   3   0 906.818 17.3514   5
   7  -3   0 -2.6089 1.94152   1
  -7  -3   0 1.86481 2.55285   2
  -7  -3   0 -0.8735 1.70803   1
   7  -3   0 -2.3594 2.40097   2
   7   3   0 0.60700 2.20618   5
  -7   3   0 1.57819 2.19031   5
   8  -3   0 200.246 7.34614   1
  -8  -3   0 216.741 8.30510   2
  -8   3   0 200.341 7.17108   5
   8  -3   0 201.252 8.44451   2
  -8  -3   0 209.324 6.67182   1
   9  -3   0 -2.4122 2.90065   2
   9  -3   0 -2.5745 2.45477   1
  -9  -3   0 -2.3541 2.83149   2
  -9  -3   0 -2.6826 2.40211   1
 -10  -3   0 407.903 11.2056   1
 -10  -3   0 404.188 13.0355   2
  10  -3   0 416.138 11.9156   1
  10  -3   0 428.707 13.4254   2
 -11  -3   0 0.38193 2.94252   1
 -11  -3   0 -0.3140 3.40119   2
  11  -3   0 9.61142 4.12664   2
  11  -3   0 -0.8479 3.07577   1
  12  -3   0 92.5760 7.36662   1
  12  -3   0 86.1289 7.83840   2
 -12  -3   0 89.0701 7.87694   2
 -12  -3   0 94.5869 6.99821   1
 -13  -3   0 1.38423 4.36079   2
 -13  -3   0 0.51454 3.55123   1
  13  -3   0 -0.8110 3.78329   1
 -14  -3   0 43.1631 7.03322   2
 -14  -3   0 34.4102 5.54336   1
  14  -3   0 27.1524 5.56020   1
 -15  -3   0 -0.5232 3.87980   1
  15  -3   0 3.04423 4.55946   1
 -16  -3   0 26.2724 5.48319   1
  16  -3   0 28.6231 6.25958   1
   0  -4   0 9999.99 150.059   4
   0   4   0 9401.12 139.245   5
   1   4   0 -0.9692 2.48606   5
  -1  -4   0 -4.7737 2.41505   4
   1  -4   0 -1.1737 2.64629   4
  -1   4   0 2.24698 2.52348   5
   2  -4   0 146.907 3.92274   2
   2  -4   0 152.060 3.79193   2
  -2   4   0 158.797 6.99978   5
   2   4   0 131.818 6.85671   5
   2  -4   0 152.144 7.37508   4
  -2  -4   0 151.179 7.34637   4
  -3   4   0 -1.8151 2.36563   5
  -3  -4   0 1.20838 1.23390   2
   3   4   0 2.01538 2.57125   5
  -3  -4   0 1.33189 2.86153   4
  -3  -4   0 -1.3579 1.33969   2
   3   4   0 0.73926 2.11030   3
   3  -4   0 -0.0943 1.60075   2
   3  -4   0 -0.0342 1.45088   2
  -4  -4   0 3.56403 1.78767   2
   4  -4   0 1.67901 1.92151   2
  -4   4   0 1.14456 2.56268   5
   4   4   0 5.68312 2.86056   5
  -4  -4   0 4.52934 3.06026   4
  -5  -4   0 0.12017 1.93664   2
   5  -4   0 -4.1891 1.91711   2
  -5   4   0 -0.1302 2.55824   5
  -5  -4   0 1.25253 2.01394   2
   5   4   0 -0.1596 2.61850   5
   6  -4   0 124.733 6.20107   2
   6   4   0 145.712 7.17610   5
  -6  -4   0 147.656 6.22794   2
  -6   4   0 150.579 7.27958   5
  -7  -4   0 -1.1743 2.53857   2
  -7   4   0 3.62157 2.83939   5
   7  -4   0 2.28105 2.66844   2
   7   4   0 -2.3838 2.57956   5
   7  -4   0 0.84596 1.61262   1
   8  -4   0 2276.13 35.2841   1
   8  -4   0 2230.03 39.1225   2
  -8   4   0 2239.60 37.8933   5
  -8  -4   0 2225.33 38.3957   2
   9  -4   0 0.00353 2.34732   1
   9  -4   0 -2.0684 3.00459   2
  -9  -4   0 2.48219 1.70449   1
  -9  -4   0 -0.6276 2.98785   2
 -10  -4   0 116.487 5.04551   1
 -10  -4   0 102.696 7.65139   2
  10  -4   0 120.905 8.20437   2
  10  -4   0 111.503 6.27085   1
 -11  -4   0 2.14160 2.63550   1
  11  -4   0 -1.4913 3.43981   2
 -11  -4   0 1.62804 3.59116   2
  11  -4   0 1.01168 3.16859   1
 -12  -4   0 43.0336 5.98551   2
  12  -4   0 39.1007 5.03654   1
  12  -4   0 39.6427 6.33481   2
 -12  -4   0 46.3134 4.44924   1
  13  -4   0 -5.3277 3.65480   1
 -13  -4   0 -0.9943 4.21782   2
 -13  -4   0 1.76815 3.20444   1
  13  -4   0 7.33618 4.94285   2
  14  -4   0 1.69243 4.28194   1
 -14  -4   0 19.1301 4.18847   1
 -14  -4   0 16.3015 5.34966   2
 -15  -4   0 0.82596 3.70875   1
 -15  -4   0 0.75855 5.11792   2
  15  -4   0 -8.6680 3.96683   1
   0   5   0 -1.0952 2.76973   5
   0  -5   0 1.51017 3.39556   4
   1   5   0 -2.6692 2.85705   5
   1  -5   0 3.86876 3.48554   4
  -1  -5   0 1.32044 3.71371   4
  -1   5   0 -2.5039 2.67909   5
   2   5   0 191.617 8.89698   5
   2  -5   0 188.187 4.83827   2
  -2  -5   0 193.458 9.40285   4
  -2   5   0 179.311 8.73541   5
   2  -5   0 185.976 4.65389   2
   2  -5   0 177.687 9.12091   4
  -3  -5   0 1.01363 1.52684   2
  -3  -5   0 -1.5670 1.41677   2
   3   5   0 -2.4094 2.83747   5
   3  -5   0 -0.8899 1.77353   2
  -3   5   0 -4.6391 2.98385   5
  -3  -5   0 0.14615 3.46019   4
   4  -5   0 596.274 12.3802   2
  -4  -5   0 608.644 17.1862   4
   4   5   0 599.020 15.7472   5
  -4   5   0 582.458 15.7815   5
  -4  -5   0 590.919 11.6809   2
  -5   5   0 -3.4552 3.02039   5
   5  -5   0 -5.4339 1.97834   2
   5   5   0 -1.6415 3.16781   5
  -5  -5   0 -2.3097 2.16785   2
  -5  -5   0 1.90717 2.23106   2
  -5  -5   0 4.87204 3.93428   4
   6   5   0 663.055 16.7097   5
  -6  -5   0 661.832 14.2897   2
  -6  -5   0 637.680 18.7837   4
  -6   5   0 669.928 16.9516   5
   6  -5   0 640.757 14.8647   2
  -7  -5   0 -2.5240 2.44959   2
   7  -5   0 1.17735 2.89651   2
   7   5   0 0.15726 3.30246   5
  -7   5   0 -3.3682 3.05658   5
  -7  -5   0 -1.7588 3.89990   4
  -8  -5   0 118.096 7.01327   2
   8  -5   0 126.932 7.59496   2
  -8   5   0 119.491 8.58557   5
   9  -5   0 3.59600 3.51939   2
  -9  -5   0 0.81821 3.16193   2
 -10  -5   0 263.327 11.0383   2
  10  -5   0 264.524 11.4205   2
  11  -5   0 -2.4988 4.03469   2
 -11  -5   0 -0.4712 3.72725   2
  12  -5   0 71.5988 7.78519   2
 -12  -5   0 82.1829 7.85809   2
 -13  -5   0 8.24671 4.65776   2
  13  -5   0 -1.4194 4.65221   2
  13  -5   0 7.75273 4.00193   1
  14  -5   0 47.6125 7.74450   2
  14  -5   0 53.7566 5.63645   1
 -14  -5   0 65.3555 7.65628   2
   0  -6   0 435.765 15.2375   4
  -1  -6   0 -0.1647 4.19742   4
   1  -6   0 -0.6619 4.08254   4
   1  -6   0 1.83501 1.33418   2
   2  -6   0 62.0450 7.21498   4
  -2  -6   0 56.9909 7.14747   4
  -2  -6   0 62.5968 2.49288   2
   2  -6   0 60.8057 3.45811   2
   3  -6   0 0.92631 2.21357   2
  -3  -6   0 -1.4360 1.67794   2
  -3  -6   0 3.95062 4.38989   4
  -4  -6   0 9.94131 2.52207   2
  -4  -6   0 12.1256 2.48373   2
   4  -6   0 8.76794 2.78951   2
  -4  -6   0 11.9928 5.21666   4
  -5  -6   0 2.49503 4.77086   4
  -5  -6   0 -3.9292 2.21226   2
   5  -6   0 3.49555 2.72537   2
  -6  -6   0 290.520 13.4907   4
  -6  -6   0 257.447 8.62711   2
   6  -6   0 253.098 9.04138   2
   7  -6   0 -0.1190 3.07144   2
  -7  -6   0 0.10389 2.79774   2
  -7  -6   0 5.85334 4.92156   4
  -8  -6   0 11.7118 3.69690   2
   8  -6   0 12.3099 4.08426   2
  -8  -6   0 14.6998 5.68059   4
   9  -6   0 -3.7774 3.40442   2
  -9  -6   0 1.55238 5.41793   4
  -9  -6   0 6.47227 3.71631   2
  10  -6   0 296.849 12.2565   2
 -10  -6   0 286.651 15.2241   4
 -10  -6   0 296.842 11.5977   2
 -11  -6   0 2.03036 6.22015   4
  11  -6   0 2.09427 4.44436   2
 -11  -6   0 -0.4663 3.67355   2
 -12  -6   0 368.151 14.2543   2
  12  -6   0 368.009 14.8649   2
   0  -7   0 -2.7813 4.53250   4
  -1  -7   0 -3.2264 4.64858   4
   1  -7   0 0.69581 1.57974   2
   1  -7   0 2.19681 5.05815   4
  -2  -7   0 92.4853 9.34443   4
   2  -7   0 103.173 4.39663   2
  -2  -7   0 110.507 3.51680   2
  -3  -7   0 -4.7584 4.75476   4
   3  -7   0 1.04587 2.27774   2
  -3  -7   0 0.77313 1.97432   2
  -4  -7   0 275.937 14.1305   4
   4  -7   0 265.893 8.17738   2
  -4  -7   0 258.994 7.31174   2
  -5  -7   0 -3.7948 5.04536   4
   5  -7   0 -1.7417 2.64624   2
  -5  -7   0 1.13322 2.53888   2
  -6  -7   0 343.749 9.83696   2
   6  -7   0 337.396 10.7881   2
  -6  -7   0 330.064 15.6264   4
  -7  -7   0 0.58802 5.47352   4
   7  -7   0 4.69174 3.58501   2
  -7  -7   0 -0.6114 2.98248   2
   8  -7   0 88.3658 7.04126   2
  -8  -7   0 100.381 6.97459   2
  -8  -7   0 99.7306 10.7703   4
  -9  -7   0 1.06670 3.49906   2
  -9  -7   0 -6.5063 5.46331   4
   9  -7   0 0.38329 3.93225   2
  10  -7   0 177.956 10.5606   2
 -10  -7   0 186.433 9.69802   2
 -10  -7   0 167.420 13.4172   4
   0  -8   0 3190.02 63.0541   4
   1  -8   0 0.36784 1.68662   2
  -1  -8   0 9.35057 6.11076   4
  -2  -8   0 45.3950 8.39456   4
   2  -8   0 56.8349 3.72444   2
   3  -8   0 -1.1270 2.49756   2
  -3  -8   0 0.39450 5.31630   4
  -3  -8   0 -1.2953 1.85211   2
  -4  -8   0 -0.8105 5.92103   4
   4  -8   0 -1.7153 2.70706   2
  -4  -8   0 -2.1602 2.15365   2
  -5  -8   0 2.02404 2.60461   2
   5  -8   0 2.13601 3.13828   2
  -5  -8   0 -0.7457 5.96492   4
  -6  -8   0 56.8944 9.21056   4
  -6  -8   0 59.6366 4.85508   2
   6  -8   0 58.1058 5.47556   2
   1   0  -1 -0.0146 0.57680   3
  -1   0   1 0.04171 0.48048   3
   3   0  -1 46.9353 3.33949   3
  -3   0   1 53.7717 3.38507   3
  -4   0   1 5664.84 80.3176   1
   4   0   1 5417.66 81.0290   3
   4   0   1 5540.89 80.3888   2
   4   0  -1 5552.15 80.2354   1
   4   0  -1 5381.29 80.3675   2
   4   0  -1 5515.01 81.1353   3
   4   0   1 5601.37 80.5495   1
  -4   0   1 5562.06 81.1318   3
  -4   0  -1 5436.12 80.3596   1
  -4   0  -1 5342.85 80.4076   2
   5   0   1 809.065 15.0602   2
   5   0   1 801.102 15.3044   3
  -5   0   1 767.683 14.9272   2
  -5   0  -1 774.851 14.9226   1
   5   0   1 793.454 15.0770   1
   5   0  -1 780.063 14.8344   1
   5   0  -1 769.948 14.7937   2
  -5   0  -1 773.547 14.9826   2
  -5   0   1 789.009 15.2467   3
   5   0  -1 765.400 15.1335   3
  -6   0  -1 34.4328 3.53929   1
  -6   0   1 30.0222 3.34107   3
  -6   0   1 37.6630 3.79113   2
   6   0   1 39.8825 3.79263   2
   6   0   1 30.3339 3.48169   1
   6   0  -1 34.4844 3.58078   1
  -6   0   1 35.6659 3.55689   1
   6   0  -1 37.1730 3.53013   2
  -7   0   1 205.766 7.26999   1
  -7   0   1 197.480 7.62530   3
  -7   0   1 187.475 7.22624   2
  -7   0  -1 207.491 7.50485   1
   7   0   1 202.142 7.53817   1
   7   0   1 211.811 7.47093   2
   7   0  -1 208.352 7.41944   2
   7   0  -1 205.875 7.48332   1
  -8   0  -1 149.816 6.88575   2
  -8   0   1 139.139 6.72067   2
  -8   0   1 130.272 6.55518   1
   8   0   1 146.611 6.99017   1
  -8   0  -1 140.972 6.87875   1
   8   0  -1 149.000 7.02594   1
   8   0   1 128.854 6.56256   2
   8   0  -1 149.523 6.84079   2
  -9   0   1 77.6602 6.11769   2
  -9   0   1 81.8030 5.95879   1
   9   0  -1 75.5181 6.11700   1
   9   0   1 79.8118 6.22314   1
  -9   0  -1 77.3925 5.88746   1
  -9   0  -1 86.8949 6.22612   2
  10   0  -1 59.9672 5.92803   1
 -10   0  -1 64.1678 5.83931   1
  10   0   1 50.6784 5.39654   1
 -10   0   1 62.6955 5.86344   1
 -11   0   1 488.283 14.4274   1
  11   0  -1 495.430 14.6187   1
  11   0   1 514.862 14.8474   1
 -11   0  -1 490.445 14.5419   1
 -12   0  -1 368.292 13.1192   1
  12   0   1 374.317 13.5920   1
 -12   0   1 384.722 13.2602   1
  12   0  -1 375.541 13.3599   1
  13   0   1 161.545 10.1659   1
 -13   0  -1 154.512 9.75974   1
  13   0  -1 155.344 9.79135   1
 -13   0   1 157.019 9.75546   1
  14   0  -1 154.740 10.3868   1
 -14   0  -1 126.011 9.54300   1
 -14   0   1 137.248 9.56252   1
  14   0   1 132.290 9.87164   1
  15   0  -1 9.74466 5.26376   1
  15   0   1 8.32014 5.15895   1
 -15   0   1 19.5189 5.56983   1
 -15   0  -1 13.9276 5.18750   1
 -16   0   1 184.601 11.5418   1
  16   0  -1 167.513 11.6061   1
  16   0   1 182.271 12.0738   1
 -16   0  -1 168.052 11.7359   1
 -17   0  -1 19.5463 6.17081   1
  17   0   1 12.0854 6.03653   1
 -17   0   1 14.8499 6.01176   1
  17   0  -1 14.6268 6.39057   1
   0   1  -1 35.4565 1.20795   3
   0   1  -1 34.6372 2.48585   5
   1  -1   1 16.2349 1.39476   2
  -1   1   1 15.8959 1.39632   3
   1  -1   1 15.8268 1.02163   3
   1   1  -1 14.7881 1.84564   5
  -1  -1  -1 17.2012 1.33384   2
   1   1  -1 15.7433 1.51485   3
  -1  -1   1 16.9004 1.27797   2
  -1  -1   1 10.9933 1.41659   3
  -1   1  -1 16.8170 1.81506   5
  -1  -1   1 13.8312 1.71801   5
   1  -1  -1 16.3687 1.52627   2
  -1  -1   1 16.5452 1.28283   2
  -2  -1  -1 260.690 5.42818   2
   2  -1   1 248.845 5.02504   3
   2  -1   1 259.204 5.52896   2
   2   1  -1 255.805 5.88832   3
  -2   1   1 257.812 5.49187   3
   2  -1   1 261.350 5.27754   1
  -2  -1  -1 249.324 5.06436   1
   2   1  -1 252.673 5.65661   5
  -2  -1   1 253.801 4.94588   1
  -2  -1   1 256.600 5.56257   5
   2  -1  -1 250.298 5.43487   3
  -2  -1   1 260.728 5.98294   3
   2  -1  -1 258.461 5.45369   2
  -2  -1   1 266.549 5.33936   2
   2  -1  -1 255.739 5.24599   1
  -2   1  -1 256.563 5.53809   5
   3  -1   1 423.311 8.58138   2
  -3   1   1 417.795 8.41757   3
   3  -1   1 424.072 8.34131   1
   3  -1   1 417.970 8.14520   3
  -3  -1  -1 401.299 8.41685   2
   3   1  -1 406.701 8.89206   3
   3   1  -1 413.010 8.01847   5
  -3  -1  -1 423.761 8.17269   1
  -3   1  -1 423.914 7.69451   5
   3   1   1 410.594 7.41631   5
  -3  -1   1 419.418 7.84974   5
  -3  -1   1 424.707 9.08223   3
  -3  -1   1 414.545 7.98406   1
  -3  -1   1 414.428 8.32685   2
   3  -1  -1 420.183 8.54320   2
   3  -1  -1 420.209 8.42094   3
   3  -1  -1 437.711 8.30917   1
   4  -1   1 204.805 5.88197   1
   4  -1   1 202.527 6.24545   2
  -4   1   1 207.421 5.95106   3
  -4  -1  -1 194.554 5.98774   2
  -4  -1  -1 195.147 5.98709   2
   4   1  -1 190.763 6.34853   3
  -4  -1  -1 209.140 5.74310   1
   4  -1   1 200.793 5.79110   3
  -4   1  -1 203.483 4.75900   5
   4  -1  -1 199.146 5.94406   3
  -4  -1   1 196.187 4.87198   5
  -4  -1   1 200.313 5.90107   2
  -4  -1   1 203.966 5.59323   1
   4  -1  -1 202.128 5.97888   2
   4   1   1 201.341 4.49812   5
   4  -1  -1 194.254 5.66057   1
   5   1  -1 65.2316 4.53946   3
   5  -1   1 69.6668 4.40229   1
  -5   1   1 65.1471 4.47352   1
  -5  -1  -1 58.7469 4.35281   2
  -5  -1  -1 67.0750 4.06205   1
   5  -1   1 59.8436 4.12944   3
   5  -1   1 66.7840 4.47763   2
  -5   1   1 61.9144 4.31794   3
   5   1   1 63.5888 2.71422   5
  -5  -1   1 70.2083 4.31816   2
   5  -1  -1 68.2858 4.26173   3
  -5   1  -1 60.3272 4.33386   1
  -5  -1   1 58.3762 3.04350   5
  -5  -1   1 68.3839 3.97545   1
  -5   1  -1 64.6441 2.87461   5
   5  -1  -1 63.9241 4.13040   1
   5   1   1 58.6568 4.64778   3
   5  -1  -1 58.8474 4.28382   2
  -6   1   1 14.6887 2.80027   3
  -6   1   1 17.5870 3.02133   1
   6   1  -1 20.4514 3.15995   1
  -6  -1  -1 25.4283 3.11664   1
  -6  -1  -1 19.8037 3.08180   2
   6  -1   1 14.9967 2.79682   1
   6  -1   1 17.5817 2.90675   3
   6  -1   1 20.4315 3.16986   2
  -6   1  -1 23.0208 1.86233   5
  -6  -1   1 21.0628 2.89835   1
  -6  -1   1 20.3389 1.90053   5
  -6  -1   1 14.6707 2.66891   2
   6   1   1 22.9396 3.11735   1
   6  -1  -1 19.9412 2.91705   1
   6  -1  -1 19.5342 2.86375   2
  -6   1  -1 17.7272 3.10301   1
   7   1  -1 6.58216 2.74034   1
  -7   1   1 3.09984 2.28286   2
  -7   1   1 1.92206 2.34601   3
  -7   1   1 6.19439 2.66803   1
   7  -1   1 4.17818 2.51556   1
  -7  -1  -1 4.17271 2.47244   1
  -7  -1  -1 6.53765 2.65422   2
   7  -1   1 5.33228 2.68353   2
  -7  -1   1 4.61335 2.38825   1
  -7   1  -1 0.51103 2.22943   2
   7  -1  -1 4.78727 2.50565   1
  -7   1  -1 0.01940 1.24851   5
   7  -1  -1 4.61033 2.54674   2
   7   1   1 6.14235 2.72455   1
  -7   1  -1 5.73725 2.74417   1
  -7  -1   1 5.82928 2.49318   2
  -7  -1   1 1.84476 1.33129   5
   8   1  -1 12.8926 3.13642   1
  -8  -1  -1 15.7841 3.03470   1
  -8   1   1 20.5033 3.48627   3
   8  -1   1 17.4746 3.48376   1
  -8  -1  -1 17.2714 3.15769   2
   8  -1   1 16.3966 3.38418   2
  -8   1   1 12.3742 3.26449   1
   8   1   1 11.2902 3.34159   1
  -8  -1   1 17.1397 3.13634   1
  -8   1  -1 15.9559 3.43521   1
  -8  -1   1 20.4767 3.52855   2
   8  -1  -1 15.8207 3.37183   2
   8  -1  -1 14.5896 3.15799   1
   9  -1   1 423.864 12.3634   2
   9   1  -1 409.696 12.1597   1
  -9   1   1 434.157 12.4492   1
  -9  -1  -1 410.806 11.8334   1
  -9  -1  -1 439.623 12.4329   2
   9  -1   1 441.760 12.4001   1
   9  -1  -1 409.400 12.0581   1
  -9  -1   1 421.884 12.2257   2
   9  -1  -1 448.866 12.4358   2
   9   1   1 404.031 12.2281   1
  -9   1  -1 436.870 12.5244   1
  -9  -1   1 410.000 11.6899   1
 -10  -1  -1 227.288 9.24831   1
  10  -1   1 253.603 10.0610   2
  10  -1   1 254.955 10.0334   1
 -10  -1  -1 273.615 10.2655   2
  10   1  -1 244.688 9.98129   1
 -10   1   1 256.291 10.0065   1
  10  -1  -1 256.061 10.2002   2
  10   1   1 249.390 10.0863   1
  10  -1  -1 252.147 9.86043   1
 -10  -1   1 243.022 9.42756   1
 -10   1  -1 260.306 10.0231   1
 -10  -1   1 260.557 10.1383   2
  11  -1   1 65.6423 6.27277   1
 -11  -1  -1 69.3015 6.62331   2
 -11  -1  -1 66.0620 6.18464   1
 -11   1   1 77.9875 6.87957   1
  11  -1  -1 65.7453 6.23064   1
 -11  -1   1 71.4387 6.21419   1
  11   1   1 73.3104 7.22107   1
 -11  -1   1 61.0356 6.17439   2
 -11   1  -1 67.0451 6.38963   1
 -12  -1  -1 39.6198 5.54373   1
  12  -1   1 43.2415 6.01328   1
 -12   1   1 40.2756 5.78876   1
 -12   1  -1 46.3459 6.08701   1
  12  -1  -1 40.3597 5.53313   1
 -12  -1   1 40.7115 5.52829   1
 -13  -1  -1 7.02805 4.17580   1
  13  -1   1 13.1312 4.76191   1
 -13   1   1 16.1196 4.86277   1
  13  -1  -1 17.9291 4.86846   1
 -13   1  -1 17.6993 4.98064   1
 -13  -1   1 9.87440 4.21125   1
  14  -1   1 10.4352 5.04097   1
 -14   1   1 10.5015 5.04277   1
 -14  -1  -1 4.87554 4.46615   1
  14  -1  -1 3.06399 4.58064   1
 -14   1  -1 2.26970 4.53312   1
 -14  -1   1 5.77943 4.44149   1
 -15   1   1 9.89740 5.35149   1
  15  -1   1 1.41707 4.78680   1
 -15  -1  -1 5.36723 4.53608   1
 -15  -1   1 10.1531 4.74402   1
  15  -1  -1 8.68445 5.20665   1
 -15   1  -1 16.0280 5.87104   1
  16  -1   1 114.865 10.0739   1
 -16  -1  -1 98.5533 9.05261   1
  16  -1  -1 93.8755 9.53725   1
 -16  -1   1 91.6574 9.02792   1
 -17  -1  -1 -0.8954 4.64517   1
  17  -1   1 -3.8927 5.09852   1
 -17  -1   1 -3.7537 4.32349   1
  17  -1  -1 2.51035 5.15170   1
   0  -2  -1 1.48900 2.10785   4
   0   2  -1 4.40738 2.11109   5
   0  -2   1 -1.5039 2.05741   4
   1   2  -1 1256.77 20.7501   5
  -1  -2  -1 1273.77 21.9732   4
   1  -2   1 1263.03 22.1951   4
   1   2  -1 1224.93 19.5869   3
  -1   2  -1 1280.05 20.8521   5
   1   2   1 1265.08 20.7305   5
   1  -2  -1 1269.67 21.9493   4
  -1  -2   1 1257.46 22.1303   4
   1  -2  -1 1251.78 18.3237   2
   1  -2  -1 1279.84 18.4026   2
  -2  -2  -1 4.65665 1.25976   2
  -2  -2  -1 5.61828 1.27638   2
   2   2  -1 5.17141 2.19860   5
  -2   2   1 3.26674 1.47179   3
   2  -2   1 5.81352 1.42797   2
   2   2  -1 4.57499 1.87755   3
   2  -2   1 5.51263 1.42763   2
  -2   2  -1 5.65807 2.16944   5
  -2  -2   1 3.30468 1.23214   2
   2   2   1 5.19268 2.13023   5
  -2   2  -1 4.04235 1.04059   3
  -2  -2   1 4.52543 1.10501   2
   2  -2  -1 4.19362 1.45637   2
   3   2  -1 226.881 6.51353   3
  -3  -2  -1 234.448 4.45447   1
   3  -2   1 231.205 4.94459   1
   3   2  -1 240.412 6.69517   5
   3  -2   1 230.517 5.84011   2
  -3  -2  -1 225.001 5.65031   2
   3  -2   1 233.863 5.11186   3
  -3   2   1 236.473 5.69729   3
   3   2   1 236.490 6.32712   5
  -3   2  -1 237.769 5.18455   3
   3  -2  -1 230.631 5.06863   1
  -3   2  -1 234.183 6.48546   5
  -3  -2   1 232.485 4.19208   1
   3  -2  -1 228.079 5.82183   2
  -3  -2   1 230.877 5.50674   2
   3  -2  -1 235.502 5.67020   3
   4  -2   1 4.49684 1.71287   3
  -4   2   1 5.24354 1.91545   3
   4   2  -1 3.20931 2.05816   5
  -4  -2  -1 4.85261 1.61984   1
  -4  -2  -1 1.79992 1.80225   2
   4   2  -1 2.38797 2.26727   3
   4  -2   1 0.77506 1.60971   1
   4  -2   1 6.99695 2.08073   2
   4  -2  -1 3.91256 1.72389   1
  -4  -2   1 5.41233 1.89489   2
  -4   2  -1 6.75090 2.03190   5
   4  -2  -1 2.91355 1.90897   2
   4   2   1 4.94444 1.96637   5
   4  -2  -1 4.07376 1.94830   3
  -4  -2   1 3.19023 1.48505   1
   5   2  -1 10.5337 2.37439   5
   5  -2   1 11.2184 2.15908   3
   5  -2   1 11.2451 2.12894   1
  -5  -2  -1 14.2432 2.52914   2
  -5  -2  -1 12.2434 2.07445   1
  -5  -2  -1 12.9615 2.49654   2
   5  -2   1 10.1455 2.48189   2
  -5   2   1 12.6209 2.31934   3
  -5  -2   1 11.6463 2.32462   2
   5  -2  -1 10.4764 2.16699   1
  -5   2  -1 15.9713 2.35231   5
  -5  -2   1 13.0587 2.12336   1
   5  -2  -1 12.8636 2.45912   2
   5  -2  -1 10.7577 2.29427   3
   5   2   1 13.0164 2.18238   5
  -6  -2  -1 543.540 11.4409   1
  -6   2   1 536.012 12.5402   1
   6  -2   1 581.887 11.9459   3
  -6  -2  -1 541.191 12.4470   2
   6  -2   1 550.499 11.7459   1
   6  -2   1 547.684 12.5159   2
  -6   2   1 546.491 11.9973   3
   6  -2  -1 557.341 11.8044   1
  -6  -2   1 544.443 12.2179   2
   6  -2  -1 534.362 12.3658   2
  -6   2  -1 556.671 10.9986   5
   6  -2  -1 525.141 11.9289   3
   6   2   1 560.680 10.7201   5
  -6  -2   1 565.703 11.3863   1
  -7   2   1 626.163 14.1829   1
  -7   2   1 612.623 13.5868   3
   7  -2   1 596.609 13.3569   1
  -7  -2  -1 625.703 13.0735   1
  -7  -2  -1 629.604 14.1265   2
   7  -2   1 620.641 14.1632   2
  -7   2  -1 606.061 14.1780   1
   7  -2  -1 587.039 13.2332   1
  -7  -2   1 606.205 13.8370   2
  -7  -2   1 606.912 12.8142   1
   7  -2  -1 587.778 13.9866   2
  -7   2  -1 625.218 11.9745   5
   7   2   1 626.376 11.5186   5
   8  -2   1 318.617 9.75317   1
  -8  -2  -1 319.353 10.2742   2
  -8  -2  -1 332.048 9.45076   1
  -8   2   1 330.600 9.83704   3
   8  -2   1 336.404 10.5690   2
   8  -2  -1 329.332 9.72030   1
  -8  -2   1 334.954 10.2182   2
   8  -2  -1 316.073 10.2528   2
  -8  -2   1 316.694 9.20886   1
  -8   2  -1 334.883 7.99145   5
  -9  -2  -1 18.4767 3.91343   2
  -9  -2  -1 21.8337 3.61819   1
   9  -2   1 26.8976 4.10856   2
   9  -2   1 16.3152 3.57378   1
  -9  -2   1 22.7313 3.56847   1
   9  -2  -1 21.3308 3.80292   1
   9  -2  -1 23.9587 4.15715   2
  -9  -2   1 20.2369 3.85667   2
 -10  -2  -1 10.2644 3.83324   2
  10  -2   1 5.18450 3.25787   1
 -10  -2  -1 15.7404 3.55415   1
  10  -2   1 9.01880 3.71608   2
  10  -2  -1 7.06430 3.40744   1
  10  -2  -1 10.5694 3.88739   2
 -10  -2   1 12.4618 3.45649   1
 -10  -2   1 10.8272 3.64184   2
  11  -2   1 61.4781 6.17522   2
 -11  -2  -1 63.1822 5.75217   1
 -11  -2  -1 64.8041 6.54661   2
  11  -2   1 52.8969 5.64833   1
  11  -2  -1 62.7254 6.07542   1
  11  -2  -1 66.8447 6.63868   2
 -11  -2   1 58.6464 5.59141   1
 -11  -2   1 62.4400 6.46794   2
 -12  -2  -1 164.741 9.78082   2
 -12  -2  -1 150.454 8.61248   1
  12  -2   1 167.109 9.29299   1
 -12  -2   1 157.474 9.46655   2
  12  -2  -1 146.196 8.94299   1
 -12  -2   1 152.831 8.52698   1
  13  -2   1 3.03526 4.04934   1
 -13  -2  -1 3.91871 3.99785   1
 -13  -2   1 -3.6242 3.42067   1
  13  -2  -1 2.75226 3.88077   1
 -14  -2  -1 355.678 13.3606   1
  14  -2   1 342.891 13.9412   1
  14  -2  -1 349.378 14.0078   1
 -14  -2   1 357.322 13.3434   1
  15  -2   1 98.9880 9.11137   1
 -15  -2  -1 107.753 8.79009   1
  15  -2  -1 121.821 9.75410   1
 -15  -2   1 106.863 8.73470   1
 -16  -2  -1 234.561 11.9983   1
  16  -2   1 237.536 12.9314   1
 -16  -2   1 248.869 12.3314   1
  16  -2  -1 233.761 12.8733   1
 -17  -2  -1 204.491 12.1159   1
  17  -2   1 187.700 12.5540   1
 -17  -2   1 234.791 12.3142   1
  17  -2  -1 206.041 12.4202   1
   0  -3  -1 6.92882 2.67562   4
   0  -3   1 11.1542 2.87373   4
   0   3   1 10.9850 2.68598   5
   0   3  -1 7.66520 2.44982   5
   1   3  -1 10.6386 1.83228   3
   1  -3   1 11.6547 2.86375   4
  -1   3   1 12.2979 2.81578   5
  -1  -3  -1 12.5327 2.92048   4
   1   3  -1 10.3740 2.71543   5
  -1  -3   1 10.9858 2.89786   4
   1  -3  -1 9.05636 2.84566   4
   1   3   1 10.6006 2.69307   5
  -1   3  -1 15.5855 2.95617   5
   2  -3   1 148.161 3.68433   2
  -2  -3  -1 154.643 3.27069   2
   2  -3   1 155.130 6.58368   4
  -2   3   1 153.606 4.18024   3
  -2  -3  -1 143.775 6.28501   4
   2   3  -1 153.710 5.02773   3
   2   3  -1 150.605 6.36287   5
  -2   3   1 148.951 6.40070   5
   2  -3   1 149.193 3.75052   2
  -2  -3  -1 148.920 3.26933   2
   2  -3  -1 154.209 3.98312   2
   2  -3  -1 144.587 3.78052   2
  -2  -3   1 153.242 6.63225   4
  -2  -3   1 157.420 3.06678   2
  -2  -3   1 153.256 2.97888   2
  -2   3  -1 148.302 6.28313   5
   2  -3  -1 147.597 6.46406   4
   2   3   1 141.838 6.03281   5
  -3  -3  -1 297.419 6.26953   2
   3   3  -1 299.398 7.84831   3
   3  -3   1 308.945 6.88521   2
   3  -3   1 299.288 6.68236   2
  -3   3   1 303.750 6.58594   3
   3   3  -1 302.338 8.64374   5
  -3  -3  -1 302.335 6.47213   2
   3   3   1 307.380 8.47929   5
  -3  -3   1 304.697 9.46872   4
  -3  -3   1 293.327 6.05753   2
   3  -3  -1 302.622 6.71327   2
  -3   3  -1 290.193 5.60653   3
  -3   3  -1 290.157 8.51393   5
  -3  -3   1 305.706 6.38186   2
   3  -3  -1 300.997 6.87659   2
  -4   3   1 150.898 4.77565   3
  -4  -3  -1 147.982 4.82296   2
   4  -3   1 148.011 5.21467   2
   4   3  -1 144.209 6.13441   5
   4   3  -1 147.732 5.93731   3
   4  -3   1 141.757 4.96105   2
  -4  -3  -1 143.273 4.95467   2
  -4   3  -1 146.328 6.09331   5
  -4  -3   1 151.435 4.91673   2
  -4  -3   1 143.110 4.65336   2
   4  -3  -1 151.247 5.19781   2
   4  -3  -1 148.065 3.12249   1
   4   3   1 148.119 6.01845   5
   4  -3  -1 145.243 3.20882   1
  -5  -3  -1 43.4298 1.64712   1
   5  -3   1 40.7327 2.73892   1
   5   3  -1 40.3459 3.77009   5
   5  -3   1 41.6110 3.55600   2
  -5  -3  -1 45.7051 1.62901   1
  -5   3   1 42.7371 3.88886   5
  -5   3   1 45.4515 3.46952   3
   5  -3   1 39.0386 3.22140   3
  -5  -3  -1 45.8172 3.59544   2
   5   3   1 45.0845 3.89914   5
   5  -3  -1 40.3261 2.77834   1
   5  -3  -1 48.6273 3.57807   3
  -5   3  -1 39.8530 3.70054   5
  -5  -3   1 41.7716 3.35759   2
   5  -3  -1 41.6020 3.54953   2
   6  -3   1 17.8235 2.54877   3
   6   3  -1 15.0743 2.93118   5
   6  -3   1 9.69729 2.75357   2
  -6   3   1 13.7631 2.85559   5
  -6  -3  -1 15.1160 2.78365   2
  -6  -3  -1 10.9061 1.78694   1
  -6   3   1 10.4956 2.49764   3
   6  -3   1 16.8603 2.36172   1
  -6  -3  -1 11.1509 2.64977   2
  -6  -3   1 11.6336 1.72435   1
   6  -3  -1 13.2288 2.12023   1
   6  -3  -1 12.2994 2.48798   3
  -6   3  -1 17.3600 2.93249   5
   6  -3  -1 8.69172 2.62747   2
  -6  -3   1 13.3888 2.66922   2
   6   3   1 13.8153 2.79715   5
  -7  -3  -1 0.78577 2.54928   2
   7   3  -1 2.85134 2.54879   5
   7  -3   1 0.49248 2.49875   2
  -7   3   1 1.40262 2.30875   5
  -7  -3  -1 3.15607 1.89767   1
   7  -3   1 3.51907 2.15400   1
  -7   3   1 0.28968 2.24738   3
  -7  -3   1 0.67300 2.34672   2
   7  -3  -1 1.27378 2.01876   1
  -7   3  -1 0.15216 2.24550   5
   7  -3  -1 3.13658 2.63016   2
  -7  -3   1 5.14005 1.90781   1
   7   3   1 5.33625 2.31300   5
  -8   3   1 8.31052 2.88975   3
  -8  -3  -1 6.26299 2.40802   1
  -8  -3  -1 12.2620 3.35849   2
   8  -3   1 9.86424 3.32776   2
   8  -3   1 8.38720 2.78435   1
  -8   3   1 6.47927 2.60118   5
  -8   3  -1 6.73453 2.61809   5
  -8  -3   1 9.45259 2.45154   1
   8  -3  -1 5.36656 3.06800   2
  -8  -3   1 9.73612 3.11747   2
   8  -3  -1 9.41018 2.69930   1
   9  -3   1 317.426 11.1293   2
   9  -3   1 325.789 9.92955   1
  -9  -3  -1 339.433 11.1113   2
  -9  -3  -1 313.524 9.16162   1
   9  -3  -1 316.632 9.88657   1
   9  -3  -1 317.100 11.1675   2
  -9  -3   1 317.036 10.7639   2
  -9  -3   1 312.724 9.00443   1
  10  -3   1 171.143 8.11831   1
 -10  -3  -1 168.810 7.46988   1
 -10  -3  -1 176.293 8.90548   2
  10  -3   1 171.248 9.07008   2
 -10  -3   1 174.976 8.78375   2
 -10  -3   1 180.522 7.47300   1
  10  -3  -1 175.975 9.20053   2
  10  -3  -1 178.986 8.07175   1
  11  -3   1 63.8332 6.90799   2
 -11  -3  -1 63.8598 5.52651   1
 -11  -3  -1 65.7543 6.53879   2
  11  -3   1 51.9265 5.56153   1
 -11  -3   1 64.0217 5.39412   1
  11  -3  -1 57.3718 6.38184   2
 -11  -3   1 53.7050 6.11507   2
  11  -3  -1 52.9420 5.55961   1
  12  -3   1 44.3570 5.61439   1
  12  -3   1 56.6981 6.98324   2
 -12  -3  -1 41.9708 5.19619   1
 -12  -3  -1 39.3294 5.82449   2
  12  -3  -1 48.6383 6.50682   2
  12  -3  -1 33.9215 5.17856   1
 -12  -3   1 38.4454 4.99816   1
 -12  -3   1 34.5021 5.76497   2
  13  -3   1 5.67740 4.15136   1
 -13  -3  -1 12.6256 4.23794   1
 -13  -3  -1 10.5806 4.81197   2
  13  -3  -1 15.3350 4.67273   1
 -13  -3   1 11.3815 4.70958   2
 -13  -3   1 10.2113 4.11020   1
  14  -3   1 1.55851 4.28150   1
 -14  -3  -1 9.75443 4.34562   1
 -14  -3  -1 2.48932 4.81755   2
 -14  -3   1 4.13509 3.84160   1
 -14  -3   1 4.03640 4.83806   2
  14  -3  -1 9.13278 4.64247   1
 -15  -3  -1 5.16200 4.26586   1
  15  -3   1 14.0495 5.08081   1
  15  -3  -1 6.66014 4.66009   1
 -15  -3   1 3.13366 4.13942   1
  16  -3   1 74.6137 8.24044   1
 -16  -3  -1 65.7954 7.17572   1
 -16  -3   1 89.5123 8.00581   1
  16  -3  -1 90.5425 8.90173   1
   0  -4   1 3.43719 2.78893   4
   0   4   1 1.16056 2.39830   5
   0  -4  -1 2.19577 2.74993   4
   0   4  -1 -2.1299 2.33357   5
  -1   4   1 32.1539 3.81885   5
   1  -4   1 20.5766 3.72240   4
   1   4  -1 22.1706 3.52358   5
  -1  -4  -1 32.1220 4.14234   4
   1   4   1 30.5249 3.83479   5
  -1  -4   1 35.4009 4.56332   4
  -1   4  -1 22.2217 3.51546   5
   1  -4  -1 29.2102 4.09047   4
   2  -4   1 24.1964 1.86723   2
  -2  -4  -1 23.3844 3.93080   4
   2  -4   1 25.9964 2.03194   2
   2   4  -1 21.1948 2.58207   3
  -2   4   1 22.3024 3.63159   5
   2  -4   1 16.3378 3.71116   4
  -2  -4  -1 22.3740 1.55998   2
   2   4  -1 24.6725 3.57784   5
   2   4   1 19.4979 3.45308   5
  -2  -4   1 14.6810 3.59390   4
   2  -4  -1 25.5203 1.91854   2
   2  -4  -1 22.4724 3.85941   4
  -2   4  -1 22.0257 3.54250   5
   2  -4  -1 23.1925 2.00936   2
   3  -4   1 35.5240 2.77975   2
  -3  -4  -1 32.2151 2.52155   2
   3   4  -1 29.9866 4.03051   5
  -3  -4  -1 31.6718 2.25343   2
   3   4  -1 27.9645 3.19333   3
  -3   4   1 27.3101 4.00453   5
  -3  -4  -1 34.9434 4.61278   4
   3  -4   1 30.9250 2.47563   2
  -3  -4   1 30.7564 2.45885   2
  -3  -4   1 32.7560 2.26904   2
   3  -4  -1 35.1120 2.69857   2
  -3   4  -1 30.0314 4.05554   5
  -3  -4   1 31.3015 4.42700   4
   3   4   1 25.7777 3.71187   5
   3  -4  -1 30.8991 2.50048   2
  -4   4   1 2751.35 44.7964   5
   4  -4   1 2784.08 42.6676   2
  -4  -4  -1 2836.96 42.0423   2
   4   4  -1 2736.71 44.6709   5
  -4  -4  -1 2757.88 48.5008   4
   4  -4  -1 2795.75 42.6898   2
  -4   4  -1 2712.67 44.6393   5
  -4  -4   1 2717.00 41.8129   2
   4   4   1 2708.88 44.3768   5
  -4  -4   1 2777.73 48.7047   4
  -4  -4   1 2735.36 41.8400   2
  -5   4   1 424.602 11.7489   5
  -5  -4  -1 402.295 9.66337   2
   5  -4   1 414.110 10.1731   2
   5   4  -1 395.644 11.4171   5
  -5  -4   1 411.819 13.0970   4
   5  -4  -1 395.407 10.0489   2
   5   4   1 405.581 11.2917   5
  -5   4  -1 413.451 11.5250   5
  -5  -4   1 394.619 9.47202   2
   6  -4   1 16.8416 3.22652   2
  -6  -4  -1 16.3100 2.95369   2
   6   4  -1 18.9042 3.59883   5
  -6  -4  -1 21.9966 3.19942   2
  -6   4   1 15.8940 3.35694   5
  -6  -4   1 15.9606 2.97767   2
   6  -4  -1 17.7161 3.20722   2
  -6   4  -1 18.2929 3.53410   5
   6   4   1 21.4319 3.81988   5
  -7   4   1 107.785 6.51560   5
  -7  -4  -1 99.7795 6.10055   2
   7  -4   1 104.535 3.66248   1
   7  -4   1 106.141 6.33515   2
   7   4  -1 114.031 6.93956   5
   7  -4  -1 107.055 3.86365   1
  -7   4  -1 98.2463 6.39286   5
   7  -4  -1 100.056 6.19285   2
   7   4   1 109.835 6.62455   5
  -7  -4   1 105.779 5.97785   2
   8  -4   1 91.9681 4.56594   1
  -8  -4  -1 96.9327 6.50084   2
   8  -4   1 86.0369 6.59184   2
  -8   4   1 85.2986 6.34380   5
   8  -4  -1 94.0507 4.64905   1
  -8  -4   1 83.4165 6.12017   2
  -8   4  -1 89.8543 6.41381   5
   8  -4  -1 97.8900 6.66009   2
  -9  -4  -1 47.4552 5.19637   2
   9  -4   1 47.1150 5.36068   2
  -9  -4  -1 45.2615 3.07810   1
   9  -4   1 45.0633 4.08236   1
   9  -4  -1 44.4528 5.36917   2
  -9  -4   1 41.5732 5.01996   2
  -9  -4   1 53.1994 2.95242   1
   9  -4  -1 50.8244 4.16256   1
  10  -4   1 42.1182 4.37495   1
 -10  -4  -1 41.0510 3.46645   1
 -10  -4  -1 34.5913 5.11461   2
  10  -4   1 37.9116 5.38250   2
 -10  -4   1 34.1125 5.15409   2
  10  -4  -1 38.6120 5.65289   2
 -10  -4   1 43.6089 3.44450   1
  10  -4  -1 41.2248 4.39899   1
  11  -4   1 348.663 10.8426   1
 -11  -4  -1 329.159 12.5840   2
  11  -4   1 328.571 12.9517   2
 -11  -4  -1 334.137 9.16615   1
 -11  -4   1 343.777 9.03513   1
  11  -4  -1 347.383 10.7738   1
  11  -4  -1 314.174 12.6894   2
 -11  -4   1 330.237 12.3668   2
 -12  -4  -1 254.678 8.69545   1
  12  -4   1 240.352 12.0417   2
  12  -4   1 243.944 9.92593   1
 -12  -4  -1 260.547 11.7429   2
  12  -4  -1 251.916 12.1592   2
 -12  -4   1 267.529 8.71225   1
 -12  -4   1 250.065 11.7322   2
  12  -4  -1 245.736 9.89057   1
 -13  -4  -1 123.576 7.22201   1
  13  -4   1 103.203 7.99989   1
 -13  -4  -1 125.457 9.71491   2
  13  -4   1 121.308 9.73793   2
 -13  -4   1 123.743 7.21550   1
  13  -4  -1 123.171 8.21938   1
 -13  -4   1 117.473 9.37827   2
  13  -4  -1 138.897 10.6130   2
  14  -4   1 105.688 8.27942   1
 -14  -4  -1 101.965 9.19013   2
 -14  -4  -1 83.2390 6.36858   1
 -14  -4   1 85.4332 6.54371   1
  14  -4  -1 102.773 8.28054   1
 -14  -4   1 104.840 9.41898   2
 -15  -4  -1 12.5505 4.35509   1
 -15  -4  -1 11.3011 5.48720   2
  15  -4   1 3.92077 4.72967   1
  15  -4  -1 13.6592 4.81350   1
 -15  -4   1 13.6500 5.91016   2
 -15  -4   1 11.9483 4.39535   1
   0   5  -1 22.2123 4.17118   5
   0  -5   1 22.8318 4.68986   4
   0   5   1 20.4881 3.94299   5
   0  -5  -1 21.2155 4.43121   4
   1  -5   1 11.6850 4.02485   4
  -1  -5  -1 14.0975 4.29161   4
  -1   5   1 4.45764 3.14515   5
   1   5  -1 7.00377 3.30658   5
  -1   5  -1 11.4924 3.54123   5
   1  -5  -1 12.3686 1.41127   2
   1   5   1 11.6360 3.73523   5
   1  -5  -1 10.6326 3.78761   4
   1  -5  -1 12.9250 1.33457   2
  -1  -5   1 11.8015 4.24205   4
  -2   5   1 90.8276 6.93156   5
  -2  -5  -1 105.556 2.93392   2
   2  -5   1 112.936 7.68499   4
  -2  -5  -1 112.713 3.07368   2
  -2  -5  -1 123.491 7.61696   4
   2  -5   1 107.607 3.70261   2
   2  -5   1 112.504 3.60467   2
   2   5  -1 109.782 7.42535   5
   2  -5  -1 109.083 3.79915   2
  -2   5  -1 113.055 7.38400   5
  -2  -5   1 110.365 7.72191   4
   2  -5  -1 97.1996 7.34617   4
   2   5   1 110.089 7.05186   5
  -3  -5  -1 162.812 4.67143   2
   3   5  -1 156.735 8.49080   5
  -3  -5  -1 152.542 8.83677   4
   3  -5   1 160.861 5.27207   2
  -3   5   1 158.400 8.23370   5
  -3  -5   1 161.436 8.81416   4
  -3   5  -1 164.084 8.33269   5
  -3  -5   1 163.130 4.55447   2
   3   5   1 163.937 8.40820   5
  -3  -5   1 162.699 4.44137   2
   3  -5  -1 156.092 5.31809   2
  -4  -5  -1 79.8759 4.25415   2
   4   5  -1 90.1698 7.06123   5
  -4  -5  -1 88.3316 7.26785   4
  -4   5   1 94.0595 6.97741   5
   4  -5   1 84.9607 4.71094   2
   4  -5  -1 87.0358 4.67524   2
   4   5   1 88.3823 6.92162   5
  -4  -5   1 82.4105 4.10464   2
  -4   5  -1 77.4580 6.45018   5
  -4  -5   1 77.4192 7.21023   4
  -5   5   1 29.5468 4.72325   5
   5  -5   1 29.0865 3.45650   2
  -5  -5  -1 22.9392 4.98398   4
   5   5  -1 23.2229 4.30314   5
  -5  -5  -1 26.1463 3.23359   2
  -5   5  -1 30.4832 4.53425   5
  -5  -5   1 27.6290 5.39381   4
   5   5   1 24.2209 4.44226   5
  -5  -5   1 29.9123 3.23114   2
   5  -5  -1 30.4378 3.47993   2
  -6  -5  -1 4.19008 2.62411   2
  -6  -5  -1 11.1791 2.96014   2
   6   5  -1 12.7056 3.99303   5
  -6  -5  -1 7.24528 4.51984   4
  -6   5   1 13.2988 4.02438   5
   6  -5   1 11.2560 3.04046   2
   6  -5  -1 6.82907 2.92795   2
   6   5   1 2.51156 3.62174   5
  -6   5  -1 5.83700 3.62855   5
  -6  -5   1 9.36681 2.80257   2
  -6  -5   1 5.87646 4.14375   4
  -7  -5  -1 5.12627 4.40268   4
  -7   5   1 0.28446 3.18835   5
   7   5  -1 2.65265 3.70731   5
   7  -5   1 8.36524 3.25685   2
  -7  -5  -1 -1.3628 2.65488   2
  -7  -5   1 2.06841 2.73428   2
  -7  -5   1 -0.3451 4.11728   4
  -7   5  -1 5.73060 3.62498   5
   7   5   1 -1.8002 3.29895   5
   7  -5  -1 4.24856 3.01482   2
   8  -5   1 17.1943 4.02407   2
  -8  -5  -1 14.3662 3.73288   2
  -8   5   1 11.5946 4.15297   5
  -8  -5   1 15.3431 3.63897   2
   8  -5  -1 14.4843 3.83790   2
   9  -5   1 235.905 10.2133   2
  -9  -5  -1 234.933 9.68630   2
   9  -5  -1 220.272 10.0387   2
  -9  -5   1 228.272 9.49565   2
 -10  -5  -1 155.967 8.94273   2
  10  -5   1 146.079 9.14727   2
 -10  -5   1 165.217 8.90785   2
  10  -5  -1 163.864 9.31752   2
 -11  -5  -1 34.6488 5.56309   2
  11  -5   1 39.7682 6.09512   2
  11  -5  -1 43.7343 6.25401   2
 -11  -5   1 43.4539 5.71192   2
 -12  -5  -1 29.2096 5.57171   2
  12  -5   1 31.6419 6.17560   2
 -12  -5   1 18.5919 4.86256   2
  12  -5  -1 25.1953 5.85314   2
 -13  -5  -1 7.67157 4.42113   2
  13  -5   1 6.64649 4.89337   2
 -13  -5   1 3.61165 4.28419   2
  13  -5  -1 4.24993 4.63994   2
  13  -5  -1 11.1349 3.89079   1
  14  -5   1 11.5647 4.59577   1
  14  -5   1 11.2380 5.61282   2
 -14  -5  -1 -1.2741 4.54185   2
  14  -5  -1 7.45851 4.16448   1
  14  -5  -1 2.55028 5.30947   2
 -14  -5   1 8.35326 4.86401   2
   0  -6   1 -1.2466 3.87350   4
   0  -6  -1 7.01966 4.43053   4
  -1  -6  -1 434.991 15.3396   4
   1  -6   1 427.371 7.52881   2
   1  -6   1 408.389 15.0006   4
   1  -6  -1 425.891 7.91413   2
  -1  -6   1 422.662 15.2800   4
   1  -6  -1 440.383 15.3339   4
   2  -6   1 -3.5065 4.28106   4
   2  -6   1 -1.3056 1.65502   2
  -2  -6  -1 -3.4513 4.13090   4
  -2  -6  -1 2.29150 1.45443   2
  -2  -6   1 0.42695 4.26650   4
   2  -6  -1 3.42578 1.82260   2
  -3  -6  -1 81.9352 3.90777   2
  -3  -6  -1 89.2352 8.49002   4
   3  -6   1 76.2999 4.42834   2
   3  -6  -1 86.7717 4.45139   2
  -3  -6   1 77.3342 7.98405   4
  -3  -6   1 82.2176 3.65042   2
  -4  -6  -1 2.05345 2.16564   2
   4  -6   1 0.49871 2.35481   2
  -4  -6  -1 -2.9092 4.22701   4
   4  -6  -1 -1.1704 2.30423   2
  -4  -6   1 2.68406 4.42623   4
  -4  -6   1 1.46798 2.13723   2
  -5  -6  -1 4.05182 2.49529   2
  -5  -6  -1 3.66121 2.64381   2
  -5  -6  -1 2.48416 4.48920   4
   5  -6   1 1.58460 2.55880   2
  -5  -6   1 0.92796 2.32035   2
   5  -6  -1 2.36032 2.65303   2
  -5  -6   1 -5.1778 4.25172   4
  -6  -6  -1 184.639 11.2015   4
  -6  -6  -1 205.101 7.87940   2
   6  -6   1 205.436 8.34500   2
   6  -6  -1 210.912 8.32088   2
  -6  -6   1 211.427 7.52020   2
  -6  -6   1 199.690 11.9672   4
  -7  -6  -1 245.940 9.02339   2
   7  -6   1 230.643 9.37756   2
  -7  -6  -1 244.764 13.0046   4
  -7  -6   1 226.751 12.8475   4
  -7  -6   1 233.603 8.62491   2
   7  -6  -1 241.918 9.55894   2
  -8  -6  -1 134.448 11.1144   4
  -8  -6  -1 152.530 7.94544   2
   8  -6   1 149.734 8.27266   2
  -8  -6   1 134.562 10.4902   4
   8  -6  -1 144.556 8.14478   2
  -8  -6   1 142.006 7.53850   2
   9  -6   1 15.7229 4.45697   2
  -9  -6  -1 11.2002 5.81819   4
  -9  -6  -1 9.75574 3.92303   2
  -9  -6   1 15.9185 6.08704   4
  -9  -6   1 10.3859 3.70433   2
   9  -6  -1 10.1775 4.25202   2
 -10  -6  -1 1.13952 5.48233   4
  10  -6   1 1.53005 4.00420   2
 -10  -6  -1 5.53013 3.95949   2
  10  -6  -1 5.21397 3.94793   2
 -10  -6   1 8.71996 5.90893   4
 -10  -6   1 12.9415 4.17294   2
 -11  -6  -1 34.3780 8.18409   4
  11  -6   1 27.7489 5.70222   2
 -11  -6  -1 27.2675 5.39143   2
  11  -6  -1 34.8443 6.14877   2
 -11  -6   1 28.5348 7.66811   4
 -11  -6   1 29.0427 5.18343   2
  12  -6   1 73.1555 7.89728   2
 -12  -6  -1 78.9780 7.79953   2
 -12  -6   1 65.6125 9.99965   4
 -12  -6   1 64.9698 7.19076   2
  12  -6  -1 73.3994 8.12440   2
   0  -7  -1 9.12770 5.25350   4
   0  -7   1 3.81319 4.82259   4
   0  -7  -1 3.74631 1.55681   2
   1  -7   1 4.76364 1.70816   2
  -1  -7  -1 11.2072 5.48638   4
   1  -7   1 4.22541 4.92994   4
   1  -7  -1 2.83541 5.12094   4
  -1  -7   1 6.88814 5.09424   4
   1  -7  -1 2.99254 1.74581   2
  -2  -7  -1 47.6359 3.09689   2
  -2  -7  -1 50.2595 7.31627   4
   2  -7   1 46.4202 3.65852   2
  -2  -7   1 68.9895 8.47533   4
   2  -7  -1 44.1026 3.22980   2
   3  -7   1 114.544 5.34809   2
  -3  -7  -1 115.118 10.1228   4
  -3  -7  -1 119.389 4.68178   2
  -3  -7   1 125.995 4.33859   2
   3  -7  -1 113.874 5.27510   2
  -3  -7   1 107.708 10.0036   4
   4  -7   1 55.8573 4.44766   2
  -4  -7  -1 58.4377 8.03500   4
  -4  -7  -1 56.4095 4.02112   2
  -4  -7  -1 56.1207 4.40241   2
  -4  -7   1 62.1931 8.28761   4
   4  -7  -1 54.4919 4.44009   2
  -4  -7   1 58.4754 4.11687   2
   5  -7   1 17.8185 3.48400   2
  -5  -7  -1 13.6557 3.14849   2
  -5  -7  -1 16.5838 6.00940   4
  -5  -7   1 23.6567 6.64838   4
  -5  -7   1 17.2786 3.07720   2
   5  -7  -1 7.82323 3.34861   2
  -6  -7  -1 1.47250 5.64605   4
  -6  -7  -1 2.21002 2.95039   2
   6  -7   1 5.09605 3.33234   2
   6  -7  -1 2.73836 3.26746   2
  -6  -7   1 4.92680 5.66169   4
  -6  -7   1 8.43281 3.07020   2
   7  -7   1 5.70303 3.57202   2
  -7  -7  -1 2.34186 3.24375   2
  -7  -7  -1 -7.1938 4.79652   4
   7  -7  -1 -1.2724 3.37823   2
  -7  -7   1 5.40565 3.02141   2
  -7  -7   1 5.04461 5.54289   4
  -8  -7  -1 2.06749 5.94828   4
   8  -7   1 9.43695 3.82239   2
  -8  -7  -1 1.26507 3.38185   2
  -8  -7   1 3.02944 3.28581   2
  -8  -7   1 -8.8652 5.15322   4
   8  -7  -1 3.89851 3.81324   2
   9  -7   1 142.622 9.21961   2
  -9  -7  -1 139.470 12.5005   4
  -9  -7  -1 131.176 8.39421   2
  -9  -7   1 117.704 11.3962   4
  -9  -7   1 132.570 8.15662   2
   9  -7  -1 133.069 8.99427   2
 -10  -7  -1 67.4462 6.74720   2
 -10  -7  -1 67.5819 10.1283   4
  10  -7   1 48.7423 6.50243   2
 -10  -7   1 60.5033 9.49657   4
  10  -7  -1 57.0536 6.63954   2
 -10  -7   1 62.5776 6.31379   2
   0  -8   1 -4.6200 5.48038   4
   0  -8  -1 -4.7839 5.21956   4
  -1  -8  -1 8.46156 6.15604   4
   1  -8  -1 17.1967 2.22792   2
  -1  -8   1 12.7170 6.28197   4
  -2  -8  -1 4.67907 5.72063   4
   2  -8   1 6.92399 2.19226   2
   2  -8  -1 9.17271 2.51301   2
  -2  -8   1 1.80318 5.66839   4
   3  -8   1 12.5436 2.91287   2
  -3  -8  -1 12.8101 6.09315   4
  -3  -8  -1 15.6098 2.50057   2
  -3  -8   1 7.28284 5.85989   4
   3  -8  -1 11.1990 2.79514   2
  -3  -8   1 21.9828 2.28840   2
  -4  -8  -1 873.980 27.1470   4
   4  -8   1 889.854 17.5979   2
  -4  -8  -1 894.449 16.4283   2
   4  -8  -1 893.093 17.5759   2
  -4  -8   1 910.137 15.9427   2
  -4  -8   1 865.551 26.9480   4
   5  -8   1 139.591 7.15373   2
  -5  -8  -1 136.692 6.19617   2
  -5  -8  -1 130.240 12.1393   4
  -5  -8   1 113.967 11.6415   4
  -5  -8   1 126.899 5.95435   2
   5  -8  -1 125.061 6.88976   2
  -6  -8  -1 6.10612 6.29668   4
   6  -8   1 0.06832 3.41056   2
  -6  -8  -1 2.47288 2.96730   2
   6  -8  -1 5.13059 3.65445   2
  -6  -8   1 9.33763 6.43984   4
  -6  -8   1 6.21898 3.04630   2
  -1   0   2 0.19255 0.78817   3
  -2   0   2 4.82778 1.45412   3
   2   0  -2 10.6618 1.63529   3
  -3   0   2 88.2997 3.91743   1
  -3   0   2 83.9157 4.03235   3
   3   0  -2 91.1450 4.00663   3
   4   0  -2 199.615 5.98041   2
  -4   0  -2 200.919 6.09570   1
  -4   0   2 207.393 6.32625   3
   4   0   2 195.166 6.17276   2
  -4   0   2 198.566 5.97674   2
   4   0  -2 190.708 6.13208   3
  -4   0  -2 189.682 6.15904   2
   4   0   2 207.811 6.33567   1
   4   0  -2 214.680 6.10807   1
  -5   0   2 18.7101 2.58486   2
  -5   0  -2 20.7046 2.92555   1
   5   0   2 21.9918 3.06022   2
   5   0   2 16.2444 2.76134   3
  -5   0   2 18.5615 2.75187   1
  -5   0  -2 20.1881 3.00340   2
   5   0  -2 19.9778 2.69026   2
   5   0   2 15.9482 2.91512   1
  -5   0   2 18.5753 2.85292   3
   5   0  -2 18.1280 2.74715   1
   5   0  -2 23.3349 3.10958   3
  -6   0  -2 97.9458 5.39045   1
  -6   0   2 105.468 5.52928   3
   6   0  -2 103.049 5.20641   2
  -6   0   2 96.9540 5.16017   1
  -6   0  -2 98.9931 5.41429   2
   6   0   2 100.123 5.49063   1
   6   0  -2 99.6995 5.25258   1
   7   0  -2 1003.17 19.4713   1
  -7   0   2 999.288 19.4315   2
  -7   0   2 981.971 19.7645   3
  -7   0  -2 1009.41 19.5509   1
  -7   0   2 989.773 19.3732   1
   7   0   2 1014.38 19.7482   1
   7   0  -2 1014.17 19.3975   2
  -7   0  -2 997.159 19.7004   2
   7   0   2 1017.52 19.6933   2
  -8   0   2 232.142 8.43022   1
  -8   0  -2 233.333 8.55692   1
   8   0   2 241.455 8.74527   1
  -8   0   2 228.874 8.67243   3
  -8   0   2 246.043 8.51290   2
   8   0  -2 225.368 8.42514   1
   8   0   2 227.936 8.49899   2
   8   0  -2 230.247 8.34316   2
  -8   0  -2 235.555 8.59260   2
  -9   0  -2 242.289 9.23088   2
   9   0  -2 225.671 8.97587   1
  -9   0  -2 241.810 9.22376   1
  -9   0   2 238.007 9.02006   2
   9   0   2 230.824 8.94790   1
  -9   0   2 222.511 8.79951   1
 -10   0  -2 4.19689 3.21413   1
 -10   0   2 12.1348 3.61353   1
  10   0   2 1.16092 3.31320   1
  10   0  -2 9.65866 3.59964   1
 -11   0  -2 6.60294 3.74831   1
 -11   0   2 5.40601 3.74435   1
  11   0  -2 6.86038 3.72422   1
  11   0   2 3.36169 3.67791   1
 -12   0   2 412.773 13.7163   1
  12   0  -2 432.841 14.3571   1
  12   0   2 452.828 14.6591   1
 -12   0  -2 414.282 14.1247   1
 -13   0   2 332.933 13.0292   1
  13   0   2 339.359 13.7523   1
  13   0  -2 343.480 13.2942   1
 -13   0  -2 344.031 13.2488   1
 -14   0  -2 6.93407 4.65070   1
  14   0   2 3.96998 4.68301   1
 -14   0   2 12.1697 4.77254   1
  14   0  -2 -2.4424 4.21578   1
 -15   0  -2 1051.22 26.2020   1
  15   0   2 1061.53 26.7326   1
  15   0  -2 1047.65 26.4415   1
 -15   0   2 1025.98 25.8719   1
  16   0   2 32.8539 6.89242   1
 -16   0  -2 41.2233 7.01902   1
  16   0  -2 26.6651 6.53649   1
 -16   0   2 33.8520 6.59088   1
 -17   0   2 108.081 10.2433   1
  17   0  -2 137.252 11.3982   1
 -17   0  -2 124.960 10.8778   1
  17   0   2 138.509 11.5180   1
   0  -1   2 -1.4100 1.41639   5
   0   1  -2 -1.5335 1.34718   5
   0  -1   2 -0.8809 0.77840   2
   0  -1  -2 0.07827 0.91670   2
   1  -1   2 0.36621 1.04563   2
   1  -1   2 -1.7497 1.53106   4
   1   1  -2 0.81299 1.23003   3
  -1  -1  -2 -0.0858 1.07406   2
   1  -1   2 3.53807 1.55809   5
   1   1  -2 0.16005 1.69540   5
  -1  -1   2 0.00888 1.21099   3
   1  -1  -2 1.03445 1.12475   2
  -1  -1   2 -2.0838 1.47527   5
  -1  -1   2 -0.6288 0.95185   2
  -1   1  -2 1.11403 1.54200   5
   2  -1   2 4.21525 1.60807   1
  -2   1   2 5.24252 1.61846   3
  -2  -1  -2 4.42045 1.47847   1
   2  -1   2 2.98243 1.59895   5
  -2  -1  -2 3.23202 1.56164   2
   2  -1   2 6.12235 1.57117   2
   2   1  -2 3.66790 1.67848   3
   2  -1  -2 4.76681 1.45615   1
  -2  -1   2 3.79128 1.36238   2
  -2  -1   2 6.00105 1.73276   3
   2  -1  -2 4.61097 1.67184   3
  -2  -1   2 5.91070 1.80914   5
  -2   1  -2 1.56088 1.58725   5
   2  -1  -2 4.73127 1.60786   2
  -2  -1   2 7.71856 1.42166   1
  -3  -1  -2 313.493 7.14885   2
   3  -1   2 313.726 6.70013   3
  -3  -1  -2 309.935 6.90091   1
   3  -1   2 304.617 6.22486   5
  -3   1   2 306.437 7.13552   3
   3  -1   2 296.716 7.05045   2
   3   1  -2 296.040 7.32279   3
   3  -1   2 306.497 6.97372   1
  -3  -1   2 307.677 6.79607   2
   3  -1  -2 299.746 7.07929   3
   3  -1  -2 303.562 6.99404   2
  -3  -1   2 316.549 6.62134   1
  -3  -1   2 306.332 6.79459   5
  -3   1  -2 300.608 6.35368   5
   3  -1  -2 309.789 6.87044   1
  -3  -1   2 297.046 7.38245   3
  -4  -1  -2 910.762 15.7109   1
   4  -1   2 907.751 15.7056   3
   4   1  -2 878.438 16.3369   3
   4  -1   2 927.481 15.9620   1
  -4  -1  -2 870.282 15.9629   2
  -4   1   2 891.125 15.9904   3
   4  -1   2 872.361 16.0558   2
  -4  -1   2 877.242 16.4444   3
  -4  -1   2 877.278 15.7087   2
  -4  -1   2 921.385 15.5187   1
  -4   1  -2 869.416 14.1463   5
   4   1   2 878.137 13.7651   5
   4  -1  -2 903.999 15.7152   1
  -4  -1   2 894.132 14.7699   5
   4  -1  -2 886.923 15.9787   3
  -5  -1  -2 223.301 7.03130   2
   5   1  -2 210.740 7.07655   3
   5  -1   2 218.612 6.65013   3
  -5  -1  -2 225.376 6.69020   1
   5  -1   2 221.700 7.10464   2
  -5   1   2 228.635 6.94353   3
  -5  -1  -2 210.480 6.95147   2
   5  -1   2 220.783 6.85440   1
  -5   1   2 231.027 6.90812   1
  -5  -1   2 230.876 5.66756   5
   5  -1  -2 203.215 6.59964   1
  -5  -1   2 215.979 6.48163   1
   5   1   2 219.456 4.57720   5
  -5   1  -2 219.408 6.90985   1
  -5  -1   2 228.186 7.31812   3
  -5   1  -2 230.184 5.07262   5
   5  -1  -2 224.067 6.91369   3
  -5  -1   2 209.220 6.62975   2
   6  -1   2 4.96477 2.46590   3
  -6   1   2 2.88116 2.34521   1
  -6  -1  -2 2.92053 2.43090   1
  -6   1   2 7.02505 2.51550   3
  -6  -1  -2 5.19871 2.56284   2
   6   1  -2 6.86385 2.51873   1
   6  -1   2 4.00941 2.49263   1
   6  -1   2 6.48190 2.49661   2
  -6  -1   2 3.52777 2.50736   3
  -6  -1   2 7.64845 2.50013   2
   6   1   2 5.27926 1.21156   5
  -6   1  -2 3.55703 1.43395   5
   6  -1  -2 4.08447 2.47088   2
  -6  -1   2 3.89180 2.31338   1
  -6  -1   2 4.02658 1.71862   5
   6   1   2 5.06606 2.52161   1
  -6   1  -2 2.99773 2.32886   1
   6  -1  -2 3.12695 2.33322   1
  -7  -1  -2 555.229 13.0364   1
  -7   1   2 590.167 13.1651   2
   7  -1   2 578.782 13.4155   1
   7  -1   2 562.003 13.4424   2
   7   1  -2 612.216 13.4752   1
  -7   1   2 577.985 13.3551   3
  -7  -1  -2 574.746 13.5880   2
  -7   1   2 584.498 13.4236   1
  -7   1  -2 584.210 13.5395   1
   7  -1  -2 584.977 13.1010   1
  -7  -1   2 579.576 12.8659   1
   7  -1  -2 562.220 13.3580   2
  -7   1  -2 589.913 9.70388   5
  -7  -1   2 572.788 13.4173   2
  -7  -1   2 583.203 10.4795   5
  -7   1  -2 555.986 13.1245   2
   8  -1   2 -2.0697 2.58281   2
   8   1  -2 0.62453 2.67992   1
  -8  -1  -2 4.59683 2.74971   2
  -8  -1  -2 -1.2549 2.28506   1
  -8   1   2 0.14642 2.59383   3
   8  -1   2 -0.5131 2.50962   1
  -8   1   2 -1.0326 2.53753   1
   8  -1  -2 -1.3116 2.41020   2
  -8  -1   2 -0.5031 2.32623   1
   8   1   2 0.18578 2.62263   1
  -8   1  -2 -1.6127 2.58135   1
   8  -1  -2 -2.2647 2.39260   1
  -8  -1   2 -1.6346 2.23308   2
   9   1  -2 264.233 9.71243   1
  -9   1   2 260.496 9.50031   3
  -9   1   2 280.255 9.77470   1
   9  -1   2 251.627 9.51500   1
  -9  -1  -2 259.947 9.25913   1
   9  -1   2 263.108 9.72360   2
  -9  -1  -2 250.662 9.65097   2
   9  -1  -2 253.540 9.63118   2
  -9  -1   2 278.640 9.25565   1
   9  -1  -2 280.603 9.50072   1
   9   1   2 268.084 9.88672   1
  -9   1  -2 267.880 9.91040   1
 -10  -1  -2 175.414 8.86969   2
  10   1  -2 181.662 8.87735   1
 -10  -1  -2 201.178 8.70297   1
  10  -1   2 187.024 8.94608   2
 -10   1   2 185.359 8.86453   1
  10  -1   2 172.111 8.65315   1
  10   1   2 179.267 8.90709   1
 -10   1  -2 180.635 8.83057   1
 -10  -1   2 190.051 8.44020   1
  10  -1  -2 188.367 8.53984   1
 -10  -1   2 184.286 8.70501   2
  10  -1  -2 190.490 8.91399   2
 -11  -1  -2 114.070 8.20477   2
 -11  -1  -2 107.079 7.67407   1
 -11   1   2 114.219 7.86481   1
  11  -1   2 111.975 7.96854   1
 -11   1  -2 106.795 8.04539   1
  11   1   2 123.808 8.49698   1
  11  -1  -2 124.854 7.99845   1
 -11  -1   2 113.931 8.09831   2
 -11  -1   2 93.5852 7.16842   1
 -12   1   2 350.107 12.8817   1
  12  -1   2 311.293 12.5304   1
 -12  -1  -2 311.576 11.9134   1
 -12  -1   2 313.839 11.8513   1
 -12   1  -2 331.457 12.5170   1
  12  -1  -2 315.859 12.2266   1
  13  -1   2 61.5543 6.89521   1
 -13   1   2 76.3233 7.61702   1
 -13  -1  -2 71.2527 6.95172   1
 -13   1  -2 69.2758 7.28756   1
  13  -1  -2 71.0670 7.21849   1
 -13  -1   2 58.0321 6.50790   1
 -14  -1  -2 57.2600 6.86299   1
 -14   1   2 55.1037 7.01979   1
  14  -1   2 49.1844 6.81543   1
  14  -1  -2 63.6832 7.51841   1
 -14   1  -2 55.0470 7.34251   1
 -14  -1   2 64.5957 7.14399   1
  15  -1   2 -0.8021 4.75998   1
 -15   1   2 -2.1704 4.69977   1
 -15  -1  -2 4.70268 4.49784   1
 -15  -1   2 3.37870 4.54555   1
  15  -1  -2 4.21218 4.79649   1
 -15   1  -2 1.47991 5.01322   1
 -16  -1  -2 20.5355 5.71822   1
  16  -1   2 15.1943 5.65385   1
 -16  -1   2 30.2510 6.27066   1
  16  -1  -2 23.6772 6.33182   1
 -17  -1  -2 186.425 11.9925   1
  17  -1   2 186.502 12.2983   1
 -17  -1   2 204.153 12.3616   1
  17  -1  -2 194.243 12.6005   1
   0  -2  -2 774.654 14.4519   4
   0  -2   2 754.232 14.7424   4
   0  -2  -2 751.323 11.5503   2
   0  -2  -2 776.758 11.5143   2
   0   2  -2 773.936 14.1782   5
   0   2  -2 762.704 11.6214   3
   1  -2   2 19.3924 1.33374   2
   1  -2   2 19.3358 1.29409   2
   1   2  -2 19.3444 1.80970   3
  -1  -2  -2 18.3386 2.61767   4
  -1  -2  -2 19.3689 1.44356   2
   1  -2   2 18.1835 2.75764   4
  -1  -2  -2 18.0131 1.31010   2
   1   2  -2 15.4120 2.73959   5
  -1  -2   2 16.9020 2.70328   4
   1  -2  -2 16.1336 1.46384   2
   1  -2  -2 14.7483 2.51166   4
  -1   2  -2 12.4926 2.49350   5
   1  -2  -2 17.9045 1.50095   2
  -1  -2   2 18.0289 1.20298   2
  -1  -2   2 17.2952 1.17129   2
   2   2  -2 2270.58 35.4315   5
   2  -2   2 2349.60 34.3550   2
  -2   2   2 2364.48 35.1172   3
   2  -2   2 2298.17 33.3449   3
  -2  -2  -2 2299.44 34.6884   2
   2   2  -2 2345.66 35.3920   3
  -2  -2  -2 2325.73 34.1882   2
  -2  -2   2 2360.68 34.0455   2
   2  -2  -2 2304.54 34.4963   2
  -2  -2   2 2295.44 33.8793   2
   2  -2  -2 2324.00 33.4357   1
  -2   2  -2 2319.71 35.3683   5
   3  -2   2 1677.33 25.9090   1
  -3  -2  -2 1751.87 25.6780   1
   3  -2   2 1711.76 25.9358   3
   3  -2   2 1727.46 27.0248   2
  -3   2   2 1782.52 27.2290   3
   3   2  -2 1653.35 27.6577   3
  -3  -2  -2 1714.62 26.8203   2
   3   2  -2 1701.99 27.4167   5
   3  -2  -2 1760.77 27.0488   2
  -3  -2   2 1755.00 26.6145   2
   3  -2  -2 1736.61 26.1777   1
   3   2   2 1730.74 27.0010   5
  -3  -2   2 1736.98 25.2771   1
  -3   2  -2 1726.14 27.2609   5
  -4  -2  -2 99.6084 4.51660   2
  -4   2   2 96.9738 4.40329   3
   4  -2   2 98.9450 3.96971   1
   4   2  -2 98.8072 4.88862   5
   4   2  -2 103.176 4.93934   3
  -4  -2  -2 99.1552 3.78818   1
   4  -2   2 98.1307 4.49288   2
   4  -2   2 101.712 3.77932   3
  -4  -2   2 109.113 4.35764   2
   4  -2  -2 102.446 4.40530   3
   4   2   2 95.6642 4.24051   5
  -4  -2   2 100.740 3.53434   1
   4  -2  -2 97.2914 4.43468   2
  -4   2  -2 98.3577 4.60919   5
   4  -2  -2 103.155 3.92914   1
  -5   2   2 604.088 12.3181   3
   5  -2   2 590.118 11.6359   3
   5  -2   2 574.804 12.5234   2
  -5  -2  -2 602.744 11.5160   1
  -5  -2  -2 584.141 12.4589   2
   5  -2   2 572.382 11.7765   1
   5   2   2 608.783 11.3138   5
   5  -2  -2 606.097 12.2941   3
   5  -2  -2 587.616 12.5060   2
  -5  -2   2 578.786 12.1801   2
   5  -2  -2 587.134 11.8706   1
  -5   2  -2 604.299 11.6895   5
  -5  -2   2 621.254 11.3659   1
   6  -2   2 1283.44 23.6221   2
  -6  -2  -2 1327.85 22.4288   1
  -6  -2  -2 1283.03 23.4450   2
   6  -2   2 1334.54 22.7349   3
  -6  -2  -2 1287.99 23.4659   2
  -6   2   2 1309.39 23.4531   1
   6  -2   2 1307.84 22.7748   1
  -6   2   2 1290.64 23.1377   3
  -6   2  -2 1320.93 21.5118   5
   6  -2  -2 1351.30 23.6093   2
   6   2   2 1300.65 20.9495   5
   6  -2  -2 1323.81 22.7422   1
  -6  -2   2 1296.28 23.0965   2
  -6   2  -2 1300.04 23.7781   1
  -6  -2   2 1313.26 22.1435   1
   7  -2   2 129.290 5.96415   1
   7  -2   2 127.942 6.52769   2
  -7  -2  -2 129.277 5.70272   1
  -7  -2  -2 124.149 6.43201   2
  -7   2   2 126.457 6.08704   3
  -7   2   2 127.175 6.26500   1
  -7  -2   2 126.507 5.52908   1
  -7  -2   2 122.188 6.02363   2
   7  -2  -2 136.125 5.83118   1
   7   2   2 128.359 4.47900   5
  -7   2  -2 128.972 4.93601   5
   7  -2  -2 121.058 6.31192   2
  -7   2  -2 129.402 6.50416   1
  -8  -2  -2 324.569 9.42213   1
  -8  -2  -2 308.956 10.1186   2
   8  -2   2 309.637 10.2072   2
   8  -2   2 322.015 9.77758   1
  -8   2   2 304.510 9.66050   3
  -8  -2   2 297.155 8.97599   1
   8  -2  -2 306.306 9.40054   1
  -8  -2   2 306.240 9.78269   2
   8  -2  -2 322.194 10.1320   2
   9  -2   2 84.8174 6.28349   1
   9  -2   2 84.1900 6.61356   2
  -9  -2  -2 83.5373 6.60767   2
  -9   2   2 90.7828 6.21501   3
  -9  -2  -2 86.9847 5.89605   1
   9  -2  -2 82.2758 6.52491   2
   9  -2  -2 78.8686 5.81807   1
  -9  -2   2 76.9340 6.15001   2
  -9  -2   2 75.9015 5.54002   1
  10  -2   2 295.878 10.7332   1
  10  -2   2 332.606 11.6489   2
 -10   2   2 310.626 11.0409   3
 -10  -2  -2 311.230 10.4231   1
 -10  -2  -2 307.255 11.4376   2
 -10  -2   2 294.809 10.1313   1
  10  -2  -2 322.800 11.4280   2
  10  -2  -2 311.731 10.7953   1
 -10  -2   2 331.104 11.4584   2
  11  -2   2 623.520 16.9757   2
  11  -2   2 578.465 16.0537   1
 -11  -2  -2 580.123 16.6442   2
 -11  -2  -2 569.034 15.3075   1
 -11  -2   2 584.755 15.3525   1
  11  -2  -2 625.415 17.1329   2
 -11  -2   2 589.576 16.5990   2
  11  -2  -2 592.064 16.0532   1
  12  -2   2 6.03137 3.99628   1
 -12  -2  -2 -4.1202 3.27649   1
 -12  -2  -2 -2.1360 3.67530   2
 -12  -2   2 -0.0800 3.75072   2
  12  -2  -2 3.24771 3.69144   1
 -12  -2   2 -0.2081 3.35977   1
  13  -2   2 393.100 14.2015   1
 -13  -2  -2 412.380 13.7329   1
  13  -2  -2 426.597 14.4223   1
 -13  -2   2 421.217 13.7873   1
 -14  -2  -2 246.224 11.6096   1
  14  -2   2 249.368 11.9201   1
 -14  -2   2 242.847 11.3040   1
  14  -2  -2 242.950 11.8677   1
  15  -2   2 76.3291 8.16603   1
 -15  -2  -2 93.2848 8.29646   1
  15  -2  -2 93.1768 8.65622   1
 -15  -2   2 76.8923 7.76263   1
 -16  -2  -2 88.8481 8.45668   1
  16  -2   2 78.2295 8.57320   1
  16  -2  -2 90.4075 8.80728   1
 -16  -2   2 71.9227 7.93537   1
  17  -2   2 2.28940 5.18614   1
 -17  -2  -2 -6.4008 4.52365   1
  17  -2  -2 -1.3668 4.82528   1
 -17  -2   2 -1.2487 4.43522   1
   0  -3  -2 0.60491 2.30776   4
   0  -3  -2 0.04006 0.68535   2
   0   3  -2 -1.1664 0.93713   3
   0   3  -2 -0.6524 2.26240   5
   0  -3  -2 0.85473 0.72677   2
   0  -3   2 -0.7488 2.30896   4
  -1  -3  -2 0.58241 0.81541   2
  -1  -3  -2 -0.9165 0.84785   2
   1   3  -2 0.83437 1.30364   3
   1  -3   2 -0.7006 0.68075   2
  -1  -3  -2 -1.7229 2.14362   4
   1   3  -2 0.03881 2.23850   5
   1  -3   2 -1.5112 2.34878   4
   1  -3   2 1.59179 0.70182   2
   1  -3  -2 0.46741 1.03335   2
   1  -3  -2 0.36284 2.19807   4
   1  -3  -2 0.15207 1.00349   2
  -1   3  -2 -0.0285 2.20845   5
  -1  -3   2 -0.0133 2.29667   4
   2  -3   2 8.65014 1.43684   2
  -2  -3  -2 5.57033 1.36249   2
  -2  -3  -2 12.0192 2.81279   4
   2  -3   2 7.55372 2.87976   4
  -2  -3  -2 8.19218 1.34644   2
   2   3  -2 3.17914 2.49039   5
  -2   3   2 7.68775 1.78823   3
   2   3  -2 5.91402 1.85280   3
   2  -3   2 8.09927 1.40555   2
   2  -3  -2 7.42429 2.73969   4
  -2  -3   2 9.20020 2.75138   4
  -2  -3   2 7.96188 1.16371   2
   2  -3  -2 6.86132 1.57238   2
  -2  -3   2 8.27662 1.19300   2
  -2   3  -2 5.28796 2.51138   5
   2   3   2 7.64646 2.47112   5
   2  -3  -2 5.75397 1.45465   2
  -2  -3   2 7.62587 1.13496   2
   3   3  -2 197.434 7.10123   5
   3  -3   2 187.364 5.34528   2
  -3  -3  -2 192.993 5.02651   2
   3  -3   2 185.254 5.18423   2
  -3   3   2 190.750 5.33562   3
   3   3  -2 187.065 6.07726   3
  -3  -3  -2 188.955 5.03265   2
  -3  -3   2 195.752 4.91374   2
   3  -3  -2 187.873 5.21905   2
  -3  -3   2 192.503 7.56609   4
  -3  -3   2 183.785 4.65696   2
  -3   3  -2 190.547 6.84582   5
   3  -3  -2 193.288 5.39837   2
   3   3   2 184.760 6.78582   5
   4  -3   2 662.532 10.0333   1
  -4  -3  -2 649.237 12.4857   2
   4   3  -2 660.933 14.1169   5
   4  -3   2 672.889 12.9093   2
   4  -3   2 669.845 11.1608   3
  -4  -3  -2 662.876 12.6344   2
   4  -3   2 644.789 12.8490   2
  -4   3   2 668.582 12.5612   3
   4  -3   2 664.714 10.0452   1
   4   3  -2 642.147 13.6012   3
  -4  -3   2 656.503 12.1240   2
   4  -3  -2 655.131 12.9011   2
  -4   3  -2 674.471 14.0600   5
   4   3   2 652.802 13.5958   5
   4  -3  -2 670.704 10.8597   1
  -4  -3   2 667.436 12.3894   2
   4  -3  -2 650.474 10.6628   1
   5  -3   2 161.549 4.85121   3
  -5  -3  -2 152.933 3.58717   1
   5  -3   2 147.364 4.47973   1
   5   3  -2 155.196 6.58930   5
   5  -3   2 157.455 5.96977   2
  -5   3   2 150.876 5.58226   3
  -5  -3  -2 155.532 3.58266   1
  -5  -3  -2 142.917 5.67334   2
   5   3   2 152.857 6.16578   5
   5  -3  -2 153.993 4.64015   1
   5  -3  -2 156.922 5.93508   2
  -5  -3   2 149.191 5.49875   2
  -5   3  -2 157.899 6.41844   5
   6  -3   2 9.52175 2.26919   3
   6  -3   2 8.88719 2.20577   1
   6   3  -2 7.28754 2.83822   5
  -6  -3  -2 10.1779 2.70446   2
   6  -3   2 7.39755 2.74569   2
  -6  -3  -2 9.99348 1.87889   1
  -6   3   2 10.3453 2.58083   3
  -6  -3   2 9.42400 2.59403   2
   6  -3  -2 9.52985 2.17355   1
   6  -3  -2 5.58268 2.62375   2
  -6   3  -2 7.04847 2.65288   5
   6  -3  -2 8.86215 2.58249   3
  -6  -3   2 9.08679 1.73887   1
   6   3   2 9.87055 2.53009   5
  -7  -3  -2 459.677 12.0894   2
  -7   3   2 471.201 11.4637   3
   7  -3   2 461.404 10.7851   1
   7  -3   2 458.227 12.1772   2
  -7  -3  -2 476.912 10.0436   1
  -7  -3  -2 466.077 12.1530   2
  -7  -3   2 472.581 11.8267   2
   7  -3  -2 465.812 10.7785   1
  -7   3  -2 486.270 11.4119   5
   7  -3  -2 483.823 12.2894   2
   7   3   2 471.890 10.9154   5
  -7  -3   2 462.347 9.81597   1
   8  -3   2 -1.2318 2.37013   1
  -8  -3  -2 5.51864 2.95264   2
  -8  -3  -2 2.61159 2.28121   1
   8  -3   2 -3.1818 2.57869   2
  -8   3   2 -6.2879 2.27834   3
   8  -3  -2 -2.2267 2.20480   1
  -8  -3   2 -0.3611 2.60483   2
  -8  -3   2 -3.0576 1.99445   1
   8  -3  -2 -1.4207 2.67545   2
  -9   3   2 224.564 9.01414   3
  -9  -3  -2 195.333 9.05206   2
   9  -3   2 220.905 8.33365   1
   9  -3   2 203.598 9.20314   2
  -9  -3  -2 210.765 7.65583   1
   9  -3  -2 204.648 8.07344   1
   9  -3  -2 216.100 9.24048   2
  -9  -3   2 209.838 7.46912   1
  -9  -3   2 232.237 9.03289   2
  10  -3   2 140.935 7.56089   1
 -10  -3  -2 166.440 7.43436   1
 -10  -3  -2 160.692 8.72094   2
  10  -3   2 162.950 8.97549   2
 -10  -3   2 164.260 7.10632   1
  10  -3  -2 154.972 7.60995   1
  10  -3  -2 146.210 8.68049   2
 -10  -3   2 162.622 8.58960   2
  11  -3   2 88.9829 6.90313   1
 -11  -3  -2 80.6827 7.19525   2
 -11  -3  -2 71.7337 5.85868   1
  11  -3   2 91.2211 7.91033   2
  11  -3  -2 86.8223 7.55274   2
 -11  -3   2 81.7629 6.31911   1
  11  -3  -2 72.8235 6.21424   1
 -11  -3   2 67.7998 6.78721   2
 -12  -3  -2 323.272 12.8495   2
  12  -3   2 293.115 11.5417   1
  12  -3   2 306.110 12.9704   2
 -12  -3  -2 290.355 10.6985   1
 -12  -3   2 289.122 10.4897   1
  12  -3  -2 306.357 11.4603   1
 -12  -3   2 269.446 11.9322   2
  12  -3  -2 284.806 12.6058   2
 -13  -3  -2 42.9248 6.49085   2
 -13  -3  -2 55.1503 5.95998   1
  13  -3   2 50.6304 6.25304   1
 -13  -3   2 59.2980 7.13118   2
  13  -3  -2 44.3852 5.83122   1
 -13  -3   2 45.8694 5.49918   1
  14  -3   2 41.5777 6.39117   1
 -14  -3  -2 47.7448 5.87948   1
 -14  -3   2 51.9557 7.24683   2
  14  -3  -2 49.1998 6.49788   1
 -14  -3   2 43.0162 5.79702   1
 -15  -3  -2 -0.5841 3.87776   1
  15  -3   2 2.07947 4.64147   1
  15  -3  -2 0.97555 4.37892   1
 -15  -3   2 -3.3464 3.72642   1
  16  -3   2 16.1573 5.53509   1
 -16  -3  -2 24.7913 5.38400   1
  16  -3  -2 28.1962 6.35030   1
 -16  -3   2 23.1898 5.46267   1
   0  -4  -2 1.06787 0.87251   2
   0  -4   2 5.29490 3.14855   4
   0  -4  -2 4.19569 0.85535   2
   0   4   2 1.30065 2.50397   5
   0   4  -2 4.23011 2.74189   5
   0  -4  -2 2.65500 2.70092   4
   1  -4   2 150.129 7.55172   4
   1   4  -2 136.903 6.91239   5
  -1  -4  -2 144.114 3.00942   2
  -1  -4  -2 147.430 3.16023   2
  -1   4   2 147.212 6.97607   5
  -1  -4  -2 137.886 6.83626   4
   1  -4  -2 151.283 7.24056   4
  -1  -4   2 150.951 7.43871   4
   1   4   2 141.675 6.86247   5
   1  -4  -2 153.144 3.64586   2
   1  -4  -2 143.360 3.51180   2
  -1   4  -2 138.085 7.06312   5
  -2   4   2 0.79202 2.65350   5
  -2  -4  -2 0.09516 1.14467   2
   2  -4   2 0.29474 1.22402   2
   2  -4   2 3.65562 1.27845   2
   2   4  -2 -0.5029 2.62224   5
   2  -4   2 1.03550 2.84275   4
  -2  -4  -2 -1.2079 2.58090   4
  -2   4   2 1.72051 1.57586   3
  -2  -4  -2 3.82949 1.27934   2
   2  -4  -2 -0.6851 1.29846   2
  -2  -4   2 2.63059 0.94023   2
   2  -4  -2 -2.9819 2.50787   4
  -2  -4   2 1.33367 1.00045   2
  -2  -4   2 4.25364 2.95164   4
   2   4   2 3.07176 2.59822   5
  -2   4  -2 0.62702 2.59836   5
   2  -4  -2 -0.4981 1.32693   2
   3  -4   2 31.1053 2.55006   2
   3  -4   2 35.5990 2.73569   2
  -3   4   2 33.3138 4.12321   5
  -3  -4  -2 31.7019 4.43678   4
   3   4  -2 30.2846 3.21412   3
   3   4  -2 27.2620 3.89985   5
  -3  -4  -2 34.3043 2.75244   2
  -3  -4  -2 35.2104 2.58625   2
  -3  -4   2 29.6231 4.49189   4
  -3   4  -2 30.6080 4.02368   5
   3   4   2 30.2501 3.83468   5
  -3  -4   2 32.1028 2.41266   2
   3  -4  -2 32.7936 2.74382   2
  -3  -4   2 31.5679 2.53837   2
  -4  -4  -2 106.799 7.05414   4
   4   4  -2 112.576 6.62131   5
  -4  -4  -2 105.628 4.57239   2
   4  -4   2 118.286 4.93112   2
  -4   4   2 116.267 6.66520   5
   4  -4  -2 104.552 4.85541   2
   4   4   2 109.155 6.34107   5
  -4  -4   2 116.998 4.41924   2
  -4   4  -2 111.901 6.55202   5
  -4  -4   2 117.320 7.16332   4
  -5   4   2 3.73161 2.86211   5
   5   4  -2 11.1047 3.27519   5
   5  -4   2 5.17822 2.41142   2
  -5  -4  -2 4.71439 2.27224   2
  -5   4  -2 7.50037 3.02953   5
  -5  -4   2 7.13334 2.27526   2
  -5  -4   2 7.04543 3.66573   4
   5  -4  -2 7.82042 2.41844   2
   5   4   2 6.00250 2.89681   5
   6  -4   2 51.1554 4.54281   2
  -6  -4  -2 59.6260 4.84685   2
   6   4  -2 62.6146 5.40109   5
  -6   4   2 61.4937 5.19642   5
  -6  -4   2 54.7624 4.25739   2
  -6   4  -2 54.5898 5.05573   5
   6   4   2 57.5155 5.00944   5
   6  -4  -2 62.6411 5.03097   2
   7  -4   2 586.572 14.4272   2
   7  -4   2 594.052 10.5525   1
  -7   4   2 604.267 14.8508   5
   7   4  -2 601.922 14.8427   5
  -7  -4  -2 624.700 14.3275   2
  -7  -4  -2 563.653 13.9291   2
   7  -4  -2 610.642 11.0907   1
   7   4   2 608.393 14.3141   5
  -7   4  -2 575.063 14.3894   5
   7  -4  -2 584.561 14.3442   2
  -7  -4   2 575.106 13.7944   2
   8  -4   2 123.291 7.35026   2
  -8  -4  -2 127.718 7.27065   2
  -8   4   2 142.775 7.52456   5
   8  -4   2 127.586 5.14173   1
  -8  -4   2 116.150 6.72348   2
   8  -4  -2 139.178 5.34767   1
   8  -4  -2 127.752 7.47953   2
  -9  -4  -2 127.494 7.79089   2
  -9  -4  -2 141.487 4.67657   1
   9  -4   2 143.615 8.39624   2
   9  -4   2 137.598 6.12430   1
   9  -4  -2 143.259 8.23911   2
   9  -4  -2 142.799 6.28388   1
  -9  -4   2 146.268 4.19738   1
  -9  -4   2 136.660 7.57869   2
 -10  -4  -2 3.84280 2.44905   1
 -10  -4  -2 9.72243 3.88675   2
  10  -4   2 2.08743 3.72732   2
  10  -4   2 4.35831 3.13478   1
  10  -4  -2 5.42874 3.90837   2
 -10  -4   2 5.27843 3.58491   2
 -10  -4   2 6.67945 2.30654   1
  10  -4  -2 0.77442 2.79812   1
 -11  -4  -2 -1.1477 3.65841   2
  11  -4   2 10.3309 4.54176   2
  11  -4   2 4.89959 3.50475   1
 -11  -4  -2 3.96049 2.77763   1
  11  -4  -2 -2.8050 3.72241   2
 -11  -4   2 0.04540 3.59428   2
  11  -4  -2 -0.1508 3.06103   1
 -11  -4   2 2.82439 2.56241   1
  12  -4   2 292.551 10.6864   1
  12  -4   2 269.641 12.6854   2
 -12  -4  -2 275.616 12.3428   2
 -12  -4  -2 283.196 9.36853   1
 -12  -4   2 288.850 9.11307   1
 -12  -4   2 267.110 12.0383   2
  12  -4  -2 301.207 10.7088   1
  12  -4  -2 303.442 12.9906   2
  13  -4   2 251.511 12.8673   2
  13  -4   2 266.729 10.9236   1
 -13  -4  -2 256.606 12.4002   2
 -13  -4  -2 260.538 9.58779   1
  13  -4  -2 239.625 10.4744   1
 -13  -4   2 259.379 12.3945   2
 -13  -4   2 248.240 9.04005   1
  13  -4  -2 266.491 13.0968   2
 -14  -4  -2 6.62536 4.85396   2
 -14  -4  -2 5.12017 3.76325   1
  14  -4   2 -7.0590 3.83687   1
  14  -4  -2 3.81974 4.30541   1
 -14  -4   2 2.28963 4.87905   2
 -14  -4   2 3.37660 3.45642   1
 -15  -4  -2 809.826 23.5283   2
  15  -4   2 755.188 20.5530   1
 -15  -4  -2 785.497 18.6088   1
  15  -4  -2 767.598 20.3295   1
 -15  -4   2 773.059 18.2076   1
 -15  -4   2 756.314 23.0812   2
   0  -5   2 -0.6483 3.36113   4
   0   5   2 -0.0328 2.79203   5
   0  -5  -2 2.84927 3.35560   4
   0  -5  -2 1.19628 1.10332   2
   0   5  -2 2.57481 3.14400   5
   0  -5  -2 0.04432 1.05132   2
   1  -5   2 7.75430 3.73383   4
   1   5  -2 0.65495 3.04614   5
   1  -5   2 0.11135 0.92486   2
  -1  -5  -2 4.51797 1.12291   2
  -1  -5  -2 3.10349 1.23491   2
  -1  -5  -2 -4.9566 3.19636   4
  -1   5   2 3.91932 3.08317   5
   1  -5   2 1.91363 0.99848   2
   1  -5  -2 1.14834 1.34099   2
   1   5   2 5.94907 3.37012   5
  -1   5  -2 5.63639 3.32518   5
   1  -5  -2 -1.8701 3.06319   4
  -1  -5   2 3.62274 3.62323   4
   1  -5  -2 0.57301 1.33486   2
  -2  -5  -2 4.04657 3.50767   4
   2  -5   2 2.96044 1.51869   2
  -2  -5  -2 1.03533 1.31402   2
   2  -5   2 1.08400 1.48135   2
  -2   5   2 -2.0589 2.80648   5
  -2  -5  -2 2.33361 1.49476   2
   2   5  -2 0.87263 3.01025   5
   2  -5   2 -3.6252 3.09885   4
   2  -5  -2 2.39649 1.64918   2
  -2  -5   2 1.59321 1.10701   2
  -2  -5   2 1.57544 3.47695   4
  -2  -5   2 2.60078 1.10204   2
  -2  -5   2 1.29471 1.07304   2
   2   5   2 -1.2700 2.90466   5
   2  -5  -2 2.48475 3.46236   4
  -2   5  -2 2.25777 3.11533   5
   3   5  -2 115.221 7.60553   5
  -3  -5  -2 119.744 4.29921   2
   3  -5   2 114.768 4.68609   2
  -3  -5  -2 121.821 8.10254   4
  -3   5   2 139.722 7.91858   5
  -3  -5   2 118.176 4.02291   2
   3   5   2 114.451 7.63479   5
  -3   5  -2 110.649 7.57215   5
   3  -5  -2 125.469 4.83600   2
  -3  -5   2 123.553 8.28798   4
  -4   5   2 323.989 11.5550   5
  -4  -5  -2 357.188 8.45689   2
   4  -5   2 330.403 8.80882   2
  -4  -5  -2 332.370 12.3592   4
   4   5  -2 346.307 11.9764   5
  -4   5  -2 348.286 11.8450   5
   4  -5  -2 337.940 8.77444   2
   4   5   2 366.761 11.8574   5
  -4  -5   2 338.789 12.9419   4
  -4  -5   2 349.956 8.00659   2
   5  -5   2 117.534 5.88016   2
  -5  -5  -2 116.379 5.54231   2
   5   5  -2 109.399 7.66402   5
  -5  -5  -2 109.577 8.04392   4
  -5   5   2 118.365 7.70336   5
  -5   5  -2 121.599 7.76389   5
   5  -5  -2 122.436 5.85009   2
  -5  -5   2 104.237 8.40741   4
   5   5   2 117.288 7.74640   5
  -5  -5   2 112.871 5.17552   2
   6  -5   2 4.72129 2.85950   2
   6   5  -2 0.67264 3.31439   5
  -6  -5  -2 3.80021 4.09088   4
  -6   5   2 -4.1552 3.04779   5
  -6  -5  -2 3.32094 2.73336   2
   6  -5  -2 4.47384 2.77093   2
  -6  -5   2 -3.5008 3.64773   4
  -6   5  -2 7.11467 3.58689   5
  -6  -5   2 3.14549 2.41866   2
   6   5   2 -1.7116 3.08869   5
  -7  -5  -2 267.327 12.5082   4
  -7   5   2 291.744 11.0117   5
  -7  -5  -2 278.873 9.50845   2
   7   5  -2 277.151 11.0324   5
   7  -5   2 272.918 9.75338   2
  -7  -5  -2 252.849 9.23421   2
  -7   5  -2 285.314 10.9990   5
  -7  -5   2 288.650 12.7862   4
   7  -5  -2 286.353 9.78915   2
  -7  -5   2 274.945 9.05395   2
  -8   5   2 7.51489 3.76926   5
   8  -5   2 1.94513 3.16912   2
  -8  -5  -2 0.63247 3.06176   2
  -8  -5   2 2.66442 3.03313   2
   8  -5  -2 6.27518 3.48473   2
   9  -5   2 131.697 8.41791   2
  -9  -5  -2 139.988 8.34126   2
   9  -5  -2 130.115 8.40116   2
  -9  -5   2 137.649 7.73021   2
  10  -5   2 91.1511 7.89134   2
 -10  -5  -2 92.7399 7.40780   2
 -10  -5   2 95.4040 7.58276   2
  10  -5  -2 77.5936 7.14957   2
 -11  -5  -2 66.8637 6.78290   2
  11  -5   2 71.5068 7.50738   2
  11  -5  -2 67.6342 7.14615   2
 -11  -5   2 62.5316 6.74402   2
  12  -5   2 178.376 10.7951   2
 -12  -5  -2 156.271 10.1162   2
  12  -5  -2 163.972 10.7519   2
 -12  -5   2 178.769 10.5229   2
 -13  -5  -2 42.1017 6.70240   2
  13  -5   2 52.0318 7.40899   2
  13  -5  -2 43.2507 4.98514   1
  13  -5  -2 55.7617 7.37372   2
 -13  -5   2 41.5916 6.76735   2
  14  -5   2 31.4658 6.93139   2
 -14  -5  -2 45.9505 7.11200   2
  14  -5  -2 28.4426 6.95690   2
  14  -5  -2 41.7790 5.27719   1
 -14  -5   2 33.6379 6.21186   2
   0  -6  -2 282.300 11.9881   4
   0  -6  -2 262.402 5.56751   2
   0  -6   2 243.068 11.9321   4
   1  -6   2 9.24326 4.94412   4
  -1  -6  -2 12.5659 4.71030   4
   1  -6   2 15.4387 1.68119   2
  -1  -6  -2 11.9773 1.74067   2
  -1  -6   2 17.3695 5.12912   4
   1  -6  -2 16.4143 4.91275   4
   1  -6  -2 17.2623 2.00112   2
   2  -6   2 761.092 21.3700   4
  -2  -6  -2 745.747 20.7821   4
  -2  -6  -2 754.259 12.7428   2
   2  -6   2 747.171 13.2536   2
  -2  -6   2 759.085 12.0184   2
  -2  -6   2 723.255 20.8987   4
   2  -6  -2 729.765 13.4469   2
  -3  -6  -2 589.713 11.2147   2
   3  -6   2 582.688 11.8492   2
  -3  -6  -2 582.685 18.0640   4
  -3  -6   2 563.483 18.0394   4
   3  -6  -2 566.472 11.8668   2
  -3  -6   2 570.195 10.5780   2
  -4  -6  -2 38.2228 3.45248   2
   4  -6   2 43.3435 3.98404   2
  -4  -6  -2 26.7799 5.84081   4
  -4  -6   2 41.4661 3.32480   2
   4  -6  -2 44.6717 3.82377   2
  -4  -6   2 37.0020 6.17106   4
  -5  -6  -2 225.044 7.45774   2
   5  -6   2 215.039 7.89640   2
  -5  -6  -2 214.518 11.7976   4
  -5  -6   2 196.642 6.83397   2
   5  -6  -2 220.834 7.96255   2
  -5  -6   2 225.399 12.1187   4
  -6  -6  -2 484.464 12.4452   2
   6  -6   2 494.871 13.0132   2
  -6  -6  -2 528.341 17.8877   4
  -6  -6  -2 492.127 12.4729   2
  -6  -6   2 513.776 17.7427   4
  -6  -6   2 502.909 12.1490   2
   6  -6  -2 519.013 13.1154   2
  -7  -6  -2 59.4407 5.41299   2
  -7  -6  -2 70.2137 8.47055   4
   7  -6   2 56.9918 5.50587   2
  -7  -6   2 54.0485 4.79402   2
   7  -6  -2 60.0663 5.62858   2
  -7  -6   2 64.4241 8.09157   4
   8  -6   2 122.292 8.04003   2
  -8  -6  -2 115.588 10.2770   4
  -8  -6  -2 114.416 7.28738   2
  -8  -6   2 120.267 7.18985   2
  -8  -6   2 105.259 9.74778   4
   8  -6  -2 116.096 7.91529   2
  -9  -6  -2 21.6849 4.49582   2
  -9  -6  -2 33.4838 7.28546   4
   9  -6   2 22.2842 4.80248   2
   9  -6  -2 28.7281 5.09446   2
  -9  -6   2 36.1539 7.40394   4
  -9  -6   2 27.1248 4.53357   2
  10  -6   2 140.794 9.31886   2
 -10  -6  -2 135.600 11.8567   4
 -10  -6  -2 146.531 9.01610   2
  10  -6  -2 135.014 9.35483   2
 -10  -6   2 139.728 8.51881   2
 -10  -6   2 114.915 11.0835   4
 -11  -6  -2 284.099 12.2233   2
  11  -6   2 282.163 12.6476   2
 -11  -6   2 274.802 11.9475   2
 -11  -6   2 287.475 16.0818   4
  11  -6  -2 294.999 12.8767   2
  12  -6   2 -7.4685 4.09118   2
 -12  -6  -2 6.84947 4.67095   2
 -12  -6   2 -4.2853 6.01224   4
  12  -6  -2 -1.4169 4.30662   2
 -12  -6   2 3.18977 4.54142   2
   0  -7  -2 1.80803 1.69961   2
   0  -7   2 -2.0899 4.67799   4
   0  -7  -2 -2.2787 4.72512   4
   1  -7   2 3.40998 5.09172   4
  -1  -7  -2 2.95725 1.73779   2
  -1  -7  -2 14.7877 5.76003   4
   1  -7   2 -0.3618 1.66966   2
   1  -7  -2 -0.1335 1.85239   2
  -1  -7   2 1.91788 4.93970   4
   1  -7  -2 -0.2844 5.15614   4
  -2  -7  -2 5.10868 2.00345   2
   2  -7   2 7.11817 2.20352   2
  -2  -7  -2 8.70710 5.29917   4
  -2  -7   2 5.29933 5.26218   4
   2  -7  -2 2.87247 2.10298   2
  -3  -7  -2 69.4834 4.33777   2
  -3  -7  -2 66.1057 8.28622   4
   3  -7   2 64.5634 4.67815   2
  -3  -7   2 69.0915 3.62937   2
  -3  -7   2 72.7726 8.74125   4
   3  -7  -2 64.0535 4.60746   2
  -4  -7  -2 252.500 13.5854   4
   4  -7   2 253.743 8.20023   2
  -4  -7  -2 256.180 7.63933   2
  -4  -7   2 228.872 13.4317   4
   4  -7  -2 252.983 8.25872   2
  -4  -7   2 260.547 7.06441   2
  -5  -7  -2 63.2738 4.77532   2
   5  -7   2 55.1646 4.87868   2
  -5  -7  -2 51.9656 7.80516   4
  -5  -7  -2 58.1400 4.62064   2
   5  -7  -2 56.9070 4.98964   2
  -5  -7   2 56.8486 4.31723   2
  -5  -7   2 54.1176 7.99582   4
  -6  -7  -2 10.7446 6.03406   4
   6  -7   2 -1.7254 3.19678   2
  -6  -7  -2 10.4945 3.35113   2
  -6  -7   2 -1.3386 2.69803   2
  -6  -7   2 -0.1567 5.44406   4
   6  -7  -2 -1.7780 3.16507   2
   7  -7   2 202.769 9.24169   2
  -7  -7  -2 203.722 8.78819   2
  -7  -7  -2 207.045 13.2561   4
   7  -7  -2 197.617 9.18460   2
  -7  -7   2 218.007 13.4804   4
  -7  -7   2 193.142 8.13871   2
  -8  -7  -2 4.54610 3.47085   2
  -8  -7  -2 3.19100 5.87925   4
   8  -7   2 -0.6772 3.69874   2
  -8  -7   2 1.79662 3.36111   2
   8  -7  -2 2.59344 3.63617   2
  -8  -7   2 0.75009 5.92010   4
  -9  -7  -2 80.3522 10.2904   4
  -9  -7  -2 89.9721 6.99678   2
   9  -7   2 85.5685 7.36790   2
  -9  -7   2 97.1576 7.51490   2
  -9  -7   2 110.453 11.1185   4
   9  -7  -2 87.3519 7.52170   2
 -10  -7  -2 74.3969 10.6402   4
 -10  -7  -2 74.5443 6.94854   2
  10  -7   2 71.6913 7.27377   2
  10  -7  -2 64.2292 7.05963   2
 -10  -7   2 61.0223 9.57299   4
 -10  -7   2 58.2540 6.41622   2
   0  -8  -2 5.89218 5.72193   4
   0  -8  -2 1.78111 1.91226   2
   0  -8   2 5.48516 6.29464   4
  -1  -8  -2 54.5602 8.66626   4
  -1  -8  -2 52.1715 3.34610   2
  -1  -8   2 71.7463 9.54689   4
   1  -8  -2 48.1225 3.69941   2
   2  -8   2 -0.2905 2.10824   2
  -2  -8  -2 1.96470 2.09441   2
  -2  -8  -2 2.60167 5.68814   4
  -2  -8   2 1.50211 5.69309   4
   2  -8  -2 1.25379 2.31387   2
  -3  -8  -2 9.19321 6.30047   4
   3  -8   2 1.23021 2.58526   2
  -3  -8  -2 7.49634 2.56185   2
   3  -8  -2 6.74139 2.77562   2
  -3  -8   2 7.47853 2.03500   2
  -3  -8   2 -0.3822 5.40446   4
   4  -8   2 39.9995 4.19255   2
  -4  -8  -2 30.2803 7.80247   4
  -4  -8  -2 44.3200 3.97515   2
   4  -8  -2 39.1089 4.14190   2
  -4  -8   2 26.5129 7.80925   4
  -4  -8   2 43.9038 3.37400   2
  -5  -8  -2 -3.6960 2.69344   2
   5  -8   2 -1.7839 3.00474   2
  -5  -8  -2 6.70918 6.49832   4
   5  -8  -2 0.58664 2.85466   2
  -5  -8   2 -0.0806 2.48537   2
  -5  -8   2 2.87885 6.16023   4
  -6  -8  -2 24.5849 4.05590   2
  -6  -8  -2 39.3052 8.30811   4
   6  -8   2 28.5484 4.56976   2
  -6  -8   2 18.0257 7.09959   4
   6  -8  -2 27.5556 4.25952   2
  -6  -8   2 34.6925 4.04952   2
  -1   0   3 -0.1892 1.18487   3
  -2   0   3 119.552 4.17981   3
   2   0  -3 125.465 4.22621   3
   3   0   3 25.0472 2.67397   1
   3   0  -3 27.2596 2.74883   3
  -3   0   3 25.9136 2.61059   3
  -3   0   3 26.7058 2.49304   1
  -3   0  -3 30.1061 2.78990   1
  -3   0  -3 25.9309 2.76255   2
  -3   0   3 21.7996 2.30001   2
   4   0  -3 207.236 6.13826   2
   4   0   3 191.654 6.48033   1
  -4   0  -3 204.758 6.48530   2
   4   0  -3 208.535 6.22518   1
   4   0  -3 210.961 6.52093   3
  -4   0   3 215.706 6.29674   1
   4   0   3 219.513 6.46701   2
  -4   0   3 218.233 6.65030   3
  -4   0   3 208.093 6.17829   2
  -4   0  -3 208.367 6.52175   2
  -5   0  -3 46.8511 3.64636   1
   5   0  -3 34.9105 3.17764   1
  -5   0   3 37.3619 3.21044   2
   5   0  -3 33.4392 3.10734   2
   5   0   3 40.1462 3.63261   2
  -5   0   3 44.8057 3.58456   1
  -5   0   3 42.4239 3.63280   3
  -5   0  -3 44.5702 3.82079   2
   5   0  -3 35.3596 3.48638   3
   5   0   3 35.8100 3.59199   1
   6   0   3 247.126 7.88788   2
  -6   0  -3 241.054 7.71458   1
  -6   0   3 243.812 7.53644   1
   6   0   3 247.198 7.99717   1
   6   0  -3 249.838 7.64289   1
  -6   0   3 228.949 7.81068   3
  -6   0   3 229.781 7.47024   2
   6   0  -3 234.080 7.46518   2
  -7   0   3 71.6250 5.07928   2
  -7   0   3 67.7206 4.86792   1
   7   0  -3 64.6502 5.04459   2
   7   0  -3 63.2901 4.90476   1
  -7   0   3 75.0347 5.37640   3
   7   0   3 73.2704 5.17623   2
   7   0   3 61.3059 4.90550   1
  -7   0  -3 70.6749 5.41204   2
  -7   0  -3 72.6505 4.97446   1
   8   0   3 160.006 7.36362   2
  -8   0   3 168.039 7.31916   2
   8   0   3 160.065 7.45674   1
  -8   0   3 157.103 7.35672   3
   8   0  -3 163.739 7.18760   1
   8   0  -3 154.363 7.13852   2
  -8   0   3 155.170 6.88262   1
  -8   0  -3 154.247 7.37782   2
  -9   0   3 -0.9376 2.68422   3
   9   0   3 -2.7350 2.82839   1
   9   0  -3 0.70446 2.78261   1
  -9   0  -3 -0.5710 2.70387   2
  -9   0   3 0.55047 2.76810   1
  -9   0   3 0.71556 2.72471   2
  -9   0  -3 4.14426 3.03314   1
 -10   0   3 599.370 15.5324   1
 -10   0  -3 622.470 16.1115   1
 -10   0   3 600.682 16.1771   3
  10   0  -3 598.744 15.6619   1
  10   0   3 626.818 16.2642   1
  11   0  -3 505.952 14.7245   1
 -11   0   3 483.205 14.4115   1
  11   0   3 498.278 15.0025   1
 -11   0  -3 489.114 14.7122   1
  12   0   3 391.163 13.7862   1
 -12   0   3 373.941 13.0657   1
 -12   0  -3 366.888 13.3675   1
  12   0  -3 400.032 13.5492   1
 -13   0   3 74.9829 7.51276   1
 -13   0  -3 67.4103 7.36091   1
  13   0   3 64.4384 7.23555   1
  13   0  -3 64.1920 7.33222   1
 -14   0  -3 31.5767 6.09489   1
 -14   0   3 26.1973 5.68907   1
  14   0  -3 31.7741 6.13366   1
  14   0   3 26.6669 6.14997   1
 -15   0   3 9.48901 5.11475   1
  15   0   3 11.5957 5.65494   1
 -15   0  -3 9.97166 5.29612   1
  15   0  -3 7.05265 5.03411   1
  16   0  -3 40.7954 7.29264   1
 -16   0   3 34.7984 6.57599   1
  16   0   3 28.7547 6.84886   1
 -16   0  -3 24.3735 6.35990   1
 -17   0  -3 28.4907 6.69926   1
  17   0   3 21.5601 6.67654   1
 -17   0   3 22.0770 6.23255   1
  17   0  -3 13.8255 6.32234   1
   0  -1   3 800.662 12.5443   2
   0  -1  -3 789.019 12.7009   2
   0  -1   3 786.862 12.4794   3
   0  -1   3 808.099 13.8310   4
   0  -1  -3 789.046 12.6464   1
   1  -1   3 131.895 3.80587   1
   1  -1   3 134.871 3.74155   2
  -1  -1  -3 131.591 3.81682   1
   1  -1   3 138.396 4.59410   5
   1   1  -3 138.932 3.86796   3
  -1  -1  -3 133.677 3.78134   2
  -1  -1   3 132.171 3.58675   2
  -1  -1   3 137.560 4.27799   4
   1  -1  -3 138.466 3.85789   2
  -1   1  -3 136.345 4.72070   5
  -1  -1   3 137.333 3.53060   1
  -1  -1   3 138.223 4.87653   5
  -1  -1   3 134.083 3.90021   3
   1  -1  -3 138.984 3.68283   1
   2  -1   3 38.2818 2.64860   5
  -2   1   3 33.0599 2.50783   3
   2   1  -3 29.5033 2.42020   3
  -2  -1  -3 35.7129 2.44810   1
   2  -1   3 33.7826 2.40380   2
   2  -1   3 35.1221 2.49017   1
  -2  -1  -3 37.5271 2.94231   2
  -2  -1   3 32.0818 2.54527   3
  -2  -1   3 42.8978 3.09677   5
  -2   1  -3 30.4751 2.49129   5
  -2  -1   3 31.0198 2.22318   2
   2  -1  -3 34.9803 2.69432   1
  -2  -1   3 36.3697 2.50370   1
   2  -1  -3 37.9138 2.86910   2
   3  -1   3 81.9903 3.68223   5
   3  -1   3 84.0014 4.19716   1
   3  -1   3 79.7536 4.08980   2
   3   1  -3 87.5167 4.20006   3
  -3  -1  -3 87.8850 3.91202   1
  -3  -1  -3 84.7738 4.09054   2
  -3   1   3 92.0457 4.28175   3
  -3  -1   3 85.4731 4.30139   3
  -3  -1   3 85.8337 3.68579   1
  -3  -1   3 86.3812 4.33034   5
  -3  -1   3 86.9903 3.86391   2
   3  -1  -3 85.8546 4.07195   2
   3  -1  -3 79.6476 4.14131   3
  -3   1  -3 89.4368 3.79294   5
   3  -1  -3 95.3834 3.90701   1
  -4   1   3 557.762 11.4026   3
   4  -1   3 544.271 11.4041   2
   4   1  -3 548.344 11.6291   3
  -4  -1  -3 555.938 11.1574   1
  -4  -1  -3 568.145 11.4754   2
   4  -1   3 535.511 9.64673   5
   4  -1   3 542.823 11.3816   1
   4  -1  -3 549.742 11.0429   1
  -4  -1   3 542.385 11.0225   2
   4  -1  -3 567.771 11.2709   2
   4  -1  -3 565.659 11.4510   3
  -4  -1   3 551.802 11.7316   3
  -4   1  -3 552.297 9.94691   5
  -4  -1   3 539.258 10.7894   1
  -4  -1   3 569.688 10.8556   5
  -5   1   3 15.7920 2.66618   3
   5  -1   3 15.4029 2.83794   2
   5  -1   3 8.76990 2.56905   1
   5  -1   3 13.3593 2.54529   3
  -5  -1  -3 10.4432 2.33452   1
  -5   1   3 12.3575 2.67277   1
   5   1  -3 12.8230 2.74129   1
  -5  -1  -3 9.30252 2.62771   2
  -5  -1   3 12.6039 2.36579   1
   5  -1  -3 9.65214 2.42224   3
   5  -1  -3 8.97605 2.45639   2
   5  -1  -3 14.4334 2.56650   1
  -5   1  -3 10.3096 2.60993   1
  -5  -1   3 10.0950 2.36885   2
  -5  -1   3 7.70397 2.26282   5
  -5   1  -3 9.77302 1.75549   5
   5   1   3 12.7298 2.80419   1
  -5  -1   3 9.85396 2.65931   3
   6   1  -3 56.2215 4.50298   1
  -6  -1  -3 56.9345 4.26033   1
  -6  -1  -3 57.4634 4.50072   2
   6  -1   3 50.3728 4.08753   1
  -6   1   3 47.8972 4.14330   3
   6  -1   3 51.5961 4.19773   2
  -6  -1  -3 58.5759 4.43633   2
   6  -1   3 54.2582 4.02626   3
  -6   1   3 57.1326 4.51886   1
  -6  -1   3 58.0281 4.22623   1
  -6   1  -3 58.0712 4.48509   1
   6   1   3 55.3017 2.25952   5
  -6  -1   3 56.5990 4.46548   2
  -6  -1   3 64.1933 4.93284   3
  -6  -1   3 57.9637 3.69342   5
   6  -1  -3 47.5635 3.88843   1
   6  -1  -3 56.0314 4.35359   2
   6   1   3 49.7260 4.19798   1
  -7  -1  -3 7.56632 2.67360   1
  -7   1   3 6.95371 2.63591   3
  -7   1   3 6.63510 2.66050   1
  -7   1   3 6.78331 2.55559   2
   7  -1   3 3.69531 2.73022   1
  -7  -1  -3 5.27738 2.77270   2
   7   1  -3 7.70968 2.76376   1
   7  -1   3 10.5886 3.03095   2
   7   1   3 8.60491 3.03662   1
  -7  -1   3 5.51465 2.64399   3
  -7   1  -3 8.17160 2.82539   1
  -7   1  -3 6.57246 2.86756   2
  -7  -1   3 10.2879 2.89464   2
  -7  -1   3 6.40775 1.97179   5
  -7  -1   3 7.96491 2.52004   1
   7  -1  -3 2.42874 2.45112   1
   7  -1  -3 12.9912 2.94709   2
   8  -1   3 632.644 15.0254   1
  -8  -1  -3 622.699 15.1693   2
  -8   1   3 645.716 15.0709   1
  -8  -1  -3 634.162 14.8002   1
  -8   1   3 635.813 15.0303   3
   8   1  -3 652.408 15.0050   1
  -8   1  -3 663.383 15.3720   1
  -8  -1   3 610.539 15.3828   3
  -8  -1   3 620.308 14.4536   1
   8  -1  -3 613.778 14.6658   1
   8  -1  -3 642.411 15.0064   2
  -8  -1   3 632.365 14.9944   2
   8   1   3 662.821 15.4790   1
  -9   1   3 98.5248 6.69048   1
   9  -1   3 109.588 6.90384   1
  -9  -1  -3 98.9817 6.41781   1
   9  -1   3 108.174 6.97508   2
  -9   1   3 97.6341 6.55724   3
   9   1  -3 113.485 6.88951   1
  -9  -1   3 106.800 6.65660   2
  -9   1  -3 88.4094 6.68074   1
   9  -1  -3 91.7389 6.45642   2
  -9  -1   3 101.997 6.35094   1
   9   1   3 97.9011 6.80661   1
   9  -1  -3 94.9262 6.45360   1
 -10   1   3 7.97253 3.61391   1
  10  -1   3 7.16018 3.58832   1
 -10  -1  -3 1.88970 3.23239   2
  10  -1   3 5.34036 3.68980   2
  10   1  -3 -0.1984 3.28499   1
 -10  -1  -3 2.84767 3.23182   1
 -10   1   3 11.0359 3.58450   3
 -10   1  -3 8.89568 3.61981   1
 -10  -1   3 7.78867 3.33825   1
  10   1   3 13.3223 3.96334   1
 -10  -1   3 1.93811 3.21889   2
  10  -1  -3 6.38990 3.32279   1
 -11   1   3 18.4986 4.47361   1
 -11  -1  -3 15.6285 4.19029   1
  11  -1   3 6.08634 3.89351   1
 -11   1  -3 23.6346 4.87436   1
 -11  -1   3 17.7257 4.53145   2
 -11  -1   3 16.2535 4.26637   1
  11  -1  -3 15.1903 4.33110   1
  11   1   3 21.6489 4.70795   1
 -12   1   3 143.855 9.12110   1
  12  -1   3 156.549 9.61483   1
 -12  -1  -3 145.358 8.79737   1
 -12   1  -3 136.639 9.39437   1
  12  -1  -3 145.679 9.15322   1
 -12  -1   3 157.143 9.04840   1
 -13   1   3 128.384 9.17875   1
  13  -1   3 139.533 9.68112   1
 -13  -1  -3 134.793 8.86634   1
  13  -1  -3 119.147 8.87890   1
 -13  -1   3 121.113 8.68257   1
 -13   1  -3 111.936 8.82737   1
  14  -1   3 28.5906 5.99292   1
 -14  -1  -3 27.6526 5.63574   1
 -14   1   3 27.1921 6.03396   1
 -14  -1   3 19.4549 5.13247   1
 -14   1  -3 26.5438 6.07719   1
  14  -1  -3 20.1299 5.46366   1
 -15   1   3 22.1231 5.99550   1
  15  -1   3 28.3269 6.26336   1
 -15  -1  -3 44.4270 6.71945   1
  15  -1  -3 34.5865 6.23074   1
 -15  -1   3 27.2565 5.88237   1
 -16  -1  -3 5.52080 5.00442   1
  16  -1   3 8.67468 5.45767   1
 -16  -1   3 10.0596 4.90015   1
  16  -1  -3 7.26980 5.36697   1
 -17  -1  -3 0.12696 4.99150   1
  17  -1   3 -0.1552 5.06931   1
  17  -1  -3 -3.0174 5.05235   1
 -17  -1   3 6.22795 5.40057   1
   0   2  -3 -2.1661 2.09937   5
   0  -2   3 -1.2558 1.16943   2
   0  -2  -3 -1.5405 1.26041   2
   0  -2  -3 -0.2181 1.20983   2
   0  -2   3 -3.4226 2.05863   4
   0  -2  -3 0.79570 2.05055   4
   0  -2   3 -3.0088 0.98409   2
   1   2  -3 957.325 15.3429   3
   1  -2   3 958.197 15.0797   2
   1  -2   3 949.221 14.8929   2
  -1  -2  -3 949.438 17.2254   4
   1  -2   3 925.721 17.7676   4
   1   2  -3 969.967 17.0989   5
  -1  -2  -3 945.559 15.0325   2
  -1  -2   3 929.373 17.6005   4
  -1  -2   3 949.724 14.6869   2
  -1  -2   3 973.041 14.6954   2
   1  -2  -3 969.290 14.0812   1
   1  -2  -3 945.176 15.1494   2
   1  -2  -3 960.379 17.1960   4
  -1   2  -3 995.320 17.1360   5
  -1  -2   3 966.645 15.4859   3
  -2  -2  -3 3266.10 46.6520   1
   2  -2   3 3225.52 47.7363   2
   2   2  -3 3216.88 48.6611   5
  -2  -2  -3 3306.05 47.7777   2
   2   2  -3 3150.17 48.4913   3
   2  -2   3 3264.77 46.6612   1
   2  -2   3 3277.87 46.7663   3
  -2   2   3 3362.14 48.8647   3
   2  -2  -3 3188.75 47.8969   2
   2  -2  -3 3301.65 47.1692   1
  -2   2  -3 3218.12 48.2696   5
  -2  -2   3 3305.17 48.7970   3
  -2  -2   3 3275.97 52.1025   4
  -2  -2   3 3238.52 47.4888   2
   3  -2   3 1.92863 1.55827   1
   3   2  -3 -1.9724 2.08344   5
   3  -2   3 4.20493 1.82157   2
  -3  -2  -3 1.88437 1.69792   2
  -3  -2  -3 1.20462 1.43888   1
  -3   2   3 2.61285 1.78140   3
   3   2  -3 0.89054 1.83333   3
   3  -2   3 2.22325 1.38691   3
   3  -2  -3 0.85753 1.67050   2
   3  -2  -3 7.81780 1.68736   1
  -3  -2   3 2.24564 1.21212   1
  -3  -2   3 0.67500 1.51269   2
  -3  -2   3 2.48185 1.98539   3
  -3   2  -3 4.07279 2.16654   5
  -4  -2  -3 259.535 6.31226   1
   4  -2   3 264.535 6.52222   1
   4   2  -3 265.160 7.46817   3
  -4  -2  -3 265.968 7.11422   2
   4  -2   3 239.730 7.02275   2
   4  -2   3 249.762 6.12258   3
  -4   2   3 253.435 7.05991   3
   4  -2  -3 262.523 6.48245   1
   4  -2  -3 242.362 6.91568   2
   4  -2  -3 260.111 7.09296   3
  -4  -2   3 266.421 7.71206   3
  -4   2  -3 260.526 7.03838   5
  -4  -2   3 253.019 5.90287   1
  -4  -2   3 261.750 6.73790   2
  -5  -2  -3 245.121 6.66972   1
  -5   2   3 244.055 7.22062   3
   5  -2   3 247.951 6.65727   3
  -5  -2  -3 224.784 7.22874   2
   5  -2   3 243.783 7.44809   2
   5  -2   3 237.080 6.84153   1
   5  -2  -3 246.706 7.28896   2
   5  -2  -3 255.545 7.43390   3
  -5  -2   3 237.691 6.33093   1
  -5   2  -3 237.584 6.67630   5
   5   2   3 241.736 6.33003   5
  -5  -2   3 247.759 7.12839   2
  -5  -2   3 253.284 8.03132   3
   5  -2  -3 233.323 6.68704   1
  -6   2   3 560.582 12.6761   1
  -6   2   3 567.108 12.6465   3
   6  -2   3 558.255 12.9070   2
   6  -2   3 562.334 12.2771   1
  -6  -2  -3 558.797 12.8458   2
   6  -2   3 573.424 12.0427   3
  -6  -2  -3 554.978 11.9097   1
   6  -2  -3 575.256 12.7943   2
   6   2   3 574.052 10.7921   5
   6  -2  -3 551.888 12.1412   1
  -6   2  -3 548.684 11.2556   5
  -6   2  -3 533.132 12.7627   1
  -6  -2   3 544.922 12.4930   2
  -6  -2   3 578.012 11.6735   1
   7  -2   3 466.858 12.1852   2
  -7  -2  -3 487.321 12.1969   2
  -7   2   3 452.183 11.7626   1
  -7  -2  -3 470.230 12.0802   2
   7  -2   3 466.564 11.6219   1
  -7  -2  -3 452.313 11.1405   1
  -7   2   3 467.326 11.7660   3
  -7  -2   3 451.448 11.6660   2
   7  -2  -3 463.313 11.3314   1
   7   2   3 467.960 9.20303   5
  -7   2  -3 465.381 9.88044   5
  -7  -2   3 468.465 10.8544   1
   7  -2  -3 441.057 11.8420   2
   8  -2   3 388.841 11.7003   2
  -8   2   3 404.163 11.2617   3
   8  -2   3 390.402 11.1725   1
  -8  -2  -3 395.193 11.7098   2
  -8  -2  -3 399.956 10.6991   1
  -8  -2   3 398.883 11.3545   2
  -8  -2   3 400.821 10.4119   1
   8  -2  -3 383.912 11.4706   2
   8  -2  -3 397.672 10.8407   1
   9  -2   3 1.53428 3.16218   2
  -9  -2  -3 -0.0076 2.51890   1
  -9   2   3 5.15577 3.10014   3
   9  -2   3 4.59478 3.14270   1
  -9  -2  -3 -0.9489 3.00987   2
  -9  -2   3 1.00222 2.98160   2
   9  -2  -3 -4.4547 2.76519   2
  -9  -2   3 -0.6927 2.54647   1
   9  -2  -3 0.41826 2.66361   1
 -10  -2  -3 365.549 11.2649   1
 -10  -2  -3 339.379 12.2218   2
  10  -2   3 368.050 12.4991   2
 -10   2   3 352.212 11.6336   3
  10  -2   3 344.240 11.7713   1
  10  -2  -3 366.010 11.4057   1
 -10  -2   3 372.438 12.1045   2
 -10  -2   3 364.281 11.0539   1
  10  -2  -3 364.168 12.3342   2
  11  -2   3 12.1200 4.23716   2
 -11  -2  -3 4.32053 3.57439   1
 -11  -2  -3 10.8076 4.30955   2
  11  -2   3 7.99394 3.88871   1
 -11  -2   3 12.5845 3.73612   1
  11  -2  -3 9.23756 4.09124   2
  11  -2  -3 5.26677 3.57598   1
 -11  -2   3 8.72800 4.08502   2
 -12  -2  -3 24.8765 5.19080   2
 -12  -2  -3 10.5579 4.06985   1
  12  -2   3 22.2073 4.76930   1
  12  -2  -3 21.0267 4.76532   1
 -12  -2   3 15.5382 4.23529   1
 -12  -2   3 18.9447 4.94369   2
 -13  -2  -3 19.1064 4.71179   1
  13  -2   3 13.5139 4.84188   1
 -13  -2   3 18.3314 4.52591   1
  13  -2  -3 19.2635 4.73114   1
 -14  -2  -3 146.440 9.57626   1
  14  -2   3 156.508 10.3134   1
  14  -2  -3 152.765 9.86341   1
 -14  -2   3 154.299 9.50283   1
 -15  -2  -3 97.4431 8.53792   1
  15  -2   3 78.9881 8.15687   1
  15  -2  -3 72.7845 8.00961   1
 -15  -2   3 72.6465 7.48466   1
  16  -2   3 539.680 18.5266   1
 -16  -2  -3 518.597 17.2941   1
  16  -2  -3 481.353 17.6943   1
 -16  -2   3 518.560 17.0692   1
  17  -2   3 34.5651 6.92357   1
 -17  -2  -3 21.4345 5.93408   1
  17  -2  -3 43.4333 7.34461   1
 -17  -2   3 30.4827 6.25253   1
   0  -3  -3 510.207 11.9279   4
   0  -3   3 518.376 8.09834   2
   0  -3   3 509.961 12.5087   4
   0  -3  -3 509.601 8.72661   2
   0   3  -3 532.632 12.1959   5
   0   3  -3 516.558 8.20812   3
   0  -3  -3 508.990 8.80761   2
   0  -3   3 521.464 8.01502   2
  -1  -3  -3 94.3405 2.98627   2
   1   3  -3 93.2507 5.52769   5
  -1  -3  -3 92.2492 5.07306   4
   1  -3   3 93.1928 2.74337   2
   1  -3   3 92.5801 5.49062   4
  -1  -3  -3 94.1708 3.14078   2
   1  -3   3 96.6335 2.88679   2
   1   3  -3 89.6561 3.25759   3
  -1  -3   3 93.4487 2.45373   2
   1  -3  -3 95.9174 3.17092   2
  -1  -3   3 88.3718 5.29894   4
   1  -3  -3 93.5479 3.13854   2
  -1  -3   3 89.8118 2.35566   2
  -1   3  -3 93.4277 5.45324   5
   1  -3  -3 96.3652 5.19860   4
  -2  -3  -3 10.4539 2.79918   4
  -2  -3  -3 14.1417 1.72537   2
   2   3  -3 11.9208 1.95237   3
   2  -3   3 14.2913 1.78061   2
   2   3  -3 10.3654 2.76455   5
   2  -3   3 13.2979 3.09449   4
  -2   3   3 11.1596 2.04011   3
   2  -3   3 12.8563 1.69047   2
  -2  -3  -3 9.93835 1.75912   2
  -2   3  -3 9.73446 2.79153   5
  -2  -3   3 12.1901 1.50514   2
  -2  -3   3 14.7902 1.48792   2
  -2  -3   3 9.82696 2.85520   4
   2  -3  -3 15.4930 1.86192   2
   2  -3  -3 11.2717 1.79217   2
   3  -3   3 73.3644 3.67087   2
  -3  -3  -3 63.0239 3.37006   2
  -3  -3  -3 69.0880 3.56859   2
   3  -3   3 60.5547 3.41698   2
   3   3  -3 70.5878 5.06254   5
  -3   3   3 67.1867 3.86010   3
   3   3  -3 68.5821 3.95913   3
  -3  -3   3 68.0572 3.17349   2
   3  -3  -3 62.1166 3.56900   2
  -3  -3   3 73.0622 3.17241   2
   3  -3  -3 69.2528 3.57958   2
  -3  -3   3 66.9475 5.10979   4
  -3   3  -3 67.7317 4.93984   5
  -4  -3  -3 418.461 9.32895   2
  -4  -3  -3 422.398 9.37524   2
   4  -3   3 419.908 9.56487   2
   4   3  -3 410.762 10.8758   5
   4  -3   3 421.068 7.59962   3
   4  -3   3 417.443 7.12600   1
   4  -3   3 417.625 7.16739   1
   4   3  -3 417.963 10.0588   3
  -4   3   3 425.315 9.48853   3
   4   3   3 424.660 10.4049   5
  -4  -3   3 414.853 9.03487   2
  -4   3  -3 413.525 10.5604   5
   4  -3  -3 422.659 7.76589   1
   4  -3  -3 437.390 9.71824   2
   4  -3  -3 421.974 8.03398   1
  -4  -3   3 424.094 8.84987   2
   5   3  -3 14.6748 3.08256   5
  -5   3   3 5.00090 2.17693   3
  -5  -3  -3 5.87287 1.42761   1
   5  -3   3 6.18976 1.77412   3
  -5  -3  -3 8.16195 1.49963   1
   5  -3   3 9.31481 2.51522   2
   5  -3   3 8.05189 1.78292   1
  -5  -3  -3 6.94955 2.33652   2
  -5   3  -3 10.6816 2.75654   5
  -5  -3   3 7.67992 2.17889   2
   5   3   3 4.73311 2.37049   5
  -5  -3   3 8.89560 1.17914   1
   5  -3  -3 8.48352 1.89074   1
  -5  -3   3 7.69926 1.08040   1
   5  -3  -3 7.70365 2.31230   2
  -6   3   3 31.2563 3.43228   3
   6  -3   3 29.2304 2.92543   1
  -6  -3  -3 36.0507 2.77744   1
  -6  -3  -3 27.1432 3.42283   2
   6  -3   3 29.4291 3.57197   2
   6  -3  -3 30.5471 2.93134   1
  -6   3  -3 27.2786 3.45772   5
   6  -3  -3 30.2441 3.55793   2
  -6  -3   3 26.5202 3.17566   2
   6   3   3 26.2672 3.24925   5
  -6  -3   3 31.2648 2.36455   1
   7  -3   3 5.61867 2.99464   2
  -7   3   3 1.07307 2.47094   3
  -7  -3  -3 1.99884 2.64267   2
   7  -3   3 3.71639 2.28610   1
  -7  -3  -3 6.07591 2.18125   1
  -7  -3  -3 2.69446 2.72383   2
   7   3   3 5.87702 2.35604   5
   7  -3  -3 4.15381 2.88986   2
   7  -3  -3 4.62219 2.31480   1
  -7   3  -3 1.99337 2.47880   5
  -7  -3   3 4.64417 1.97502   1
  -7  -3   3 4.13479 2.59978   2
  -8   3   3 561.670 13.4936   3
   8  -3   3 526.374 13.9940   2
   8  -3   3 506.207 12.3966   1
  -8  -3  -3 515.792 13.7866   2
  -8  -3  -3 514.242 11.8561   1
  -8  -3  -3 532.212 13.7801   2
  -8  -3   3 541.973 13.7171   2
   8  -3  -3 529.035 12.4932   1
  -8  -3   3 524.968 11.6119   1
   8  -3  -3 534.209 13.8745   2
   9  -3   3 75.9499 5.84550   1
   9  -3   3 87.9509 6.91450   2
  -9  -3  -3 79.6819 5.46075   1
  -9  -3  -3 73.3785 6.28889   2
  -9   3   3 80.2949 6.15669   3
  -9  -3   3 84.2039 6.32791   2
   9  -3  -3 70.9842 5.64050   1
   9  -3  -3 80.1114 6.53512   2
  -9  -3   3 84.7542 5.17761   1
 -10  -3  -3 6.76398 3.12499   1
 -10  -3  -3 0.82937 3.53338   2
  10  -3   3 12.1281 4.18382   2
  10  -3   3 7.45516 3.42434   1
  10  -3  -3 9.19817 3.92384   2
  10  -3  -3 8.11878 3.28512   1
 -10  -3   3 10.8112 3.65636   2
 -10  -3   3 11.5255 3.19274   1
 -11  -3  -3 12.3321 4.35058   2
  11  -3   3 14.4071 4.52773   2
 -11  -3  -3 18.2003 4.08049   1
  11  -3   3 21.1297 4.44388   1
  11  -3  -3 7.43792 4.13797   2
 -11  -3   3 14.6626 4.37040   2
 -11  -3   3 14.6940 3.65378   1
  11  -3  -3 17.9819 4.10581   1
 -12  -3  -3 148.308 8.43222   1
  12  -3   3 141.103 8.88892   1
  12  -3   3 135.950 9.72377   2
 -12  -3  -3 151.055 9.62142   2
  12  -3  -3 151.850 9.77763   2
  12  -3  -3 144.030 8.57695   1
 -12  -3   3 127.933 7.85278   1
 -12  -3   3 129.087 9.24629   2
 -13  -3  -3 106.765 8.87444   2
  13  -3   3 92.5130 7.86511   1
 -13  -3  -3 104.955 7.93167   1
 -13  -3   3 103.897 8.70347   2
  13  -3  -3 117.281 8.59796   1
 -13  -3   3 100.884 7.75291   1
 -14  -3  -3 29.9076 5.45267   1
  14  -3   3 22.6078 5.49421   1
 -14  -3   3 16.9154 4.74320   1
 -14  -3   3 22.9129 5.93501   2
  14  -3  -3 23.0302 5.42176   1
 -15  -3  -3 29.9142 5.48918   1
  15  -3   3 31.5978 6.13543   1
 -15  -3   3 26.4157 5.37715   1
  15  -3  -3 31.5774 5.94507   1
  16  -3   3 -0.2525 4.61096   1
 -16  -3  -3 3.67546 4.41043   1
  16  -3  -3 3.57949 4.78472   1
 -16  -3   3 3.44257 4.34789   1
   0   4  -3 -1.4551 2.58592   5
   0  -4   3 -2.5489 2.54121   4
   0  -4  -3 -1.6445 1.10748   2
   0  -4  -3 -0.0089 1.19936   2
   0  -4  -3 -0.9344 2.71659   4
   1  -4   3 7.34495 1.26659   2
  -1  -4  -3 7.22170 1.47493   2
   1  -4   3 6.44217 1.20962   2
  -1  -4  -3 10.2107 1.42052   2
   1  -4   3 6.23399 3.06006   4
  -1  -4  -3 4.15809 2.86353   4
   1   4  -3 3.25595 2.76774   5
   1  -4  -3 10.6189 1.61286   2
  -1  -4   3 3.94264 2.94471   4
   1  -4  -3 6.81633 1.46194   2
  -1   4  -3 7.55635 2.98300   5
   1   4   3 6.10645 2.89734   5
   1  -4  -3 8.69351 3.09622   4
  -2  -4  -3 46.0925 2.84769   2
  -2   4   3 44.8821 3.45399   3
  -2  -4  -3 45.3563 4.73560   4
  -2  -4  -3 47.0509 2.70189   2
   2  -4   3 46.9497 2.84779   2
   2  -4   3 46.5135 4.99000   4
   2   4  -3 40.8844 4.58231   5
   2  -4   3 45.8285 2.72612   2
  -2  -4   3 44.8201 2.29357   2
  -2  -4   3 44.8500 2.34309   2
   2   4   3 42.0583 4.27141   5
   2  -4  -3 46.1250 3.00090   2
   2  -4  -3 50.4507 4.88217   4
  -2  -4   3 38.7526 4.64073   4
  -2   4  -3 44.0187 4.59897   5
   2  -4  -3 42.3096 3.05045   2
   3  -4   3 15.3605 2.20103   2
  -3  -4  -3 14.7053 2.08393   2
  -3  -4  -3 19.2608 2.33455   2
  -3   4   3 16.9015 2.38493   3
   3   4  -3 17.3110 3.46773   5
  -3  -4  -3 15.6034 3.73783   4
  -3   4  -3 16.6221 3.32858   5
   3   4   3 16.4878 3.34292   5
   3  -4  -3 16.7482 2.33553   2
  -3  -4   3 14.7522 1.96247   2
  -3  -4   3 17.6858 1.98027   2
  -3  -4   3 15.4794 3.69764   4
  -4  -4  -3 109.758 4.78453   2
  -4  -4  -3 101.315 6.90078   4
   4   4  -3 121.747 6.86456   5
   4  -4   3 107.447 4.98711   2
  -4  -4   3 112.555 7.12509   4
   4   4   3 112.256 6.31923   5
  -4   4  -3 117.837 6.76203   5
   4  -4  -3 117.055 5.15343   2
  -4  -4   3 111.778 4.44440   2
   5  -4   3 27.3962 3.31642   2
  -5  -4  -3 26.6788 3.18697   2
   5   4  -3 23.5512 3.98797   5
  -5  -4   3 27.9063 3.06503   2
   5   4   3 33.6714 4.02115   5
  -5  -4   3 24.3653 4.65858   4
   5  -4  -3 25.9968 3.27969   2
  -5   4  -3 32.9841 4.19650   5
  -6  -4  -3 128.125 6.17045   2
   6  -4   3 125.603 6.38165   2
   6   4  -3 134.653 7.57640   5
   6   4   3 139.008 6.94678   5
   6  -4  -3 137.222 3.21772   1
  -6  -4   3 124.869 5.74955   2
  -6   4  -3 126.389 7.02921   5
   6  -4  -3 121.992 6.34469   2
   7  -4   3 43.6663 2.89126   1
   7   4  -3 48.5484 5.19215   5
  -7  -4  -3 47.0197 4.68023   2
   7  -4   3 50.9506 5.00088   2
   7   4   3 49.1050 4.76520   5
  -7  -4   3 46.2967 4.38683   2
   7  -4  -3 43.2066 3.34816   1
  -7   4  -3 51.8403 5.04606   5
   7  -4  -3 46.9348 4.69803   2
  -8  -4  -3 99.5113 6.76112   2
  -8  -4  -3 91.4682 2.85093   1
   8  -4   3 94.1261 6.78905   2
  -8  -4  -3 92.8197 6.67826   2
   8  -4   3 91.9914 4.73575   1
  -8   4   3 100.106 6.98531   5
   8  -4  -3 94.2230 4.80350   1
   8  -4  -3 98.3818 6.92131   2
  -8  -4   3 90.8870 6.19564   2
  -9  -4  -3 -1.4462 3.25602   2
   9  -4   3 1.91183 2.56693   1
  -9  -4  -3 3.42540 2.07201   1
   9  -4   3 -0.4915 3.24109   2
   9  -4  -3 0.21501 2.41178   1
  -9  -4   3 3.41321 1.70039   1
   9  -4  -3 -3.8409 3.11412   2
  -9  -4   3 0.95527 2.99290   2
  10  -4   3 366.089 10.7564   1
 -10  -4  -3 390.716 13.2860   2
 -10  -4  -3 390.681 9.40290   1
  10  -4   3 379.773 13.3923   2
 -10  -4   3 370.480 8.74151   1
  10  -4  -3 391.608 11.0687   1
 -10  -4   3 392.032 12.8507   2
  10  -4  -3 381.803 13.3069   2
  11  -4   3 331.301 13.0752   2
 -11  -4  -3 307.816 12.5043   2
  11  -4   3 344.804 10.8651   1
 -11  -4  -3 309.929 9.25765   1
  11  -4  -3 319.560 12.8366   2
 -11  -4   3 322.974 12.3761   2
 -11  -4   3 329.705 8.93447   1
  11  -4  -3 317.751 10.6324   1
  12  -4   3 253.851 10.1645   1
 -12  -4  -3 268.387 12.2520   2
  12  -4   3 255.508 12.4245   2
 -12  -4  -3 267.287 9.10667   1
  12  -4  -3 276.994 12.5091   2
  12  -4  -3 254.295 10.1201   1
 -12  -4   3 239.257 11.6636   2
 -12  -4   3 262.161 8.71176   1
 -13  -4  -3 55.7842 7.30824   2
  13  -4   3 50.5949 5.96131   1
 -13  -4  -3 51.0183 5.23182   1
  13  -4   3 51.0103 7.18958   2
  13  -4  -3 47.8665 5.77572   1
  13  -4  -3 45.1984 6.92208   2
 -13  -4   3 37.8897 4.56296   1
 -13  -4   3 52.0289 6.81328   2
 -14  -4  -3 25.0025 6.15412   2
 -14  -4  -3 19.7007 4.45652   1
  14  -4   3 19.5533 5.29162   1
  14  -4  -3 14.5151 4.64158   1
 -14  -4   3 20.3185 4.34808   1
 -14  -4   3 29.6013 6.09401   2
  15  -4   3 16.1665 5.37769   1
 -15  -4  -3 4.86232 4.13321   1
 -15  -4  -3 6.90957 5.74586   2
 -15  -4   3 6.43530 3.99737   1
  15  -4  -3 10.7508 4.65815   1
 -15  -4   3 3.37747 5.25346   2
   0   5  -3 280.006 10.6594   5
   0  -5  -3 290.981 11.0271   4
   0  -5   3 284.085 11.3307   4
   0  -5  -3 276.558 6.00753   2
   0  -5  -3 290.937 6.06404   2
   0   5   3 286.816 10.7265   5
   1  -5   3 57.4761 2.73040   2
  -1  -5  -3 51.5836 5.78077   4
   1   5  -3 56.5404 5.66904   5
  -1   5   3 53.0480 5.53345   5
   1  -5   3 50.8245 5.85475   4
  -1  -5  -3 54.4946 3.04072   2
  -1  -5  -3 56.6710 2.84278   2
   1  -5   3 58.3217 2.60251   2
  -1  -5   3 60.6407 6.21083   4
  -1   5  -3 52.0947 5.55878   5
   1   5   3 53.7458 5.51994   5
   1  -5  -3 55.5199 3.03743   2
   1  -5  -3 50.1308 5.61789   4
  -2  -5  -3 24.4889 4.65466   4
   2   5  -3 18.2080 4.09719   5
  -2   5   3 12.9463 3.83619   5
   2  -5   3 19.2131 4.62255   4
   2  -5   3 17.9764 2.15376   2
  -2  -5  -3 22.0241 2.17553   2
  -2  -5   3 14.3667 1.60205   2
  -2  -5   3 14.6567 4.21874   4
  -2  -5   3 20.4322 1.74711   2
   2   5   3 10.8702 3.62563   5
   2  -5  -3 17.2094 2.32934   2
   2  -5  -3 16.4593 4.25184   4
  -2   5  -3 16.9961 4.05723   5
   3   5  -3 34.9939 4.85259   5
  -3  -5  -3 34.7547 2.82033   2
  -3  -5  -3 30.4521 5.02241   4
  -3   5   3 33.0932 4.81550   5
   3  -5   3 32.1506 2.98608   2
   3  -5  -3 33.3653 3.11056   2
  -3  -5   3 34.7635 2.81397   2
   3   5   3 38.5591 4.81804   5
  -3   5  -3 27.0714 4.60876   5
  -3  -5   3 26.3895 4.81902   4
  -4   5   3 226.219 9.99678   5
  -4  -5  -3 231.101 6.91010   2
  -4  -5  -3 252.770 10.8597   4
   4   5  -3 248.614 10.2809   5
   4  -5   3 223.205 7.22494   2
  -4  -5   3 241.245 6.55751   2
  -4   5  -3 227.459 10.0297   5
  -4  -5   3 245.863 11.1035   4
   4  -5  -3 232.341 7.34745   2
   4   5   3 228.130 9.67717   5
   5  -5   3 5.48949 2.62620   2
   5   5  -3 9.56967 3.81488   5
  -5  -5  -3 3.44980 2.46717   2
  -5   5   3 3.40060 3.55429   5
  -5  -5  -3 3.75563 4.06620   4
   5  -5  -3 4.79384 2.63171   2
  -5  -5   3 6.14088 2.33293   2
   5   5   3 4.12025 3.38638   5
  -5   5  -3 1.18008 3.29335   5
  -5  -5   3 9.22638 4.34934   4
   6  -5   3 38.3809 4.36438   2
  -6  -5  -3 28.5779 5.58043   4
   6   5  -3 33.4459 5.28507   5
  -6  -5  -3 33.7665 3.89617   2
  -6   5   3 48.6310 5.61592   5
  -6   5  -3 36.8208 5.11210   5
   6   5   3 43.2985 5.14040   5
  -6  -5   3 32.4834 5.79680   4
   6  -5  -3 36.9698 4.20591   2
  -6  -5   3 34.4852 3.71900   2
  -7  -5  -3 5.57172 4.69162   4
   7   5  -3 1.83455 3.93582   5
  -7  -5  -3 6.53392 3.04392   2
  -7  -5  -3 2.23765 2.76628   2
  -7   5   3 6.63366 3.74113   5
   7  -5   3 3.38688 3.17851   2
  -7  -5   3 4.98886 2.80118   2
  -7  -5   3 5.16453 4.42546   4
  -7   5  -3 5.70278 3.61307   5
   7  -5  -3 6.35819 3.21664   2
  -8  -5  -3 304.113 10.5770   2
  -8   5   3 337.628 11.9845   5
   8  -5   3 324.612 11.2531   2
  -8  -5  -3 303.414 10.6855   2
  -8  -5   3 312.388 10.4797   2
   8  -5  -3 320.864 11.2161   2
  -8  -5   3 290.004 13.2634   4
   9  -5   3 51.4766 5.76744   2
  -9  -5  -3 59.3255 6.01548   2
  -9  -5   3 53.2404 5.49157   2
   9  -5  -3 54.9398 5.96979   2
 -10  -5  -3 6.82410 3.97329   2
  10  -5   3 2.19669 4.09085   2
 -10  -5   3 2.83134 3.75132   2
  10  -5  -3 8.53753 4.32286   2
  11  -5   3 3.21253 4.51304   2
 -11  -5  -3 10.5149 4.51026   2
  11  -5  -3 9.07149 4.56579   2
 -11  -5   3 7.96161 4.26456   2
  12  -5   3 76.0265 7.77880   2
 -12  -5  -3 79.4317 7.93864   2
  12  -5  -3 79.7998 5.93196   1
  12  -5  -3 78.7723 8.09308   2
 -12  -5   3 79.2348 7.79278   2
 -13  -5  -3 79.8575 8.46950   2
  13  -5   3 76.8246 8.35078   2
  13  -5  -3 70.7344 8.27528   2
  13  -5  -3 84.5448 6.81453   1
 -13  -5   3 76.7109 8.18804   2
  14  -5   3 17.2998 6.20782   2
 -14  -5  -3 12.8426 5.57604   2
 -14  -5   3 11.8592 5.38647   2
  14  -5  -3 15.2775 4.45003   1
  14  -5  -3 11.1326 5.69327   2
   0  -6  -3 0.58437 1.59406   2
   0  -6   3 4.80150 4.41317   4
   0  -6  -3 2.17994 4.10876   4
   1  -6   3 303.957 13.1943   4
  -1  -6  -3 300.711 6.72885   2
  -1  -6  -3 318.944 12.9736   4
   1  -6   3 303.029 6.35096   2
   1  -6  -3 301.032 7.06510   2
   1  -6  -3 306.984 12.7622   4
  -1  -6   3 283.924 12.8915   4
  -2  -6  -3 1100.85 26.3045   4
   2  -6   3 1078.90 18.2942   2
   2  -6   3 1118.38 27.0043   4
  -2  -6  -3 1088.49 18.1134   2
  -2  -6   3 1079.87 26.5245   4
   2  -6  -3 1073.41 18.7025   2
  -2  -6   3 1086.36 17.1682   2
  -3  -6  -3 1.86261 4.37137   4
  -3  -6  -3 0.67242 2.03766   2
   3  -6   3 3.13621 2.23697   2
  -3  -6   3 -1.3559 4.13338   4
  -3  -6   3 0.94414 1.78769   2
   3  -6  -3 -0.0420 2.15656   2
  -4  -6  -3 127.444 9.53403   4
  -4  -6  -3 104.955 5.36805   2
   4  -6   3 100.833 5.60608   2
   4  -6  -3 109.969 5.71322   2
  -4  -6   3 108.554 4.72676   2
  -4  -6   3 123.256 9.58525   4
  -5  -6  -3 84.2644 5.49880   2
   5  -6   3 103.518 6.10722   2
  -5  -6  -3 90.3712 8.70197   4
  -5  -6   3 94.0716 5.07673   2
  -5  -6   3 108.911 9.13658   4
   5  -6  -3 87.0291 5.75253   2
  -6  -6  -3 196.636 8.03099   2
  -6  -6  -3 222.802 12.0958   4
   6  -6   3 201.318 8.47166   2
  -6  -6   3 194.100 11.9185   4
   6  -6  -3 202.112 8.33092   2
  -6  -6   3 216.676 7.67794   2
   7  -6   3 202.284 8.99819   2
  -7  -6  -3 198.217 12.1818   4
  -7  -6  -3 195.879 8.51551   2
  -7  -6  -3 205.066 8.56399   2
  -7  -6   3 197.922 8.08765   2
  -7  -6   3 198.030 12.3129   4
   7  -6  -3 195.775 8.82547   2
   8  -6   3 169.155 8.79979   2
  -8  -6  -3 157.604 11.5735   4
  -8  -6  -3 163.384 8.47063   2
   8  -6  -3 169.516 8.85028   2
  -8  -6   3 158.042 8.13578   2
  -8  -6   3 152.879 11.0647   4
  -9  -6  -3 -12.059 4.86772   4
  -9  -6  -3 -0.0437 3.55715   2
   9  -6   3 4.86367 3.93479   2
  -9  -6   3 -2.4579 5.02963   4
   9  -6  -3 3.95070 4.02579   2
  -9  -6   3 2.51796 3.40819   2
 -10  -6  -3 145.213 9.03932   2
 -10  -6  -3 173.111 13.0473   4
  10  -6   3 128.709 9.36068   2
 -10  -6   3 143.512 11.4431   4
 -10  -6   3 150.786 9.01046   2
  10  -6  -3 140.418 9.53314   2
 -11  -6  -3 6.74123 4.39266   2
 -11  -6  -3 1.72162 6.59170   4
  11  -6   3 5.86583 4.60679   2
  11  -6  -3 7.93847 4.62257   2
 -11  -6   3 10.9482 4.35342   2
 -11  -6   3 6.08470 5.82562   4
  12  -6   3 10.5436 5.26490   2
 -12  -6  -3 17.9008 5.29622   2
 -12  -6   3 12.9621 5.09598   2
  12  -6  -3 17.0906 5.59698   2
 -12  -6   3 13.0609 7.06539   4
   0  -7  -3 189.394 5.44452   2
   0  -7  -3 181.239 11.7960   4
   0  -7   3 181.817 4.44075   2
   0  -7   3 174.377 11.6905   4
  -1  -7  -3 33.9318 2.81042   2
   1  -7   3 32.2650 2.63155   2
  -1  -7  -3 36.4057 6.83848   4
   1  -7   3 25.5630 6.33654   4
   1  -7  -3 28.1740 6.58359   4
   1  -7  -3 34.0620 3.09757   2
  -1  -7   3 35.1163 7.00678   4
  -2  -7  -3 7.57217 5.29368   4
   2  -7   3 5.63441 2.30734   2
  -2  -7  -3 0.24841 2.08646   2
  -2  -7   3 5.66089 5.21190   4
  -2  -7   3 2.37145 1.62362   2
   2  -7  -3 4.31092 2.34040   2
   3  -7   3 34.6596 3.58599   2
  -3  -7  -3 21.5040 6.34371   4
  -3  -7  -3 26.4711 3.16380   2
  -3  -7   3 31.4737 2.69736   2
   3  -7  -3 32.1517 3.50850   2
  -3  -7   3 24.0185 6.31807   4
   4  -7   3 170.820 7.08607   2
  -4  -7  -3 155.812 11.1743   4
  -4  -7  -3 164.521 6.58961   2
  -4  -7   3 168.640 5.90326   2
   4  -7  -3 161.735 6.86816   2
  -4  -7   3 176.592 12.1616   4
   5  -7   3 3.49696 3.20554   2
  -5  -7  -3 2.77520 3.07125   2
  -5  -7  -3 9.03341 5.32839   4
  -5  -7   3 -2.6232 5.09947   4
  -5  -7   3 -1.7318 2.48928   2
   5  -7  -3 -1.2619 2.80582   2
  -6  -7  -3 16.6265 3.59849   2
  -6  -7  -3 5.94896 3.21006   2
   6  -7   3 2.41915 3.27757   2
  -6  -7  -3 7.44050 6.03836   4
   6  -7  -3 8.96336 3.40476   2
  -6  -7   3 4.38476 3.09031   2
  -6  -7   3 4.18612 5.24998   4
  -7  -7  -3 2.33559 3.38704   2
  -7  -7  -3 3.94277 5.65940   4
   7  -7   3 2.78253 3.51807   2
  -7  -7   3 5.03879 3.06863   2
  -7  -7   3 10.1946 5.76120   4
   7  -7  -3 -0.5145 3.33164   2
  -8  -7  -3 223.986 9.87883   2
  -8  -7  -3 232.661 14.4277   4
   8  -7   3 224.724 10.3196   2
   8  -7  -3 219.221 10.1737   2
  -8  -7   3 242.005 14.2463   4
  -8  -7   3 231.269 9.56715   2
  -9  -7  -3 31.6456 5.34800   2
   9  -7   3 33.8460 5.39950   2
  -9  -7  -3 27.2691 7.73250   4
  -9  -7   3 22.0649 4.40983   2
  -9  -7   3 24.0372 7.34972   4
   9  -7  -3 40.7852 5.76871   2
  10  -7   3 -0.4166 4.12982   2
 -10  -7  -3 1.36941 3.89633   2
 -10  -7  -3 1.63034 6.29854   4
  10  -7  -3 0.42585 4.34695   2
 -10  -7   3 0.23622 3.87485   2
 -10  -7   3 7.21269 6.65787   4
   0  -8  -3 -14.375 4.83729   4
   0  -8  -3 -0.7228 2.09060   2
   0  -8   3 -6.3141 5.38837   4
   1  -8   3 5.75651 2.10105   2
  -1  -8  -3 10.1641 6.12489   4
  -1  -8  -3 10.1482 2.34632   2
  -1  -8   3 4.66840 5.91990   4
   1  -8  -3 1.87895 2.23331   2
   2  -8   3 4.13369 2.44001   2
  -2  -8  -3 10.4463 2.59759   2
  -2  -8  -3 8.87462 6.27995   4
   2  -8  -3 2.37757 2.54156   2
  -2  -8   3 8.82952 6.32171   4
  -3  -8  -3 1.93433 2.55020   2
   3  -8   3 10.4796 3.04505   2
  -3  -8  -3 7.56409 6.02817   4
  -3  -8   3 3.77745 2.02680   2
  -3  -8   3 8.46395 6.37535   4
   3  -8  -3 1.86274 2.79173   2
  -4  -8  -3 33.0843 7.72113   4
  -4  -8  -3 44.4550 4.22653   2
   4  -8   3 34.5020 4.19779   2
  -4  -8   3 47.7469 3.61711   2
  -4  -8   3 46.5373 8.53458   4
   4  -8  -3 46.7371 4.52549   2
  -5  -8  -3 12.8239 3.57033   2
  -5  -8  -3 8.04594 6.71161   4
   5  -8   3 10.7686 3.51743   2
   5  -8  -3 10.2130 3.52729   2
  -5  -8   3 17.9038 7.41606   4
  -5  -8   3 10.9856 2.95182   2
   6  -8   3 36.7775 4.81881   2
  -6  -8  -3 38.7869 4.68695   2
  -6  -8  -3 30.3499 7.99438   4
  -6  -8   3 42.4864 4.34126   2
  -6  -8   3 30.3106 7.73605   4
   6  -8  -3 42.5713 5.01791   2
  -1   0   4 58.2621 3.22933   3
   2   0  -4 207.842 5.79404   3
  -2   0   4 219.587 5.59393   1
  -2   0   4 217.790 5.82005   3
   3   0  -4 669.852 12.5362   1
   3   0  -4 649.506 12.7611   3
  -3   0  -4 658.364 12.6163   1
  -3   0   4 682.522 12.8918   3
  -3   0   4 681.506 12.4639   2
  -3   0   4 679.525 12.4686   1
   3   0   4 670.411 12.7171   2
   4   0   4 26.8689 2.91670   2
  -4   0   4 26.0169 3.04634   3
   4   0  -4 23.9481 2.77912   1
  -4   0  -4 23.6689 3.07147   1
  -4   0  -4 17.3645 2.87980   2
  -4   0   4 16.1501 2.50379   1
   4   0  -4 18.1615 2.46533   2
   4   0  -4 25.1297 2.78550   3
  -4   0   4 20.1188 2.45240   2
   4   0   4 19.0325 2.82300   1
   5   0  -4 290.938 7.99584   2
   5   0   4 295.500 8.40161   2
  -5   0   4 293.343 8.53580   3
   5   0  -4 301.421 8.10051   1
   5   0   4 295.431 8.52264   1
  -5   0   4 308.522 8.20558   2
  -5   0  -4 319.127 8.62376   2
  -5   0   4 309.838 8.09476   1
  -5   0  -4 297.884 8.45117   2
   6   0  -4 899.991 17.4334   1
  -6   0   4 890.249 17.8929   3
   6   0   4 857.936 17.7435   1
  -6   0  -4 893.028 17.6255   1
  -6   0   4 903.410 17.4655   1
   6   0  -4 906.370 17.3198   2
  -6   0   4 889.578 17.2882   2
  -6   0  -4 904.436 17.8131   2
  -7   0  -4 133.577 6.51199   1
   7   0   4 132.928 6.68740   1
   7   0  -4 135.152 6.25974   2
  -7   0   4 143.127 6.50771   1
   7   0  -4 144.412 6.49444   1
   7   0   4 146.111 6.73284   2
  -7   0   4 138.939 6.63295   3
  -7   0   4 144.875 6.44927   2
  -7   0  -4 139.865 6.73607   2
  -8   0   4 40.5574 4.36850   1
  -8   0   4 59.9791 5.10193   2
   8   0  -4 49.3573 4.71172   2
  -8   0  -4 37.2553 4.31139   1
   8   0   4 42.7344 4.75792   1
   8   0   4 51.6302 4.99101   2
  -8   0   4 53.5584 4.92598   3
  -8   0  -4 38.5651 4.43699   2
   8   0  -4 51.0868 4.67259   1
   9   0   4 2.52634 3.08643   1
  -9   0   4 -3.7820 2.66010   3
  -9   0   4 2.14593 2.83912   2
  -9   0   4 2.57907 2.98041   1
   9   0  -4 -1.2611 2.75561   1
  -9   0  -4 4.55092 3.12320   1
 -10   0   4 37.6002 5.12706   3
  10   0  -4 40.4506 5.08358   1
 -10   0   4 29.6985 4.69042   1
  10   0   4 35.5789 5.04830   1
 -10   0  -4 29.6105 4.81979   1
 -11   0   4 6.79748 3.80443   1
  11   0  -4 15.5778 4.26946   1
 -11   0  -4 4.69141 3.81888   1
  11   0   4 9.99587 4.20583   1
 -12   0  -4 44.8514 6.21105   1
  12   0   4 54.3735 6.55987   1
  12   0  -4 51.8212 6.45146   1
 -12   0   4 42.4920 5.74413   1
 -13   0  -4 409.756 14.5926   1
  13   0  -4 418.883 14.9884   1
  13   0   4 439.079 15.2944   1
 -13   0   4 411.985 14.6934   1
 -14   0  -4 392.984 15.1285   1
  14   0   4 404.850 15.4516   1
  14   0  -4 403.162 15.2924   1
 -14   0   4 399.907 14.8841   1
  15   0  -4 150.526 10.9644   1
 -15   0   4 115.839 9.45282   1
 -15   0  -4 120.621 9.97068   1
  15   0   4 120.442 10.1428   1
  16   0   4 516.103 18.9376   1
 -16   0   4 531.131 18.4973   1
  16   0  -4 540.630 19.2250   1
 -16   0  -4 540.621 18.6877   1
 -17   0  -4 78.8039 8.98564   1
 -17   0   4 87.0630 9.10963   1
  17   0  -4 79.2914 9.61511   1
  17   0   4 91.0813 9.75251   1
   0  -1  -4 0.03611 1.48693   2
   0  -1  -4 1.25447 1.48221   1
   0  -1   4 1.79240 1.49688   1
   0  -1   4 -0.9859 2.14458   5
   0  -1   4 -0.0013 1.38872   2
   0  -1   4 -1.2483 1.55240   4
   1   1  -4 85.7277 3.57815   3
  -1  -1  -4 93.4907 3.64571   2
   1  -1   4 86.5783 3.68499   1
   1  -1   4 90.7651 4.61446   5
   1  -1   4 86.5287 3.54968   2
  -1  -1  -4 88.2862 3.58646   1
  -1  -1   4 89.8016 3.37625   1
  -1  -1   4 88.5477 3.62976   4
   1  -1  -4 88.1241 3.63728   2
  -1  -1   4 89.8177 3.41023   2
  -1  -1   4 83.7545 3.48989   3
   1  -1  -4 92.5827 3.55623   1
  -2   1   4 277.979 6.82467   3
  -2  -1  -4 244.656 6.26388   2
   2  -1   4 267.126 6.69603   5
  -2  -1  -4 267.467 6.43938   1
   2   1  -4 251.492 6.36534   3
   2  -1   4 266.626 6.43860   1
   2  -1   4 260.005 6.30623   2
  -2  -1   4 265.884 6.03115   1
  -2  -1   4 261.646 6.57800   3
   2  -1  -4 263.197 6.17165   1
   2  -1  -4 258.989 6.24692   2
  -2  -1   4 266.552 6.13493   2
   3  -1   4 1315.21 21.7935   1
  -3  -1  -4 1314.67 21.8062   2
   3   1  -4 1322.95 22.0192   3
  -3   1   4 1309.26 21.9884   3
   3  -1   4 1296.59 20.7549   5
   3  -1   4 1303.47 21.7303   2
  -3  -1  -4 1316.23 21.6573   1
   3  -1  -4 1319.62 22.0359   3
   3  -1  -4 1304.30 21.6053   2
  -3  -1   4 1331.52 21.4830   2
  -3  -1   4 1362.24 21.2202   1
   3  -1  -4 1314.90 21.5071   1
  -3  -1   4 1297.49 22.0707   3
  -4   1   4 697.571 13.8231   3
  -4  -1  -4 696.725 13.6429   2
   4  -1   4 682.263 13.6756   2
  -4   1   4 696.398 13.4840   1
  -4  -1  -4 696.765 13.4456   1
   4   1  -4 702.866 13.9020   3
   4  -1   4 702.793 12.0827   5
   4  -1   4 714.348 13.7189   1
   4  -1  -4 681.254 13.2838   1
  -4  -1   4 694.616 13.0088   1
  -4  -1   4 705.678 14.0752   3
  -4  -1   4 665.205 13.1812   2
   4  -1  -4 709.487 13.4366   2
   4  -1  -4 702.663 13.8561   3
  -5  -1  -4 190.812 6.72270   2
   5  -1   4 194.883 4.99703   5
  -5   1   4 186.607 6.60903   3
  -5   1   4 188.392 6.46782   1
  -5  -1  -4 190.543 6.50240   1
   5   1  -4 194.520 6.41831   1
   5  -1   4 186.225 6.66274   2
   5  -1   4 180.798 6.63955   1
  -5   1  -4 201.114 6.80292   1
   5   1   4 182.535 6.69604   1
  -5  -1   4 194.978 6.18031   1
   5  -1  -4 188.014 6.49943   2
   5  -1  -4 186.634 6.35954   1
  -5  -1   4 201.293 6.51266   2
  -5  -1   4 182.006 6.79674   3
  -6  -1  -4 1.56447 2.48065   2
  -6  -1  -4 2.70915 2.33565   1
   6   1  -4 3.15409 2.43860   1
   6  -1   4 2.87520 2.28777   3
  -6   1   4 2.01260 2.21676   2
   6  -1   4 5.02054 2.62180   1
   6  -1   4 5.99827 1.55600   5
  -6   1   4 6.63989 2.59626   3
  -6   1   4 6.44975 2.50224   1
   6  -1   4 3.43838 2.55953   2
   6  -1  -4 -1.3508 2.09760   1
   6  -1  -4 5.12431 2.45620   2
  -6   1  -4 3.48260 2.56541   1
  -6  -1   4 5.72344 2.35167   2
   6   1   4 6.91086 2.76350   1
  -6  -1   4 4.91909 2.62582   3
  -6  -1   4 4.15376 2.27779   1
  -7  -1  -4 207.240 7.61328   1
   7  -1   4 207.692 7.97165   2
   7  -1   4 194.325 7.64948   1
  -7  -1  -4 206.063 8.00056   2
  -7   1   4 198.627 7.64934   3
  -7  -1  -4 207.607 7.92862   2
   7   1  -4 205.130 7.61836   1
  -7   1   4 207.426 7.57597   1
   7  -1  -4 194.938 7.30691   1
  -7   1  -4 211.379 7.86208   1
  -7  -1   4 205.851 7.53740   2
  -7  -1   4 200.377 7.87662   3
   7   1   4 203.750 7.84941   1
   7   1   4 201.804 3.92042   5
  -7  -1   4 195.179 7.17639   1
   7  -1  -4 198.965 7.70742   2
  -8  -1  -4 888.771 18.8382   1
  -8  -1  -4 907.514 19.3927   2
   8  -1   4 916.370 19.3069   2
   8  -1   4 887.439 19.0005   1
   8   1  -4 898.518 18.9325   1
  -8   1   4 900.459 18.8279   1
  -8   1   4 889.334 19.1671   3
  -8  -1   4 901.219 18.8835   2
   8   1   4 885.372 19.2921   1
  -8   1  -4 873.850 19.0807   1
  -8  -1   4 894.079 19.5052   3
  -8  -1   4 907.679 18.4152   1
   8  -1  -4 892.874 18.6444   1
   8  -1  -4 882.187 18.9912   2
   9  -1   4 62.6036 5.88367   2
  -9  -1  -4 49.9907 5.04683   1
  -9   1   4 59.3778 5.43336   1
   9   1  -4 56.7463 5.31857   1
   9  -1   4 56.1737 5.37950   1
  -9  -1  -4 57.0205 5.63658   2
  -9   1   4 61.4745 5.50653   3
   9   1   4 55.9971 5.54079   1
   9  -1  -4 55.2482 5.44225   2
  -9   1  -4 58.7479 5.64382   1
  -9  -1   4 57.8548 5.13299   1
  -9  -1   4 51.6118 5.21066   3
   9  -1  -4 52.7697 5.07834   1
  -9  -1   4 53.3247 5.21557   2
 -10  -1  -4 35.3204 5.02500   2
 -10  -1  -4 47.6572 5.28986   1
 -10   1   4 36.9374 4.83324   3
  10   1  -4 41.8995 5.20788   1
 -10   1   4 44.2029 5.20897   1
  10  -1   4 43.6698 5.31109   1
  10   1   4 40.1730 5.30535   1
  10  -1  -4 45.3090 5.27814   1
 -10   1  -4 46.3986 5.45367   1
 -10  -1   4 41.1657 5.10095   2
 -10  -1   4 39.1201 4.82577   1
 -11  -1  -4 141.493 8.13727   1
  11  -1   4 154.405 8.79366   1
 -11   1   4 147.666 8.70726   1
 -11  -1   4 144.513 8.45781   1
  11   1   4 156.017 9.54677   1
 -11   1  -4 141.000 8.96752   1
  11  -1  -4 144.732 8.59960   1
 -11  -1   4 137.785 9.61626   2
 -12   1   4 20.6960 4.89477   1
 -12  -1  -4 10.9205 4.34340   1
  12  -1   4 18.6669 4.81514   1
 -12   1  -4 17.5192 4.92511   1
  12  -1  -4 18.7186 4.77500   1
 -12  -1   4 19.2862 4.62668   1
  13  -1   4 -1.2563 4.22419   1
 -13  -1  -4 1.75236 4.10178   1
 -13   1   4 0.24860 4.19272   1
  13  -1  -4 6.06199 4.39615   1
 -13   1  -4 -2.9430 4.07786   1
 -13  -1   4 -6.4152 3.40915   1
 -14  -1  -4 7.25610 4.65258   1
 -14   1   4 15.7934 5.38450   1
  14  -1   4 5.99453 5.02123   1
 -14  -1   4 16.1456 4.85958   1
 -14   1  -4 19.8456 5.59467   1
  14  -1  -4 12.5378 5.08053   1
 -15   1   4 6.42908 5.22941   1
  15  -1   4 0.91211 4.69008   1
 -15  -1  -4 4.90832 4.66011   1
  15  -1  -4 2.20889 4.49048   1
 -15  -1   4 11.9741 5.32553   1
 -16   1   4 222.365 14.9226   1
 -16  -1  -4 193.943 12.0763   1
  16  -1   4 209.291 12.6506   1
  16  -1  -4 203.439 12.1111   1
 -16  -1   4 201.756 11.8698   1
 -17  -1  -4 12.6831 5.87628   1
  17  -1   4 15.9499 6.01090   1
 -17  -1   4 5.30051 5.50279   1
  17  -1  -4 0.61739 4.91047   1
   0   2  -4 645.685 13.1765   5
   0  -2  -4 647.508 10.4798   1
   0  -2   4 647.436 13.2738   4
   0  -2   4 647.936 10.6618   3
   0  -2  -4 639.944 11.1492   2
   0  -2   4 645.050 10.8973   2
   0  -2  -4 661.460 12.5316   4
   1  -2   4 691.149 10.4756   1
   1  -2   4 680.300 13.8979   4
  -1  -2  -4 671.257 13.0957   4
   1   2  -4 683.133 11.7214   3
   1  -2   4 686.972 11.5746   2
  -1  -2  -4 708.406 11.1117   1
  -1  -2  -4 685.706 11.7850   2
   1   2  -4 676.344 13.6291   5
   1  -2  -4 702.117 11.2254   1
   1  -2  -4 677.535 12.9860   4
   1  -2  -4 690.850 11.8909   2
  -1  -2   4 669.778 11.8363   3
  -1  -2   4 670.643 11.3707   2
  -1  -2   4 644.950 13.6018   4
  -1   2  -4 675.578 13.4665   5
   2  -2   4 1058.94 16.6226   1
   2   2  -4 1058.62 17.7508   3
   2  -2   4 1042.51 17.3577   2
  -2   2   4 1058.38 18.1598   3
  -2  -2  -4 1041.00 17.4217   2
  -2  -2  -4 1043.40 16.7161   1
   2   2  -4 1074.86 19.1964   5
  -2  -2   4 1055.36 17.1238   2
  -2   2  -4 1049.17 18.5632   5
  -2  -2   4 1053.90 17.8431   3
  -2  -2   4 1057.92 19.6127   4
   2  -2  -4 1083.79 16.9553   1
  -2  -2   4 1082.94 16.0531   1
   2  -2  -4 1032.57 17.4707   2
  -3  -2  -4 68.9527 3.40950   1
   3   2  -4 65.9473 3.97967   3
   3  -2   4 64.4395 3.43907   1
   3  -2   4 59.7914 3.68106   2
  -3   2   4 61.4639 4.00443   3
  -3  -2  -4 65.6181 3.76063   2
   3  -2  -4 64.0391 3.70259   2
  -3  -2   4 57.7579 3.34506   2
  -3  -2   4 59.9647 4.05063   3
   3  -2  -4 61.5722 3.29896   1
  -3   2  -4 62.7471 4.42489   5
  -3  -2   4 70.2319 2.96527   1
   4   2  -4 468.532 10.6007   3
   4  -2   4 474.060 9.34030   3
   4  -2   4 485.692 9.92262   1
   4  -2   4 475.466 10.5041   2
  -4   2   4 471.461 10.5849   3
  -4  -2  -4 460.842 10.2856   2
  -4  -2  -4 467.253 9.66866   1
  -4  -2   4 456.383 9.14650   1
  -4   2  -4 476.214 10.3507   5
  -4  -2   4 451.489 9.89762   2
  -4  -2   4 470.024 10.8450   3
   4  -2  -4 473.829 9.79106   1
   4  -2  -4 472.562 10.3468   2
   5  -2   4 39.2732 3.43450   1
  -5  -2  -4 35.3316 3.42699   2
   5  -2   4 36.2711 3.58671   2
   5  -2   4 38.9029 3.13600   3
  -5   2   4 33.7569 3.42115   3
  -5  -2  -4 39.8589 3.20685   1
   5  -2  -4 36.4865 3.42970   2
  -5   2  -4 32.1340 3.13693   5
  -5  -2   4 36.5599 2.90095   1
  -5  -2   4 41.8060 3.54421   2
  -5  -2   4 39.0618 3.85577   3
   5  -2  -4 34.8041 3.14310   1
   6  -2   4 930.058 18.5590   2
   6  -2   4 922.915 17.9046   1
  -6  -2  -4 903.919 18.3917   2
  -6   2   4 937.610 18.3125   1
  -6   2   4 916.893 18.2488   3
  -6  -2  -4 913.930 17.5338   1
   6  -2   4 918.501 17.3814   3
   6   2   4 942.956 15.9964   5
  -6   2  -4 961.173 16.8076   5
   6  -2  -4 939.220 18.3201   2
  -6   2  -4 956.699 18.5608   1
  -6  -2   4 935.522 17.0538   1
   6  -2  -4 919.885 17.6148   1
  -6  -2   4 939.362 19.0709   3
  -6  -2   4 939.514 18.1234   2
  -7  -2  -4 349.776 10.5554   2
  -7   2   4 370.038 10.5459   1
  -7  -2  -4 372.432 9.87838   1
  -7  -2  -4 348.302 10.4627   2
   7  -2   4 359.697 10.0955   1
   7  -2   4 376.783 10.8533   2
  -7   2   4 365.000 10.4459   3
  -7  -2   4 360.244 11.0772   3
   7   2   4 359.087 7.86724   5
   7  -2  -4 360.899 9.84150   1
  -7  -2   4 356.507 10.2345   2
  -7   2  -4 363.620 8.64989   5
  -7  -2   4 361.563 9.49381   1
   7  -2  -4 371.866 10.5621   2
  -8   2   4 5.02910 2.85594   3
   8  -2   4 2.27396 2.90721   1
  -8  -2  -4 4.96734 3.02942   2
   8  -2   4 5.69303 3.18913   2
  -8  -2  -4 6.91224 2.70152   1
  -8  -2  -4 8.30712 3.26968   2
  -8  -2   4 6.43652 2.97160   2
  -8  -2   4 2.84994 2.53534   1
   8  -2  -4 4.49563 2.67658   1
   8  -2  -4 1.44786 2.94999   2
   9  -2   4 1047.99 22.8109   2
  -9   2   4 1069.83 22.3659   3
  -9  -2  -4 1091.53 21.8100   1
  -9  -2  -4 1091.79 22.9962   2
   9  -2   4 1075.11 22.2238   1
  -9  -2   4 1109.08 22.5345   2
   9  -2  -4 1042.12 21.8079   1
   9  -2  -4 1102.66 22.8890   2
  -9  -2   4 1054.52 21.1333   1
 -10   2   4 361.977 11.9261   3
 -10  -2  -4 342.660 12.2142   2
  10  -2   4 331.111 11.9532   2
  10  -2   4 337.703 11.7611   1
 -10  -2  -4 329.414 11.0381   1
  10  -2  -4 355.938 12.3337   2
 -10  -2   4 331.491 10.7205   1
 -10  -2   4 332.649 11.8680   2
  10  -2  -4 337.862 11.2683   1
 -11  -2  -4 -0.6996 3.13325   1
 -11  -2  -4 10.9630 4.34892   2
  11  -2   4 0.36309 3.62490   1
  11  -2   4 -1.3626 3.68234   2
 -11  -2   4 6.06058 3.79903   2
  11  -2  -4 6.14337 3.68821   1
 -11  -2   4 7.38915 3.30669   1
  11  -2  -4 0.64243 3.78224   2
  12  -2   4 979.929 23.1893   1
 -12  -2  -4 970.998 22.3662   1
 -12  -2  -4 995.166 24.0265   2
 -12  -2   4 997.122 23.7377   2
 -12  -2   4 986.261 22.1394   1
  12  -2  -4 1014.11 23.0693   1
 -13  -2  -4 454.342 14.6347   1
  13  -2   4 439.060 15.2515   1
 -13  -2   4 432.738 14.1081   1
  13  -2  -4 442.650 14.9312   1
 -14  -2  -4 6.30912 4.24575   1
  14  -2   4 1.07984 4.47467   1
  14  -2  -4 11.5651 4.73180   1
 -14  -2   4 4.63218 4.04148   1
  15  -2   4 41.2199 6.77580   1
 -15  -2  -4 43.8309 6.67521   1
  15  -2  -4 33.4052 6.48125   1
 -15  -2   4 55.6330 6.75283   1
 -16  -2  -4 7.06889 5.13507   1
  16  -2   4 4.75227 5.13731   1
 -16  -2   4 2.36320 4.35058   1
  16  -2  -4 5.52680 5.22674   1
   0  -3  -4 -0.2471 1.37687   2
   0  -3   4 -0.1304 1.23610   2
   0  -3  -4 -0.7992 1.30289   2
   0  -3  -4 3.32676 2.33330   4
   0   3  -4 -0.4360 2.24306   5
   0  -3   4 -0.1495 1.06051   2
   0  -3   4 -1.2632 2.38629   4
   1  -3   4 54.7835 2.67040   2
  -1  -3  -4 56.1672 3.02465   2
  -1  -3  -4 54.5329 2.83740   2
  -1  -3  -4 51.5100 4.06177   4
   1  -3   4 53.3896 4.51511   4
   1  -3   4 53.4806 2.90735   2
   1   3  -4 54.9792 4.41514   5
   1   3  -4 53.9590 2.80331   3
  -1   3  -4 62.9342 4.83627   5
   1  -3  -4 58.4425 2.99586   2
  -1  -3   4 58.6088 2.53077   2
  -1  -3   4 54.5738 2.50172   2
   1  -3  -4 63.4991 4.37218   4
   1  -3  -4 55.9678 2.93915   2
  -1  -3   4 48.5505 4.26934   4
   2   3  -4 131.572 4.58700   3
   2  -3   4 132.219 4.46155   2
   2  -3   4 132.428 6.62598   4
  -2  -3  -4 137.369 4.34658   2
  -2  -3  -4 134.548 4.55459   2
   2  -3   4 135.142 4.23397   2
  -2  -3  -4 149.784 6.16964   4
   2   3  -4 140.859 6.56342   5
   2  -3  -4 142.301 4.49729   2
   2  -3  -4 131.930 4.46611   2
  -2  -3   4 133.779 3.95305   2
  -2  -3   4 127.971 6.21929   4
  -2  -3   4 131.436 3.92874   2
  -2   3  -4 133.074 6.34552   5
  -3   3   4 953.750 16.9977   3
  -3  -3  -4 919.686 16.1280   2
   3   3  -4 933.724 16.7512   3
   3  -3   4 868.726 16.2628   2
   3  -3   4 940.400 16.2811   2
   3   3  -4 919.143 18.3295   5
  -3  -3  -4 916.480 16.3945   2
   3  -3  -4 928.281 16.4185   2
   3  -3  -4 937.029 14.1965   1
  -3   3  -4 923.213 18.1109   5
   3  -3  -4 949.980 14.3364   1
  -3  -3   4 942.617 15.7292   2
  -3  -3   4 907.292 15.7454   2
  -3  -3   4 907.865 19.2916   4
   4   3  -4 533.598 12.7408   5
   4  -3   4 530.892 9.03668   3
   4  -3   4 502.277 11.1694   2
  -4  -3  -4 510.791 10.9976   2
  -4  -3  -4 522.611 8.40202   1
   4  -3   4 527.258 9.03392   1
  -4   3   4 522.194 11.3154   3
   4  -3   4 507.272 8.90086   1
  -4  -3  -4 505.309 8.33651   1
   4  -3  -4 515.630 11.1753   2
   4  -3  -4 524.259 9.61165   1
  -4  -3   4 524.266 10.6447   2
  -4  -3   4 511.138 10.4916   2
  -4   3  -4 504.176 12.1170   5
   5  -3   4 152.581 6.20038   2
  -5  -3  -4 150.685 4.45359   1
   5  -3   4 157.124 4.84121   3
   5  -3   4 151.272 4.78561   1
  -5   3   4 159.665 6.11179   3
  -5  -3  -4 144.635 6.08858   2
  -5  -3   4 155.971 5.83819   2
   5   3   4 152.805 6.21034   5
  -5   3  -4 142.180 6.39426   5
  -5  -3   4 151.329 3.73262   1
   5  -3  -4 150.356 5.00632   1
   5  -3  -4 142.282 5.95282   2
  -5  -3   4 152.608 3.98631   1
   6  -3   4 6.76079 2.14957   1
  -6  -3  -4 6.39898 1.97428   1
   6  -3   4 5.35276 2.57222   2
  -6   3   4 5.66119 2.56054   3
  -6  -3  -4 4.61609 2.51533   2
  -6   3  -4 2.15701 2.31520   5
   6  -3  -4 5.36897 1.98948   1
  -6  -3   4 3.37903 2.32178   2
  -6  -3   4 4.08721 1.68157   1
   6   3   4 9.51968 2.55384   5
   6  -3  -4 7.19704 2.64107   2
  -7  -3  -4 151.920 7.30992   2
  -7  -3  -4 157.352 5.85289   1
  -7   3   4 158.195 6.98629   3
   7  -3   4 164.449 7.46688   2
   7  -3   4 158.691 6.22233   1
   7   3   4 159.450 6.30108   5
  -7   3  -4 154.528 6.67357   5
   7  -3  -4 158.285 7.25537   2
  -7  -3   4 162.114 7.04504   2
   7  -3  -4 150.709 6.21982   1
  -7  -3   4 153.981 5.39982   1
  -8   3   4 746.982 16.8630   3
  -8  -3  -4 753.167 17.5134   2
   8  -3   4 759.890 16.1619   1
   8  -3   4 759.095 17.7815   2
  -8  -3  -4 737.692 17.4196   2
  -8  -3  -4 757.990 15.4795   1
   8  -3  -4 749.542 16.0501   1
  -8  -3   4 773.954 17.1101   2
  -8  -3   4 750.477 14.9888   1
   8  -3  -4 768.568 17.6083   2
   9  -3   4 50.1162 5.42856   2
   9  -3   4 50.2518 4.81443   1
  -9  -3  -4 39.8818 4.14946   1
  -9   3   4 46.2969 4.95852   3
  -9  -3  -4 43.5151 5.22286   2
  -9  -3   4 46.4190 5.18292   2
   9  -3  -4 36.5186 4.24291   1
  -9  -3   4 45.9388 4.17213   1
   9  -3  -4 47.7652 5.23149   2
  10  -3   4 25.5659 5.01739   2
 -10  -3  -4 26.6147 4.18145   1
  10  -3   4 30.3420 4.44296   1
 -10  -3  -4 17.5693 4.44091   2
 -10  -3   4 25.1206 3.87983   1
  10  -3  -4 20.5000 4.58358   2
 -10  -3   4 24.7971 4.70047   2
  10  -3  -4 24.6298 4.09328   1
 -11  -3  -4 131.279 9.02742   2
 -11  -3  -4 128.900 7.33263   1
  11  -3   4 105.833 7.57870   1
  11  -3   4 106.830 8.54248   2
  11  -3  -4 99.0096 8.07238   2
  11  -3  -4 107.550 7.39735   1
 -11  -3   4 116.161 6.76821   1
 -11  -3   4 113.045 8.34764   2
  12  -3   4 9.17000 4.32187   1
 -12  -3  -4 16.8163 4.35469   1
  12  -3   4 13.8384 4.87986   2
 -12  -3  -4 15.6233 5.05165   2
  12  -3  -4 21.6145 4.75765   1
 -12  -3   4 20.0134 4.25305   1
  12  -3  -4 20.4885 5.18287   2
 -12  -3   4 13.3774 4.82915   2
 -13  -3  -4 1.93204 4.63943   2
  13  -3   4 3.33266 4.34861   1
 -13  -3  -4 1.85800 3.75546   1
 -13  -3   4 0.37722 3.67448   1
  13  -3  -4 3.75982 4.20165   1
 -13  -3   4 0.91269 4.29461   2
 -14  -3  -4 16.1756 4.75867   1
  14  -3   4 18.4648 5.13355   1
  14  -3  -4 17.1593 5.11411   1
 -14  -3   4 11.3338 4.40447   1
 -15  -3  -4 -1.5434 4.12631   1
  15  -3   4 5.52597 4.76926   1
 -15  -3   4 -3.7599 3.87374   1
  15  -3  -4 7.69354 4.87906   1
  16  -3   4 222.611 12.3859   1
 -16  -3  -4 205.398 11.0910   1
  16  -3  -4 208.498 11.9642   1
 -16  -3   4 201.280 10.6923   1
   0  -4   4 153.301 3.71985   2
   0  -4  -4 135.223 6.91628   4
   0  -4  -4 145.400 4.36682   2
   0  -4   4 145.743 7.45588   4
   0   4  -4 157.083 7.64314   5
   0  -4  -4 146.911 4.35256   2
   0  -4   4 159.653 3.95352   2
  -1  -4  -4 21.0422 2.05565   2
  -1  -4  -4 25.3101 3.88003   4
   1   4  -4 23.6756 3.69836   5
   1  -4   4 21.1002 3.83099   4
   1  -4   4 23.0052 1.93871   2
  -1  -4  -4 28.1730 2.37508   2
   1  -4   4 31.4150 2.21770   2
  -1   4  -4 17.8779 3.48878   5
  -1  -4   4 24.0799 4.14633   4
   1  -4  -4 21.1615 3.65533   4
  -1  -4   4 24.5131 1.84609   2
   1  -4  -4 27.9036 2.32917   2
  -1  -4   4 25.8701 1.80638   2
   1  -4  -4 25.9068 2.34063   2
   2  -4   4 90.0825 6.60576   4
  -2  -4  -4 92.2656 4.06043   2
  -2  -4  -4 94.3659 3.81155   2
   2  -4   4 89.5753 3.62040   2
  -2  -4  -4 86.4360 5.87292   4
   2   4  -4 81.2131 6.03396   5
   2  -4   4 92.2163 3.92088   2
   2  -4  -4 85.4732 6.00464   4
  -2  -4   4 94.7660 3.39569   2
  -2   4  -4 84.6710 6.12056   5
   2  -4  -4 91.8834 3.90988   2
  -2  -4   4 79.2492 6.18704   4
  -2  -4   4 93.2273 3.31119   2
  -3   4   4 321.093 8.37161   3
   3  -4   4 320.518 7.86694   2
  -3  -4  -4 343.749 10.8727   4
   3   4  -4 329.767 10.7352   5
  -3  -4  -4 322.037 7.73395   2
  -3  -4   4 327.535 7.34563   2
  -3   4  -4 346.373 10.6657   5
  -3  -4   4 339.701 11.2403   4
   3  -4  -4 324.339 8.08294   2
   3   4   4 323.529 10.2313   5
  -3  -4   4 339.621 7.27635   2
  -4  -4  -4 8.88358 2.23576   2
   4   4  -4 10.0346 3.48647   5
  -4  -4  -4 9.77039 3.51983   4
   4  -4   4 8.49654 2.39000   2
  -4  -4   4 7.57290 2.07490   2
   4  -4  -4 7.69096 2.32401   2
  -4   4  -4 8.08125 3.08239   5
   4   4   4 5.19103 2.86893   5
  -4  -4   4 6.93663 3.40067   4
   5   4  -4 159.351 7.99327   5
  -5  -4  -4 162.718 6.44748   2
   5  -4   4 145.085 6.32696   2
  -5  -4   4 174.482 8.63427   4
   5   4   4 159.637 7.43519   5
  -5   4  -4 161.478 7.60789   5
  -5  -4   4 168.662 6.05997   2
   5  -4  -4 157.824 6.50041   2
   6  -4   4 470.900 12.2174   2
   6   4  -4 497.894 13.7409   5
  -6  -4  -4 473.116 12.0478   2
  -6   4  -4 478.178 12.9470   5
   6  -4  -4 488.128 8.74395   1
  -6  -4   4 475.852 11.6382   2
   6   4   4 490.689 12.5719   5
   6  -4  -4 481.600 12.2194   2
  -7  -4  -4 90.9876 6.13702   2
   7  -4   4 89.5147 6.34052   2
   7  -4   4 87.5762 3.74320   1
   7   4   4 87.3089 6.39375   5
   7  -4  -4 95.8168 6.33809   2
   7  -4  -4 91.2704 4.17392   1
  -7   4  -4 85.1910 6.30759   5
  -7  -4   4 91.3499 5.99268   2
  -8  -4  -4 30.7374 4.36260   2
   8  -4   4 34.9404 4.80735   2
   8  -4   4 33.5223 3.38170   1
  -8  -4  -4 27.4595 4.29587   2
  -8  -4  -4 29.3725 2.27973   1
  -8  -4   4 35.9286 4.40947   2
   8  -4  -4 30.0744 4.45515   2
   8  -4  -4 37.2003 3.54874   1
  -9  -4  -4 2.69105 2.12719   1
   9  -4   4 -0.6535 3.49124   2
  -9  -4  -4 2.44963 3.52144   2
   9  -4   4 2.11167 2.63809   1
   9  -4  -4 2.41156 3.39211   2
   9  -4  -4 1.99465 2.67775   1
  -9  -4   4 1.53139 3.16054   2
  -9  -4   4 0.66741 1.68545   1
  10  -4   4 18.3226 4.57829   2
  10  -4   4 20.6826 3.77504   1
 -10  -4  -4 18.4716 3.20275   1
 -10  -4  -4 18.7965 4.61130   2
  10  -4  -4 19.1613 3.78085   1
  10  -4  -4 22.1837 4.98743   2
 -10  -4   4 18.1644 4.33523   2
 -10  -4   4 21.8764 2.93075   1
  11  -4   4 11.2034 3.63922   1
  11  -4   4 5.14740 4.42173   2
 -11  -4  -4 0.65617 2.82505   1
 -11  -4  -4 6.31392 4.23606   2
  11  -4  -4 7.77518 4.46060   2
 -11  -4   4 6.94092 4.02031   2
 -11  -4   4 6.13018 2.78722   1
  11  -4  -4 4.66291 3.39951   1
  12  -4   4 39.0147 6.54620   2
 -12  -4  -4 43.0744 4.67696   1
  12  -4   4 43.3381 5.25835   1
 -12  -4  -4 32.9673 5.90809   2
 -12  -4   4 35.5345 4.12086   1
  12  -4  -4 39.6853 6.48653   2
 -12  -4   4 33.1410 5.77827   2
  12  -4  -4 28.1925 4.80347   1
 -13  -4  -4 285.725 13.3725   2
  13  -4   4 298.110 13.7595   2
 -13  -4  -4 302.457 10.5783   1
  13  -4   4 298.806 11.6977   1
 -13  -4   4 302.391 10.1521   1
  13  -4  -4 311.134 11.7854   1
  13  -4  -4 312.713 14.3434   2
 -13  -4   4 326.942 13.7425   2
 -14  -4  -4 283.045 13.9079   2
 -14  -4  -4 283.202 10.5858   1
  14  -4   4 272.564 11.8792   1
 -14  -4   4 265.621 13.4942   2
 -14  -4   4 295.135 10.3747   1
  14  -4  -4 268.296 11.6258   1
 -15  -4  -4 99.0268 7.81761   1
  15  -4   4 87.8325 7.99909   1
  15  -4  -4 77.4691 7.42222   1
 -15  -4   4 79.2417 8.75539   2
 -15  -4   4 101.116 7.67651   1
   0   5  -4 -0.3107 3.05419   5
   0  -5   4 -0.5298 1.39607   2
   0  -5  -4 0.11414 1.54853   2
   0  -5   4 1.64859 1.28568   2
   0   5   4 -2.8413 2.92895   5
   0  -5   4 -1.5308 3.23471   4
   0  -5  -4 0.48844 3.37114   4
  -1  -5  -4 31.5902 4.98572   4
   1  -5   4 33.7235 2.37465   2
   1  -5   4 42.8545 5.56081   4
  -1  -5  -4 35.6163 2.64677   2
  -1   5   4 32.7123 4.66211   5
   1   5  -4 33.5087 4.74083   5
  -1  -5   4 33.8770 2.35580   2
  -1   5  -4 38.1422 4.92556   5
  -1  -5   4 33.0808 5.42186   4
  -1  -5   4 40.8254 2.44981   2
   1   5   4 25.2073 4.39629   5
   1  -5  -4 38.3429 3.10581   2
   1  -5  -4 28.7958 4.76366   4
  -2  -5  -4 113.359 4.44511   2
   2  -5   4 124.109 8.20359   4
  -2  -5  -4 118.468 7.74979   4
   2   5  -4 124.462 7.94442   5
   2  -5   4 115.993 4.38240   2
  -2   5   4 112.689 7.56014   5
   2   5   4 114.531 7.62769   5
  -2   5  -4 123.547 7.84159   5
  -2  -5   4 117.307 3.83708   2
   2  -5  -4 123.701 4.71482   2
  -2  -5   4 110.327 8.04181   4
   3  -5   4 543.024 11.2605   2
   3   5  -4 534.828 15.2820   5
  -3  -5  -4 552.236 11.1018   2
  -3   5   4 540.217 15.3410   5
  -3  -5  -4 531.613 15.4968   4
   3  -5  -4 541.652 11.5232   2
  -3   5  -4 527.239 14.9937   5
   3   5   4 523.018 14.7099   5
  -3  -5   4 533.398 16.2089   4
  -3  -5   4 531.470 10.4227   2
   4  -5   4 303.324 8.54742   2
  -4   5   4 295.484 11.4467   5
   4   5  -4 295.636 11.5621   5
  -4  -5  -4 315.590 11.8535   4
  -4  -5  -4 301.340 8.24533   2
   4   5   4 294.111 10.8176   5
  -4  -5   4 301.797 7.73472   2
   4  -5  -4 290.944 8.55159   2
  -4   5  -4 283.545 11.0215   5
  -4  -5   4 315.769 12.1981   4
   5   5  -4 85.9126 7.11837   5
   5  -5   4 78.1214 5.32524   2
  -5  -5  -4 85.0556 7.44656   4
  -5  -5  -4 74.2698 5.25588   2
  -5   5   4 70.7393 6.51216   5
   5   5   4 67.3554 6.17366   5
   5  -5  -4 72.9912 5.38244   2
  -5   5  -4 77.5742 6.47578   5
  -5  -5   4 82.8161 7.81662   4
  -5  -5   4 81.8529 4.77862   2
   6  -5   4 6.50062 2.95922   2
   6   5  -4 4.30182 3.81330   5
  -6   5   4 -2.4519 3.55199   5
  -6  -5  -4 11.8523 4.73565   4
  -6  -5  -4 2.93157 2.71959   2
  -6  -5   4 1.86972 2.45243   2
  -6  -5   4 -0.2911 3.83358   4
   6   5   4 7.92044 3.75097   5
   6  -5  -4 0.86845 2.72433   2
  -6   5  -4 13.9282 4.11694   5
  -7  -5  -4 98.5227 6.55519   2
  -7  -5  -4 102.511 8.85969   4
  -7   5   4 101.541 7.74151   5
   7  -5   4 98.4111 6.79908   2
   7  -5  -4 101.822 6.81182   2
  -7  -5   4 92.5070 6.04161   2
  -7  -5   4 104.871 8.57293   4
  -7   5  -4 117.319 8.19824   5
  -8  -5  -4 419.770 12.7628   2
  -8  -5  -4 436.261 12.9260   2
   8  -5   4 435.474 13.3828   2
  -8   5   4 454.298 14.3920   5
  -8  -5   4 419.977 16.0327   4
  -8  -5   4 419.240 12.3927   2
   8  -5  -4 430.524 13.2149   2
   9  -5   4 23.3232 4.89068   2
  -9  -5  -4 26.6167 4.76515   2
   9  -5  -4 27.7707 4.91987   2
  -9  -5   4 36.9992 4.94760   2
 -10  -5  -4 30.3947 5.34017   2
  10  -5   4 31.2152 5.28358   2
  10  -5  -4 25.0456 5.12063   2
 -10  -5   4 34.0695 5.08855   2
 -11  -5  -4 86.2090 7.81314   2
  11  -5   4 87.5427 8.16751   2
 -11  -5   4 88.9861 7.69559   2
  11  -5  -4 104.192 8.79150   2
 -12  -5  -4 0.47974 4.35343   2
  12  -5   4 -4.0665 4.37148   2
  12  -5  -4 10.3716 3.63875   1
  12  -5  -4 10.2672 5.15218   2
 -12  -5   4 1.56980 4.11357   2
 -13  -5  -4 2.02202 4.71250   2
  13  -5   4 5.00872 5.05892   2
 -13  -5   4 -2.3568 4.32741   2
  13  -5  -4 4.94857 4.92793   2
  13  -5  -4 -0.1521 3.63380   1
 -14  -5  -4 4.97993 5.20326   2
  14  -5   4 11.0662 5.59759   2
  14  -5  -4 10.3761 5.70918   2
 -14  -5   4 26.0614 6.06149   2
  14  -5  -4 8.40487 4.02765   1
   0  -6   4 228.391 11.4801   4
   0  -6  -4 239.766 11.3087   4
   0  -6   4 253.868 5.66179   2
   0  -6  -4 243.915 6.45395   2
   1  -6   4 223.618 5.66295   2
   1  -6   4 219.785 11.5300   4
  -1  -6  -4 245.415 11.5200   4
  -1  -6  -4 219.569 6.14443   2
  -1  -6   4 223.638 5.16825   2
  -1  -6   4 209.342 11.1872   4
   1  -6  -4 220.265 11.1874   4
   1  -6  -4 222.946 6.31790   2
  -2  -6  -4 378.472 8.68634   2
  -2  -6  -4 388.611 14.3018   4
   2  -6   4 388.607 8.58942   2
   2  -6  -4 376.007 9.08556   2
  -2  -6   4 369.221 7.73806   2
  -2  -6   4 365.350 14.5643   4
   3  -6   4 27.3403 3.23180   2
  -3  -6  -4 26.8182 3.02860   2
  -3  -6  -4 27.8077 5.57150   4
   3  -6  -4 23.9589 3.12828   2
  -3  -6   4 33.1255 2.76513   2
  -3  -6   4 25.9397 5.63996   4
  -4  -6  -4 160.893 6.40856   2
  -4  -6  -4 149.870 10.1506   4
   4  -6   4 165.648 6.71685   2
   4  -6  -4 167.689 6.71059   2
  -4  -6   4 178.258 10.7188   4
  -4  -6   4 157.954 5.84074   2
  -5  -6  -4 20.5162 5.76004   4
  -5  -6  -4 13.4565 3.28559   2
   5  -6   4 20.1995 3.51252   2
  -5  -6   4 16.0808 5.56151   4
   5  -6  -4 14.6825 3.27629   2
  -5  -6   4 10.8590 2.84976   2
  -6  -6  -4 334.640 10.3340   2
   6  -6   4 340.189 10.7318   2
  -6  -6  -4 343.935 14.4991   4
   6  -6  -4 344.631 10.7638   2
  -6  -6   4 327.914 14.6862   4
  -6  -6   4 329.555 9.79123   2
   7  -6   4 137.885 8.02666   2
  -7  -6  -4 146.274 10.9891   4
  -7  -6  -4 147.942 7.81361   2
  -7  -6   4 147.361 11.1095   4
  -7  -6   4 168.742 7.64216   2
   7  -6  -4 137.873 7.98987   2
  -8  -6  -4 -1.9550 5.11342   4
  -8  -6  -4 7.53580 3.79640   2
  -8  -6  -4 1.66582 3.53386   2
   8  -6   4 -3.3758 3.28667   2
  -8  -6   4 2.20945 3.28623   2
   8  -6  -4 2.46598 3.69807   2
  -8  -6   4 8.38739 5.25063   4
   9  -6   4 462.777 14.7236   2
  -9  -6  -4 463.364 14.3888   2
  -9  -6  -4 475.362 18.6792   4
   9  -6  -4 471.922 15.0335   2
  -9  -6   4 474.852 18.4156   4
  -9  -6   4 463.853 13.9033   2
 -10  -6  -4 152.892 9.49113   2
  10  -6   4 143.974 9.77324   2
 -10  -6  -4 167.168 12.8221   4
 -10  -6   4 156.381 9.09364   2
  10  -6  -4 166.696 10.1299   2
 -10  -6   4 139.932 11.8772   4
  11  -6   4 -1.1229 4.51998   2
 -11  -6  -4 -0.0146 4.18964   2
 -11  -6  -4 -8.7403 5.95565   4
  11  -6  -4 0.45256 4.32820   2
 -11  -6   4 6.47313 6.05579   4
 -11  -6   4 -0.3604 3.95287   2
 -12  -6  -4 516.709 17.0324   2
  12  -6   4 507.162 17.7113   2
 -12  -6   4 494.130 16.6007   2
 -12  -6   4 503.613 20.9876   4
  12  -6  -4 510.813 17.8093   2
   0  -7   4 -3.0774 4.53361   4
   0  -7  -4 -0.9153 2.02997   2
   0  -7  -4 -0.2904 4.83133   4
   0  -7   4 3.17376 1.73849   2
   1  -7   4 24.5506 2.63976   2
   1  -7   4 15.4776 5.93634   4
  -1  -7  -4 22.5273 6.21580   4
  -1  -7  -4 12.9880 2.57758   2
  -1  -7   4 22.2043 2.18257   2
  -1  -7   4 27.2394 6.51213   4
   1  -7  -4 21.4001 6.26274   4
   1  -7  -4 20.1004 2.81124   2
  -2  -7  -4 33.4565 6.61256   4
   2  -7   4 41.7817 3.50534   2
  -2  -7  -4 43.0329 3.57264   2
  -2  -7   4 41.7055 3.19118   2
  -2  -7   4 38.1749 7.03178   4
   2  -7  -4 35.2357 3.56426   2
   3  -7   4 336.934 9.11376   2
  -3  -7  -4 334.617 8.89215   2
  -3  -7  -4 320.507 14.7934   4
  -3  -7   4 335.488 7.85993   2
  -3  -7   4 329.799 15.1232   4
   3  -7  -4 347.364 9.39450   2
  -4  -7  -4 209.402 12.5220   4
  -4  -7  -4 208.612 7.70071   2
   4  -7   4 198.980 7.76279   2
   4  -7  -4 206.066 7.72231   2
  -4  -7   4 211.160 6.73928   2
  -4  -7   4 209.288 12.9270   4
  -5  -7  -4 63.2310 8.40049   4
  -5  -7  -4 67.4038 5.24095   2
   5  -7   4 70.9671 5.62851   2
   5  -7  -4 68.1919 5.49776   2
  -5  -7   4 56.7235 4.40910   2
  -5  -7   4 48.3460 8.12189   4
  -6  -7  -4 10.1378 5.94478   4
   6  -7   4 -2.6975 3.11569   2
  -6  -7  -4 1.79462 3.26810   2
   6  -7  -4 3.01273 3.38303   2
  -6  -7   4 4.06194 5.44769   4
  -6  -7   4 2.27701 2.85884   2
  -7  -7  -4 58.2794 5.66776   2
  -7  -7  -4 68.1523 5.99792   2
  -7  -7  -4 52.7313 8.36347   4
   7  -7   4 63.5464 6.07511   2
  -7  -7   4 64.1782 5.28177   2
  -7  -7   4 53.8773 8.52046   4
   7  -7  -4 58.0260 5.88740   2
  -8  -7  -4 337.862 12.0023   2
  -8  -7  -4 346.853 16.7278   4
   8  -7   4 345.649 12.6314   2
   8  -7  -4 358.240 12.4268   2
  -8  -7   4 306.866 16.2141   4
  -8  -7   4 349.389 11.3499   2
  -9  -7  -4 21.1495 4.90901   2
  -9  -7  -4 22.3889 7.33187   4
   9  -7   4 17.6978 4.81735   2
  -9  -7   4 15.8912 6.57648   4
  -9  -7   4 17.3476 4.31684   2
   9  -7  -4 24.0916 5.02690   2
   0  -8  -4 54.2894 8.74212   4
   0  -8   4 67.2885 3.62137   2
   0  -8   4 63.2234 9.14309   4
   0  -8  -4 67.6297 4.45469   2
   1  -8   4 3.50505 2.25333   2
  -1  -8  -4 5.74613 2.52875   2
  -1  -8  -4 6.76878 6.21966   4
  -1  -8   4 7.91393 6.25729   4
   1  -8  -4 3.89346 2.66291   2
   2  -8   4 28.7375 3.33002   2
  -2  -8  -4 21.1117 6.91829   4
  -2  -8  -4 26.8198 3.28456   2
  -2  -8   4 26.1328 2.45366   2
  -2  -8   4 29.8932 7.52234   4
   2  -8  -4 22.5810 3.39502   2
  -3  -8  -4 100.005 5.72869   2
  -3  -8  -4 106.519 10.8528   4
   3  -8   4 119.663 6.00121   2
  -3  -8   4 111.099 4.72224   2
  -3  -8   4 92.3746 10.5883   4
   3  -8  -4 111.695 6.18145   2
  -4  -8  -4 3.32075 2.98100   2
   4  -8   4 5.54540 3.19983   2
  -4  -8  -4 -2.9385 5.77354   4
   4  -8  -4 -1.2830 2.97293   2
  -4  -8   4 -0.2546 2.39566   2
  -4  -8   4 5.96829 5.96319   4
   5  -8   4 52.8395 5.16576   2
  -5  -8  -4 58.8947 9.39408   4
  -5  -8  -4 51.8129 5.00371   2
  -5  -8  -4 63.3844 5.13584   2
   5  -8  -4 50.4895 5.07092   2
  -5  -8   4 52.5858 8.82038   4
  -5  -8   4 56.9715 4.37282   2
  -6  -8  -4 151.781 7.84755   2
   6  -8   4 135.428 8.16432   2
  -6  -8  -4 148.225 12.9176   4
  -6  -8   4 149.767 7.13224   2
   6  -8  -4 147.529 8.13117   2
  -6  -8   4 136.524 12.6540   4
   0   0   5 -1.6595 1.73259   1
   1   0   5 221.987 5.98336   1
  -1   0   5 219.893 5.80389   2
  -1   0   5 222.816 5.81297   1
   1   0   5 214.806 5.88723   2
  -2   0   5 193.250 5.62228   1
  -2   0   5 196.358 5.57382   2
   2   0   5 182.548 5.76712   1
  -2   0   5 190.529 5.92534   3
   2   0  -5 187.803 5.59246   1
  -2   0  -5 192.745 5.71345   1
  -2   0  -5 191.056 5.71896   1
   2   0   5 185.245 5.66459   2
  -2   0  -5 193.026 5.77072   2
  -3   0  -5 920.453 16.7307   1
   3   0   5 940.647 16.7759   2
   3   0  -5 935.664 16.5070   2
   3   0  -5 909.110 16.8022   3
  -3   0  -5 919.168 16.7154   2
  -3   0   5 939.795 16.9452   3
   3   0   5 910.923 16.8355   1
  -3   0   5 948.549 16.4683   1
   3   0  -5 967.795 16.5527   1
  -3   0   5 930.719 16.5197   2
  -4   0   5 122.284 5.15594   1
  -4   0  -5 119.749 5.46454   1
   4   0   5 124.848 5.46128   2
  -4   0   5 130.529 5.59431   3
   4   0  -5 117.966 5.13044   1
  -4   0   5 119.069 5.18191   2
   4   0  -5 126.169 5.51875   3
  -4   0  -5 125.354 5.49867   2
   4   0   5 122.175 5.61172   1
   5   0   5 1184.51 21.3460   1
   5   0  -5 1173.99 20.6723   1
  -5   0   5 1147.22 20.6622   1
  -5   0  -5 1153.79 21.2590   2
  -5   0   5 1146.09 20.7577   2
  -5   0  -5 1148.62 21.0870   1
   5   0  -5 1156.43 20.6650   2
   5   0   5 1175.48 21.1750   2
  -5   0   5 1164.45 21.3336   3
   6   0   5 3.86225 2.61080   2
  -6   0   5 5.88135 2.28997   2
  -6   0  -5 5.94725 2.64545   2
  -6   0   5 3.92033 2.44779   3
  -6   0  -5 3.36479 2.60565   2
   6   0   5 4.03903 1.28724   5
   6   0  -5 3.06750 2.22533   2
   6   0   5 2.39266 2.61127   1
   6   0  -5 3.12994 2.21221   1
  -6   0   5 2.17585 2.22313   1
  -6   0  -5 6.86765 2.78239   1
  -7   0  -5 127.758 6.72712   2
  -7   0   5 148.238 6.50202   2
   7   0  -5 135.450 6.24899   2
   7   0   5 126.923 6.71605   1
   7   0  -5 124.237 6.38366   1
  -7   0   5 119.428 6.18016   1
  -7   0   5 139.073 6.64352   3
  -7   0  -5 133.474 6.63754   1
  -8   0  -5 117.259 6.90633   2
  -8   0   5 130.433 7.02129   3
   8   0   5 124.425 6.94665   2
   8   0  -5 134.276 6.77661   1
  -8   0   5 141.722 6.76589   1
  -8   0  -5 130.383 6.94554   1
   8   0   5 136.926 7.25713   1
  -8   0   5 130.470 6.82583   2
  -9   0   5 209.405 8.56613   1
   9   0   5 210.204 9.28534   1
   9   0  -5 204.126 8.57569   1
  -9   0   5 227.620 9.32120   3
 -10   0   5 29.8492 4.78827   3
  10   0   5 28.9978 4.79932   1
 -10   0  -5 25.7399 4.48634   1
  10   0  -5 25.2886 4.52425   1
 -10   0   5 27.4776 4.35084   1
  11   0  -5 366.197 12.5957   1
  11   0   5 345.507 12.7163   1
 -11   0   5 348.318 12.0690   1
 -11   0  -5 330.742 12.4448   1
  12   0   5 141.017 9.30404   1
 -12   0  -5 134.504 9.29937   1
  12   0  -5 128.305 8.95726   1
 -12   0   5 147.653 8.85891   1
 -13   0  -5 573.344 17.5768   1
  13   0   5 549.310 17.4907   1
  13   0  -5 538.377 17.2559   1
 -13   0   5 576.849 17.2972   1
  14   0  -5 7.26502 5.10504   1
 -14   0   5 5.77153 4.64609   1
 -14   0  -5 10.7944 4.97804   1
  14   0   5 6.24092 4.86054   1
 -15   0   5 12.4843 5.24558   1
  15   0  -5 8.48319 5.21695   1
 -15   0  -5 8.81918 5.12919   1
  15   0   5 10.0202 5.48009   1
 -16   0   5 2.99840 4.98479   1
  16   0  -5 -0.8458 4.98162   1
  16   0   5 7.25766 5.85875   1
 -16   0  -5 1.03521 5.02563   1
 -17   0   5 182.424 12.4253   1
 -17   0  -5 182.054 12.3400   1
  17   0   5 210.401 13.4004   1
   0  -1  -5 1373.27 21.8172   2
   0  -1   5 1367.22 21.6346   2
   0  -1  -5 1369.41 21.7489   1
   0  -1   5 1334.23 22.2444   4
   0  -1   5 1374.15 21.5416   1
   1  -1   5 40.2166 3.12524   2
  -1  -1  -5 42.5102 3.22749   1
   1  -1   5 40.5168 3.18934   1
  -1  -1  -5 45.4298 3.24855   1
  -1  -1  -5 39.5341 2.85679   2
  -1  -1   5 44.5524 3.09296   1
  -1  -1   5 32.3771 2.65534   3
   1  -1  -5 42.9076 3.12702   1
  -1  -1   5 43.1043 3.13490   2
  -1  -1   5 42.2122 2.98088   4
   1  -1  -5 39.9311 3.20950   2
   2  -1   5 1.54110 1.98467   1
   2  -1   5 4.20701 2.36683   5
  -2  -1  -5 3.50756 2.00497   1
  -2   1   5 4.69022 2.16189   3
   2   1  -5 6.57792 1.96192   3
   2  -1   5 6.50690 1.96109   2
  -2  -1  -5 2.15149 1.91517   2
  -2  -1   5 10.5884 2.02680   1
   2  -1  -5 4.98052 1.99847   2
  -2  -1   5 5.80112 2.10736   3
  -2  -1   5 4.57666 1.81039   2
   2  -1  -5 7.56249 1.93748   1
  -3  -1  -5 787.907 14.5636   2
   3  -1   5 767.374 14.3942   2
   3  -1   5 789.191 14.1158   5
  -3   1   5 813.321 14.9744   3
  -3  -1  -5 772.750 14.4827   1
   3   1  -5 773.872 14.6175   3
   3  -1   5 741.678 14.4197   1
   3  -1  -5 787.298 14.2964   1
   3  -1  -5 764.715 14.3378   2
  -3  -1   5 781.972 14.2449   2
  -3  -1   5 788.542 14.7562   3
  -3  -1   5 788.073 14.0150   1
   4  -1   5 56.1537 4.42922   1
   4  -1   5 59.8516 4.40113   2
  -4   1   5 61.4286 4.16368   1
   4  -1   5 58.8854 3.69054   5
  -4   1   5 63.4127 4.46081   3
   4   1  -5 55.3502 4.26435   3
  -4  -1  -5 58.4980 4.19332   1
  -4  -1  -5 53.2768 3.95915   2
   4   1   5 68.2748 4.52475   1
   4  -1  -5 58.4463 3.88693   1
   4  -1  -5 51.9357 3.97900   2
  -4  -1   5 65.4124 4.47674   3
  -4  -1   5 57.7904 4.00716   2
  -4  -1   5 58.5570 3.86071   1
   4  -1  -5 59.9217 4.49104   3
  -4   1  -5 57.1945 4.34112   1
  -5   1   5 1.04086 2.23171   3
  -5  -1  -5 -2.3554 2.12284   1
   5  -1   5 -4.5618 1.93960   2
  -5  -1  -5 0.81209 2.35435   2
   5  -1   5 0.74875 2.30602   1
   5   1  -5 0.24363 2.16414   1
   5  -1   5 -1.6124 1.53696   5
  -5   1   5 2.24040 2.18294   1
   5  -1  -5 3.56930 2.03727   2
   5  -1  -5 -2.1811 1.91489   1
   5   1   5 0.29349 2.17726   1
  -5   1  -5 -2.6105 2.06893   1
  -5  -1   5 -1.1735 1.96554   2
  -5  -1   5 0.92642 2.20732   3
  -5  -1   5 -0.5622 1.94094   1
   6  -1   5 4.60919 1.62691   5
  -6   1   5 -0.3893 2.20939   2
  -6  -1  -5 0.92100 2.31344   1
   6   1  -5 5.08205 2.47722   1
  -6   1   5 2.86830 2.39973   3
   6  -1   5 2.81833 2.47612   2
  -6   1   5 2.33552 2.48980   1
  -6  -1  -5 4.25059 2.62650   2
   6  -1   5 0.20353 2.57267   1
   6  -1  -5 2.40263 2.26019   2
  -6   1  -5 1.62354 2.47490   1
  -6  -1   5 -1.5069 2.36225   3
  -6  -1   5 6.27094 2.39757   2
   6  -1  -5 2.17807 2.26707   1
   6   1   5 2.07543 2.50180   1
  -6  -1   5 1.86192 2.24956   1
  -7  -1  -5 181.364 7.57196   2
  -7  -1  -5 168.651 7.30557   1
  -7  -1  -5 169.328 7.41973   2
  -7   1   5 179.135 7.37940   1
   7  -1   5 189.829 7.69928   2
   7   1  -5 167.146 7.13066   1
  -7   1   5 182.159 7.50817   3
   7  -1   5 162.479 7.34058   1
  -7   1  -5 171.573 7.42676   1
  -7  -1   5 188.869 7.07762   1
  -7  -1   5 171.308 7.46288   3
   7  -1  -5 178.863 7.03872   1
   7  -1  -5 165.138 7.06954   2
   7   1   5 178.109 7.62842   1
  -7  -1   5 171.489 7.13907   2
   8  -1   5 85.6633 6.47788   2
  -8  -1  -5 119.704 6.89275   2
  -8   1   5 111.351 6.39238   1
   8  -1   5 110.850 6.80658   1
  -8  -1  -5 102.858 6.42257   1
  -8   1   5 92.6383 6.14122   3
   8   1  -5 108.897 6.37952   1
  -8  -1  -5 113.036 6.87701   2
   8   1   5 103.888 6.69493   1
  -8  -1   5 107.786 6.34214   2
   8  -1  -5 102.472 6.15132   1
  -8   1  -5 106.741 6.64450   1
   8  -1  -5 108.045 6.34125   2
  -8  -1   5 108.096 6.17646   1
  -8  -1   5 106.281 6.70930   3
   9  -1   5 308.821 10.9286   2
   9   1  -5 311.473 10.5417   1
  -9   1   5 302.300 10.6255   3
  -9  -1  -5 296.739 10.8610   2
  -9  -1  -5 291.948 10.3237   1
   9  -1   5 297.866 10.6374   1
  -9   1   5 297.163 10.5071   1
   9  -1  -5 295.977 10.3954   2
  -9  -1   5 313.636 10.6414   2
  -9   1  -5 315.991 10.8712   1
   9  -1  -5 315.486 10.3032   1
  -9  -1   5 330.377 10.3743   1
  -9  -1   5 298.970 10.8503   3
   9   1   5 316.565 11.0828   1
 -10   1   5 22.0782 4.44927   1
 -10  -1  -5 17.8634 4.28020   2
  10  -1   5 27.4412 4.57959   1
 -10   1   5 20.5435 4.31383   3
  10   1  -5 8.56949 3.84532   1
 -10  -1  -5 26.8756 4.55335   1
  10   1   5 24.0021 4.82810   1
 -10  -1   5 22.0706 4.08886   1
 -10  -1   5 19.8971 4.20412   2
  10  -1  -5 25.4682 4.27075   1
 -10   1  -5 19.6886 4.35587   1
  11  -1   5 155.272 9.16619   1
 -11  -1  -5 171.024 9.06103   1
 -11   1   5 176.656 9.36919   1
 -11  -1   5 155.380 8.62483   1
  11  -1  -5 147.533 8.55270   1
 -11   1  -5 160.394 9.37970   1
 -12  -1  -5 323.441 12.1543   1
  12  -1   5 301.039 12.3438   1
 -12   1   5 298.348 12.4078   1
 -12   1  -5 300.793 12.6835   1
 -12  -1   5 308.371 11.8602   1
  12  -1  -5 318.484 12.2295   1
  13  -1   5 -4.5018 3.98942   1
 -13   1   5 8.69803 4.66732   1
 -13  -1  -5 3.56173 4.08083   1
  13  -1  -5 7.98623 4.49980   1
 -13   1  -5 4.51294 4.70751   1
 -13  -1   5 1.78510 3.96129   1
  14  -1   5 25.8125 6.09687   1
 -14  -1  -5 41.1640 6.40448   1
 -14   1   5 31.8957 6.12475   1
 -14  -1   5 23.1092 5.54036   1
  14  -1  -5 27.6493 5.86785   1
 -14   1  -5 30.4303 6.71920   1
 -15  -1  -5 134.633 10.2255   1
  15  -1   5 134.686 10.9376   1
 -15   1   5 129.869 10.3626   1
 -15  -1   5 117.004 9.46539   1
  15  -1  -5 143.623 10.4045   1
 -16  -1  -5 0.53406 4.79546   1
 -16   1   5 3.17048 5.60623   1
  16  -1   5 5.62105 5.23776   1
  16  -1  -5 4.19908 5.17236   1
 -16  -1   5 5.57891 5.01148   1
 -17  -1  -5 0.36906 4.82439   1
  17  -1   5 -7.7224 4.54470   1
  17  -1  -5 -1.4264 4.91985   1
 -17  -1   5 -1.3909 4.49771   1
   0  -2  -5 0.57053 1.56758   2
   0  -2  -5 -1.4522 1.40335   1
   0  -2   5 -0.3993 2.19221   4
   0  -2   5 -0.0195 1.34070   3
   0  -2   5 0.34853 1.29845   1
   0  -2   5 0.19831 1.37542   2
   0  -2  -5 0.96071 1.73054   4
   0   2  -5 -0.5441 2.36167   5
   1  -2   5 681.849 12.1781   2
  -1  -2  -5 687.607 12.3447   2
   1  -2   5 698.349 14.0481   4
  -1  -2  -5 684.865 13.0800   4
   1   2  -5 676.473 12.0716   3
  -1  -2  -5 686.903 11.9346   1
   1  -2   5 703.288 11.6114   1
   1  -2   5 680.211 11.2996   3
  -1  -2   5 695.915 11.2535   1
  -1  -2   5 685.815 13.8942   4
   1  -2  -5 690.401 11.9082   1
  -1   2  -5 676.469 14.0514   5
   1  -2  -5 688.147 12.4420   2
   1  -2  -5 684.440 12.9982   4
  -1  -2   5 681.193 12.2134   3
  -1  -2   5 675.823 12.0354   2
  -2  -2  -5 224.919 6.11155   2
   2   2  -5 217.611 6.07720   3
   2  -2   5 235.771 6.05804   2
   2  -2   5 233.095 5.70601   1
  -2  -2  -5 237.585 5.79830   1
   2  -2  -5 229.356 6.16021   2
  -2  -2   5 223.439 7.11020   4
  -2  -2   5 230.949 5.19580   1
  -2  -2   5 222.955 5.81565   2
  -2  -2   5 233.011 6.32435   3
   2  -2  -5 227.649 5.75506   1
  -2   2  -5 206.768 7.08935   5
  -3  -2  -5 35.4636 2.85128   1
  -3   2   5 37.6772 3.27684   3
   3  -2   5 29.2256 2.79571   1
  -3  -2  -5 35.1466 3.05104   2
   3   2  -5 34.6669 3.03366   3
   3  -2   5 34.7957 3.06533   2
  -3  -2   5 34.6301 2.80230   2
  -3   2  -5 28.4808 3.22415   5
   3  -2  -5 38.9837 2.89535   1
  -3  -2   5 37.5033 2.88845   1
  -3  -2   5 33.0583 3.12595   3
   3  -2  -5 33.7136 2.89899   2
  -4  -2  -5 518.996 11.3657   2
  -4   2   5 524.843 11.5931   3
   4   2  -5 513.542 11.5071   3
  -4  -2  -5 521.699 10.8052   1
   4  -2   5 512.100 11.3515   2
   4  -2   5 527.339 11.0109   1
  -4   2  -5 513.523 11.2961   5
   4  -2  -5 523.855 10.8029   1
  -4  -2   5 522.178 10.9431   2
  -4  -2   5 532.674 11.8262   3
   4  -2  -5 499.515 11.1561   2
  -4  -2   5 539.834 10.3185   1
  -5  -2  -5 240.097 7.78106   2
  -5   2   5 242.738 7.71358   3
  -5  -2  -5 241.137 7.23897   1
   5  -2   5 254.468 7.54017   1
  -5   2   5 247.897 7.60339   1
   5  -2   5 233.871 7.74840   2
   5  -2  -5 251.008 7.22385   1
  -5  -2   5 247.678 6.69317   1
   5  -2  -5 242.480 7.53780   2
  -5  -2   5 242.010 7.27543   2
  -5  -2   5 236.972 7.99690   3
  -5   2  -5 252.228 7.33412   5
  -6  -2  -5 802.571 16.5291   2
  -6  -2  -5 753.221 15.4640   1
   6  -2   5 771.771 16.3641   2
   6  -2   5 776.373 15.9991   1
  -6   2   5 775.958 16.0391   1
   6  -2   5 781.289 15.2458   3
  -6   2   5 763.020 16.1912   3
  -6  -2   5 776.331 15.9053   2
   6  -2  -5 783.067 16.2426   2
  -6   2  -5 795.090 14.9129   5
  -6  -2   5 764.716 16.8072   3
  -6   2  -5 772.326 16.9081   1
   6  -2  -5 784.180 15.6307   1
  -6  -2   5 754.255 14.9697   1
  -7   2   5 52.3533 5.34315   1
   7  -2   5 53.3824 4.62229   1
  -7  -2  -5 50.7353 4.35421   1
  -7   2   5 45.0462 4.39512   3
  -7  -2  -5 45.0672 4.63547   2
   7  -2   5 54.1440 4.84895   2
  -7  -2   5 61.7355 5.24770   3
  -7  -2   5 56.2334 4.34315   1
   7   2   5 44.5563 3.36127   5
   7  -2  -5 49.8309 4.26747   1
  -7  -2   5 47.3507 4.43980   2
   7  -2  -5 56.1880 4.80262   2
   8  -2   5 384.000 11.2341   1
  -8  -2  -5 368.427 11.4380   2
  -8  -2  -5 359.126 10.6253   1
  -8   2   5 366.249 11.2268   3
  -8  -2  -5 379.529 11.5457   2
   8  -2   5 371.648 11.6090   2
   8  -2  -5 380.745 11.4939   2
  -8  -2   5 371.922 11.1862   2
  -8  -2   5 353.332 10.0268   1
  -8  -2   5 390.455 12.0006   3
   8  -2  -5 361.841 10.6421   1
  -9   2   5 148.124 7.87736   3
  -9  -2  -5 160.459 8.38167   2
  -9  -2  -5 139.076 7.27365   1
   9  -2   5 140.937 8.18795   2
   9  -2   5 145.790 7.71625   1
  -9  -2   5 142.202 7.05255   1
  -9  -2   5 154.068 8.52476   3
   9  -2  -5 157.226 8.19426   2
  -9  -2   5 136.979 7.72968   2
   9  -2  -5 139.327 7.40899   1
 -10   2   5 73.2454 6.39863   3
  10  -2   5 87.1168 7.29694   2
 -10  -2  -5 81.5129 7.04499   2
 -10  -2  -5 74.8685 6.13897   1
  10  -2   5 79.3881 6.49621   1
 -10  -2   5 79.1839 6.30601   1
  10  -2  -5 74.9772 6.70249   2
  10  -2  -5 79.8397 6.50668   1
 -10  -2   5 74.6744 6.53722   2
 -11  -2  -5 47.0068 5.41108   1
  11  -2   5 46.2804 5.99561   1
  11  -2   5 55.4056 6.55609   2
 -11  -2  -5 55.6483 6.67587   2
  11  -2  -5 44.3793 5.46792   1
 -11  -2   5 54.0851 6.09373   2
 -11  -2   5 55.4758 5.55794   1
 -12  -2  -5 71.1715 7.32773   2
 -12  -2  -5 74.6155 6.77595   1
  12  -2   5 67.4708 7.10860   1
  12  -2  -5 79.7896 7.04626   1
 -12  -2   5 76.9680 7.39286   2
 -12  -2   5 59.4249 6.20493   1
 -13  -2  -5 369.368 13.3251   1
  13  -2   5 345.194 13.8752   1
  13  -2  -5 363.688 13.5265   1
 -13  -2   5 349.995 12.8523   1
  14  -2   5 209.584 11.8040   1
 -14  -2  -5 218.821 11.0912   1
  14  -2  -5 225.544 11.4745   1
 -14  -2   5 216.413 10.9258   1
  15  -2   5 38.4086 6.88478   1
 -15  -2  -5 50.1393 6.68640   1
 -15  -2   5 50.1014 6.66247   1
  15  -2  -5 59.7193 7.76811   1
 -16  -2  -5 60.5200 7.70174   1
  16  -2   5 45.7636 7.20383   1
  16  -2  -5 48.3836 7.61632   1
 -16  -2   5 64.4115 7.46959   1
   0  -3   5 958.554 14.9044   3
   0  -3  -5 957.235 16.0425   2
   0  -3   5 925.791 15.4012   2
   0  -3   5 928.759 19.0871   4
   0  -3   5 958.097 15.6177   2
   0  -3  -5 939.239 18.2304   4
   0   3  -5 915.691 18.6451   5
   0  -3  -5 926.948 15.8829   2
  -1  -3  -5 32.9470 2.57238   2
   1   3  -5 34.6431 2.35845   3
  -1  -3  -5 34.3153 2.60348   2
   1  -3   5 32.1855 2.40036   2
   1   3  -5 31.0527 3.86856   5
   1  -3   5 31.7248 3.79524   4
   1  -3   5 36.7565 2.94768   2
  -1  -3  -5 36.1039 3.48015   4
  -1  -3   5 34.1012 3.78157   4
   1  -3  -5 30.9169 3.41390   4
  -1  -3   5 31.8003 2.53589   2
  -1  -3   5 35.4159 2.49660   3
  -1   3  -5 28.8831 3.56185   5
   1  -3  -5 32.7428 2.64655   2
  -1  -3   5 31.7990 2.30994   2
   1  -3  -5 28.9780 2.42637   2
   2  -3   5 0.92106 1.58149   2
  -2  -3  -5 -1.0958 1.67843   2
  -2  -3  -5 0.29600 1.57643   2
  -2  -3  -5 1.31837 2.29324   4
   2  -3   5 2.49192 1.82182   2
   2   3  -5 4.79342 2.78281   5
   2   3  -5 4.36836 1.69595   3
   2  -3  -5 3.65100 1.76499   2
  -2  -3   5 2.06356 1.52513   2
  -2   3  -5 0.73374 2.31978   5
  -2  -3   5 0.26098 2.44932   4
   2  -3  -5 0.46699 0.90606   1
  -2  -3   5 1.56434 1.82237   3
   2  -3  -5 3.03603 0.91055   1
   2  -3  -5 1.44866 1.66639   2
  -2  -3   5 0.65280 1.44343   2
   3  -3   5 573.583 11.5756   2
   3   3  -5 551.281 13.6847   5
  -3  -3  -5 579.544 8.87618   1
  -3  -3  -5 573.896 8.85049   1
  -3  -3  -5 568.218 11.5823   2
   3  -3   5 604.267 11.9234   2
  -3   3   5 575.794 12.2709   3
  -3  -3  -5 570.183 12.0025   2
   3   3  -5 554.186 11.7192   3
   3  -3  -5 581.225 11.7541   2
  -3   3  -5 577.175 13.2756   5
  -3  -3   5 555.407 13.9109   4
   3  -3  -5 593.164 10.2712   1
   3  -3  -5 588.187 10.1891   1
  -3  -3   5 576.393 11.2045   2
  -3  -3   5 585.917 11.1471   2
  -3  -3   5 577.729 12.1498   3
   4  -3   5 45.3567 2.75226   1
  -4  -3  -5 48.4609 2.66303   1
  -4  -3  -5 47.3232 3.64133   2
   4  -3   5 49.9889 2.75941   1
   4  -3   5 42.1861 3.53916   2
  -4   3   5 43.5904 3.74541   3
  -4  -3  -5 46.9272 2.56020   1
   4  -3   5 44.2991 2.61283   3
  -4  -3   5 44.9265 3.29169   2
   4  -3  -5 49.2781 3.86862   2
  -4  -3   5 50.2896 4.08316   3
  -4   3  -5 37.2293 3.95802   5
   4  -3  -5 49.6261 3.12795   1
  -5   3   5 -0.3043 2.18843   3
   5  -3   5 5.31569 1.93657   1
  -5  -3  -5 2.96683 1.77141   1
  -5  -3  -5 1.91110 2.17842   2
   5  -3   5 1.19101 2.13690   2
   5  -3  -5 2.37892 1.86121   1
  -5  -3   5 1.94809 1.33523   1
   5  -3  -5 0.65911 2.07847   2
  -5  -3   5 3.89891 2.07550   2
  -5   3  -5 0.62983 2.29759   5
  -6  -3  -5 1.92579 1.99182   1
  -6   3   5 2.72272 2.44929   3
  -6  -3  -5 2.20463 2.50281   2
   6  -3   5 1.50285 2.48988   2
   6  -3   5 1.13012 2.10888   1
   6   3   5 3.86179 2.25502   5
  -6  -3   5 1.42303 1.65586   1
   6  -3  -5 0.86324 1.94191   1
   6  -3  -5 1.95813 2.56498   2
  -6   3  -5 0.21177 2.43746   5
  -6  -3   5 4.88364 2.42717   2
   7  -3   5 132.724 7.05869   2
  -7   3   5 128.427 6.59299   3
   7  -3   5 129.500 6.10706   1
  -7  -3  -5 117.222 6.71854   2
  -7  -3  -5 133.477 5.66196   1
   7   3   5 130.421 5.68810   5
  -7  -3   5 121.878 5.04533   1
   7  -3  -5 126.432 5.83724   1
  -7  -3   5 135.000 6.59560   2
  -7   3  -5 124.982 6.39434   5
   7  -3  -5 139.915 7.19879   2
   8  -3   5 92.9123 6.90823   2
  -8  -3  -5 92.1770 6.84440   2
  -8   3   5 86.2558 6.39837   3
  -8  -3  -5 95.9316 5.54417   1
   8  -3   5 101.179 6.14683   1
   8  -3  -5 96.2993 6.87723   2
   8  -3  -5 102.550 5.89559   1
  -8  -3   5 93.8318 5.12898   1
  -8  -3   5 94.8402 6.44715   2
   9  -3   5 233.941 8.83240   1
  -9  -3  -5 216.294 8.16969   1
  -9  -3  -5 215.279 9.65696   2
   9  -3   5 255.018 10.3746   2
  -9   3   5 230.883 9.31926   3
  -9  -3  -5 227.165 9.81002   2
   9  -3  -5 212.469 8.49338   1
  -9  -3   5 211.386 9.30790   2
   9  -3  -5 224.280 9.94607   2
  -9  -3   5 207.033 7.67307   1
 -10   3   5 7.18111 3.84989   3
  10  -3   5 9.94169 4.26730   2
 -10  -3  -5 22.6187 4.83173   2
 -10  -3  -5 10.5820 3.54035   1
  10  -3   5 13.9808 3.91981   1
  10  -3  -5 16.1805 4.49351   2
 -10  -3   5 18.1754 3.51323   1
  10  -3  -5 5.29018 3.36943   1
 -10  -3   5 13.3006 3.99806   2
 -11  -3  -5 132.999 7.78996   1
  11  -3   5 137.226 9.36245   2
 -11  -3  -5 145.516 9.41696   2
  11  -3   5 128.770 8.37837   1
  11  -3  -5 116.861 7.57259   1
 -11  -3   5 128.868 7.39646   1
 -11  -3   5 131.296 8.89004   2
  11  -3  -5 118.096 8.88945   2
  12  -3   5 280.071 11.4704   1
 -12  -3  -5 265.843 12.4839   2
  12  -3   5 259.973 12.5183   2
 -12  -3  -5 261.218 10.6056   1
 -12  -3   5 265.742 10.2700   1
 -12  -3   5 301.937 12.4529   2
  12  -3  -5 254.816 10.8514   1
  12  -3  -5 258.819 12.3707   2
  13  -3   5 -2.3425 3.82733   1
 -13  -3  -5 6.32304 4.85258   2
 -13  -3  -5 1.55909 3.77790   1
 -13  -3   5 0.03477 4.22591   2
  13  -3  -5 2.86831 3.85333   1
 -13  -3   5 2.56917 3.88088   1
  14  -3   5 30.4944 5.96625   1
 -14  -3  -5 31.2613 5.40357   1
  14  -3  -5 28.5353 5.45496   1
 -14  -3   5 26.8187 5.16233   1
  15  -3   5 98.5377 9.05633   1
 -15  -3  -5 116.655 8.93053   1
 -15  -3   5 87.5145 7.77219   1
  15  -3  -5 90.1064 8.30800   1
  16  -3   5 -0.1715 5.04027   1
 -16  -3  -5 2.32807 4.61377   1
  16  -3  -5 6.08817 4.93793   1
 -16  -3   5 4.11992 4.44413   1
   0  -4   5 -1.1717 1.31129   2
   0  -4  -5 -0.0608 2.62057   4
   0  -4   5 7.02918 3.09030   4
   0  -4  -5 1.47251 1.56548   2
   0  -4  -5 -1.2162 1.56613   2
   0  -4   5 2.85653 1.52833   2
   0   4  -5 -0.6366 2.48699   5
   1  -4   5 77.2519 3.71932   2
   1  -4   5 87.5679 3.48327   2
   1   4  -5 78.2452 5.96991   5
  -1  -4  -5 83.7766 3.78767   2
   1  -4   5 83.4854 6.06653   4
  -1  -4  -5 74.9794 5.66935   4
  -1  -4   5 80.9169 3.29766   2
   1  -4  -5 80.0813 3.79246   2
  -1   4  -5 68.4528 5.47639   5
  -1  -4   5 80.6402 6.17316   4
   1  -4  -5 74.5220 5.62212   4
  -1  -4   5 90.0953 3.42580   2
   2  -4   5 95.3336 3.98641   2
   2  -4   5 84.2312 6.62610   4
   2   4  -5 89.1629 6.60061   5
  -2  -4  -5 83.4079 5.74270   4
  -2  -4  -5 94.1470 4.13571   2
   2  -4  -5 87.1631 4.19823   2
  -2   4  -5 77.6018 5.97196   5
  -2  -4   5 89.3559 3.71010   2
  -2  -4   5 88.2698 3.71596   2
  -2  -4   5 86.6579 6.38650   4
  -3  -4  -5 451.144 12.7220   4
  -3  -4  -5 455.947 10.0101   2
   3   4  -5 474.267 13.1934   5
  -3   4   5 455.415 10.8112   3
   3  -4   5 457.123 10.0909   2
   3  -4  -5 462.492 10.2861   2
  -3   4  -5 460.900 12.7813   5
  -3  -4   5 429.619 13.1141   4
  -3  -4   5 453.798 9.45808   2
   4  -4   5 67.4723 4.54184   2
   4   4  -5 63.2362 5.68500   5
  -4  -4  -5 57.0976 4.25574   2
  -4   4   5 58.3431 4.43096   3
  -4  -4  -5 56.4302 5.49747   4
  -4  -4   5 55.5859 5.64306   4
  -4   4  -5 52.0940 5.07795   5
  -4  -4   5 55.8072 3.90584   2
   4   4   5 57.8811 5.09899   5
   4  -4  -5 55.9729 4.22857   2
   5   4  -5 638.681 16.2143   5
   5  -4   5 637.446 14.3110   2
  -5  -4  -5 641.746 14.0386   2
  -5  -4   5 674.866 17.4461   4
  -5  -4   5 660.373 13.6183   2
   5   4   5 638.603 15.1551   5
  -5   4  -5 644.660 15.6673   5
   5  -4  -5 653.073 14.3360   2
   6  -4   5 4.32305 2.81660   2
  -6  -4  -5 2.89222 2.70080   2
   6   4   5 9.36933 3.02209   5
   6  -4  -5 7.22986 1.85366   1
  -6  -4   5 5.82650 2.52601   2
   6  -4  -5 7.61443 2.97048   2
  -6   4  -5 4.39308 3.25470   5
   7  -4   5 84.1009 3.97922   1
  -7  -4  -5 78.6888 5.99836   2
   7  -4   5 76.0933 5.96794   2
   7  -4  -5 78.2422 6.00553   2
   7  -4  -5 70.2656 4.15366   1
  -7  -4   5 69.7535 5.31579   2
  -7   4  -5 73.8077 5.89344   5
   8  -4   5 86.0393 4.86860   1
  -8  -4  -5 95.8785 7.00974   2
  -8  -4  -5 93.8278 3.94529   1
   8  -4   5 95.7811 7.16226   2
   8  -4  -5 92.7390 7.21119   2
   8  -4  -5 93.5680 5.12604   1
  -8  -4   5 91.9558 6.55019   2
  -9  -4  -5 139.809 8.39691   2
  -9  -4  -5 140.847 5.52320   1
   9  -4   5 151.431 6.61725   1
   9  -4   5 146.052 8.71819   2
  -9  -4  -5 142.257 8.49684   2
  -9  -4   5 140.748 8.03090   2
   9  -4  -5 146.391 6.66177   1
  -9  -4   5 150.384 4.68673   1
   9  -4  -5 126.052 8.52802   2
  10  -4   5 11.9884 4.45337   2
 -10  -4  -5 12.7314 4.52198   2
 -10  -4  -5 20.9315 3.30126   1
  10  -4   5 15.6710 3.67281   1
  10  -4  -5 16.9868 3.76604   1
 -10  -4   5 17.3873 4.48062   2
  10  -4  -5 23.1031 5.10284   2
 -10  -4   5 17.2320 2.87753   1
  11  -4   5 238.153 9.54812   1
  11  -4   5 231.951 11.4830   2
 -11  -4  -5 217.436 8.20972   1
 -11  -4  -5 248.918 11.4551   2
  11  -4  -5 244.553 9.52907   1
 -11  -4   5 225.718 10.8733   2
  11  -4  -5 242.702 11.5246   2
 -11  -4   5 239.127 7.74612   1
  12  -4   5 98.7941 8.82091   2
  12  -4   5 94.9369 7.16104   1
 -12  -4  -5 96.5635 6.64684   1
 -12  -4  -5 116.915 9.35734   2
  12  -4  -5 99.9009 8.89396   2
  12  -4  -5 95.1875 7.50127   1
 -12  -4   5 90.8239 6.07557   1
 -12  -4   5 89.5012 8.02281   2
 -13  -4  -5 370.683 15.2222   2
  13  -4   5 364.923 13.0221   1
  13  -4   5 391.576 15.6112   2
 -13  -4  -5 383.256 12.0072   1
  13  -4  -5 394.015 13.2114   1
 -13  -4   5 398.424 14.9962   2
 -13  -4   5 386.223 11.2249   1
  13  -4  -5 362.228 15.2398   2
 -14  -4  -5 11.5543 5.47714   2
  14  -4   5 6.41085 4.56919   1
 -14  -4  -5 5.06418 3.97630   1
  14  -4  -5 1.84907 4.21243   1
 -14  -4   5 -0.5637 4.51516   2
 -14  -4   5 -4.3061 3.39528   1
 -15  -4  -5 10.1538 4.57369   1
  15  -4   5 9.87781 4.82092   1
 -15  -4   5 3.71398 5.23544   2
  15  -4  -5 8.34001 4.65713   1
 -15  -4   5 6.77873 4.01505   1
   0  -5   5 519.062 15.6561   4
   0  -5  -5 522.223 10.5738   2
   0   5  -5 513.914 15.0878   5
   0  -5  -5 538.826 14.9440   4
   0  -5   5 526.772 9.82352   2
   1  -5   5 13.1961 2.00860   2
   1   5  -5 7.16426 3.44243   5
   1  -5   5 8.59029 4.04351   4
  -1  -5  -5 12.6551 4.15774   4
  -1  -5  -5 10.9392 2.20175   2
   1  -5  -5 10.7404 2.32286   2
   1  -5  -5 11.8451 4.02002   4
  -1  -5   5 12.2782 1.85187   2
   1   5   5 13.2361 4.02038   5
  -1   5  -5 5.39634 3.48524   5
  -1  -5   5 12.6666 4.02543   4
   2  -5   5 4.51471 1.97435   2
   2  -5   5 6.03288 3.98533   4
  -2  -5  -5 2.54655 3.56769   4
  -2  -5  -5 7.55149 2.16348   2
   2   5  -5 -0.8019 3.14542   5
  -2   5  -5 11.1618 3.85100   5
   2  -5  -5 3.45027 2.11134   2
  -2  -5   5 5.97781 3.76628   4
  -2  -5   5 4.96948 1.76681   2
   2   5   5 5.91977 3.43053   5
   3   5  -5 312.063 11.8525   5
   3  -5   5 334.236 8.47942   2
  -3  -5  -5 315.734 11.7032   4
  -3  -5  -5 324.543 8.37095   2
   3  -5  -5 325.108 8.62327   2
   3   5   5 321.163 11.5515   5
  -3  -5   5 314.201 12.3229   4
  -3   5  -5 332.563 11.9109   5
  -3  -5   5 329.747 7.79009   2
  -4  -5  -5 21.7049 3.13672   2
  -4  -5  -5 24.6461 4.86457   4
   4  -5   5 24.9800 3.43984   2
   4   5  -5 21.3256 4.69900   5
   4   5   5 27.4923 4.32416   5
  -4  -5   5 24.4197 2.87501   2
  -4  -5   5 18.0217 4.87578   4
   4  -5  -5 25.6273 3.27229   2
  -4   5  -5 22.6883 4.61330   5
  -5  -5  -5 -0.7066 2.37806   2
   5  -5   5 -0.3151 2.59027   2
   5   5  -5 0.80146 3.73585   5
  -5  -5  -5 -8.3077 3.06263   4
  -5  -5   5 0.44255 4.01957   4
  -5   5  -5 -0.4458 3.36557   5
  -5  -5   5 0.61057 2.28996   2
   5  -5  -5 0.90982 2.36088   2
   5   5   5 -1.2914 3.08089   5
   6  -5   5 2.88759 2.89561   2
  -6  -5  -5 3.48307 2.90555   2
  -6  -5  -5 2.65976 4.48687   4
   6  -5  -5 -0.5164 2.81933   2
  -6   5  -5 3.40605 3.75759   5
  -6  -5   5 1.30069 2.49829   2
  -6  -5   5 6.68964 4.49855   4
   6   5   5 4.01359 3.55886   5
  -7  -5  -5 88.3178 6.44466   2
  -7  -5  -5 96.2788 8.57390   4
   7  -5   5 106.072 7.12474   2
   7  -5  -5 84.8482 6.47208   2
  -7  -5   5 105.306 8.67426   4
  -7  -5   5 92.4104 6.10942   2
  -7   5  -5 94.9576 7.37711   5
  -8  -5  -5 46.4252 5.46841   2
   8  -5   5 51.7383 5.81135   2
  -8   5   5 59.0036 6.49586   5
   8  -5  -5 43.7934 5.36346   2
  -8  -5   5 53.1288 5.22098   2
  -8  -5   5 44.4524 7.05763   4
   9  -5   5 193.741 9.76561   2
  -9  -5  -5 199.089 9.63972   2
  -9  -5  -5 177.779 9.34437   2
   9  -5  -5 208.354 10.0992   2
  -9  -5   5 188.349 9.11727   2
 -10  -5  -5 17.3586 4.82312   2
  10  -5   5 16.3613 4.79432   2
 -10  -5   5 13.5442 4.33664   2
  10  -5  -5 5.46591 4.28668   2
 -11  -5  -5 92.0146 8.05338   2
  11  -5   5 87.7861 8.17322   2
 -11  -5   5 111.790 8.59834   2
  11  -5  -5 86.3045 8.18295   2
 -12  -5  -5 179.456 10.9677   2
  12  -5   5 182.433 11.6247   2
  12  -5  -5 213.877 8.20604   1
  12  -5  -5 206.255 11.6616   2
 -12  -5   5 170.457 10.5926   2
 -13  -5  -5 -3.9479 4.49680   2
  13  -5   5 7.06258 5.22840   2
  13  -5  -5 13.2777 5.44216   2
 -13  -5   5 5.21666 4.78220   2
  13  -5  -5 0.82580 3.65474   1
   0  -6   5 2.12524 1.74610   2
   0  -6  -5 -1.7933 2.01224   2
   0  -6   5 9.51047 4.47256   4
   0  -6  -5 3.56946 4.05814   4
  -1  -6  -5 238.406 6.87986   2
  -1  -6  -5 231.646 11.1902   4
   1  -6   5 224.548 11.4666   4
   1  -6   5 238.079 6.32220   2
   1  -6  -5 234.567 11.4505   4
  -1  -6   5 239.262 11.6895   4
  -1  -6   5 231.124 5.91052   2
   1  -6  -5 222.533 6.84521   2
  -2  -6  -5 86.8527 7.97479   4
  -2  -6  -5 85.0127 4.65027   2
   2  -6   5 71.1604 4.42967   2
  -2  -6   5 83.9607 3.99080   2
  -2  -6   5 65.6143 7.31240   4
   2  -6  -5 81.0611 4.81393   2
   3  -6   5 8.74562 2.82386   2
  -3  -6  -5 4.68426 4.41151   4
  -3  -6  -5 5.99785 2.48298   2
  -3  -6   5 6.53118 2.22184   2
  -3  -6   5 4.35361 4.49110   4
   3  -6  -5 6.52733 2.67111   2
  -4  -6  -5 204.230 7.33131   2
  -4  -6  -5 202.873 10.9432   4
   4  -6   5 196.081 7.48988   2
  -4  -6   5 196.082 6.68976   2
  -4  -6   5 213.360 11.5617   4
   4  -6  -5 193.005 7.47616   2
  -5  -6  -5 79.6074 5.86332   2
  -5  -6  -5 100.224 9.07574   4
   5  -6   5 83.1252 5.96838   2
  -5  -6   5 76.4710 8.29540   4
   5  -6  -5 72.2653 5.64744   2
  -5  -6   5 73.5105 5.07573   2
  -6  -6  -5 322.144 10.3657   2
  -6  -6  -5 320.375 14.0632   4
   6  -6   5 306.007 10.5352   2
   6  -6  -5 314.318 10.4492   2
  -6  -6   5 328.975 9.75252   2
  -6  -6   5 308.335 13.9710   4
  -7  -6  -5 27.5052 6.49768   4
   7  -6   5 16.3152 4.06774   2
  -7  -6  -5 23.3091 4.27585   2
  -7  -6   5 15.9265 3.62086   2
  -7  -6   5 14.7239 5.71080   4
   7  -6  -5 19.2789 4.14712   2
  -8  -6  -5 175.980 11.9210   4
  -8  -6  -5 184.223 8.95508   2
   8  -6   5 164.631 9.11126   2
  -8  -6  -5 172.120 8.79400   2
   8  -6  -5 162.140 8.77934   2
  -8  -6   5 162.084 11.7654   4
  -8  -6   5 183.912 8.51857   2
   9  -6   5 67.5646 6.96641   2
  -9  -6  -5 71.3247 6.58286   2
  -9  -6  -5 59.4116 8.78535   4
  -9  -6   5 77.0372 6.49104   2
  -9  -6   5 64.0599 8.55190   4
   9  -6  -5 63.5050 6.61257   2
  10  -6   5 40.9684 6.18503   2
 -10  -6  -5 35.2119 5.88667   2
 -10  -6  -5 36.3778 7.84685   4
 -10  -6   5 36.7147 7.53272   4
 -10  -6   5 38.7576 5.52090   2
  10  -6  -5 34.2886 5.55809   2
 -11  -6  -5 25.1998 5.48851   2
  11  -6   5 25.9961 6.04409   2
 -11  -6  -5 34.2059 8.46140   4
  11  -6  -5 34.1679 5.92712   2
 -11  -6   5 36.0312 7.95230   4
 -11  -6   5 33.8359 5.48197   2
 -12  -6  -5 42.5004 6.43571   2
  12  -6   5 38.8565 7.06905   2
 -12  -6   5 33.8802 5.85339   2
 -12  -6   5 30.4175 8.00663   4
  12  -6  -5 30.9721 6.36132   2
   0  -7  -5 370.191 15.2012   4
   0  -7   5 369.828 8.07450   2
   0  -7  -5 351.262 9.02350   2
   0  -7   5 333.132 15.4956   4
  -1  -7  -5 14.1376 2.85489   2
   1  -7   5 10.8318 5.75539   4
  -1  -7  -5 27.5762 6.24004   4
   1  -7   5 12.7664 2.54224   2
  -1  -7   5 18.6382 6.07387   4
  -1  -7   5 16.2315 2.41447   2
   1  -7  -5 18.3984 3.09893   2
  -2  -7  -5 0.22719 2.32588   2
   2  -7   5 1.19645 2.45438   2
  -2  -7  -5 0.02031 4.68961   4
  -2  -7   5 -0.7954 4.87124   4
  -2  -7   5 4.69127 2.03640   2
   2  -7  -5 1.76434 2.42867   2
  -3  -7  -5 204.441 7.34448   2
  -3  -7  -5 208.867 12.4544   4
   3  -7   5 236.275 7.81379   2
  -3  -7   5 197.900 12.3376   4
   3  -7  -5 213.237 7.69370   2
  -3  -7   5 213.904 6.49150   2
   4  -7   5 25.5949 3.82208   2
  -4  -7  -5 19.3229 3.49832   2
  -4  -7  -5 19.3708 6.25859   4
  -4  -7   5 19.7063 6.38404   4
  -4  -7   5 20.1739 3.05400   2
   4  -7  -5 18.1011 3.64474   2
  -5  -7  -5 3.05675 3.08411   2
   5  -7   5 -0.4099 3.18398   2
  -5  -7  -5 1.39881 5.54433   4
  -5  -7   5 5.55538 5.64345   4
  -5  -7   5 -0.7636 2.57877   2
   5  -7  -5 0.36309 3.18432   2
  -6  -7  -5 -4.3312 5.09610   4
  -6  -7  -5 -3.5108 3.00199   2
   6  -7   5 -2.3543 3.36791   2
  -6  -7   5 -3.5468 2.74418   2
   6  -7  -5 1.82150 3.50922   2
  -6  -7   5 -2.6212 5.09879   4
  -7  -7  -5 61.0614 8.73936   4
  -7  -7  -5 43.5607 5.16898   2
  -7  -7  -5 50.1282 5.30648   2
   7  -7   5 46.9601 5.83975   2
   7  -7  -5 53.3597 5.68048   2
  -7  -7   5 50.8437 5.09112   2
  -7  -7   5 52.2697 8.31429   4
  -8  -7  -5 46.9446 5.77687   2
  -8  -7  -5 44.9015 5.44553   2
  -8  -7  -5 46.6356 8.80667   4
   8  -7   5 43.6067 6.00382   2
  -8  -7   5 52.1143 5.36904   2
   8  -7  -5 55.0383 6.13321   2
  -8  -7   5 36.4330 7.74272   4
  -9  -7  -5 80.2453 10.1182   4
  -9  -7  -5 87.6148 7.50422   2
   9  -7   5 87.4137 7.74428   2
  -9  -7   5 85.9199 10.5801   4
   9  -7  -5 88.2666 7.80124   2
  -9  -7   5 91.7432 7.21578   2
   0  -8  -5 -0.0101 5.49671   4
   0  -8  -5 2.38354 2.50987   2
   0  -8   5 0.16100 5.79232   4
   0  -8   5 -1.3857 2.10057   2
   1  -8   5 10.6188 2.76060   2
  -1  -8  -5 11.1923 3.05404   2
  -1  -8  -5 25.9303 7.11637   4
  -1  -8   5 18.6122 6.94427   4
   1  -8  -5 14.7416 3.20951   2
  -1  -8   5 19.9506 2.51444   2
  -2  -8  -5 17.1436 6.53452   4
  -2  -8  -5 24.2311 3.47607   2
   2  -8   5 26.4164 3.52003   2
  -2  -8   5 21.9909 2.71763   2
  -2  -8   5 6.17721 6.02493   4
   2  -8  -5 20.4411 3.47750   2
  -3  -8  -5 139.310 6.60814   2
   3  -8   5 143.123 6.89407   2
  -3  -8  -5 140.427 11.8948   4
   3  -8  -5 143.629 6.83047   2
  -3  -8   5 160.775 5.57419   2
  -3  -8   5 154.580 12.1932   4
  -4  -8  -5 14.7151 6.46354   4
  -4  -8  -5 7.97511 3.42775   2
   4  -8   5 14.6335 3.81563   2
  -4  -8   5 10.6058 2.81381   2
  -4  -8   5 8.66686 6.50884   4
   4  -8  -5 9.85100 3.56484   2
  -5  -8  -5 183.716 13.6302   4
   5  -8   5 211.922 9.08338   2
  -5  -8  -5 224.951 8.74937   2
  -5  -8   5 197.959 7.51556   2
   5  -8  -5 227.885 9.05836   2
  -5  -8   5 195.833 13.9885   4
   0   0   6 4099.09 60.6229   1
   0   0  -6 4136.64 60.6628   2
   0   0   6 4027.18 60.5701   2
   0   0  -6 4137.77 60.5934   1
  -1   0   6 4412.42 63.8222   1
  -1   0  -6 4259.16 63.8101   2
   1   0   6 4333.44 63.9250   1
  -1   0  -6 4238.05 63.8006   1
   1   0  -6 4421.28 63.8146   1
   1   0   6 4289.51 63.7876   2
   1   0  -6 4332.84 63.8175   2
  -1   0   6 4312.38 63.7906   2
  -2   0   6 87.0023 4.38117   1
  -2   0  -6 95.5981 4.61860   1
   2   0  -6 91.3758 4.27269   1
   2   0   6 89.3985 4.37789   1
  -2   0  -6 90.9150 4.58008   1
  -2   0   6 83.2198 4.34559   2
  -2   0   6 87.3748 4.63959   3
  -2   0  -6 89.7826 4.63762   2
  -3   0   6 86.3762 4.58640   3
   3   0   6 80.4722 4.73073   1
   3   0  -6 91.9856 4.70242   3
  -3   0   6 87.2322 4.43215   1
  -3   0  -6 86.6647 4.73096   2
   3   0   6 81.9709 4.63602   2
  -4   0   6 367.878 9.01972   2
  -4   0  -6 353.913 9.29150   2
  -4   0   6 355.155 8.91649   1
   4   0   6 363.958 9.43086   1
   4   0  -6 360.287 8.99764   2
  -4   0   6 342.500 9.29419   3
  -4   0  -6 356.312 9.22269   1
   4   0   6 360.640 9.32868   2
  -5   0  -6 12.8435 2.76577   1
  -5   0   6 14.4580 2.81577   1
  -5   0   6 17.0683 2.85811   2
   5   0   6 16.1824 3.04385   2
  -5   0   6 12.1673 2.70963   3
   5   0   6 17.1762 3.08350   1
  -5   0  -6 15.8340 2.93713   2
   5   0  -6 17.2026 2.80858   2
   5   0  -6 19.9626 2.98916   1
   6   0   6 2.93263 2.65848   1
   6   0  -6 1.44777 2.26801   2
  -6   0   6 4.78711 2.45409   2
   6   0  -6 4.19240 2.50392   1
  -6   0  -6 2.76738 2.45196   1
   6   0   6 6.09047 2.68482   2
  -6   0  -6 -1.0943 2.34588   2
  -6   0   6 -0.9268 2.26001   1
  -6   0   6 3.61706 2.41630   3
   7   0  -6 634.874 14.4944   2
  -7   0  -6 631.525 14.8966   1
   7   0  -6 640.667 14.3515   1
  -7   0   6 637.010 15.1905   3
   7   0   6 623.939 14.9667   2
   7   0   6 616.951 14.9542   1
  -7   0  -6 659.706 15.1603   2
  -7   0  -6 622.709 14.9214   2
  -7   0   6 631.530 14.5768   2
  -7   0   6 634.702 14.4412   1
   8   0   6 850.883 18.6524   1
  -8   0  -6 803.930 18.2557   1
  -8   0   6 845.544 18.1083   2
  -8   0   6 806.645 18.5373   3
  -8   0  -6 812.369 18.5371   2
  -8   0   6 826.625 18.0105   1
   8   0  -6 821.105 17.9880   1
  -9   0  -6 2177.02 38.7050   1
  -9   0   6 2156.89 39.0155   3
  -9   0   6 2140.29 38.2144   1
   9   0  -6 2171.66 38.3125   1
   9   0   6 2237.16 39.2056   1
 -10   0  -6 -4.4572 2.87248   1
 -10   0   6 4.48407 3.34703   1
  10   0  -6 -1.7897 2.99900   1
  10   0   6 -3.4256 3.30254   1
  11   0   6 5.91282 4.01475   1
 -11   0   6 5.95631 3.70596   1
 -11   0  -6 9.68431 4.09599   1
  11   0  -6 -0.5779 3.39919   1
  12   0  -6 -1.5225 3.68377   1
 -12   0  -6 3.58252 4.11645   1
  12   0   6 -1.5413 3.86569   1
 -12   0   6 4.69400 3.93412   1
  13   0   6 23.9792 5.61227   1
 -13   0   6 16.7860 5.09997   1
  13   0  -6 15.8458 5.31424   1
 -13   0  -6 17.6250 5.36552   1
 -14   0   6 19.6043 5.52455   1
 -14   0  -6 41.4548 6.49137   1
  14   0  -6 30.9387 6.21849   1
  14   0   6 32.0487 6.47731   1
  15   0  -6 8.16658 5.27569   1
  15   0   6 6.67380 5.43940   1
 -15   0  -6 19.0055 5.83300   1
 -15   0   6 11.1195 5.44907   1
  16   0   6 70.2079 8.78702   1
 -16   0  -6 86.8523 9.01647   1
  16   0  -6 78.7412 9.01302   1
 -16   0   6 84.8375 8.89427   1
 -17   0  -6 206.404 13.0687   1
  17   0   6 184.040 12.9815   1
 -17   0   6 215.861 13.0052   1
   0  -1   6 -2.6399 1.76104   1
   0  -1  -6 -1.1740 1.83504   1
   0  -1   6 0.00926 1.67944   4
   0  -1   6 -4.8323 1.67786   2
   0  -1  -6 -2.1659 1.76507   2
  -1  -1  -6 1385.72 22.5511   1
  -1  -1  -6 1372.61 22.6641   2
   1  -1   6 1371.27 22.5019   1
  -1  -1  -6 1375.92 22.5692   1
   1  -1   6 1407.90 22.5942   2
  -1  -1   6 1352.78 22.4057   2
  -1  -1   6 1346.76 22.6575   4
  -1  -1   6 1428.82 22.4768   1
  -1  -1   6 1378.65 22.6826   3
   1  -1  -6 1384.56 22.6302   2
   1  -1  -6 1410.43 22.6581   1
  -2  -1  -6 0.71767 1.89518   2
  -2  -1  -6 4.96510 2.07081   1
   2   1  -6 3.01065 1.99338   3
   2  -1   6 5.71481 2.27566   1
   2  -1   6 3.20323 1.99617   2
  -2   1   6 1.39817 2.10667   3
   2  -1  -6 3.03382 1.92258   2
  -2  -1   6 1.87479 2.00848   3
  -2  -1   6 4.46165 1.94036   1
  -2  -1   6 2.37768 1.86995   2
   2  -1  -6 4.81918 2.02468   1
   3   1  -6 409.249 9.63388   3
  -3   1   6 419.070 9.98441   3
   3  -1   6 422.252 9.77656   1
  -3  -1  -6 393.180 9.46969   1
  -3   1   6 422.008 9.51595   1
   3  -1   6 427.336 9.62751   2
  -3  -1  -6 412.981 9.61271   2
   3  -1  -6 423.122 9.53636   2
  -3  -1   6 411.401 9.74920   3
  -3  -1   6 397.822 9.25488   2
   3   1   6 398.618 9.48291   1
   3  -1  -6 414.778 9.38858   1
  -3  -1   6 420.902 9.15805   1
   4  -1   6 0.33800 2.40455   1
   4   1  -6 1.65234 2.08571   1
  -4  -1  -6 7.59917 2.50712   2
   4  -1   6 2.31408 2.38298   2
  -4   1   6 3.80253 2.25423   3
  -4  -1  -6 2.86357 2.30226   1
   4  -1   6 4.59542 2.20794   5
  -4   1   6 5.17846 2.31784   1
   4   1   6 -0.3891 2.28339   1
  -4  -1   6 5.81509 2.46301   3
  -4   1  -6 5.78082 2.36238   1
  -4  -1   6 2.22182 2.09848   1
  -4  -1   6 4.91029 2.10777   2
   4  -1  -6 7.91867 2.46794   2
   4  -1  -6 4.33974 2.15749   1
  -5  -1  -6 1145.42 21.6143   2
   5  -1   6 1179.69 21.5762   1
   5   1  -6 1149.97 20.9876   1
   5  -1   6 1158.02 21.6224   2
  -5   1   6 1154.00 21.7468   3
  -5  -1  -6 1123.45 21.2740   1
   5  -1   6 1196.37 19.3928   5
  -5   1   6 1186.85 21.3302   1
  -5  -1   6 1177.09 21.8686   3
   5  -1  -6 1140.83 21.1857   2
  -5  -1   6 1182.87 21.0009   1
  -5  -1   6 1173.03 21.1510   2
   5   1   6 1221.73 21.8372   1
  -5   1  -6 1159.17 21.5811   1
   5  -1  -6 1196.29 21.1708   1
   6  -1   6 262.306 8.65190   1
  -6   1   6 274.775 8.50326   1
  -6  -1  -6 252.280 8.37885   1
  -6   1   6 271.637 8.72203   3
   6  -1   6 271.067 6.54836   5
  -6  -1  -6 266.782 8.79471   2
   6  -1   6 266.049 8.69659   2
  -6   1   6 270.686 8.28463   2
   6   1  -6 258.679 8.30874   1
  -6  -1   6 268.833 8.36808   2
   6   1   6 254.223 8.69610   1
  -6  -1   6 253.027 8.77662   3
   6  -1  -6 261.765 8.34701   2
  -6  -1   6 273.049 8.16770   1
   6  -1  -6 264.703 8.30082   1
  -6   1  -6 267.199 8.66253   1
  -7  -1  -6 558.273 13.9396   2
   7  -1   6 561.653 13.8816   2
   7   1  -6 583.291 13.5655   1
  -7   1   6 544.067 13.3952   1
  -7   1   6 532.796 13.5856   3
  -7  -1  -6 567.922 13.5652   1
   7  -1   6 535.940 13.7084   1
   7  -1  -6 552.428 13.3512   1
   7   1   6 557.683 14.0310   1
  -7  -1   6 543.001 13.9109   3
  -7  -1   6 534.897 12.9117   1
   7  -1  -6 565.189 13.4460   2
  -7  -1   6 551.582 13.3647   2
  -7   1  -6 550.713 13.7859   1
  -8  -1  -6 13.7239 3.60990   2
   8  -1   6 2.25259 3.03658   2
  -8   1   6 8.05034 3.30531   3
  -8  -1  -6 6.81034 3.25216   2
   8   1  -6 6.29446 3.05690   1
  -8  -1  -6 0.29984 2.66677   1
   8  -1   6 7.93223 3.27051   1
  -8   1   6 4.06509 2.81413   1
   8   1   6 1.25279 2.93795   1
  -8   1  -6 9.40530 3.19265   1
  -8  -1   6 6.77625 3.25037   3
   8  -1  -6 10.9923 3.18163   1
   8  -1  -6 3.33149 2.74818   2
  -8  -1   6 5.14993 2.84067   1
  -8  -1   6 5.57813 2.80308   2
  -9   1   6 282.410 10.0312   1
   9  -1   6 253.843 10.1881   2
   9  -1   6 249.558 9.96582   1
  -9   1   6 260.678 10.0298   3
  -9  -1  -6 247.779 9.76225   1
  -9  -1  -6 258.385 10.3348   2
   9   1  -6 253.084 9.77139   1
  -9  -1   6 252.446 9.39645   1
  -9  -1   6 237.936 9.95627   3
   9  -1  -6 261.702 9.90352   2
   9   1   6 257.235 10.2766   1
  -9  -1   6 255.222 9.71872   2
   9  -1  -6 261.017 9.68522   1
  -9   1  -6 254.396 10.1151   1
  10  -1   6 113.839 7.98987   1
 -10  -1  -6 119.563 8.14515   2
 -10  -1  -6 123.507 7.74098   1
 -10   1   6 113.932 7.60566   1
 -10  -1   6 111.978 7.23684   1
  10  -1  -6 124.542 7.65164   1
 -10   1  -6 130.201 8.18942   1
 -10  -1   6 109.559 7.59612   2
  10   1   6 125.094 8.31475   1
 -11  -1  -6 3.57327 3.81182   1
 -11   1   6 6.22564 3.83731   1
  11  -1   6 4.95728 4.00202   1
 -11  -1   6 4.58265 3.50814   1
  11  -1  -6 5.09951 3.89327   1
 -11   1  -6 3.79782 3.77580   1
 -12   1   6 40.7163 5.77781   1
  12  -1   6 37.0052 5.95612   1
 -12  -1  -6 32.8181 5.48158   1
 -12  -1   6 32.4340 5.33377   1
  12  -1  -6 35.1072 5.58440   1
 -12   1  -6 28.0506 5.61421   1
 -13   1   6 228.646 11.8404   1
  13  -1   6 245.329 11.9518   1
 -13  -1  -6 262.394 11.7976   1
 -13   1  -6 241.083 12.2091   1
 -13  -1   6 227.529 11.0020   1
  13  -1  -6 254.432 11.8691   1
 -14   1   6 0.99526 4.40824   1
  14  -1   6 2.05374 4.76539   1
 -14  -1  -6 7.37354 4.79147   1
  14  -1  -6 3.95084 4.57288   1
 -14  -1   6 1.66313 4.20162   1
 -15   1   6 8.88602 5.31383   1
 -15  -1  -6 -1.8333 4.48956   1
  15  -1   6 0.33732 5.07932   1
  15  -1  -6 2.28988 4.97569   1
 -15  -1   6 3.40918 4.56515   1
  16  -1   6 77.4316 8.87551   1
 -16  -1  -6 91.2612 9.08074   1
 -16   1   6 88.2216 10.0772   1
 -16  -1   6 87.3017 8.79777   1
  16  -1  -6 96.6270 9.52399   1
  17  -1   6 14.6602 6.37789   1
 -17  -1  -6 10.1233 5.21333   1
 -17  -1   6 11.1309 5.66035   1
  17  -1  -6 18.4810 6.37311   1
   0  -2   6 25.8594 2.46523   2
   0  -2  -6 25.8306 2.43339   1
   0  -2  -6 24.6468 2.52778   2
   0  -2   6 23.2160 2.18531   3
   0  -2   6 19.0343 2.85268   4
   0  -2  -6 21.3644 2.35877   1
   0  -2  -6 27.7195 2.56099   4
   0  -2   6 24.7664 2.27698   1
   1  -2   6 310.227 7.24344   2
  -1  -2  -6 301.923 7.29386   4
   1  -2   6 312.179 6.92174   1
   1  -2   6 297.991 8.22843   4
  -1  -2  -6 305.617 7.44805   2
  -1  -2  -6 310.642 7.10157   1
  -1  -2   6 304.655 7.19003   3
  -1  -2   6 306.325 7.08020   2
  -1  -2   6 302.468 6.50252   1
   1  -2  -6 295.002 7.29243   2
   1  -2  -6 308.308 7.04632   1
   1  -2  -6 303.603 7.27679   4
  -1  -2   6 303.912 8.13005   4
  -2  -2  -6 26.4494 2.79531   2
   2  -2   6 29.2615 2.69291   1
  -2  -2  -6 30.9548 2.74577   1
   2   2  -6 31.6342 2.74737   3
   2  -2   6 25.3199 2.64677   2
  -2  -2   6 24.9563 2.18107   1
  -2  -2   6 27.5448 2.54112   2
   2  -2  -6 29.0928 2.73864   2
  -2  -2   6 26.4561 2.78757   3
   2  -2  -6 36.2151 2.78312   1
  -2  -2   6 31.3459 3.31361   4
   3   2  -6 518.568 11.0370   3
  -3  -2  -6 501.424 10.9089   2
  -3   2   6 512.369 11.4052   3
   3  -2   6 508.781 10.6339   1
   3  -2   6 488.107 10.8184   2
  -3  -2  -6 499.352 10.5367   1
  -3  -2   6 526.035 9.99200   1
  -3  -2   6 494.080 10.5428   2
   3  -2  -6 496.636 10.9033   2
   3  -2  -6 499.993 10.3654   1
  -3  -2   6 528.810 11.2607   3
  -4  -2  -6 8.39990 2.50370   2
  -4  -2  -6 2.29214 2.03886   1
   4  -2   6 7.84639 2.44181   2
   4  -2   6 5.69541 2.33657   1
  -4   2   6 6.69908 2.33534   3
   4  -2  -6 3.29969 2.13818   2
  -4  -2   6 4.32431 2.11383   2
  -4  -2   6 3.88998 1.89356   1
   4  -2  -6 2.57562 1.89497   1
  -4  -2   6 7.96251 2.48424   3
   5  -2   6 162.126 6.62127   2
  -5  -2  -6 184.450 6.38907   1
  -5  -2  -6 164.938 6.73241   2
  -5   2   6 163.936 6.46918   1
   5  -2   6 185.917 6.68512   1
  -5   2   6 168.913 6.75398   3
   5  -2  -6 171.975 6.17595   1
   5  -2  -6 171.348 6.51610   2
  -5  -2   6 166.632 6.34651   2
  -5  -2   6 167.501 5.72725   1
  -5   2  -6 167.522 6.67474   1
  -5  -2   6 175.450 6.96493   3
   6  -2   6 272.537 8.98301   2
   6  -2   6 273.237 8.66251   1
  -6   2   6 270.203 8.78233   1
  -6   2   6 270.682 8.91990   3
  -6  -2  -6 285.792 8.53651   1
  -6  -2  -6 283.780 9.12493   2
  -6  -2   6 299.415 9.47025   3
   6  -2  -6 292.152 8.47805   1
   6  -2  -6 273.699 8.73027   2
  -6  -2   6 285.458 7.99549   1
  -6  -2   6 288.507 8.70072   2
  -7  -2  -6 114.147 6.09862   1
  -7   2   6 121.600 6.49850   3
   7  -2   6 111.627 6.64284   2
   7  -2   6 121.871 6.47010   1
  -7  -2  -6 121.191 6.79843   2
  -7  -2   6 126.969 5.91102   1
  -7  -2   6 116.381 6.82303   3
   7  -2  -6 132.173 6.68055   2
   7  -2  -6 127.159 6.23425   1
  -7  -2   6 123.582 6.46456   2
  -8   2   6 437.903 12.5707   3
  -8  -2  -6 467.801 13.2122   2
   8  -2   6 443.238 12.9331   2
  -8  -2  -6 440.598 12.1703   1
   8  -2   6 437.948 12.4627   1
   8  -2  -6 448.901 12.0590   1
  -8  -2   6 425.851 13.0911   3
  -8  -2   6 472.097 12.6566   2
  -8  -2   6 443.151 11.6338   1
   8  -2  -6 444.177 12.6586   2
   9  -2   6 15.5933 4.09989   2
  -9  -2  -6 11.3527 3.69108   1
  -9  -2  -6 25.5315 4.47919   2
  -9  -2  -6 15.2707 4.11484   2
   9  -2   6 19.0187 4.15305   1
  -9   2   6 18.4311 3.85095   3
  -9  -2   6 19.2707 4.25977   3
  -9  -2   6 14.2250 3.62476   2
   9  -2  -6 16.1410 3.74165   2
   9  -2  -6 18.2629 3.78339   1
  -9  -2   6 12.0937 3.26033   1
  10  -2   6 397.640 13.2914   2
 -10  -2  -6 369.421 12.1508   1
 -10  -2  -6 381.107 13.3803   2
  10  -2   6 377.491 12.7182   1
  10  -2  -6 382.029 12.9591   2
 -10  -2   6 390.158 12.7630   2
 -10  -2   6 408.788 11.8945   1
  10  -2  -6 367.758 12.0746   1
 -11  -2  -6 7.72758 3.82848   1
 -11  -2  -6 6.35210 4.08071   2
  11  -2   6 4.77921 4.23983   1
  11  -2   6 7.13996 4.46147   2
 -11  -2   6 7.53571 4.01171   2
  11  -2  -6 5.75894 3.67284   1
 -11  -2   6 10.4795 3.69003   1
  12  -2   6 56.8136 6.64115   1
 -12  -2  -6 53.3439 6.25520   1
 -12  -2   6 51.5408 5.90242   1
  12  -2  -6 52.9344 6.20397   1
 -12  -2   6 42.7317 5.99375   2
 -13  -2  -6 32.1735 5.56944   1
  13  -2   6 31.4543 5.89347   1
  13  -2  -6 37.9345 6.01398   1
 -13  -2   6 27.4880 5.26177   1
  14  -2   6 -5.6110 4.27459   1
 -14  -2  -6 3.53613 4.48641   1
  14  -2  -6 2.57297 4.19536   1
 -14  -2   6 1.98635 4.09859   1
 -15  -2  -6 31.6590 5.97837   1
  15  -2   6 35.0153 6.68887   1
  15  -2  -6 33.0852 6.26026   1
 -15  -2   6 29.3040 5.88552   1
  16  -2   6 -2.4392 4.77872   1
 -16  -2  -6 -0.6429 4.37978   1
 -16  -2   6 12.5756 5.02282   1
  16  -2  -6 -10.497 4.05878   1
   0  -3  -6 -2.1592 1.59485   2
   0  -3  -6 -1.2889 0.79449   1
   0  -3   6 -0.1004 2.53806   4
   0   3  -6 -1.5592 2.41317   5
   0  -3   6 0.37134 1.50513   2
   0  -3   6 -1.0574 1.57155   2
   0  -3  -6 -3.0533 1.52861   2
   0  -3  -6 1.48679 2.20293   4
   0  -3   6 1.35369 1.41434   3
   1  -3   6 956.507 16.5770   2
   1  -3   6 976.247 15.0346   3
   1  -3   6 968.714 19.8798   4
  -1  -3  -6 943.548 18.5334   4
  -1  -3  -6 960.948 16.9085   2
   1  -3   6 940.576 16.7746   2
  -1  -3  -6 998.910 14.2774   1
  -1  -3  -6 955.785 16.9813   2
   1   3  -6 979.280 19.7221   5
   1  -3  -6 992.282 14.9462   1
   1  -3  -6 944.018 16.9074   2
  -1  -3   6 929.054 16.4104   2
  -1  -3   6 944.322 16.3788   2
   1  -3  -6 953.788 18.5068   4
  -1   3  -6 989.001 19.4139   5
   1  -3  -6 985.128 14.8973   1
  -1  -3   6 988.781 16.4716   3
  -1  -3   6 963.571 19.6661   4
  -2  -3  -6 3.09969 1.06329   1
  -2  -3  -6 3.00968 2.43593   4
   2   3  -6 1.61636 1.75985   3
  -2  -3  -6 2.89823 1.84712   2
   2  -3   6 4.40605 1.85033   2
  -2  -3  -6 3.11997 1.18527   1
   2  -3   6 2.84408 1.93606   2
  -2  -3   6 0.80778 1.56849   2
   2  -3  -6 3.19060 1.47691   1
  -2   3  -6 3.60110 2.77893   5
   2  -3  -6 4.08997 1.47109   1
   2  -3  -6 4.00810 1.89784   2
  -2  -3   6 0.24074 1.61450   2
  -2  -3   6 3.67124 2.54017   4
  -2  -3   6 6.41271 2.09389   3
   2  -3  -6 5.20581 1.47714   1
  -3  -3  -6 296.057 6.15072   1
   3  -3   6 290.833 5.82864   1
   3  -3   6 296.319 7.79874   2
   3  -3   6 288.156 5.65502   1
  -3  -3  -6 286.304 8.94282   4
  -3   3   6 291.622 8.38286   3
  -3  -3  -6 285.585 5.94499   1
   3   3  -6 295.525 7.76842   3
  -3  -3  -6 293.656 7.76399   2
  -3  -3   6 283.486 7.41199   2
  -3  -3   6 279.575 9.36930   4
  -3   3  -6 285.996 9.23823   5
   3  -3  -6 290.231 7.88299   2
   3  -3  -6 305.978 6.72914   1
  -3  -3   6 300.423 8.09010   3
   4  -3   6 9.41096 1.97220   1
  -4  -3  -6 7.28866 1.91129   1
   4  -3   6 7.51404 2.47302   2
  -4  -3  -6 4.58147 2.30942   2
  -4   3   6 8.61722 2.59105   3
  -4  -3   6 11.7313 1.55918   1
   4  -3  -6 7.52937 2.35867   2
  -4  -3   6 7.95476 2.26377   2
  -4   3  -6 8.13908 3.00201   5
  -4  -3   6 12.1235 3.38982   4
  -4  -3   6 10.3166 1.42507   1
   4  -3  -6 7.91293 2.00736   1
  -4  -3   6 9.61362 2.67967   3
  -5   3   6 847.239 17.2872   3
   5  -3   6 830.666 15.4334   1
  -5  -3  -6 845.482 16.9987   2
  -5  -3  -6 842.014 15.2443   1
   5  -3   6 824.052 17.1266   2
   5  -3  -6 839.729 16.9732   2
  -5  -3   6 843.933 17.4852   3
  -5   3  -6 830.816 17.2799   5
   5  -3  -6 834.762 15.5826   1
  -5  -3   6 818.325 16.4262   2
  -5  -3   6 838.284 14.2437   1
  -6   3   6 188.828 7.51263   3
   6  -3   6 175.700 6.54793   1
  -6  -3  -6 191.340 6.25174   1
  -6  -3  -6 178.512 7.48952   2
   6  -3   6 193.781 7.73979   2
  -6  -3   6 187.007 8.01845   3
  -6   3  -6 176.800 7.38097   5
   6  -3  -6 167.321 7.25206   2
  -6  -3   6 175.314 5.51352   1
  -6  -3   6 176.273 7.01927   2
   6  -3  -6 181.589 6.46243   1
  -7  -3  -6 434.464 12.3808   2
   7  -3   6 427.327 11.1495   1
  -7  -3  -6 451.093 10.8401   1
  -7   3   6 446.303 12.1201   3
   7  -3   6 438.142 12.4081   2
   7  -3  -6 450.913 12.3098   2
  -7  -3   6 444.434 10.0307   1
  -7  -3   6 441.611 11.8611   2
  -7  -3   6 429.645 12.8739   3
   7  -3  -6 433.955 10.9890   1
  -7   3  -6 436.961 11.6376   5
   8  -3   6 6.74713 3.14871   1
  -8  -3  -6 3.70166 2.68224   1
   8  -3   6 3.18330 3.18536   2
  -8   3   6 3.88858 3.18382   3
  -8  -3  -6 2.24336 3.30073   2
  -8  -3   6 8.64678 3.27715   2
  -8  -3   6 3.89583 2.34038   1
   8  -3  -6 7.11462 3.31514   2
   8  -3  -6 7.20945 2.85183   1
   9  -3   6 204.925 8.78653   1
  -9  -3  -6 205.195 9.49639   2
   9  -3   6 210.634 9.80854   2
  -9  -3  -6 197.388 9.32948   2
  -9  -3  -6 202.938 8.11151   1
  -9   3   6 207.474 9.22228   3
   9  -3  -6 204.878 9.41250   2
  -9  -3   6 196.482 8.98400   2
   9  -3  -6 191.465 8.24666   1
  -9  -3   6 207.963 7.67194   1
  10  -3   6 93.5882 7.16808   1
 -10  -3  -6 87.3998 7.33649   2
 -10  -3  -6 102.048 7.97960   2
  10  -3   6 91.9019 7.54313   2
 -10  -3  -6 99.4400 6.71442   1
  10  -3  -6 104.242 7.80013   2
 -10  -3   6 99.3443 6.35259   1
  10  -3  -6 96.4741 6.77240   1
 -10  -3   6 94.3472 7.51186   2
  11  -3   6 6.39976 4.45817   2
 -11  -3  -6 2.52916 3.59313   1
 -11  -3  -6 8.34647 4.41327   2
  11  -3   6 2.77332 3.96216   1
  11  -3  -6 -3.3863 3.17668   1
  11  -3  -6 0.30129 3.62862   2
 -11  -3   6 3.79382 3.89201   2
 -11  -3   6 1.39003 2.99393   1
  12  -3   6 23.6138 5.54184   2
 -12  -3  -6 27.3977 5.82570   2
 -12  -3  -6 20.5003 4.55857   1
  12  -3   6 22.2457 4.99474   1
 -12  -3   6 26.1973 4.56190   1
 -12  -3   6 37.7900 5.85640   2
  12  -3  -6 21.9797 4.68989   1
 -13  -3  -6 202.618 9.98459   1
 -13  -3  -6 186.643 11.6401   2
  13  -3   6 196.079 10.8594   1
 -13  -3   6 177.600 11.1973   2
  13  -3  -6 221.102 10.6634   1
 -13  -3   6 204.780 9.57570   1
 -14  -3  -6 -8.0028 3.83636   1
  14  -3   6 -6.2734 3.80410   1
  14  -3  -6 -1.9072 4.06262   1
 -14  -3   6 0.69225 3.67578   1
 -15  -3  -6 9.35211 4.75284   1
  15  -3   6 -1.4015 4.67498   1
 -15  -3   6 5.80282 4.57072   1
  15  -3  -6 -2.2933 4.19837   1
  16  -3   6 77.3629 8.49889   1
 -16  -3  -6 68.2686 7.66067   1
 -16  -3   6 75.4593 7.55913   1
  16  -3  -6 80.6673 8.33761   1
   0  -4  -6 2003.24 31.5657   2
   0   4  -6 1976.04 35.2177   5
   0  -4  -6 1944.68 35.4307   4
   0  -4   6 2029.36 37.0265   4
   0  -4   6 1990.41 30.8412   2
  -1  -4  -6 2135.71 33.4032   2
   1  -4   6 2087.62 38.7566   4
  -1  -4  -6 2054.26 37.2659   4
   1  -4   6 2132.20 32.8833   2
   1   4  -6 2058.10 36.8344   5
   1  -4  -6 2140.87 33.5885   2
   1  -4  -6 2131.96 37.4123   4
  -1  -4   6 2131.66 32.6118   2
  -1   4  -6 2126.09 37.0499   5
  -1  -4   6 2122.94 38.6966   4
   2   4  -6 44.4859 4.96333   5
  -2  -4  -6 41.2750 4.45614   4
   2  -4   6 45.8988 5.22649   4
  -2  -4  -6 34.0342 3.16820   2
   2  -4   6 43.1500 3.22892   2
  -2  -4   6 39.5606 2.93015   2
  -2   4  -6 34.2204 4.71126   5
   2  -4  -6 39.5832 3.36446   2
  -2  -4   6 38.8634 4.83818   4
   3  -4   6 51.9200 3.99049   2
  -3  -4  -6 49.4483 4.02560   2
  -3   4   6 51.6696 4.17714   3
  -3  -4  -6 59.8117 5.33437   4
   3   4  -6 51.1311 5.50939   5
  -3  -4   6 52.0805 3.76156   2
   3  -4  -6 51.5410 3.90497   2
  -3  -4   6 58.2981 5.66222   4
  -3   4  -6 44.2148 5.08678   5
  -4   4   6 175.161 7.04368   3
   4  -4   6 194.988 6.82987   2
  -4  -4  -6 192.388 6.85329   2
  -4  -4  -6 191.370 8.58599   4
  -4   4  -6 175.019 8.29373   5
   4  -4  -6 197.254 6.95652   2
  -4  -4   6 181.091 8.73561   4
  -4  -4   6 177.968 6.29279   2
   5  -4   6 7.86596 2.84247   2
  -5   4   6 11.6760 3.27692   3
  -5  -4  -6 11.4873 2.97125   2
   5  -4  -6 11.1228 2.88272   2
   5  -4  -6 11.1899 1.60739   1
   5   4   6 8.14614 3.26103   5
  -5  -4   6 11.9994 2.69170   2
  -5  -4   6 13.2518 4.03036   4
  -5   4  -6 9.15150 3.45897   5
   6  -4   6 2.04410 2.73808   2
   6  -4   6 0.65784 1.29877   1
  -6  -4  -6 5.20819 2.89056   2
  -6   4  -6 0.26987 3.01242   5
   6  -4  -6 3.13278 1.88376   1
   6   4   6 -3.4842 2.59455   5
  -6  -4   6 -1.2714 3.24758   4
  -6  -4   6 -1.3033 2.33844   2
   6  -4  -6 -0.9137 2.54155   2
  -7  -4  -6 391.414 11.8042   2
   7  -4   6 395.702 8.73489   1
   7  -4   6 375.173 11.7823   2
  -7  -4  -6 391.631 7.48392   1
  -7  -4   6 390.240 11.1920   2
   7  -4  -6 396.819 9.29504   1
   7  -4  -6 405.398 11.8998   2
  -7   4  -6 399.757 12.1321   5
  -8  -4  -6 491.736 13.8835   2
   8  -4   6 486.094 14.1908   2
  -8  -4  -6 497.785 10.0468   1
   8  -4   6 486.804 11.1936   1
   8  -4  -6 458.589 13.6494   2
  -8  -4   6 475.366 13.1972   2
   8  -4  -6 482.450 11.4637   1
   9  -4   6 1423.09 25.1781   1
  -9  -4  -6 1398.06 28.4593   2
   9  -4   6 1395.52 28.7227   2
  -9  -4  -6 1376.82 28.3013   2
  -9  -4  -6 1373.16 23.8595   1
  -9  -4   6 1398.98 27.7270   2
  -9  -4   6 1389.04 22.4670   1
   9  -4  -6 1410.53 28.5717   2
   9  -4  -6 1401.15 25.4707   1
  10  -4   6 7.21818 3.33440   1
  10  -4   6 0.97905 3.89211   2
 -10  -4  -6 3.50454 3.84686   2
 -10  -4  -6 0.25648 2.78418   1
 -10  -4  -6 1.03371 3.89107   2
 -10  -4   6 4.63492 2.50799   1
 -10  -4   6 -2.1617 3.39460   2
  10  -4  -6 -2.3704 2.84638   1
  10  -4  -6 -2.7924 3.39738   2
 -11  -4  -6 5.28231 4.17388   2
  11  -4   6 10.0289 3.93148   1
 -11  -4  -6 0.44464 3.08662   1
  11  -4   6 6.56953 4.37235   2
  11  -4  -6 -2.1966 3.68813   2
 -11  -4   6 6.12160 2.80664   1
  11  -4  -6 -5.1986 3.03764   1
 -11  -4   6 4.19639 4.01075   2
  12  -4   6 -9.8742 3.71704   2
 -12  -4  -6 -4.0548 3.98979   2
  12  -4   6 -0.7427 3.91456   1
 -12  -4  -6 3.37719 3.38515   1
  12  -4  -6 -1.3124 4.23385   2
  12  -4  -6 -3.9088 3.26654   1
 -12  -4   6 13.6146 4.78106   2
 -12  -4   6 -1.3800 2.88424   1
  13  -4   6 11.9829 4.69542   1
 -13  -4  -6 7.83542 3.89630   1
 -13  -4  -6 16.0322 5.66705   2
  13  -4   6 3.67035 5.27953   2
  13  -4  -6 10.1897 5.92961   2
 -13  -4   6 10.8373 5.00438   2
 -13  -4   6 10.2702 3.79092   1
  13  -4  -6 11.6394 4.38674   1
 -14  -4  -6 20.0881 5.95741   2
 -14  -4  -6 16.2619 4.55455   1
  14  -4   6 10.1896 4.93271   1
 -14  -4   6 15.1375 5.71956   2
 -14  -4   6 22.8349 4.39438   1
  14  -4  -6 24.8137 5.33296   1
 -15  -4  -6 3.26850 4.23377   1
  15  -4   6 14.1150 5.00729   1
 -15  -4   6 7.47959 4.03948   1
  15  -4  -6 -2.6382 4.18497   1
   0  -5   6 0.53844 1.75461   2
   0  -5  -6 -2.3298 3.09450   4
   0   5  -6 2.40990 3.36771   5
   0  -5   6 1.87773 3.45951   4
   0  -5  -6 1.02340 2.04576   2
   1   5  -6 557.496 16.2340   5
   1  -5   6 585.135 16.8812   4
  -1  -5  -6 582.228 12.0179   2
  -1  -5  -6 581.164 15.7024   4
   1  -5   6 569.973 11.4301   2
  -1  -5   6 609.799 16.9852   4
   1  -5  -6 588.226 15.8490   4
  -1   5  -6 557.794 16.0771   5
  -1  -5   6 568.510 11.1515   2
   1  -5  -6 574.421 12.0413   2
  -2  -5  -6 -5.4321 2.95113   4
   2  -5   6 1.61071 2.05577   2
   2  -5   6 3.02816 3.90093   4
  -2  -5  -6 1.16698 2.15751   2
   2   5  -6 7.71852 3.89537   5
   2  -5  -6 0.49032 2.11012   2
  -2  -5   6 5.21345 3.72794   4
  -2  -5   6 1.41226 1.89943   2
  -2   5  -6 2.45285 3.21449   5
  -3  -5  -6 198.659 6.79375   2
   3  -5   6 203.369 6.83464   2
   3   5  -6 218.415 10.2092   5
  -3  -5  -6 198.048 9.29583   4
  -3  -5   6 209.814 10.2136   4
   3   5   6 182.956 9.25554   5
  -3   5  -6 201.781 9.62502   5
   3  -5  -6 186.208 6.91605   2
  -3  -5   6 197.928 6.28599   2
   4  -5   6 -2.3306 2.33835   2
  -4  -5  -6 2.10063 3.74349   4
  -4  -5  -6 0.59547 2.40673   2
   4   5  -6 -2.1807 3.63977   5
   4   5   6 0.01540 3.29611   5
   4  -5  -6 2.39972 2.48120   2
  -4   5  -6 3.40024 3.44410   5
  -4  -5   6 0.37130 3.64669   4
  -4  -5   6 1.86485 2.23907   2
  -5  -5  -6 608.717 17.4555   4
   5  -5   6 616.856 14.4469   2
  -5  -5  -6 623.174 14.2172   2
  -5  -5   6 617.108 13.5135   2
   5  -5  -6 606.303 14.3545   2
  -5  -5   6 600.265 17.8386   4
  -5   5  -6 618.820 16.8140   5
   5   5   6 606.625 16.2118   5
   6  -5   6 138.343 7.36336   2
  -6  -5  -6 139.220 7.24029   2
  -6  -5  -6 141.985 9.41655   4
  -6  -5   6 137.029 6.72126   2
   6  -5  -6 149.279 7.35157   2
  -6   5  -6 159.895 9.11925   5
   6   5   6 160.378 8.50747   5
  -6  -5   6 159.354 10.0578   4
  -7  -5  -6 268.311 10.0813   2
   7  -5   6 276.441 10.4485   2
  -7  -5  -6 290.777 12.9696   4
  -7   5  -6 297.517 11.9316   5
  -7  -5   6 276.413 9.61248   2
  -7  -5   6 304.003 13.3020   4
   7  -5  -6 294.817 10.4917   2
  -8  -5  -6 7.64849 3.77393   2
   8  -5   6 6.25969 3.77498   2
  -8  -5   6 8.48205 4.81620   4
  -8  -5   6 6.88520 3.30918   2
   8  -5  -6 -4.3715 3.14574   2
  -9  -5  -6 141.917 8.68623   2
   9  -5   6 143.508 9.07898   2
  -9  -5  -6 142.320 8.73261   2
  -9  -5   6 131.952 10.5922   4
  -9  -5   6 137.551 8.16161   2
   9  -5  -6 151.915 8.94781   2
 -10  -5  -6 63.6426 6.77395   2
 -10  -5  -6 69.0465 6.86887   2
  10  -5   6 60.2531 6.86958   2
  10  -5  -6 70.3112 7.19748   2
 -10  -5   6 68.6152 6.72331   2
  11  -5   6 5.91188 4.64671   2
 -11  -5  -6 3.94841 4.33347   2
  11  -5  -6 1.20735 4.21924   2
 -11  -5   6 8.35524 4.24260   2
  11  -5  -6 -1.8877 2.99029   1
 -12  -5  -6 21.4142 5.54017   2
  12  -5   6 21.6938 5.99629   2
 -12  -5   6 28.7315 5.70432   2
  12  -5  -6 28.0006 4.14987   1
  12  -5  -6 25.3087 5.82031   2
  13  -5   6 159.855 11.5178   2
 -13  -5  -6 163.352 11.3070   2
  13  -5  -6 183.602 11.7649   2
 -13  -5   6 183.419 11.5816   2
  13  -5  -6 181.873 8.87398   1
   0  -6  -6 -4.9619 3.78006   4
   0  -6  -6 5.65596 2.47162   2
   0  -6   6 9.00047 2.19928   2
   0  -6   6 6.98696 4.53767   4
  -1  -6  -6 140.919 9.35087   4
  -1  -6  -6 147.720 5.99974   2
   1  -6   6 130.353 9.62319   4
   1  -6   6 145.640 5.45326   2
  -1  -6   6 144.054 9.68311   4
   1  -6  -6 143.797 5.95397   2
   1  -6  -6 143.085 9.38489   4
  -1  -6   6 145.158 5.11945   2
  -2  -6  -6 7.12875 4.48527   4
   2  -6   6 10.5017 2.64220   2
  -2  -6  -6 5.59631 2.52712   2
  -2  -6   6 11.0580 2.28420   2
  -2  -6   6 6.72514 4.67390   4
   2  -6  -6 6.02692 2.65711   2
  -3  -6  -6 202.950 7.26394   2
  -3  -6  -6 197.449 10.8007   4
   3  -6   6 197.392 7.16146   2
   3  -6  -6 193.666 7.33401   2
  -3  -6   6 201.891 6.53935   2
  -3  -6   6 199.174 11.3255   4
   4  -6   6 2.70428 2.86888   2
  -4  -6  -6 6.01382 4.65900   4
  -4  -6  -6 2.04989 2.75129   2
   4  -6  -6 -0.7232 2.63623   2
  -4  -6   6 8.02637 2.66996   2
  -4  -6   6 4.01569 4.77503   4
   5  -6   6 71.6888 5.58172   2
  -5  -6  -6 73.5268 8.14467   4
  -5  -6  -6 84.9297 5.97880   2
  -5  -6   6 66.1285 5.09058   2
  -5  -6   6 67.5610 7.91777   4
   5  -6  -6 77.9041 5.91478   2
   6  -6   6 104.891 7.06234   2
  -6  -6  -6 123.236 9.98316   4
  -6  -6  -6 109.321 7.03254   2
  -6  -6   6 100.149 9.45662   4
   6  -6  -6 101.852 6.96868   2
  -6  -6   6 112.314 6.37887   2
   7  -6   6 50.5551 5.55511   2
  -7  -6  -6 55.8906 5.61492   2
  -7  -6  -6 69.6702 8.37714   4
  -7  -6   6 65.1803 5.47804   2
   7  -6  -6 56.4464 5.79306   2
  -7  -6   6 68.0789 8.39196   4
  -8  -6  -6 182.997 12.2281   4
  -8  -6  -6 176.075 9.24295   2
   8  -6   6 180.544 9.71369   2
   8  -6  -6 175.643 9.30379   2
  -8  -6   6 178.673 8.64177   2
  -8  -6   6 193.879 12.5727   4
  -9  -6  -6 16.5279 6.21834   4
  -9  -6  -6 9.31740 4.20622   2
   9  -6   6 22.4947 5.04829   2
  -9  -6  -6 20.6721 4.71752   2
  -9  -6   6 13.1621 4.14871   2
  -9  -6   6 17.5212 6.37527   4
   9  -6  -6 12.3649 4.38986   2
 -10  -6  -6 173.854 13.1129   4
 -10  -6  -6 177.293 10.3545   2
  10  -6   6 178.546 10.4627   2
 -10  -6   6 159.314 12.6109   4
  10  -6  -6 182.768 10.4665   2
 -10  -6   6 207.498 10.1688   2
  11  -6   6 1.12066 4.72530   2
 -11  -6  -6 -4.2376 6.24891   4
 -11  -6  -6 8.21532 4.69824   2
  11  -6  -6 4.08104 4.55125   2
 -11  -6   6 10.7144 4.51899   2
 -11  -6   6 1.77538 5.69328   4
 -12  -6  -6 23.0067 5.81663   2
  12  -6   6 33.6704 6.65661   2
 -12  -6   6 22.6922 5.63542   2
  12  -6  -6 22.0011 6.19571   2
 -12  -6   6 39.2013 8.49695   4
   0  -7   6 -1.2998 4.87465   4
   0  -7   6 -0.0640 2.03959   2
   0  -7  -6 0.42075 4.92760   4
   0  -7  -6 -2.2174 2.50982   2
  -1  -7  -6 349.059 14.8142   4
   1  -7   6 371.620 9.00979   2
  -1  -7  -6 352.193 9.52779   2
   1  -7   6 341.479 15.8687   4
  -1  -7   6 366.770 8.62194   2
  -1  -7   6 353.445 15.6806   4
   1  -7  -6 366.125 9.76796   2
  -2  -7  -6 2.24900 4.78019   4
  -2  -7  -6 5.26380 2.73331   2
   2  -7   6 6.09365 2.64916   2
  -2  -7   6 1.34789 2.20557   2
   2  -7  -6 6.51058 2.86106   2
  -2  -7   6 11.4098 5.36862   4
  -3  -7  -6 99.7161 5.97333   2
  -3  -7  -6 124.783 10.4720   4
   3  -7   6 101.405 5.94646   2
   3  -7  -6 92.1506 6.22959   2
  -3  -7   6 111.884 5.22733   2
  -3  -7   6 117.664 10.5758   4
   4  -7   6 5.68152 3.25845   2
  -4  -7  -6 3.22523 5.38808   4
  -4  -7  -6 -0.0973 3.03492   2
  -4  -7   6 4.11288 2.68714   2
  -4  -7   6 4.24296 5.47811   4
   4  -7  -6 6.12063 3.21971   2
  -5  -7  -6 305.103 14.8292   4
   5  -7   6 323.344 10.7507   2
  -5  -7  -6 313.942 10.3792   2
  -5  -7   6 317.053 9.56574   2
  -5  -7   6 303.925 15.3637   4
   5  -7  -6 338.817 10.8287   2
  -6  -7  -6 69.5294 8.77946   4
   6  -7   6 71.1078 6.33899   2
  -6  -7  -6 64.2001 5.95067   2
  -6  -7   6 73.8123 5.84321   2
   6  -7  -6 70.4799 6.13761   2
  -6  -7   6 60.2462 8.69813   4
   7  -7   6 161.286 9.23214   2
  -7  -7  -6 175.927 12.7215   4
  -7  -7  -6 171.982 9.15697   2
   7  -7  -6 192.633 9.45019   2
  -7  -7   6 178.634 13.0953   4
  -7  -7   6 212.804 8.78920   2
  -8  -7  -6 15.2010 6.70061   4
   8  -7   6 9.43035 4.31767   2
  -8  -7  -6 5.79559 3.93256   2
  -8  -7  -6 1.86728 3.91409   2
   8  -7  -6 8.67622 4.05135   2
  -8  -7   6 7.67866 3.93932   2
  -8  -7   6 -1.2038 5.14894   4
  -9  -7  -6 91.1895 7.65005   2
  -9  -7  -6 72.5242 9.79854   4
   9  -7   6 83.4374 7.76706   2
   9  -7  -6 82.2244 7.61131   2
  -9  -7   6 96.9490 7.85354   2
  -9  -7   6 75.3198 9.97197   4
   0  -8   6 579.812 22.0543   4
   0  -8  -6 617.694 13.6408   2
   0  -8   6 633.080 12.4331   2
  -1  -8  -6 712.017 15.0619   2
   1  -8   6 727.697 14.4025   2
  -1  -8  -6 727.145 23.6949   4
  -1  -8   6 722.998 13.6528   2
   1  -8  -6 710.394 15.3139   2
  -1  -8   6 700.098 24.1152   4
   2  -8   6 13.9903 3.26529   2
  -2  -8  -6 11.7628 3.26125   2
  -2  -8  -6 12.9318 6.61341   4
  -2  -8   6 17.7839 2.82887   2
   2  -8  -6 15.7592 3.48686   2
  -2  -8   6 9.62298 6.18571   4
   3  -8   6 25.9438 3.99385   2
  -3  -8  -6 32.8887 7.43149   4
  -3  -8  -6 27.7108 4.13477   2
   3  -8  -6 19.6122 3.88824   2
  -3  -8   6 25.2313 7.25636   4
  -3  -8   6 27.8734 3.37816   2
  -4  -8  -6 68.4616 9.32931   4
   4  -8   6 59.9254 5.37885   2
  -4  -8  -6 69.0227 5.48142   2
   4  -8  -6 65.0579 5.60191   2
  -4  -8   6 54.6386 9.03644   4
  -4  -8   6 58.9271 4.39936   2
  -5  -8  -6 6.01539 6.44094   4
  -5  -8  -6 6.18917 3.68206   2
   5  -8   6 3.69048 3.82139   2
  -5  -8   6 -2.5132 6.06526   4
  -5  -8   6 7.36978 3.21459   2
   5  -8  -6 8.98646 3.84190   2
   0   0   7 -0.0792 1.97376   1
   0   0  -7 1.46834 1.92418   1
   0   0  -7 -5.5566 1.78360   2
   0   0   7 1.85271 1.97493   2
  -1   0  -7 147.201 5.45917   2
  -1   0  -7 141.365 5.46939   1
  -1   0   7 144.747 5.38666   2
  -1   0   7 156.358 5.37589   1
   1   0  -7 154.352 5.52123   2
  -2   0  -7 4.84442 2.31808   1
   2   0  -7 1.78842 2.00712   1
   2   0   7 0.88595 2.13642   1
  -2   0   7 1.52593 2.01518   1
   2   0  -7 4.25984 2.16585   2
  -2   0  -7 1.99914 2.09554   2
   2   0   7 6.34808 2.28743   2
  -2   0   7 4.12265 2.19720   3
  -2   0   7 5.12913 2.15002   2
  -2   0  -7 0.73055 2.09443   1
   3   0  -7 386.447 9.16393   1
   3   0  -7 364.667 9.07344   2
  -3   0   7 369.780 9.44472   3
  -3   0   7 368.579 8.97093   1
  -3   0   7 360.526 8.99369   2
  -3   0  -7 353.672 9.18572   2
   3   0   7 362.564 9.19889   1
  -3   0  -7 378.964 9.19278   1
   3   0   7 350.032 9.12329   2
  -4   0  -7 3975.06 60.9327   1
  -4   0   7 4128.94 60.7278   2
  -4   0  -7 3878.54 60.9553   2
   4   0  -7 3951.85 60.5456   1
   4   0   7 3921.81 60.9939   2
  -4   0   7 4084.25 60.7382   1
   4   0  -7 3988.02 60.5336   2
   4   0   7 3998.58 61.0540   1
  -4   0   7 3948.12 61.4575   3
  -5   0   7 1456.20 25.8400   3
   5   0  -7 1427.82 25.1074   2
  -5   0   7 1432.17 25.0125   1
  -5   0  -7 1407.68 25.4001   2
   5   0  -7 1433.80 25.1480   1
  -5   0   7 1431.83 25.1048   2
   5   0   7 1438.06 25.5282   2
  -5   0  -7 1378.16 25.3956   1
   5   0   7 1392.13 25.5869   1
  -6   0   7 35.0774 3.89135   3
  -6   0   7 40.9281 4.20373   1
   6   0   7 38.9839 4.34717   1
  -6   0  -7 42.4206 4.20189   1
  -6   0  -7 47.3313 4.36172   2
   6   0  -7 41.7086 4.03341   1
  -6   0   7 36.6023 3.81132   2
   6   0  -7 43.7301 3.90852   2
   6   0   7 43.1056 4.38058   2
  -7   0  -7 446.056 12.0607   1
  -7   0  -7 426.211 11.9491   2
  -7   0   7 411.759 11.3704   1
  -7   0  -7 459.053 12.2163   2
   7   0   7 428.636 11.9323   2
  -7   0   7 392.848 11.6611   3
   7   0   7 431.762 12.1657   1
   7   0  -7 420.560 11.4584   2
   7   0  -7 424.890 11.6202   1
  -7   0   7 426.342 11.5141   2
   8   0   7 14.8363 3.76839   1
  -8   0  -7 12.0110 3.50419   1
   8   0  -7 13.4232 3.40692   1
  -8   0   7 11.7987 3.32991   1
  -8   0   7 6.96905 3.11067   2
  -8   0   7 10.7740 3.23464   3
  -9   0  -7 45.4250 5.38827   1
  -9   0   7 55.9347 5.40829   1
   9   0   7 48.3875 5.56341   1
  -9   0   7 52.4666 5.40574   3
   9   0  -7 52.7846 5.54660   1
  10   0  -7 154.254 8.48799   1
 -10   0   7 143.593 8.43116   1
  10   0   7 169.234 9.15039   1
 -10   0  -7 150.288 8.78221   1
 -11   0  -7 476.573 15.3637   1
 -11   0   7 488.349 15.0228   1
  11   0   7 498.803 15.5115   1
  11   0  -7 495.737 14.9874   1
  12   0   7 194.189 10.6767   1
 -12   0  -7 200.526 10.8280   1
  12   0  -7 204.954 10.5102   1
 -12   0   7 195.277 10.3156   1
 -13   0   7 147.117 9.86025   1
  13   0   7 157.897 10.4916   1
 -13   0  -7 153.763 10.2774   1
  13   0  -7 159.926 10.0495   1
 -14   0  -7 232.614 12.3075   1
 -14   0   7 229.514 12.1091   1
  14   0   7 218.660 12.3731   1
  14   0  -7 218.545 12.0123   1
  15   0  -7 -0.1185 4.99024   1
 -15   0   7 -3.2427 4.47235   1
  15   0   7 1.32499 5.30950   1
 -15   0  -7 5.40583 4.99201   1
 -16   0   7 32.9904 6.97939   1
  16   0   7 28.8053 6.98379   1
 -16   0  -7 36.1990 6.96851   1
  16   0  -7 21.7974 6.55555   1
   0  -1  -7 284.039 7.51167   1
   0  -1   7 298.167 7.39070   1
   0  -1   7 295.854 7.49805   2
   0  -1   7 286.842 6.78464   4
   0  -1  -7 300.550 7.62687   2
   1  -1   7 459.106 9.82076   1
  -1  -1  -7 472.977 10.0296   1
  -1   1   7 452.733 9.91343   1
  -1  -1  -7 447.252 9.92544   2
   1  -1   7 448.936 9.92097   2
   1   1   7 451.497 10.7715   1
   1  -1  -7 454.382 9.96579   2
  -1  -1   7 455.720 9.16969   4
  -1  -1   7 450.375 9.83155   2
  -1  -1   7 480.851 9.86938   1
   1  -1  -7 452.897 9.87383   1
  -1  -1   7 453.489 9.89681   3
  -2  -1  -7 105.808 4.89348   2
   2  -1   7 95.7821 4.78486   2
   2  -1   7 94.4747 4.88166   1
  -2   1   7 93.9467 4.69531   1
  -2  -1  -7 107.340 4.83750   1
   2  -1  -7 104.621 4.83762   2
   2  -1  -7 97.3687 4.61060   1
  -2  -1   7 107.100 4.83488   3
  -2  -1   7 96.4059 4.64506   2
   2   1   7 102.380 4.98828   1
  -2  -1   7 100.943 4.47832   1
   3  -1   7 408.748 9.90793   1
  -3  -1  -7 409.300 9.82524   1
  -3   1   7 413.046 10.2316   3
  -3  -1  -7 385.935 9.77604   2
   3  -1   7 401.566 9.75369   2
   3   1  -7 409.020 9.86896   3
  -3   1   7 427.359 9.79671   1
  -3  -1   7 417.312 10.0462   3
  -3  -1   7 421.316 9.51150   1
  -3   1  -7 404.333 9.84105   1
  -3   1  -7 400.224 9.81400   1
  -3  -1   7 414.825 9.70035   2
   3  -1  -7 402.371 9.74786   2
   3   1   7 425.417 9.97650   1
   3  -1  -7 409.750 9.53791   1
   4  -1   7 224.949 7.38307   1
  -4   1   7 207.413 7.31882   3
   4   1  -7 219.042 6.95608   1
  -4  -1  -7 217.197 7.19717   1
   4  -1   7 227.906 7.37639   2
  -4  -1  -7 220.981 7.36497   2
  -4   1   7 209.234 7.02679   1
  -4  -1   7 219.946 7.04446   2
  -4  -1   7 214.465 6.82688   1
   4  -1  -7 214.160 7.06335   2
  -4   1  -7 216.274 7.17686   1
  -4  -1   7 214.619 7.33739   3
   4  -1  -7 213.509 6.94489   1
   4   1   7 211.118 7.23264   1
  -5   1   7 677.132 15.1899   3
  -5   1   7 700.203 14.8583   1
  -5  -1  -7 714.324 15.3816   2
   5  -1   7 707.163 15.2464   2
   5   1  -7 724.313 14.9151   1
  -5   1   7 702.194 14.7298   2
  -5  -1  -7 703.824 15.0023   1
   5  -1   7 696.937 15.2430   1
   5  -1  -7 705.916 14.8763   2
  -5  -1   7 729.921 14.8255   2
   5   1   7 709.619 15.3106   1
  -5  -1   7 701.072 15.2809   3
   5  -1  -7 697.309 14.7330   1
  -5   1  -7 704.314 15.1911   1
  -5  -1   7 717.987 14.4849   1
  -6  -1  -7 3.23145 2.55094   1
   6   1  -7 7.60714 2.72893   1
  -6  -1  -7 2.51006 2.76050   2
   6  -1   7 9.40558 2.96296   1
   6  -1   7 6.77767 2.83858   2
  -6   1   7 6.21838 2.71089   1
  -6   1   7 5.98064 2.72449   3
   6  -1  -7 7.05907 2.53383   1
  -6  -1   7 5.94994 2.50359   1
   6   1   7 6.61793 2.88698   1
  -6   1  -7 6.74940 2.89827   1
  -6  -1   7 6.77581 2.81177   3
  -6  -1   7 5.37414 2.44880   2
   6  -1  -7 9.75338 2.91736   2
   7  -1   7 22.7056 3.84760   2
  -7  -1  -7 21.4659 3.61505   1
   7  -1   7 20.0787 3.68103   1
  -7  -1  -7 17.1217 3.61862   2
   7   1  -7 24.1032 3.64280   1
  -7   1   7 17.4801 3.53771   1
  -7   1   7 18.6481 3.50430   3
   7  -1  -7 25.5216 3.72038   1
   7   1   7 25.9873 4.01668   1
  -7  -1   7 22.1621 3.44744   1
  -7  -1   7 22.4420 3.66918   2
  -7   1  -7 25.8448 3.91872   1
   7  -1  -7 22.5313 3.73915   2
  -7  -1   7 21.9662 3.57670   3
  -8   1   7 142.361 7.39726   1
  -8  -1  -7 158.318 8.00848   2
  -8  -1  -7 141.531 7.51637   1
   8   1  -7 151.971 7.47933   1
  -8   1   7 150.853 7.75699   3
   8  -1   7 147.388 7.86018   2
   8  -1   7 142.286 7.69347   1
  -8  -1  -7 158.020 8.07020   2
  -8  -1   7 135.075 7.12673   1
  -8  -1   7 145.478 7.77051   3
   8   1   7 153.883 8.06999   1
   8  -1  -7 149.557 7.40454   2
  -8   1  -7 152.511 7.90758   1
   8  -1  -7 150.207 7.26572   1
   9  -1   7 51.2851 5.50358   2
  -9  -1  -7 44.9449 5.29127   2
   9  -1   7 58.7958 5.81767   1
  -9  -1  -7 43.6242 5.34261   2
  -9  -1  -7 50.0319 5.44076   1
  -9   1   7 46.1222 5.29126   3
  -9   1   7 48.0323 5.09344   1
   9   1  -7 51.8127 5.43482   1
  -9  -1   7 48.3515 5.11106   2
  -9   1  -7 47.9207 5.46867   1
  -9  -1   7 45.1590 5.02979   1
   9   1   7 51.2407 5.64665   1
  -9  -1   7 49.3005 5.49726   3
   9  -1  -7 56.8490 5.70877   1
 -10   1   7 143.964 8.26188   1
  10  -1   7 138.775 8.62465   1
 -10  -1  -7 138.829 8.27043   1
 -10  -1   7 126.347 8.04934   2
 -10  -1   7 126.811 7.84442   1
  10  -1  -7 136.286 7.98316   1
  10   1   7 129.537 8.62717   1
 -10   1  -7 135.883 8.54068   1
 -11  -1  -7 61.6292 6.59918   1
 -11   1   7 60.4878 6.50008   1
  11  -1   7 62.9401 6.72603   1
 -11   1  -7 59.8258 6.97749   1
 -11  -1   7 56.4751 5.96373   1
  11  -1  -7 57.2292 6.17377   1
  12  -1   7 77.2771 7.55797   1
 -12  -1  -7 72.7955 7.23587   1
 -12   1   7 90.0135 7.94449   1
 -12   1  -7 66.6110 7.51324   1
  12  -1  -7 77.1796 7.37338   1
 -12  -1   7 76.7988 6.94175   1
 -13  -1  -7 4.49559 4.53449   1
  13  -1   7 -0.8319 4.17473   1
 -13   1   7 4.37725 4.56306   1
  13  -1  -7 8.04470 4.54680   1
 -13  -1   7 -1.1350 3.90238   1
 -13   1  -7 -1.8867 4.41813   1
  14  -1   7 12.5308 5.13489   1
 -14  -1  -7 10.5859 5.01893   1
 -14   1   7 14.3475 5.58390   1
  14  -1  -7 5.77818 4.82439   1
 -14  -1   7 15.0047 5.25782   1
 -15  -1  -7 131.623 10.2408   1
 -15   1   7 132.057 10.7731   1
  15  -1   7 137.172 10.8605   1
 -15  -1   7 125.668 10.1124   1
  15  -1  -7 134.078 10.6272   1
 -16  -1  -7 24.0144 6.38568   1
 -16   1   7 18.2012 6.78276   1
  16  -1   7 37.8434 7.29878   1
 -16  -1   7 32.2532 6.37019   1
  16  -1  -7 27.7689 6.71953   1
   0  -2  -7 -0.1022 1.60914   4
   0  -2  -7 1.05546 1.76467   2
   0  -2   7 -0.5993 2.02992   4
   0  -2  -7 1.54614 1.80818   1
   0  -2   7 -1.7590 1.61682   3
   0  -2  -7 0.31369 1.76670   1
   0  -2   7 0.22125 1.65741   2
   0  -2   7 1.32627 1.67901   1
   1  -2   7 273.672 7.18274   2
  -1  -2  -7 275.862 6.70998   4
  -1  -2  -7 290.459 7.12307   1
   1  -2   7 272.994 6.92342   1
  -1  -2  -7 257.580 7.25788   2
   1  -2   7 266.642 7.79325   4
   1  -2  -7 275.890 6.93563   1
  -1  -2   7 281.548 6.62157   1
  -1  -2   7 278.260 7.05299   2
  -1  -2   7 267.372 7.56465   4
   1  -2  -7 271.166 7.30423   2
  -1  -2   7 275.002 6.99701   3
   2  -2   7 269.331 7.14436   1
   2   2  -7 266.909 7.05830   3
  -2  -2  -7 255.831 7.34935   2
  -2  -2  -7 264.434 7.13846   1
   2  -2   7 259.594 7.19978   2
  -2  -2   7 263.987 7.29570   3
   2  -2  -7 259.552 6.86544   1
  -2  -2   7 266.309 6.61354   1
   2  -2  -7 265.568 7.24391   2
  -2  -2   7 269.610 7.10451   2
  -2  -2   7 268.538 7.70269   4
  -3  -2  -7 10.2363 2.34487   1
   3  -2   7 5.37051 2.19482   2
  -3  -2  -7 8.07004 2.24939   2
  -3   2   7 9.38281 2.46943   3
   3   2  -7 8.97637 2.40582   3
   3  -2   7 3.08726 2.23873   1
   3  -2  -7 7.17956 2.28491   2
  -3  -2   7 4.53863 2.48744   4
   3  -2  -7 6.76760 2.07632   1
  -3  -2   7 11.0497 2.10778   1
  -3  -2   7 2.47731 2.22311   3
  -3  -2   7 5.46893 2.13139   2
  -4  -2  -7 21.8226 2.88608   1
   4  -2   7 24.5522 3.17115   1
   4  -2   7 21.1808 3.04926   2
  -4   2   7 24.5674 3.30723   3
  -4   2   7 27.4542 3.25761   1
  -4  -2  -7 17.2594 2.91068   2
   4  -2  -7 24.8319 3.13771   2
   4  -2  -7 21.0977 2.77561   1
  -4  -2   7 29.3944 2.87848   1
  -4  -2   7 26.2477 3.32175   3
  -4  -2   7 27.4604 2.99712   2
  -5   2   7 68.5670 4.92696   1
  -5   2   7 73.6270 5.09907   3
  -5  -2  -7 65.6661 4.60923   1
   5  -2   7 59.3621 4.61098   1
   5  -2   7 62.5950 5.06389   2
  -5  -2  -7 63.1779 4.91429   2
  -5  -2   7 62.4802 4.12120   1
  -5  -2   7 65.2841 5.08633   3
   5  -2  -7 59.0604 4.50946   2
   5  -2  -7 67.5978 4.49530   1
  -5  -2   7 68.8540 4.71181   2
  -6   2   7 61.7155 4.98754   3
  -6  -2  -7 64.2465 4.90566   1
   6  -2   7 70.8506 5.39548   1
   6  -2   7 75.5335 5.63492   2
  -6  -2  -7 70.7109 5.54456   2
  -6   2   7 71.3779 5.20466   1
   6  -2  -7 79.3067 5.07332   1
  -6  -2   7 53.4296 4.37455   2
  -6  -2   7 72.4361 5.57219   3
  -6  -2   7 63.2916 4.43117   1
   6  -2  -7 73.6116 5.25274   2
   7  -2   7 13.1674 3.33671   1
  -7  -2  -7 7.69508 2.96245   1
   7  -2   7 6.53387 3.13954   2
  -7  -2  -7 6.79944 3.10069   2
  -7   2   7 8.45783 3.13699   3
   7  -2  -7 4.21416 2.96273   2
  -7  -2   7 7.45574 3.27939   3
  -7  -2   7 8.89870 2.82821   1
   7  -2  -7 9.94420 2.91697   1
  -7  -2   7 5.64285 2.76473   2
  -8  -2  -7 435.237 13.0373   2
   8  -2   7 423.223 12.4112   1
  -8   2   7 441.258 12.7772   3
   8  -2   7 430.422 12.9357   2
  -8  -2  -7 433.615 12.2086   1
   8  -2  -7 436.230 12.0371   1
  -8  -2   7 417.684 13.0430   3
   8  -2  -7 428.172 12.4724   2
  -8  -2   7 435.007 12.5056   2
  -8  -2   7 424.726 11.4463   1
  -9  -2  -7 42.6190 4.94187   1
  -9  -2  -7 49.1209 5.66233   2
  -9   2   7 48.1849 5.29851   3
  -9  -2  -7 50.3825 5.62932   2
   9  -2   7 42.7081 5.47220   2
   9  -2   7 35.0178 5.01380   1
  -9  -2   7 37.7098 5.46443   3
   9  -2  -7 49.2450 5.41511   2
   9  -2  -7 51.9634 5.13150   1
  -9  -2   7 51.8732 4.94346   1
  -9  -2   7 51.2704 5.61572   2
 -10  -2  -7 62.0927 5.95218   1
 -10  -2  -7 54.3605 6.10444   2
 -10  -2  -7 54.8238 6.16611   2
  10  -2   7 47.9838 5.71362   1
  10  -2   7 59.7756 6.60654   2
 -10  -2   7 48.4667 5.05543   1
  10  -2  -7 57.6294 6.26562   2
  10  -2  -7 61.4700 5.89870   1
 -10  -2   7 52.1804 5.69897   2
 -11  -2  -7 10.4203 4.62740   2
 -11  -2  -7 11.5912 4.12592   1
  11  -2   7 4.16696 4.11975   1
 -11  -2   7 9.06962 4.28186   2
 -11  -2   7 2.49118 3.34860   1
  11  -2  -7 8.85735 3.95542   1
  12  -2   7 134.877 9.37640   1
 -12  -2  -7 128.664 8.76262   1
  12  -2  -7 118.530 8.46844   1
 -12  -2   7 121.357 8.36282   1
 -12  -2   7 132.861 9.73019   2
 -13  -2  -7 14.8377 4.76170   1
  13  -2   7 4.44110 4.69027   1
 -13  -2   7 6.97829 4.29400   1
  13  -2  -7 7.91249 4.62941   1
  14  -2   7 155.180 10.6819   1
 -14  -2  -7 125.854 9.51159   1
 -14  -2   7 138.492 9.53970   1
  14  -2  -7 149.327 10.0593   1
  15  -2   7 229.507 12.6357   1
 -15  -2  -7 226.720 11.9634   1
 -15  -2   7 217.753 11.6411   1
  15  -2  -7 226.304 12.1792   1
 -16  -2  -7 320.496 14.4185   1
  16  -2   7 327.966 15.0099   1
 -16  -2   7 340.656 14.2513   1
  16  -2  -7 335.523 14.9475   1
   0  -3   7 165.796 5.50670   2
   0  -3  -7 167.288 6.17422   4
   0  -3  -7 172.222 4.63206   1
   0  -3  -7 173.768 4.42029   1
   0  -3  -7 173.329 5.70520   2
   0  -3   7 167.634 7.12352   4
   0  -3   7 161.488 5.30326   2
   0  -3   7 165.861 4.77739   3
  -1  -3  -7 303.181 7.89548   2
   1  -3   7 310.246 7.67431   2
   1  -3   7 313.967 9.60851   4
  -1  -3  -7 300.645 8.33450   4
  -1  -3  -7 306.644 6.34904   1
  -1  -3  -7 302.983 6.53367   1
   1  -3   7 316.836 6.45278   3
  -1  -3   7 298.427 7.62935   2
  -1  -3   7 312.632 7.42983   3
   1  -3  -7 311.076 8.52812   4
  -1  -3   7 297.819 9.33975   4
   1  -3  -7 308.592 7.97171   2
  -1  -3   7 327.391 7.62722   2
   1  -3  -7 315.689 6.72674   1
   2  -3   7 68.5387 2.64103   1
  -2  -3  -7 66.3487 3.26913   1
   2  -3   7 65.4095 2.45333   1
   2   3  -7 66.5508 3.96161   3
   2  -3   7 63.8495 3.98648   2
   2  -3   7 68.6836 2.83239   3
  -2  -3  -7 61.4143 4.03216   2
  -2  -3  -7 64.6392 4.50027   4
  -2  -3   7 58.7837 4.96571   4
  -2  -3   7 62.1761 4.05503   3
   2  -3  -7 61.5682 4.15403   2
   2  -3  -7 63.0770 3.37816   1
  -2  -3   7 67.6384 3.86866   2
  -3  -3  -7 291.528 8.86932   4
  -3  -3  -7 299.460 8.26415   2
   3  -3   7 286.008 8.03980   2
  -3   3   7 287.197 8.75814   3
  -3  -3  -7 290.760 6.95581   1
   3   3  -7 290.992 7.98600   3
   3  -3   7 288.713 6.58243   1
   3  -3  -7 281.968 8.14450   2
  -3  -3   7 299.082 5.60744   1
   3  -3  -7 300.063 7.19042   1
  -3  -3   7 300.601 5.68110   1
  -3  -3   7 288.629 7.74296   2
  -3  -3   7 279.720 9.40367   4
  -3  -3   7 289.780 8.28218   3
   4  -3   7 168.828 6.63450   2
   4  -3   7 168.169 5.52461   1
  -4  -3  -7 167.628 6.62301   2
  -4  -3  -7 175.433 5.61066   1
  -4   3   7 163.412 6.91380   3
  -4  -3   7 181.819 4.71948   1
  -4  -3   7 179.823 6.36027   2
  -4  -3   7 187.659 7.03214   3
   4  -3  -7 180.069 5.75167   1
   4  -3  -7 176.435 6.65197   2
  -4  -3   7 180.368 7.80429   4
   5  -3   7 542.325 11.6456   1
   5  -3   7 543.425 12.9848   2
  -5   3   7 550.430 13.0989   3
  -5  -3  -7 527.228 11.4119   1
  -5  -3  -7 525.821 12.8776   2
  -5  -3   7 547.087 12.4909   2
   5  -3  -7 530.171 12.7210   2
  -5  -3   7 539.686 13.2991   3
   5  -3  -7 540.623 11.6307   1
  -5  -3   7 520.122 10.4270   1
  -6   3   7 6.57169 2.94461   3
  -6  -3  -7 6.14380 2.52832   1
   6  -3   7 5.74728 2.62439   1
  -6  -3  -7 3.61362 2.79514   2
   6  -3   7 6.69560 2.99690   2
   6  -3  -7 5.32719 2.83421   2
  -6  -3   7 4.27308 2.03410   1
  -6  -3   7 8.73720 3.12214   3
  -6  -3   7 2.59136 2.57178   2
   6  -3  -7 4.93247 2.30737   1
   7  -3   7 21.7255 3.55278   1
  -7   3   7 16.9472 3.61455   3
  -7  -3  -7 21.2506 3.44982   1
   7  -3   7 19.8058 3.90893   2
  -7  -3  -7 24.6090 4.12723   2
  -7  -3   7 18.5290 2.85040   1
  -7  -3   7 23.1585 3.76056   2
  -7  -3   7 25.0226 4.24920   3
   7  -3  -7 25.3779 4.11892   2
   7  -3  -7 25.8959 3.41238   1
   8  -3   7 90.8396 7.01938   2
   8  -3   7 103.226 6.42979   1
  -8  -3  -7 101.892 6.06822   1
  -8   3   7 98.2320 6.89047   3
  -8  -3  -7 112.578 7.48207   2
  -8  -3   7 122.960 7.08984   2
  -8  -3   7 96.2282 7.53101   3
  -8  -3   7 105.264 5.57099   1
   8  -3  -7 84.8592 6.73772   2
   8  -3  -7 97.1698 6.02716   1
  -9   3   7 28.9846 4.77152   3
   9  -3   7 35.8130 5.14749   2
  -9  -3  -7 29.8643 4.22880   1
   9  -3   7 37.4141 4.97342   1
  -9  -3  -7 33.4311 5.33822   2
  -9  -3   7 34.8608 4.77864   2
   9  -3  -7 30.6329 4.20867   1
  -9  -3   7 34.3764 3.90391   1
   9  -3  -7 33.8807 4.97578   2
 -10  -3  -7 88.8973 7.38102   2
 -10  -3  -7 83.9166 6.66669   1
  10  -3   7 82.8677 7.46311   2
 -10  -3  -7 82.8466 7.28541   2
  10  -3   7 95.9959 7.49210   1
  10  -3  -7 94.9311 7.67313   2
 -10  -3   7 86.7299 7.24647   2
 -10  -3   7 103.317 6.37827   1
  10  -3  -7 82.6478 6.73241   1
 -11  -3  -7 57.2984 6.80969   2
  11  -3   7 45.7572 6.26891   2
  11  -3   7 46.8243 5.83836   1
 -11  -3  -7 42.4755 5.29206   1
 -11  -3   7 46.7080 5.98063   2
 -11  -3   7 50.3027 5.09325   1
  11  -3  -7 44.6569 6.02386   2
  11  -3  -7 42.9519 5.33078   1
  12  -3   7 82.9813 8.28439   2
  12  -3   7 69.8882 7.17413   1
 -12  -3  -7 70.0928 7.52982   2
 -12  -3  -7 60.5997 6.37459   1
 -12  -3   7 63.5174 6.06236   1
  12  -3  -7 61.7693 6.36344   1
 -12  -3   7 79.4189 7.87966   2
 -13  -3  -7 4.65501 4.19759   1
  13  -3   7 4.56076 4.40080   1
  13  -3  -7 0.18761 3.79960   1
 -13  -3   7 -4.9475 4.02360   2
 -13  -3   7 -1.4901 3.64405   1
 -14  -3  -7 30.7452 5.63526   1
  14  -3   7 4.97468 4.60636   1
  14  -3  -7 6.23366 4.60339   1
 -14  -3   7 17.4687 4.75761   1
 -15  -3  -7 122.725 9.25818   1
  15  -3   7 107.809 9.11544   1
 -15  -3   7 120.641 9.06042   1
  15  -3  -7 121.639 9.65091   1
   0  -4  -7 -1.1578 2.51985   4
   0  -4   7 -4.0283 2.64304   4
   0  -4   7 0.52875 1.71902   2
   0   4  -7 -2.6369 2.86834   5
   0  -4  -7 1.35698 1.94223   2
  -1  -4  -7 69.7962 4.38327   2
   1   4  -7 68.4506 5.98862   5
  -1  -4  -7 65.6619 5.30721   4
   1  -4   7 68.3416 5.82923   4
   1  -4   7 75.5530 4.10443   2
  -1  -4   7 73.3974 3.95966   2
   1  -4  -7 67.3442 5.23195   4
  -1  -4   7 60.5615 5.71100   4
   1  -4  -7 65.3708 4.21516   2
  -1   4  -7 65.4332 5.84299   5
  -2  -4  -7 2.53834 2.15873   2
  -2  -4  -7 -0.1129 2.58114   4
   2  -4   7 3.73850 2.12375   2
  -2  -4   7 8.19348 3.27741   4
   2  -4  -7 2.22718 2.20838   2
  -2   4  -7 3.68566 3.18811   5
  -2  -4   7 1.08790 1.83483   2
  -3   4   7 210.321 7.73958   3
  -3  -4  -7 182.776 8.02687   4
   3  -4   7 211.544 6.98221   2
  -3  -4  -7 187.574 6.80588   2
  -3   4  -7 203.497 9.08108   5
  -3  -4   7 199.637 8.99863   4
   3  -4  -7 203.218 7.07850   2
  -3  -4   7 197.928 6.44493   2
  -4  -4  -7 2212.11 36.8498   2
   4  -4   7 2213.94 36.8140   2
  -4   4   7 2253.23 37.7072   3
  -4  -4  -7 2191.59 40.2524   4
  -4   4  -7 2242.70 38.8924   5
  -4  -4   7 2267.76 41.6191   4
   4  -4  -7 2273.23 37.1293   2
  -4  -4   7 2260.13 36.2550   2
  -5   4   7 800.063 17.3803   3
  -5  -4  -7 818.662 19.5622   4
  -5  -4  -7 831.084 17.3055   2
   5  -4   7 815.029 17.3225   2
  -5  -4   7 834.711 20.3582   4
   5  -4  -7 820.310 17.3238   2
   5  -4  -7 822.072 14.0691   1
  -5  -4   7 792.606 16.5740   2
  -5   4  -7 795.020 18.5068   5
   6  -4   7 30.8497 4.11900   2
  -6  -4  -7 24.6549 1.69908   1
   6  -4   7 24.3503 2.26748   1
  -6  -4  -7 22.0285 3.85480   2
   6  -4  -7 25.0519 3.92116   2
  -6   4  -7 26.3308 4.56932   5
  -6  -4   7 22.9170 4.85747   4
   6  -4  -7 25.6324 2.82891   1
  -6  -4   7 20.8986 3.52016   2
   6   4   7 31.6356 4.30205   5
  -7  -4  -7 280.729 6.59431   1
   7  -4   7 285.202 7.50841   1
  -7  -4  -7 277.905 10.1584   2
   7  -4   7 275.584 10.1627   2
   7  -4  -7 278.408 10.1700   2
   7  -4  -7 267.228 7.90502   1
  -7  -4   7 255.388 9.35122   2
  -7   4  -7 265.780 10.4884   5
  -8  -4  -7 11.0200 2.59574   1
   8  -4   7 11.7226 3.08303   1
  -8  -4  -7 3.49104 3.64042   2
   8  -4   7 7.82302 3.81118   2
  -8  -4   7 12.6685 1.95463   1
   8  -4  -7 10.5727 3.65123   2
   8  -4  -7 15.7399 3.06330   1
  -8  -4   7 9.39176 3.52456   2
  -9  -4  -7 29.9409 3.65586   1
   9  -4   7 28.3299 5.10143   2
   9  -4   7 32.6601 4.19592   1
  -9  -4  -7 27.6397 5.09587   2
   9  -4  -7 21.8161 4.55503   2
   9  -4  -7 28.3441 3.90528   1
  -9  -4   7 39.1358 3.10985   1
  -9  -4   7 31.0035 4.75147   2
 -10  -4  -7 91.8426 6.01393   1
  10  -4   7 100.948 8.42723   2
 -10  -4  -7 95.8216 8.00355   2
 -10  -4  -7 94.8600 7.90498   2
  10  -4   7 100.441 6.83481   1
  10  -4  -7 98.2554 6.66789   1
  10  -4  -7 100.341 8.10937   2
 -10  -4   7 86.7922 7.13959   2
 -10  -4   7 85.5508 5.08769   1
  11  -4   7 320.775 11.3552   1
 -11  -4  -7 349.029 13.8177   2
 -11  -4  -7 321.236 10.4334   1
  11  -4   7 341.753 13.8645   2
  11  -4  -7 348.477 11.3771   1
 -11  -4   7 342.965 9.47358   1
  11  -4  -7 347.613 13.7118   2
 -11  -4   7 342.856 13.0894   2
 -12  -4  -7 151.844 10.5408   2
  12  -4   7 140.086 8.85717   1
  12  -4   7 133.457 10.2827   2
 -12  -4  -7 142.152 7.90433   1
 -12  -4   7 123.407 9.53440   2
  12  -4  -7 147.144 8.56060   1
  12  -4  -7 140.027 10.2428   2
 -12  -4   7 137.427 6.98741   1
 -13  -4  -7 115.768 7.94387   1
 -13  -4  -7 112.145 9.61856   2
  13  -4   7 116.488 9.93715   2
  13  -4   7 114.869 8.73498   1
 -13  -4   7 113.337 9.68954   2
  13  -4  -7 110.965 8.37858   1
 -13  -4   7 112.943 7.12260   1
 -14  -4  -7 179.809 12.1740   2
  14  -4   7 167.794 10.3199   1
 -14  -4  -7 181.577 9.24792   1
  14  -4  -7 175.188 9.96162   1
 -14  -4   7 169.372 11.8193   2
 -14  -4   7 150.983 8.19045   1
   0  -5   7 163.016 9.08761   4
   0  -5   7 165.629 5.60251   2
   0  -5  -7 169.024 6.22615   2
   0   5  -7 152.818 9.17904   5
   0  -5  -7 151.941 8.29441   4
   1  -5   7 226.753 6.80217   2
   1   5  -7 231.551 10.5748   5
  -1  -5  -7 217.411 9.69609   4
  -1  -5  -7 224.432 7.20642   2
   1  -5   7 229.854 10.6897   4
  -1  -5   7 207.944 6.36496   2
  -1   5  -7 206.522 10.0454   5
  -1  -5   7 236.135 10.7583   4
   1  -5  -7 219.371 7.17874   2
   1  -5  -7 226.628 9.69263   4
   2   5  -7 48.3453 5.88370   5
   2  -5   7 51.8039 4.12847   2
  -2  -5  -7 58.0199 5.92400   4
  -2  -5  -7 54.5989 4.40007   2
  -2  -5   7 59.9865 4.05661   2
  -2  -5   7 42.9586 5.81057   4
  -2   5  -7 48.4671 5.90997   5
   2  -5  -7 45.5703 4.07671   2
   3  -5   7 190.390 6.90103   2
  -3  -5  -7 190.195 9.25073   4
  -3  -5  -7 186.100 7.07178   2
   3   5  -7 176.653 9.75163   5
  -3  -5   7 196.418 9.71875   4
  -3   5  -7 188.181 9.83917   5
   3  -5  -7 192.782 7.20531   2
  -3  -5   7 194.287 6.50723   2
   4  -5   7 90.9663 5.70882   2
  -4  -5  -7 96.6560 5.85579   2
  -4  -5  -7 104.300 7.68966   4
  -4   5  -7 110.376 8.27677   5
  -4  -5   7 108.836 8.45468   4
  -4  -5   7 110.366 5.43307   2
   4   5   7 99.4960 7.74548   5
   4  -5  -7 95.3734 5.95570   2
   5  -5   7 352.298 10.6705   2
  -5  -5  -7 329.947 10.3255   2
  -5  -5  -7 354.241 12.9732   4
  -5  -5   7 348.836 9.90523   2
   5   5   7 352.642 12.3385   5
  -5   5  -7 353.381 12.7115   5
  -5  -5   7 355.084 13.7814   4
   5  -5  -7 343.268 10.6020   2
  -6  -5  -7 6.23015 3.23178   2
  -6  -5  -7 1.04663 4.18327   4
   6  -5   7 0.10092 2.97464   2
  -6  -5   7 2.22958 2.75049   2
  -6   5  -7 4.99747 3.98193   5
   6   5   7 3.76444 3.56927   5
   6  -5  -7 5.38860 3.17512   2
  -6  -5   7 6.01846 4.63112   4
  -7  -5  -7 2.85858 4.70207   4
  -7  -5  -7 10.9123 3.75908   2
   7  -5   7 11.3606 3.87115   2
   7  -5  -7 14.2393 3.90363   2
  -7  -5   7 4.69170 3.07059   2
  -7  -5   7 5.89990 4.51581   4
  -8  -5  -7 88.1727 7.09597   2
   8  -5   7 98.6672 7.73102   2
   8  -5  -7 103.622 7.67645   2
  -8  -5   7 89.6640 8.63345   4
  -8  -5   7 97.4990 7.10859   2
   9  -5   7 31.4465 5.37108   2
  -9  -5  -7 41.7009 5.85124   2
   9  -5  -7 31.4608 5.40718   2
  -9  -5   7 31.7545 6.61015   4
  -9  -5   7 27.5332 4.72394   2
 -10  -5  -7 86.6934 7.88740   2
 -10  -5  -7 111.166 8.75038   2
  10  -5   7 101.697 8.46124   2
  10  -5  -7 87.7372 7.96706   2
 -10  -5   7 86.0214 7.41239   2
  11  -5   7 28.3505 5.93284   2
 -11  -5  -7 29.7734 5.96170   2
  11  -5  -7 41.4298 6.45069   2
  11  -5  -7 41.2500 4.36824   1
 -11  -5   7 34.4287 5.65326   2
  12  -5   7 43.5278 6.89646   2
 -12  -5  -7 48.8366 6.87893   2
  12  -5  -7 38.6563 6.73437   2
  12  -5  -7 54.7408 5.15167   1
 -12  -5   7 38.1681 6.43170   2
  13  -5   7 -0.2526 5.02054   2
 -13  -5  -7 7.89281 5.09132   2
  13  -5  -7 -0.4354 3.80511   1
  13  -5  -7 1.53891 4.90044   2
 -13  -5   7 0.73132 4.61780   2
   0  -6  -7 1.49183 2.41640   2
   0  -6   7 -1.2291 4.20632   4
   0  -6   7 0.16589 2.12128   2
   0  -6  -7 4.68354 4.02520   4
   1  -6   7 95.8151 5.06326   2
  -1  -6  -7 90.8744 5.49008   2
  -1  -6  -7 105.120 8.25864   4
   1  -6   7 77.5543 8.32689   4
  -1  -6   7 92.2465 4.69052   2
  -1  -6   7 75.0193 7.84932   4
   1  -6  -7 106.464 8.64502   4
   1  -6  -7 87.9100 5.43403   2
   2  -6   7 108.380 5.59907   2
  -2  -6  -7 111.169 8.91810   4
  -2  -6  -7 90.8015 5.57934   2
  -2  -6   7 97.0789 4.97242   2
  -2  -6   7 91.6251 8.79034   4
   2  -6  -7 102.684 5.76849   2
  -3  -6  -7 4.55801 2.80951   2
  -3  -6  -7 1.16101 4.38132   4
   3  -6   7 1.49383 2.65399   2
   3  -6  -7 -0.6755 2.61645   2
  -3  -6   7 7.54181 2.50620   2
  -3  -6   7 5.61250 5.01732   4
  -4  -6  -7 4.26293 4.39848   4
  -4  -6  -7 2.67087 2.96118   2
   4  -6   7 1.04309 3.02393   2
   4  -6  -7 -1.1261 2.72508   2
  -4  -6   7 4.83585 2.67928   2
  -4  -6   7 -2.3899 4.60789   4
  -5  -6  -7 35.7865 4.50168   2
   5  -6   7 45.3583 4.82997   2
  -5  -6  -7 38.1776 6.44171   4
   5  -6  -7 30.9219 4.46403   2
  -5  -6   7 43.8876 6.91289   4
  -5  -6   7 39.6038 4.17908   2
  -6  -6  -7 30.0487 4.54066   2
   6  -6   7 27.3330 4.54740   2
  -6  -6  -7 27.3409 6.38903   4
  -6  -6   7 22.0887 3.79804   2
   6  -6  -7 28.6079 4.61041   2
  -6  -6   7 25.6859 6.35481   4
   7  -6   7 6.25724 3.74786   2
  -7  -6  -7 11.9216 5.77657   4
  -7  -6  -7 11.7532 3.85252   2
   7  -6  -7 4.19853 3.73215   2
  -7  -6   7 4.60251 2.99493   2
  -7  -6   7 12.0315 5.72016   4
   8  -6   7 182.636 9.94276   2
  -8  -6  -7 212.578 12.8826   4
  -8  -6  -7 183.657 9.48861   2
  -8  -6   7 195.424 12.6410   4
   8  -6  -7 191.581 9.70817   2
  -8  -6   7 185.844 8.97897   2
  -9  -6  -7 24.9473 4.94978   2
  -9  -6  -7 22.3287 7.07570   4
   9  -6   7 38.6232 5.86137   2
  -9  -6  -7 32.8462 5.47510   2
   9  -6  -7 15.4005 4.73903   2
  -9  -6   7 27.5646 6.95752   4
  -9  -6   7 24.6907 4.86532   2
 -10  -6  -7 20.3577 5.22206   2
 -10  -6  -7 16.7815 6.82147   4
 -10  -6  -7 26.4316 5.38855   2
  10  -6   7 18.2980 5.34744   2
  10  -6  -7 21.4196 5.52149   2
 -10  -6   7 17.4402 6.68581   4
 -10  -6   7 17.2995 4.78556   2
 -11  -6  -7 15.3672 5.02344   2
  11  -6   7 5.85313 4.61401   2
 -11  -6  -7 10.5370 7.15846   4
  11  -6  -7 0.64084 4.49844   2
 -11  -6   7 4.99208 4.38878   2
 -11  -6   7 5.66825 5.95284   4
   0  -7   7 64.5895 4.59573   2
   0  -7   7 47.4595 7.69616   4
   0  -7  -7 49.8533 7.63864   4
   0  -7  -7 53.4902 4.60671   2
   1  -7   7 113.478 5.70724   2
  -1  -7  -7 108.931 9.68141   4
  -1  -7  -7 103.363 5.98892   2
   1  -7   7 113.695 10.3884   4
   1  -7  -7 110.225 6.14059   2
  -1  -7   7 133.341 10.4476   4
  -1  -7   7 115.014 5.28263   2
  -2  -7  -7 21.1711 3.61913   2
  -2  -7  -7 30.4185 6.50449   4
   2  -7   7 29.4273 3.73774   2
   2  -7  -7 24.0911 3.88609   2
  -2  -7   7 24.5936 6.45951   4
  -2  -7   7 19.7598 3.04944   2
   3  -7   7 115.775 6.64482   2
  -3  -7  -7 106.157 6.43494   2
  -3  -7  -7 123.412 10.4074   4
   3  -7  -7 109.474 6.52150   2
  -3  -7   7 99.7255 5.52485   2
  -3  -7   7 102.582 10.0313   4
  -4  -7  -7 77.3512 6.23741   2
   4  -7   7 67.1877 5.48137   2
  -4  -7  -7 81.2947 9.33104   4
  -4  -7   7 72.8373 5.30528   2
   4  -7  -7 73.1333 5.93823   2
  -4  -7   7 82.9795 9.28967   4
   5  -7   7 196.378 8.78592   2
  -5  -7  -7 207.778 8.96272   2
  -5  -7  -7 226.848 12.9853   4
   5  -7  -7 207.169 8.99192   2
  -5  -7   7 203.496 8.03012   2
  -5  -7   7 217.067 13.4780   4
  -6  -7  -7 7.93163 3.84300   2
  -6  -7  -7 0.27292 5.50461   4
   6  -7   7 -1.4772 3.40403   2
  -6  -7   7 8.20823 3.22995   2
  -6  -7   7 12.7490 6.47775   4
   6  -7  -7 0.57358 3.41110   2
  -7  -7  -7 14.0065 6.30895   4
   7  -7   7 12.2822 4.30657   2
  -7  -7  -7 9.79293 4.23199   2
  -7  -7   7 10.7021 6.26719   4
  -7  -7   7 12.4166 3.75946   2
   7  -7  -7 10.9682 4.36884   2
  -8  -7  -7 62.2724 9.18697   4
   8  -7   7 28.4208 5.44189   2
  -8  -7  -7 47.7895 6.10218   2
  -8  -7   7 36.2732 7.49978   4
   8  -7  -7 43.1208 5.90968   2
  -8  -7   7 43.9872 5.38967   2
  -9  -7  -7 20.7131 5.00027   2
  -9  -7  -7 12.6139 4.90875   2
  -9  -7  -7 29.1377 8.12382   4
   9  -7   7 18.8070 5.19715   2
  -9  -7   7 8.95498 6.54523   4
  -9  -7   7 16.8893 4.65183   2
   9  -7  -7 15.1801 4.88174   2
   0  -8  -7 0.80591 2.95750   2
   0  -8   7 2.61253 2.69043   2
   0  -8   7 2.11779 6.05737   4
  -1  -8  -7 20.2055 3.72490   2
   1  -8   7 21.5935 3.44201   2
   1  -8  -7 14.9497 3.55266   2
  -1  -8   7 20.0097 7.14897   4
  -1  -8   7 21.4676 3.26997   2
   2  -8   7 -2.2589 2.89194   2
  -2  -8  -7 1.16803 3.01811   2
  -2  -8   7 -5.0331 2.42579   2
  -2  -8   7 1.05197 5.68444   4
   2  -8  -7 1.25965 2.96385   2
   3  -8   7 71.6571 5.63761   2
  -3  -8  -7 52.8593 4.94798   2
   3  -8  -7 67.9307 5.54865   2
  -3  -8   7 70.6591 5.18841   2
  -3  -8   7 65.2659 9.54378   4
   4  -8   7 750.608 17.2672   2
  -4  -8  -7 745.725 17.2434   2
   4  -8  -7 762.191 17.6460   2
  -4  -8   7 757.825 15.7045   2
  -4  -8   7 738.064 25.2746   4
   0   0   8 1359.04 22.9951   2
   0   0   8 1325.88 23.0240   1
   0   0  -8 1384.22 23.0413   2
   0   0  -8 1328.22 22.9783   1
   1   0  -8 77.9587 4.52093   1
  -1   0  -8 74.6243 4.64580   1
   1   0  -8 76.7283 4.68996   2
  -1   0   8 76.3038 4.58453   2
  -1   0  -8 83.4976 4.67037   2
   1   0   8 84.6504 4.69021   1
  -1   0   8 83.7019 4.54673   1
  -2   0   8 43.3598 3.58373   1
   2   0   8 49.0226 3.95241   1
  -2   0   8 38.7527 3.62157   3
   2   0   8 45.3271 3.57348   2
  -2   0   8 45.5245 3.60408   2
  -2   0  -8 46.8651 3.69335   1
  -2   0  -8 46.3917 3.72923   2
  -3   0   8 382.037 9.54413   1
  -3   0  -8 367.995 9.61694   2
  -3   0   8 374.839 9.47866   2
  -3   0  -8 386.085 9.68059   1
   3   0  -8 376.697 9.47537   2
   3   0   8 381.411 9.80648   2
   3   0   8 383.201 9.78516   1
  -3   0   8 367.087 9.77180   3
   4   0  -8 613.785 13.2762   2
  -4   0   8 615.168 13.1839   1
   4   0   8 617.439 13.7137   1
   4   0   8 601.072 13.5737   2
  -4   0   8 601.546 13.2211   2
  -4   0  -8 592.311 13.5512   2
  -4   0   8 611.731 13.7326   3
  -4   0  -8 611.358 13.5619   1
   4   0  -8 617.864 13.2614   1
  -5   0   8 112.637 5.86065   1
  -5   0  -8 110.361 6.14110   2
   5   0  -8 128.972 5.80249   2
   5   0   8 131.475 6.34403   2
  -5   0   8 125.033 6.35608   3
  -5   0  -8 133.884 6.46283   1
   6   0   8 203.669 8.00118   2
  -6   0   8 202.972 7.70255   2
   6   0  -8 200.004 7.61130   2
  -6   0   8 194.403 7.52604   1
  -6   0  -8 202.610 8.01724   2
   6   0  -8 198.356 7.60106   1
  -6   0  -8 188.188 7.76167   1
   6   0   8 196.592 8.06272   1
  -6   0   8 208.247 8.04706   3
  -7   0   8 245.426 8.79317   1
   7   0   8 228.037 9.21707   1
  -7   0   8 245.833 8.79874   2
  -7   0  -8 234.613 9.01956   1
  -7   0   8 222.520 8.76600   3
  -7   0  -8 238.368 9.14441   2
   7   0  -8 244.724 8.75317   1
  -8   0   8 238.733 9.59702   3
  -8   0  -8 245.738 9.73786   1
   8   0  -8 233.234 9.18010   1
  -8   0   8 234.841 9.13185   1
   8   0   8 216.812 9.36026   1
   9   0  -8 -2.5083 2.87711   1
  -9   0  -8 0.97204 3.33153   1
  -9   0   8 8.09871 3.44770   3
  -9   0   8 -2.2409 2.91174   1
   9   0   8 4.33640 3.69910   1
 -10   0   8 233.040 10.0194   1
 -10   0  -8 218.347 10.2570   1
  10   0   8 241.777 10.7786   1
  10   0  -8 240.173 10.3106   1
  11   0   8 254.612 11.6391   1
  11   0  -8 242.067 10.8570   1
 -11   0   8 222.251 10.4985   1
 -11   0  -8 242.952 11.0530   1
 -12   0  -8 405.494 14.5463   1
  12   0  -8 372.499 13.9108   1
  12   0   8 342.060 13.8855   1
 -12   0   8 384.634 13.8757   1
  13   0  -8 66.9972 7.66920   1
 -13   0   8 68.9182 7.39010   1
 -13   0  -8 93.7817 8.81462   1
  13   0   8 72.1358 7.80106   1
 -14   0  -8 180.193 11.2786   1
  14   0   8 150.071 11.0926   1
 -14   0   8 152.071 10.4683   1
  14   0  -8 141.634 10.5804   1
 -15   0   8 322.551 14.4212   1
 -15   0  -8 295.689 14.4823   1
  15   0   8 348.010 15.3931   1
  15   0  -8 303.274 14.7014   1
 -16   0   8 23.5324 6.22157   1
  16   0   8 25.0461 6.69572   1
 -16   0  -8 26.9375 6.71938   1
   0  -1  -8 0.58328 2.01852   1
   0   1   8 0.13282 2.10920   1
   0   1  -8 -0.2465 1.98630   1
   0  -1   8 -1.6091 2.00501   1
   0  -1   8 -1.6641 1.86148   2
   0  -1   8 -2.3854 1.54678   4
   0  -1  -8 -2.7678 1.93135   2
   1  -1   8 125.429 5.28103   1
  -1  -1  -8 137.468 5.48994   1
  -1  -1  -8 134.361 5.52609   2
   1  -1   8 140.063 5.52051   2
  -1   1   8 136.224 5.46416   1
  -1  -1   8 132.031 5.23385   1
   1   1   8 142.076 5.65788   1
   1  -1  -8 122.121 5.29471   1
  -1  -1   8 140.749 5.34986   2
  -1   1  -8 139.241 5.47257   1
  -1  -1   8 127.909 4.29349   4
  -1  -1   8 133.408 5.46736   3
  -2  -1  -8 9.56410 2.49164   1
  -2   1   8 12.6519 2.58927   1
   2   1  -8 12.5314 2.50039   1
   2  -1   8 9.89736 2.45785   1
  -2  -1  -8 16.3503 2.74601   1
   2  -1   8 9.00877 2.43893   2
  -2  -1  -8 11.1356 2.50783   2
  -2  -1   8 13.7270 2.46329   1
  -2  -1   8 8.74638 1.94715   4
  -2  -1   8 8.49367 2.47895   3
  -2  -1   8 6.34468 2.20690   2
  -2   1  -8 14.0175 2.62503   1
   2  -1  -8 11.9050 2.54712   2
   2  -1  -8 12.8374 2.46257   1
   2   1   8 6.59682 2.51180   1
  -3   1   8 87.6646 5.21232   3
   3  -1   8 87.5390 4.97212   2
  -3   1   8 86.3017 4.72654   1
   3  -1   8 82.0663 4.97615   1
   3   1  -8 80.2695 4.66612   1
  -3  -1  -8 89.7409 5.12000   2
  -3  -1  -8 83.1487 4.85854   1
  -3  -1   8 90.7231 5.11867   3
  -3  -1   8 80.6071 4.63701   2
   3   1   8 79.6385 5.02933   1
  -3   1  -8 80.3113 4.88802   1
  -3  -1   8 78.4201 4.56852   1
   3  -1  -8 89.3257 4.91553   2
  -3   1  -8 84.8478 4.99369   1
   3  -1  -8 80.0164 4.61691   1
   4  -1   8 74.0552 4.95653   2
  -4  -1  -8 66.1540 4.90553   2
  -4   1   8 71.0980 4.76551   1
  -4  -1  -8 68.4375 4.93998   1
  -4   1   8 63.1616 4.89558   3
   4  -1   8 63.0259 4.86633   1
  -4   1   8 58.5608 4.54883   2
   4   1   8 59.0188 4.52664   1
  -4  -1   8 61.8250 4.56778   2
  -4   1  -8 64.7267 4.80745   1
  -4  -1   8 63.5792 4.89479   3
  -4  -1   8 64.8260 4.38412   1
   4  -1  -8 61.8942 4.64037   2
   4  -1  -8 59.9345 4.45769   1
  -5   1   8 215.221 7.54894   2
  -5   1   8 213.493 7.69777   1
   5   1  -8 216.365 7.43212   1
  -5  -1  -8 218.042 7.67536   1
  -5  -1  -8 211.903 7.91856   2
   5  -1   8 200.839 7.72121   1
  -5   1   8 200.376 7.67651   3
  -5   1  -8 197.553 7.59385   1
  -5  -1   8 195.759 7.09484   1
   5   1   8 193.470 7.68005   1
  -5  -1   8 195.554 7.65168   3
   5  -1  -8 195.036 7.23998   1
  -5  -1   8 206.100 7.35500   2
   5  -1  -8 212.806 7.57677   2
   6  -1   8 10.9013 3.22448   2
   6   1  -8 6.75212 2.70454   1
  -6   1   8 1.29978 2.55266   3
  -6   1   8 4.64503 2.88703   1
  -6  -1  -8 7.95051 3.04874   2
  -6  -1  -8 7.71114 2.87771   1
   6  -1   8 3.65734 2.78901   1
  -6   1  -8 6.63776 3.05160   1
  -6  -1   8 5.10395 2.64879   2
  -6  -1   8 3.31444 2.49867   1
   6  -1  -8 5.77470 2.72036   2
   6  -1  -8 8.49355 2.67290   1
   6   1   8 1.96061 2.89089   1
  -6  -1   8 4.21577 2.63639   3
  -7  -1  -8 3.50883 2.90090   1
   7   1  -8 7.74170 3.02432   1
   7  -1   8 4.03837 3.07092   1
  -7  -1  -8 4.51076 2.95038   2
  -7   1   8 2.59160 2.73706   1
  -7   1   8 2.59184 2.80293   3
   7  -1   8 4.33995 3.02515   2
   7  -1  -8 4.91807 2.63034   1
  -7  -1   8 0.36056 2.66501   3
  -7   1  -8 3.52520 2.97730   1
  -7  -1   8 3.73483 2.67892   2
   7  -1  -8 2.99226 2.85783   2
  -7  -1   8 3.32466 2.64746   1
   7   1   8 6.87885 3.32496   1
   8  -1   8 493.927 14.0029   1
   8  -1   8 492.954 13.9902   2
  -8  -1  -8 504.371 14.0890   2
   8   1  -8 473.868 13.3334   1
  -8   1   8 472.957 13.5817   3
  -8   1   8 494.845 13.4936   1
  -8  -1  -8 490.876 13.6170   1
  -8   1  -8 528.164 14.1719   1
  -8  -1   8 489.735 13.4588   2
   8  -1  -8 479.509 13.4157   2
  -8  -1   8 486.389 13.0141   1
   8   1   8 496.742 14.2158   1
   8  -1  -8 487.940 13.2693   1
  -8  -1   8 478.386 13.8980   3
  -9   1   8 12.6175 3.85186   1
  -9  -1  -8 3.68932 3.49736   2
   9   1  -8 3.32235 3.52121   1
  -9  -1  -8 8.09779 3.65581   2
   9  -1   8 -4.4164 3.31772   2
  -9  -1  -8 5.94877 3.54626   1
   9  -1   8 5.69962 3.43391   1
  -9   1   8 1.40985 3.13556   3
  -9  -1   8 1.45874 3.13908   1
  -9   1  -8 0.33308 3.51327   1
   9   1   8 2.67630 3.61090   1
   9  -1  -8 5.57108 3.38804   1
  -9  -1   8 2.30989 3.29890   2
  10  -1   8 217.586 10.1271   1
 -10   1   8 199.997 9.84005   1
 -10  -1  -8 215.110 9.87232   1
  10  -1  -8 227.919 9.84478   1
 -10   1  -8 232.057 10.5082   1
  10   1   8 214.166 10.4877   1
 -10  -1   8 220.212 9.66796   1
 -10  -1   8 206.041 10.1062   2
 -11  -1  -8 365.006 13.2360   1
  11  -1   8 364.830 13.4161   1
 -11   1   8 376.555 13.4146   1
 -11  -1   8 362.800 12.8563   1
  11  -1  -8 381.313 13.2272   1
 -11   1  -8 389.933 13.8287   1
 -12  -1  -8 145.320 9.63995   1
 -12   1   8 152.475 9.73580   1
  12  -1   8 139.539 9.68224   1
 -12  -1   8 135.364 8.90666   1
 -12   1  -8 141.918 9.72798   1
  12  -1  -8 146.430 9.41449   1
  13  -1   8 13.6293 5.15087   1
 -13   1   8 21.9093 5.77021   1
 -13  -1  -8 31.3098 5.92071   1
  13  -1  -8 18.4667 5.26032   1
 -13  -1   8 11.0311 4.63789   1
 -14  -1  -8 24.1395 5.79072   1
 -14   1   8 36.8433 6.60619   1
  14  -1   8 37.5650 6.83600   1
 -14  -1   8 23.5076 5.46752   1
  14  -1  -8 28.1915 5.98502   1
 -15  -1  -8 75.0057 8.42675   1
 -15   1   8 91.1214 9.18343   1
  15  -1   8 86.8575 8.90928   1
  15  -1  -8 93.8843 9.04275   1
 -15  -1   8 81.4319 8.51438   1
 -16   1   8 335.547 17.4354   1
  16  -1   8 338.582 15.8217   1
 -16  -1  -8 324.324 14.9028   1
 -16  -1   8 377.498 15.4752   1
  16  -1  -8 332.625 15.3955   1
   0  -2   8 220.338 6.56239   2
   0  -2   8 220.720 6.22751   3
   0  -2   8 224.371 6.27704   1
   0  -2  -8 211.281 5.48969   4
   0  -2   8 225.280 6.92151   4
   0  -2  -8 219.099 6.43176   1
   0  -2  -8 213.940 6.44274   1
   0  -2  -8 214.464 6.72841   2
  -1  -2  -8 477.773 10.7993   2
  -1  -2  -8 478.591 10.3676   1
   1  -2   8 471.875 11.1465   4
   1  -2   8 470.853 10.2967   1
   1  -2   8 488.582 10.5897   2
  -1  -2  -8 472.604 9.57932   4
  -1  -2   8 479.067 10.0134   1
  -1  -2   8 478.706 10.3222   3
   1  -2  -8 479.803 10.3884   1
  -1  -2   8 471.911 10.4844   2
   1  -2  -8 468.277 10.7559   2
  -1  -2   8 489.354 11.0404   4
  -2  -2  -8 69.3545 4.51304   2
   2  -2   8 65.1970 4.31776   2
  -2  -2  -8 68.8451 4.25204   1
   2  -2   8 64.3347 4.30386   1
  -2  -2   8 72.0502 4.39967   3
  -2  -2   8 63.1849 4.21539   2
   2  -2  -8 73.1347 4.19366   1
  -2  -2   8 66.2136 4.21555   4
   2  -2  -8 64.5158 4.35145   2
  -2  -2   8 73.6785 3.95049   1
   3  -2   8 1180.38 21.1058   1
  -3  -2  -8 1166.33 20.9505   1
  -3   2   8 1175.41 22.0641   3
  -3   2   8 1213.47 21.3308   1
  -3  -2  -8 1152.92 21.3123   2
   3  -2   8 1148.76 21.1934   2
  -3  -2   8 1178.95 21.3911   3
  -3  -2   8 1204.32 20.3638   1
  -3  -2   8 1159.28 20.9266   2
   3  -2  -8 1158.31 20.6881   1
  -3  -2   8 1170.77 21.9851   4
   3  -2  -8 1165.86 21.3733   2
   4  -2   8 381.686 10.4349   2
   4  -2   8 419.388 10.3493   1
  -4  -2  -8 414.597 10.6716   2
  -4   2   8 387.684 10.4181   1
  -4   2   8 404.902 10.8861   3
  -4  -2  -8 405.274 10.1532   1
   4  -2  -8 392.286 9.90828   1
   4  -2  -8 389.966 10.3775   2
   4   2   8 406.352 10.8178   1
  -4  -2   8 406.260 10.1650   2
  -4  -2   8 399.222 10.5457   3
  -4  -2   8 410.068 9.50148   1
   5  -2   8 1532.78 27.7613   2
  -5  -2  -8 1498.43 27.0919   1
  -5  -2  -8 1560.29 27.8516   2
  -5   2   8 1601.84 27.6392   1
   5  -2   8 1551.82 27.4500   1
  -5   2   8 1508.24 27.9485   3
  -5  -2   8 1569.63 28.1465   3
  -5  -2   8 1561.56 26.4562   1
  -5  -2   8 1523.54 27.2148   2
   5  -2  -8 1544.51 27.5528   2
   5  -2  -8 1547.40 26.9758   1
  -6   2   8 294.189 9.68533   3
  -6  -2  -8 282.436 9.05138   1
   6  -2   8 263.830 9.22723   1
  -6  -2  -8 283.474 9.71230   2
   6  -2   8 287.317 9.64876   2
   6  -2  -8 286.490 8.98757   1
   6  -2  -8 290.899 9.42759   2
  -6  -2   8 276.200 9.15557   2
  -6  -2   8 302.086 9.95735   3
  -6  -2   8 285.991 8.47646   1
   7  -2   8 344.358 11.0495   2
  -7  -2  -8 347.373 11.2278   2
   7  -2   8 332.220 10.8400   1
  -7  -2  -8 335.730 10.3387   1
  -7   2   8 336.713 10.8300   3
  -7  -2   8 342.843 11.1815   3
  -7  -2   8 326.833 9.73323   1
   7  -2  -8 321.082 10.1447   1
  -7  -2   8 349.144 10.7450   2
   7  -2  -8 341.771 10.7478   2
  -8  -2  -8 42.2164 5.21147   2
   8  -2   8 57.1683 5.97505   2
   8  -2   8 51.6378 5.22622   1
  -8  -2  -8 53.9563 5.16418   1
  -8   2   8 53.2836 5.34430   3
   8  -2  -8 71.9324 5.74763   1
  -8  -2   8 52.6024 4.81309   1
  -8  -2   8 47.9180 5.46714   3
   8  -2  -8 57.6885 5.52565   2
  -8  -2   8 47.7618 5.07734   2
   9  -2   8 0.15406 3.25025   2
  -9  -2  -8 1.21304 3.49535   2
  -9  -2  -8 1.83121 3.06851   1
  -9   2   8 3.23156 3.39088   3
   9  -2   8 6.55351 3.65122   1
  -9  -2   8 6.83634 3.16412   1
   9  -2  -8 7.77993 3.63355   2
  -9  -2   8 0.95722 3.12631   2
   9  -2  -8 -1.2503 3.00482   1
 -10  -2  -8 56.3800 6.40719   2
  10  -2   8 58.3503 6.23607   1
 -10  -2  -8 51.9261 6.16585   2
 -10  -2  -8 62.6585 6.11059   1
  10  -2   8 56.8650 6.50957   2
 -10  -2   8 58.6305 6.08752   2
  10  -2  -8 66.5839 6.26388   1
 -10  -2   8 58.7464 5.65583   1
  10  -2  -8 55.3804 6.17225   2
 -11  -2  -8 332.489 12.3302   1
 -11  -2  -8 326.059 13.5391   2
  11  -2   8 349.412 12.9348   1
 -11  -2   8 332.805 11.8701   1
 -11  -2   8 353.255 13.1737   2
  11  -2  -8 328.379 12.1469   1
 -12  -2  -8 674.605 18.5509   1
  12  -2   8 671.508 19.1594   1
 -12  -2   8 704.763 18.3255   1
  12  -2  -8 703.452 18.8245   1
  13  -2   8 33.3754 5.95768   1
 -13  -2  -8 34.2747 5.89962   1
  13  -2  -8 36.9688 5.82648   1
 -13  -2   8 41.3417 5.96557   1
 -14  -2  -8 32.2637 6.12760   1
  14  -2   8 38.5356 6.57775   1
  14  -2  -8 28.6871 6.01026   1
 -14  -2   8 31.1024 5.77897   1
 -15  -2  -8 128.865 9.94999   1
  15  -2   8 109.221 9.63171   1
  15  -2  -8 111.203 9.57676   1
 -15  -2   8 108.289 9.00177   1
  16  -2   8 319.597 14.8057   1
 -16  -2  -8 309.537 13.9774   1
  16  -2  -8 289.362 13.8459   1
 -16  -2   8 261.459 13.2399   1
   0  -3   8 -1.2585 1.06679   1
   0  -3  -8 -2.0488 1.92638   4
   0  -3  -8 -0.7575 1.86098   2
   0  -3   8 0.32707 1.28246   1
   0  -3  -8 -0.8988 1.62036   1
   0  -3   8 0.45676 2.42770   4
   0  -3   8 -1.8367 1.61388   3
   0  -3   8 -0.9621 1.73613   2
   1  -3   8 80.3968 3.55251   3
  -1  -3  -8 79.5572 4.66387   2
  -1  -3  -8 84.5987 3.95586   1
  -1  -3  -8 81.7442 4.57540   4
   1  -3   8 82.8859 4.50657   2
   1  -3   8 91.2745 5.64959   4
   1  -3   8 82.3300 3.25320   1
   1  -3   8 78.0779 2.85589   1
   1  -3  -8 81.6969 4.70962   2
   1  -3  -8 83.8381 3.89075   1
  -1  -3   8 85.2420 4.24388   3
  -1  -3   8 78.6540 4.29232   2
  -1  -3   8 81.8490 2.73822   1
   1  -3  -8 81.5711 4.63710   4
  -1  -3   8 85.8959 2.97722   1
  -1  -3   8 79.9618 5.37943   4
   2  -3   8 12.9570 2.51062   2
  -2  -3  -8 11.6189 2.56434   4
  -2  -3  -8 3.04468 2.08501   2
  -2  -3  -8 10.0535 2.14461   1
   2  -3   8 9.95693 1.93486   1
   2  -3   8 5.68782 1.68664   3
  -2  -3   8 8.97966 2.43798   3
   2  -3  -8 6.89366 2.30986   2
  -2  -3   8 8.16394 1.47452   1
  -2  -3   8 6.99148 1.67299   1
  -2  -3   8 7.49556 2.20458   2
   2  -3  -8 5.84972 1.94323   1
  -2  -3   8 9.77638 2.93018   4
  -3   3   8 86.8695 5.54733   3
   3  -3   8 73.8504 3.98978   1
  -3  -3  -8 76.9431 4.95353   2
   3  -3   8 77.2429 4.79627   2
  -3  -3  -8 71.9819 4.08365   1
  -3  -3  -8 65.4497 4.85711   4
  -3  -3   8 73.6332 5.57991   4
  -3  -3   8 80.1910 4.96937   3
  -3  -3   8 74.4633 3.27541   1
   3  -3  -8 75.3332 4.14987   1
   3  -3  -8 71.6842 4.88484   2
  -3  -3   8 69.8759 4.44317   2
  -4  -3  -8 41.2958 3.90837   2
   4  -3   8 32.4838 3.29071   1
   4  -3   8 38.4583 3.82908   2
  -4  -3  -8 38.6835 3.33326   1
  -4   3   8 46.9831 4.45394   3
  -4  -3   8 39.3739 3.12834   1
   4  -3  -8 39.5427 3.43087   1
   4  -3  -8 37.6679 3.85382   2
  -4  -3   8 48.1356 4.26197   3
  -4  -3   8 38.1020 4.51550   4
  -4  -3   8 42.9747 3.78400   2
  -5   3   8 169.178 7.24322   3
   5  -3   8 151.163 7.05986   2
  -5  -3  -8 167.042 6.30098   1
  -5  -3  -8 158.922 7.12508   2
   5  -3   8 154.741 6.33901   1
   5  -3  -8 158.964 7.09935   2
  -5  -3   8 172.292 6.85172   2
  -5  -3   8 161.459 5.37035   1
  -5  -3   8 163.192 7.43807   3
   5  -3  -8 167.736 6.19316   1
  -6   3   8 4.20032 2.97491   3
  -6  -3  -8 7.99188 2.75571   1
  -6  -3  -8 6.41553 3.11058   2
   6  -3   8 4.41042 3.04887   2
   6  -3   8 7.67851 2.87748   1
  -6  -3   8 5.53237 2.32526   1
  -6  -3   8 9.55356 3.28006   3
   6  -3  -8 7.44328 3.03435   2
  -6  -3   8 4.46051 2.73937   2
   6  -3  -8 5.63776 2.62338   1
  -7  -3  -8 4.95660 2.92076   1
   7  -3   8 6.59502 3.30704   2
  -7  -3  -8 5.85677 3.29643   2
  -7   3   8 8.68281 3.36931   3
   7  -3   8 8.27497 3.13422   1
  -7  -3   8 5.22679 2.85441   2
   7  -3  -8 5.71470 3.17968   2
  -7  -3   8 3.81332 3.26315   3
   7  -3  -8 8.27710 2.71013   1
  -7  -3   8 5.02920 2.43383   1
  -8   3   8 412.333 12.6091   3
   8  -3   8 400.800 11.9520   1
   8  -3   8 412.750 13.0685   2
  -8  -3  -8 408.139 11.5911   1
  -8  -3  -8 417.290 13.1636   2
  -8  -3   8 419.616 13.3548   3
  -8  -3   8 382.442 10.4462   1
   8  -3  -8 405.607 12.6515   2
  -8  -3   8 405.007 12.4925   2
   8  -3  -8 419.608 11.6600   1
  -9  -3  -8 5.02366 3.28706   1
  -9  -3  -8 0.01941 3.68552   2
   9  -3   8 1.59675 3.46275   1
   9  -3   8 5.76423 3.69216   2
  -9  -3   8 -3.0926 3.02957   2
   9  -3  -8 0.45143 3.48051   2
   9  -3  -8 0.43269 2.89034   1
  -9  -3   8 6.39342 2.92830   1
 -10  -3  -8 178.453 9.99401   2
 -10  -3  -8 174.720 8.55842   1
  10  -3   8 179.998 10.1537   2
  10  -3   8 180.474 9.31909   1
 -10  -3  -8 185.355 10.0484   2
 -10  -3   8 172.843 9.50353   2
  10  -3  -8 169.324 8.58679   1
  10  -3  -8 194.087 10.1670   2
 -10  -3   8 190.145 7.96122   1
 -11  -3  -8 349.989 13.5886   2
  11  -3   8 354.298 13.9399   2
 -11  -3  -8 365.696 13.9364   2
 -11  -3  -8 323.032 11.7707   1
  11  -3   8 366.514 12.8613   1
 -11  -3   8 327.710 12.9388   2
 -11  -3   8 326.046 11.2143   1
  11  -3  -8 328.502 11.9463   1
  11  -3  -8 356.316 13.8601   2
 -12  -3  -8 130.712 10.0485   2
  12  -3   8 120.438 9.14426   1
 -12  -3  -8 127.943 8.49262   1
 -12  -3   8 121.952 7.84560   1
  12  -3  -8 128.391 8.57911   1
 -12  -3   8 141.122 9.82613   2
  13  -3   8 8.69342 4.84622   1
 -13  -3  -8 12.0142 4.91360   1
 -13  -3   8 20.4184 5.53379   2
  13  -3  -8 18.6877 4.78967   1
 -13  -3   8 22.2586 4.69150   1
 -14  -3  -8 26.1183 5.39880   1
  14  -3   8 11.9978 5.24208   1
 -14  -3   8 32.9738 5.40935   1
  14  -3  -8 19.6634 5.13724   1
  15  -3   8 66.2160 7.97462   1
 -15  -3  -8 61.5050 7.09320   1
  15  -3  -8 57.3517 7.12075   1
 -15  -3   8 66.7760 7.02688   1
   0  -4   8 717.286 17.5162   4
   0  -4  -8 669.675 15.7771   4
   0  -4  -8 728.226 14.5821   2
   0  -4   8 701.432 13.9229   2
   1  -4   8 48.5224 3.75231   2
  -1  -4  -8 54.0181 4.86560   4
  -1  -4  -8 45.2361 3.85812   2
   1  -4   8 50.8088 5.37800   4
   1  -4  -8 44.3363 4.54521   4
   1  -4  -8 40.9771 3.69874   2
  -1  -4   8 37.8652 4.84100   4
  -1  -4   8 50.8397 3.80944   2
   2  -4   8 21.9170 3.10787   2
  -2  -4  -8 26.8607 3.28491   2
  -2  -4  -8 20.4337 3.68141   4
   2  -4  -8 22.9984 3.18201   2
  -2  -4   8 30.3625 4.47475   4
  -2  -4   8 22.2788 2.89280   2
  -2   4  -8 24.1707 4.28247   5
  -3  -4  -8 205.385 8.28933   4
   3  -4   8 202.565 7.17514   2
  -3  -4  -8 197.721 7.35122   2
  -3   4   8 191.494 7.88777   3
  -3  -4   8 196.165 6.73355   2
  -3  -4   8 214.992 9.31744   4
   3  -4  -8 201.034 7.42101   2
  -3   4  -8 180.948 9.11312   5
   4  -4   8 344.014 10.1058   2
  -4  -4  -8 336.414 11.1053   4
  -4   4   8 352.392 10.6619   3
  -4  -4  -8 343.000 10.0282   2
   4  -4  -8 349.137 7.33324   1
  -4  -4   8 360.922 9.58010   2
  -4  -4   8 348.878 12.0747   4
  -4   4  -8 367.652 12.1966   5
   4  -4  -8 356.819 7.33991   1
   4  -4  -8 361.422 10.2179   2
  -5  -4  -8 79.0210 6.58006   4
  -5  -4  -8 70.7120 5.48922   2
   5  -4   8 83.3097 6.01227   2
  -5   4   8 83.5012 5.98294   3
  -5  -4   8 84.8487 7.18688   4
  -5  -4   8 87.6078 5.48758   2
   5  -4  -8 86.0275 4.16964   1
   5  -4  -8 86.7167 5.98751   2
   6  -4   8 119.949 7.13929   2
  -6  -4  -8 133.358 4.36732   1
  -6  -4  -8 136.633 7.24088   2
   6  -4   8 134.131 4.67201   1
   6  -4  -8 122.971 5.37608   1
  -6  -4   8 126.318 6.78228   2
  -6  -4   8 126.793 8.48876   4
   6  -4  -8 133.411 7.34772   2
   7  -4   8 144.746 8.06122   2
  -7  -4  -8 132.404 5.21833   1
  -7  -4  -8 129.910 7.85319   2
   7  -4   8 143.765 5.73541   1
   7  -4  -8 147.063 8.03957   2
  -7  -4   8 151.431 9.44197   4
  -7  -4   8 138.472 7.27978   2
   7  -4  -8 145.093 6.12599   1
  -8  -4  -8 149.650 6.11722   1
   8  -4   8 158.988 8.80971   2
   8  -4   8 164.331 6.75952   1
  -8  -4  -8 155.843 8.84647   2
   8  -4  -8 158.919 8.75419   2
  -8  -4   8 158.975 8.31036   2
  -8  -4   8 160.361 4.84708   1
   8  -4  -8 166.925 7.03341   1
   9  -4   8 4.90592 4.03381   2
  -9  -4  -8 4.16321 3.89889   2
  -9  -4  -8 0.92298 2.76162   1
   9  -4   8 -0.2317 2.97663   1
   9  -4  -8 1.06298 3.72552   2
   9  -4  -8 2.51827 2.97789   1
  -9  -4   8 0.01887 2.20034   1
  -9  -4   8 3.50188 3.48735   2
 -10  -4  -8 134.030 9.26355   2
 -10  -4  -8 144.808 9.48096   2
 -10  -4  -8 152.783 7.23188   1
  10  -4   8 151.005 7.87263   1
  10  -4   8 137.047 9.52163   2
  10  -4  -8 144.692 9.51881   2
  10  -4  -8 151.318 7.91077   1
 -10  -4   8 158.862 6.31900   1
 -10  -4   8 141.423 9.02375   2
  11  -4   8 160.216 8.66629   1
  11  -4   8 143.538 10.3721   2
 -11  -4  -8 142.953 10.1099   2
 -11  -4  -8 160.837 7.85853   1
 -11  -4  -8 167.171 10.5536   2
  11  -4  -8 159.447 8.35108   1
  11  -4  -8 148.191 10.2638   2
 -11  -4   8 167.796 6.94366   1
 -11  -4   8 162.778 9.96651   2
 -12  -4  -8 288.285 13.4580   2
  12  -4   8 294.742 11.4930   1
 -12  -4  -8 300.066 10.6554   1
  12  -4   8 287.355 13.5246   2
  12  -4  -8 271.870 13.4320   2
 -12  -4   8 292.983 9.46536   1
 -12  -4   8 282.692 12.9086   2
  12  -4  -8 272.179 10.9356   1
  13  -4   8 60.2821 8.57718   2
 -13  -4  -8 37.1799 5.28855   1
 -13  -4  -8 49.8251 7.34934   2
  13  -4   8 48.1317 6.40839   1
  13  -4  -8 38.7254 5.65999   1
 -13  -4   8 55.8013 5.32169   1
 -13  -4   8 51.7532 6.95322   2
  14  -4   8 106.209 8.61008   1
 -14  -4  -8 106.565 8.30218   1
 -14  -4   8 101.429 9.67811   2
 -14  -4   8 99.3376 7.33940   1
  14  -4  -8 86.4022 7.76405   1
   0  -5   8 -1.1540 2.07449   2
   0  -5  -8 0.28722 3.09948   4
   0  -5   8 1.02220 3.65770   4
   0  -5  -8 1.04109 2.23808   2
   0   5  -8 -3.8803 3.55378   5
  -1  -5  -8 63.1354 4.96343   2
   1  -5   8 76.2552 4.69624   2
   1   5  -8 67.0870 6.79053   5
   1  -5   8 74.9158 7.13031   4
  -1  -5  -8 68.7713 6.17871   4
  -1   5  -8 64.9178 6.74322   5
   1  -5  -8 62.5023 4.94680   2
  -1  -5   8 71.7055 6.97848   4
   1  -5  -8 63.2589 6.14645   4
  -1  -5   8 64.2760 4.39546   2
   2  -5   8 7.19913 2.59094   2
  -2  -5  -8 7.49672 3.93206   4
  -2  -5  -8 4.89344 2.57812   2
  -2   5  -8 1.16073 3.63382   5
   2  -5  -8 3.34265 2.51316   2
  -2  -5   8 4.57449 2.38641   2
  -2  -5   8 5.97362 4.21672   4
  -3  -5  -8 41.5034 5.25137   4
  -3  -5  -8 29.3666 3.82495   2
   3  -5   8 34.9084 3.92349   2
  -3  -5   8 39.3182 5.86824   4
  -3   5  -8 31.7683 5.32597   5
   3  -5  -8 33.7798 3.99176   2
  -3  -5   8 32.2871 3.45623   2
  -4  -5  -8 41.5196 5.62892   4
  -4  -5  -8 36.3800 4.24640   2
   4  -5   8 41.9854 4.36746   2
   4  -5  -8 47.4411 4.60421   2
  -4  -5   8 46.8342 6.26197   4
  -4  -5   8 45.0668 4.07615   2
  -4   5  -8 51.3266 6.27656   5
  -5  -5  -8 94.2816 7.81495   4
   5  -5   8 105.344 6.74827   2
  -5  -5  -8 104.779 6.51469   2
  -5  -5   8 122.321 8.96122   4
   5  -5  -8 94.2515 6.53239   2
   5   5   8 108.686 8.13634   5
  -5   5  -8 104.340 8.12026   5
  -5  -5   8 104.424 6.10492   2
  -6  -5  -8 2.73308 4.46946   4
  -6  -5  -8 0.59861 3.04870   2
   6  -5   8 5.70869 3.46142   2
  -6  -5   8 7.02152 3.16180   2
  -6  -5   8 -7.4810 3.84880   4
  -6   5  -8 2.96669 4.25035   5
   6  -5  -8 1.64382 3.17573   2
  -7  -5  -8 -1.2704 3.29571   2
  -7  -5  -8 1.01553 4.35822   4
   7  -5   8 1.41169 3.47423   2
   7  -5  -8 3.55847 3.53808   2
  -7  -5   8 1.66466 4.34534   4
  -7  -5   8 2.71008 3.19833   2
  -8  -5  -8 265.660 11.0938   2
   8  -5   8 275.164 11.3949   2
   8  -5  -8 287.963 11.3974   2
  -8  -5   8 263.006 13.2654   4
  -8  -5   8 276.081 10.4683   2
  -9  -5  -8 4.09140 4.22616   2
   9  -5   8 3.90819 3.87959   2
   9  -5  -8 1.59404 3.87796   2
  -9  -5   8 2.60789 3.61068   2
  -9  -5   8 -4.8723 4.34329   4
  10  -5   8 121.781 9.50374   2
 -10  -5  -8 131.796 9.34121   2
 -10  -5  -8 129.473 9.20563   2
  10  -5  -8 145.224 9.64613   2
  10  -5  -8 127.423 6.18089   1
 -10  -5   8 129.747 11.0360   4
 -10  -5   8 130.716 8.91517   2
 -11  -5  -8 226.936 11.7634   2
 -11  -5  -8 190.664 11.2982   2
  11  -5   8 218.311 11.8631   2
  11  -5  -8 203.730 11.5180   2
 -11  -5   8 205.006 11.0128   2
  11  -5  -8 217.093 8.25821   1
  12  -5   8 84.5559 8.82122   2
 -12  -5  -8 83.6548 8.51644   2
 -12  -5   8 75.0031 7.90765   2
  12  -5  -8 84.5350 6.30605   1
  12  -5  -8 94.0668 8.70890   2
 -13  -5  -8 5.88933 5.39591   2
  13  -5   8 8.58721 5.40795   2
  13  -5  -8 13.6373 5.69489   2
 -13  -5   8 4.08996 4.77096   2
  13  -5  -8 10.6911 4.24135   1
   0  -6  -8 65.9343 4.96927   2
   0  -6  -8 70.1142 7.36371   4
   0  -6   8 67.5928 4.89451   2
   0  -6   8 71.5038 7.65074   4
   1  -6   8 185.744 6.93426   2
  -1  -6  -8 175.233 10.2445   4
  -1  -6  -8 180.076 7.31349   2
   1  -6   8 197.880 11.0747   4
  -1  -6   8 211.698 11.4266   4
  -1  -6   8 181.312 6.61248   2
   1  -6  -8 199.298 7.53010   2
  -2  -6  -8 29.1858 3.90533   2
  -2  -6  -8 32.0684 5.89365   4
   2  -6   8 34.1962 3.84687   2
  -2  -6   8 32.6107 3.48740   2
  -2  -6   8 40.9886 6.51343   4
   2  -6  -8 33.9006 4.03427   2
   3  -6   8 427.678 11.5924   2
  -3  -6  -8 444.747 11.7970   2
  -3  -6  -8 460.926 15.5136   4
  -3  -6   8 448.040 16.2885   4
  -3  -6   8 430.268 10.8055   2
   3  -6  -8 414.937 11.7692   2
  -4  -6  -8 182.945 7.98140   2
  -4  -6  -8 176.332 10.5610   4
   4  -6   8 175.144 8.00446   2
  -4  -6   8 170.820 11.1288   4
   4  -6  -8 174.307 8.08921   2
  -4  -6   8 176.826 7.20708   2
   5  -6   8 666.956 15.9819   2
  -5  -6  -8 668.181 19.6175   4
  -5  -6  -8 629.681 15.8294   2
  -5  -6   8 645.663 20.3211   4
  -5  -6   8 645.660 14.8768   2
   5  -6  -8 643.107 16.0021   2
   6  -6   8 134.475 7.93963   2
  -6  -6  -8 136.483 7.99570   2
  -6  -6  -8 131.144 10.3984   4
  -6  -6   8 124.226 10.4732   4
  -6  -6   8 117.139 7.04501   2
   6  -6  -8 131.726 7.88731   2
   7  -6   8 141.586 8.44256   2
  -7  -6  -8 159.592 8.85412   2
  -7  -6  -8 135.311 10.8628   4
  -7  -6   8 144.358 10.7126   4
  -7  -6   8 126.534 7.47898   2
   7  -6  -8 130.070 8.46131   2
  -8  -6  -8 28.4824 6.92204   4
   8  -6   8 17.7750 4.74602   2
  -8  -6  -8 24.5816 4.94538   2
   8  -6  -8 24.7267 4.98920   2
  -8  -6   8 21.5115 4.32328   2
  -8  -6   8 22.5083 6.39798   4
   9  -6   8 -0.0599 4.17473   2
  -9  -6  -8 -6.7082 5.34833   4
  -9  -6  -8 3.02945 4.15984   2
  -9  -6   8 7.40900 3.94749   2
   9  -6  -8 -0.7653 3.77789   2
  -9  -6   8 1.05689 5.41684   4
 -10  -6  -8 29.4276 5.80437   2
 -10  -6  -8 29.7025 5.93664   2
  10  -6   8 29.5034 6.02200   2
 -10  -6  -8 18.7035 7.39226   4
 -10  -6   8 40.2571 5.78043   2
 -10  -6   8 25.0409 6.96105   4
  10  -6  -8 8.07839 4.71949   2
 -11  -6  -8 176.837 11.2217   2
 -11  -6  -8 172.039 13.6978   4
  11  -6   8 165.611 11.1502   2
  11  -6  -8 158.834 11.0931   2
 -11  -6   8 165.767 13.0970   4
 -11  -6   8 158.060 10.2724   2
   0  -7   8 0.13674 2.55595   2
   0  -7  -8 4.22714 2.89163   2
   0  -7   8 0.11450 5.01994   4
  -1  -7  -8 28.3463 3.92697   2
   1  -7   8 26.1532 3.64051   2
  -1  -7   8 31.1997 3.67381   2
   1  -7  -8 31.4527 4.02984   2
  -1  -7   8 33.8738 6.90559   4
   2  -7   8 7.51301 3.00073   2
  -2  -7  -8 2.14666 3.08668   2
   2  -7  -8 2.06035 3.17541   2
  -2  -7   8 -7.2163 4.62543   4
  -2  -7   8 8.33720 2.80555   2
  -3  -7  -8 34.2328 4.55197   2
   3  -7   8 30.4600 4.30086   2
  -3  -7   8 33.6971 3.89442   2
  -3  -7   8 34.1563 7.22929   4
   3  -7  -8 34.8288 4.52336   2
   4  -7   8 20.0952 3.95185   2
  -4  -7  -8 10.3821 3.77819   2
  -4  -7   8 10.0678 5.78795   4
  -4  -7   8 14.4540 3.39514   2
   4  -7  -8 13.8398 3.87177   2
   5  -7   8 70.7613 6.11684   2
  -5  -7  -8 65.2988 5.93180   2
   5  -7  -8 62.3551 6.08062   2
  -5  -7   8 62.9934 8.68033   4
  -5  -7   8 74.8404 5.87548   2
   6  -7   8 9.32093 4.20768   2
  -6  -7  -8 0.08975 3.61459   2
  -6  -7   8 8.07852 6.31078   4
  -6  -7   8 6.29352 3.42891   2
   6  -7  -8 4.87108 3.73862   2
   7  -7   8 1.42379 3.68418   2
  -7  -7  -8 -3.4745 3.65707   2
  -7  -7   8 13.0714 5.92101   4
   7  -7  -8 1.75747 3.72029   2
  -7  -7   8 2.84819 3.42535   2
  -8  -7  -8 183.275 10.2163   2
   8  -7   8 179.167 10.0878   2
  -8  -7   8 200.308 9.50011   2
  -8  -7   8 182.647 13.3075   4
   8  -7  -8 182.337 10.2935   2
   0  -8   8 212.578 7.77107   2
   0  -8   8 201.781 14.1404   4
   0  -8  -8 254.453 8.91278   2
  -1  -8  -8 18.5863 3.85113   2
   1  -8   8 16.2407 3.45436   2
  -1  -8   8 8.33417 6.51341   4
   1  -8  -8 29.6475 4.28421   2
  -1  -8   8 20.5916 3.37909   2
  -2  -8  -8 3.55793 3.37831   2
   2  -8   8 6.77116 3.45983   2
   2  -8  -8 7.84342 3.41191   2
  -2  -8   8 4.05861 6.04095   4
  -2  -8   8 8.17647 3.09817   2
  -3  -8  -8 56.9343 5.62207   2
   3  -8   8 56.2202 5.27433   2
  -3  -8   8 61.8525 9.61218   4
  -3  -8   8 66.0635 4.92763   2
   3  -8  -8 45.2377 5.18761   2
   4  -8   8 135.248 7.80894   2
  -4  -8  -8 131.755 7.73536   2
  -4  -8   8 114.433 11.5750   4
   0   0   9 1.30608 2.22706   1
   0   0   9 -1.3974 2.09873   2
   0   0  -9 1.83075 2.24276   2
   0   0  -9 -0.7521 2.11367   1
  -1   0   9 23.4559 3.00977   1
  -1   0  -9 22.4543 2.99851   2
  -1   0  -9 25.4918 3.19469   1
   1   0   9 30.9269 3.37500   1
   1   0   9 29.0330 3.12117   2
  -1   0   9 26.1357 3.00876   2
   1   0  -9 31.8351 3.44915   2
   1   0  -9 29.1514 3.24320   1
   2   0  -9 1.49932 2.20999   2
   2   0   9 -1.3321 2.04823   2
  -2   0   9 -1.2407 2.07447   1
   2   0   9 1.96273 2.35020   1
  -2   0  -9 3.33588 2.40099   2
   2   0  -9 -0.0276 1.96570   1
  -2   0   9 2.39766 2.32377   3
  -2   0  -9 -0.4586 2.25526   1
  -2   0   9 3.56329 2.08976   2
  -3   0  -9 259.903 8.25096   2
   3   0  -9 250.298 7.87232   1
  -3   0  -9 241.848 7.98783   1
   3   0  -9 260.849 7.97468   2
  -3   0   9 252.513 8.25959   3
  -3   0   9 263.744 7.92009   2
   3   0   9 262.646 8.17024   2
  -3   0   9 270.372 8.02615   1
   3   0   9 259.988 8.24120   1
  -3   0  -9 255.063 8.08760   1
  -4   0   9 14.4538 2.93938   2
  -4   0  -9 16.2483 3.08956   2
  -4   0  -9 12.6622 3.05512   1
   4   0   9 16.3727 3.07028   2
  -4   0   9 13.3718 2.94918   1
   4   0   9 10.6773 3.09749   1
   4   0  -9 14.8515 3.05496   2
  -4   0   9 10.7877 2.75754   3
   4   0  -9 10.6212 2.78311   1
  -5   0  -9 205.331 7.92870   2
  -5   0  -9 216.283 8.09381   1
  -5   0   9 210.498 7.67361   2
   5   0  -9 201.061 7.62997   2
   5   0   9 198.641 7.86946   2
  -5   0   9 200.879 7.51670   1
  -5   0   9 193.439 7.77800   3
   5   0   9 197.286 7.87161   1
   5   0  -9 222.945 7.82904   1
   6   0   9 302.597 10.0728   1
   6   0  -9 312.030 9.75898   1
  -6   0  -9 300.558 9.98730   2
  -6   0   9 317.260 9.71227   2
  -6   0   9 296.527 10.0126   3
  -6   0  -9 308.221 10.0616   1
   6   0  -9 330.635 11.0162   2
   6   0   9 284.045 9.85568   2
  -6   0   9 307.293 9.72038   1
  -7   0   9 65.0681 5.69061   3
  -7   0   9 75.7506 5.84828   1
   7   0  -9 86.9247 6.05252   1
  -7   0   9 81.2545 5.98246   2
   7   0   9 65.7349 5.70582   1
  -7   0  -9 75.0967 5.98925   1
   8   0  -9 851.952 19.5302   1
  -8   0  -9 897.334 20.1575   1
  -8   0   9 862.357 20.0498   3
   8   0   9 897.288 20.4314   1
  -8   0   9 922.232 19.7689   1
   9   0  -9 1.49294 3.13057   1
  -9   0   9 -1.0844 3.07849   1
  -9   0  -9 4.64815 3.52439   1
   9   0   9 6.04347 3.73461   1
 -10   0  -9 59.3325 6.33128   1
  10   0  -9 56.6449 6.11013   1
  10   0   9 51.6800 6.29392   1
 -10   0   9 50.7706 5.88401   1
 -11   0   9 679.536 18.4509   1
  11   0   9 689.250 19.2768   1
  11   0  -9 700.037 18.9751   1
 -11   0  -9 721.170 19.3181   1
 -12   0  -9 12.5093 4.59158   1
  12   0  -9 15.4637 5.09589   1
 -12   0   9 23.2143 5.32511   1
  12   0   9 17.9547 5.22652   1
  13   0   9 37.3126 6.39259   1
 -13   0  -9 36.2834 6.44974   1
 -13   0   9 42.6190 6.49250   1
  13   0  -9 42.4611 6.53842   1
  14   0  -9 1.73916 4.96451   1
 -14   0  -9 7.98989 5.25623   1
 -14   0   9 -5.0151 4.36913   1
  14   0   9 8.53288 5.35936   1
 -15   0   9 47.2636 7.25356   1
  15   0  -9 55.8624 8.18044   1
 -15   0  -9 35.0258 7.10057   1
  15   0   9 31.6279 6.90709   1
 -16   0  -9 145.678 11.7960   1
 -16   0   9 159.713 11.5554   1
  16   0   9 178.130 12.5521   1
   0   1  -9 418.440 9.98212   1
   0  -1   9 405.524 9.93952   1
   0  -1  -9 413.966 10.0890   1
   0   1   9 422.307 10.0248   1
   0  -1   9 418.277 8.65324   4
   0  -1  -9 398.948 10.0786   2
   0  -1   9 394.519 9.88277   2
  -1   1   9 330.365 8.78627   1
  -1  -1  -9 325.905 8.84937   2
   1  -1   9 313.881 8.54317   1
   1   1  -9 320.352 8.58040   1
  -1  -1  -9 310.786 8.57502   1
   1  -1   9 317.203 8.68355   2
  -1  -1   9 323.660 8.72278   3
   1  -1  -9 306.757 8.62122   2
   1   1   9 318.635 8.65615   1
  -1  -1   9 320.076 8.61389   1
   1  -1  -9 319.898 8.57406   1
  -1  -1   9 306.173 8.46265   2
  -1   1  -9 330.662 8.75715   1
  -1  -1   9 322.137 7.23831   4
   2  -1   9 2.16012 2.14226   2
  -2  -1  -9 4.30225 2.41211   2
   2  -1   9 3.39852 2.33059   1
  -2   1   9 1.68183 2.15722   1
  -2  -1  -9 3.66395 2.31016   1
  -2  -1  -9 1.74049 2.18938   1
   2   1  -9 -0.8036 1.96579   1
  -2  -1   9 0.21624 2.15602   1
  -2   1  -9 2.55552 2.22089   1
   2  -1  -9 1.82899 2.19971   2
   2  -1  -9 -2.0218 1.89146   1
  -2  -1   9 2.55173 1.70690   4
  -2  -1   9 -1.3719 2.08291   3
   2   1   9 4.27380 2.49887   1
  -2  -1   9 0.09363 2.04159   2
  -3  -1  -9 28.7948 3.52775   2
   3  -1   9 28.8188 3.40016   2
  -3   1   9 28.0102 3.49644   3
  -3   1   9 29.8340 3.41246   1
   3   1  -9 34.1145 3.48054   1
  -3   1   9 31.1101 3.48303   2
  -3  -1  -9 32.8894 3.49773   1
   3  -1   9 34.1917 3.68330   1
  -3   1  -9 39.1825 3.91957   1
  -3   1  -9 27.4136 3.49122   1
  -3  -1   9 30.5518 3.29964   2
  -3  -1   9 32.5347 3.35420   1
   3  -1  -9 32.0079 3.53312   1
  -3  -1   9 28.2582 3.40198   3
   3   1   9 35.4555 3.80161   1
   3  -1  -9 27.6273 3.41433   2
  -4  -1  -9 2.26039 2.49555   1
  -4   1   9 -0.4335 2.12032   2
  -4   1   9 3.19032 2.49996   3
  -4   1   9 1.23145 2.40473   1
  -4  -1  -9 2.15424 2.60807   2
   4  -1   9 2.32159 2.46888   2
   4  -1   9 3.57934 2.51934   1
   4   1  -9 0.12640 2.22635   1
  -4  -1   9 3.43343 2.32834   1
   4   1   9 5.04537 2.61566   1
  -4  -1   9 7.00214 2.43568   2
  -4  -1   9 2.92951 2.40781   3
   4  -1  -9 2.88438 2.49295   2
  -4   1  -9 5.88054 2.68883   1
   4  -1  -9 1.76900 2.21814   1
   5  -1   9 15.8499 3.26859   1
  -5   1   9 15.2824 3.13031   3
  -5   1   9 18.6710 3.27273   1
   5  -1   9 20.9921 3.64842   2
   5   1  -9 18.6694 3.08257   1
  -5  -1  -9 18.7800 3.30024   1
  -5  -1  -9 15.9570 3.22688   2
  -5  -1   9 15.9957 3.18323   2
   5   1   9 21.0428 3.65997   1
  -5  -1   9 16.2043 3.22128   3
  -5  -1   9 23.2447 3.31291   1
   5  -1  -9 20.4865 3.27966   2
   5  -1  -9 22.2240 3.28989   1
  -5   1  -9 17.2255 3.34802   1
  -6   1   9 8.10319 2.99180   1
   6  -1   9 1.46055 2.72337   2
   6   1  -9 4.85154 2.68244   1
   6  -1   9 2.61885 2.99318   1
  -6  -1  -9 2.90304 2.80584   1
  -6   1   9 1.28197 2.72937   3
  -6  -1  -9 9.68915 3.16777   2
   6  -1  -9 4.86686 2.71180   1
  -6  -1   9 1.79160 2.70834   3
  -6   1  -9 3.01315 2.83948   1
  -6  -1   9 5.52137 2.66860   1
   6   1   9 4.60628 3.05816   1
  -6  -1   9 4.37622 2.69074   2
   6  -1  -9 4.94807 2.91625   2
   7   1  -9 28.9567 4.17586   1
   7  -1   9 32.6705 4.45865   2
  -7   1   9 29.4739 4.16252   3
  -7  -1  -9 36.5431 4.64627   1
  -7  -1  -9 35.5353 4.61822   2
   7  -1   9 34.0455 4.58839   1
  -7   1   9 33.6053 4.31981   1
   7  -1  -9 32.4261 4.19728   1
  -7  -1   9 34.1664 4.24532   2
   7  -1  -9 29.5604 4.02670   2
  -7  -1   9 34.3156 4.42883   3
  -7  -1   9 29.4661 3.96988   1
  -7   1  -9 26.4087 4.38323   1
   7   1   9 38.0951 4.80823   1
  -8   1   9 45.8986 5.20315   1
  -8   1   9 39.8506 4.78572   3
   8  -1   9 41.1616 5.07533   2
  -8  -1  -9 47.3682 5.31810   2
   8   1  -9 38.4476 4.86382   1
   8  -1   9 33.3759 4.86770   1
  -8  -1  -9 34.8864 4.82133   1
  -8  -1   9 37.4359 4.66114   2
  -8  -1   9 32.1598 4.89829   3
   8  -1  -9 39.4085 4.71637   1
   8   1   9 38.8874 5.14578   1
  -8   1  -9 46.8488 5.20392   1
  -8  -1   9 36.1871 4.52680   1
   8  -1  -9 36.8871 5.24535   2
  -9   1   9 164.586 8.65316   1
   9  -1   9 171.653 9.00280   1
  -9  -1  -9 164.135 8.66478   1
  -9  -1  -9 170.268 10.1096   2
  -9   1  -9 159.077 8.92354   1
   9  -1  -9 163.012 8.25109   1
   9   1   9 162.609 9.17256   1
  -9  -1   9 156.586 8.17953   1
  -9  -1   9 171.961 8.81667   2
  10  -1   9 16.1844 4.79518   1
 -10  -1  -9 15.1704 4.40916   1
 -10   1   9 17.8119 4.63133   1
  10  -1  -9 25.2707 4.79948   1
 -10  -1   9 20.1580 4.24792   1
 -10   1  -9 10.1800 4.31143   1
  10   1   9 13.3563 4.72014   1
  11  -1   9 0.10039 3.93166   1
 -11   1   9 4.76454 3.94707   1
 -11  -1  -9 1.79944 3.84308   1
 -11  -1   9 -1.7479 3.43165   1
 -11   1  -9 4.29895 4.12366   1
  11  -1  -9 5.04610 4.00944   1
 -12   1   9 285.344 12.6224   1
 -12  -1  -9 321.220 12.9078   1
  12  -1   9 287.281 12.8984   1
 -12  -1   9 305.057 12.2969   1
  12  -1  -9 300.770 12.5539   1
 -12   1  -9 298.091 13.4320   1
 -13   1   9 101.977 8.87512   1
  13  -1   9 90.7604 8.59589   1
 -13  -1  -9 119.084 9.31578   1
 -13  -1   9 94.3052 8.17017   1
  13  -1  -9 101.264 8.64376   1
  14  -1   9 130.487 10.4018   1
 -14   1   9 168.739 11.2575   1
 -14  -1  -9 151.896 10.8019   1
 -14  -1   9 154.087 10.3396   1
  14  -1  -9 152.168 10.8960   1
 -15   1   9 2.04804 5.30780   1
 -15  -1  -9 -2.6607 4.35288   1
  15  -1   9 1.21827 5.04155   1
  15  -1  -9 1.20517 4.89971   1
 -15  -1   9 -6.8253 4.28875   1
  16  -1   9 46.4148 7.48233   1
 -16  -1  -9 52.1427 7.82770   1
  16  -1  -9 55.1263 7.92092   1
 -16  -1   9 42.0471 7.01758   1
   0  -2  -9 1.12565 1.42216   4
   0  -2   9 -0.5126 2.17331   4
   0   2   9 1.66143 2.10371   1
   0  -2   9 0.57775 1.92496   3
   0  -2   9 -3.4771 1.80579   2
   0  -2   9 -0.8880 1.84543   1
   0  -2  -9 -0.4943 2.11355   2
   0  -2  -9 -3.7743 1.78927   1
  -1   2   9 1731.34 29.1293   1
  -1  -2  -9 1756.66 28.7998   1
   1  -2   9 1728.08 28.6193   1
   1  -2   9 1701.30 28.9813   2
  -1  -2  -9 1725.00 27.9554   4
  -1  -2  -9 1746.46 29.3376   2
  -1  -2   9 1702.89 28.8654   2
  -1  -2   9 1763.31 29.8641   4
   1  -2  -9 1741.17 28.8130   1
  -1  -2   9 1746.39 28.3358   1
   1  -2  -9 1693.35 29.1171   2
  -1  -2   9 1749.17 28.8415   3
   1   2   9 1743.83 29.5047   1
  -2   2   9 874.167 16.9629   1
  -2  -2  -9 862.171 17.1074   2
  -2  -2  -9 897.377 16.8484   1
   2  -2   9 861.222 16.9618   2
  -2  -2  -9 847.621 15.7051   4
   2  -2   9 855.123 16.6842   1
  -2  -2   9 850.562 16.9886   4
   2  -2  -9 872.284 17.0756   2
  -2  -2   9 852.289 16.1505   1
   2  -2  -9 866.933 16.5738   1
  -2  -2   9 880.835 16.9183   3
  -2  -2   9 874.438 16.7444   2
   2   2   9 857.331 17.0747   1
  -3   2   9 356.617 9.63492   1
  -3   2   9 359.491 10.2727   3
  -3  -2  -9 340.608 9.37064   1
  -3  -2  -9 349.519 9.71971   2
   3  -2   9 350.760 9.39388   1
   3  -2   9 348.791 9.62610   2
   3  -2  -9 357.349 9.25601   1
  -3  -2   9 359.031 9.67839   3
  -3  -2   9 353.556 8.91343   1
   3  -2  -9 368.148 9.75435   2
  -3  -2   9 332.626 9.25235   2
  -3  -2   9 355.812 9.56572   4
   3   2   9 339.900 9.80693   1
  -4   2   9 3.92364 2.58441   1
  -4  -2  -9 6.58825 2.75058   2
  -4  -2  -9 7.89911 2.70002   1
   4  -2   9 5.37493 2.74355   1
   4  -2   9 9.50078 2.82687   2
  -4   2   9 6.80469 2.88282   3
   4  -2  -9 8.77665 2.51842   1
  -4  -2   9 8.11319 2.40000   1
  -4  -2   9 5.91679 2.69375   3
   4  -2  -9 4.83918 2.53641   2
  -4  -2   9 5.67055 2.50702   2
  -5  -2  -9 210.385 7.69732   1
  -5   2   9 217.210 8.27462   3
   5  -2   9 204.919 8.04063   2
  -5  -2  -9 202.399 8.11106   2
   5  -2   9 200.254 7.79669   1
  -5  -2   9 204.973 7.03528   1
   5  -2  -9 206.799 7.90866   2
   5  -2  -9 195.981 7.40630   1
  -5  -2   9 212.399 8.07561   3
  -5  -2   9 201.928 7.59408   2
  -6   2   9 3.45169 2.87822   3
  -6  -2  -9 2.97638 2.71898   1
  -6  -2  -9 5.04156 3.09954   2
   6  -2   9 7.20566 3.09503   1
   6  -2   9 8.13124 3.10969   2
  -6  -2   9 3.45349 2.51321   1
  -6  -2   9 2.88827 2.69748   2
  -6  -2   9 3.72626 2.87421   3
   6  -2  -9 7.40702 2.64379   1
   6  -2  -9 7.80808 2.93635   2
  -7   2   9 1673.84 31.4699   3
   7  -2   9 1650.13 30.9602   1
  -7  -2  -9 1664.44 30.5513   1
   7  -2   9 1735.47 31.6395   2
  -7  -2  -9 1701.24 31.5139   2
  -7  -2   9 1645.49 30.6150   2
   7  -2  -9 1659.66 30.3417   1
  -7  -2   9 1721.72 31.9059   3
  -7  -2   9 1642.80 29.5236   1
   7  -2  -9 1687.22 31.1177   2
  -8  -2  -9 169.979 8.82829   2
   8  -2   9 178.551 8.80301   2
   8  -2   9 169.402 8.70421   1
  -8  -2  -9 164.284 8.15607   1
  -8   2   9 177.285 8.79640   3
  -8  -2   9 168.625 7.63343   1
  -8  -2   9 186.879 8.64929   2
   8  -2  -9 173.366 8.05227   1
  -8  -2   9 192.330 9.21021   3
   8  -2  -9 187.517 8.80896   2
  -9  -2  -9 214.548 9.53420   1
   9  -2   9 247.588 10.3295   1
   9  -2   9 238.566 10.6124   2
  -9  -2  -9 243.883 10.8268   2
   9  -2  -9 224.368 9.62901   1
  -9  -2   9 234.400 10.1139   2
   9  -2  -9 244.037 10.4458   2
  -9  -2   9 257.194 9.44285   1
 -10  -2  -9 164.523 9.69008   2
  10  -2   9 174.783 9.29570   1
 -10  -2  -9 167.717 9.73785   2
  10  -2   9 160.952 9.78935   2
 -10  -2  -9 163.542 8.89968   1
 -10  -2   9 135.094 7.94295   1
  10  -2  -9 154.348 8.51875   1
 -10  -2   9 155.786 9.11583   2
 -11  -2  -9 14.2364 4.52811   1
  11  -2   9 7.63081 4.38169   1
 -11  -2   9 17.7458 4.30815   1
  11  -2  -9 9.95463 4.01518   1
 -11  -2   9 4.15943 4.38242   2
 -12  -2  -9 -6.4805 3.82789   1
  12  -2   9 -1.3134 4.17911   1
  12  -2  -9 4.64322 3.99057   1
 -12  -2   9 6.56804 4.05523   1
  13  -2   9 120.030 9.53314   1
 -13  -2  -9 98.6303 8.37162   1
  13  -2  -9 87.5498 8.07202   1
 -13  -2   9 89.5963 7.76624   1
  14  -2   9 1.20008 4.75424   1
 -14  -2  -9 2.61742 4.51391   1
 -14  -2   9 3.65719 4.46557   1
  14  -2  -9 4.33885 4.70760   1
 -15  -2  -9 130.159 10.0962   1
  15  -2   9 123.682 10.3211   1
 -15  -2   9 123.861 9.57002   1
  15  -2  -9 121.573 10.0362   1
  16  -2   9 5.17063 5.22301   1
 -16  -2  -9 4.04350 5.23115   1
  16  -2  -9 1.90151 4.86720   1
 -16  -2   9 -1.4180 4.37727   1
   0  -3  -9 280.275 7.74986   4
   0  -3  -9 279.594 7.38611   1
   0  -3   9 286.072 7.30832   3
   0  -3   9 274.743 7.98925   2
   0  -3  -9 279.611 8.32524   2
   0  -3   9 279.947 6.72137   1
   0  -3   9 291.649 9.34257   4
  -1  -3  -9 241.270 6.89479   1
   1  -3   9 249.082 6.50094   3
   1  -3   9 245.403 7.47941   2
  -1  -3  -9 244.995 7.28630   4
   1  -3   9 245.333 6.36513   1
   1  -3   9 244.934 8.65465   4
  -1  -3  -9 249.048 7.93336   2
   1  -3  -9 234.447 7.66735   2
  -1  -3   9 247.642 7.09516   3
   1  -3  -9 226.594 6.74880   1
  -1  -3   9 243.974 7.41474   2
  -1  -3   9 250.289 8.65933   4
   1  -3  -9 246.227 6.90102   1
  -1  -3   9 244.759 6.16247   1
   2  -3   9 -0.1388 2.09006   2
  -2  -3  -9 2.55683 2.24931   4
  -2  -3  -9 -0.6939 1.91532   1
   2  -3   9 -0.5697 1.96366   1
   2  -3   9 0.27767 1.69909   3
  -2  -3  -9 0.89436 2.29951   2
  -2  -3   9 0.36169 1.73385   1
   2  -3  -9 -0.3266 2.09835   2
  -2  -3   9 1.30457 2.44232   4
   2  -3  -9 1.79607 1.95145   1
  -2  -3   9 -1.3612 2.01702   3
  -2  -3   9 1.04061 2.12818   2
  -3   3   9 39.4101 4.22906   3
  -3  -3  -9 41.1350 3.91791   4
  -3  -3  -9 35.4810 3.33600   1
  -3  -3  -9 31.4756 3.71933   2
   3  -3   9 35.6274 3.83488   2
   3  -3   9 40.8284 3.46589   1
  -3  -3   9 41.1849 2.97422   1
   3  -3  -9 35.9671 3.31135   1
   3  -3  -9 41.6049 4.09463   2
  -3  -3   9 42.5843 3.97103   3
  -3  -3   9 38.9388 3.76018   2
  -3  -3   9 33.0046 4.06673   4
  -4  -3  -9 1.21970 2.57975   2
   4  -3   9 2.46738 2.52808   2
   4  -3   9 2.95459 2.42829   1
  -4   3   9 0.03863 2.63145   3
  -4  -3  -9 1.13516 2.10642   1
   4  -3  -9 0.61734 2.00137   1
  -4  -3   9 0.95608 2.86494   4
  -4  -3   9 3.49315 1.98280   1
   4  -3  -9 -1.5537 2.48925   2
  -4  -3   9 -0.6220 2.45853   3
  -4  -3   9 -1.2502 2.11260   2
  -5  -3  -9 15.1304 2.98947   1
   5  -3   9 15.5444 3.08142   1
  -5  -3  -9 13.2970 3.27989   2
  -5   3   9 15.8988 3.40660   3
   5  -3   9 9.06724 3.06623   2
  -5  -3   9 10.9552 3.59052   4
   5  -3  -9 9.18995 3.03713   2
  -5  -3   9 11.1564 2.44465   1
  -5  -3   9 12.2434 3.10011   2
  -5  -3   9 14.7313 3.45394   3
   5  -3  -9 12.6637 2.76507   1
  -6  -3  -9 -1.1275 2.84774   2
  -6   3   9 6.07849 3.24276   3
  -6  -3  -9 6.15389 2.76842   1
   6  -3   9 2.09890 3.06785   2
   6  -3   9 5.58576 2.93724   1
   6  -3  -9 10.8174 2.91321   1
  -6  -3   9 4.97680 2.83862   2
   6  -3  -9 3.38734 2.94251   2
  -6  -3   9 1.88865 2.27183   1
  -6  -3   9 1.32663 3.10143   3
  -7  -3  -9 40.5251 4.98283   2
   7  -3   9 39.6033 4.56875   1
  -7   3   9 42.9821 5.02468   3
  -7  -3  -9 37.2762 4.28043   1
   7  -3   9 37.9497 5.00117   2
   7  -3  -9 30.7243 3.98404   1
   7  -3  -9 39.4365 4.99126   2
  -7  -3   9 35.7209 3.67207   1
  -7  -3   9 35.2951 4.55288   2
  -7  -3   9 38.6688 5.03171   3
   8  -3   9 36.2068 5.06362   2
  -8   3   9 38.6817 5.28603   3
   8  -3   9 38.4160 4.96886   1
  -8  -3  -9 36.8047 5.26227   2
  -8  -3  -9 38.0598 4.61827   1
  -8  -3   9 38.4891 5.01833   2
   8  -3  -9 31.8954 4.88136   2
   8  -3  -9 38.9089 4.57931   1
  -8  -3   9 37.4343 4.06062   1
  -9  -3  -9 143.317 9.03826   2
   9  -3   9 122.557 8.09283   1
   9  -3   9 115.522 8.53870   2
  -9  -3  -9 124.382 7.59470   1
  -9  -3   9 142.584 8.52978   2
  -9  -3   9 136.486 6.91396   1
   9  -3  -9 138.401 8.71512   2
   9  -3  -9 125.946 7.39959   1
 -10  -3  -9 12.6207 4.50758   2
  10  -3   9 16.3998 4.78827   2
  10  -3   9 9.74437 4.16990   1
 -10  -3  -9 21.5900 5.10839   2
 -10  -3  -9 15.0230 4.22012   1
 -10  -3   9 15.0280 4.51825   2
  10  -3  -9 25.7382 5.20109   2
 -10  -3   9 20.3472 3.88280   1
  10  -3  -9 12.1696 3.93125   1
 -11  -3  -9 0.75290 4.26601   2
 -11  -3  -9 7.14428 4.56226   2
  11  -3   9 1.66648 3.96190   1
  11  -3   9 -3.3329 4.23470   2
 -11  -3  -9 11.5753 4.09223   1
  11  -3  -9 1.43672 3.54573   1
 -11  -3   9 0.17327 3.14494   1
 -11  -3   9 -0.8275 4.01553   2
  12  -3   9 238.528 11.4138   1
 -12  -3  -9 246.012 10.9070   1
 -12  -3  -9 238.595 12.6879   2
  12  -3  -9 226.913 10.7342   1
 -12  -3   9 228.562 12.0175   2
 -12  -3   9 242.734 10.0830   1
 -13  -3  -9 92.3726 7.72005   1
  13  -3   9 88.6286 8.48444   1
 -13  -3   9 104.628 10.6099   2
  13  -3  -9 103.049 8.30725   1
 -13  -3   9 81.4492 7.14641   1
  14  -3   9 121.877 9.87465   1
 -14  -3  -9 137.932 9.63277   1
 -14  -3   9 142.723 9.30534   1
  14  -3  -9 125.951 9.52724   1
 -15  -3  -9 4.06709 4.63532   1
  15  -3   9 4.07188 4.95413   1
 -15  -3   9 4.73524 4.31298   1
  15  -3  -9 10.8699 5.14903   1
   0  -4  -9 0.41309 2.52172   4
   0  -4  -9 0.34777 2.25532   2
   0  -4   9 0.06136 2.08625   2
   0  -4   9 -1.1447 2.92262   4
  -1  -4  -9 17.9859 3.12069   2
   1  -4   9 15.4783 4.03061   4
  -1  -4  -9 14.5004 3.32467   4
   1  -4   9 13.8070 2.81162   2
  -1  -4   9 18.6247 2.82560   2
  -1  -4   9 20.4230 4.09903   4
   1  -4  -9 15.0882 3.01583   2
  -2  -4  -9 1.21934 2.35436   2
   2  -4   9 0.90589 2.32107   2
  -2  -4  -9 -1.7480 2.60417   4
   2  -4  -9 2.73100 2.49192   2
  -2  -4   9 1.83972 2.16336   2
   2  -4  -9 -0.2712 1.27185   1
  -2  -4   9 0.50456 3.04602   4
  -3   4   9 135.700 7.21644   3
   3  -4   9 146.145 6.54971   2
  -3  -4  -9 145.346 6.78001   2
  -3  -4  -9 141.594 7.08674   4
   3  -4  -9 148.560 6.65140   2
  -3  -4   9 130.206 5.96952   2
  -3  -4   9 149.227 8.17105   4
   3  -4  -9 135.718 4.35238   1
   4  -4   9 13.8239 3.24898   2
  -4   4   9 10.3103 3.35677   3
  -4  -4  -9 5.81413 2.98830   2
  -4  -4  -9 7.77476 3.46500   4
  -4  -4  -9 8.49577 1.53458   1
   4  -4  -9 11.9053 2.28492   1
  -4  -4   9 10.6018 3.75650   4
   4  -4  -9 9.07970 3.18525   2
  -4  -4   9 12.3703 2.99817   2
  -5  -4  -9 123.895 7.03707   2
   5  -4   9 121.490 6.92719   2
  -5  -4  -9 122.737 4.37369   1
  -5  -4  -9 121.300 7.68857   4
  -5   4   9 137.126 7.40413   3
   5  -4   9 128.982 3.97549   1
   5  -4  -9 126.084 5.28418   1
  -5  -4   9 132.538 8.27374   4
  -5  -4   9 119.822 6.39930   2
   5  -4  -9 123.091 6.87833   2
  -6   4   9 183.926 8.77602   3
   6  -4   9 187.185 8.74195   2
  -6  -4  -9 185.722 8.62121   2
  -6  -4  -9 194.705 5.96555   1
   6  -4   9 195.754 6.11100   1
  -6  -4   9 202.361 9.87365   4
   6  -4  -9 191.475 6.73544   1
   6  -4  -9 198.522 8.75426   2
  -6  -4   9 190.921 8.17063   2
  -7  -4  -9 33.5633 4.93367   2
  -7  -4  -9 34.8871 3.53548   1
   7  -4   9 43.2736 3.89372   1
   7  -4   9 35.6792 5.01152   2
  -7  -4   9 32.8236 4.48511   2
   7  -4  -9 40.7291 3.96401   1
   7  -4  -9 37.2729 4.93001   2
  -7  -4   9 37.2536 5.77498   4
   8  -4   9 574.021 16.2720   2
   8  -4   9 582.857 13.5638   1
  -8  -4  -9 583.504 12.9390   1
  -8  -4  -9 563.410 16.2811   2
  -8  -4   9 579.678 11.2319   1
   8  -4  -9 576.181 13.6760   1
  -8  -4   9 598.789 15.7250   2
   8  -4  -9 600.931 16.3652   2
  -9  -4  -9 0.24281 2.92130   1
   9  -4   9 4.62506 3.34391   1
   9  -4   9 -3.1531 3.39646   2
  -9  -4  -9 4.57801 4.02836   2
   9  -4  -9 4.18710 3.02224   1
  -9  -4   9 8.63418 3.89097   2
   9  -4  -9 1.63828 3.87960   2
  -9  -4   9 -4.0314 2.21053   1
  10  -4   9 32.0910 5.80216   2
 -10  -4  -9 35.5134 4.52129   1
  10  -4   9 35.9292 4.94798   1
 -10  -4  -9 34.5420 5.90314   2
  10  -4  -9 44.0222 5.09255   1
  10  -4  -9 40.4517 6.15790   2
 -10  -4   9 43.5490 6.16813   2
 -10  -4   9 38.4934 3.92401   1
 -11  -4  -9 506.130 16.8155   2
 -11  -4  -9 475.607 13.2097   1
  11  -4   9 481.710 16.8360   2
  11  -4   9 469.054 13.9780   1
 -11  -4  -9 489.714 16.5725   2
  11  -4  -9 457.656 13.9810   1
 -11  -4   9 458.178 15.7666   2
  11  -4  -9 479.392 16.6813   2
 -11  -4   9 482.008 11.9839   1
  12  -4   9 13.4080 4.53913   1
 -12  -4  -9 16.8460 4.36389   1
  12  -4   9 17.1137 5.64702   2
 -12  -4  -9 17.2142 5.73689   2
 -12  -4   9 9.85090 3.55767   1
 -12  -4   9 15.0615 5.20866   2
  12  -4  -9 13.9431 5.56658   2
  12  -4  -9 15.1591 4.32091   1
  13  -4   9 33.0203 5.88799   1
 -13  -4  -9 41.3415 7.02959   2
 -13  -4  -9 29.6254 5.12820   1
  13  -4  -9 28.2516 5.26571   1
 -13  -4   9 28.3169 6.14824   2
 -13  -4   9 36.5855 4.88564   1
 -14  -4  -9 4.68764 4.30754   1
  14  -4   9 -6.0528 4.21925   1
 -14  -4   9 -1.0271 4.78424   2
 -14  -4   9 1.00057 3.65077   1
  14  -4  -9 3.17891 4.15227   1
   0  -5  -9 213.590 7.84391   2
   0  -5   9 225.214 10.5651   4
   0  -5   9 205.622 7.17983   2
   1  -5   9 146.861 6.42372   2
  -1  -5  -9 153.468 6.97389   2
   1  -5   9 145.632 9.19688   4
   1  -5  -9 139.709 6.60561   2
  -1  -5   9 147.174 9.07501   4
  -1  -5   9 146.744 6.11349   2
  -2  -5  -9 6.42523 2.96825   2
  -2  -5  -9 3.16120 3.79837   4
   2  -5   9 4.75048 2.68988   2
  -2  -5   9 -3.5576 3.65187   4
   2  -5  -9 -2.1077 2.60754   2
  -2  -5   9 0.24602 2.24259   2
  -3  -5  -9 10.2827 3.20321   2
  -3  -5  -9 16.3898 4.33959   4
   3  -5   9 13.0290 3.17299   2
  -3  -5   9 11.9203 4.48727   4
  -3  -5   9 16.7890 3.10989   2
   3  -5  -9 15.6221 3.41237   2
  -4  -5  -9 -0.3997 2.85077   2
  -4  -5  -9 0.20933 3.72455   4
   4  -5   9 2.84279 2.85413   2
  -4  -5   9 0.75858 2.51403   2
  -4  -5   9 1.24786 3.79598   4
   4  -5  -9 -0.3585 2.89105   2
  -5  -5  -9 21.2577 5.05758   4
   5  -5   9 10.4508 3.59277   2
  -5  -5  -9 9.32915 3.46688   2
  -5  -5   9 13.4066 3.23566   2
   5  -5  -9 11.8220 3.62595   2
  -5  -5   9 23.9195 5.43072   4
  -6  -5  -9 4.96874 4.46434   4
   6  -5   9 1.47261 3.25535   2
  -6  -5  -9 -2.0135 3.05660   2
   6  -5  -9 2.97097 3.29836   2
  -6  -5   9 -0.6446 4.31205   4
  -6  -5   9 1.41804 2.82827   2
  -7  -5  -9 6.67710 3.83961   2
  -7  -5  -9 13.7551 5.32246   4
   7  -5   9 18.3146 4.35878   2
   7  -5  -9 17.5374 4.29345   2
  -7  -5   9 4.41290 4.85310   4
  -7  -5   9 6.93783 3.45819   2
  -8  -5  -9 15.9485 5.75984   4
   8  -5   9 25.6462 5.02548   2
  -8  -5  -9 13.7587 4.57152   2
  -8  -5   9 15.2081 4.29909   2
  -8  -5   9 15.4745 5.71365   4
   8  -5  -9 20.0028 4.58960   2
  -9  -5  -9 99.4682 8.10977   2
   9  -5   9 93.0382 7.88528   2
  -9  -5   9 106.444 9.76747   4
   9  -5  -9 81.5734 7.56573   2
  -9  -5   9 99.2598 7.89463   2
 -10  -5  -9 14.8598 4.93559   2
  10  -5   9 25.9702 5.60911   2
 -10  -5  -9 5.54189 4.47763   2
  10  -5  -9 23.5454 5.26054   2
  10  -5  -9 7.93768 3.26961   1
 -10  -5   9 3.65410 5.21578   4
 -10  -5   9 12.9224 4.55476   2
 -11  -5  -9 -2.3484 4.17470   2
 -11  -5  -9 -0.3713 4.32564   2
  11  -5   9 0.47091 4.72660   2
  11  -5  -9 1.11671 3.28608   1
  11  -5  -9 -4.4553 4.11425   2
 -11  -5   9 -0.5325 4.01263   2
 -11  -5   9 2.53080 5.80836   4
 -12  -5  -9 215.080 12.6369   2
  12  -5   9 212.351 12.5784   2
 -12  -5   9 205.494 11.8313   2
  12  -5  -9 234.691 12.7656   2
  12  -5  -9 222.892 9.30480   1
  13  -5   9 70.5571 9.04742   2
 -13  -5  -9 62.8214 8.16708   2
 -13  -5   9 57.3458 7.79275   2
  13  -5  -9 75.0386 8.68549   2
  13  -5  -9 70.8578 6.43210   1
   0  -6   9 1.02548 2.39648   2
   0  -6   9 -2.7514 4.30859   4
   0  -6  -9 2.89608 2.84322   2
   1  -6   9 714.349 20.9298   4
   1  -6   9 702.559 15.1674   2
  -1  -6  -9 683.423 15.6759   2
  -1  -6   9 693.411 20.6771   4
   1  -6  -9 686.243 15.6912   2
  -1  -6   9 691.405 14.8533   2
  -2  -6  -9 339.581 10.4634   2
   2  -6   9 349.497 10.1595   2
  -2  -6   9 333.923 14.3901   4
  -2  -6   9 335.222 9.58011   2
   2  -6  -9 343.470 10.5777   2
  -3  -6  -9 134.669 7.19720   2
   3  -6   9 128.764 6.95122   2
  -3  -6   9 137.279 10.4116   4
  -3  -6   9 142.738 6.62426   2
   3  -6  -9 130.860 7.33687   2
   4  -6   9 2.33255 3.22416   2
  -4  -6  -9 10.1130 3.46341   2
   4  -6  -9 -2.1261 2.93341   2
  -4  -6   9 4.43860 3.01866   2
  -4  -6   9 3.24349 4.85315   4
   5  -6   9 107.432 7.32305   2
  -5  -6  -9 115.725 7.33829   2
   5  -6  -9 97.9612 7.19596   2
  -5  -6   9 103.875 6.57053   2
  -5  -6   9 94.1462 9.21753   4
  -6  -6  -9 1.73190 3.57346   2
   6  -6   9 1.05777 3.56687   2
  -6  -6   9 5.17263 3.33616   2
  -6  -6   9 0.44627 4.85343   4
   6  -6  -9 -2.4144 3.25157   2
  -7  -6  -9 730.859 18.5793   2
   7  -6   9 743.454 18.8083   2
  -7  -6   9 736.801 22.6704   4
   7  -6  -9 718.921 18.5593   2
  -7  -6   9 695.090 17.3255   2
   8  -6   9 107.340 8.57684   2
  -8  -6  -9 90.7539 7.81140   2
   8  -6  -9 95.0087 7.96284   2
  -8  -6   9 76.7319 6.72227   2
  -8  -6   9 104.706 10.1983   4
   9  -6   9 108.325 8.91026   2
  -9  -6  -9 111.627 8.77150   2
  -9  -6   9 105.771 10.4436   4
   9  -6  -9 113.540 8.91302   2
  -9  -6   9 118.099 8.36602   2
 -10  -6  -9 82.6553 7.76336   2
 -10  -6  -9 70.1984 7.47596   2
  10  -6   9 57.7764 7.39846   2
 -10  -6   9 93.7637 10.3381   4
  10  -6  -9 82.8938 8.13462   2
 -10  -6   9 73.8329 7.23184   2
 -11  -6  -9 3.03446 4.54270   2
 -11  -6  -9 -0.6779 4.43359   2
  11  -6   9 4.07798 5.17501   2
 -11  -6   9 7.82666 4.67488   2
 -11  -6   9 6.13320 5.88629   4
  11  -6  -9 2.59477 4.79808   2
   0  -7   9 113.979 10.5361   4
   0  -7  -9 94.8260 6.61111   2
   0  -7   9 114.205 6.12569   2
   1  -7   9 108.917 6.40683   2
  -1  -7  -9 100.363 6.65528   2
   1  -7  -9 102.191 6.83652   2
  -1  -7   9 116.726 10.5177   4
  -1  -7   9 101.006 5.99552   2
  -2  -7  -9 -0.2164 3.11532   2
   2  -7   9 4.31211 3.23054   2
  -2  -7   9 -0.2595 2.75222   2
  -2  -7   9 6.50788 5.48603   4
   2  -7  -9 -2.2366 3.11402   2
   3  -7   9 13.0300 3.72975   2
  -3  -7  -9 13.2374 3.86782   2
  -3  -7   9 13.1962 6.25435   4
  -3  -7   9 18.1840 3.48689   2
   3  -7  -9 19.1956 4.20004   2
   4  -7   9 4.96888 3.45682   2
  -4  -7  -9 3.37612 3.34797   2
   4  -7  -9 -2.4503 3.21313   2
  -4  -7   9 -0.7202 2.86470   2
  -4  -7   9 -2.3891 5.27332   4
   5  -7   9 4.39245 3.63694   2
  -5  -7  -9 1.40170 3.50714   2
  -5  -7   9 0.20760 5.62658   4
   5  -7  -9 -1.6098 3.31846   2
  -5  -7   9 -1.5374 2.98010   2
  -6  -7  -9 5.96930 4.03573   2
   6  -7   9 3.07439 3.82954   2
  -6  -7   9 0.70173 5.61413   4
  -6  -7   9 6.45246 3.39419   2
   6  -7  -9 6.52300 4.09189   2
  -7  -7  -9 17.9896 4.69311   2
   7  -7   9 12.7372 4.38441   2
  -7  -7   9 16.2177 4.13753   2
  -7  -7   9 19.2927 6.76125   4
   7  -7  -9 13.4103 4.66108   2
  -8  -7  -9 20.2160 5.22258   2
   8  -7   9 17.8507 5.04253   2
  -8  -7   9 27.0637 7.31435   4
  -8  -7   9 15.0445 4.42545   2
   8  -7  -9 28.9082 5.59354   2
   0  -8   9 3.06322 3.01020   2
   0  -8  -9 2.35812 3.34037   2
  -1  -8  -9 9.42661 3.68458   2
   1  -8   9 9.91607 3.56949   2
   1  -8  -9 20.4194 4.29792   2
  -1  -8   9 8.33638 3.21954   2
  -1  -8   9 6.72374 6.71580   4
  -2  -8  -9 8.22178 3.74335   2
   2  -8   9 2.22102 3.35525   2
   2  -8  -9 -1.4376 3.38422   2
  -2  -8   9 -5.6946 2.73377   2
  -2  -8   9 -1.7064 5.72867   4
   0   0 -10 50.0479 4.16746   1
   0   0  10 56.0603 4.46020   2
   0   0  10 58.9805 4.58836   1
   0   0 -10 51.1725 4.08821   2
  -1   0  10 209.423 7.09820   2
   1   0  10 202.171 7.15359   1
   1   0  10 199.109 7.07065   2
  -1   0 -10 203.389 7.20579   1
   1   0 -10 196.419 7.06698   1
  -1   0  10 181.324 6.97268   1
   1   0 -10 200.022 7.10456   2
   2   0  10 1057.95 20.0190   2
  -2   0  10 1044.66 20.2878   3
   2   0 -10 1048.60 19.9434   2
  -2   0  10 1032.25 19.8773   2
  -2   0  10 1057.11 19.7460   1
  -2   0 -10 1041.81 20.0967   2
   2   0 -10 1072.85 19.9357   1
  -2   0 -10 1033.20 20.0187   1
   2   0  10 1068.96 20.1493   1
   3   0 -10 442.610 11.2156   2
  -3   0 -10 458.823 11.4836   1
  -3   0  10 457.095 11.2932   2
   3   0  10 454.110 11.5025   2
   3   0  10 422.220 11.3472   1
  -3   0  10 441.547 11.1375   1
   3   0 -10 437.726 11.0773   1
  -3   0 -10 460.489 11.5176   1
  -3   0 -10 438.504 11.3960   2
  -3   0  10 433.722 11.5149   3
   4   0  10 26.9907 3.78064   1
  -4   0  10 27.6340 3.49051   2
  -4   0 -10 27.9895 3.67486   1
  -4   0  10 27.6779 3.65684   3
  -4   0  10 30.2718 3.59592   1
   4   0  10 24.4699 3.46347   2
   4   0 -10 31.3568 3.71410   2
   4   0 -10 25.5048 3.53936   1
  -4   0 -10 27.8128 3.73009   2
   5   0 -10 3.70122 2.66750   2
  -5   0  10 4.81345 2.74282   1
  -5   0 -10 4.38783 2.87199   2
  -5   0  10 4.11145 2.64404   2
   5   0  10 6.06599 3.05110   2
  -5   0 -10 1.65875 2.73452   1
   5   0  10 6.24382 3.03769   1
  -5   0  10 7.74934 2.90960   3
   5   0 -10 9.79348 2.93111   1
  -6   0  10 983.586 20.2704   1
   6   0  10 1000.01 21.0591   1
   6   0 -10 1007.51 20.5185   1
  -6   0  10 963.777 20.2701   2
  -6   0  10 938.948 20.7155   3
   6   0  10 994.217 21.6569   2
  -6   0 -10 1034.25 21.1342   1
   7   0  10 579.055 15.2554   1
  -7   0  10 593.177 14.9620   1
  -7   0  10 585.795 15.3583   3
  -7   0 -10 607.872 15.3191   1
   7   0 -10 551.342 14.5553   1
  -8   0  10 129.936 7.49032   1
   8   0 -10 156.913 7.99068   1
  -8   0  10 138.906 8.04628   3
   8   0  10 137.546 8.43358   1
  -8   0 -10 152.427 8.37036   1
   9   0 -10 87.3786 7.07743   1
  -9   0  10 90.9158 7.11779   1
  -9   0 -10 84.3574 7.11755   1
   9   0  10 94.2021 7.53771   1
 -10   0  10 42.3399 5.56410   1
 -10   0 -10 34.5698 5.52961   1
  10   0 -10 42.2193 5.60637   1
  10   0  10 36.7593 5.63851   1
  11   0  10 24.6519 5.34545   1
 -11   0  10 18.3976 5.10307   1
  11   0 -10 24.9096 5.32055   1
 -11   0 -10 21.8567 5.32927   1
 -12   0  10 21.1477 5.17680   1
  12   0  10 16.4058 5.53740   1
  12   0 -10 22.8314 5.43562   1
 -12   0 -10 21.1352 5.35390   1
  13   0  10 8.21888 4.96592   1
 -13   0  10 11.6126 5.06559   1
  13   0 -10 6.22080 4.88975   1
 -13   0 -10 10.5616 4.90193   1
 -14   0  10 632.482 19.6569   1
  14   0  10 626.111 20.2137   1
 -14   0 -10 619.525 20.0738   1
  14   0 -10 654.236 20.2823   1
 -15   0  10 379.402 15.7910   1
  15   0 -10 402.418 16.7885   1
  15   0  10 400.314 16.7575   1
 -15   0 -10 393.413 16.3329   1
 -16   0  10 47.9960 7.56036   1
  16   0  10 24.9680 7.04060   1
 -16   0 -10 32.8363 7.17255   1
   0  -1 -10 -2.0967 1.95516   2
   0  -1  10 -4.3286 1.86179   2
   0  -1 -10 1.77866 2.24479   1
   0  -1  10 4.44122 2.42798   1
   0   1 -10 -4.8370 2.02693   1
   0   1  10 -4.8379 2.03326   1
   1  -1  10 92.6364 5.27109   1
   1  -1  10 82.6017 5.19338   2
  -1   1  10 87.4052 5.07419   1
   1   1 -10 92.5693 5.06796   1
  -1  -1 -10 91.3024 5.23390   1
  -1   1  10 98.5113 5.25168   2
  -1   1 -10 91.2257 5.22618   1
  -1  -1  10 89.8214 5.07589   2
   1  -1 -10 96.2950 5.13818   1
  -1  -1  10 93.6195 5.16480   3
  -1  -1  10 95.5121 5.16431   1
  -1  -1  10 88.9755 3.81300   4
   1   1  10 93.2066 5.42253   1
   1  -1 -10 81.9835 5.15828   2
  -2   1  10 385.314 9.99743   2
   2  -1  10 388.516 10.0991   1
  -2  -1 -10 383.698 10.2101   1
  -2  -1 -10 373.677 10.1573   2
   2   1 -10 400.894 10.0910   1
  -2   1  10 378.256 10.0716   1
   2  -1  10 392.117 10.2171   2
  -2  -1 -10 380.137 10.1554   1
  -2  -1  10 375.119 9.86129   1
   2   1  10 347.846 10.2400   2
   2  -1 -10 382.553 10.0153   1
  -2  -1  10 377.839 10.1591   3
   2   1  10 370.305 10.2702   1
  -2  -1  10 378.486 8.29407   4
  -2  -1  10 357.529 9.79704   2
  -2   1 -10 374.488 10.1427   1
   2  -1 -10 379.481 10.0683   2
   3  -1  10 284.338 8.91273   1
   3  -1  10 268.045 8.77164   2
  -3  -1 -10 289.797 9.09197   2
  -3   1  10 293.173 8.90735   1
  -3   1  10 308.009 9.01085   2
  -3   1  10 284.835 9.19557   3
   3   1 -10 290.771 8.71763   1
  -3  -1 -10 283.703 8.84604   1
  -3   1 -10 280.936 8.84001   1
   3  -1 -10 284.245 8.80804   2
  -3  -1  10 284.963 8.67419   2
   3   1  10 293.200 9.07522   1
  -3   1 -10 282.414 8.97058   1
  -3  -1  10 289.070 8.48213   1
  -3  -1  10 289.383 8.92248   3
  -3  -1  10 292.367 7.48965   4
   3  -1 -10 285.861 8.62929   1
   4   1 -10 351.623 9.97355   1
  -4   1  10 353.969 10.0411   1
   4  -1  10 353.207 10.3557   2
  -4  -1 -10 331.555 10.0287   1
   4  -1  10 337.121 10.1088   1
  -4   1  10 344.634 10.3944   3
  -4  -1 -10 330.383 10.1347   2
   4  -1 -10 344.853 9.82015   1
  -4  -1  10 341.596 10.1792   3
  -4   1 -10 349.461 10.1074   1
   4   1  10 342.789 10.3026   1
   4  -1 -10 343.276 10.0240   2
  -4  -1  10 342.110 9.64820   1
  -4  -1  10 349.287 10.0424   2
  -5  -1 -10 263.904 9.32192   2
   5  -1  10 283.937 9.45153   2
   5   1 -10 260.542 8.90825   1
  -5  -1 -10 251.056 9.02390   1
  -5   1  10 270.375 9.39952   3
   5  -1  10 275.684 9.29172   1
  -5   1  10 259.271 9.02542   1
   5   1  10 268.834 9.39309   1
  -5  -1  10 271.429 8.68964   1
  -5  -1  10 263.984 9.29446   3
   5  -1 -10 271.174 9.07006   2
   5  -1 -10 266.732 8.93192   1
  -5  -1  10 274.014 9.03442   2
  -5   1 -10 253.042 9.16326   1
  -6   1  10 2.02600 2.85746   3
   6  -1  10 3.65412 3.08165   1
  -6   1  10 3.18739 2.86489   1
  -6  -1 -10 -2.8415 2.75665   2
   6  -1  10 -4.8604 2.64502   2
  -6  -1 -10 6.07432 3.04982   1
   6   1 -10 3.00084 2.58692   1
   6   1  10 4.62902 3.16297   1
   6  -1 -10 6.24792 2.83898   1
  -6   1 -10 -3.1290 2.75640   1
  -6  -1  10 6.82145 2.95367   3
  -6  -1  10 -1.8693 2.43491   2
  -6  -1  10 4.21738 2.74856   1
   6  -1 -10 2.86610 2.71823   2
  -7   1  10 0.30895 3.00175   3
   7  -1  10 3.92946 3.32038   1
  -7  -1 -10 2.07051 3.11578   1
  -7  -1 -10 4.92484 3.34890   2
   7   1 -10 3.17846 3.10751   1
   7  -1  10 5.95785 3.41464   2
  -7   1  10 1.54008 3.06214   1
  -7  -1  10 6.72552 3.29900   2
   7  -1 -10 8.21134 3.24542   1
  -7  -1  10 6.06537 2.98927   1
   7  -1 -10 6.10602 3.17639   2
  -7   1 -10 4.83211 3.32077   1
   7   1  10 -1.3136 3.10662   1
  -7  -1  10 4.52087 3.07818   3
  -8  -1 -10 112.688 7.60854   1
  -8   1  10 116.450 7.55089   1
   8  -1  10 111.968 7.52369   1
   8   1 -10 111.036 7.45261   1
  -8  -1 -10 117.896 7.93578   2
  -8   1  10 113.066 7.57919   3
   8  -1  10 117.091 7.69094   2
  -8  -1  10 117.621 7.76787   3
  -8  -1  10 107.035 7.11658   2
  -8  -1  10 105.052 6.82426   1
  -8   1 -10 117.420 7.83433   1
   8   1  10 106.176 7.63289   1
   8  -1 -10 95.4244 6.81480   1
  -9   1  10 147.056 8.45432   1
  -9  -1 -10 147.196 8.59378   1
   9  -1  10 135.596 8.59792   1
   9  -1 -10 140.526 8.22150   1
  -9  -1  10 139.763 8.29012   2
  -9   1 -10 139.317 8.74049   1
  -9  -1  10 124.528 7.70077   1
   9   1  10 152.989 9.25549   1
  10  -1  10 92.4458 7.91587   1
 -10   1  10 98.1685 7.93062   1
 -10  -1 -10 94.4424 7.62024   1
 -10  -1  10 108.350 7.66862   1
 -10   1 -10 97.2221 7.99289   1
  10  -1 -10 88.8540 7.34257   1
  10   1  10 95.0807 8.40811   1
 -11  -1 -10 80.3320 7.59777   1
  11  -1  10 88.3715 7.81243   1
 -11   1  10 77.4479 7.39714   1
  11  -1 -10 82.0555 7.46913   1
 -11  -1  10 75.3670 7.02370   1
 -11   1 -10 81.4749 7.80146   1
 -12   1  10 44.0758 6.52464   1
 -12  -1 -10 35.1171 6.02325   1
  12  -1  10 37.9032 6.19007   1
  12  -1 -10 42.9914 6.07660   1
 -12  -1  10 40.1617 5.91412   1
  13  -1  10 12.9827 5.24386   1
 -13  -1 -10 19.7883 5.56715   1
 -13   1  10 20.5814 5.62918   1
  13  -1 -10 14.2627 5.19228   1
 -13  -1  10 21.1616 5.27733   1
 -14  -1 -10 -5.8075 4.38346   1
 -14   1  10 -0.2474 4.62216   1
  14  -1  10 -1.2542 4.66455   1
 -14  -1  10 4.02861 4.60614   1
  14  -1 -10 4.93333 4.51908   1
  15  -1  10 22.7765 6.38315   1
 -15  -1 -10 11.1407 5.57295   1
 -15   1  10 10.6428 5.65464   1
  15  -1 -10 2.77069 4.90663   1
 -15  -1  10 7.00003 5.05262   1
  16  -1  10 20.5161 6.38960   1
 -16  -1 -10 26.4635 6.61737   1
  16  -1 -10 16.1594 5.95525   1
 -16  -1  10 12.7598 5.68849   1
   0  -2  10 565.830 12.3223   1
   0  -2  10 556.923 12.4444   4
   0  -2  10 573.293 12.7511   2
   0   2  10 584.149 12.8712   1
   0  -2 -10 556.315 12.9467   2
   0  -2  10 575.589 12.3230   3
   0  -2 -10 565.103 12.5480   1
  -1  -2 -10 357.904 9.64957   1
  -1  -2 -10 361.860 9.60583   1
  -1  -2 -10 358.696 9.87339   2
  -1   2  10 362.209 9.85650   1
   1  -2  10 370.276 9.77059   2
   1  -2  10 373.053 9.52687   1
  -1  -2  10 372.006 9.31199   1
  -1  -2  10 373.406 9.58911   3
  -1  -2  10 373.842 9.48767   4
  -1  -2  10 370.764 9.77103   2
   1   2  10 374.786 9.99215   1
   1  -2 -10 349.154 9.77326   2
   1  -2 -10 362.142 9.51454   1
   2  -2  10 69.0505 4.79567   1
  -2  -2 -10 65.0534 4.67035   1
  -2  -2 -10 63.7922 3.51620   4
  -2   2  10 75.5560 4.89099   1
   2  -2  10 75.2234 4.98639   2
  -2  -2 -10 68.3989 5.00645   2
  -2  -2  10 73.9783 4.63642   4
   2  -2 -10 68.6767 4.90901   2
  -2  -2  10 55.8905 4.51495   2
  -2  -2  10 64.9426 4.38515   1
  -2  -2  10 66.8118 4.75646   3
   2   2  10 72.3451 5.07956   1
   2  -2 -10 67.1221 4.52828   1
   3  -2  10 1591.23 27.9892   1
  -3   2  10 1568.25 29.0665   3
   3  -2  10 1597.12 28.3535   2
  -3   2  10 1625.89 28.3591   1
  -3  -2 -10 1602.22 28.1117   1
  -3  -2 -10 1620.54 28.5679   2
  -3  -2  10 1638.90 27.3912   1
  -3  -2  10 1615.81 28.4508   4
  -3  -2  10 1628.48 28.4440   3
   3  -2 -10 1578.72 28.3189   2
  -3  -2  10 1621.51 28.0633   2
   3  -2 -10 1556.10 27.8188   1
   4  -2  10 28.3481 3.77980   2
   4  -2  10 27.4556 3.79013   1
  -4  -2 -10 30.1040 3.82408   2
  -4   2  10 21.6742 3.74899   3
  -4  -2 -10 25.7347 3.67479   1
  -4  -2  10 25.4732 3.57790   4
   4  -2 -10 30.3617 3.78493   2
  -4  -2  10 28.5589 3.34771   1
  -4  -2  10 26.0991 3.57533   2
  -4  -2  10 27.2683 3.76437   3
   4  -2 -10 28.8237 3.50366   1
  -5  -2 -10 154.436 7.45801   2
   5  -2  10 154.149 7.37425   2
   5  -2  10 160.768 7.27559   1
  -5   2  10 139.745 7.31491   3
  -5  -2 -10 158.979 7.09067   1
  -5  -2  10 147.548 6.44928   1
  -5  -2  10 140.408 6.95298   2
   5  -2 -10 147.069 7.16998   2
  -5  -2  10 163.920 7.51785   3
   5  -2 -10 156.960 6.93539   1
  -6  -2 -10 25.0792 4.20138   2
  -6   2  10 23.1264 3.87764   3
   6  -2  10 35.5323 4.61957   2
   6  -2  10 29.7374 4.24697   1
  -6  -2 -10 38.0257 4.39279   1
  -6  -2  10 26.8096 4.36068   3
   6  -2 -10 29.6018 3.98631   1
  -6  -2  10 26.2193 4.01705   2
   6  -2 -10 29.7639 4.19227   2
  -6  -2  10 28.0209 3.61169   1
  -7  -2 -10 13.6375 3.99402   2
   7  -2  10 15.5551 3.77785   1
  -7   2  10 10.5161 3.60558   3
   7  -2  10 13.9432 3.91852   2
  -7  -2 -10 12.9428 3.63066   1
   7  -2 -10 10.5650 3.48065   2
  -7  -2  10 10.0388 3.47405   2
  -7  -2  10 12.9936 3.25911   1
  -7  -2  10 14.5267 3.77459   3
   7  -2 -10 15.7068 3.60040   1
  -8  -2 -10 274.841 10.3293   1
   8  -2  10 264.320 10.5696   1
  -8  -2 -10 283.782 11.2846   2
   8  -2  10 292.327 11.2171   2
  -8  -2  10 275.011 9.58179   1
  -8  -2  10 289.973 10.6192   2
   8  -2 -10 264.241 10.0560   1
   8  -2 -10 295.444 10.7916   2
   9  -2  10 1062.61 23.9464   2
  -9  -2 -10 1002.64 22.8459   1
   9  -2  10 1045.04 23.2122   1
  -9  -2 -10 1071.83 23.9737   2
   9  -2 -10 1036.56 22.7010   1
  -9  -2  10 1041.95 23.3255   2
  -9  -2  10 1044.14 22.0666   1
   9  -2 -10 1021.90 23.3819   2
 -10  -2 -10 45.5274 6.08145   2
 -10  -2 -10 46.3941 6.28534   2
 -10  -2 -10 43.2465 5.69648   1
  10  -2  10 45.6469 5.85243   1
 -10  -2  10 39.0133 5.12235   1
 -10  -2  10 55.0624 6.22855   2
  10  -2 -10 39.8689 5.37831   1
 -11  -2 -10 499.371 15.4175   1
  11  -2  10 490.890 15.7636   1
 -11  -2  10 475.493 14.5296   1
 -11  -2  10 472.393 15.6120   2
  11  -2 -10 485.462 15.2227   1
 -12  -2 -10 617.256 17.8221   1
  12  -2  10 581.193 17.9447   1
 -12  -2  10 597.854 17.1771   1
  12  -2 -10 612.060 17.6628   1
 -13  -2 -10 12.3439 5.00424   1
  13  -2  10 22.2885 5.65225   1
  13  -2 -10 12.0302 4.93917   1
 -13  -2  10 12.3935 4.61003   1
  14  -2  10 5.85017 5.04601   1
 -14  -2 -10 4.78588 4.53156   1
  14  -2 -10 6.23201 4.61666   1
 -14  -2  10 5.34969 4.50587   1
 -15  -2 -10 20.6741 5.73852   1
  15  -2  10 18.7041 6.05432   1
  15  -2 -10 18.5690 5.82815   1
 -15  -2  10 19.3897 5.34532   1
   0  -3  10 0.57837 2.58773   4
   0  -3  10 0.23194 2.15476   2
   0  -3 -10 -2.7187 1.91736   1
   0  -3  10 1.45717 2.01895   1
   0  -3 -10 2.01278 2.31307   2
   0  -3  10 3.55984 2.08420   3
   1  -3  10 77.8205 4.49765   1
  -1  -3 -10 70.2425 5.08858   2
   1  -3  10 79.7751 5.68744   4
   1  -3  10 72.4489 5.02179   2
  -1  -3 -10 79.6589 4.67020   1
   1  -3  10 73.0473 4.30314   3
   1  -3 -10 91.0306 4.77793   1
  -1  -3  10 81.1307 5.66314   4
   1  -3 -10 72.1240 5.15432   2
  -1  -3  10 79.0454 4.28736   1
   1  -3 -10 79.4457 4.59422   1
  -1  -3  10 80.3353 4.77820   3
  -1  -3  10 83.8106 5.03566   2
   2  -3  10 260.889 7.49011   1
   2  -3  10 255.037 8.36735   2
  -2  -3 -10 264.391 7.75903   1
  -2  -3 -10 271.765 8.65785   2
  -2  -3  10 248.145 8.79596   4
  -2  -3  10 244.907 7.96771   2
  -2  -3  10 251.433 6.82061   1
   2  -3 -10 248.918 8.46007   2
   2  -3 -10 255.189 7.60009   1
  -2  -3  10 267.846 8.10511   3
  -3  -3 -10 238.200 7.56969   1
   3  -3  10 220.055 8.15665   2
  -3   3  10 209.049 8.61794   3
  -3  -3 -10 232.856 7.91267   4
   3  -3  10 238.658 7.54611   1
  -3  -3 -10 237.906 8.44256   2
   3  -3 -10 235.829 8.44378   2
  -3  -3  10 229.631 7.97031   2
   3  -3 -10 232.350 7.45357   1
  -3  -3  10 232.073 8.57536   4
  -3  -3  10 231.084 6.69491   1
  -3  -3  10 251.339 8.23791   3
  -4   3  10 243.933 9.44648   3
   4  -3  10 267.844 9.20868   2
   4  -3  10 272.616 8.44721   1
  -4  -3 -10 265.862 9.24333   2
  -4  -3 -10 256.796 8.32554   1
   4  -3 -10 261.418 8.10831   1
   4  -3 -10 258.105 8.91301   2
  -4  -3  10 278.900 9.25621   3
  -4  -3  10 251.205 9.39929   4
  -4  -3  10 276.680 7.55211   1
  -4  -3  10 263.043 8.74753   2
   5  -3  10 213.433 8.15033   1
   5  -3  10 232.723 8.94748   2
  -5  -3 -10 245.506 9.23406   2
  -5  -3 -10 231.667 8.04506   1
  -5   3  10 223.242 9.15992   3
  -5  -3  10 221.872 7.10766   1
   5  -3 -10 231.445 8.84687   2
  -5  -3  10 231.733 8.55402   2
   5  -3 -10 212.248 7.69693   1
  -5  -3  10 232.605 9.28586   4
  -5  -3  10 238.188 9.01303   3
  -6   3  10 -2.1295 2.83225   3
  -6  -3 -10 4.01461 3.21012   2
   6  -3  10 1.46530 3.08839   2
   6  -3  10 4.75483 3.01237   1
  -6  -3 -10 2.06123 2.72914   1
  -6  -3  10 2.37803 3.09216   3
  -6  -3  10 3.01833 2.43549   1
   6  -3 -10 3.36610 3.02142   2
  -6  -3  10 -0.2600 2.70703   2
   6  -3 -10 5.80755 2.76831   1
   7  -3  10 2.44447 3.25209   1
   7  -3  10 6.88640 3.65128   2
  -7  -3 -10 2.33596 2.82289   1
  -7   3  10 9.45959 3.69273   3
  -7  -3 -10 3.10653 3.58422   2
   7  -3 -10 4.37974 3.31909   2
  -7  -3  10 9.25559 3.88801   3
  -7  -3  10 6.81152 2.60310   1
  -7  -3  10 4.08087 3.10145   2
   7  -3 -10 1.73460 2.75730   1
  -8  -3 -10 94.3155 7.50248   2
   8  -3  10 108.364 7.51801   1
   8  -3  10 113.431 8.06785   2
  -8  -3 -10 97.8898 6.68637   1
  -8  -3  10 98.4682 7.49127   2
   8  -3 -10 105.823 7.95695   2
   8  -3 -10 91.8793 6.63166   1
  -8  -3  10 101.451 6.06516   1
   9  -3  10 117.218 8.09558   1
  -9  -3 -10 111.451 7.59099   1
  -9  -3 -10 123.813 8.65373   2
   9  -3  10 128.805 8.65279   2
  -9  -3  10 110.484 7.94606   2
  -9  -3  10 107.090 6.58458   1
   9  -3 -10 108.746 8.20823   2
   9  -3 -10 108.223 7.21708   1
  10  -3  10 63.5479 6.52584   1
 -10  -3 -10 62.0929 7.18322   2
  10  -3  10 71.6331 7.23129   2
 -10  -3 -10 72.9856 6.52933   1
 -10  -3  10 78.2862 7.27183   2
  10  -3 -10 77.3593 6.61478   1
 -10  -3  10 65.5543 5.67403   1
  10  -3 -10 65.3732 7.04980   2
  11  -3  10 47.7862 6.31254   1
 -11  -3 -10 66.7159 7.37218   2
 -11  -3 -10 55.8180 6.17049   1
 -11  -3 -10 58.4847 7.20410   2
  11  -3  10 63.7687 7.30136   2
  11  -3 -10 60.8989 6.29174   1
 -11  -3  10 60.8386 6.89084   2
 -11  -3  10 66.3462 6.10887   1
  12  -3  10 18.1297 5.28623   1
 -12  -3 -10 23.6774 5.02675   1
 -12  -3  10 26.4781 5.87693   2
 -12  -3  10 21.1942 4.51571   1
  12  -3 -10 30.1958 5.29360   1
  13  -3  10 27.2246 5.77693   1
 -13  -3 -10 28.5317 5.38481   1
 -13  -3  10 14.0656 4.38977   1
  13  -3 -10 15.3495 4.84230   1
  14  -3  10 -8.7675 4.08446   1
 -14  -3 -10 2.10902 4.51955   1
 -14  -3  10 0.72943 3.72798   1
  14  -3 -10 4.09847 4.30346   1
 -15  -3 -10 10.9202 5.10170   1
  15  -3  10 8.87130 5.26726   1
  15  -3 -10 16.6422 5.29642   1
 -15  -3  10 7.95461 4.50698   1
   0  -4 -10 21.6944 3.49079   2
   0  -4 -10 21.1954 1.97439   1
   0  -4  10 28.4085 3.46513   2
   0  -4  10 22.8154 4.39857   4
  -1  -4 -10 109.006 3.42338   1
   1  -4  10 109.215 5.79562   2
   1  -4  10 127.385 7.66374   4
  -1  -4 -10 110.493 6.19045   2
   1  -4 -10 116.060 6.27753   2
  -1  -4  10 108.923 7.25556   4
  -1  -4  10 110.453 5.66229   2
   1  -4 -10 114.495 4.03898   1
   2  -4  10 594.960 13.7624   2
  -2  -4 -10 580.412 14.0002   2
  -2  -4 -10 608.147 10.2505   1
  -2  -4  10 572.668 13.2242   2
  -2  -4  10 574.852 15.7046   4
   2  -4 -10 581.466 11.0823   1
   2  -4 -10 578.666 14.0448   2
  -3  -4 -10 288.786 9.56702   2
   3  -4  10 276.466 9.25975   2
  -3  -4 -10 278.904 6.32816   1
  -3   4  10 283.732 10.1131   3
   3  -4 -10 288.335 7.20656   1
   3  -4 -10 273.050 9.49792   2
  -3  -4  10 284.688 10.6138   4
  -3  -4  10 277.480 8.95388   2
  -4   4  10 10.6078 3.48873   3
   4  -4  10 15.1661 3.56583   2
  -4  -4 -10 17.6397 2.42121   1
  -4  -4 -10 19.9818 3.86696   2
   4  -4  10 20.2602 1.76367   1
   4  -4 -10 22.6710 3.70489   2
   4  -4 -10 16.2884 2.75443   1
  -4  -4  10 18.5054 3.37382   2
  -4  -4  10 22.6165 4.48888   4
   5  -4  10 6.39543 3.18865   2
  -5  -4 -10 4.81055 2.34535   1
   5  -4  10 6.58551 2.18199   1
  -5   4  10 6.10077 3.39157   3
  -5  -4 -10 0.02223 3.01028   2
   5  -4 -10 4.57764 3.03881   2
   5  -4 -10 -1.5976 2.22562   1
  -5  -4  10 -0.7686 3.38439   4
  -5  -4  10 0.95309 2.73223   2
  -6  -4 -10 579.542 12.3724   1
   6  -4  10 622.281 16.1519   2
  -6  -4 -10 617.500 15.8618   2
   6  -4  10 617.441 12.6028   1
  -6   4  10 585.893 15.7164   3
   6  -4 -10 585.135 15.6397   2
   6  -4 -10 593.918 13.1990   1
  -6  -4  10 580.087 17.0944   4
  -6  -4  10 595.569 14.9685   2
  -7  -4 -10 344.403 12.4680   2
  -7  -4 -10 360.837 9.66096   1
   7  -4  10 358.925 9.91898   1
   7  -4  10 361.881 12.5733   2
   7  -4 -10 356.455 10.2060   1
  -7  -4  10 363.903 13.6223   4
   7  -4 -10 365.135 12.3185   2
  -7  -4  10 360.475 7.73651   1
  -7  -4  10 363.132 11.6512   2
   8  -4  10 115.022 6.62314   1
  -8  -4 -10 79.3897 7.16752   2
  -8  -4 -10 88.4292 5.92452   1
   8  -4  10 104.670 8.14097   2
   8  -4 -10 88.2348 6.17697   1
   8  -4 -10 102.147 7.81280   2
  -8  -4  10 95.5863 4.72370   1
  -8  -4  10 87.2572 7.09944   2
  -8  -4  10 99.4604 8.64527   4
   9  -4  10 69.6499 6.83859   2
  -9  -4 -10 66.0042 5.37314   1
   9  -4  10 53.5693 5.35719   1
  -9  -4 -10 70.2066 7.13089   2
  -9  -4  10 59.4160 4.76591   1
   9  -4 -10 66.9708 7.04987   2
  -9  -4  10 74.4831 6.77960   2
   9  -4 -10 64.3789 5.70807   1
  10  -4  10 25.6279 5.54277   2
  10  -4  10 28.8608 4.84807   1
 -10  -4 -10 35.5644 6.15801   2
 -10  -4 -10 26.3699 4.33599   1
 -10  -4  10 31.1369 3.69529   1
 -10  -4  10 33.7862 5.53483   2
  10  -4 -10 27.6343 4.57653   1
  10  -4 -10 31.6745 5.68788   2
  11  -4  10 20.8967 5.90553   2
 -11  -4 -10 11.7207 5.01660   2
 -11  -4 -10 22.2109 4.41250   1
 -11  -4 -10 22.7383 5.76137   2
  11  -4  10 24.9353 5.10475   1
  11  -4 -10 14.4275 4.40112   1
 -11  -4  10 18.9055 5.07972   2
 -11  -4  10 15.6319 3.72697   1
  11  -4 -10 18.1607 5.43049   2
  12  -4  10 11.4849 5.53197   2
 -12  -4 -10 19.2257 5.87641   2
 -12  -4 -10 16.4174 4.41633   1
  12  -4  10 6.04250 4.36481   1
 -12  -4 -10 11.9710 5.51029   2
  12  -4 -10 7.62604 4.13221   1
 -12  -4  10 11.2170 3.69301   1
 -12  -4  10 16.3366 5.42220   2
 -13  -4 -10 10.0363 4.51633   1
 -13  -4 -10 5.90851 5.35393   2
  13  -4  10 11.3946 4.82637   1
  13  -4 -10 10.9900 4.46656   1
 -13  -4  10 11.5867 5.37780   2
 -13  -4  10 6.81264 3.62849   1
 -14  -4 -10 440.107 14.5250   1
  14  -4  10 482.743 16.0108   1
  14  -4 -10 485.918 15.7673   1
 -14  -4  10 472.333 13.5998   1
 -14  -4  10 470.935 19.3813   2
   0  -5 -10 4.65472 2.88161   2
   0  -5  10 -2.6705 3.66982   4
   0  -5  10 0.68347 2.46106   2
   1  -5  10 35.5734 4.06389   2
  -1  -5 -10 41.7547 4.44131   2
   1  -5  10 40.1928 5.98213   4
   1  -5 -10 39.8748 4.36437   2
  -1  -5  10 43.7039 5.94991   4
  -1  -5  10 43.1053 4.11184   2
  -2  -5 -10 213.892 8.39524   2
   2  -5  10 206.263 8.01726   2
  -2  -5  10 211.952 10.5166   4
  -2  -5  10 217.124 7.78617   2
   2  -5 -10 215.352 8.46137   2
  -3  -5 -10 130.194 7.16762   2
   3  -5  10 135.514 7.06162   2
  -3  -5  10 132.284 6.66095   2
   3  -5 -10 143.928 7.31835   2
  -3  -5  10 140.049 9.08559   4
  -4  -5 -10 179.891 8.39506   2
   4  -5  10 177.943 8.28124   2
   4  -5 -10 175.173 8.44660   2
  -4  -5  10 182.560 9.84499   4
  -4  -5  10 190.357 7.80797   2
  -5  -5 -10 136.240 7.81737   2
   5  -5  10 130.186 7.76054   2
  -5  -5  10 142.163 9.65773   4
   5  -5 -10 144.345 7.99137   2
  -5  -5  10 137.728 7.21561   2
   6  -5  10 6.96667 3.74911   2
  -6  -5 -10 1.26866 3.42128   2
   6  -5 -10 7.62035 3.67081   2
  -6  -5  10 6.37105 3.30297   2
  -6  -5  10 -3.0929 4.20478   4
  -7  -5 -10 1.36713 3.70275   2
   7  -5  10 3.96008 3.79190   2
  -7  -5  10 4.24926 3.58994   2
  -7  -5  10 2.64511 4.84900   4
   7  -5 -10 8.84870 3.87239   2
  -8  -5 -10 51.9850 6.27359   2
   8  -5  10 54.9247 6.48915   2
  -8  -5  10 57.8797 7.69756   4
  -8  -5  10 50.6740 5.78706   2
   8  -5 -10 49.5278 6.18992   2
   9  -5  10 79.7571 7.57383   2
  -9  -5 -10 86.0196 7.87791   2
  -9  -5  10 66.6511 8.41080   4
   9  -5 -10 85.1565 5.56093   1
   9  -5 -10 91.9689 8.19814   2
  -9  -5  10 80.4864 7.29744   2
 -10  -5 -10 80.0005 7.92015   2
  10  -5  10 78.5888 8.02976   2
  10  -5 -10 57.1796 5.05783   1
  10  -5 -10 71.5460 7.60137   2
 -10  -5  10 65.9664 8.81890   4
 -10  -5  10 59.9889 6.79106   2
 -11  -5 -10 69.8627 7.83662   2
 -11  -5 -10 54.8375 7.37976   2
  11  -5  10 51.7303 7.38265   2
 -11  -5  10 82.9882 7.86000   2
  11  -5 -10 57.8794 7.51364   2
  11  -5 -10 59.8095 5.38494   1
 -11  -5  10 52.1520 8.48041   4
  12  -5  10 34.5249 6.67851   2
 -12  -5 -10 35.7949 6.81336   2
 -12  -5  10 26.3024 5.90020   2
  12  -5 -10 38.9202 7.04442   2
 -12  -5  10 27.2339 7.42351   4
  12  -5 -10 30.8456 4.90713   1
   0  -6  10 213.039 11.4778   4
   0  -6  10 213.960 8.08837   2
   0  -6 -10 204.428 8.67060   2
   1  -6  10 130.996 6.88334   2
  -1  -6 -10 144.531 7.47234   2
  -1  -6  10 161.378 10.4967   4
   1  -6 -10 148.839 7.51012   2
  -1  -6  10 143.703 6.81252   2
  -2  -6 -10 15.0909 3.70688   2
   2  -6  10 16.5325 3.76069   2
  -2  -6  10 14.1238 3.34107   2
   2  -6 -10 15.7895 3.78476   2
  -2  -6  10 19.6160 5.68550   4
  -3  -6 -10 682.462 16.6819   2
   3  -6  10 709.009 16.6221   2
  -3  -6  10 703.183 15.6883   2
   3  -6 -10 702.993 16.9276   2
  -3  -6  10 725.446 21.3196   4
  -4  -6 -10 15.8468 4.13917   2
   4  -6  10 17.4770 3.96504   2
   4  -6 -10 8.58181 3.66114   2
  -4  -6  10 13.9202 5.70099   4
  -4  -6  10 10.7718 3.49678   2
   5  -6  10 56.9781 5.82185   2
  -5  -6 -10 62.4385 6.00166   2
   5  -6 -10 72.3208 6.31494   2
  -5  -6  10 60.8412 8.07724   4
  -5  -6  10 72.1802 5.74516   2
  -6  -6 -10 14.3107 4.10257   2
   6  -6  10 5.69810 3.85017   2
  -6  -6  10 4.60527 5.15510   4
  -6  -6  10 4.88817 3.31154   2
   6  -6 -10 0.65664 3.64949   2
  -7  -6 -10 3.63447 4.01540   2
   7  -6  10 5.85271 4.16128   2
  -7  -6  10 4.20333 3.59625   2
  -7  -6  10 6.68427 5.26602   4
   7  -6 -10 -2.4868 3.72757   2
   8  -6  10 126.039 9.14742   2
  -8  -6 -10 130.178 9.13196   2
  -8  -6  10 142.165 8.64634   2
  -8  -6  10 137.197 11.3839   4
   8  -6 -10 117.739 8.98468   2
   9  -6  10 511.598 16.8774   2
  -9  -6 -10 506.516 16.5157   2
   9  -6 -10 498.410 16.5962   2
  -9  -6  10 511.735 15.7295   2
  -9  -6  10 511.566 19.4767   4
 -10  -6 -10 8.39140 4.93713   2
  10  -6  10 27.1254 6.01735   2
 -10  -6 -10 35.5252 6.33509   2
 -10  -6  10 29.0203 7.36674   4
 -10  -6  10 26.5781 5.45348   2
  10  -6 -10 19.1043 5.30989   2
   0  -7  10 -1.8016 2.86490   2
   0  -7  10 -2.1583 4.97316   4
   0  -7 -10 -1.9922 3.07694   2
   1  -7  10 34.4936 4.35876   2
  -1  -7 -10 36.8414 4.79757   2
  -1  -7  10 32.1050 7.30764   4
   1  -7 -10 38.5671 4.93050   2
  -1  -7  10 35.7395 4.24673   2
  -2  -7 -10 93.4993 6.79297   2
   2  -7  10 95.5164 6.62392   2
   2  -7 -10 105.065 7.02423   2
  -2  -7  10 98.0668 6.39806   2
  -2  -7  10 90.1160 9.76086   4
   3  -7  10 105.340 7.05497   2
  -3  -7 -10 102.372 7.39157   2
  -3  -7  10 107.854 6.55043   2
  -3  -7  10 109.691 10.4036   4
   3  -7 -10 113.144 7.64243   2
   4  -7  10 108.249 7.72795   2
  -4  -7 -10 99.2786 7.39427   2
  -4  -7  10 108.675 10.8464   4
  -4  -7  10 108.721 6.84932   2
   4  -7 -10 109.278 7.76909   2
  -5  -7 -10 115.431 8.06645   2
   5  -7  10 106.396 7.84034   2
  -5  -7  10 75.7054 9.53214   4
  -5  -7  10 87.6575 6.82866   2
   5  -7 -10 111.508 8.23585   2
  -6  -7 -10 1.81238 4.07301   2
   6  -7  10 -3.9915 3.68820   2
  -6  -7  10 -4.2819 5.30879   4
  -6  -7  10 -3.6548 3.22197   2
   6  -7 -10 -1.4485 3.59291   2
  -7  -7 -10 5.73228 4.51597   2
   7  -7  10 -0.5885 3.96034   2
  -7  -7  10 1.77783 3.61754   2
  -7  -7  10 1.65474 5.51429   4
   7  -7 -10 5.71336 4.19882   2
   0   0 -11 -0.4948 2.28496   2
   0   0  11 -3.1671 2.26860   1
   0   0 -11 -2.9750 2.14514   1
   0   0  11 2.39898 2.56800   2
  -1   0 -11 287.229 9.02791   1
   1   0  11 290.439 8.88175   2
  -1   0 -11 286.564 8.99589   2
  -1   0  11 277.428 8.70899   1
   1   0 -11 296.693 8.91070   1
   1   0 -11 298.660 8.98435   2
   1   0  11 284.130 8.92227   1
  -2   0 -11 764.529 16.3635   2
  -2   0  11 721.172 16.2556   3
   2   0  11 767.495 16.2939   2
  -2   0  11 760.430 16.2112   2
   2   0  11 763.140 16.3467   1
   2   0 -11 772.749 16.3499   2
   2   0 -11 772.819 16.1184   1
  -2   0  11 769.431 16.0573   1
  -2   0 -11 760.533 16.3267   1
   3   0 -11 515.042 12.7200   2
   3   0  11 504.866 12.8738   2
  -3   0 -11 525.470 13.0256   1
  -3   0  11 517.856 13.0840   3
  -3   0 -11 525.377 13.0011   1
   3   0  11 520.538 12.9223   1
  -3   0 -11 524.444 12.9614   2
  -4   0 -11 208.327 8.25301   2
  -4   0 -11 219.765 8.19051   1
   4   0 -11 212.819 7.96518   1
  -4   0  11 209.747 8.05777   2
   4   0 -11 209.525 8.11316   2
  -4   0  11 228.006 8.48075   3
   4   0  11 208.035 8.18752   2
  -4   0  11 217.215 7.95770   1
   4   0  11 208.520 8.33879   1
  -5   0 -11 242.115 9.23412   1
   5   0  11 253.276 9.31537   2
  -5   0  11 257.316 9.07119   2
   5   0  11 221.795 9.08832   1
  -5   0  11 232.433 8.73902   1
   5   0 -11 239.184 8.74427   1
  -5   0  11 237.668 9.13123   3
  -6   0  11 28.0730 4.29213   2
  -6   0  11 32.2974 4.25234   1
   6   0  11 26.9672 4.28667   1
   6   0 -11 28.2269 4.26897   1
  -6   0 -11 31.6393 4.50493   1
  -6   0  11 26.0262 4.03660   3
  -7   0  11 830.898 19.7686   3
  -7   0 -11 847.498 19.7004   1
   7   0 -11 868.448 19.3490   1
  -7   0  11 896.200 19.3166   1
   7   0  11 832.820 19.8118   1
   8   0  11 181.572 9.40090   1
  -8   0  11 174.852 8.60518   1
  -8   0 -11 159.298 8.85521   1
   8   0 -11 176.612 8.70477   1
   9   0 -11 87.8255 7.08671   1
  -9   0  11 99.1231 7.57666   1
   9   0  11 100.170 8.03948   1
  -9   0 -11 84.3574 7.44720   1
  10   0  11 351.862 13.4288   1
 -10   0 -11 350.630 13.1880   1
 -10   0  11 322.186 12.3883   1
  10   0 -11 345.536 12.6359   1
  11   0 -11 78.4030 7.48102   1
 -11   0  11 86.0167 7.44313   1
  11   0  11 77.8730 8.13721   1
 -11   0 -11 68.7160 7.20958   1
 -12   0 -11 -5.1577 4.07032   1
  12   0  11 4.18465 4.71942   1
  12   0 -11 -0.5312 4.34546   1
 -12   0  11 2.34241 4.38015   1
 -13   0  11 68.0743 7.51649   1
  13   0  11 67.8274 8.07857   1
  13   0 -11 52.3685 7.37222   1
 -13   0 -11 47.0978 7.01892   1
 -14   0 -11 8.50791 5.39158   1
  14   0 -11 2.80044 4.95964   1
 -14   0  11 -0.8933 4.60591   1
  14   0  11 6.21707 5.39176   1
  15   0  11 38.7193 7.66925   1
 -15   0 -11 37.3186 7.26204   1
 -15   0  11 30.5552 6.92189   1
   0  -1 -11 93.8320 5.49890   2
   0   1 -11 99.3341 5.59901   1
   0  -1  11 111.322 5.72495   1
   0   1  11 99.2569 5.69027   1
   0  -1 -11 101.473 5.61098   1
   0  -1  11 97.0703 5.53661   2
  -1  -1 -11 447.761 11.6505   2
   1   1 -11 454.787 11.4226   1
  -1   1  11 473.751 11.5379   1
   1  -1  11 454.560 11.5185   2
   1  -1  11 442.196 11.4096   1
  -1  -1 -11 452.415 11.4396   1
   1  -1 -11 436.875 11.4911   2
  -1   1 -11 460.733 11.4998   1
  -1  -1  11 459.046 11.4407   3
  -1  -1  11 455.212 11.3545   1
   1   1  11 464.400 11.7223   1
  -1  -1  11 451.382 11.4591   2
   1  -1 -11 439.472 11.2715   1
  -1  -1  11 468.304 9.41529   4
   2  -1  11 3.26239 2.60295   1
   2   1 -11 1.06626 2.36130   1
  -2   1  11 3.67616 2.45215   1
  -2  -1 -11 0.50643 2.38122   1
   2  -1  11 1.42956 2.47246   2
  -2  -1 -11 2.23740 2.41687   1
  -2  -1 -11 2.06129 2.53564   2
   2   1  11 7.67876 2.88145   1
  -2  -1  11 1.31479 2.25301   2
   2  -1 -11 2.18164 2.39651   1
  -2  -1  11 3.73330 2.47028   3
   2  -1 -11 5.14773 2.60548   2
  -2  -1  11 2.76918 1.73112   4
  -2  -1  11 2.81584 2.40210   1
  -2   1 -11 6.87624 2.72403   1
   3   1 -11 -3.8664 2.03806   1
   3  -1  11 0.02091 2.53425   2
  -3  -1 -11 3.49578 2.55566   1
  -3   1  11 0.63927 2.44564   3
  -3   1  11 -1.0675 2.24944   1
  -3  -1 -11 1.24045 2.59153   2
   3  -1  11 2.97189 2.70966   1
   3  -1 -11 0.54893 2.36911   2
  -3  -1  11 -1.9646 2.16007   3
  -3   1 -11 2.46301 2.66460   1
   3  -1 -11 1.73041 2.41791   1
  -3  -1  11 2.21864 1.96414   4
  -3  -1  11 2.41710 2.44344   2
  -3  -1  11 -0.2599 2.30648   1
   3   1  11 -1.5595 2.41746   1
  -4   1  11 57.7182 4.95577   3
   4   1 -11 66.6125 5.23127   1
  -4  -1 -11 64.9050 5.32059   2
  -4   1  11 58.9451 4.87290   1
   4  -1  11 64.1903 5.40203   2
  -4  -1 -11 61.3591 5.18297   1
   4  -1  11 52.5213 4.90673   1
   4  -1 -11 57.2054 4.95209   1
  -4  -1  11 65.8991 5.34685   3
   4  -1 -11 62.9418 5.02065   2
   4   1  11 56.0464 5.03945   1
  -4  -1  11 58.3763 4.95660   2
  -4   1 -11 67.3571 5.32900   1
  -4  -1  11 66.2141 5.07847   1
  -4   1 -11 52.4271 4.83639   1
  -5   1  11 7.82891 2.98007   3
  -5  -1 -11 11.5443 3.41633   2
  -5  -1 -11 8.74366 3.24536   1
   5  -1  11 11.1298 3.32393   1
  -5   1  11 6.21194 3.14841   1
   5   1 -11 9.44611 3.03163   1
   5  -1  11 4.87620 3.05901   2
  -5  -1  11 5.46809 2.85844   3
  -5  -1  11 10.4734 3.20832   2
   5  -1 -11 5.43031 2.78968   1
   5  -1 -11 9.61229 3.04473   2
  -5  -1  11 6.01270 2.83953   1
  -5   1 -11 9.13797 3.14301   1
   5   1  11 8.45061 3.43897   1
  -6   1  11 25.1498 4.13357   1
  -6   1  11 30.0835 4.39745   3
   6  -1  11 26.3465 4.43628   2
  -6  -1 -11 30.8022 4.37206   1
  -6  -1 -11 24.5255 4.32161   2
   6   1 -11 28.6342 4.37089   1
   6  -1  11 26.3571 4.20262   1
   6  -1 -11 27.3535 4.15871   2
  -6  -1  11 25.6587 3.84379   1
   6  -1 -11 25.4862 4.00337   1
  -6  -1  11 21.4693 3.71185   2
  -6   1 -11 26.3253 4.31316   1
  -6  -1  11 21.0756 3.89015   3
   6   1  11 24.9971 4.30081   1
  -7  -1 -11 19.5737 4.16373   1
   7   1 -11 23.9794 4.32409   1
   7  -1  11 13.6171 4.12214   1
  -7   1  11 19.3530 4.13788   1
  -7   1  11 14.7233 3.97290   3
  -7  -1 -11 16.5348 4.15705   2
   7  -1  11 12.0072 3.99062   2
  -7  -1  11 19.4139 4.03208   3
  -7  -1  11 21.7219 3.89630   1
   7  -1 -11 17.5628 3.81074   1
   7   1  11 16.1417 4.06778   1
  -7  -1  11 19.5004 3.88630   2
  -7   1 -11 18.5290 4.29339   1
  -8  -1 -11 23.5039 4.59766   1
  -8   1  11 21.1464 4.26519   1
   8  -1  11 27.7718 4.83604   1
  -8  -1  11 29.9326 4.40547   1
   8   1  11 23.5103 5.07282   1
   8  -1 -11 37.0757 4.88436   1
  -8   1 -11 32.1833 4.96117   1
  -8  -1  11 28.7528 4.74962   2
  -9   1  11 18.4363 4.50238   1
   9  -1  11 7.84855 4.00592   1
  -9  -1 -11 14.1084 4.28272   1
   9  -1 -11 10.7745 4.00652   1
  -9   1 -11 11.8799 4.45090   1
  -9  -1  11 15.1923 4.19096   1
   9   1  11 16.1670 4.91981   1
  10  -1  11 1.40063 3.86673   1
 -10   1  11 -2.1872 3.71715   1
 -10  -1 -11 1.17755 3.87089   1
 -10   1 -11 -3.0925 3.92194   1
 -10  -1  11 5.18549 3.76138   1
  10  -1 -11 0.75154 3.63212   1
 -11   1  11 0.50892 4.24942   1
  11  -1  11 4.45333 4.34865   1
 -11  -1 -11 1.72207 4.15082   1
 -11  -1  11 -3.7967 3.47911   1
 -11   1 -11 -3.7123 4.22015   1
  11  -1 -11 -6.8483 3.53295   1
 -12  -1 -11 282.234 13.0406   1
  12  -1  11 277.311 12.8823   1
 -12   1  11 269.228 12.8803   1
 -12  -1  11 288.382 12.3049   1
  12  -1 -11 289.310 12.5497   1
 -13  -1 -11 229.382 12.2131   1
 -13   1  11 224.666 12.4362   1
  13  -1  11 237.105 12.3905   1
  13  -1 -11 229.986 11.9229   1
 -13  -1  11 221.670 11.7503   1
  14  -1  11 107.080 9.80324   1
 -14  -1 -11 101.632 9.37031   1
 -14   1  11 103.388 9.42236   1
  14  -1 -11 105.702 9.29409   1
 -14  -1  11 103.679 9.22530   1
 -15   1  11 8.63362 5.61477   1
  15  -1  11 3.07231 5.18145   1
 -15  -1 -11 5.09718 5.35188   1
 -15  -1  11 -2.3724 4.83025   1
  15  -1 -11 8.50770 5.44683   1
   0  -2  11 2.98176 2.32810   3
   0  -2  11 0.47340 2.15738   4
   0  -2  11 -2.7089 2.20696   2
   0  -2 -11 3.70823 2.53548   2
   0  -2  11 2.03085 2.18131   1
   0  -2 -11 -1.2231 2.18961   1
   0   2  11 0.29245 2.38364   1
   1  -2  11 109.476 5.61911   1
   1  -2  11 102.227 5.74835   2
  -1  -2 -11 93.7238 5.45944   1
  -1  -2 -11 105.282 5.89472   2
  -1  -2 -11 108.879 5.71668   1
  -1   2  11 108.118 6.12060   1
  -1  -2  11 105.634 5.45850   1
  -1  -2  11 109.366 5.17672   4
   1  -2 -11 105.365 5.57649   1
   1  -2 -11 118.056 5.99719   2
  -1  -2  11 101.678 5.68002   2
  -1  -2  11 119.783 5.77734   3
   2  -2  11 1.67988 2.37801   2
  -2  -2 -11 5.30947 2.54036   1
  -2  -2 -11 3.15532 2.54781   2
   2  -2  11 3.14551 2.53137   1
  -2  -2  11 3.05963 2.24793   1
  -2  -2  11 3.09491 2.37146   3
  -2  -2  11 7.36149 2.49099   4
   2  -2 -11 2.37889 2.48367   2
   2  -2 -11 2.98830 2.41516   1
  -2  -2  11 0.22652 2.28474   2
  -3   2  11 49.8083 4.80387   3
   3  -2  11 57.8165 4.75099   1
   3  -2  11 48.3393 4.55987   2
  -3  -2 -11 54.5128 4.93152   2
  -3  -2 -11 46.3318 4.38390   1
  -3  -2  11 49.4871 4.17227   4
   3  -2 -11 47.5584 4.42829   2
  -3  -2  11 44.6238 4.36472   3
   3  -2 -11 50.5676 4.36670   1
  -3  -2  11 47.4006 4.16104   1
  -3  -2  11 42.6774 4.20452   2
   4  -2  11 3.85927 2.84491   2
  -4   2  11 -2.7222 2.72773   3
  -4  -2 -11 2.37725 2.69194   1
   4  -2  11 0.96290 2.61418   1
  -4  -2 -11 1.26944 2.84441   2
  -4  -2  11 1.83482 2.40012   1
   4  -2 -11 0.57541 2.58412   2
  -4  -2  11 4.73927 2.67304   4
  -4  -2  11 3.27123 2.63906   2
   4  -2 -11 1.91416 2.43902   1
  -4  -2  11 6.09423 2.86360   3
  -5   2  11 1761.23 32.6967   3
   5  -2  11 1786.96 32.2261   2
  -5  -2 -11 1716.87 31.4818   1
   5  -2  11 1750.83 31.9171   1
  -5  -2 -11 1793.63 32.4729   2
  -5  -2  11 1759.16 30.8239   1
  -5  -2  11 1782.34 31.7808   2
   5  -2 -11 1790.62 31.4092   1
   5  -2 -11 1766.82 31.9850   2
  -5  -2  11 1765.83 32.2221   3
   6  -2  11 44.8329 4.94175   1
  -6  -2 -11 37.8378 4.65434   1
  -6   2  11 41.6484 4.72034   3
   6  -2  11 43.5535 5.05596   2
  -6  -2 -11 34.8302 4.65856   2
  -6  -2  11 48.5378 4.56406   1
  -6  -2  11 39.1508 4.69926   2
  -6  -2  11 50.6523 5.35433   3
   6  -2 -11 34.0127 4.36000   1
   6  -2 -11 48.2701 5.13068   2
  -7  -2 -11 373.978 12.3360   2
   7  -2  11 342.131 11.6651   1
  -7  -2 -11 335.136 11.4237   1
  -7   2  11 353.037 12.5188   3
   7  -2  11 351.015 12.0169   2
  -7  -2  11 340.198 10.6858   1
  -7  -2  11 345.986 12.1107   3
  -7  -2  11 337.982 11.4712   2
   7  -2 -11 333.650 11.0457   1
   7  -2 -11 366.802 11.9306   2
   8  -2  11 847.196 20.4045   2
  -8  -2 -11 824.392 20.3977   2
  -8  -2 -11 797.562 19.1592   1
   8  -2  11 829.896 19.7112   1
   8  -2 -11 842.050 20.0244   2
   8  -2 -11 794.768 19.0660   1
  -8  -2  11 829.089 18.6189   1
  -8  -2  11 812.412 19.5721   2
   9  -2  11 10.3028 4.34064   2
   9  -2  11 11.6957 4.27621   1
  -9  -2 -11 5.49143 4.26089   2
  -9  -2 -11 12.7738 4.11448   1
  -9  -2  11 5.50482 3.35604   1
   9  -2 -11 0.94049 3.40171   1
  -9  -2  11 7.86741 3.92463   2
  10  -2  11 17.7989 4.78155   1
 -10  -2 -11 11.5529 4.22211   1
 -10  -2  11 10.2424 4.01676   1
  10  -2 -11 8.28933 4.01760   1
 -10  -2  11 9.48558 4.47319   2
 -11  -2 -11 8.74847 4.34274   1
  11  -2  11 11.8141 4.71982   1
 -11  -2  11 0.54062 3.63409   1
  11  -2 -11 6.86441 4.13156   1
  12  -2  11 1.10182 4.39243   1
 -12  -2 -11 4.17106 4.49302   1
  12  -2 -11 0.43352 4.08216   1
 -12  -2  11 -0.8572 3.66889   1
 -13  -2 -11 721.491 20.4282   1
  13  -2  11 721.129 20.8723   1
  13  -2 -11 683.727 20.2078   1
 -13  -2  11 729.864 19.6527   1
 -14  -2 -11 -1.0442 4.45197   1
  14  -2  11 1.37507 4.48000   1
 -14  -2  11 7.90142 4.65888   1
  14  -2 -11 5.94944 5.10622   1
  15  -2  11 11.4983 5.50806   1
 -15  -2 -11 20.2958 5.92257   1
 -15  -2  11 18.8044 5.51030   1
  15  -2 -11 17.9312 5.87230   1
   0  -3  11 79.4460 4.76668   1
   0  -3 -11 70.0311 5.48688   2
   0  -3  11 80.6480 4.89311   3
   0  -3 -11 86.3863 4.94208   1
   0  -3  11 87.5431 5.42109   2
   0  -3  11 88.6814 5.84148   4
   1  -3  11 391.713 9.70716   1
  -1  -3 -11 385.361 10.9563   2
   1  -3  11 383.583 10.5986   2
  -1  -3 -11 378.275 10.0114   1
   1  -3 -11 381.944 9.95471   1
  -1  -3  11 382.751 9.37313   1
  -1  -3  11 387.517 10.5921   2
  -1  -3  11 375.660 11.0473   4
   1  -3 -11 403.571 11.0381   2
  -1  -3  11 411.630 10.1976   3
   1  -3 -11 383.654 9.88757   1
   2  -3  11 0.90992 2.50553   2
  -2  -3 -11 2.86976 2.44935   1
   2  -3  11 4.36603 2.68847   1
  -2  -3 -11 4.36930 2.75005   2
  -2  -3  11 2.03451 2.47749   3
  -2  -3  11 2.84446 2.73174   4
   2  -3 -11 5.20064 2.37684   1
   2  -3 -11 -0.1368 2.56722   2
  -2  -3  11 0.59295 2.38818   2
  -2  -3  11 2.58053 2.11937   1
  -3  -3 -11 -3.5713 2.34164   1
  -3   3  11 1.93832 2.97019   3
   3  -3  11 -0.0359 2.60884   2
  -3  -3 -11 -3.0907 2.49415   2
   3  -3  11 2.07856 2.46574   1
   3  -3 -11 0.44786 2.32621   1
  -3  -3  11 0.51401 2.19057   1
  -3  -3  11 1.18731 2.60121   3
   3  -3 -11 1.11166 2.62021   2
  -3  -3  11 0.86534 2.46979   2
  -3  -3  11 0.56480 2.63603   4
  -4  -3 -11 47.5943 4.97596   2
  -4   3  11 55.7325 5.50051   3
  -4  -3 -11 50.5734 4.49643   1
   4  -3  11 56.0501 4.77432   1
   4  -3  11 51.5265 4.93810   2
   4  -3 -11 59.8166 5.22635   2
  -4  -3  11 47.7902 4.96371   4
  -4  -3  11 56.7449 4.36431   1
  -4  -3  11 54.3909 4.94735   3
   4  -3 -11 55.5979 4.53023   1
  -4  -3  11 50.8113 4.68114   2
  -5  -3 -11 6.52562 3.37693   2
  -5   3  11 9.93259 3.53296   3
  -5  -3 -11 11.0898 3.11436   1
   5  -3  11 9.98224 3.22160   1
   5  -3  11 9.39083 3.35250   2
  -5  -3  11 10.3626 2.70165   1
   5  -3 -11 8.64383 3.28407   2
   5  -3 -11 8.99886 2.99607   1
  -5  -3  11 5.34544 3.35830   4
  -5  -3  11 7.43306 3.34169   3
  -5  -3  11 8.69618 3.16626   2
   6  -3  11 18.2551 3.95585   1
  -6  -3 -11 15.9773 3.63879   1
  -6  -3 -11 16.3782 4.02065   2
  -6   3  11 17.2199 4.01151   3
   6  -3  11 9.68216 3.83496   2
   6  -3 -11 19.1039 4.29995   2
   6  -3 -11 10.8315 3.11474   1
  -6  -3  11 18.2885 3.98157   2
  -6  -3  11 15.6244 3.08681   1
  -6  -3  11 15.8173 4.29375   4
  -6  -3  11 19.5612 4.18178   3
  -7  -3 -11 10.5634 4.01970   2
   7  -3  11 20.9949 4.56058   2
  -7  -3 -11 8.80704 3.48433   1
   7  -3  11 18.5135 4.02656   1
   7  -3 -11 13.0155 3.44421   1
  -7  -3  11 15.3923 4.09734   2
  -7  -3  11 13.7503 3.19436   1
  -7  -3  11 11.9971 4.22911   3
   7  -3 -11 11.6075 3.98459   2
   8  -3  11 22.1839 4.80707   2
  -8  -3 -11 18.3638 4.12823   1
   8  -3  11 20.4827 4.28554   1
  -8  -3 -11 21.1561 4.86338   2
   8  -3 -11 27.4462 4.93108   2
  -8  -3  11 21.9361 3.68736   1
   8  -3 -11 25.0728 4.45823   1
  -8  -3  11 20.5117 4.32503   2
  -9  -3 -11 31.8077 5.48123   2
   9  -3  11 18.7969 4.54284   1
   9  -3  11 17.7557 4.92892   2
  -9  -3 -11 16.0680 4.10258   1
   9  -3 -11 18.3554 4.77520   2
   9  -3 -11 14.9811 3.96371   1
  -9  -3  11 16.2254 4.49113   2
  -9  -3  11 23.3974 3.92927   1
  10  -3  11 -6.3851 3.99617   2
 -10  -3 -11 6.62813 4.43105   2
 -10  -3 -11 -1.1667 3.66694   1
  10  -3  11 0.92126 4.12648   1
 -10  -3  11 1.80539 3.83533   2
 -10  -3  11 5.84327 3.48834   1
  10  -3 -11 -3.2936 3.24939   1
  10  -3 -11 4.59987 4.31201   2
 -11  -3 -11 -1.8751 3.84841   1
 -11  -3 -11 3.75005 4.67827   2
 -11  -3 -11 9.98154 4.78505   2
  11  -3  11 2.35759 4.30694   1
  11  -3 -11 -1.0775 3.65827   1
 -11  -3  11 9.78238 4.73643   2
 -11  -3  11 2.18961 3.50215   1
 -12  -3 -11 269.017 11.4268   1
  12  -3  11 270.828 12.2807   1
 -12  -3  11 255.294 10.7139   1
 -12  -3  11 262.738 13.1689   2
  12  -3 -11 244.117 11.5301   1
 -13  -3 -11 177.751 10.4046   1
  13  -3  11 189.763 11.4755   1
 -13  -3  11 201.137 10.1593   1
  13  -3 -11 196.236 10.7158   1
  14  -3  11 77.5264 8.30470   1
 -14  -3 -11 85.5512 7.94856   1
  14  -3 -11 88.1326 8.22081   1
 -14  -3  11 81.5283 7.42986   1
   0  -4 -11 -0.6346 2.54748   2
   0  -4  11 1.64269 3.23967   4
   0  -4  11 2.40698 2.56760   2
   0  -4 -11 -1.6515 1.91531   1
   1  -4  11 168.692 8.67829   4
   1  -4  11 177.051 7.38435   2
  -1  -4 -11 176.568 5.49841   1
  -1  -4 -11 179.018 7.59700   2
  -1  -4  11 172.622 8.70763   4
  -1  -4  11 171.294 7.21161   2
   1  -4 -11 163.803 7.48417   2
   1  -4 -11 178.017 5.72952   1
  -2  -4 -11 444.172 12.2533   2
   2  -4  11 449.230 12.0456   2
  -2  -4 -11 445.089 9.49127   1
  -2  -4  11 440.397 11.6350   2
  -2  -4  11 463.293 13.8663   4
   2  -4 -11 454.138 12.4532   2
   2  -4 -11 442.431 9.87353   1
   3  -4  11 316.937 5.89409   1
   3  -4  11 289.296 9.98826   2
  -3  -4 -11 314.794 7.86419   1
  -3  -4 -11 327.167 10.6139   2
  -3   4  11 313.531 10.9042   3
  -3  -4  11 308.136 11.4583   4
   3  -4 -11 324.217 8.33021   1
   3  -4 -11 313.522 10.4818   2
  -3  -4  11 321.306 9.88465   2
   3  -4 -11 327.053 8.38365   1
   4  -4  11 128.776 7.33931   2
  -4  -4 -11 142.193 7.70327   2
  -4  -4 -11 137.132 5.48123   1
   4  -4  11 127.262 4.62676   1
  -4   4  11 132.947 7.87886   3
  -4  -4  11 126.936 8.03559   4
  -4  -4  11 138.384 7.04425   2
   4  -4 -11 133.005 7.45773   2
   4  -4 -11 122.432 5.73089   1
   5  -4  11 124.270 7.57557   2
   5  -4  11 119.153 5.32718   1
  -5  -4 -11 127.894 5.73075   1
  -5  -4 -11 121.469 7.69566   2
  -5   4  11 122.859 7.95289   3
   5  -4 -11 119.696 7.28082   2
   5  -4 -11 138.627 6.11849   1
  -5  -4  11 127.900 8.30993   4
  -5  -4  11 120.282 7.12177   2
  -6  -4 -11 17.1746 3.29489   1
   6  -4  11 10.9481 3.98763   2
  -6  -4 -11 21.7076 4.56368   2
   6  -4  11 21.8473 3.32062   1
   6  -4 -11 20.0775 3.48819   1
  -6  -4  11 12.5065 3.71469   2
  -6  -4  11 19.6848 4.77272   4
  -6  -4  11 21.2624 2.36272   1
   6  -4 -11 18.6069 4.27323   2
   7  -4  11 567.593 16.0793   2
   7  -4  11 545.026 13.2852   1
  -7  -4 -11 556.602 13.1456   1
  -7  -4 -11 574.683 16.2981   2
   7  -4 -11 538.176 15.7851   2
  -7  -4  11 574.454 11.2279   1
   7  -4 -11 540.438 13.3611   1
  -7  -4  11 540.649 15.2280   2
  -7  -4  11 572.058 17.3477   4
  -8  -4 -11 107.747 8.33362   2
   8  -4  11 118.157 6.98562   1
   8  -4  11 110.710 8.58705   2
  -8  -4 -11 115.455 6.60768   1
   8  -4 -11 119.358 8.53513   2
   8  -4 -11 119.038 7.01226   1
  -8  -4  11 131.404 9.37739   4
  -8  -4  11 122.197 8.13377   2
  -9  -4 -11 49.9649 5.15360   1
  -9  -4 -11 53.8108 6.79168   2
   9  -4  11 60.4133 5.79641   1
   9  -4  11 59.5164 7.00465   2
   9  -4 -11 55.4170 6.74104   2
   9  -4 -11 61.6804 5.56189   1
  -9  -4  11 62.7632 7.99601   4
  -9  -4  11 59.2474 4.53073   1
  -9  -4  11 58.1623 6.42303   2
  10  -4  11 221.564 11.8308   2
  10  -4  11 221.944 9.90648   1
 -10  -4 -11 229.683 9.43094   1
 -10  -4 -11 238.686 12.1382   2
 -10  -4  11 228.460 8.14280   1
  10  -4 -11 247.407 10.0138   1
  10  -4 -11 245.966 12.0405   2
 -10  -4  11 238.348 11.3447   2
 -11  -4 -11 50.5537 7.12152   2
 -11  -4 -11 64.0212 7.59687   2
  11  -4  11 47.8545 5.86515   1
  11  -4  11 55.2472 7.57130   2
 -11  -4 -11 55.7795 5.57359   1
 -11  -4  11 55.4944 4.98562   1
 -11  -4  11 61.5018 7.22103   2
  11  -4 -11 58.4958 7.75622   2
  11  -4 -11 53.4952 5.96961   1
 -12  -4 -11 8.41181 5.09894   2
 -12  -4 -11 5.28454 4.05299   1
  12  -4  11 1.95233 5.26291   2
  12  -4  11 -1.3957 4.17340   1
 -12  -4 -11 0.41109 4.85485   2
 -12  -4  11 3.75722 3.53379   1
  12  -4 -11 2.70366 4.03332   1
 -12  -4  11 6.08815 5.11441   2
  13  -4  11 46.6287 6.20952   1
 -13  -4 -11 24.8978 5.05069   1
 -13  -4  11 36.3834 4.88950   1
  13  -4 -11 21.6033 5.08879   1
 -13  -4  11 49.6001 7.74814   2
   0  -5  11 57.9329 4.89413   2
   0  -5 -11 52.5568 5.06513   2
   0  -5  11 60.2948 7.10580   4
   1  -5  11 215.487 10.8871   4
  -1  -5 -11 220.954 8.83591   2
   1  -5  11 215.466 8.35712   2
   1  -5 -11 223.067 8.83435   2
  -1  -5  11 230.495 8.40636   2
  -1  -5  11 206.533 10.6566   4
   2  -5  11 5.69290 3.03180   2
  -2  -5 -11 -1.7614 2.83913   2
   2  -5 -11 4.79976 3.16650   2
  -2  -5  11 1.71831 2.62840   2
  -2  -5  11 -4.5630 3.64768   4
  -3  -5 -11 -1.9802 2.99270   2
   3  -5  11 -3.8394 2.78210   2
  -3  -5  11 3.98303 2.83323   2
  -3  -5  11 3.31325 4.12913   4
   3  -5 -11 3.72842 3.30946   2
  -4  -5 -11 24.6470 4.47253   2
   4  -5  11 31.3581 4.50249   2
  -4  -5  11 23.8971 5.12562   4
  -4  -5  11 26.6346 4.10372   2
   4  -5 -11 29.5679 4.63249   2
   5  -5  11 -2.8377 3.18133   2
  -5  -5 -11 7.52244 3.77517   2
   5  -5 -11 4.58728 3.60621   2
  -5  -5  11 3.57962 3.09449   2
  -5  -5  11 4.65782 4.60069   4
   6  -5  11 16.0821 4.58366   2
  -6  -5 -11 19.3692 4.54158   2
  -6  -5  11 19.2691 3.99346   2
  -6  -5  11 25.4911 5.77225   4
   6  -5 -11 25.5721 4.92060   2
   7  -5  11 4.32815 4.14370   2
  -7  -5 -11 5.72158 4.05515   2
  -7  -5  11 7.64456 3.70975   2
   7  -5 -11 4.87152 4.03035   2
  -7  -5  11 10.9425 5.23328   4
  -8  -5 -11 12.7518 4.67868   2
   8  -5  11 10.9075 4.71588   2
   8  -5 -11 12.2393 4.74348   2
  -8  -5  11 19.4171 6.04325   4
  -8  -5  11 19.6874 4.57609   2
   9  -5  11 -0.2465 3.97112   2
  -9  -5 -11 0.43143 4.17012   2
  -9  -5  11 5.71793 4.13506   2
   9  -5 -11 5.28861 3.16838   1
   9  -5 -11 3.55859 4.28589   2
  -9  -5  11 19.0192 5.83316   4
  10  -5  11 12.8369 5.13448   2
 -10  -5 -11 0.96444 4.62641   2
 -10  -5  11 2.35697 5.35880   4
  10  -5 -11 6.06470 3.48412   1
  10  -5 -11 3.02762 4.60186   2
 -10  -5  11 3.50052 4.16152   2
 -11  -5 -11 3.92352 5.00843   2
  11  -5  11 -4.4233 4.44992   2
 -11  -5 -11 3.13857 4.72881   2
 -11  -5  11 10.7529 4.60013   2
  11  -5 -11 5.69380 4.75728   2
 -11  -5  11 -3.0084 5.23012   4
  11  -5 -11 0.60353 3.53820   1
 -12  -5 -11 164.271 11.9268   2
 -12  -5 -11 158.037 11.8563   2
  12  -5  11 173.982 12.2791   2
 -12  -5  11 175.628 12.8990   4
  12  -5 -11 177.076 9.05192   1
  12  -5 -11 197.357 12.3375   2
 -12  -5  11 191.742 11.4668   2
   0  -6  11 -1.8708 2.78124   2
   0  -6 -11 4.42042 3.31729   2
   0  -6  11 -4.3572 4.38824   4
  -1  -6 -11 39.4731 4.87052   2
   1  -6  11 50.1141 4.94338   2
   1  -6 -11 51.4501 5.29938   2
  -1  -6  11 46.4594 4.65529   2
  -1  -6  11 49.6675 7.15512   4
   2  -6  11 -0.2828 3.08573   2
  -2  -6 -11 4.04848 3.20987   2
  -2  -6  11 1.72809 3.00975   2
   2  -6 -11 -4.5327 2.96686   2
  -2  -6  11 5.04753 4.84606   4
  -3  -6 -11 22.0083 4.20815   2
   3  -6  11 16.8955 3.99456   2
   3  -6 -11 26.9498 4.45375   2
  -3  -6  11 17.4704 5.99597   4
  -3  -6  11 17.8402 3.61706   2
  -4  -6 -11 4.65798 3.68648   2
   4  -6  11 2.27903 3.54705   2
  -4  -6  11 0.85057 4.88963   4
  -4  -6  11 5.74094 3.29874   2
   4  -6 -11 2.70618 3.62982   2
   5  -6  11 745.456 18.7090   2
  -5  -6 -11 761.722 19.0119   2
   5  -6 -11 783.049 19.2563   2
  -5  -6  11 767.532 22.6859   4
  -5  -6  11 751.377 17.9638   2
   6  -6  11 23.9094 4.87089   2
  -6  -6 -11 20.0060 4.72771   2
  -6  -6  11 18.5222 4.21069   2
   6  -6 -11 22.6249 4.90451   2
  -6  -6  11 21.2748 6.20751   4
  -7  -6 -11 191.152 10.4020   2
   7  -6  11 191.182 10.3259   2
  -7  -6  11 191.235 12.3368   4
  -7  -6  11 173.438 9.07060   2
   7  -6 -11 166.428 10.0316   2
   8  -6  11 366.244 14.2226   2
  -8  -6 -11 405.770 14.6874   2
  -8  -6  11 384.367 13.4860   2
   8  -6 -11 401.319 14.6676   2
  -8  -6  11 416.546 17.2639   4
  -9  -6 -11 10.5550 4.82114   2
   9  -6  11 -2.6360 4.09160   2
  -9  -6  11 12.2380 4.47968   2
  -9  -6  11 2.36776 5.54555   4
   9  -6 -11 5.60519 4.62847   2
  10  -6  11 0.96495 4.85510   2
 -10  -6 -11 -4.8101 4.25933   2
 -10  -6  11 13.6887 6.57326   4
  10  -6 -11 2.32474 4.64181   2
 -10  -6  11 1.20379 4.15155   2
   0  -7 -11 38.7117 4.99654   2
   0  -7  11 35.8069 7.67682   4
   0  -7  11 39.0026 4.79202   2
  -1  -7 -11 172.404 8.83745   2
   1  -7  11 178.451 8.39305   2
  -1  -7  11 182.623 8.15146   2
   1  -7 -11 186.185 9.14706   2
  -1  -7  11 172.416 12.3406   4
  -2  -7 -11 -3.1738 3.18536   2
   2  -7  11 5.79120 3.61130   2
  -2  -7  11 7.49977 3.40044   2
   2  -7 -11 -2.0169 3.48406   2
  -2  -7  11 1.06949 5.25646   4
   3  -7  11 0.19268 3.41434   2
  -3  -7 -11 5.53480 3.66882   2
   3  -7 -11 3.55532 3.69086   2
  -3  -7  11 2.27133 5.16299   4
  -3  -7  11 0.24538 3.12060   2
  -4  -7 -11 30.8253 5.29999   2
   4  -7  11 22.2976 4.80258   2
   4  -7 -11 30.6308 4.99426   2
  -4  -7  11 25.9872 4.31381   2
  -4  -7  11 27.6402 7.11284   4
  -5  -7 -11 -0.4193 3.91089   2
   5  -7  11 -2.7375 3.65748   2
  -5  -7  11 3.58668 3.50760   2
   5  -7 -11 3.90856 4.08983   2
  -5  -7  11 9.50206 5.90598   4
  -6  -7 -11 5.23588 4.20674   2
   6  -7  11 4.33750 4.19637   2
  -6  -7  11 -7.3292 5.19938   4
  -6  -7  11 4.76502 3.81357   2
   6  -7 -11 0.86387 4.06535   2
  -7  -7 -11 8.51047 4.55851   2
   7  -7  11 4.47124 4.45090   2
  -7  -7  11 6.44657 3.88361   2
  -7  -7  11 1.49599 5.74466   4
   7  -7 -11 0.47975 4.07189   2
   0   0  12 611.700 14.3939   1
   0   0  12 629.101 14.4865   2
   0   0 -12 614.685 14.3500   1
   0   0 -12 628.447 14.5354   2
   1   0 -12 1619.85 29.0658   1
   1   0 -12 1632.45 29.1397   2
  -1   0  12 1634.32 29.0606   1
   1   0  12 1627.61 29.0880   2
  -1   0 -12 1632.26 29.2314   1
  -1   0  12 1622.21 29.1070   2
   1   0  12 1627.72 29.3171   1
  -1   0 -12 1642.58 29.1526   2
   2   0  12 121.996 6.48864   2
   2   0 -12 121.848 6.45785   2
   2   0 -12 129.251 6.44754   1
  -2   0  12 123.498 6.33422   1
  -2   0  12 118.727 6.51540   3
  -2   0 -12 131.821 6.59215   1
   2   0  12 115.477 6.46953   1
  -3   0 -12 200.832 8.29359   2
  -3   0  12 208.069 8.33998   3
  -3   0 -12 205.049 8.26914   1
   3   0 -12 202.928 7.88165   1
  -3   0  12 212.739 8.15869   2
  -3   0  12 195.525 7.83878   1
  -3   0 -12 197.887 8.14120   1
   3   0  12 220.594 8.34935   2
   3   0  12 222.361 8.41050   1
   4   0 -12 288.465 9.61556   1
  -4   0 -12 294.263 9.90590   1
  -4   0  12 292.031 10.0433   3
  -4   0  12 293.920 9.63945   1
   4   0  12 282.454 9.90875   1
   4   0  12 274.305 9.83766   2
  -4   0  12 305.454 9.90368   2
   5   0  12 57.6789 5.55493   1
  -5   0  12 64.1142 5.45096   2
  -5   0  12 61.9822 5.62218   3
  -5   0  12 58.3645 5.20576   1
   5   0 -12 66.0071 5.58880   1
  -5   0 -12 56.4604 5.37617   1
  -6   0  12 15.6210 3.84833   1
  -6   0 -12 5.33520 3.36892   1
   6   0  12 10.5871 3.75089   1
  -6   0  12 12.0052 3.57014   3
   6   0 -12 12.3614 3.45000   1
   7   0 -12 442.720 13.3073   1
  -7   0  12 421.594 12.9259   1
   7   0  12 450.836 13.7792   1
  -7   0 -12 446.779 13.7115   1
  -8   0 -12 720.874 18.6861   1
   8   0  12 708.354 18.6893   1
  -8   0  12 717.353 18.0472   1
   8   0 -12 743.128 18.2807   1
   9   0 -12 1053.21 23.6731   1
  -9   0  12 1025.52 23.2607   1
  -9   0 -12 1033.93 24.0104   1
   9   0  12 1037.00 24.2859   1
  10   0 -12 22.8920 5.04989   1
 -10   0  12 13.2380 4.62349   1
 -10   0 -12 20.6128 5.21704   1
  10   0  12 14.6483 4.73897   1
  11   0 -12 43.1376 6.24705   1
  11   0  12 30.3894 6.12453   1
 -11   0  12 39.3031 6.29199   1
 -11   0 -12 46.9822 6.70134   1
  12   0 -12 166.845 10.4761   1
 -12   0  12 146.038 10.0952   1
  12   0  12 154.118 10.6831   1
 -12   0 -12 160.033 10.6949   1
 -13   0 -12 2.63697 4.68609   1
  13   0  12 4.25370 4.97299   1
 -13   0  12 4.11588 4.96072   1
  13   0 -12 -4.7890 4.03422   1
  14   0 -12 142.633 10.9693   1
 -14   0  12 152.648 11.4714   1
  14   0  12 160.712 11.8771   1
 -14   0 -12 144.799 11.3585   1
 -15   0  12 38.7537 7.15901   1
  15   0  12 22.0069 6.58638   1
 -15   0 -12 47.6559 7.84223   1
   0  -1 -12 -6.4274 2.20758   2
   0  -1 -12 -4.0319 2.24271   1
   0   1  12 -2.9818 2.35161   1
   0  -1  12 -0.9067 2.35681   2
   0  -1  12 -5.5595 2.26283   1
   0   1 -12 -0.6483 2.47181   1
  -1  -1 -12 174.104 7.48684   2
   1  -1  12 169.268 7.31021   1
   1   1 -12 183.032 7.39048   1
  -1  -1 -12 185.540 7.41204   1
  -1   1  12 164.933 7.26040   1
   1  -1  12 189.145 7.50258   2
  -1  -1  12 180.404 7.35247   2
  -1   1 -12 184.792 7.47792   1
  -1  -1  12 174.917 7.20528   3
  -1  -1  12 186.676 7.45722   1
   1  -1 -12 184.207 7.53577   2
   1  -1 -12 192.635 7.46614   1
   1   1  12 182.802 7.60512   1
   2  -1  12 631.560 14.8901   1
   2   1 -12 655.199 14.8390   1
  -2  -1 -12 627.805 14.8997   1
  -2  -1 -12 639.841 14.9343   1
   2  -1  12 661.946 15.0755   2
  -2  -1 -12 666.123 15.1677   2
  -2   1  12 630.207 14.7511   1
   2  -1 -12 629.652 14.7488   1
  -2  -1  12 658.687 15.0915   3
   2   1  12 610.378 14.9864   1
  -2  -1  12 639.133 14.6621   1
  -2  -1  12 644.130 14.8757   2
   2  -1 -12 658.160 15.0159   2
  -2   1 -12 622.639 14.8351   1
   3  -1  12 18.9859 3.59863   2
  -3  -1 -12 16.6679 3.56908   2
   3   1 -12 11.2225 3.06869   1
  -3   1  12 10.5160 3.10031   1
  -3   1  12 15.1705 3.41375   3
   3  -1  12 18.4734 3.59453   1
  -3  -1 -12 20.7661 3.54409   1
   3  -1 -12 17.8316 3.37566   1
  -3  -1  12 17.2485 3.39880   1
   3   1  12 11.2469 3.35600   1
  -3  -1  12 13.5305 3.30390   2
  -3  -1  12 18.2974 3.35108   3
   3  -1 -12 13.5738 3.26982   2
  -3   1 -12 12.0746 3.30166   1
   4   1 -12 956.409 20.1854   1
   4  -1  12 964.675 20.4847   2
   4  -1  12 970.019 20.5307   1
  -4  -1 -12 973.610 20.6502   2
  -4  -1 -12 995.272 20.5900   1
  -4   1  12 997.849 20.2638   1
  -4   1  12 1007.02 21.1537   3
   4  -1 -12 977.977 20.1172   1
  -4  -1  12 956.555 19.9121   1
  -4  -1  12 965.605 20.5013   3
   4  -1 -12 993.142 20.4879   2
  -4   1 -12 980.587 20.7907   1
  -4   1 -12 965.459 20.6231   1
  -4  -1  12 943.693 20.0487   2
   4   1  12 970.140 20.6300   1
   5   1 -12 52.0590 5.12819   1
   5  -1  12 55.8247 5.41340   1
  -5   1  12 42.6813 4.71800   3
   5  -1  12 59.9225 5.49599   2
  -5   1  12 48.7453 5.08384   1
  -5  -1 -12 56.2948 5.32628   1
  -5  -1 -12 56.9609 5.54851   2
   5   1  12 53.7614 5.50792   1
  -5  -1  12 46.9600 5.01832   3
   5  -1 -12 52.0723 5.16808   1
  -5  -1  12 49.1815 5.02036   2
  -5   1 -12 51.3519 5.23109   1
   5  -1 -12 52.8343 5.08230   2
  -5  -1  12 47.0059 4.73379   1
   6  -1  12 48.5285 5.51856   2
  -6   1  12 49.3262 5.08770   1
   6  -1  12 46.3119 5.26194   1
   6   1 -12 39.1390 4.74130   1
  -6  -1 -12 42.4035 5.06702   1
  -6   1  12 47.2956 5.33572   3
  -6  -1 -12 45.4657 5.25038   2
  -6  -1  12 37.4692 4.54451   1
  -6  -1  12 62.7154 5.68083   2
   6  -1 -12 50.8278 5.02941   1
  -6   1 -12 56.4834 5.66852   1
  -6  -1  12 61.0516 5.85690   3
   6   1  12 48.2622 5.39926   1
  -7   1  12 53.3226 5.73797   1
   7  -1  12 55.3080 6.06751   1
   7  -1  12 52.2056 5.88709   2
  -7  -1 -12 52.6689 5.69501   1
  -7  -1  12 60.2222 5.61548   1
   7  -1 -12 50.2051 5.43804   1
   7   1  12 47.8240 5.94641   1
  -7   1 -12 51.5640 5.69759   1
  -7  -1  12 59.7916 5.89868   2
  -8  -1 -12 39.9449 5.42021   1
  -8   1  12 48.7093 5.75001   1
   8  -1  12 43.5864 5.61014   1
  -8  -1  12 38.6202 5.02697   1
  -8   1 -12 51.0596 6.02757   1
   8   1  12 62.6048 6.43048   1
   8  -1 -12 42.2162 5.32902   1
  -8  -1  12 48.0626 5.79094   2
  -9   1  12 166.835 9.36338   1
  -9  -1 -12 174.125 9.52057   1
   9  -1  12 153.940 9.42128   1
  -9   1 -12 162.577 9.64626   1
   9  -1 -12 174.439 9.24610   1
  -9  -1  12 161.174 8.91638   1
   9   1  12 173.136 9.99159   1
  10  -1  12 25.8188 5.49548   1
 -10   1  12 10.4167 4.53044   1
 -10  -1 -12 15.7367 4.89974   1
 -10  -1  12 17.9714 4.53112   1
  10  -1 -12 14.3955 4.48605   1
 -10   1 -12 15.7324 5.14545   1
  11  -1  12 3.32873 4.41521   1
 -11  -1 -12 0.52502 4.11714   1
 -11   1  12 5.53764 4.45213   1
 -11  -1  12 -0.3316 3.88735   1
  11  -1 -12 -0.5987 3.84436   1
 -12  -1 -12 5.47203 4.59790   1
 -12   1  12 3.98879 4.63268   1
  12  -1  12 5.63525 4.88037   1
  12  -1 -12 11.5710 4.82829   1
 -12  -1  12 5.80020 4.53444   1
 -13  -1 -12 25.6563 6.01277   1
  13  -1  12 22.7068 5.91257   1
 -13   1  12 19.6655 5.92059   1
 -13  -1  12 24.2033 5.58086   1
  13  -1 -12 17.2768 5.50304   1
 -14  -1 -12 49.6538 7.58949   1
 -14   1  12 45.3136 7.45969   1
  14  -1  12 47.6917 7.27608   1
  14  -1 -12 44.1878 7.18801   1
 -14  -1  12 59.9082 7.45522   1
 -15   1  12 -0.6184 4.93560   1
 -15  -1 -12 10.3486 5.87520   1
  15  -1  12 -6.8221 4.78287   1
 -15  -1  12 12.8227 5.18570   1
  15  -1 -12 4.21581 5.26916   1
   0  -2  12 1643.54 28.8039   3
   0  -2  12 1665.20 28.9037   4
   0  -2 -12 1618.70 29.0094   1
   0  -2  12 1672.20 29.3889   2
   0  -2  12 1599.95 28.4772   1
   0  -2 -12 1646.05 29.5390   2
   1  -2  12 165.872 6.85105   1
  -1  -2 -12 161.939 7.33255   2
  -1  -2 -12 147.018 6.82993   1
   1  -2  12 163.189 7.25841   2
  -1  -2 -12 158.961 6.92612   1
  -1  -2  12 158.417 6.14612   4
  -1  -2  12 161.110 6.96995   3
  -1  -2  12 165.266 7.16129   2
  -1  -2  12 169.060 6.83569   1
   1  -2 -12 167.452 7.28986   2
   1  -2 -12 166.647 6.95431   1
  -2  -2 -12 25.3740 3.73091   2
   2  -2  12 28.3197 3.86183   1
  -2  -2 -12 28.6747 3.73712   1
   2  -2  12 26.2070 3.74278   2
  -2  -2  12 28.3118 3.83408   2
  -2  -2  12 27.2969 3.66075   3
   2  -2 -12 23.9162 3.80064   2
  -2  -2  12 30.1563 3.68072   1
   2  -2 -12 34.5677 3.99134   1
  -2  -2  12 31.1116 3.41916   4
   3  -2  12 22.2494 3.78798   2
  -3  -2 -12 20.6111 3.77291   2
   3  -2  12 25.8728 3.82847   1
  -3  -2 -12 20.9119 3.61108   1
  -3   2  12 23.9894 4.02328   3
  -3  -2  12 21.8332 3.27477   4
   3  -2 -12 21.3140 3.54164   1
  -3  -2  12 22.2556 3.41004   1
  -3  -2  12 18.9206 3.54057   3
  -3  -2  12 21.1908 3.51206   2
   3  -2 -12 24.5372 3.77007   2
  -4  -2 -12 390.078 11.9361   2
  -4   2  12 376.633 12.0267   3
   4  -2  12 399.416 11.8728   2
   4  -2  12 402.504 11.5945   1
  -4  -2 -12 388.626 11.4634   1
  -4  -2  12 418.302 11.7057   2
  -4  -2  12 395.698 10.6446   4
   4  -2 -12 389.928 11.2637   1
  -4  -2  12 404.083 11.7984   3
   4  -2 -12 372.480 11.6062   2
  -4  -2  12 384.290 10.7070   1
   5  -2  12 25.3141 4.21336   1
   5  -2  12 17.9192 4.07032   2
  -5  -2 -12 28.1483 4.22637   1
  -5  -2 -12 18.5399 3.98414   2
  -5   2  12 24.3020 4.34023   3
   5  -2 -12 23.4966 4.08201   2
  -5  -2  12 23.5384 4.12255   2
  -5  -2  12 32.2385 4.52343   3
   5  -2 -12 26.7061 4.00216   1
  -5  -2  12 29.5174 4.14351   4
  -5  -2  12 24.1909 3.73513   1
  -6  -2 -12 31.3768 4.71144   2
  -6   2  12 25.5916 4.65966   3
   6  -2  12 24.7219 4.34155   1
  -6  -2 -12 18.8604 4.02820   1
   6  -2  12 30.2927 4.84049   2
  -6  -2  12 20.7787 3.67824   1
  -6  -2  12 31.7253 4.67686   3
  -6  -2  12 19.8243 3.91965   2
   6  -2 -12 22.9710 4.09640   1
   6  -2 -12 29.1836 4.40677   2
   7  -2  12 24.2362 4.80824   2
  -7  -2 -12 11.6718 4.22121   2
   7  -2  12 21.8177 4.36435   1
  -7  -2 -12 9.09046 3.59222   1
  -7  -2  12 14.3429 4.06015   2
   7  -2 -12 11.6866 3.64120   1
   7  -2 -12 17.7409 4.16966   2
  -7  -2  12 15.1444 3.76078   1
   8  -2  12 796.682 20.4201   2
  -8  -2 -12 819.061 20.6049   2
   8  -2  12 792.227 19.7929   1
  -8  -2 -12 786.514 19.4386   1
  -8  -2  12 828.622 20.0778   2
   8  -2 -12 844.070 19.5111   1
  -8  -2  12 818.459 18.7912   1
   8  -2 -12 830.883 22.0417   2
  -9  -2 -12 498.461 15.0551   1
   9  -2  12 471.016 15.1052   1
  -9  -2 -12 502.372 16.1454   2
   9  -2 -12 490.265 14.7393   1
  -9  -2  12 493.974 14.2342   1
  -9  -2  12 490.928 15.3279   2
  10  -2  12 152.809 9.65420   1
 -10  -2 -12 155.470 9.40532   1
 -10  -2  12 142.866 8.52242   1
  10  -2 -12 152.361 9.07045   1
 -10  -2  12 154.290 9.71018   2
 -11  -2 -12 7.81049 4.51019   1
  11  -2  12 10.9945 4.84825   1
 -11  -2  12 16.7830 4.49150   1
  11  -2 -12 16.0558 4.63981   1
  12  -2  12 41.0709 6.42003   1
 -12  -2 -12 48.4412 6.65398   1
 -12  -2  12 32.0245 5.64102   1
  12  -2 -12 38.8062 6.14685   1
 -13  -2 -12 3.07281 4.69015   1
  13  -2  12 12.7366 5.11630   1
  13  -2 -12 -1.8649 4.28125   1
 -13  -2  12 2.05953 4.28138   1
  14  -2  12 49.2814 7.35558   1
 -14  -2 -12 48.1666 7.18348   1
  14  -2 -12 45.4561 7.13164   1
 -14  -2  12 55.1227 7.01986   1
  15  -2  12 78.6760 8.75829   1
 -15  -2 -12 72.0374 8.11779   1
 -15  -2  12 77.8367 8.38680   1
  15  -2 -12 72.2038 8.58493   1
   0  -3  12 0.03582 2.43430   2
   0  -3  12 3.68187 2.85457   4
   0  -3 -12 -1.7613 2.29161   1
   0  -3 -12 -2.9791 2.49785   2
   0  -3  12 1.47976 2.41028   1
   1  -3  12 142.590 7.10114   2
  -1  -3 -12 148.242 7.30263   2
  -1  -3 -12 132.953 6.35553   1
   1  -3  12 147.992 6.43824   1
   1  -3 -12 153.207 6.56644   1
  -1  -3  12 150.984 7.14890   4
  -1  -3  12 142.893 6.09026   1
   1  -3 -12 150.238 6.48660   1
   1  -3 -12 152.682 7.28902   2
  -1  -3  12 144.958 6.95744   2
  -2  -3 -12 544.423 12.8980   1
  -2  -3 -12 537.147 13.8977   2
   2  -3  12 532.822 12.6570   1
   2  -3  12 536.483 13.6883   2
   2  -3 -12 531.766 12.7009   1
  -2  -3  12 527.196 13.7796   4
   2  -3 -12 543.961 13.9013   2
  -2  -3  12 544.506 13.1937   3
  -2  -3  12 545.336 13.4592   2
  -2  -3  12 537.032 12.1216   1
   3  -3  12 8.29043 3.23619   2
  -3   3  12 6.23451 3.26379   3
  -3  -3 -12 9.04084 3.13671   1
   3  -3  12 9.64467 3.06460   1
  -3  -3 -12 7.13590 3.20635   2
   3  -3 -12 11.3617 3.12995   1
   3  -3 -12 9.46378 3.28884   2
  -3  -3  12 14.1899 2.84635   1
  -3  -3  12 4.17506 2.82771   2
  -3  -3  12 12.6574 3.17169   3
  -3  -3  12 13.0964 3.46199   4
  -4  -3 -12 778.311 17.0169   1
  -4  -3 -12 779.942 18.3402   2
   4  -3  12 815.494 18.3998   2
   4  -3  12 790.441 17.0454   1
  -4   3  12 754.178 18.5944   3
   4  -3 -12 772.430 16.7895   1
  -4  -3  12 799.131 16.0034   1
  -4  -3  12 811.452 18.0240   3
  -4  -3  12 771.098 17.7136   2
  -4  -3  12 786.245 18.0836   4
   4  -3 -12 799.657 18.3039   2
  -5  -3 -12 27.5201 4.03391   1
  -5   3  12 32.3905 4.80107   3
  -5  -3 -12 26.0482 4.54062   2
   5  -3  12 30.0793 4.59498   2
   5  -3  12 20.8917 4.02354   1
   5  -3 -12 33.4459 4.20684   1
  -5  -3  12 30.3603 3.71814   1
  -5  -3  12 24.7147 4.06076   2
  -5  -3  12 24.3944 4.35552   3
  -5  -3  12 28.7667 4.53768   4
   5  -3 -12 21.1220 4.19344   2
   6  -3  12 46.0764 5.02042   1
   6  -3  12 44.2885 5.40540   2
  -6  -3 -12 45.8398 5.00598   1
  -6  -3 -12 44.8143 5.44853   2
   6  -3 -12 36.3900 4.95727   2
  -6  -3  12 55.0523 5.83507   3
  -6  -3  12 48.2395 4.44606   1
  -6  -3  12 46.2767 5.19111   2
  -6  -3  12 57.4762 6.01184   4
   6  -3 -12 43.4280 4.70398   1
  -7  -3 -12 42.7141 5.01325   1
  -7  -3 -12 39.4155 5.61829   2
   7  -3  12 41.9416 5.31779   1
   7  -3  12 43.6690 5.69726   2
  -7  -3  12 49.6525 6.01245   4
  -7  -3  12 44.3498 4.42234   1
   7  -3 -12 37.3823 4.60694   1
   7  -3 -12 42.7313 5.63744   2
  -7  -3  12 46.8952 5.69112   2
  -8  -3 -12 37.8111 5.02022   1
   8  -3  12 37.9777 5.81981   2
   8  -3  12 42.0419 5.47782   1
  -8  -3 -12 49.0972 6.23334   2
   8  -3 -12 42.7964 5.98729   2
  -8  -3  12 46.0346 4.80274   1
  -8  -3  12 39.1382 5.45437   2
   8  -3 -12 36.5485 4.88143   1
   9  -3  12 130.258 8.57822   1
  -9  -3 -12 128.964 9.29380   2
  -9  -3 -12 111.654 7.96692   1
   9  -3  12 145.146 9.67914   2
  -9  -3  12 129.534 8.87930   2
   9  -3 -12 115.909 9.00584   2
  -9  -3  12 124.156 7.15523   1
   9  -3 -12 108.380 7.67353   1
 -10  -3 -12 11.7133 4.88617   2
 -10  -3 -12 15.1990 4.53361   1
  10  -3  12 9.46002 4.95134   2
  10  -3  12 18.6556 4.85730   1
 -10  -3  12 20.9606 5.19366   2
  10  -3 -12 13.9780 4.25883   1
 -10  -3  12 21.1957 4.28274   1
 -11  -3 -12 1.54443 3.87135   1
  11  -3  12 -8.1829 3.88212   1
 -11  -3  12 7.41151 4.63109   2
  11  -3 -12 0.53708 3.69694   1
 -11  -3  12 -2.7059 3.44012   1
 -12  -3 -12 -4.9039 4.04294   1
  12  -3  12 5.26708 4.47260   1
  12  -3 -12 2.60634 3.99716   1
 -12  -3  12 4.43979 4.03633   1
  13  -3  12 8.74511 4.94341   1
 -13  -3 -12 14.2643 4.94679   1
 -13  -3  12 15.4535 4.69009   1
  13  -3 -12 7.19316 4.56085   1
 -14  -3 -12 38.1493 6.16972   1
  14  -3  12 46.3909 7.16021   1
  14  -3 -12 23.1036 5.82301   1
 -14  -3  12 46.9300 5.99117   1
   0  -4  12 408.326 13.0861   4
   0  -4  12 408.677 11.5292   2
   0  -4 -12 403.873 12.0541   2
   0  -4 -12 410.922 9.73281   1
  -1  -4 -12 941.267 20.4289   2
  -1  -4 -12 991.940 17.6920   1
   1  -4  12 943.242 20.0476   2
   1  -4 -12 967.044 20.5697   2
   1  -4 -12 1010.30 17.9012   1
  -1  -4  12 965.809 22.0482   4
  -1  -4  12 931.766 19.8431   2
  -2  -4 -12 72.8801 4.83840   1
  -2  -4 -12 74.3488 5.94675   2
   2  -4  12 74.7721 3.10049   1
   2  -4  12 73.3381 5.94878   2
  -2  -4  12 76.1316 5.83044   2
   2  -4 -12 77.0113 4.84062   1
   2  -4 -12 80.6283 6.37625   2
  -2  -4  12 80.1410 6.69524   4
  -3  -4 -12 116.820 5.62196   1
   3  -4  12 134.489 7.47135   2
  -3  -4 -12 112.702 7.32184   2
  -3   4  12 124.265 7.93643   3
   3  -4  12 122.689 4.53120   1
  -3  -4  12 116.954 7.65459   4
   3  -4 -12 117.417 5.74361   1
   3  -4 -12 126.050 5.92296   1
   3  -4 -12 116.371 7.39008   2
  -3  -4  12 119.288 6.84438   2
  -4  -4 -12 189.215 7.04699   1
   4  -4  12 186.290 6.34280   1
   4  -4  12 208.598 9.04374   2
  -4  -4 -12 203.332 9.23637   2
   4  -4 -12 186.499 9.02698   2
  -4  -4  12 202.704 8.68417   2
   4  -4 -12 202.817 7.34332   1
  -4  -4  12 213.459 9.76649   4
   5  -4  12 40.0594 3.88625   1
  -5  -4 -12 38.5392 5.23052   2
   5  -4  12 32.8456 4.90920   2
  -5  -4 -12 35.2226 3.92684   1
  -5  -4  12 39.8846 2.87836   1
   5  -4 -12 35.0729 5.07933   2
  -5  -4  12 35.8800 5.49847   4
  -5  -4  12 39.1041 4.84879   2
   5  -4 -12 37.5629 4.07460   1
  -6  -4 -12 6.82121 3.16420   1
   6  -4  12 11.4778 4.20577   2
  -6  -4 -12 11.7212 4.14750   2
   6  -4  12 11.8332 3.31265   1
   6  -4 -12 5.62227 3.73882   2
  -6  -4  12 -3.8199 2.92629   2
  -6  -4  12 7.09139 2.32179   1
  -6  -4  12 9.64458 4.25377   4
   6  -4 -12 8.45113 3.15525   1
   7  -4  12 277.186 9.47218   1
  -7  -4 -12 263.561 11.6612   2
  -7  -4 -12 275.570 9.37128   1
   7  -4  12 268.866 11.6679   2
   7  -4 -12 289.771 11.7738   2
  -7  -4  12 276.880 10.9967   2
  -7  -4  12 278.447 7.72478   1
   7  -4 -12 283.596 9.58291   1
  -7  -4  12 303.868 12.6175   4
  -8  -4 -12 474.780 15.8328   2
   8  -4  12 491.726 13.3037   1
   8  -4  12 469.767 15.7697   2
  -8  -4 -12 491.888 13.1635   1
  -8  -4  12 516.300 15.4296   2
   8  -4 -12 507.118 15.9813   2
   8  -4 -12 487.059 13.3452   1
  -8  -4  12 530.678 17.1102   4
  -8  -4  12 496.316 11.4355   1
   9  -4  12 669.963 19.3598   2
   9  -4  12 674.620 16.9359   1
  -9  -4 -12 698.004 19.7067   2
  -9  -4 -12 697.584 16.2710   1
   9  -4 -12 682.688 19.4814   2
   9  -4 -12 678.160 16.7825   1
  -9  -4  12 662.813 20.2254   4
  -9  -4  12 685.901 14.5485   1
  -9  -4  12 661.568 18.6616   2
  10  -4  12 20.7975 4.75334   1
  10  -4  12 17.0275 5.32541   2
 -10  -4 -12 26.1163 4.58913   1
 -10  -4 -12 9.40730 5.11752   2
  10  -4 -12 14.3622 4.28540   1
 -10  -4  12 23.7876 5.57149   2
  10  -4 -12 19.2495 5.47595   2
 -10  -4  12 13.0877 3.59355   1
  11  -4  12 22.9502 5.05852   1
  11  -4  12 32.5117 6.50865   2
 -11  -4 -12 26.2969 6.43728   2
 -11  -4 -12 26.8198 4.88023   1
  11  -4 -12 18.6164 4.59320   1
 -11  -4  12 35.3160 6.17236   2
 -11  -4  12 30.6311 4.40460   1
 -12  -4 -12 122.338 10.4636   2
  12  -4  12 140.517 9.36358   1
 -12  -4 -12 114.796 8.23550   1
 -12  -4 -12 116.219 10.1494   2
 -12  -4  12 126.969 7.52448   1
  12  -4 -12 105.656 8.38981   1
 -12  -4  12 115.079 9.83138   2
  13  -4  12 -1.5284 4.36030   1
 -13  -4 -12 -1.0406 3.90341   1
  13  -4 -12 1.55022 4.21446   1
 -13  -4  12 -2.7545 3.50654   1
 -13  -4  12 -0.1303 5.12352   2
   0  -5  12 0.56075 2.77400   2
   0  -5 -12 0.04261 3.13053   2
   0  -5  12 1.80731 4.19821   4
   1  -5  12 87.8922 6.34305   2
  -1  -5 -12 76.2855 6.12402   2
   1  -5 -12 86.1281 6.75197   2
  -1  -5  12 97.7167 8.21200   4
  -1  -5  12 85.0369 6.08011   2
   2  -5  12 344.086 11.0219   2
  -2  -5 -12 337.669 11.3988   2
   2  -5 -12 330.554 11.2626   2
  -2  -5  12 349.038 13.3540   4
  -2  -5  12 334.313 10.6272   2
   3  -5  12 17.6504 4.10941   2
  -3  -5 -12 7.69893 3.69966   2
  -3  -5  12 13.0302 4.94016   4
   3  -5 -12 8.68390 3.84684   2
  -3  -5  12 10.4765 3.45196   2
   4  -5  12 498.328 14.3736   2
  -4  -5 -12 499.255 14.6928   2
  -4  -5  12 540.055 16.8203   4
  -4  -5  12 511.608 13.8705   2
   4  -5 -12 506.531 14.8263   2
  -5  -5 -12 46.7610 5.70283   2
   5  -5  12 42.7675 5.43583   2
  -5  -5  12 38.7713 4.91551   2
   5  -5 -12 43.5227 5.54535   2
  -5  -5  12 45.9311 6.63264   4
  -6  -5 -12 27.4529 5.14204   2
   6  -5  12 28.4814 5.15628   2
  -6  -5  12 26.0808 6.00161   4
   6  -5 -12 29.2688 5.07201   2
  -6  -5  12 31.8686 4.88167   2
  -7  -5 -12 21.3614 5.25670   2
   7  -5  12 25.5032 5.11911   2
  -7  -5  12 33.2593 5.10506   2
   7  -5 -12 28.7224 5.24341   2
  -7  -5  12 31.8713 6.60083   4
   8  -5  12 34.8716 5.84284   2
  -8  -5 -12 31.6447 5.90635   2
  -8  -5  12 26.2425 6.34409   4
   8  -5 -12 31.5124 3.94875   1
  -8  -5  12 17.5703 4.92378   2
   8  -5 -12 28.2030 5.65493   2
   9  -5  12 98.0404 8.77673   2
  -9  -5 -12 110.359 9.22960   2
  -9  -5  12 111.315 10.0340   4
   9  -5 -12 80.2907 8.24929   2
   9  -5 -12 101.042 6.52910   1
  -9  -5  12 113.035 8.84482   2
 -10  -5 -12 8.58398 5.19153   2
  10  -5  12 12.9365 5.19565   2
  10  -5 -12 4.97056 4.94455   2
  10  -5 -12 18.1768 3.99468   1
 -10  -5  12 9.96415 4.96678   2
 -10  -5  12 -6.2468 4.87483   4
 -11  -5 -12 4.42464 5.00423   2
 -11  -5 -12 9.96709 5.20710   2
  11  -5  12 -8.5204 4.36084   2
  11  -5 -12 0.72340 3.71113   1
  11  -5 -12 5.42941 5.03385   2
 -11  -5  12 -5.4855 4.37689   2
 -11  -5  12 2.78645 5.87986   4
   0  -6  12 707.101 16.8946   2
   0  -6  12 729.075 21.5453   4
   0  -6 -12 720.614 17.6180   2
   1  -6  12 52.4891 5.34274   2
  -1  -6 -12 47.5423 5.29520   2
  -1  -6  12 56.1181 7.54949   4
   1  -6 -12 48.6388 5.43249   2
  -1  -6  12 55.4696 5.17305   2
  -2  -6 -12 12.1226 3.84467   2
   2  -6  12 19.1534 4.06903   2
   2  -6 -12 18.5060 4.18751   2
  -2  -6  12 18.0117 3.93687   2
  -2  -6  12 14.0008 5.49371   4
  -3  -6 -12 3.64667 3.54369   2
   3  -6  12 14.1194 4.01587   2
  -3  -6  12 16.6784 3.79566   2
   3  -6 -12 6.21280 3.85101   2
  -3  -6  12 11.6572 5.46031   4
  -4  -6 -12 176.775 9.40711   2
   4  -6  12 194.048 9.32403   2
  -4  -6  12 166.725 11.1573   4
   4  -6 -12 213.865 9.96135   2
  -4  -6  12 158.637 8.31882   2
   5  -6  12 14.5102 4.45443   2
  -5  -6 -12 10.2332 4.51000   2
  -5  -6  12 12.5785 3.82843   2
  -5  -6  12 5.77649 5.48594   4
   5  -6 -12 15.8520 4.68541   2
   6  -6  12 12.2564 4.63647   2
  -6  -6 -12 13.4700 4.61983   2
  -6  -6  12 11.3172 4.03809   2
  -6  -6  12 14.4443 6.00809   4
   6  -6 -12 13.2289 4.58870   2
   7  -6  12 9.06569 4.67413   2
  -7  -6 -12 1.30293 4.35437   2
   7  -6 -12 17.2187 4.94131   2
  -7  -6  12 11.5493 4.31200   2
  -7  -6  12 9.33698 5.79268   4
   8  -6  12 416.854 15.1317   2
  -8  -6 -12 429.255 15.4562   2
  -8  -6  12 413.150 17.5291   4
  -8  -6  12 396.950 13.9493   2
   8  -6 -12 402.314 14.7500   2
   9  -6  12 241.388 12.5195   2
  -9  -6 -12 237.070 12.2181   2
  -9  -6  12 233.838 11.3530   2
  -9  -6  12 255.766 14.4390   4
   9  -6 -12 193.115 11.7028   2
   0  -7 -12 2.37549 3.62934   2
   0  -7  12 -5.5303 3.09532   2
  -1  -7 -12 61.8979 6.10980   2
   1  -7  12 62.8695 5.81065   2
  -1  -7  12 55.2321 8.43563   4
   1  -7 -12 65.1227 6.43528   2
  -1  -7  12 68.7440 5.87111   2
  -2  -7 -12 242.697 10.4163   2
   2  -7  12 236.845 9.96540   2
  -2  -7  12 246.166 9.62086   2
  -2  -7  12 222.565 13.5235   4
   2  -7 -12 222.190 10.2441   2
   3  -7  12 1.63514 3.74319   2
  -3  -7 -12 6.21669 3.92669   2
   3  -7 -12 -0.4819 3.47409   2
  -3  -7  12 4.26851 6.04660   4
  -3  -7  12 7.88432 3.66220   2
  -4  -7 -12 360.254 12.9042   2
   4  -7  12 351.584 12.6732   2
  -4  -7  12 332.585 11.5127   2
   4  -7 -12 357.512 12.8243   2
  -4  -7  12 343.285 16.3718   4
   5  -7  12 6.02928 4.40734   2
  -5  -7 -12 8.85208 4.47140   2
  -5  -7  12 8.13685 3.88698   2
  -5  -7  12 6.04105 6.20729   4
   5  -7 -12 8.26057 4.19071   2
  -6  -7 -12 12.7704 5.07287   2
   6  -7  12 25.1110 5.25400   2
  -6  -7  12 35.4579 7.75133   4
  -6  -7  12 16.4498 4.35719   2
   6  -7 -12 8.33742 4.68675   2
   0   0 -13 2.08588 2.65387   1
   0   0  13 4.26764 2.81397   1
   0   0  13 1.00995 2.60501   2
   1   0  13 6.97642 3.16474   1
   1   0 -13 5.48965 2.84538   1
  -1   0  13 5.29410 2.49640   2
  -1   0  13 2.65152 2.71932   1
  -1   0 -13 1.36407 2.65462   1
   1   0  13 2.90304 2.80052   2
   2   0 -13 160.482 7.46876   1
  -2   0  13 165.392 7.63493   3
  -2   0 -13 161.081 7.60514   1
  -2   0  13 159.208 7.37068   2
   2   0  13 174.278 7.69949   2
  -2   0  13 155.792 7.41476   1
   2   0  13 161.121 7.65679   1
   3   0  13 814.957 19.4843   2
   3   0 -13 816.219 18.0507   1
  -3   0  13 853.562 18.3429   2
  -3   0  13 834.379 18.7366   3
  -3   0 -13 822.173 18.4712   1
  -3   0 -13 809.538 18.4203   1
  -3   0  13 806.349 18.0326   1
   3   0  13 833.273 18.3902   1
  -4   0  13 86.6318 6.55790   3
   4   0 -13 79.1634 5.83684   1
  -4   0  13 83.0999 6.08400   1
  -4   0 -13 75.0874 5.95718   1
   4   0  13 91.7193 6.62257   1
   5   0  13 1794.75 33.0958   1
  -5   0  13 1724.03 32.2485   1
  -5   0  13 1759.98 32.9932   3
  -5   0 -13 1769.83 32.8553   1
   5   0 -13 1731.36 32.3254   1
   6   0 -13 73.2678 6.26922   1
   6   0  13 70.5772 6.50413   1
  -6   0  13 66.5494 6.11187   3
  -6   0 -13 62.5906 6.15369   1
  -6   0  13 63.8571 5.77749   1
  -7   0  13 310.104 11.3077   1
  -7   0 -13 306.034 11.8388   1
   7   0 -13 320.275 11.4209   1
   7   0  13 297.377 11.8855   1
   8   0 -13 467.456 14.4442   1
   8   0  13 473.488 14.9904   1
  -8   0  13 467.110 14.3904   1
  -8   0 -13 458.907 14.6734   1
   9   0  13 7.85959 4.76746   1
  -9   0 -13 -0.5596 3.84235   1
   9   0 -13 -1.3170 3.69053   1
  -9   0  13 -0.5455 3.82292   1
  10   0  13 291.380 12.7672   1
  10   0 -13 295.652 12.3115   1
 -10   0  13 297.045 12.1823   1
 -10   0 -13 274.639 12.5371   1
  11   0  13 188.070 11.3030   1
 -11   0  13 169.520 10.1455   1
 -11   0 -13 165.695 10.7128   1
  11   0 -13 179.010 10.6592   1
  12   0 -13 46.8640 7.14445   1
  12   0  13 33.5877 6.53558   1
 -12   0 -13 30.7224 6.41371   1
 -12   0  13 31.3927 6.09007   1
 -13   0 -13 725.126 22.0918   1
 -13   0  13 764.239 21.7376   1
  13   0  13 786.966 22.9934   1
  13   0 -13 729.755 21.7948   1
  14   0 -13 101.631 10.4003   1
 -14   0  13 95.9232 9.33024   1
  14   0  13 76.0814 9.05327   1
 -14   0 -13 96.8724 9.67791   1
 -15   0  13 1.01314 5.02657   1
 -15   0 -13 0.74322 5.33449   1
  15   0  13 3.29295 5.55626   1
   0  -1  13 507.209 13.1799   1
   0  -1 -13 532.464 13.5202   1
   0  -1 -13 546.469 13.5916   2
   0   1 -13 521.541 13.3156   1
   0  -1  13 533.547 13.4567   2
   0   1  13 538.604 13.6552   1
   1  -1  13 422.593 12.0648   1
  -1  -1 -13 465.216 12.5295   2
   1  -1  13 450.441 12.2395   2
  -1   1  13 456.675 12.4791   1
   1   1 -13 472.288 12.4272   1
  -1  -1 -13 453.301 12.3407   1
   1   1  13 438.155 12.2462   1
   1  -1 -13 433.894 12.0517   1
  -1  -1  13 466.234 12.3096   3
  -1  -1  13 456.697 12.1728   1
  -1  -1  13 454.070 12.3289   2
   1  -1 -13 467.615 12.4808   2
  -1   1 -13 451.372 12.3949   1
  -2  -1 -13 187.718 8.04293   1
   2  -1  13 182.739 8.01249   2
  -2   1  13 194.315 8.10277   1
  -2  -1 -13 189.574 8.18898   2
   2   1 -13 177.663 7.73592   1
  -2  -1 -13 195.383 8.10232   1
   2  -1  13 187.599 8.14630   1
   2   1  13 187.402 8.16406   1
  -2  -1  13 194.529 8.10987   3
   2  -1 -13 183.050 8.01968   1
   2  -1 -13 180.219 7.94593   2
  -2  -1  13 186.710 7.70970   1
  -2  -1  13 174.936 7.85740   2
  -3   1  13 289.841 10.4272   3
  -3  -1 -13 328.495 10.8056   2
  -3   1  13 318.470 10.2522   1
  -3  -1 -13 324.796 10.5487   1
   3  -1  13 317.239 10.6518   2
   3  -1  13 306.147 10.3383   1
  -3  -1  13 311.860 10.4424   3
  -3   1 -13 310.984 10.5352   1
   3   1  13 321.256 10.7068   1
  -3  -1  13 319.875 10.3604   2
   3  -1 -13 309.895 10.1501   1
  -3  -1  13 319.645 10.0614   1
   3  -1 -13 314.278 10.4384   2
   4  -1  13 -3.5786 2.78153   2
  -4  -1 -13 -0.4224 3.00023   2
  -4   1  13 -1.0703 2.77752   1
  -4   1  13 2.93760 3.10210   3
   4   1 -13 1.44896 2.82543   1
   4  -1  13 2.12130 3.20649   1
  -4  -1 -13 1.00444 2.86975   1
  -4  -1  13 1.46234 2.74159   2
   4  -1 -13 -4.7297 2.43381   1
  -4  -1  13 -1.9644 2.61279   1
  -4   1 -13 1.46076 2.97250   1
   4   1  13 -4.9623 2.79118   1
  -4   1 -13 2.51722 3.06982   1
   4  -1 -13 0.02927 2.83319   2
  -4  -1  13 1.58491 2.75505   3
   5  -1  13 509.742 14.1678   2
   5   1 -13 531.817 13.9999   1
  -5  -1 -13 478.729 14.0796   2
  -5  -1 -13 475.449 13.8328   1
  -5   1  13 469.750 13.8860   3
   5  -1  13 495.274 14.0737   1
  -5   1  13 481.514 13.4961   1
  -5  -1  13 496.384 13.9821   3
  -5  -1  13 480.624 13.6098   2
   5   1  13 500.916 14.2389   1
   5  -1 -13 488.869 13.5852   1
  -5  -1  13 505.651 13.3640   1
  -5   1 -13 465.265 13.7993   1
   6  -1  13 142.486 8.44805   2
  -6  -1 -13 142.682 8.28664   1
   6  -1  13 143.817 8.21060   1
  -6   1  13 138.617 7.91578   1
  -6  -1  13 123.966 7.95490   3
   6   1  13 142.778 8.62870   1
   6  -1 -13 126.605 7.58488   1
  -6  -1  13 131.824 7.47249   1
  -6   1 -13 142.087 8.42989   1
  -6  -1  13 127.982 7.86764   2
   7  -1  13 0.74842 3.46588   1
  -7  -1 -13 1.67639 3.37192   1
  -7   1  13 2.26565 3.54951   1
   7   1  13 0.66340 3.74080   1
  -7  -1  13 2.23670 3.49092   2
   7  -1 -13 3.54120 3.44502   1
  -7   1 -13 1.16721 3.64023   1
  -7  -1  13 -3.0413 2.89390   1
   8  -1  13 22.0490 4.80857   1
  -8   1  13 14.9481 4.39631   1
  -8  -1 -13 20.8795 4.66193   1
   8   1  13 12.3772 4.70772   1
  -8  -1  13 18.8788 4.26985   1
  -8   1 -13 18.8422 4.85752   1
   8  -1 -13 12.1359 4.17057   1
   9  -1  13 90.1251 7.88346   1
  -9  -1 -13 108.291 8.46594   1
  -9   1  13 102.566 8.20815   1
   9  -1 -13 105.130 8.13666   1
  -9   1 -13 95.6637 8.22811   1
   9   1  13 94.3062 8.66644   1
  -9  -1  13 101.985 7.74464   1
  10  -1  13 15.3204 5.03085   1
 -10   1  13 26.7370 5.53778   1
 -10  -1 -13 18.9233 5.08759   1
  10  -1 -13 28.1476 5.36668   1
 -10  -1  13 10.8039 4.23921   1
 -11   1  13 52.6700 7.24367   1
 -11  -1 -13 48.8394 6.65487   1
  11  -1  13 54.2524 7.40502   1
 -11  -1  13 45.8120 6.19860   1
  11  -1 -13 45.2054 6.45425   1
 -12  -1 -13 38.2191 6.62286   1
 -12   1  13 37.0780 6.71852   1
  12  -1  13 32.2675 6.29833   1
 -12  -1  13 37.0277 6.12548   1
  12  -1 -13 45.4780 6.57006   1
 -13   1  13 5.45818 5.18180   1
  13  -1  13 -3.6218 4.40651   1
 -13  -1 -13 -1.8948 4.67302   1
 -13  -1  13 -3.5242 4.08248   1
  13  -1 -13 2.38531 4.80823   1
 -14   1  13 2.86599 5.52401   1
  14  -1  13 6.26500 5.15483   1
 -14  -1 -13 5.57682 5.24339   1
 -14  -1  13 1.66286 4.75140   1
  14  -1 -13 3.19537 5.02312   1
 -15   1  13 51.8408 8.64253   1
  15  -1  13 67.1715 8.65894   1
 -15  -1 -13 70.4201 8.65579   1
  15  -1 -13 68.0291 8.66250   1
 -15  -1  13 65.1100 8.13666   1
   0  -2  13 0.12937 2.56111   3
   0  -2  13 -1.2615 2.50778   2
   0  -2 -13 -2.0892 2.41576   2
   0  -2  13 5.18320 2.71243   1
   0  -2 -13 0.30862 2.57160   1
   1  -2  13 20.0397 3.40359   1
  -1  -2 -13 17.6487 3.64635   2
   1  -2  13 31.0011 4.16933   2
  -1  -2 -13 24.8108 3.78076   1
  -1  -2 -13 24.9693 3.87572   1
  -1  -2  13 26.2884 3.79342   2
  -1  -2  13 20.9443 3.57708   3
  -1  -2  13 20.7919 3.46458   1
   1  -2 -13 26.3774 4.03936   2
   1  -2 -13 20.6488 3.54054   1
   2  -2  13 157.395 7.61322   2
   2  -2  13 166.508 7.53928   1
  -2  -2 -13 165.381 7.78223   2
  -2  -2 -13 170.091 7.51361   1
   2  -2 -13 165.908 7.90776   2
   2  -2 -13 164.006 7.35981   1
  -2  -2  13 168.768 7.69915   2
  -2  -2  13 167.765 7.37535   3
  -2  -2  13 164.080 7.19517   1
  -3  -2 -13 96.1782 6.27794   1
  -3  -2 -13 93.5570 6.74929   2
   3  -2  13 89.7709 6.45966   2
   3  -2  13 90.1138 6.29877   1
  -3   2  13 83.6981 6.58469   3
   3  -2 -13 96.8676 6.10283   1
  -3  -2  13 102.188 6.55059   3
  -3  -2  13 92.6227 6.28066   2
   3  -2 -13 100.908 6.64297   2
  -3  -2  13 93.9212 5.90168   1
  -4   2  13 1328.45 27.0871   3
  -4  -2 -13 1341.12 25.9137   1
  -4  -2 -13 1352.46 26.7159   2
   4  -2  13 1296.00 25.8296   1
   4  -2  13 1364.82 26.5998   2
  -4  -2  13 1343.68 26.0102   2
   4  -2 -13 1292.49 25.6468   1
   4  -2 -13 1346.34 26.4405   2
  -4  -2  13 1337.50 26.2811   3
  -4  -2  13 1288.02 24.9898   1
   5  -2  13 11.4539 3.66486   1
  -5  -2 -13 7.72740 3.72008   2
  -5  -2 -13 13.1535 3.75727   1
   5  -2  13 9.59461 3.68193   2
  -5  -2  13 12.2738 3.62594   3
   5  -2 -13 12.3497 3.85951   2
   5  -2 -13 9.83233 3.30836   1
  -5  -2  13 9.87296 3.70016   2
  -5  -2  13 11.6004 3.20496   1
  -6  -2 -13 8.14208 3.86232   2
   6  -2  13 17.6009 4.19855   1
   6  -2  13 12.9652 4.23242   2
  -6  -2 -13 16.3915 4.02492   1
  -6  -2  13 10.9162 3.80806   2
   6  -2 -13 15.6584 3.91203   1
  -6  -2  13 10.8967 3.45594   1
  -6  -2  13 11.4899 3.96665   3
   6  -2 -13 19.0967 4.20384   2
   7  -2  13 52.3326 5.80162   1
   7  -2  13 60.6282 6.46748   2
  -7  -2 -13 62.9532 6.55813   2
  -7  -2 -13 51.7041 5.66989   1
  -7  -2  13 52.7852 5.29601   1
   7  -2 -13 67.7928 6.14466   1
  -7  -2  13 59.7066 6.15839   2
   7  -2 -13 49.7694 5.86731   2
  -8  -2 -13 10.2133 4.16649   1
   8  -2  13 13.8339 4.57579   2
   8  -2  13 7.74232 4.16243   1
  -8  -2 -13 6.93011 4.22964   2
  -8  -2  13 9.37517 4.16360   2
  -8  -2  13 15.1429 3.87811   1
   8  -2 -13 6.40849 3.77396   1
  -9  -2 -13 25.6454 5.04405   1
   9  -2  13 32.2381 5.51674   1
   9  -2 -13 38.3871 5.56476   1
  -9  -2  13 24.5510 5.13146   2
  -9  -2  13 27.7888 4.80799   1
  10  -2  13 15.2335 4.97155   1
 -10  -2 -13 35.2776 5.78549   1
 -10  -2  13 24.4594 4.91831   1
  10  -2 -13 32.4271 5.37494   1
 -11  -2 -13 22.6964 5.23811   1
  11  -2  13 23.2026 5.59278   1
  11  -2 -13 33.5804 5.54944   1
 -11  -2  13 17.8252 4.71878   1
 -12  -2 -13 175.590 10.7143   1
  12  -2  13 178.545 11.1021   1
  12  -2 -13 152.349 10.0262   1
 -12  -2  13 165.704 9.75767   1
  13  -2  13 57.9568 7.58196   1
 -13  -2 -13 38.0603 6.45131   1
 -13  -2  13 62.9872 7.00339   1
  13  -2 -13 40.6647 6.72397   1
  14  -2  13 4.77283 5.23265   1
 -14  -2 -13 5.24664 4.92724   1
  14  -2 -13 6.58821 5.17690   1
 -14  -2  13 4.63387 4.47417   1
   0  -3  13 405.895 12.0669   2
   0  -3  13 440.522 12.2852   4
   0  -3 -13 450.093 12.7575   2
   0  -3  13 432.693 11.2022   1
   0  -3 -13 450.073 11.5661   1
  -1  -3 -13 311.789 10.5252   2
   1  -3  13 325.885 9.63295   1
  -1  -3 -13 323.385 9.88226   1
   1  -3  13 309.463 10.4420   2
   1  -3 -13 338.130 10.8846   2
  -1  -3  13 332.883 10.5297   4
   1  -3 -13 312.456 9.60360   1
  -1  -3  13 316.510 9.24795   1
   1  -3 -13 334.930 9.88839   1
  -1  -3  13 312.363 10.3575   2
  -2  -3 -13 142.431 7.02143   1
   2  -3  13 158.364 7.13127   1
   2  -3  13 144.072 7.56480   2
  -2  -3 -13 151.300 7.74679   2
   2  -3 -13 151.218 7.75259   2
  -2  -3  13 162.438 7.48551   4
  -2  -3  13 148.423 6.61210   1
   2  -3 -13 152.473 6.92786   1
  -2  -3  13 152.354 7.51872   2
  -3   3  13 254.324 10.4297   3
   3  -3  13 250.816 9.75154   2
  -3  -3 -13 249.498 9.04480   1
   3  -3  13 251.991 9.12802   1
  -3  -3 -13 264.831 9.98582   2
   3  -3 -13 236.923 9.60987   2
   3  -3 -13 256.690 8.94817   1
  -3  -3  13 254.268 9.34521   4
  -3  -3  13 251.768 9.29945   3
  -3  -3  13 235.166 8.18793   1
  -3  -3  13 253.438 9.45903   2
  -4  -3 -13 1.58123 3.07284   1
   4  -3  13 2.61476 3.22958   2
   4  -3  13 1.43956 3.04432   1
  -4  -3 -13 1.37543 3.33705   2
  -4  -3  13 1.15557 3.17383   3
   4  -3 -13 -1.4395 3.01478   2
  -4  -3  13 0.29596 2.48928   1
  -4  -3  13 0.82497 3.09022   2
   4  -3 -13 1.62291 2.76071   1
  -4  -3  13 2.01543 3.21438   4
   5  -3  13 402.964 13.0679   2
  -5  -3 -13 385.379 11.7690   1
   5  -3  13 391.039 11.9828   1
  -5  -3 -13 398.280 13.0726   2
  -5  -3  13 392.834 10.8544   1
  -5  -3  13 418.366 12.7958   3
   5  -3 -13 397.727 11.5738   1
  -5  -3  13 409.856 12.6402   2
   5  -3 -13 401.825 12.9567   2
  -5  -3  13 404.057 12.3819   4
   6  -3  13 118.283 8.21063   2
   6  -3  13 100.376 7.22601   1
  -6  -3 -13 100.805 7.02810   1
  -6  -3 -13 109.148 8.19258   2
  -6  -3  13 110.975 6.44037   1
  -6  -3  13 118.462 7.72987   2
   6  -3 -13 104.801 6.97232   1
  -6  -3  13 119.438 8.12208   3
  -6  -3  13 115.078 7.69339   4
   6  -3 -13 115.099 7.98437   2
  -7  -3 -13 3.29250 3.46233   1
   7  -3  13 -4.6009 3.28200   1
   7  -3  13 -0.6615 3.77408   2
  -7  -3 -13 3.02101 4.03880   2
  -7  -3  13 -2.5604 3.27015   2
   7  -3 -13 7.87720 4.03230   2
   7  -3 -13 3.58529 3.20897   1
  -7  -3  13 1.02789 2.91695   1
  -7  -3  13 5.23233 3.82401   4
   8  -3  13 18.6381 5.12934   2
   8  -3  13 18.4050 4.58778   1
  -8  -3 -13 8.86806 4.62628   2
  -8  -3 -13 6.31397 3.89189   1
   8  -3 -13 16.5916 4.52177   2
  -8  -3  13 19.9623 3.98081   1
  -8  -3  13 17.4044 4.62458   2
   8  -3 -13 21.2950 4.22708   1
   9  -3  13 76.7918 7.70309   2
  -9  -3 -13 79.5982 8.32969   2
  -9  -3 -13 69.1018 6.52498   1
   9  -3  13 67.5395 6.74991   1
  -9  -3  13 76.1322 6.23454   1
  -9  -3  13 63.9033 6.88314   2
   9  -3 -13 64.1695 6.43523   1
  10  -3  13 15.8321 5.41235   2
  10  -3  13 16.1488 4.84970   1
 -10  -3 -13 26.7746 5.23048   1
 -10  -3 -13 30.7499 6.17328   2
 -10  -3  13 19.6368 4.32955   1
 -10  -3  13 24.1924 5.52663   2
  10  -3 -13 25.3045 4.94527   1
 -11  -3 -13 37.6750 5.90162   1
  11  -3  13 45.0474 6.29109   1
 -11  -3  13 43.1792 5.33107   1
  11  -3 -13 44.3844 5.98282   1
 -11  -3  13 46.0239 6.83108   2
  12  -3  13 23.9809 5.80057   1
 -12  -3 -13 29.7515 5.56816   1
 -12  -3  13 27.8229 5.07426   1
  12  -3 -13 24.5112 5.27924   1
 -13  -3 -13 0.94212 4.27966   1
  13  -3  13 2.05790 5.02729   1
 -13  -3  13 6.12458 4.28714   1
  13  -3 -13 1.16477 4.35252   1
  14  -3  13 -10.031 4.41152   1
 -14  -3 -13 3.97420 4.60835   1
  14  -3 -13 -11.349 3.77397   1
 -14  -3  13 4.51656 4.47948   1
   0  -4  13 -0.1828 2.84930   2
   0  -4 -13 1.89580 3.34603   2
   0  -4 -13 -3.7835 2.39551   1
   0  -4  13 0.83464 1.77652   1
   0  -4  13 3.72282 3.69834   4
  -1  -4 -13 -2.7525 2.96353   2
  -1  -4 -13 4.19995 2.64973   1
   1  -4  13 3.46488 3.12323   2
   1  -4  13 0.55687 1.94107   1
   1  -4 -13 1.79494 2.54707   1
  -1  -4  13 1.85258 1.73153   1
  -1  -4  13 -1.0772 2.81771   2
   1  -4 -13 3.10754 3.41365   2
  -1  -4  13 1.36325 3.38730   4
  -2  -4 -13 92.7679 6.99121   2
  -2  -4 -13 99.7783 5.58621   1
   2  -4  13 99.8532 6.86084   2
   2  -4  13 98.4182 4.58059   1
  -2  -4  13 91.2143 3.70965   1
  -2  -4  13 104.143 7.40285   4
   2  -4 -13 90.1349 6.98045   2
   2  -4 -13 91.1577 5.40948   1
  -2  -4  13 103.067 6.72585   2
   3  -4  13 499.952 14.1981   2
  -3  -4 -13 497.133 14.3363   2
   3  -4  13 511.115 11.0038   1
  -3  -4 -13 519.740 12.0817   1
  -3  -4  13 495.810 9.63776   1
   3  -4 -13 497.385 12.1559   1
  -3  -4  13 506.185 15.1320   4
   3  -4 -13 510.211 14.3642   2
  -3  -4  13 504.399 13.7958   2
   3  -4 -13 525.533 12.3911   1
   4  -4  13 50.5708 5.57278   2
  -4  -4 -13 60.6670 4.81794   1
   4  -4  13 72.5376 5.02330   1
  -4  -4 -13 64.8126 6.22801   2
  -4  -4  13 61.5524 5.74348   2
   4  -4 -13 65.4088 5.03779   1
   4  -4 -13 62.4404 5.98205   2
  -4  -4  13 53.5389 6.06128   4
  -4  -4  13 61.1295 3.96929   1
  -5  -4 -13 1195.16 22.2105   1
   5  -4  13 1148.04 21.5085   1
  -5  -4 -13 1133.97 25.0592   2
   5  -4  13 1120.25 24.7048   2
   5  -4 -13 1181.46 25.2877   2
  -5  -4  13 1173.61 24.4437   2
  -5  -4  13 1164.10 25.9526   4
   5  -4 -13 1152.41 22.2726   1
  -5  -4  13 1123.43 19.5580   1
   6  -4  13 45.0688 4.77963   1
   6  -4  13 45.7067 5.82721   2
  -6  -4 -13 41.3224 5.80940   2
  -6  -4 -13 43.3458 4.67907   1
   6  -4 -13 51.1031 4.92124   1
  -6  -4  13 50.8084 5.66221   2
  -6  -4  13 51.1631 3.84500   1
  -6  -4  13 52.5819 6.55631   4
   6  -4 -13 38.0442 5.50877   2
   7  -4  13 208.262 10.7068   2
  -7  -4 -13 187.963 10.5591   2
   7  -4  13 188.374 8.57605   1
  -7  -4 -13 201.763 8.48136   1
  -7  -4  13 204.883 11.0051   4
  -7  -4  13 211.500 9.94160   2
   7  -4 -13 198.499 8.49069   1
  -7  -4  13 209.687 7.06046   1
   7  -4 -13 208.385 10.4984   2
  -8  -4 -13 334.700 13.4526   2
   8  -4  13 293.307 10.7298   1
  -8  -4 -13 301.965 10.5341   1
   8  -4  13 311.595 13.1672   2
  -8  -4  13 300.598 8.91817   1
   8  -4 -13 303.506 10.7298   1
  -8  -4  13 283.163 11.9164   2
  -8  -4  13 348.348 13.9329   4
   8  -4 -13 312.615 12.6417   2
   9  -4  13 1.81958 3.94087   1
   9  -4  13 5.36025 4.70928   2
  -9  -4 -13 6.68828 3.87677   1
  -9  -4 -13 -5.5999 4.06170   2
  -9  -4  13 0.13156 4.59685   4
   9  -4 -13 4.82683 3.83386   1
   9  -4 -13 -5.5312 3.95095   2
  -9  -4  13 1.25951 2.89784   1
  -9  -4  13 -0.3542 3.97439   2
  10  -4  13 198.137 10.0831   1
 -10  -4 -13 210.960 12.1339   2
  10  -4  13 208.923 11.8715   2
 -10  -4 -13 185.740 9.20991   1
 -10  -4  13 210.599 11.4035   2
  10  -4 -13 190.991 9.60917   1
 -10  -4  13 202.091 12.4245   4
 -10  -4  13 194.675 8.12993   1
  10  -4 -13 197.177 11.7628   2
  11  -4  13 125.362 10.4949   2
  11  -4  13 129.600 9.08197   1
 -11  -4 -13 135.532 8.62022   1
 -11  -4 -13 115.836 10.3799   2
  11  -4 -13 129.107 8.82694   1
 -11  -4  13 143.248 7.48465   1
 -11  -4  13 142.037 10.4615   2
 -12  -4 -13 23.8209 5.15206   1
  12  -4  13 21.4373 5.24467   1
  12  -4 -13 23.6978 5.20529   1
 -12  -4  13 19.9436 4.32146   1
 -12  -4  13 31.3894 6.52260   2
   0  -5  13 253.636 11.6921   4
   0  -5 -13 244.573 10.1608   2
   0  -5  13 246.358 9.61190   2
  -1  -5 -13 277.341 10.5712   2
   1  -5  13 261.389 9.84059   2
   1  -5 -13 262.448 10.3560   2
  -1  -5  13 283.111 12.1134   4
  -1  -5  13 266.965 9.73314   2
   2  -5  13 100.233 7.07776   2
  -2  -5 -13 80.1626 6.58236   2
  -2  -5  13 95.5986 6.70919   2
   2  -5 -13 97.2112 7.31141   2
  -2  -5  13 101.352 8.39403   4
  -3  -5 -13 152.625 8.64745   2
   3  -5  13 175.935 8.95254   2
  -3  -5  13 179.198 8.38129   2
   3  -5 -13 160.995 8.88908   2
  -3  -5  13 180.434 10.3161   4
   4  -5  13 2.09327 3.67297   2
  -4  -5 -13 0.33332 3.57012   2
  -4  -5  13 7.59821 4.62773   4
  -4  -5  13 -1.2408 3.18475   2
   4  -5 -13 -0.6691 3.37508   2
   5  -5  13 279.288 11.2859   2
  -5  -5 -13 294.099 11.9371   2
  -5  -5  13 285.267 12.8698   4
  -5  -5  13 268.934 10.6700   2
   5  -5 -13 307.725 12.1067   2
   6  -5  13 94.5984 7.87882   2
  -6  -5 -13 82.1020 7.73084   2
   6  -5 -13 72.9057 7.07892   2
  -6  -5  13 80.9280 6.92516   2
  -6  -5  13 84.8096 8.71995   4
  -7  -5 -13 -0.1597 4.07995   2
   7  -5  13 -3.4505 3.72278   2
   7  -5 -13 3.25778 4.19565   2
   7  -5 -13 -1.5045 2.87339   1
  -7  -5  13 1.21926 3.64036   2
  -7  -5  13 -1.3980 4.59207   4
  -8  -5 -13 13.1827 5.02368   2
   8  -5  13 11.3959 4.89222   2
   8  -5 -13 6.88722 3.20733   1
  -8  -5  13 2.98479 4.92652   4
   8  -5 -13 9.65633 4.76455   2
  -8  -5  13 6.53714 4.08397   2
   9  -5  13 75.5226 7.86874   2
  -9  -5 -13 71.8690 7.99033   2
  -9  -5  13 72.3212 8.92369   4
  -9  -5  13 79.0315 7.50300   2
   9  -5 -13 82.3958 6.29622   1
   9  -5 -13 86.7125 8.28567   2
 -10  -5 -13 6.38793 5.10856   2
  10  -5  13 11.8868 5.33405   2
  10  -5 -13 14.4866 5.68539   2
 -10  -5  13 13.5252 5.03860   2
 -10  -5  13 14.7358 6.01237   4
  10  -5 -13 12.5042 3.95715   1
  11  -5  13 25.0372 6.57675   2
 -11  -5 -13 31.5421 6.80143   2
 -11  -5  13 32.2601 7.74517   4
  11  -5 -13 35.5635 5.22128   1
 -11  -5  13 30.5824 6.45130   2
  11  -5 -13 39.6261 7.10177   2
   0  -6 -13 -6.0297 3.11188   2
   0  -6  13 -1.8215 3.19259   2
   0  -6  13 6.24647 5.17360   4
  -1  -6 -13 5.28278 3.85570   2
   1  -6  13 5.46692 3.59368   2
  -1  -6  13 11.8142 3.76970   2
  -1  -6  13 15.1000 5.81962   4
   1  -6 -13 13.5098 4.23938   2
  -2  -6 -13 63.3192 6.15089   2
   2  -6  13 71.9441 6.34099   2
   2  -6 -13 64.4888 6.42688   2
  -2  -6  13 71.4755 5.96231   2
  -2  -6  13 73.5405 8.40642   4
  -3  -6 -13 40.6476 5.57284   2
   3  -6  13 26.4495 4.85969   2
   3  -6 -13 33.5958 5.27444   2
  -3  -6  13 31.2884 4.71242   2
  -3  -6  13 32.2177 6.66175   4
  -4  -6 -13 602.621 17.1306   2
   4  -6  13 632.412 16.9664   2
   4  -6 -13 600.289 17.1189   2
  -4  -6  13 596.731 19.8758   4
  -4  -6  13 615.318 16.2471   2
   5  -6  13 15.0530 4.62406   2
  -5  -6 -13 13.8329 4.78144   2
  -5  -6  13 9.68977 3.89465   2
  -5  -6  13 10.1875 5.53614   4
   5  -6 -13 4.78359 4.32189   2
   6  -6  13 -2.1629 3.96933   2
  -6  -6 -13 10.2047 4.65867   2
  -6  -6  13 8.84924 5.76367   4
   6  -6 -13 4.34036 4.50433   2
  -6  -6  13 9.46319 4.14578   2
   7  -6  13 37.4328 6.05027   2
  -7  -6 -13 37.4762 6.25545   2
  -7  -6  13 31.1549 5.39167   2
   7  -6 -13 34.3976 6.22881   2
  -7  -6  13 34.5385 7.15952   4
   8  -6  13 5.90242 4.79869   2
  -8  -6 -13 12.1904 5.21146   2
  -8  -6  13 15.5654 6.61447   4
   8  -6 -13 11.0519 5.02887   2
  -8  -6  13 1.97896 4.19333   2
  -9  -6 -13 22.9994 6.07788   2
   9  -6  13 1.96401 4.58372   2
  -9  -6  13 14.1084 6.48918   4
   9  -6 -13 16.8752 5.48742   2
  -9  -6  13 18.1996 5.18035   2
   0  -7  13 208.097 9.48887   2
   0  -7 -13 208.536 9.93658   2
   1  -7  13 132.870 8.27229   2
  -1  -7 -13 129.196 8.45675   2
  -1  -7  13 133.251 11.6565   4
   1  -7 -13 119.459 8.35106   2
  -1  -7  13 125.198 8.00912   2
   2  -7  13 61.9686 6.24382   2
  -2  -7 -13 61.5083 6.49518   2
   2  -7 -13 68.1629 6.79894   2
  -2  -7  13 54.5699 5.82082   2
  -2  -7  13 63.8323 8.98704   4
  -3  -7 -13 102.455 8.09137   2
   3  -7  13 119.551 8.48670   2
   3  -7 -13 115.815 8.68500   2
  -3  -7  13 115.453 7.70172   2
  -3  -7  13 126.838 11.4487   4
  -4  -7 -13 2.65469 4.09676   2
   4  -7  13 -1.5628 3.93844   2
  -4  -7  13 2.81746 3.64435   2
   4  -7 -13 1.34803 4.01996   2
  -4  -7  13 8.19532 5.90248   4
  -5  -7 -13 202.467 10.7980   2
   5  -7  13 201.720 10.6334   2
   5  -7 -13 171.086 10.3788   2
  -5  -7  13 190.775 13.5462   4
  -5  -7  13 204.611 9.80279   2
   0   0  14 54.1767 5.67028   2
   0   0 -14 59.9460 5.39251   1
   0   0  14 53.1487 5.06102   1
  -1   0  14 90.3467 6.19897   1
  -1   0  14 84.0227 6.90640   2
  -1   0 -14 89.6080 6.37156   1
   1   0  14 84.1240 6.34376   1
   1   0 -14 93.4380 6.28441   1
  -2   0 -14 -5.1383 2.71240   1
  -2   0  14 3.97965 2.99503   3
   2   0  14 -1.3432 2.85209   1
  -2   0  14 2.65811 2.90886   1
   2   0 -14 -2.3426 2.62843   1
  -3   0  14 734.441 17.8374   3
   3   0 -14 752.949 17.4150   1
  -3   0 -14 738.314 17.7842   1
  -3   0  14 732.557 17.3572   1
  -3   0 -14 748.414 17.8592   1
   3   0  14 761.614 17.7692   1
   4   0  14 30.2382 4.71797   1
  -4   0  14 41.8821 5.19785   3
  -4   0 -14 40.4397 4.98581   1
  -4   0  14 44.2194 4.99731   1
   4   0 -14 43.7438 5.01624   1
  -5   0 -14 56.9914 5.84895   1
  -5   0  14 65.5349 5.97119   1
   5   0  14 69.7689 6.63726   1
   5   0 -14 79.7004 6.68520   1
  -5   0  14 68.0302 6.29914   3
  -6   0  14 149.922 8.29680   1
   6   0  14 148.884 8.84401   1
   6   0 -14 155.558 8.33901   1
  -6   0 -14 143.041 8.60047   1
  -7   0  14 18.6054 4.38671   1
  -7   0 -14 19.8235 4.86709   1
   7   0 -14 14.3886 4.34350   1
   7   0  14 12.4984 4.56869   1
  -8   0  14 101.458 8.04269   1
   8   0 -14 121.015 8.34947   1
   8   0  14 116.732 8.81437   1
  -8   0 -14 112.253 8.57676   1
  -9   0  14 429.202 14.3785   1
   9   0 -14 440.768 14.7656   1
   9   0  14 422.816 15.3418   1
  -9   0 -14 434.901 15.0818   1
  10   0  14 54.5250 7.04446   1
 -10   0 -14 61.6194 7.10167   1
 -10   0  14 55.6710 6.72047   1
  10   0 -14 60.9262 6.96679   1
  11   0  14 430.259 16.2185   1
 -11   0  14 434.088 15.6429   1
 -11   0 -14 448.871 16.1122   1
  11   0 -14 435.189 15.8251   1
  12   0 -14 125.647 10.0510   1
  12   0  14 117.383 10.2756   1
 -12   0 -14 122.995 10.2100   1
 -12   0  14 132.744 10.0799   1
  13   0 -14 219.965 12.7388   1
 -13   0 -14 224.560 12.9221   1
  13   0  14 222.243 13.2516   1
 -13   0  14 208.988 12.1546   1
 -14   0 -14 0.67520 4.72369   1
 -14   0  14 2.10018 5.11293   1
  14   0  14 10.0450 6.06355   1
   0  -1 -14 1.89446 2.83571   1
   0  -1  14 -2.3829 2.77735   1
   0   1  14 -0.9715 2.64528   1
   0  -1 -14 -0.9216 2.84045   2
   0   1 -14 4.40325 2.92932   1
   0  -1  14 3.08586 2.94565   2
   1   1 -14 318.900 10.5734   1
  -1  -1 -14 305.274 10.5446   2
   1  -1  14 316.588 10.5593   2
  -1   1  14 324.901 10.6020   1
  -1  -1 -14 337.068 10.7208   1
   1  -1  14 304.940 10.4787   1
   1  -1 -14 310.470 10.3155   1
   1  -1 -14 304.365 10.4459   2
  -1   1 -14 333.303 10.8143   1
   1   1  14 314.885 10.5894   1
  -1  -1  14 333.279 10.5147   3
  -1  -1  14 308.242 10.4146   2
  -2   1  14 2.44051 3.01728   1
  -2   1  14 6.75282 3.07170   3
  -2  -1 -14 7.68997 3.32087   2
   2  -1  14 10.6095 3.52084   2
  -2  -1 -14 4.85475 3.30593   1
   2   1 -14 7.05257 3.22907   1
   2  -1  14 -1.2393 2.98441   1
  -2  -1 -14 10.4026 3.44459   1
   2  -1 -14 7.22901 3.26827   2
   2  -1 -14 6.19047 3.10499   1
   2   1  14 9.03324 3.48248   1
  -2  -1  14 4.97471 3.03939   1
  -2   1 -14 4.30758 3.07055   1
  -2  -1  14 10.5998 3.28176   3
  -2  -1  14 3.82334 3.03673   2
   3  -1  14 19.2883 3.96340   2
  -3   1  14 23.1369 4.09601   1
  -3   1  14 20.0142 4.04399   3
   3  -1  14 24.9193 4.17111   1
  -3  -1 -14 25.9474 4.22728   2
  -3  -1 -14 18.0262 3.97158   1
   3   1 -14 26.9323 4.13919   1
  -3  -1  14 16.2445 3.80689   3
   3  -1 -14 18.2296 3.85215   1
  -3  -1  14 21.7746 3.89762   1
  -3  -1  14 17.8408 3.90103   2
  -3   1 -14 28.2718 4.37366   1
   3   1  14 20.2863 4.16188   1
   3  -1 -14 21.8421 3.91511   2
  -4   1  14 181.984 8.96230   3
  -4  -1 -14 177.803 8.62168   1
   4  -1  14 182.461 8.78960   1
  -4  -1 -14 189.269 9.12307   2
   4   1 -14 194.277 8.74896   1
   4  -1  14 191.539 9.02019   2
  -4   1  14 186.591 8.69155   1
  -4  -1  14 190.195 8.47074   1
   4  -1 -14 179.486 8.43631   1
  -4  -1  14 204.866 8.99590   3
  -4   1 -14 179.698 8.85882   1
  -4  -1  14 194.886 8.68852   2
  -4   1 -14 193.772 8.99988   1
   4   1  14 196.093 9.06738   1
  -5  -1 -14 14.9243 3.96013   1
  -5   1  14 14.7739 3.80717   1
   5  -1  14 6.58890 3.89350   1
   5  -1  14 8.17357 3.74972   2
   5   1  14 11.3516 4.13034   1
  -5  -1  14 12.7819 3.58731   1
   5  -1 -14 20.2090 4.19366   1
  -5  -1  14 16.5313 4.12668   2
  -5  -1  14 8.01244 3.60780   3
  -5   1 -14 19.8650 4.30881   1
  -6  -1 -14 39.4947 5.30307   1
  -6   1  14 31.8855 4.82689   1
   6  -1  14 35.5829 5.22395   1
  -6   1 -14 40.4522 5.46671   1
   6  -1 -14 35.9414 4.94355   1
  -6  -1  14 39.4307 4.98107   1
   6   1  14 38.2037 5.67557   1
  -6  -1  14 32.5171 5.00684   2
  -7  -1 -14 122.139 8.25102   1
  -7   1  14 117.982 8.03085   1
   7  -1  14 108.140 8.08872   1
  -7  -1  14 129.336 8.05374   1
   7  -1 -14 121.489 7.98796   1
  -7   1 -14 123.701 8.52254   1
   7   1  14 126.641 8.88616   1
  -8   1  14 -0.3537 3.73088   1
  -8  -1 -14 -0.8203 3.62921   1
   8  -1  14 -2.9731 3.88240   1
   8  -1 -14 7.31578 3.90098   1
  -8   1 -14 3.49228 4.26261   1
  -8  -1  14 -3.6137 3.33466   1
   8   1  14 4.86592 4.43891   1
  -9  -1 -14 39.9656 6.13539   1
   9  -1  14 43.1412 6.15457   1
  -9   1  14 30.2425 5.63730   1
   9  -1 -14 47.1629 6.15183   1
  -9  -1  14 33.8902 5.31776   1
 -10   1  14 -0.5512 4.12894   1
 -10  -1 -14 -6.6067 3.76748   1
  10  -1  14 1.64109 4.50407   1
 -10  -1  14 -4.3964 3.45206   1
  10  -1 -14 2.56157 4.05740   1
 -11  -1 -14 652.225 19.4866   1
 -11   1  14 664.868 19.6944   1
  11  -1  14 643.209 19.5416   1
 -11  -1  14 658.558 18.8969   1
  11  -1 -14 635.989 18.9303   1
 -12   1  14 16.8958 5.57420   1
  12  -1  14 13.1016 5.48534   1
 -12  -1 -14 26.8676 6.15831   1
 -12  -1  14 19.9529 5.42464   1
  12  -1 -14 15.1113 5.19411   1
 -13  -1 -14 13.3906 5.47174   1
  13  -1  14 7.45902 5.40992   1
 -13   1  14 27.6833 6.52469   1
 -13  -1  14 9.58967 4.92710   1
  13  -1 -14 30.3414 6.35913   1
 -14   1  14 2.47435 5.50692   1
  14  -1  14 10.4490 5.61338   1
 -14  -1 -14 -1.2912 4.94974   1
 -14  -1  14 14.0814 5.41850   1
  14  -1 -14 15.1418 5.86715   1
   0  -2 -14 205.518 8.74038   2
   0  -2  14 210.681 8.69252   2
   0  -2  14 186.788 7.97576   1
   0  -2 -14 206.035 8.50465   1
   0  -2  14 213.587 8.44572   3
   1  -2  14 247.482 9.47839   2
  -1  -2 -14 245.326 9.18265   1
  -1  -2 -14 241.700 9.25652   1
  -1  -2 -14 256.527 9.74654   2
   1  -2  14 239.840 8.93636   1
  -1  -2  14 244.277 9.16497   3
   1  -2 -14 247.330 9.15349   1
  -1  -2  14 246.569 9.41758   2
   1  -2 -14 246.075 9.58671   2
  -1  -2  14 238.174 8.89493   1
  -2  -2 -14 196.351 8.38196   1
  -2  -2 -14 197.866 8.89339   2
   2  -2  14 205.146 8.90236   2
   2  -2  14 196.862 8.44557   1
  -2  -2  14 184.608 8.49615   2
   2  -2 -14 185.901 8.24279   1
  -2  -2  14 196.456 8.07458   1
  -2  -2  14 204.963 8.40821   3
   2  -2 -14 198.937 8.82278   2
   3  -2  14 13.3386 3.67871   1
   3  -2  14 19.0753 4.07321   2
  -3  -2 -14 15.9262 3.96891   2
  -3   2  14 11.7986 3.75195   3
  -3  -2 -14 17.2306 3.84722   1
   3  -2 -14 14.2491 3.90113   2
  -3  -2  14 13.3391 3.52400   3
   3  -2 -14 14.0425 3.52682   1
  -3  -2  14 8.39565 3.23746   1
  -3  -2  14 9.74272 3.44830   2
   4  -2  14 112.826 7.51005   2
  -4  -2 -14 100.070 7.57472   2
  -4  -2 -14 92.7827 6.81592   1
   4  -2  14 97.0201 7.03705   1
  -4  -2  14 100.399 7.16441   3
  -4  -2  14 89.2041 6.24661   1
   4  -2 -14 88.7886 7.24455   2
  -4  -2  14 118.250 7.32371   2
   4  -2 -14 112.913 6.82337   1
  -5  -2 -14 564.023 15.3231   1
   5  -2  14 548.296 15.0638   1
   5  -2  14 599.203 16.0114   2
  -5  -2 -14 535.048 15.6986   2
  -5  -2  14 596.069 15.5905   2
  -5  -2  14 533.931 14.2540   1
   5  -2 -14 530.684 15.3376   2
   5  -2 -14 549.016 14.8749   1
  -5  -2  14 536.841 15.2413   3
   6  -2  14 391.077 13.1184   1
  -6  -2 -14 402.053 13.6096   2
   6  -2  14 401.725 13.5733   2
  -6  -2 -14 388.310 12.7262   1
  -6  -2  14 379.761 12.0201   1
   6  -2 -14 402.072 13.3852   2
   6  -2 -14 396.856 12.5933   1
  -6  -2  14 408.323 13.2542   2
   7  -2  14 557.935 16.6346   2
  -7  -2 -14 521.945 15.4010   1
  -7  -2 -14 570.419 16.8155   2
   7  -2  14 517.695 15.4671   1
   7  -2 -14 526.634 15.1916   1
  -7  -2  14 515.612 14.3548   1
  -7  -2  14 554.985 16.1237   2
   8  -2  14 51.7680 6.17328   1
  -8  -2 -14 73.2145 7.01567   1
   8  -2 -14 59.0206 6.31960   1
  -8  -2  14 66.3108 6.81345   2
  -8  -2  14 64.7778 6.01646   1
   9  -2  14 30.8312 5.79756   1
  -9  -2 -14 29.6371 5.47392   1
   9  -2 -14 31.2705 5.35927   1
  -9  -2  14 32.4646 5.11313   1
 -10  -2 -14 75.1150 7.29072   1
  10  -2  14 88.9096 8.07892   1
 -10  -2  14 65.9630 6.59470   1
  10  -2 -14 51.7421 6.44538   1
  11  -2  14 16.4758 5.15659   1
 -11  -2 -14 18.6850 5.19382   1
  11  -2 -14 11.4344 4.80319   1
 -11  -2  14 10.9260 4.59066   1
  12  -2  14 24.6847 5.72937   1
 -12  -2 -14 20.2497 5.45239   1
 -12  -2  14 14.9096 4.81656   1
  12  -2 -14 19.7891 5.50226   1
 -13  -2 -14 185.275 11.3740   1
  13  -2  14 171.096 11.5276   1
 -13  -2  14 198.651 10.9662   1
  13  -2 -14 161.618 10.9776   1
 -14  -2 -14 114.557 9.71992   1
  14  -2  14 124.598 10.4643   1
 -14  -2  14 135.641 10.1295   1
  14  -2 -14 100.393 9.41634   1
   0  -3 -14 0.61520 2.87129   2
   0  -3 -14 1.36787 2.72883   1
   0  -3  14 5.69897 3.07484   1
   0  -3  14 -1.2714 2.83250   2
  -1  -3 -14 230.735 9.68466   2
  -1  -3 -14 239.578 8.82573   1
   1  -3  14 250.709 9.76400   2
   1  -3  14 242.726 8.81371   1
  -1  -3  14 246.522 9.41531   2
   1  -3 -14 244.968 8.88713   1
   1  -3 -14 240.260 8.82750   1
   1  -3 -14 248.099 9.97839   2
  -1  -3  14 238.485 8.42681   1
  -2  -3 -14 9.83885 3.28049   1
   2  -3  14 6.81561 3.39774   2
  -2  -3 -14 9.39014 3.56372   2
   2  -3  14 6.37876 3.18864   1
   2  -3 -14 10.0387 3.80631   2
  -2  -3  14 8.45456 3.11787   1
   2  -3 -14 7.08507 3.05705   1
  -2  -3  14 6.27957 3.31083   2
   3  -3  14 25.3582 4.12999   1
  -3  -3 -14 25.1744 4.12460   1
  -3  -3 -14 20.0088 4.31710   2
   3  -3  14 32.0758 4.75317   2
   3  -3 -14 24.0461 4.38001   2
   3  -3 -14 18.8575 3.76839   1
  -3  -3  14 21.0066 4.01803   2
  -3  -3  14 28.8907 3.96578   1
   4  -3  14 112.169 7.18046   1
  -4  -3 -14 130.034 7.32010   1
  -4  -3 -14 130.887 8.27873   2
   4  -3  14 119.432 8.05678   2
  -4  -3  14 146.724 8.07385   2
   4  -3 -14 124.790 7.00040   1
   4  -3 -14 128.999 7.98949   2
  -4  -3  14 136.094 6.79284   1
   5  -3  14 3.20200 3.47909   1
  -5  -3 -14 9.70599 4.03676   2
   5  -3  14 8.44829 3.99053   2
  -5  -3 -14 5.28349 3.39780   1
  -5  -3  14 5.21685 3.04633   1
   5  -3 -14 16.9049 4.37749   2
  -5  -3  14 8.76390 3.89511   3
   5  -3 -14 8.51554 3.41947   1
  -5  -3  14 5.37815 3.55806   2
   6  -3  14 41.1967 5.67907   2
   6  -3  14 33.4489 5.03484   1
  -6  -3 -14 30.1399 4.75923   1
  -6  -3 -14 33.8325 5.39772   2
  -6  -3  14 31.7602 5.02524   2
  -6  -3  14 31.2665 4.28759   1
   6  -3 -14 37.1108 4.75146   1
   6  -3 -14 29.6411 5.24974   2
  -7  -3 -14 98.2311 8.25774   2
  -7  -3 -14 97.2387 7.43560   1
   7  -3  14 104.671 8.51344   2
   7  -3  14 96.7506 7.76836   1
  -7  -3  14 83.6652 6.39916   1
   7  -3 -14 88.1782 6.98518   1
  -7  -3  14 87.6289 7.32287   2
   7  -3 -14 118.896 8.77756   2
   8  -3  14 3.42338 4.33502   2
  -8  -3 -14 8.64858 3.85358   1
   8  -3  14 3.94260 4.06588   1
  -8  -3 -14 1.63251 4.30462   2
   8  -3 -14 2.36018 4.10667   2
  -8  -3  14 0.06084 3.89494   2
   8  -3 -14 1.98492 3.41685   1
  -8  -3  14 0.59439 3.19372   1
  -9  -3 -14 25.9017 4.87606   1
  -9  -3 -14 37.4352 6.52500   2
   9  -3  14 34.5621 6.18276   2
   9  -3  14 33.3787 5.52858   1
   9  -3 -14 29.1443 5.13700   1
  -9  -3  14 32.7490 4.96957   1
  -9  -3  14 38.8685 5.93103   2
  10  -3  14 -6.6527 3.77838   1
 -10  -3 -14 1.22003 4.02890   1
  10  -3 -14 5.92402 3.96589   1
 -10  -3  14 5.38004 3.83620   1
 -10  -3  14 2.37970 4.24856   2
  11  -3  14 588.036 17.6911   1
 -11  -3 -14 606.165 17.5064   1
  11  -3 -14 550.958 17.1923   1
 -11  -3  14 555.966 15.7922   1
 -12  -3 -14 13.5766 5.09125   1
  12  -3  14 7.33329 5.04416   1
  12  -3 -14 9.28221 4.78156   1
 -12  -3  14 17.7608 4.70246   1
 -13  -3 -14 9.41208 4.89085   1
  13  -3  14 12.9988 5.38037   1
  13  -3 -14 13.2033 5.15701   1
 -13  -3  14 11.4542 4.59289   1
   0  -4  14 29.2488 4.47449   2
   0  -4  14 31.8192 3.22358   1
   0  -4 -14 28.1571 4.56441   2
   0  -4  14 34.9739 5.35544   4
   0  -4 -14 35.9555 3.99123   1
  -1  -4 -14 55.6726 5.80313   2
  -1  -4 -14 51.3567 4.61541   1
   1  -4  14 55.0918 5.52504   2
   1  -4  14 50.5916 3.99865   1
   1  -4 -14 44.8364 5.41640   2
  -1  -4  14 54.0282 5.34230   2
  -1  -4  14 61.6105 6.19881   4
   1  -4 -14 49.6304 4.52727   1
  -1  -4  14 55.4882 3.80700   1
   2  -4  14 -1.2525 2.58991   1
   2  -4  14 4.46969 3.42358   2
  -2  -4 -14 -1.2994 2.75842   1
  -2  -4 -14 -2.5607 3.18434   2
  -2  -4  14 3.74965 3.62268   4
  -2  -4  14 2.67866 3.10726   2
   2  -4 -14 3.96453 2.85842   1
  -2  -4  14 1.35876 2.26990   1
   2  -4 -14 -2.1514 3.32982   2
  -3  -4 -14 465.169 14.3698   2
   3  -4  14 483.809 14.2914   2
  -3  -4 -14 485.854 12.1949   1
   3  -4  14 460.531 11.3372   1
  -3  -4  14 481.807 10.3882   1
   3  -4 -14 480.851 14.4521   2
  -3  -4  14 487.509 13.8397   2
   3  -4 -14 472.596 12.3004   1
   3  -4 -14 453.120 12.1563   1
  -3  -4  14 497.785 14.6063   4
  -4  -4 -14 19.7872 3.77530   1
   4  -4  14 24.2044 4.81638   2
   4  -4  14 20.2556 3.71798   1
  -4  -4 -14 26.1045 4.96519   2
   4  -4 -14 15.5828 3.56246   1
  -4  -4  14 19.0514 4.13510   2
  -4  -4  14 31.3598 5.42650   4
   4  -4 -14 23.7703 4.76363   2
  -4  -4  14 31.5701 3.37563   1
  -5  -4 -14 45.3092 5.99663   2
   5  -4  14 48.0574 5.86781   2
   5  -4  14 50.3911 4.91862   1
  -5  -4 -14 55.2941 5.07647   1
   5  -4 -14 47.5826 4.81238   1
   5  -4 -14 41.3188 5.69705   2
  -5  -4  14 47.5412 5.62988   2
  -5  -4  14 49.7329 3.88038   1
  -6  -4 -14 84.1077 7.76692   2
   6  -4  14 83.7499 6.19024   1
   6  -4  14 86.5096 7.60216   2
  -6  -4 -14 93.8561 6.68712   1
  -6  -4  14 84.0218 7.22631   2
   6  -4 -14 88.0852 7.61211   2
  -6  -4  14 99.2057 5.41046   1
   6  -4 -14 89.3658 6.61468   1
  -7  -4 -14 16.6246 4.09124   1
  -7  -4 -14 13.3883 4.68589   2
   7  -4  14 8.30932 3.86787   1
   7  -4  14 12.5975 4.81351   2
  -7  -4  14 8.84448 4.18970   2
   7  -4 -14 9.79621 4.62968   2
  -7  -4  14 9.42501 3.16949   1
   7  -4 -14 10.2616 3.89426   1
   8  -4  14 81.0941 7.85608   2
  -8  -4 -14 95.8712 8.65899   2
   8  -4  14 73.2622 6.46435   1
  -8  -4 -14 66.2976 6.13245   1
   8  -4 -14 64.8781 6.03430   1
  -8  -4  14 78.2900 5.76239   1
   8  -4 -14 68.7060 7.58220   2
  -8  -4  14 92.0047 7.83723   2
   9  -4  14 325.418 11.7832   1
  -9  -4 -14 310.700 11.3126   1
   9  -4  14 317.638 14.0644   2
  -9  -4 -14 310.164 14.0837   2
  -9  -4  14 295.574 12.9079   2
  -9  -4  14 316.637 9.72896   1
   9  -4 -14 320.797 11.5836   1
   9  -4 -14 301.212 13.7258   2
 -10  -4 -14 39.4798 6.99083   2
  10  -4  14 38.1207 5.56803   1
  10  -4  14 47.1931 6.95367   2
 -10  -4 -14 52.8864 5.97242   1
  10  -4 -14 43.8863 5.72451   1
 -10  -4  14 52.5283 7.14341   2
 -10  -4  14 48.5426 5.04042   1
 -11  -4 -14 327.631 15.3801   2
  11  -4  14 299.847 12.3334   1
 -11  -4 -14 320.473 12.0009   1
 -11  -4  14 324.666 10.8054   1
  11  -4 -14 302.380 12.3766   1
 -11  -4  14 326.609 14.2533   2
  12  -4  14 97.7899 8.21589   1
 -12  -4 -14 88.0769 7.28400   1
  12  -4 -14 102.847 8.22882   1
 -12  -4  14 78.2326 8.70319   2
 -12  -4  14 105.871 7.37886   1
   0  -5 -14 -0.3422 3.32703   2
   0  -5  14 -0.4087 4.26523   4
   0  -5  14 2.85136 3.17995   2
  -1  -5 -14 173.250 9.29214   2
   1  -5  14 176.538 8.74815   2
  -1  -5  14 184.394 8.70628   2
  -1  -5  14 178.992 10.4639   4
   1  -5 -14 178.992 9.41131   2
   2  -5  14 -1.4841 3.31136   2
  -2  -5 -14 -0.4616 3.44490   2
   2  -5 -14 4.95708 3.76379   2
  -2  -5  14 -1.0312 3.20186   2
  -2  -5  14 0.13872 4.32430   4
  -3  -5 -14 2.56453 3.85862   2
   3  -5  14 10.8179 4.09158   2
   3  -5 -14 2.71819 3.65439   2
  -3  -5  14 1.89690 3.33223   2
  -3  -5  14 11.3919 4.78747   4
  -4  -5 -14 110.168 8.55634   2
   4  -5  14 108.004 8.20213   2
  -4  -5  14 122.225 9.50723   4
   4  -5 -14 126.530 8.48846   2
  -4  -5  14 114.837 7.85506   2
  -5  -5 -14 8.72961 4.37818   2
   5  -5  14 13.9731 4.75280   2
  -5  -5  14 19.4741 5.66105   4
  -5  -5  14 7.88474 4.02647   2
   5  -5 -14 16.0192 4.73592   2
  -6  -5 -14 16.6725 5.10280   2
   6  -5  14 22.7702 5.27818   2
   6  -5 -14 21.3478 3.57731   1
   6  -5 -14 22.5755 5.13844   2
  -6  -5  14 28.1007 5.13986   2
  -6  -5  14 9.31315 5.14740   4
   7  -5  14 78.3319 7.93863   2
  -7  -5 -14 63.7329 7.42027   2
   7  -5 -14 79.4089 7.78200   2
  -7  -5  14 73.3327 7.14949   2
   7  -5 -14 85.5662 6.02045   1
  -7  -5  14 91.6977 8.99512   4
   8  -5  14 -0.0229 4.47185   2
  -8  -5 -14 8.98579 4.74698   2
  -8  -5  14 0.58879 4.01731   2
   8  -5 -14 4.93867 4.76715   2
   8  -5 -14 -3.1658 3.10195   1
   9  -5  14 33.0115 6.38444   2
  -9  -5 -14 21.0073 5.82881   2
   9  -5 -14 33.9345 6.41497   2
  -9  -5  14 23.8094 5.43350   2
   9  -5 -14 26.0300 4.43564   1
  10  -5  14 1.09072 4.85251   2
 -10  -5 -14 2.57351 5.03873   2
 -10  -5  14 1.21310 4.52742   2
  10  -5 -14 2.31872 3.83072   1
  10  -5 -14 3.45946 4.97911   2
   0  -6  14 80.6589 6.68391   2
   0  -6 -14 83.9449 7.21666   2
   1  -6  14 116.653 7.94605   2
  -1  -6 -14 113.760 8.31675   2
  -1  -6  14 113.112 7.72824   2
   1  -6 -14 106.809 8.38265   2
  -1  -6  14 110.961 10.1585   4
  -2  -6 -14 108.587 8.30379   2
   2  -6  14 96.9331 7.69552   2
   2  -6 -14 80.8196 7.10693   2
  -2  -6  14 88.7597 7.05341   2
  -2  -6  14 94.5449 9.37802   4
  -3  -6 -14 6.33202 4.10078   2
   3  -6  14 10.5166 4.05446   2
   3  -6 -14 13.8439 4.50697   2
  -3  -6  14 6.11787 3.71766   2
  -3  -6  14 3.05778 5.00187   4
  -4  -6 -14 51.3514 6.41423   2
   4  -6  14 37.0720 5.64952   2
  -4  -6  14 54.8273 7.87133   4
   4  -6 -14 48.3433 6.24363   2
  -4  -6  14 42.8859 5.44230   2
  -5  -6 -14 266.682 12.1056   2
   5  -6  14 253.786 11.7200   2
  -5  -6  14 277.617 13.9978   4
  -5  -6  14 260.428 11.1207   2
   5  -6 -14 255.540 11.9876   2
   6  -6  14 185.583 10.9082   2
  -6  -6 -14 190.106 10.9642   2
  -6  -6  14 186.510 9.92894   2
   6  -6 -14 184.078 10.9758   2
  -6  -6  14 191.428 12.5917   4
   7  -6  14 274.660 12.9317   2
  -7  -6 -14 265.043 12.8691   2
  -7  -6  14 283.872 14.7819   4
   7  -6 -14 266.079 12.8340   2
  -7  -6  14 256.962 11.7227   2
   8  -6  14 17.4035 5.75191   2
  -8  -6 -14 27.0738 6.00343   2
  -8  -6  14 21.1121 5.27435   2
   8  -6 -14 25.7773 6.05253   2
  -8  -6  14 30.7722 7.28015   4
   0  -7  14 -3.7428 3.53546   2
   0  -7 -14 -1.1317 3.72750   2
   1  -7  14 110.243 8.21081   2
  -1  -7 -14 88.9965 7.54941   2
  -1  -7  14 98.6259 10.5226   4
   1  -7 -14 109.269 8.33946   2
  -1  -7  14 94.9518 7.71907   2
   2  -7  14 4.92761 3.88935   2
  -2  -7 -14 4.50469 3.98944   2
   2  -7 -14 0.50470 4.00853   2
  -2  -7  14 -1.2036 5.47263   4
  -2  -7  14 2.19799 3.69593   2
   3  -7  14 12.2075 4.84433   2
  -3  -7 -14 11.9900 4.83694   2
  -3  -7  14 10.9559 4.15319   2
   3  -7 -14 17.3705 5.07977   2
  -3  -7  14 24.4745 6.96215   4
  -4  -7 -14 51.6414 6.63094   2
   4  -7  14 64.8089 6.92585   2
   4  -7 -14 43.9484 6.40542   2
  -4  -7  14 59.3901 9.01200   4
  -4  -7  14 57.6460 6.37928   2
   0   0 -15 3.71136 3.13096   1
   0   0  15 0.49600 3.11072   1
  -1   0  15 408.604 12.4099   1
  -1   0 -15 384.623 12.2607   1
   1   0  15 431.518 12.7356   1
   1   0 -15 378.017 12.0424   1
  -2   0  15 33.4081 4.58858   1
   2   0 -15 31.2693 4.54969   1
   2   0  15 32.1780 4.63374   1
  -2   0 -15 35.7640 4.93161   1
  -2   0  15 30.4198 4.53239   3
  -3   0 -15 8.27142 3.77322   1
   3   0  15 1.75500 3.28072   1
  -3   0  15 5.81853 3.42691   1
  -3   0  15 3.90094 3.31551   3
  -3   0 -15 9.36313 3.70197   1
   3   0 -15 10.6406 3.59518   1
   4   0  15 14.4194 4.14376   1
   4   0 -15 20.7401 4.06316   1
  -4   0 -15 20.2286 4.38636   1
  -4   0  15 21.3244 4.16484   1
   5   0  15 42.3551 5.66187   1
  -5   0  15 49.9745 5.58492   1
  -5   0 -15 43.5355 5.46280   1
   5   0 -15 42.8940 5.30526   1
   6   0 -15 182.034 9.27787   1
  -6   0  15 187.650 9.32237   1
  -6   0 -15 187.551 9.67932   1
   6   0  15 181.214 9.83946   1
  -7   0 -15 659.730 18.2804   1
   7   0  15 633.263 18.2042   1
  -7   0  15 590.929 16.9883   1
   7   0 -15 657.923 17.5625   1
  -8   0  15 131.194 8.80814   1
  -8   0 -15 122.088 9.09025   1
   8   0  15 149.334 9.87463   1
   8   0 -15 132.256 8.83425   1
  -9   0 -15 130.181 9.62928   1
  -9   0  15 105.754 8.56113   1
   9   0  15 107.807 9.14303   1
   9   0 -15 108.370 8.74395   1
 -10   0 -15 8.92216 4.76943   1
  10   0 -15 6.83466 4.62618   1
 -10   0  15 4.62106 4.40718   1
  10   0  15 -0.8136 4.47552   1
 -11   0 -15 60.4591 7.63735   1
 -11   0  15 55.0634 7.10530   1
  11   0 -15 61.0147 7.60302   1
  11   0  15 68.0549 8.16742   1
  12   0 -15 4.28011 5.07921   1
  12   0  15 -2.0964 4.71137   1
 -12   0 -15 -2.2979 4.92211   1
 -12   0  15 -3.7729 4.15623   1
  13   0 -15 -0.9714 5.34351   1
 -13   0 -15 -8.0646 4.72228   1
  13   0  15 6.76067 5.60221   1
 -13   0  15 5.57332 4.97077   1
  14   0  15 14.7276 6.35309   1
 -14   0 -15 -2.8925 5.04668   1
 -14   0  15 12.5236 5.86662   1
   0   1  15 1192.43 24.7602   1
   0  -1 -15 1208.04 24.7336   2
   0  -1 -15 1220.24 24.6917   1
   0  -1  15 1204.51 24.6807   2
   0   1 -15 1210.84 24.7264   1
   0  -1  15 1218.00 24.5865   1
   1   1 -15 26.6317 4.46278   1
   1  -1  15 17.7922 3.94512   2
  -1  -1 -15 24.3877 4.32274   2
  -1  -1 -15 27.3289 4.40396   1
   1  -1  15 23.4758 4.24104   1
  -1   1  15 27.8400 4.33106   1
   1   1  15 23.0729 4.28580   1
  -1  -1  15 29.5284 4.26060   1
   1  -1 -15 29.1817 4.54191   2
  -1  -1  15 31.2077 4.41455   3
  -1  -1  15 22.0166 3.96495   2
   1  -1 -15 26.8216 4.23258   1
  -1   1 -15 23.8709 4.38978   1
  -2  -1 -15 0.16368 3.20585   1
   2  -1  15 2.05490 3.20556   2
   2  -1  15 0.85409 3.18074   1
   2   1 -15 6.07755 3.33145   1
  -2  -1 -15 2.74337 3.35652   1
  -2  -1 -15 4.75118 3.50399   2
  -2   1  15 7.91982 3.32847   3
  -2   1  15 -0.6699 3.03962   1
  -2  -1  15 1.83860 2.80683   2
  -2   1 -15 -3.2066 2.93663   1
   2   1  15 -0.9543 3.17267   1
   2  -1 -15 3.01961 3.12426   1
  -2  -1  15 7.59165 3.46808   3
  -2  -1  15 -0.4863 3.06363   1
   3  -1  15 122.561 7.67193   1
   3  -1  15 110.309 7.65303   2
  -3   1  15 106.177 7.28334   1
  -3  -1 -15 115.395 7.37984   1
   3   1 -15 109.254 7.13869   1
  -3  -1  15 112.014 7.48566   3
   3   1  15 98.4449 7.46141   1
  -3  -1  15 115.687 7.23097   1
  -3   1 -15 114.957 7.70256   1
  -3  -1  15 110.776 7.45555   2
   3  -1 -15 125.586 7.44496   1
   4  -1  15 3.95146 3.52257   2
  -4  -1 -15 3.15297 3.36882   1
  -4   1  15 1.58363 3.37466   1
   4  -1  15 5.18381 3.65082   1
  -4   1 -15 3.91630 3.67943   1
  -4  -1  15 2.51966 3.25532   3
  -4  -1  15 9.57419 3.52779   1
   4   1  15 3.28311 3.57230   1
  -4  -1  15 9.48856 3.68923   2
   4  -1 -15 4.36527 3.29798   1
  -4   1 -15 10.1084 3.86539   1
  -5  -1 -15 1.39891 3.51448   1
   5  -1  15 7.60165 3.95914   1
  -5   1  15 -1.9630 3.19874   1
  -5   1 -15 -0.2641 3.51313   1
   5  -1 -15 -2.0516 3.04259   1
  -5  -1  15 -1.6201 3.20918   2
  -5  -1  15 2.27624 3.25913   1
   5   1  15 -1.3039 3.69001   1
  -6  -1 -15 -1.5360 3.52904   1
   6  -1  15 0.37375 3.89824   1
  -6   1  15 9.32434 4.00555   1
  -6   1 -15 0.46902 3.71921   1
  -6  -1  15 6.42526 3.67713   1
   6   1  15 4.95276 4.20081   1
   6  -1 -15 5.78735 3.64955   1
  -7   1  15 269.893 11.1916   1
  -7  -1 -15 243.839 11.1040   1
   7  -1  15 252.252 11.4062   1
   7   1  15 275.300 12.1239   1
  -7  -1  15 253.183 10.7974   1
   7  -1 -15 248.316 10.8845   1
  -8  -1 -15 59.6016 6.82252   1
  -8   1  15 67.9423 7.00256   1
   8  -1  15 55.8354 6.99391   1
  -8  -1  15 65.6542 6.63018   1
   8  -1 -15 71.8569 6.96065   1
   8   1  15 58.1662 7.29338   1
  -9  -1 -15 6.68115 4.40777   1
  -9   1  15 -1.8620 3.96378   1
   9  -1  15 -0.4309 4.21418   1
  -9  -1  15 4.22666 4.00033   1
   9  -1 -15 -1.0966 3.85144   1
 -10  -1 -15 68.0376 7.65419   1
  10  -1  15 66.6946 7.61392   1
 -10   1  15 54.4854 6.94948   1
 -10  -1  15 60.2485 6.84538   1
  10  -1 -15 64.4912 7.30297   1
 -11   1  15 67.6309 7.94908   1
  11  -1  15 65.3247 8.35148   1
 -11  -1 -15 73.5107 8.12205   1
 -11  -1  15 72.6461 7.54739   1
  11  -1 -15 71.9764 7.68727   1
 -12   1  15 242.168 12.9994   1
  12  -1  15 280.001 13.6598   1
 -12  -1 -15 270.525 13.2836   1
  12  -1 -15 244.583 12.7184   1
 -12  -1  15 252.349 12.3507   1
  13  -1  15 102.371 9.74839   1
 -13   1  15 96.3366 9.41440   1
 -13  -1 -15 81.3256 8.84538   1
  13  -1 -15 73.5931 8.29516   1
 -13  -1  15 90.2197 8.65898   1
  14  -1  15 51.8228 7.83028   1
 -14  -1 -15 37.3033 7.13674   1
 -14   1  15 32.7515 7.08157   1
  14  -1 -15 51.2366 7.73982   1
 -14  -1  15 48.5964 7.26432   1
   0  -2  15 -0.7925 2.74632   1
   0  -2  15 2.49358 3.18883   2
   0  -2  15 -1.5632 2.83643   3
   0  -2 -15 0.64185 2.99010   1
   0  -2 -15 -6.0008 2.70963   2
   1  -2  15 585.840 15.1639   1
  -1  -2 -15 599.440 15.5483   1
  -1  -2 -15 638.534 15.9308   1
   1  -2  15 620.768 15.9116   2
  -1  -2 -15 646.063 16.4113   2
  -1  -2  15 616.094 15.5815   3
  -1  -2  15 626.129 15.3605   1
   1  -2 -15 615.348 15.5209   1
  -1  -2  15 626.847 16.0226   2
   1  -2 -15 620.282 16.0978   2
  -2  -2 -15 17.3982 3.88167   1
   2  -2  15 19.2456 4.04022   1
  -2  -2 -15 19.1013 4.14715   2
   2  -2  15 11.8223 3.87219   2
  -2  -2  15 15.6643 3.71575   3
  -2  -2  15 11.7517 3.52142   1
   2  -2 -15 25.4318 4.25523   1
   2  -2 -15 20.1953 4.30611   2
  -2  -2  15 8.48431 3.48538   2
  -3  -2 -15 296.317 11.3145   2
  -3  -2 -15 288.023 10.7239   1
   3  -2  15 296.431 11.2143   2
   3  -2  15 272.949 10.4978   1
   3  -2 -15 297.215 11.0322   2
  -3  -2  15 306.467 10.9850   2
   3  -2 -15 285.186 10.4771   1
  -3  -2  15 287.787 10.1355   1
  -3  -2  15 298.988 10.7506   3
   4  -2  15 42.1502 5.49218   2
  -4  -2 -15 38.1730 5.45143   2
   4  -2  15 37.0493 5.04966   1
  -4  -2 -15 39.0048 5.17866   1
   4  -2 -15 38.7572 5.01696   1
  -4  -2  15 36.4984 4.86858   3
   4  -2 -15 43.7723 5.65521   2
  -4  -2  15 33.4888 4.87219   2
  -4  -2  15 41.8611 4.83001   1
  -5  -2 -15 19.7376 4.40506   1
   5  -2  15 19.4908 4.53969   2
  -5  -2 -15 14.2327 4.50281   2
   5  -2  15 15.2273 4.27902   1
   5  -2 -15 9.63485 4.25566   2
  -5  -2  15 26.3188 4.65708   2
   5  -2 -15 15.7405 4.08332   1
  -5  -2  15 13.3679 3.76200   1
   6  -2  15 350.431 12.8804   2
   6  -2  15 311.409 11.9797   1
  -6  -2 -15 310.472 12.5940   2
  -6  -2 -15 284.626 11.5003   1
   6  -2 -15 320.549 11.4793   1
  -6  -2  15 336.385 12.2537   2
  -6  -2  15 327.451 11.1356   1
  -7  -2 -15 154.876 9.15292   1
   7  -2  15 155.979 9.27000   1
   7  -2  15 176.476 11.5756   2
   7  -2 -15 151.662 8.82504   1
  -7  -2  15 153.974 9.46715   2
  -7  -2  15 151.011 8.32892   1
   8  -2  15 260.775 11.6453   1
  -8  -2 -15 243.472 11.2316   1
  -8  -2  15 245.145 10.3588   1
  -8  -2  15 246.000 11.8208   2
   8  -2 -15 265.668 11.2319   1
  -9  -2 -15 252.575 11.8216   1
   9  -2  15 251.129 11.9321   1
   9  -2 -15 265.058 11.6667   1
  -9  -2  15 270.926 11.1392   1
  10  -2  15 70.6581 7.71234   1
 -10  -2 -15 82.2134 7.67600   1
 -10  -2  15 64.8972 6.81463   1
  10  -2 -15 60.0624 7.02689   1
  11  -2  15 721.201 20.9597   1
 -11  -2 -15 705.282 20.3127   1
 -11  -2  15 717.383 19.5261   1
  11  -2 -15 680.734 19.9441   1
 -12  -2 -15 4.14655 4.42317   1
  12  -2  15 -3.1725 4.61072   1
 -12  -2  15 1.53346 4.12858   1
  12  -2 -15 -0.4735 4.45863   1
 -13  -2 -15 5.34739 4.93918   1
  13  -2  15 8.09124 5.30897   1
  13  -2 -15 8.61277 5.06851   1
 -13  -2  15 8.09966 4.76956   1
   0  -3 -15 931.742 19.9467   1
   0  -3  15 925.541 20.8636   2
   0  -3 -15 944.623 21.2861   2
   0  -3  15 931.884 19.5711   1
  -1  -3 -15 29.3650 4.65142   2
  -1  -3 -15 21.3616 3.91005   1
   1  -3  15 23.1206 4.29919   2
   1  -3  15 25.6167 4.20869   1
   1  -3 -15 23.2092 4.03582   1
  -1  -3  15 26.7047 4.55451   2
  -1  -3  15 24.4793 3.86868   1
   1  -3 -15 28.2727 4.86763   2
   1  -3 -15 22.7474 3.99513   1
   2  -3  15 2.66598 3.43479   2
   2  -3  15 4.77381 3.29240   1
  -2  -3 -15 5.85340 3.26797   1
  -2  -3 -15 -0.2462 3.18521   2
   2  -3 -15 5.75061 3.64830   2
   2  -3 -15 5.28869 3.08143   1
  -2  -3  15 2.35052 2.96667   1
  -2  -3  15 1.11158 3.15624   2
  -3  -3 -15 83.8968 6.96964   2
  -3  -3 -15 78.7487 6.36418   1
   3  -3  15 82.1188 6.85476   2
   3  -3  15 82.9171 6.45449   1
  -3  -3  15 85.4761 6.06973   1
   3  -3 -15 66.9724 5.78506   1
  -3  -3  15 87.7742 6.98101   2
   3  -3 -15 72.4999 6.62108   2
  -4  -3 -15 0.68212 3.16012   1
  -4  -3 -15 0.53607 3.61406   2
   4  -3  15 7.10460 3.94591   2
   4  -3  15 7.45102 3.64922   1
   4  -3 -15 7.02167 3.75778   2
   4  -3 -15 6.81781 3.38760   1
  -4  -3  15 5.99673 3.19650   1
  -4  -3  15 -3.0655 3.00637   2
  -5  -3 -15 -2.0481 3.23658   1
   5  -3  15 -0.0710 3.65751   2
  -5  -3 -15 2.98566 3.98412   2
   5  -3  15 0.17195 3.32888   1
  -5  -3  15 -1.0809 3.40233   2
   5  -3 -15 -0.6452 3.51941   2
   5  -3 -15 0.05213 3.04724   1
  -5  -3  15 -5.7914 2.78378   1
  -6  -3 -15 -2.3758 3.27170   1
   6  -3  15 9.44018 3.99927   1
  -6  -3 -15 1.07307 4.00726   2
   6  -3  15 0.88748 3.84743   2
   6  -3 -15 8.43016 4.07967   2
  -6  -3  15 3.36203 3.64812   2
  -6  -3  15 4.83209 3.38492   1
   6  -3 -15 7.35161 3.62930   1
  -7  -3 -15 226.737 10.1087   1
   7  -3  15 229.051 11.8555   2
   7  -3  15 255.318 10.8250   1
  -7  -3 -15 238.231 11.8179   2
  -7  -3  15 223.116 9.26257   1
  -7  -3  15 239.549 11.1423   2
   7  -3 -15 209.812 9.89926   1
   7  -3 -15 252.447 11.7584   2
  -8  -3 -15 53.0268 6.15076   1
   8  -3  15 52.3371 7.03839   2
   8  -3  15 51.3906 6.23466   1
  -8  -3 -15 48.5163 6.84225   2
  -8  -3  15 52.6882 6.61397   2
  -8  -3  15 51.7111 5.48385   1
   8  -3 -15 46.9542 5.82924   1
   9  -3  15 -2.4751 3.87036   1
  -9  -3 -15 8.50960 4.33718   1
  -9  -3  15 1.31728 3.66877   1
   9  -3 -15 4.35292 4.07153   1
  -9  -3  15 0.65258 4.30940   2
 -10  -3 -15 65.3315 6.90162   1
  10  -3  15 69.2481 7.11271   1
 -10  -3  15 52.6887 6.00245   1
 -10  -3  15 63.3638 7.37722   2
  10  -3 -15 59.1077 6.69289   1
 -11  -3 -15 57.6250 6.77468   1
  11  -3  15 48.1425 6.83135   1
  11  -3 -15 58.3220 6.86249   1
 -11  -3  15 60.5247 6.35182   1
 -12  -3 -15 234.347 11.7917   1
  12  -3  15 219.368 11.9757   1
 -12  -3  15 222.161 10.7680   1
  12  -3 -15 230.855 11.8446   1
  13  -3  15 68.0008 7.78997   1
 -13  -3 -15 67.8036 7.71227   1
 -13  -3  15 59.9024 6.69603   1
  13  -3 -15 64.3576 7.71860   1
   0  -4  15 3.42556 3.36340   2
   0  -4  15 -0.8735 2.58479   1
   0  -4 -15 0.06693 2.93738   1
   0  -4 -15 3.38490 3.60579   2
  -1  -4 -15 214.464 8.51630   1
   1  -4  15 231.265 7.72296   1
  -1  -4 -15 220.425 10.2577   2
   1  -4  15 237.052 9.95582   2
  -1  -4  15 227.229 9.76015   2
  -1  -4  15 237.531 7.46621   1
   1  -4 -15 233.304 8.66992   1
   1  -4 -15 235.344 10.4468   2
   2  -4  15 20.4805 4.51816   2
  -2  -4 -15 19.6721 3.84248   1
  -2  -4 -15 15.1802 4.30614   2
   2  -4  15 16.9059 3.49536   1
  -2  -4  15 16.1999 3.14491   1
   2  -4 -15 14.7623 4.36987   2
   2  -4 -15 20.2181 3.82408   1
  -2  -4  15 14.5610 4.06979   2
  -3  -4 -15 5.79692 3.29228   1
  -3  -4 -15 3.96190 3.86468   2
   3  -4  15 5.85291 3.24986   1
   3  -4  15 8.05903 3.93916   2
  -3  -4  15 4.40484 3.59637   2
   3  -4 -15 3.18151 3.89441   2
  -3  -4  15 8.74357 2.99153   1
   3  -4 -15 10.3373 3.50340   1
   3  -4 -15 5.35414 3.34744   1
  -4  -4 -15 22.8668 4.07564   1
  -4  -4 -15 22.1448 4.92057   2
   4  -4  15 10.1993 4.26278   2
   4  -4  15 18.8686 3.98135   1
   4  -4 -15 15.9577 3.68678   1
  -4  -4  15 9.55781 4.15408   2
  -4  -4  15 18.6762 3.38066   1
   4  -4 -15 14.6529 4.59066   2
  -5  -4 -15 30.4467 5.43917   2
  -5  -4 -15 32.8274 4.59702   1
   5  -4  15 24.6224 5.24852   2
   5  -4  15 25.3599 4.32453   1
   5  -4 -15 19.5959 3.94084   1
  -5  -4  15 27.5727 3.61232   1
   5  -4 -15 24.7036 5.24013   2
  -5  -4  15 25.6613 5.03017   2
  -6  -4 -15 134.558 9.53476   2
   6  -4  15 114.911 7.52606   1
  -6  -4 -15 129.523 7.66871   1
   6  -4  15 113.823 9.12018   2
  -6  -4  15 121.581 6.22207   1
   6  -4 -15 114.753 7.49730   1
   6  -4 -15 121.236 9.23196   2
  -6  -4  15 135.568 8.95239   2
  -7  -4 -15 398.664 12.5364   1
   7  -4  15 408.629 15.4767   2
   7  -4  15 419.735 12.8747   1
  -7  -4 -15 447.584 15.5031   2
  -7  -4  15 422.911 14.6756   2
  -7  -4  15 417.166 11.0894   1
   7  -4 -15 420.655 15.2025   2
   7  -4 -15 429.428 12.8914   1
  -8  -4 -15 114.335 9.62881   2
   8  -4  15 124.979 9.95808   2
  -8  -4 -15 109.237 7.71932   1
   8  -4  15 100.385 7.51391   1
   8  -4 -15 118.340 7.90527   1
   8  -4 -15 121.705 9.76957   2
  -8  -4  15 87.0476 8.02068   2
  -8  -4  15 110.068 6.53202   1
  -9  -4 -15 74.4315 8.47237   2
   9  -4  15 75.7896 7.11674   1
   9  -4  15 82.4996 8.60629   2
  -9  -4 -15 88.7657 6.99884   1
   9  -4 -15 82.8097 6.97030   1
  -9  -4  15 92.8905 6.56909   1
  -9  -4  15 87.1406 8.14325   2
  10  -4  15 8.73668 5.55030   2
 -10  -4 -15 6.17244 5.17087   2
  10  -4  15 10.1147 4.72618   1
 -10  -4 -15 5.27265 4.29639   1
 -10  -4  15 4.35855 3.46028   1
 -10  -4  15 10.0796 5.06148   2
  10  -4 -15 7.82597 4.13138   1
 -11  -4 -15 38.3990 5.57799   1
  11  -4  15 32.4425 6.07245   1
  11  -4 -15 39.1162 5.86019   1
 -11  -4  15 37.4897 6.64140   2
 -11  -4  15 37.5675 4.98087   1
   0  -5  15 708.780 18.0391   2
   0  -5 -15 690.041 18.4973   2
  -1  -5 -15 4.66945 4.01555   2
   1  -5  15 12.1244 4.13731   2
   1  -5 -15 9.10592 4.38839   2
  -1  -5  15 3.84001 3.56596   2
  -2  -5 -15 4.82463 3.92929   2
   2  -5  15 2.45695 3.83652   2
   2  -5 -15 3.43870 3.92740   2
  -2  -5  15 4.85202 3.38261   2
   3  -5  15 75.0862 7.01458   2
  -3  -5 -15 75.1252 7.10658   2
   3  -5 -15 85.1263 7.57841   2
  -3  -5  15 70.0352 6.48092   2
   4  -5  15 -4.9493 3.59847   2
  -4  -5 -15 4.73662 4.18765   2
   4  -5 -15 -3.9264 3.72240   2
  -4  -5  15 1.09838 3.64750   2
  -5  -5 -15 -7.2451 3.60717   2
   5  -5  15 8.13117 4.19634   2
   5  -5 -15 -0.5044 3.99216   2
  -5  -5  15 1.11936 3.73162   2
  -6  -5 -15 -0.7715 4.33115   2
   6  -5  15 0.52782 4.44330   2
  -6  -5  15 10.2547 4.36536   2
   6  -5 -15 3.09335 3.17659   1
   6  -5 -15 1.62020 4.20729   2
  -7  -5 -15 133.630 10.0942   2
   7  -5  15 130.890 10.0575   2
  -7  -5  15 131.588 9.38516   2
   7  -5 -15 131.396 7.11919   1
   7  -5 -15 127.643 7.00648   1
   7  -5 -15 130.407 10.0338   2
   8  -5  15 42.6025 6.78850   2
  -8  -5 -15 48.4808 7.05829   2
  -8  -5  15 49.6349 6.63536   2
   8  -5 -15 48.9563 5.20871   1
   8  -5 -15 44.0235 6.74898   2
   9  -5  15 5.84066 5.13732   2
  -9  -5 -15 -1.9575 4.74318   2
  -9  -5  15 8.70003 4.86874   2
   9  -5 -15 6.14603 4.97411   2
   9  -5 -15 -3.3132 3.40003   1
 -10  -5 -15 37.5189 7.13170   2
  10  -5  15 45.0792 7.42824   2
  10  -5 -15 45.6860 7.66352   2
  10  -5 -15 43.8320 5.49417   1
 -10  -5  15 35.0976 6.51070   2
   0  -6  15 3.26729 3.70583   2
   0  -6 -15 0.44390 3.82587   2
   1  -6  15 250.893 11.0833   2
  -1  -6 -15 283.647 11.8681   2
  -1  -6  15 270.942 10.9781   2
   1  -6 -15 292.940 12.0503   2
  -1  -6  15 263.074 13.7318   4
  -2  -6 -15 3.73957 4.11318   2
   2  -6  15 8.14661 4.22212   2
   2  -6 -15 6.70202 4.39313   2
  -2  -6  15 6.20188 5.47235   4
  -2  -6  15 6.14480 3.85933   2
  -3  -6 -15 160.274 9.88387   2
   3  -6  15 152.494 9.42819   2
   3  -6 -15 130.395 9.26828   2
  -3  -6  15 146.631 8.97939   2
  -4  -6 -15 29.4992 5.53936   2
   4  -6  15 22.1652 5.16978   2
  -4  -6  15 13.4048 4.55883   2
   4  -6 -15 22.6658 5.43383   2
   5  -6  15 15.5374 5.01230   2
  -5  -6 -15 1.87456 4.76787   2
   5  -6 -15 20.0439 5.36234   2
  -5  -6  15 10.6308 4.47169   2
  -6  -6 -15 180.631 11.2028   2
   6  -6  15 161.239 10.8468   2
   6  -6 -15 157.255 10.6905   2
  -6  -6  15 168.265 9.95727   2
   7  -6  15 83.9491 8.50115   2
  -7  -6 -15 68.3242 7.94733   2
   7  -6 -15 69.9212 7.84614   2
  -7  -6  15 74.9056 7.48744   2
   0  -7 -15 400.786 14.3550   2
   0  -7  15 396.154 13.6362   2
  -1  -7 -15 15.2763 4.75164   2
   1  -7  15 7.95165 4.23294   2
   1  -7 -15 6.82683 4.73806   2
  -1  -7  15 9.32296 4.31994   2
   2  -7  15 -2.2005 3.83558   2
  -2  -7 -15 6.87865 4.47265   2
  -2  -7  15 3.96516 4.05981   2
  -2  -7  15 -4.8618 5.20039   4
   2  -7 -15 -0.8205 4.26671   2
   0   0 -16 7.43120 3.68619   1
   0   0  16 8.17024 3.59462   1
  -1   0  16 596.200 15.7836   1
   1   0  16 568.888 15.8426   1
  -1   0 -16 590.687 15.8404   1
   1   0 -16 582.950 15.6510   1
   2   0 -16 120.767 7.81886   1
  -2   0 -16 133.602 8.15955   1
   2   0  16 149.187 8.51561   1
  -2   0  16 135.828 7.94745   1
   3   0  16 161.407 8.74619   1
  -3   0 -16 152.006 8.76427   1
  -3   0 -16 154.932 8.82074   1
  -3   0  16 168.676 8.59402   1
   3   0 -16 153.160 8.42976   1
  -4   0  16 303.863 11.4413   1
   4   0  16 338.046 12.2228   1
  -4   0 -16 317.026 11.9462   1
   4   0 -16 315.151 11.6387   1
  -5   0  16 308.027 11.6780   1
   5   0  16 329.519 12.6295   1
  -5   0 -16 353.940 12.7321   1
   5   0 -16 321.822 11.9384   1
   6   0  16 203.570 10.5556   1
  -6   0  16 158.423 9.13957   1
  -6   0 -16 186.287 10.1851   1
   7   0 -16 608.367 17.3278   1
  -7   0 -16 597.804 17.8186   1
   7   0  16 595.211 17.9217   1
  -7   0  16 597.556 17.2319   1
  -8   0  16 29.1396 5.37144   1
   8   0 -16 27.7103 5.50607   1
   8   0  16 22.2516 5.66495   1
  -8   0 -16 25.4263 5.46618   1
  -9   0 -16 -0.4838 4.35431   1
   9   0 -16 -3.1365 3.93833   1
   9   0  16 1.71006 4.65037   1
  -9   0  16 2.19933 4.00819   1
 -10   0 -16 90.6237 8.71060   1
  10   0  16 99.6916 9.47522   1
 -10   0  16 98.6402 8.59874   1
  10   0 -16 90.7160 8.55022   1
 -11   0 -16 77.4264 8.71103   1
 -11   0  16 59.7451 7.35138   1
  11   0  16 62.7652 8.08191   1
  11   0 -16 58.1721 7.54607   1
  12   0  16 146.303 11.4332   1
 -12   0 -16 145.365 11.1658   1
 -12   0  16 136.479 10.8161   1
  12   0 -16 152.859 11.1782   1
  13   0  16 3.45389 5.55655   1
 -13   0 -16 0.48758 5.40937   1
 -13   0  16 -1.2398 5.03189   1
   0   1 -16 -1.1934 3.16713   1
   0  -1 -16 5.82866 3.42064   1
   0   1  16 -0.4866 3.31914   1
   0  -1  16 0.33048 3.20587   1
   0  -1  16 6.46655 3.46066   2
   1   1 -16 4.15564 3.53714   1
   1  -1  16 9.82613 3.80359   1
   1  -1  16 4.59200 3.49589   2
  -1   1  16 3.48291 3.53223   1
  -1  -1 -16 4.85772 3.45439   1
  -1  -1  16 6.73516 3.51277   3
  -1  -1  16 8.19197 3.44419   2
  -1  -1  16 3.52071 3.50706   1
   1   1  16 4.21916 3.52716   1
   1  -1 -16 8.13970 3.60503   1
  -1   1 -16 4.04609 3.48842   1
  -2  -1 -16 34.6898 5.06908   1
   2  -1  16 30.7498 4.94922   1
  -2   1  16 27.2988 4.74183   1
  -2  -1 -16 36.2854 5.07980   1
   2  -1  16 26.0988 4.84425   2
  -2   1 -16 30.8636 5.05739   1
   2   1  16 32.7649 5.06448   1
  -2  -1  16 31.4259 4.72097   3
  -2  -1  16 32.0120 4.86317   2
   2  -1 -16 27.5452 4.58837   1
  -2  -1  16 30.4211 4.70753   1
  -3   1  16 4.55602 3.81485   1
  -3  -1 -16 15.2694 4.15682   1
   3  -1  16 12.4475 4.07924   1
  -3  -1  16 6.26397 3.75821   2
   3  -1 -16 13.4277 4.03073   1
  -3   1 -16 6.34595 4.05407   1
   3   1  16 14.1359 4.40192   1
  -3  -1  16 6.98218 3.48838   1
  -3   1 -16 8.77288 4.10736   1
  -4  -1 -16 865.984 20.5800   1
   4  -1  16 859.988 20.8015   1
  -4   1  16 880.951 20.4742   1
   4   1  16 893.616 21.2065   1
  -4   1 -16 861.452 21.0942   1
  -4   1 -16 845.713 20.9415   1
  -4  -1  16 830.261 19.9295   1
   4  -1 -16 875.724 20.4176   1
  -5  -1 -16 62.8630 6.51937   1
   5  -1  16 55.6014 6.26889   1
  -5   1  16 53.1550 6.13797   1
   5   1  16 59.5024 6.50126   1
   5  -1 -16 52.5546 5.84207   1
  -5  -1  16 61.4560 6.14668   1
  -6  -1 -16 21.0006 5.00460   1
  -6   1  16 13.1021 4.56911   1
   6  -1  16 20.8981 5.05923   1
  -6  -1  16 27.3999 4.67621   1
   6  -1 -16 26.0448 4.93184   1
   6   1  16 18.3298 5.24186   1
   7  -1  16 42.8604 6.21674   1
  -7  -1 -16 52.1195 6.45027   1
  -7   1  16 40.4198 5.86062   1
  -7  -1  16 37.5670 5.45161   1
   7  -1 -16 43.9731 6.02962   1
   7   1  16 36.6126 6.27280   1
  -8  -1 -16 166.632 10.3791   1
  -8   1  16 179.079 10.1448   1
   8  -1  16 190.228 11.0491   1
   8  -1 -16 192.264 10.3666   1
  -8  -1  16 168.519 9.76246   1
  -9  -1 -16 87.4051 8.19534   1
   9  -1  16 82.2768 8.22996   1
  -9   1  16 82.3107 8.17933   1
   9  -1 -16 87.4950 7.96010   1
  -9  -1  16 75.2366 7.38816   1
 -10   1  16 8.29680 5.02983   1
  10  -1  16 7.61012 4.90721   1
 -10  -1 -16 10.5622 5.18949   1
  10  -1 -16 -0.6772 4.24185   1
 -10  -1  16 5.49988 4.60379   1
 -11   1  16 101.380 9.31356   1
  11  -1  16 144.384 10.9102   1
 -11  -1 -16 117.156 9.68423   1
  11  -1 -16 117.997 9.55884   1
 -11  -1  16 129.551 9.64085   1
 -12   1  16 8.40118 5.27246   1
  12  -1  16 5.72266 5.28121   1
 -12  -1 -16 3.83584 5.00284   1
  12  -1 -16 -2.5462 4.55964   1
 -12  -1  16 9.00473 4.99807   1
 -13  -1 -16 8.39827 5.48897   1
  13  -1  16 24.9357 6.37879   1
 -13   1  16 11.5619 5.96367   1
  13  -1 -16 7.54553 5.36313   1
 -13  -1  16 11.8455 5.10150   1
   0  -2  16 595.909 15.4215   3
   0  -2  16 580.745 16.0199   2
   0  -2  16 598.427 15.2784   1
   0  -2 -16 592.346 15.5902   1
   0  -2 -16 596.807 16.2631   2
   1  -2  16 39.2345 4.84429   1
  -1  -2 -16 30.4427 4.91428   2
   1  -2  16 36.8512 5.01307   2
   1  -2  16 34.6064 4.46991   3
  -1  -2 -16 23.1455 4.55052   1
  -1  -2 -16 41.6503 5.06187   1
  -1  -2  16 27.1493 4.76074   2
   1  -2 -16 33.4799 4.69146   1
  -1  -2  16 35.8648 4.69803   1
   1  -2 -16 26.3070 4.79796   2
  -1  -2  16 26.4242 4.60549   3
   2  -2  16 124.353 8.06300   2
  -2  -2 -16 130.462 8.33457   2
   2  -2  16 130.532 7.87144   1
  -2  -2 -16 128.825 7.77831   1
  -2  -2  16 133.735 7.84322   3
   2  -2 -16 126.925 8.22903   2
   2  -2 -16 126.075 7.82697   1
  -2  -2  16 125.651 7.87840   2
  -2  -2  16 127.191 7.57428   1
   3  -2  16 487.121 14.3716   1
  -3  -2 -16 450.424 13.9822   1
   3  -2  16 508.010 14.9904   2
  -3  -2 -16 501.017 15.1041   2
  -3  -2  16 488.013 13.7864   1
  -3  -2  16 478.021 14.2972   3
  -3  -2  16 505.687 14.8675   2
   3  -2 -16 488.794 14.7585   2
   3  -2 -16 508.943 14.2485   1
  -4  -2 -16 47.5420 6.01217   2
   4  -2  16 38.1037 5.54362   2
  -4  -2 -16 41.8852 5.33003   1
   4  -2  16 41.9761 5.42263   1
   4  -2 -16 30.9173 4.81698   1
  -4  -2  16 37.9990 5.34431   2
  -4  -2  16 36.5477 4.86851   1
  -5  -2 -16 3.71317 4.32407   2
  -5  -2 -16 1.10723 3.76707   1
   5  -2  16 1.46999 3.83091   2
   5  -2  16 10.6990 4.06992   1
  -5  -2  16 -1.8215 3.05428   1
   5  -2 -16 -1.1168 3.29246   1
  -5  -2  16 9.59609 4.07245   2
   6  -2  16 11.6297 5.06904   2
  -6  -2 -16 23.1074 4.88463   1
   6  -2  16 25.3505 5.00630   1
   6  -2 -16 22.7508 4.77828   1
  -6  -2  16 13.4726 4.55454   2
  -6  -2  16 19.4980 4.22995   1
   7  -2  16 14.3017 4.65538   1
  -7  -2 -16 7.53199 4.13600   1
  -7  -2  16 5.89893 4.26349   2
  -7  -2  16 6.51006 3.84578   1
   7  -2 -16 12.7469 4.22198   1
  -8  -2 -16 359.590 13.5377   1
   8  -2  16 337.421 13.5297   1
  -8  -2  16 367.258 12.9052   1
   8  -2 -16 359.520 13.2677   1
   9  -2  16 19.6341 5.22051   1
  -9  -2 -16 18.7268 5.40392   1
   9  -2 -16 32.2985 5.51809   1
  -9  -2  16 23.2826 4.86855   1
 -10  -2 -16 220.087 11.5673   1
  10  -2  16 233.886 12.1066   1
  10  -2 -16 236.388 11.8964   1
 -10  -2  16 230.490 10.9627   1
  11  -2  16 314.946 14.1401   1
 -11  -2 -16 306.044 13.5740   1
 -11  -2  16 301.962 12.8696   1
  11  -2 -16 312.020 13.7046   1
 -12  -2 -16 20.0934 5.62683   1
  12  -2  16 18.1376 5.73877   1
 -12  -2  16 20.1031 5.52230   1
  12  -2 -16 23.0886 5.55985   1
  13  -2  16 12.6343 5.83557   1
 -13  -2 -16 1.44967 4.51577   1
  13  -2 -16 4.57777 4.86905   1
 -13  -2  16 -1.9873 4.29020   1
   0  -3  16 -0.7288 3.05234   1
   0  -3 -16 6.57985 3.72694   2
   0  -3 -16 -0.7296 3.13749   1
   0  -3  16 3.22307 3.53910   2
  -1  -3 -16 6.52295 3.81464   2
  -1  -3 -16 -1.2021 3.01783   1
   1  -3  16 2.40499 3.53685   2
   1  -3  16 4.89477 3.40926   1
  -1  -3  16 0.42811 2.93455   1
  -1  -3  16 3.15996 3.58879   2
   1  -3 -16 3.06147 3.53614   2
   1  -3 -16 -0.9405 3.10050   1
   1  -3 -16 -0.4508 3.04488   1
  -2  -3 -16 24.9941 4.85590   2
   2  -3  16 22.6962 4.40806   1
  -2  -3 -16 25.4889 4.40351   1
   2  -3  16 19.6155 4.57673   2
   2  -3 -16 27.8702 5.07577   2
  -2  -3  16 25.5066 4.65072   2
   2  -3 -16 26.7461 4.42371   1
  -2  -3  16 25.4420 4.15834   1
  -3  -3 -16 4.26362 3.53819   1
   3  -3  16 4.83048 3.42773   1
  -3  -3 -16 4.24461 3.92917   2
   3  -3  16 0.25761 3.62638   2
  -3  -3  16 -2.2073 3.41183   2
  -3  -3  16 3.61811 3.18145   1
   3  -3 -16 2.66556 3.71553   2
   3  -3 -16 0.06954 3.07451   1
   4  -3  16 716.714 17.7743   1
  -4  -3 -16 720.743 19.1991   2
  -4  -3 -16 700.778 17.5806   1
   4  -3  16 690.200 18.8011   2
   4  -3 -16 701.117 18.8906   2
   4  -3 -16 692.587 17.5351   1
  -4  -3  16 695.056 16.4950   1
  -4  -3  16 708.245 18.5689   2
   5  -3  16 48.3349 6.42735   2
   5  -3  16 45.1929 5.55230   1
  -5  -3 -16 42.1177 6.06397   2
  -5  -3 -16 40.0638 5.42744   1
  -5  -3  16 47.0049 6.02643   2
   5  -3 -16 53.4690 6.61168   2
  -5  -3  16 46.8288 5.12401   1
   5  -3 -16 49.0449 5.42576   1
  -6  -3 -16 17.0664 5.15662   2
   6  -3  16 21.6256 5.12875   2
   6  -3  16 15.0226 4.57624   1
  -6  -3 -16 24.0122 4.66575   1
   6  -3 -16 15.7780 4.12031   1
  -6  -3  16 23.1032 5.05575   2
   6  -3 -16 18.7787 5.23848   2
  -6  -3  16 15.2793 3.91404   1
  -7  -3 -16 23.4368 4.92733   1
   7  -3  16 30.3439 6.01775   2
  -7  -3 -16 25.1309 5.77557   2
   7  -3  16 27.9816 5.27211   1
  -7  -3  16 19.5701 5.03470   2
   7  -3 -16 27.8521 4.89770   1
  -7  -3  16 31.1109 4.82512   1
  -8  -3 -16 149.970 9.34381   1
   8  -3  16 154.779 10.8897   2
   8  -3  16 162.601 9.71001   1
  -8  -3  16 159.504 8.52622   1
  -8  -3  16 138.064 9.98767   2
   8  -3 -16 154.123 9.25427   1
   9  -3  16 73.5591 7.40719   1
  -9  -3 -16 73.6127 7.13070   1
  -9  -3  16 82.0658 6.70435   1
   9  -3 -16 65.6830 6.80973   1
  -9  -3  16 82.9028 8.22056   2
  10  -3  16 12.9805 4.95806   1
 -10  -3 -16 15.0667 4.78415   1
  10  -3 -16 2.00966 4.33104   1
 -10  -3  16 3.36176 3.77147   1
 -11  -3 -16 74.3152 7.69332   1
  11  -3  16 95.4781 8.46641   1
 -11  -3  16 105.889 8.46384   1
  11  -3 -16 87.6423 8.01453   1
  12  -3  16 -5.6186 4.24257   1
 -12  -3 -16 -1.1498 4.58344   1
 -12  -3  16 11.0845 4.47526   1
  12  -3 -16 1.88914 4.55460   1
   0  -4 -16 1.63589 3.13572   1
   0  -4 -16 9.34497 4.18499   2
   0  -4  16 3.19319 3.15464   1
   0  -4  16 0.24128 3.78311   2
  -1  -4 -16 375.832 11.3964   1
   1  -4  16 375.495 10.3840   1
  -1  -4 -16 364.128 13.2873   2
   1  -4  16 361.559 12.8315   2
  -1  -4  16 359.800 10.0103   1
  -1  -4  16 387.905 13.0280   2
   1  -4 -16 388.628 13.5176   2
   1  -4 -16 388.498 11.4642   1
  -2  -4 -16 94.6075 6.62862   1
   2  -4  16 101.500 7.98250   2
  -2  -4 -16 89.4123 7.54544   2
   2  -4  16 92.7474 6.31122   1
  -2  -4  16 97.7342 5.89941   1
  -2  -4  16 91.8176 7.46721   2
   2  -4 -16 94.7376 6.68419   1
   2  -4 -16 103.712 8.19026   2
   3  -4  16 107.066 8.16884   2
   3  -4  16 92.0245 6.61458   1
  -3  -4 -16 100.510 6.86836   1
  -3  -4 -16 90.6008 7.79800   2
  -3  -4  16 95.6479 7.55024   2
   3  -4 -16 94.9643 6.72172   1
   3  -4 -16 105.554 8.45442   2
   3  -4 -16 98.9748 6.90030   1
  -3  -4  16 102.818 6.04243   1
  -4  -4 -16 230.959 11.2767   2
   4  -4  16 211.419 8.81585   1
   4  -4  16 213.088 10.7303   2
  -4  -4 -16 220.525 9.08406   1
  -4  -4  16 204.376 10.2498   2
   4  -4 -16 207.890 8.97310   1
  -4  -4  16 216.810 7.87071   1
   4  -4 -16 229.009 10.9570   2
   5  -4  16 205.623 11.1230   2
  -5  -4 -16 242.913 11.7346   2
   5  -4  16 218.114 9.19728   1
  -5  -4 -16 205.770 9.07781   1
  -5  -4  16 197.305 10.3250   2
   5  -4 -16 202.555 9.04604   1
  -5  -4  16 219.413 7.90150   1
   5  -4 -16 210.587 11.2472   2
   6  -4  16 118.909 9.45617   2
  -6  -4 -16 121.077 7.69152   1
   6  -4  16 117.205 7.85474   1
  -6  -4 -16 117.184 9.53814   2
  -6  -4  16 115.852 9.02812   2
   6  -4 -16 146.043 10.0032   2
   6  -4 -16 131.089 7.78851   1
  -6  -4  16 116.113 6.45598   1
   7  -4  16 414.354 12.9676   1
  -7  -4 -16 406.247 13.1107   1
  -7  -4 -16 438.863 15.9706   2
   7  -4  16 397.889 15.7300   2
   7  -4 -16 435.000 15.6888   2
  -7  -4  16 440.517 15.2174   2
   7  -4 -16 415.743 13.1885   1
  -7  -4  16 413.881 11.3539   1
   8  -4  16 12.8907 5.54526   2
  -8  -4 -16 20.0742 4.51423   1
   8  -4  16 15.4325 4.46215   1
  -8  -4 -16 18.2225 6.00206   2
  -8  -4  16 14.6020 4.98404   2
   8  -4 -16 17.5298 4.64589   1
  -8  -4  16 8.97440 3.59227   1
   8  -4 -16 18.1585 5.83801   2
   9  -4  16 7.17662 5.11959   2
  -9  -4 -16 0.17838 5.05530   2
   9  -4  16 2.21258 4.24894   1
  -9  -4 -16 1.00330 3.95527   1
   9  -4 -16 0.63914 3.80913   1
  -9  -4  16 8.79259 4.85996   2
  -9  -4  16 0.80068 3.39338   1
  10  -4  16 62.7517 6.86403   1
 -10  -4 -16 59.9059 6.57260   1
  10  -4 -16 55.8605 6.47480   1
 -10  -4  16 67.5670 5.66501   1
 -10  -4  16 72.9016 8.30972   2
  11  -4  16 34.9456 5.81605   1
 -11  -4 -16 43.8129 5.93471   1
 -11  -4  16 47.4253 7.31064   2
 -11  -4  16 52.7227 5.58163   1
  11  -4 -16 34.7025 5.70839   1
   0  -5 -16 -1.7689 3.75576   2
   0  -5  16 -1.6720 3.53662   2
  -1  -5 -16 2.83569 4.03689   2
   1  -5  16 5.89691 3.95601   2
   1  -5 -16 0.94626 3.79800   2
  -1  -5  16 6.86725 3.95775   2
   2  -5  16 11.2722 4.50608   2
  -2  -5 -16 22.3961 5.02361   2
  -2  -5  16 23.8745 4.85533   2
   2  -5 -16 22.7118 5.33641   2
   3  -5  16 14.3832 4.70842   2
  -3  -5 -16 1.63127 4.24753   2
  -3  -5  16 -1.1126 3.54872   2
   3  -5 -16 -0.5451 4.26338   2
   4  -5  16 514.291 16.3914   2
  -4  -5 -16 512.175 16.6933   2
   4  -5 -16 519.391 16.6170   2
  -4  -5  16 504.086 15.7187   2
  -5  -5 -16 33.1393 6.20709   2
   5  -5  16 29.5829 5.78231   2
   5  -5 -16 38.6193 4.33594   1
  -5  -5  16 36.4071 5.62239   2
   5  -5 -16 41.8811 6.38926   2
   6  -5  16 6.72816 4.86789   2
  -6  -5 -16 15.3756 5.45630   2
   6  -5 -16 10.1486 3.80164   1
   6  -5 -16 9.21698 4.83668   2
  -6  -5  16 23.7509 5.34958   2
  -7  -5 -16 39.1284 6.54350   2
   7  -5  16 45.6474 7.05703   2
   7  -5 -16 36.3757 6.26008   2
  -7  -5  16 34.9619 5.88187   2
   7  -5 -16 40.1939 4.90250   1
   7  -5 -16 39.3132 4.77808   1
   8  -5  16 114.722 9.99667   2
  -8  -5 -16 115.793 9.97048   2
  -8  -5  16 120.961 9.72232   2
   8  -5 -16 119.436 9.87597   2
   8  -5 -16 126.579 7.68794   1
   9  -5  16 47.1213 7.38001   2
  -9  -5 -16 59.1487 8.14984   2
   9  -5 -16 70.2359 8.57939   2
   9  -5 -16 55.7653 5.77534   1
  -9  -5  16 58.4799 7.34573   2
   0  -6 -16 288.216 12.6441   2
   0  -6  16 285.619 11.7605   2
  -1  -6 -16 24.3875 5.23673   2
   1  -6  16 14.3159 4.45939   2
   1  -6 -16 14.6608 5.14063   2
  -1  -6  16 17.1025 4.71406   2
   2  -6  16 53.8419 6.31477   2
  -2  -6 -16 57.5721 6.76765   2
   2  -6 -16 70.1494 7.56546   2
  -2  -6  16 60.6181 6.49847   2
   3  -6  16 204.820 10.8574   2
  -3  -6 -16 210.692 11.3200   2
  -3  -6  16 226.595 10.6340   2
   3  -6 -16 260.871 12.0245   2
   4  -6  16 25.6006 5.48524   2
  -4  -6 -16 28.3371 5.94992   2
   4  -6 -16 33.7762 6.25381   2
  -4  -6  16 11.9354 4.79652   2
   5  -6  16 -4.8911 4.36711   2
  -5  -6 -16 -0.2778 4.47908   2
   5  -6 -16 3.40276 4.56033   2
  -5  -6  16 -2.2436 3.76014   2
   6  -6  16 9.30805 5.25626   2
  -6  -6 -16 6.22699 4.96021   2
  -6  -6  16 14.6562 4.95412   2
   6  -6 -16 3.79966 4.91761   2
   0   0 -17 1.21799 3.54798   1
   0   0  17 -3.8005 3.10919   1
   1   0  17 2.41815 3.69035   1
  -1   0  17 -0.5023 3.34702   1
   1   0 -17 4.44902 3.54127   1
  -1   0 -17 -0.3619 3.30340   1
  -2   0 -17 535.426 15.6448   1
   2   0  17 542.088 15.8950   1
   2   0 -17 557.663 15.5348   1
  -2   0  17 528.219 15.2250   1
   3   0  17 878.600 21.1899   1
  -3   0 -17 865.398 21.2599   1
  -3   0  17 843.371 20.6591   1
  -3   0 -17 909.493 21.6333   1
   3   0 -17 889.776 21.1816   1
  -4   0 -17 101.522 7.95189   1
   4   0  17 93.3582 7.78785   1
   4   0 -17 95.3266 7.60319   1
  -4   0  17 77.4167 6.99289   1
   5   0  17 46.8401 6.43305   1
  -5   0 -17 56.6712 6.65936   1
   5   0 -17 49.6842 6.10694   1
  -5   0  17 57.5443 6.17797   1
  -6   0  17 62.4452 6.65602   1
   6   0 -17 64.9230 6.92107   1
   6   0  17 57.1564 6.97654   1
  -6   0 -17 55.6437 6.59403   1
  -7   0 -17 95.3558 8.71563   1
   7   0 -17 92.0711 7.89977   1
   7   0  17 100.027 8.88074   1
  -7   0  17 109.466 8.55275   1
   8   0  17 124.728 9.87980   1
  -8   0  17 111.294 8.80424   1
  -8   0 -17 104.284 9.02183   1
   8   0 -17 88.7748 8.13562   1
  -9   0 -17 92.1701 8.88433   1
   9   0 -17 97.7738 8.79443   1
  -9   0  17 102.230 8.86551   1
   9   0  17 106.005 9.75434   1
 -10   0 -17 160.132 11.3029   1
  10   0 -17 143.945 10.4514   1
  10   0  17 153.542 11.2731   1
 -10   0  17 171.117 10.5948   1
 -11   0  17 183.045 11.5335   1
 -11   0 -17 203.720 12.8441   1
  11   0 -17 200.836 12.0190   1
  11   0  17 222.419 13.1137   1
 -12   0 -17 101.134 9.83177   1
 -12   0  17 106.232 9.65615   1
  12   0  17 115.269 10.6654   1
  13   0  17 43.5582 7.89620   1
 -13   0 -17 42.0748 7.31860   1
 -13   0  17 37.3883 7.02349   1
   0  -1  17 539.966 15.5461   1
   0   1  17 571.567 16.1050   1
   0  -1 -17 594.881 15.9962   1
  -1   1  17 23.3061 4.79157   1
  -1  -1 -17 13.8790 4.26032   1
   1  -1  17 26.5319 4.72019   1
   1   1  17 22.9664 4.71287   1
  -1  -1  17 28.4344 4.80798   1
   1  -1 -17 20.8565 4.56547   1
   2  -1  17 2.87308 3.74685   1
  -2  -1 -17 -1.5931 3.41775   1
  -2   1  17 -1.1055 3.56236   1
  -2  -1 -17 -1.1292 3.53437   1
   2   1  17 3.04868 3.77706   1
  -2  -1  17 -0.7370 3.25961   1
   2  -1 -17 -0.0979 3.23528   1
  -3  -1 -17 8.00597 4.03323   1
   3  -1  17 21.4155 4.75840   1
  -3   1  17 14.9184 4.43592   1
  -3  -1  17 14.3088 4.18936   1
   3  -1 -17 18.2038 4.25058   1
   3   1  17 14.0959 4.47572   1
   4  -1  17 91.7022 7.58602   1
  -4  -1 -17 84.7553 7.27962   1
  -4   1  17 96.3753 7.75043   1
   4  -1 -17 84.9223 7.16078   1
   4   1  17 75.0397 7.32215   1
  -4  -1  17 77.0238 6.80199   1
   5  -1  17 0.33621 3.94025   1
  -5  -1 -17 3.32494 3.95912   1
  -5   1  17 4.08924 4.03914   1
  -5  -1  17 -0.8522 3.40729   1
   5   1  17 6.22233 4.36562   1
   5  -1 -17 2.98399 3.83799   1
  -6  -1 -17 6.06876 4.24068   1
  -6   1  17 2.58195 3.85726   1
   6  -1  17 -1.1370 3.92120   1
   6  -1 -17 13.0048 4.36350   1
   6   1  17 -0.7429 4.32566   1
  -6  -1  17 0.45594 3.49133   1
  -7  -1 -17 150.592 10.0261   1
   7  -1  17 147.104 9.89175   1
  -7   1  17 147.816 9.67758   1
   7  -1 -17 128.806 9.06681   1
  -7  -1  17 149.823 9.10580   1
   8  -1  17 312.722 13.6027   1
  -8   1  17 316.051 13.3796   1
  -8  -1 -17 313.607 13.2374   1
   8  -1 -17 318.694 13.0977   1
  -8  -1  17 316.227 12.4848   1
  -9  -1 -17 10.0138 4.75951   1
  -9   1  17 6.43563 4.63861   1
   9  -1  17 -0.3553 4.58080   1
   9  -1 -17 0.16159 3.97673   1
  -9  -1  17 8.18030 4.57795   1
 -10  -1 -17 -0.1836 4.65271   1
 -10   1  17 6.40704 4.90670   1
  10  -1  17 -1.6193 4.65238   1
  10  -1 -17 3.39810 4.47863   1
 -10  -1  17 2.23944 4.21906   1
 -11  -1 -17 26.1045 6.36069   1
  11  -1  17 33.2169 6.83391   1
 -11   1  17 32.9533 6.66541   1
 -11  -1  17 15.2688 5.47093   1
  11  -1 -17 20.2960 5.73235   1
 -12  -1 -17 69.7552 8.23714   1
  12  -1  17 63.5719 8.46295   1
 -12   1  17 64.9330 8.37075   1
  12  -1 -17 81.5399 8.98025   1
 -12  -1  17 54.5442 7.34340   1
  13  -1  17 275.985 14.6917   1
 -13   1  17 315.787 15.2689   1
 -13  -1 -17 304.361 14.8824   1
  13  -1 -17 310.894 14.5769   1
 -13  -1  17 296.000 14.2607   1
   0  -2  17 1.31591 3.62745   2
   0  -2  17 -6.2037 2.94855   3
   0  -2 -17 2.57498 3.46710   1
   0  -2 -17 -2.3169 3.46788   2
   0  -2  17 2.47820 3.36483   1
  -1  -2 -17 9.27557 4.12122   2
   1  -2  17 10.3979 3.73316   1
   1  -2  17 4.93038 3.79300   2
  -1  -2 -17 7.26208 3.79453   1
  -1  -2 -17 6.43280 3.70982   1
  -1  -2  17 2.50184 3.60441   3
  -1  -2  17 7.17604 3.78495   2
   1  -2 -17 9.80606 4.15350   2
   1  -2 -17 3.84535 3.50080   1
  -1  -2  17 7.99946 3.77785   1
  -2  -2 -17 46.6698 5.68728   1
   2  -2  17 53.8561 5.81667   1
   2  -2  17 47.6034 5.90145   2
  -2  -2 -17 47.8808 5.99605   2
   2  -2 -17 35.1779 5.09137   1
  -2  -2  17 42.2608 5.22234   1
  -2  -2  17 43.1362 5.50007   2
   3  -2  17 1.01566 3.86715   2
   3  -2  17 1.20056 3.79914   1
  -3  -2 -17 4.53864 3.73467   1
   3  -2 -17 -0.4743 3.41779   1
  -3  -2  17 0.38548 3.52347   2
  -3  -2  17 5.73846 3.70064   1
   4  -2  17 767.895 19.7789   1
   4  -2  17 790.129 20.5334   2
  -4  -2 -17 774.325 19.6702   1
  -4  -2  17 783.994 20.0933   2
  -4  -2  17 805.530 19.1258   1
   4  -2 -17 813.927 19.6375   1
  -5  -2 -17 266.593 11.4403   1
   5  -2  17 247.114 11.0451   1
  -5  -2  17 251.828 11.5826   2
  -5  -2  17 251.102 10.5148   1
   5  -2 -17 251.462 10.9886   1
  -6  -2 -17 153.240 9.40156   1
   6  -2  17 135.831 8.99699   1
   6  -2 -17 155.238 9.32490   1
  -6  -2  17 135.707 9.42164   2
  -6  -2  17 133.382 8.35582   1
   7  -2  17 556.081 17.0094   1
  -7  -2 -17 497.159 16.1442   1
  -7  -2  17 512.271 15.4568   1
   7  -2 -17 526.749 16.0880   1
  -8  -2 -17 21.2188 5.29640   1
   8  -2  17 27.6448 5.57055   1
   8  -2 -17 24.4693 5.22306   1
  -8  -2  17 19.1820 4.92775   1
   9  -2  17 19.8870 5.50421   1
  -9  -2 -17 20.6843 5.41890   1
  -9  -2  17 28.9655 5.41071   1
   9  -2 -17 23.6596 5.50407   1
 -10  -2 -17 24.5815 5.66364   1
  10  -2  17 28.8522 6.20783   1
  10  -2 -17 10.5738 4.83371   1
 -10  -2  17 19.3909 4.97988   1
 -11  -2 -17 25.5666 5.93948   1
  11  -2  17 17.3704 5.60262   1
  11  -2 -17 9.32320 4.95783   1
 -11  -2  17 21.6558 5.31589   1
  12  -2  17 14.4650 5.73197   1
 -12  -2 -17 27.7056 6.24323   1
 -12  -2  17 18.0792 5.12912   1
  12  -2 -17 17.7008 5.51888   1
   0  -3  17 484.261 13.7019   1
   0  -3 -17 466.449 15.1230   2
   0  -3 -17 465.370 13.7706   1
   0  -3  17 510.393 15.2307   2
  -1  -3 -17 27.7927 5.18396   2
   1  -3  17 19.1507 4.75682   2
   1  -3  17 21.5995 4.46652   1
  -1  -3 -17 30.1080 4.74387   1
   1  -3 -17 26.9034 5.11108   2
  -1  -3  17 14.5479 4.06485   2
   1  -3 -17 29.2072 4.68464   1
  -1  -3  17 26.7211 4.48382   1
   1  -3 -17 25.7689 4.63379   1
  -2  -3 -17 1.12405 3.36960   1
  -2  -3 -17 -1.6931 3.72086   2
   2  -3  17 -4.4669 3.21444   1
   2  -3  17 2.09593 3.94840   2
   2  -3 -17 -2.4992 3.17786   1
  -2  -3  17 3.41429 3.36450   1
   2  -3 -17 -8.8983 3.23206   2
  -2  -3  17 -1.5487 3.68910   2
  -3  -3 -17 15.4571 4.86790   2
   3  -3  17 16.0095 4.67185   2
  -3  -3 -17 22.0763 4.46604   1
   3  -3  17 15.0591 4.40542   1
   3  -3 -17 18.7906 4.17125   1
  -3  -3  17 17.3464 4.00011   1
  -3  -3  17 14.5711 4.51021   2
   3  -3 -17 14.1028 4.63809   2
  -4  -3 -17 72.6219 6.45658   1
   4  -3  17 70.2571 6.99231   2
   4  -3  17 68.3202 6.68370   1
  -4  -3 -17 77.1686 7.47455   2
   4  -3 -17 63.0862 7.08435   2
   4  -3 -17 57.8046 5.98827   1
  -4  -3  17 72.0543 6.00337   1
  -4  -3  17 59.1020 6.71763   2
  -5  -3 -17 4.63875 4.48539   2
  -5  -3 -17 2.46402 3.79930   1
   5  -3  17 7.37951 4.59053   2
   5  -3  17 -0.1812 3.72275   1
  -5  -3  17 2.66986 3.55737   1
   5  -3 -17 5.49759 4.50104   2
   5  -3 -17 3.17187 3.62601   1
  -5  -3  17 -1.3193 3.71889   2
   6  -3  17 -2.3690 3.80927   1
  -6  -3 -17 2.80176 4.33478   2
  -6  -3 -17 -1.4058 3.57187   1
   6  -3  17 3.16522 4.55372   2
   6  -3 -17 -2.8690 3.46080   1
  -6  -3  17 -0.8576 3.33064   1
  -6  -3  17 4.23547 4.04684   2
  -7  -3 -17 109.320 8.78978   1
   7  -3  17 104.295 8.17301   1
   7  -3  17 134.573 10.5481   2
  -7  -3  17 97.3436 7.44677   1
  -7  -3  17 109.225 9.24458   2
   7  -3 -17 100.328 8.17599   1
  -8  -3 -17 291.408 11.9973   1
   8  -3  17 251.401 11.7527   1
  -8  -3  17 286.422 12.9683   2
  -8  -3  17 263.690 10.8413   1
   8  -3 -17 250.454 11.4479   1
  -9  -3 -17 2.81554 4.33180   1
   9  -3  17 5.09965 4.75325   1
   9  -3 -17 3.18072 4.21936   1
  -9  -3  17 0.87490 3.87608   1
  10  -3  17 -6.2302 4.18135   1
 -10  -3 -17 5.32517 4.63711   1
 -10  -3  17 6.99323 4.05025   1
  10  -3 -17 2.03302 4.15262   1
 -11  -3 -17 34.6165 6.20774   1
  11  -3  17 35.2639 6.16638   1
  11  -3 -17 28.9104 5.75191   1
 -11  -3  17 27.9080 5.39070   1
   0  -4  17 -0.1655 3.18269   1
   0  -4 -17 2.04745 4.06054   2
   0  -4 -17 5.29492 3.51569   1
   0  -4  17 0.13134 3.81022   2
   1  -4  17 4.71421 3.98508   2
  -1  -4 -17 -0.1864 3.78358   2
   1  -4  17 -1.8321 3.12352   1
  -1  -4 -17 1.83994 3.51736   1
   1  -4 -17 0.44951 3.26090   1
  -1  -4  17 0.99225 3.45163   2
   1  -4 -17 -1.0746 3.68033   2
  -1  -4  17 1.69055 3.14167   1
   2  -4  17 337.584 10.5016   1
  -2  -4 -17 331.693 11.2306   1
   2  -4  17 343.885 13.1239   2
  -2  -4 -17 332.571 13.2546   2
   2  -4 -17 364.728 13.6050   2
  -2  -4  17 348.378 10.2346   1
   2  -4 -17 335.991 11.1583   1
  -2  -4  17 321.256 12.5834   2
  -3  -4 -17 605.761 17.9749   2
  -3  -4 -17 580.348 15.1272   1
   3  -4  17 589.256 17.5192   2
   3  -4  17 582.945 14.5409   1
  -3  -4  17 580.023 17.0781   2
   3  -4 -17 585.928 17.5264   2
  -3  -4  17 592.733 13.8391   1
   3  -4 -17 585.067 15.2796   1
   3  -4 -17 568.828 15.2002   1
   4  -4  17 59.9024 5.64182   1
   4  -4  17 55.6416 6.72458   2
  -4  -4 -17 50.0157 6.82027   2
  -4  -4 -17 54.0733 5.72888   1
  -4  -4  17 52.7859 4.91071   1
   4  -4 -17 63.8145 5.80670   1
  -4  -4  17 51.6969 6.35322   2
   4  -4 -17 54.6975 7.00007   2
  -5  -4 -17 28.4875 4.68646   1
  -5  -4 -17 31.7349 5.95079   2
   5  -4  17 32.4942 4.99568   1
   5  -4  17 22.4122 5.58890   2
  -5  -4  17 29.0337 5.50643   2
  -5  -4  17 27.3270 4.04867   1
   5  -4 -17 26.6232 5.69964   2
   5  -4 -17 24.0091 4.54266   1
  -6  -4 -17 45.3296 5.66249   1
  -6  -4 -17 48.3684 7.21689   2
   6  -4  17 32.0892 5.18193   1
   6  -4  17 32.8553 6.20272   2
   6  -4 -17 38.9971 5.40215   1
  -6  -4  17 40.6595 6.30274   2
  -6  -4  17 50.3036 4.91699   1
   6  -4 -17 44.7850 6.71529   2
   7  -4  17 88.5282 7.15102   1
  -7  -4 -17 80.0784 8.35661   2
   7  -4  17 69.6939 8.24753   2
  -7  -4 -17 80.7015 6.94467   1
  -7  -4  17 84.7953 8.17078   2
   7  -4 -17 83.5650 8.50874   2
   7  -4 -17 74.5886 6.87295   1
  -7  -4  17 84.9851 6.33411   1
  -8  -4 -17 75.0198 6.74359   1
  -8  -4 -17 90.9594 9.26365   2
   8  -4  17 71.2500 8.35155   2
   8  -4  17 74.9523 6.99308   1
  -8  -4  17 79.1231 8.46401   2
  -8  -4  17 83.4026 6.54369   1
   8  -4 -17 66.0831 6.59797   1
   9  -4  17 85.8756 7.41111   1
  -9  -4 -17 77.0306 7.09708   1
   9  -4  17 75.5885 8.82902   2
  -9  -4  17 79.4623 6.16790   1
   9  -4 -17 70.6134 6.99781   1
  -9  -4  17 81.7501 8.46186   2
  10  -4  17 118.431 9.15977   1
 -10  -4 -17 116.561 8.81520   1
  10  -4 -17 133.415 9.25631   1
 -10  -4  17 127.033 10.4392   2
 -10  -4  17 118.738 7.74974   1
   0  -5  17 286.588 12.0365   2
   0  -5 -17 312.523 13.0747   2
  -1  -5 -17 13.5658 4.75428   2
   1  -5  17 8.44916 4.40250   2
  -1  -5  17 8.71105 4.22907   2
   1  -5 -17 15.2449 4.80932   2
   2  -5  17 2.07712 4.04249   2
  -2  -5 -17 -6.4114 3.85069   2
  -2  -5  17 2.13459 3.80302   2
   2  -5 -17 -2.6746 3.98242   2
   3  -5  17 6.06865 4.49323   2
  -3  -5 -17 13.4181 5.10523   2
   3  -5 -17 7.24156 4.69819   2
  -3  -5  17 -2.4249 3.83022   2
   3  -5 -17 4.41058 3.38678   1
  -4  -5 -17 48.1281 6.84528   2
   4  -5  17 65.8133 7.34106   2
   4  -5 -17 59.6299 7.18895   2
  -4  -5  17 58.6725 6.74332   2
   4  -5 -17 59.4012 5.00758   1
  -5  -5 -17 2.29554 4.50727   2
   5  -5  17 2.35471 4.57356   2
  -5  -5  17 10.5374 4.46442   2
   5  -5 -17 2.80600 4.41538   2
   5  -5 -17 2.42114 3.39930   1
  -6  -5 -17 0.97891 4.76715   2
   6  -5  17 3.42547 4.91182   2
   6  -5 -17 0.91776 4.33385   2
   6  -5 -17 0.09139 3.70009   1
  -6  -5  17 7.10491 4.41358   2
  -7  -5 -17 110.931 9.69561   2
   7  -5  17 101.245 9.55305   2
   7  -5 -17 109.335 7.49234   1
  -7  -5  17 111.788 9.21182   2
   7  -5 -17 98.8584 7.25934   1
   7  -5 -17 119.884 9.69957   2
   8  -5  17 200.589 12.7783   2
  -8  -5 -17 196.095 12.8803   2
   8  -5 -17 197.593 12.7307   2
   8  -5 -17 206.841 9.30947   1
  -8  -5  17 203.268 11.7952   2
   0  -6 -17 3.15362 4.19339   2
   0  -6  17 0.50708 4.13622   2
   1  -6  17 4.54415 4.20060   2
  -1  -6 -17 9.43569 4.72972   2
   1  -6 -17 4.94947 4.61206   2
  -1  -6  17 0.47002 4.01782   2
  -2  -6 -17 29.0119 6.04665   2
   2  -6  17 26.5825 5.46403   2
  -2  -6  17 34.2280 5.72815   2
   2  -6 -17 19.1570 5.41561   2
  -3  -6 -17 -4.6892 4.00819   2
   3  -6  17 -2.8845 4.04068   2
   3  -6 -17 -3.5188 4.28294   2
  -3  -6  17 -2.3041 3.90319   2
  -4  -6 -17 376.308 15.2561   2
   4  -6  17 390.315 15.1778   2
   4  -6 -17 373.663 15.1008   2
  -4  -6  17 393.952 14.4151   2
   5  -6  17 133.201 10.4789   2
  -5  -6 -17 135.809 10.9471   2
  -5  -6  17 135.036 9.62951   2
   5  -6 -17 129.857 10.3723   2
   0   0  18 759.005 19.6821   1
   0   0 -18 792.469 20.0070   1
  -1   0 -18 18.9668 4.72944   1
  -1   0  18 7.69435 4.08834   1
   1   0  18 16.7269 4.65024   1
   1   0 -18 22.8594 4.82634   1
   2   0 -18 7.89084 4.17064   1
   2   0  18 5.82916 4.23910   1
  -2   0 -18 8.99559 4.20449   1
  -2   0  18 10.5655 4.23485   1
   3   0 -18 471.950 15.0277   1
   3   0  18 457.510 15.2700   1
  -3   0  18 454.484 14.6719   1
  -3   0 -18 475.883 15.3312   1
  -3   0 -18 477.262 15.3777   1
   4   0  18 72.0858 7.40164   1
   4   0 -18 62.2289 6.80323   1
  -4   0  18 63.3955 6.65038   1
  -4   0 -18 55.8591 6.61950   1
   5   0  18 110.255 8.96313   1
  -5   0  18 117.075 8.47853   1
  -5   0 -18 116.899 9.08591   1
   5   0 -18 125.305 8.81995   1
   6   0  18 2.14139 4.47228   1
   6   0 -18 0.72782 4.00683   1
  -6   0 -18 -0.2435 4.12669   1
  -6   0  18 2.42485 4.02796   1
  -7   0 -18 22.5328 5.63430   1
   7   0  18 24.6453 5.90181   1
  -7   0  18 23.9329 5.32704   1
   7   0 -18 18.3365 5.15103   1
   8   0 -18 664.330 19.7131   1
   8   0  18 687.058 20.4326   1
  -8   0  18 655.718 19.3622   1
  -8   0 -18 669.952 20.2868   1
  -9   0 -18 19.2253 5.70956   1
   9   0  18 24.0557 6.13159   1
   9   0 -18 15.6022 5.48419   1
  -9   0  18 20.1692 5.37276   1
  10   0 -18 71.5832 8.34478   1
  10   0  18 62.2921 8.74350   1
 -10   0 -18 96.0144 9.57622   1
 -10   0  18 73.8485 8.03881   1
 -11   0 -18 50.1898 7.76847   1
  11   0  18 57.6522 8.23307   1
  11   0 -18 50.3683 7.82668   1
 -11   0  18 62.3878 8.11413   1
 -12   0 -18 39.7862 7.51549   1
 -12   0  18 24.2902 6.01999   1
  12   0  18 24.8828 6.84004   1
   0  -1  18 0.11153 3.53221   1
   0  -1 -18 -3.3758 3.35475   1
   0   1  18 -6.9396 3.29812   1
  -1   1  18 144.147 9.04269   1
  -1  -1 -18 159.226 9.11729   1
   1  -1  18 165.464 9.14135   1
  -1  -1  18 157.635 8.89260   1
   1   1  18 154.585 9.30409   1
   1  -1 -18 159.291 9.15570   1
  -2   1  18 318.429 12.2858   1
   2  -1  18 319.605 12.3929   1
  -2  -1 -18 306.859 12.3015   1
  -2  -1 -18 305.747 12.1459   1
   2   1  18 321.422 12.6547   1
   2  -1 -18 320.057 12.0701   1
   3  -1  18 68.2279 6.97155   1
  -3  -1 -18 70.1388 6.94738   1
  -3   1  18 81.0827 7.46414   1
   3  -1 -18 84.5750 7.43869   1
   3   1  18 89.0684 7.93787   1
  -3  -1  18 91.8399 7.42200   1
   4  -1  18 20.3525 5.07651   1
  -4   1  18 15.9918 4.80612   1
  -4  -1 -18 19.3173 4.92246   1
   4  -1 -18 26.6395 5.34196   1
   4   1  18 16.5215 5.18079   1
  -4  -1  18 18.3303 4.56711   1
  -5   1  18 262.949 11.7626   1
   5  -1  18 270.548 12.0588   1
  -5  -1 -18 247.882 11.7408   1
  -5  -1  18 263.664 11.2569   1
   5   1  18 255.164 12.1658   1
   5  -1 -18 235.743 11.1397   1
   6  -1  18 7.70431 4.78299   1
  -6   1  18 7.77374 4.71279   1
  -6  -1 -18 14.2302 4.87066   1
  -6  -1  18 9.34959 4.34442   1
   6   1  18 15.9746 5.60055   1
   6  -1 -18 12.7577 4.49025   1
  -7  -1 -18 105.964 9.02512   1
   7  -1  18 111.298 9.23365   1
  -7   1  18 115.254 9.27797   1
  -7  -1  18 112.094 8.77570   1
   7  -1 -18 114.159 8.93677   1
  -8  -1 -18 58.1429 7.23766   1
   8  -1  18 58.7303 7.53629   1
  -8   1  18 57.0939 7.28834   1
   8  -1 -18 58.3913 7.03774   1
  -8  -1  18 73.0937 7.46899   1
  -9   1  18 7.49301 4.87854   1
  -9  -1 -18 1.77401 4.68096   1
   9  -1  18 1.71752 4.82789   1
   9  -1 -18 -5.3000 4.00949   1
  -9  -1  18 1.44818 4.30136   1
  10  -1  18 14.4269 5.74226   1
 -10   1  18 10.9276 5.38014   1
 -10  -1 -18 17.9243 5.89176   1
 -10  -1  18 9.08317 4.98775   1
  10  -1 -18 13.1643 5.03223   1
 -11   1  18 16.2340 5.74040   1
 -11  -1 -18 19.3310 6.20482   1
  11  -1  18 15.6111 5.83401   1
  11  -1 -18 17.5359 5.64775   1
 -11  -1  18 19.1055 5.67145   1
  12  -1  18 29.2030 6.86558   1
 -12  -1 -18 45.1645 7.75055   1
 -12   1  18 28.1591 6.85841   1
  12  -1 -18 27.0684 6.34983   1
 -12  -1  18 32.1398 6.43139   1
   0  -2  18 47.1008 6.01563   2
   0  -2  18 37.7767 5.35361   1
   0  -2 -18 32.7804 5.31278   1
   0  -2 -18 35.5121 5.29342   1
  -1  -2 -18 909.165 21.3379   1
   1  -2  18 887.981 21.7923   2
  -1  -2 -18 886.648 21.2060   1
   1  -2  18 861.764 20.6664   1
  -1  -2  18 864.818 21.3311   2
  -1  -2  18 861.793 20.5631   1
   1  -2 -18 894.187 21.1289   1
   2  -2  18 7.46536 4.24248   1
   2  -2  18 7.12412 4.29460   2
  -2  -2 -18 3.87059 3.90367   1
   2  -2 -18 5.89130 4.03587   1
  -2  -2  18 9.84367 4.09984   1
  -2  -2  18 6.24164 4.14959   2
   3  -2  18 83.0977 7.75865   2
   3  -2  18 76.7914 7.07128   1
  -3  -2 -18 77.8758 7.15078   1
  -3  -2  18 75.4043 6.54731   1
   3  -2 -18 82.4460 7.21769   1
  -3  -2  18 79.4630 7.23777   2
  -4  -2 -18 52.0680 6.24697   1
   4  -2  18 48.7717 6.14648   1
  -4  -2  18 49.9399 5.69458   1
  -4  -2  18 55.9477 6.60845   2
   4  -2 -18 59.2247 6.41437   1
  -5  -2 -18 8.42448 4.42857   1
   5  -2  18 -3.6506 3.66442   1
   5  -2 -18 5.72831 4.12903   1
  -5  -2  18 -1.9684 3.52338   1
  -6  -2 -18 -1.1535 3.89109   1
   6  -2  18 -0.5523 4.09607   1
  -6  -2  18 4.87125 3.94715   1
   6  -2 -18 -1.9929 3.39205   1
  -7  -2 -18 45.6149 6.60748   1
   7  -2  18 52.2622 6.90748   1
  -7  -2  18 37.7554 5.61539   1
   7  -2 -18 37.1890 5.95447   1
  -8  -2 -18 72.0386 7.40565   1
   8  -2  18 69.5919 7.57367   1
  -8  -2  18 62.8163 6.71391   1
   8  -2 -18 77.7340 7.56380   1
   9  -2  18 1080.29 26.3617   1
  -9  -2 -18 1063.48 26.1797   1
  -9  -2  18 1028.74 24.9590   1
   9  -2 -18 1026.75 25.5176   1
  10  -2  18 56.3061 7.45723   1
 -10  -2 -18 59.0712 7.33921   1
  10  -2 -18 63.5518 7.54025   1
 -10  -2  18 51.1815 6.57378   1
 -11  -2 -18 24.1856 6.07471   1
  11  -2  18 25.4943 6.30226   1
 -11  -2  18 19.9233 5.41059   1
  11  -2 -18 38.2410 6.75517   1
  12  -2  18 6.02954 5.08799   1
 -12  -2 -18 11.8197 5.68101   1
 -12  -2  18 6.72069 4.85494   1
  12  -2 -18 9.68857 5.39938   1
   0  -3  18 3.34067 4.07729   2
   0  -3 -18 3.01687 3.61192   1
   0  -3 -18 5.45535 4.16468   2
   0  -3  18 0.27404 3.60313   1
  -1  -3 -18 119.725 7.96489   1
   1  -3  18 126.925 8.77404   2
  -1  -3 -18 136.520 9.27409   2
   1  -3  18 128.025 8.14989   1
   1  -3 -18 142.984 9.60215   2
  -1  -3  18 121.866 8.83030   2
  -1  -3  18 125.078 7.91313   1
   1  -3 -18 126.495 8.16942   1
   1  -3 -18 114.709 7.99296   1
   2  -3  18 275.329 11.0224   1
  -2  -3 -18 294.655 12.5288   2
   2  -3  18 291.216 12.3283   2
  -2  -3 -18 261.126 10.9951   1
  -2  -3  18 265.126 11.6130   2
   2  -3 -18 286.844 11.1077   1
  -2  -3  18 282.349 10.6609   1
   2  -3 -18 287.004 12.3880   2
  -3  -3 -18 101.383 8.46816   2
  -3  -3 -18 80.2939 6.86876   1
   3  -3  18 82.2352 7.73902   2
   3  -3  18 78.1338 6.82449   1
   3  -3 -18 75.3297 6.66117   1
   3  -3 -18 71.5665 7.59740   2
  -3  -3  18 84.0492 7.46359   2
  -3  -3  18 76.5802 6.39110   1
  -4  -3 -18 9.49108 4.70460   2
  -4  -3 -18 13.1608 4.36219   1
   4  -3  18 10.3764 4.92235   2
   4  -3  18 11.7061 4.36755   1
  -4  -3  18 7.83831 3.75218   1
  -4  -3  18 11.4750 4.65005   2
   4  -3 -18 6.49265 3.92868   1
   5  -3  18 257.956 11.2451   1
  -5  -3 -18 253.312 11.0303   1
   5  -3  18 258.104 12.7053   2
  -5  -3  18 241.846 10.2048   1
   5  -3 -18 244.911 10.9717   1
  -5  -3  18 259.864 12.1214   2
  -6  -3 -18 13.1410 4.43292   1
   6  -3  18 11.8353 4.64251   1
   6  -3  18 4.60058 4.74075   2
  -6  -3  18 11.6154 4.20225   1
  -6  -3  18 15.2985 5.05515   2
   6  -3 -18 2.73097 3.97067   1
  -7  -3 -18 85.2913 7.63487   1
   7  -3  18 93.7462 8.01461   1
  -7  -3  18 84.7592 8.13252   2
   7  -3 -18 91.5759 7.93199   1
  -7  -3  18 88.5014 6.96880   1
   8  -3  18 54.8163 6.74448   1
  -8  -3 -18 26.3226 5.57003   1
   8  -3 -18 45.1571 6.26536   1
  -8  -3  18 49.3343 5.93549   1
   9  -3  18 -3.3308 4.23476   1
  -9  -3 -18 -5.3197 4.05486   1
  -9  -3  18 2.26396 3.97886   1
   9  -3 -18 2.63657 4.17615   1
  10  -3  18 20.7767 5.67133   1
 -10  -3 -18 19.4508 5.55853   1
  10  -3 -18 14.2638 5.06854   1
 -10  -3  18 15.9392 4.72776   1
 -11  -3 -18 3.88785 4.86431   1
  11  -3  18 10.6061 5.24676   1
 -11  -3  18 13.6690 4.74719   1
  11  -3 -18 16.9447 5.40094   1
   0  -4  18 481.935 15.6555   2
   0  -4 -18 479.395 16.1451   2
   0  -4 -18 489.573 13.9442   1
   0  -4  18 488.365 12.9124   1
  -1  -4 -18 12.8057 4.84556   2
   1  -4  18 10.0809 3.79437   1
   1  -4  18 14.1784 4.55969   2
  -1  -4 -18 11.5131 3.94476   1
   1  -4 -18 4.80594 4.32928   2
   1  -4 -18 9.83433 3.92121   1
  -1  -4  18 13.1670 4.60219   2
  -1  -4  18 12.2726 3.70835   1
   2  -4  18 -0.3780 3.98546   2
  -2  -4 -18 2.31857 3.68206   1
   2  -4  18 1.02544 3.34338   1
  -2  -4 -18 9.05694 4.64403   2
  -2  -4  18 4.42153 4.24766   2
  -2  -4  18 9.38538 3.66493   1
   2  -4 -18 5.41332 3.65627   1
   2  -4 -18 1.99524 4.28238   2
  -3  -4 -18 338.735 13.9777   2
   3  -4  18 331.996 11.2342   1
  -3  -4 -18 323.288 11.5918   1
   3  -4  18 314.760 13.4276   2
   3  -4 -18 328.602 11.6081   1
   3  -4 -18 338.484 13.9642   2
   3  -4 -18 338.827 11.6817   1
  -3  -4  18 328.293 13.0960   2
  -3  -4  18 341.477 10.6019   1
  -4  -4 -18 43.4612 5.42702   1
   4  -4  18 46.7076 5.52998   1
   4  -4  18 46.8281 6.80122   2
  -4  -4 -18 45.8735 6.90465   2
  -4  -4  18 36.6575 6.11581   2
   4  -4 -18 43.2543 6.78501   2
   4  -4 -18 45.4865 5.51434   1
  -4  -4  18 43.8934 4.86587   1
   4  -4 -18 41.1557 5.25425   1
  -5  -4 -18 91.3453 7.20774   1
   5  -4  18 75.3915 6.61678   1
  -5  -4 -18 88.1339 8.62771   2
   5  -4  18 75.4084 8.06592   2
  -5  -4  18 89.9534 8.19234   2
  -5  -4  18 75.4582 5.73051   1
   5  -4 -18 73.6089 6.63863   1
   5  -4 -18 74.4441 8.05854   2
  -6  -4 -18 -0.1839 4.84246   2
  -6  -4 -18 1.13681 3.69932   1
   6  -4  18 3.77437 3.92612   1
   6  -4  18 2.56588 4.98433   2
  -6  -4  18 -0.5032 3.40139   1
   6  -4 -18 -3.4759 4.22140   2
   6  -4 -18 5.63916 3.95334   1
  -6  -4  18 -5.3023 4.03552   2
  -7  -4 -18 16.7118 6.03072   2
   7  -4  18 17.2797 4.96939   1
  -7  -4 -18 21.2404 4.77427   1
   7  -4  18 14.1404 5.84843   2
  -7  -4  18 16.6638 4.08042   1
   7  -4 -18 11.4482 4.45818   1
  -7  -4  18 9.70797 5.08790   2
   8  -4  18 504.953 18.5054   2
  -8  -4 -18 495.298 15.1321   1
   8  -4  18 469.116 14.7819   1
  -8  -4  18 519.101 13.7030   1
  -8  -4  18 494.970 17.6117   2
   8  -4 -18 463.561 15.1679   1
  -9  -4 -18 9.90582 4.52206   1
   9  -4  18 10.0202 4.61129   1
  -9  -4  18 7.86927 3.98157   1
   9  -4 -18 7.04327 4.37981   1
  -9  -4  18 16.4585 5.81761   2
   0  -5 -18 -2.0297 4.16355   2
   0  -5  18 -8.9868 3.48592   2
   1  -5  18 92.8394 8.15479   2
  -1  -5 -18 89.6913 8.26324   2
   1  -5 -18 87.9974 8.21235   2
  -1  -5  18 84.2572 7.80063   2
   2  -5  18 172.481 10.5773   2
  -2  -5 -18 210.073 11.5351   2
  -2  -5  18 182.309 10.1948   2
   2  -5 -18 182.849 10.9585   2
   2  -5 -18 170.259 7.90218   1
   3  -5  18 46.0772 6.54307   2
  -3  -5 -18 42.5288 6.85993   2
   3  -5 -18 48.4050 7.01508   2
  -3  -5  18 46.8196 6.41183   2
   3  -5 -18 39.6544 4.71577   1
  -4  -5 -18 17.9239 5.58065   2
   4  -5  18 16.0281 5.31039   2
  -4  -5  18 9.49802 4.63441   2
   4  -5 -18 20.4551 4.14070   1
   4  -5 -18 10.3120 5.12944   2
   5  -5  18 164.707 11.0404   2
  -5  -5 -18 149.143 10.9766   2
  -5  -5  18 135.644 9.95591   2
   5  -5 -18 135.704 7.73961   1
   5  -5 -18 136.683 10.8694   2
  -6  -5 -18 10.9670 5.67215   2
   6  -5  18 3.49904 5.28009   2
   6  -5 -18 17.1784 5.72717   2
  -6  -5  18 11.4709 4.81195   2
   6  -5 -18 3.36622 3.85424   1
  -7  -5 -18 86.2368 9.10750   2
   7  -5  18 74.6205 8.82801   2
   7  -5 -18 83.2221 6.73921   1
   7  -5 -18 93.5944 7.41075   1
  -7  -5  18 75.1877 8.16838   2
   7  -5 -18 68.3060 8.42375   2
   0  -6  18 13.2637 4.95466   2
   0  -6 -18 14.1625 5.39091   2
   1  -6  18 456.919 15.8877   2
  -1  -6 -18 469.907 16.5997   2
   1  -6 -18 463.160 16.3281   2
  -1  -6  18 419.524 15.2014   2
   2  -6  18 6.22302 4.52152   2
  -2  -6 -18 15.5802 5.32537   2
   2  -6 -18 -3.4192 4.47954   2
  -2  -6  18 -0.1094 4.08659   2
  -3  -6 -18 27.8428 6.36783   2
   3  -6  18 55.3230 7.19078   2
   3  -6 -18 61.7045 7.90376   2
  -3  -6  18 39.2052 6.25226   2
   0   0  19 1.34253 3.94831   1
   0   0 -19 2.81103 3.93631   1
  -1   0 -19 277.891 11.8572   1
  -1   0  19 264.395 11.4995   1
   1   0 -19 248.152 11.4099   1
   1   0  19 242.345 11.3724   1
   2   0 -19 145.813 9.40145   1
  -2   0 -19 154.100 9.55153   1
  -2   0  19 133.267 8.95934   1
   2   0  19 130.268 9.05902   1
  -2   0 -19 144.888 9.56689   1
  -3   0 -19 8.69737 4.66043   1
   3   0  19 9.97130 4.93405   1
  -3   0 -19 12.3636 4.67653   1
   3   0 -19 4.85580 4.19287   1
  -3   0  19 12.4451 4.44091   1
   4   0 -19 1011.89 24.3497   1
   4   0  19 1041.72 24.8115   1
  -4   0 -19 954.996 24.1714   1
  -4   0  19 1030.82 24.2425   1
   5   0 -19 131.316 9.44864   1
  -5   0  19 125.227 9.18070   1
   5   0  19 134.042 9.97595   1
  -5   0 -19 137.638 9.81048   1
  -6   0 -19 165.743 10.9121   1
   6   0 -19 164.591 10.3744   1
  -6   0  19 155.250 9.98962   1
   6   0  19 191.350 11.6614   1
   7   0 -19 61.8979 7.41674   1
  -7   0  19 60.3016 7.02764   1
   7   0  19 63.4389 7.94467   1
  -7   0 -19 82.5621 8.37415   1
  -8   0 -19 281.447 13.9253   1
   8   0  19 302.176 14.0562   1
  -8   0  19 267.898 12.6339   1
   8   0 -19 277.020 13.2299   1
   9   0  19 17.5950 6.04153   1
   9   0 -19 13.2454 5.55054   1
  -9   0  19 12.5896 5.47336   1
  -9   0 -19 24.6106 6.33791   1
  10   0  19 236.861 13.7574   1
 -10   0  19 249.101 13.0519   1
 -10   0 -19 232.977 13.2705   1
  10   0 -19 244.359 13.1852   1
  11   0  19 44.1567 7.87892   1
 -11   0  19 51.7135 7.62084   1
 -11   0 -19 32.4975 6.97608   1
 -12   0  19 308.507 14.7610   1
  12   0  19 322.156 16.1209   1
 -12   0 -19 322.388 15.8359   1
   0   1  19 546.767 16.7010   1
   0  -1 -19 555.776 16.6296   1
   0  -1  19 547.049 16.3059   1
  -1   1  19 36.2083 5.77440   1
   1  -1  19 34.2487 5.69457   1
  -1  -1 -19 32.4867 5.55405   1
  -1  -1  19 26.6446 5.21132   1
   1   1  19 25.8194 5.31482   1
   1  -1 -19 34.1574 5.47471   1
   2  -1  19 264.347 11.7941   1
  -2   1  19 271.020 11.8506   1
  -2  -1 -19 264.865 11.8354   1
  -2  -1 -19 256.500 11.7916   1
   2  -1 -19 268.109 11.6622   1
   2   1  19 259.215 11.9501   1
   3  -1  19 147.479 9.76203   1
  -3   1  19 146.849 9.59593   1
  -3  -1 -19 146.154 9.45624   1
   3   1  19 124.012 9.42738   1
   3  -1 -19 158.073 9.69680   1
  -3  -1  19 142.513 9.20394   1
   4  -1  19 1.32337 4.25673   1
  -4   1  19 -3.3647 4.01711   1
  -4  -1 -19 2.12208 4.22053   1
  -4  -1  19 1.54978 3.99190   1
   4  -1 -19 -1.6139 3.84000   1
   4   1  19 4.85109 4.71263   1
   5  -1  19 -1.5944 4.40438   1
  -5   1  19 0.02393 4.14434   1
  -5  -1 -19 6.72066 4.57891   1
   5  -1 -19 -0.5150 3.82386   1
   5   1  19 1.45013 4.47095   1
  -5  -1  19 -8.5572 3.40387   1
   6  -1  19 215.306 11.8081   1
  -6  -1 -19 212.589 11.4151   1
  -6   1  19 193.185 11.1936   1
   6  -1 -19 221.037 11.2359   1
  -6  -1  19 213.982 11.0326   1
  -7   1  19 13.1680 5.04674   1
  -7  -1 -19 2.06934 4.52761   1
   7  -1  19 10.5338 5.10906   1
   7  -1 -19 7.94422 4.46610   1
  -7  -1  19 9.13715 4.57945   1
  -8  -1 -19 34.4443 6.39190   1
   8  -1  19 41.0616 6.96910   1
  -8   1  19 35.1951 6.46098   1
   8  -1 -19 36.4697 6.39195   1
  -8  -1  19 36.1850 6.16023   1
  -9  -1 -19 155.609 11.0777   1
  -9   1  19 146.806 10.8040   1
   9  -1  19 161.813 11.4748   1
  -9  -1  19 183.163 10.8121   1
   9  -1 -19 162.593 10.9291   1
 -10   1  19 60.4433 8.01537   1
 -10  -1 -19 49.4757 7.25138   1
  10  -1  19 42.8236 7.38178   1
 -10  -1  19 52.9135 7.23591   1
  10  -1 -19 59.9128 7.81674   1
  11  -1  19 10.9458 5.79932   1
 -11   1  19 8.49713 5.42356   1
 -11  -1 -19 22.9169 6.29979   1
  11  -1 -19 13.6047 5.82362   1
 -11  -1  19 19.2163 5.48011   1
   0  -2 -19 -4.3969 3.61736   1
   0  -2  19 -0.1791 3.60158   1
   0  -2 -19 -5.8161 3.46962   1
  -1  -2 -19 37.6062 5.71898   1
  -1  -2 -19 34.0510 5.50430   1
   1  -2  19 34.5336 5.33235   1
  -1  -2  19 28.7713 5.04758   1
   1  -2 -19 26.4097 5.08595   1
  -2  -2 -19 59.5712 6.49485   1
   2  -2  19 68.5665 6.87849   1
   2  -2 -19 65.4807 6.82346   1
  -2  -2  19 70.4012 6.75113   1
  -3  -2 -19 399.953 14.1106   1
   3  -2  19 394.936 14.0743   1
   3  -2 -19 391.189 14.0263   1
  -3  -2  19 362.374 13.0865   1
   4  -2  19 544.555 17.0437   1
  -4  -2 -19 579.846 17.1731   1
  -4  -2  19 569.313 16.4496   1
   4  -2 -19 581.843 16.8968   1
  -5  -2 -19 798.324 21.0944   1
   5  -2  19 767.187 20.8190   1
   5  -2 -19 797.904 20.5845   1
  -5  -2  19 794.393 20.0667   1
  -6  -2 -19 4.67865 4.71875   1
   6  -2  19 -0.3756 4.27146   1
   6  -2 -19 -0.7607 4.01279   1
  -6  -2  19 9.08558 4.21188   1
   7  -2  19 32.7884 6.18433   1
  -7  -2 -19 41.8819 6.42015   1
   7  -2 -19 33.0758 5.86174   1
  -7  -2  19 32.6106 5.62157   1
   8  -2  19 40.7453 6.82342   1
  -8  -2 -19 40.4422 6.38720   1
   8  -2 -19 40.4939 6.30385   1
  -8  -2  19 52.8481 6.55998   1
   9  -2  19 7.69025 5.20616   1
  -9  -2 -19 8.71752 5.07954   1
   9  -2 -19 -0.7473 4.08945   1
  -9  -2  19 -0.4299 4.20416   1
  10  -2  19 2.19082 5.07652   1
 -10  -2 -19 -5.2350 4.51470   1
  10  -2 -19 5.27251 4.91672   1
 -10  -2  19 2.29402 4.35435   1
 -11  -2 -19 6.46303 5.19556   1
  11  -2  19 17.4356 5.93793   1
  11  -2 -19 5.12951 5.13640   1
 -11  -2  19 10.4429 5.03411   1
   0  -3  19 456.667 13.9434   1
   0  -3 -19 426.947 13.9677   1
   0  -3  19 433.950 14.9825   2
  -1  -3 -19 27.2342 5.03852   1
   1  -3  19 26.3998 5.02669   1
   1  -3  19 34.3337 5.80532   2
  -1  -3 -19 44.2941 7.23922   2
  -1  -3  19 30.2036 5.67113   2
   1  -3 -19 36.1173 5.45463   1
  -1  -3  19 27.6689 4.89640   1
   1  -3 -19 25.6520 4.93404   1
   2  -3  19 233.432 11.7033   2
  -2  -3 -19 228.953 10.4753   1
   2  -3  19 215.014 10.2280   1
  -2  -3  19 208.279 9.67844   1
   2  -3 -19 202.340 10.1472   1
  -2  -3  19 216.702 10.9470   2
   3  -3  19 134.660 9.81319   2
  -3  -3 -19 102.962 8.21262   1
   3  -3  19 100.954 7.85962   1
  -3  -3  19 103.664 7.49865   1
   3  -3 -19 101.845 7.99618   1
  -3  -3  19 107.695 8.72630   2
   4  -3  19 5.88223 4.73646   2
  -4  -3 -19 -2.2784 3.80951   1
   4  -3  19 -0.0242 3.92116   1
   4  -3 -19 -3.7600 3.64056   1
  -4  -3  19 3.05186 4.27124   2
  -4  -3  19 4.45287 3.72279   1
  -5  -3 -19 3.67752 4.10086   1
   5  -3  19 4.65974 4.44633   1
   5  -3  19 7.09694 5.08172   2
  -5  -3  19 -2.2428 3.55834   1
  -5  -3  19 -2.1789 4.12583   2
   5  -3 -19 -3.7178 3.51841   1
   6  -3  19 183.727 10.3067   1
  -6  -3 -19 175.146 10.2426   1
   6  -3 -19 184.818 10.1020   1
  -6  -3  19 190.074 11.1374   2
  -6  -3  19 195.854 9.52617   1
   7  -3  19 6.34219 4.75690   1
  -7  -3 -19 5.41230 4.30052   1
   7  -3 -19 7.30190 4.47787   1
  -7  -3  19 4.23501 3.96933   1
  -8  -3 -19 29.3032 5.71937   1
   8  -3  19 34.5480 6.10627   1
   8  -3 -19 31.4026 5.61085   1
  -8  -3  19 33.1603 5.25987   1
   9  -3  19 154.072 10.4836   1
  -9  -3 -19 172.457 10.5629   1
  -9  -3  19 157.443 9.51800   1
   9  -3 -19 138.017 10.2166   1
 -10  -3 -19 28.6584 6.11627   1
  10  -3  19 43.4573 6.60483   1
 -10  -3  19 52.4626 6.59648   1
  10  -3 -19 44.1778 6.64429   1
   0  -4 -19 -0.0974 3.67677   1
   0  -4  19 3.93029 4.16774   2
   0  -4 -19 7.82892 4.97054   2
   0  -4  19 1.55136 3.35373   1
  -1  -4 -19 183.317 9.32224   1
   1  -4  19 176.085 10.5907   2
   1  -4  19 174.232 8.69565   1
  -1  -4 -19 177.073 10.9137   2
  -1  -4  19 193.812 10.7956   2
  -1  -4  19 192.595 8.63618   1
   1  -4 -19 168.165 8.98331   1
   1  -4 -19 173.995 10.8439   2
  -2  -4 -19 97.8673 7.49786   1
   2  -4  19 99.1035 7.33790   1
  -2  -4 -19 92.2499 8.68487   2
   2  -4  19 104.403 8.92945   2
   2  -4 -19 115.915 7.92783   1
  -2  -4  19 119.460 8.91226   2
  -2  -4  19 97.9780 7.13735   1
   2  -4 -19 101.196 8.97369   2
  -3  -4 -19 3.99948 4.64639   2
   3  -4  19 14.1818 5.29945   2
  -3  -4 -19 3.35928 4.08472   1
   3  -4  19 9.63807 4.20023   1
   3  -4 -19 9.62289 4.10046   1
   3  -4 -19 6.74091 3.90569   1
  -3  -4  19 4.95806 4.27855   2
  -3  -4  19 7.53423 3.83315   1
   3  -4 -19 12.4790 5.38851   2
   4  -4  19 735.196 21.4743   2
   4  -4  19 744.515 18.1186   1
  -4  -4 -19 704.920 18.2527   1
  -4  -4 -19 751.697 21.8336   2
  -4  -4  19 737.966 16.9737   1
   4  -4 -19 756.086 21.7358   2
   4  -4 -19 743.259 18.6421   1
   4  -4 -19 740.900 18.4859   1
  -4  -4  19 733.328 20.7491   2
  -5  -4 -19 82.8718 7.28751   1
   5  -4  19 113.077 9.57714   2
  -5  -4 -19 88.0413 9.05336   2
   5  -4  19 88.0502 7.31692   1
  -5  -4  19 85.3804 6.70104   1
   5  -4 -19 97.4947 7.89474   1
  -5  -4  19 89.3989 8.59040   2
  -6  -4 -19 127.261 8.59229   1
  -6  -4 -19 106.713 10.2189   2
   6  -4  19 118.992 8.47813   1
   6  -4  19 122.842 10.4166   2
   6  -4 -19 118.422 8.35933   1
  -6  -4  19 131.538 10.0923   2
  -6  -4  19 126.895 7.50166   1
   7  -4  19 52.3143 6.18746   1
   7  -4  19 34.4955 7.05879   2
  -7  -4 -19 57.1316 6.40256   1
   7  -4 -19 33.1749 5.42525   1
  -7  -4  19 47.0981 5.18567   1
  -7  -4  19 44.3018 6.97940   2
   8  -4  19 199.171 10.4450   1
  -8  -4 -19 201.628 10.6670   1
  -8  -4  19 210.618 9.22381   1
  -8  -4  19 218.695 12.8023   2
   8  -4 -19 205.783 10.9103   1
   0  -5  19 351.426 14.1262   2
   0  -5 -19 365.255 15.0334   2
   1  -5  19 13.5126 4.92201   2
  -1  -5 -19 7.97280 5.07091   2
   1  -5 -19 0.58605 4.52346   2
   1  -5 -19 12.6486 4.05532   1
  -1  -5  19 16.6047 5.10469   2
  -2  -5 -19 177.104 11.5151   2
   2  -5  19 171.566 10.8321   2
   2  -5 -19 200.360 11.7308   2
   2  -5 -19 180.911 8.37438   1
  -2  -5  19 166.387 10.5569   2
  -3  -5 -19 93.2956 9.06561   2
   3  -5  19 94.3657 8.87064   2
   3  -5 -19 97.4768 7.14702   1
   3  -5 -19 76.3302 8.43085   2
  -3  -5  19 99.6031 8.66838   2
  -4  -5 -19 8.46061 5.37207   2
   4  -5  19 -1.9382 4.54039   2
  -4  -5  19 2.73556 4.35045   2
   4  -5 -19 -0.7357 4.78107   2
   4  -5 -19 2.49116 3.55517   1
  -5  -5 -19 0.16764 4.97600   2
   5  -5  19 2.18073 4.94900   2
   5  -5 -19 -2.8023 3.61914   1
  -5  -5  19 6.20974 4.85467   2
   5  -5 -19 -3.6573 4.65546   2
  -6  -5 -19 152.078 11.8603   2
   6  -5  19 135.317 11.0709   2
   6  -5 -19 148.196 8.31442   1
  -6  -5  19 127.683 10.4318   2
   6  -5 -19 159.676 11.8088   2
   0   0 -20 214.927 11.2055   1
   0   0  20 228.678 11.4325   1
  -1   0  20 33.3157 5.59137   1
   1   0  20 34.6904 6.08762   1
  -1   0 -20 33.2547 5.80279   1
   1   0 -20 31.3221 5.76479   1
  -2   0 -20 139.390 9.61700   1
  -2   0 -20 116.138 9.29694   1
  -2   0  20 128.057 9.23008   1
   2   0 -20 103.780 8.48355   1
   2   0  20 145.970 9.72481   1
  -3   0 -20 72.5371 7.78518   1
  -3   0  20 60.0375 7.11134   1
  -3   0 -20 62.6395 7.32876   1
   3   0 -20 70.0146 7.36577   1
   3   0  20 67.6779 7.65596   1
  -4   0 -20 162.370 10.7167   1
   4   0 -20 149.606 10.1077   1
   4   0  20 181.381 10.8672   1
  -4   0  20 180.431 10.5084   1
  -5   0  20 10.3289 5.00743   1
   5   0 -20 9.36846 4.88348   1
  -5   0 -20 5.58586 4.79304   1
   5   0  20 15.9890 5.52831   1
   6   0 -20 54.3832 7.21747   1
  -6   0 -20 57.7348 7.48150   1
   6   0  20 58.7478 7.78465   1
  -6   0  20 50.8293 7.10914   1
   7   0 -20 28.3088 6.28116   1
  -7   0 -20 17.9745 5.91340   1
  -7   0  20 32.0107 6.09511   1
   7   0  20 22.4316 6.46160   1
   8   0 -20 64.8034 7.91586   1
   8   0  20 63.7520 8.25091   1
  -8   0  20 61.6327 7.62611   1
  -8   0 -20 72.0348 8.53202   1
  -9   0 -20 322.582 14.8285   1
  -9   0  20 300.803 14.0674   1
   9   0  20 300.245 14.9361   1
   9   0 -20 301.803 14.2961   1
 -10   0  20 1.94794 4.87300   1
  10   0  20 0.48334 5.51942   1
 -10   0 -20 13.0415 6.15998   1
  11   0  20 30.0366 7.46463   1
 -11   0  20 43.1044 7.40874   1
 -11   0 -20 33.9599 7.38735   1
   0  -1 -20 1.01662 3.89897   1
   0  -1  20 0.50358 4.01796   1
   0   1  20 -1.3238 4.11900   1
  -1  -1 -20 11.9235 4.71234   1
   1  -1  20 14.2982 4.57108   1
  -1   1  20 5.95196 4.53151   1
  -1  -1 -20 10.8948 4.69973   1
  -1  -1  20 11.5024 4.61668   1
   1  -1 -20 17.9346 5.08039   1
   1   1  20 20.4886 5.31711   1
   2  -1  20 0.25225 4.31600   1
  -2   1  20 10.5927 4.72112   1
  -2  -1 -20 -0.2476 4.07095   1
  -2  -1 -20 6.18999 4.25647   1
   2  -1 -20 -1.7714 3.99086   1
   2   1  20 1.99219 4.29471   1
  -2  -1  20 8.15387 4.28529   1
  -3  -1 -20 40.2679 6.25385   1
  -3   1  20 39.3735 6.34760   1
   3  -1  20 52.9381 6.90305   1
  -3  -1  20 43.6706 6.03380   1
   3  -1 -20 45.9593 6.34731   1
   3   1  20 43.1156 6.73572   1
   4  -1  20 2.18431 4.46807   1
  -4   1  20 2.78232 4.37242   1
  -4  -1 -20 7.96165 4.60140   1
   4   1  20 1.79010 4.79679   1
   4  -1 -20 0.10488 4.04755   1
  -4  -1  20 1.16159 3.95806   1
  -5  -1 -20 -2.8716 4.35633   1
   5  -1  20 3.26626 4.70127   1
  -5   1  20 -3.4696 4.11054   1
   5  -1 -20 -2.1902 4.00878   1
  -5  -1  20 0.36273 4.01078   1
   6  -1  20 86.6116 8.60906   1
  -6   1  20 82.0639 8.21545   1
  -6  -1 -20 81.9769 8.21184   1
   6  -1 -20 86.8422 8.17924   1
  -6  -1  20 82.3299 7.87615   1
   7  -1  20 18.6779 6.17043   1
  -7   1  20 22.2305 5.99789   1
  -7  -1 -20 26.7856 6.22902   1
   7  -1 -20 22.6588 5.77135   1
  -7  -1  20 27.7419 5.89181   1
   8  -1  20 234.394 13.0089   1
  -8  -1 -20 237.163 12.8262   1
  -8   1  20 222.763 12.4203   1
   8  -1 -20 233.050 12.1716   1
  -8  -1  20 231.241 12.3016   1
   9  -1  20 8.74798 5.58647   1
  -9  -1 -20 4.16919 5.08391   1
  -9   1  20 6.34857 5.29821   1
   9  -1 -20 -9.9828 4.20022   1
  -9  -1  20 8.23531 4.77504   1
 -10  -1 -20 19.8793 6.11959   1
 -10   1  20 17.5076 5.88300   1
  10  -1  20 5.42541 5.52501   1
 -10  -1  20 10.4790 5.43690   1
  10  -1 -20 20.4497 6.01803   1
 -11  -1 -20 11.0082 5.97170   1
  11  -1  20 17.2701 6.43580   1
 -11   1  20 28.7709 7.06103   1
 -11  -1  20 15.3739 5.69550   1
  11  -1 -20 21.4677 6.23603   1
   0  -2 -20 560.875 16.8020   1
   0  -2  20 573.254 16.8722   1
   0  -2 -20 568.259 17.0088   1
   1  -2  20 192.082 10.2228   1
  -1  -2 -20 186.172 10.4259   1
  -1  -2 -20 179.407 10.3174   1
  -1  -2  20 181.685 9.75904   1
   1  -2 -20 178.238 10.1813   1
   2  -2  20 405.207 14.4001   1
  -2  -2 -20 380.076 13.9771   1
   2  -2 -20 393.538 14.0419   1
  -2  -2  20 407.857 13.9052   1
  -3  -2 -20 26.5063 5.62872   1
   3  -2  20 24.9743 5.59059   1
  -3  -2  20 18.4561 5.04932   1
   3  -2 -20 30.5977 5.57004   1
  -4  -2 -20 28.0546 5.63701   1
   4  -2  20 35.3594 6.05854   1
  -4  -2  20 30.6121 5.31972   1
   4  -2 -20 32.5297 5.98133   1
   5  -2  20 17.6580 5.33790   1
  -5  -2 -20 19.3940 5.25852   1
   5  -2 -20 13.5176 4.88714   1
  -5  -2  20 7.18489 4.24456   1
   6  -2  20 413.411 15.2222   1
  -6  -2 -20 415.174 15.4392   1
   6  -2 -20 387.436 14.6266   1
  -6  -2  20 416.470 14.4995   1
  -7  -2 -20 35.6794 6.20165   1
   7  -2  20 40.3203 6.98395   1
   7  -2 -20 41.7890 6.52700   1
  -7  -2  20 42.7708 6.26615   1
  -8  -2 -20 4.25870 4.82458   1
   8  -2  20 5.07479 5.13270   1
   8  -2 -20 14.0862 5.27116   1
  -8  -2  20 19.4003 5.29698   1
   9  -2  20 9.98875 5.31063   1
  -9  -2 -20 1.35335 4.66625   1
  -9  -2  20 11.2314 4.80505   1
   9  -2 -20 3.26086 4.95953   1
 -10  -2 -20 55.4943 7.73167   1
  10  -2  20 59.8948 7.93906   1
 -10  -2  20 51.9275 7.03151   1
  10  -2 -20 65.5137 8.01101   1
   0  -3 -20 -1.2783 3.82495   1
   0  -3  20 0.43584 4.27829   2
   0  -3  20 6.79781 4.28408   1
  -1  -3 -20 10.4007 4.44182   1
   1  -3  20 17.3098 5.40939   2
   1  -3  20 8.89872 4.38160   1
   1  -3 -20 11.7184 4.35770   1
  -1  -3  20 11.1610 5.10707   2
   1  -3 -20 7.55558 4.13521   1
  -1  -3  20 8.10594 4.05218   1
   2  -3  20 2.49793 3.98811   1
  -2  -3 -20 2.79950 4.03099   1
   2  -3  20 11.3240 4.90717   2
   2  -3 -20 0.29831 3.88796   1
  -2  -3  20 2.31522 3.91283   1
   2  -3 -20 1.05938 3.89997   1
  -2  -3  20 13.1378 5.12540   2
  -3  -3 -20 32.8599 5.48417   1
   3  -3  20 22.4485 5.10849   1
   3  -3  20 31.6738 6.30102   2
   3  -3 -20 30.3137 5.38453   1
  -3  -3  20 28.3478 5.00086   1
  -3  -3  20 28.5615 5.84046   2
   4  -3  20 8.17869 4.60386   1
  -4  -3 -20 -1.3074 4.07858   1
  -4  -3  20 0.56967 3.57250   1
   4  -3 -20 -3.3620 3.75470   1
  -4  -3  20 5.58102 4.46988   2
   5  -3  20 -1.5119 4.25444   1
  -5  -3 -20 5.63855 4.21799   1
   5  -3 -20 5.54048 4.26597   1
  -5  -3  20 4.48920 3.98831   1
  -6  -3 -20 60.2408 6.98344   1
   6  -3  20 77.9755 7.48796   1
  -6  -3  20 70.9403 7.02510   1
   6  -3 -20 62.8192 7.06125   1
  -7  -3 -20 25.7468 5.64211   1
   7  -3  20 23.0671 5.64903   1
  -7  -3  20 25.4669 4.95254   1
   7  -3 -20 22.8235 5.39172   1
  -8  -3 -20 197.371 11.1430   1
   8  -3  20 174.225 11.0117   1
  -8  -3  20 190.062 10.0540   1
   8  -3 -20 198.777 11.0393   1
   9  -3  20 9.27890 5.15100   1
  -9  -3 -20 5.33665 4.77658   1
  -9  -3  20 -5.3380 3.92949   1
   9  -3 -20 2.89685 4.57280   1
   0  -4 -20 188.551 11.6384   2
   0  -4 -20 186.753 9.62244   1
   0  -4  20 179.489 8.69196   1
   0  -4  20 151.316 10.5201   2
   1  -4  20 28.1118 5.90401   2
  -1  -4 -20 28.2764 5.06652   1
   1  -4  20 19.0060 4.55611   1
  -1  -4 -20 18.8173 5.73518   2
  -1  -4  20 20.7606 5.71511   2
   1  -4 -20 26.2716 4.99246   1
  -1  -4  20 23.5780 4.72050   1
   1  -4 -20 11.3927 5.47981   2
  -2  -4 -20 78.0446 7.01020   1
  -2  -4 -20 68.0238 8.22953   2
   2  -4  20 79.3855 8.28724   2
   2  -4  20 83.4276 6.73975   1
   2  -4 -20 86.9520 8.71358   2
  -2  -4  20 89.5999 8.50288   2
   2  -4 -20 68.4548 6.59357   1
  -2  -4  20 78.9029 6.36631   1
   3  -4  20 39.1932 5.46617   1
  -3  -4 -20 53.6211 5.99148   1
   3  -4  20 47.8712 6.94627   2
  -3  -4 -20 50.2846 7.50841   2
   3  -4 -20 49.0041 6.07833   1
   3  -4 -20 41.6563 5.84780   1
  -3  -4  20 59.7122 7.38941   2
  -3  -4  20 57.6338 5.76020   1
   4  -4  20 130.256 8.55056   1
  -4  -4 -20 114.846 8.50730   1
   4  -4  20 147.264 10.9858   2
   4  -4 -20 136.328 8.89845   1
   4  -4 -20 128.258 8.69989   1
  -4  -4  20 135.600 7.94518   1
  -4  -4  20 133.134 10.0972   2
   5  -4  20 7.57066 5.58660   2
  -5  -4 -20 8.01472 4.31320   1
   5  -4  20 3.13873 4.31396   1
  -5  -4  20 3.51411 4.67936   2
   5  -4 -20 9.00507 4.45928   1
  -5  -4  20 11.3473 4.02028   1
   6  -4  20 35.0681 5.69608   1
   6  -4  20 47.5102 7.63781   2
  -6  -4 -20 36.2947 5.98532   1
  -6  -4  20 30.1142 4.82456   1
  -6  -4  20 42.1479 7.17923   2
   6  -4 -20 44.8523 5.97118   1
   7  -4  20 10.5681 4.73511   1
  -7  -4 -20 18.7646 5.03212   1
  -7  -4  20 18.2819 4.55376   1
   7  -4 -20 19.4568 5.21168   1
  -7  -4  20 31.7301 6.56127   2
   0  -5 -20 5.31455 4.05525   1
   0  -5  20 -0.7235 4.47196   2
   0  -5 -20 -1.1014 4.28706   2
   1  -5  20 18.7402 5.57249   2
  -1  -5 -20 4.72411 5.00456   2
  -1  -5  20 10.6255 4.92239   2
   1  -5 -20 11.2683 4.10294   1
   1  -5 -20 13.5076 5.32053   2
   2  -5  20 6.69782 4.74096   2
  -2  -5 -20 -1.8837 4.44450   2
  -2  -5  20 -5.5312 4.25784   2
   2  -5 -20 0.21559 3.73591   1
   2  -5 -20 1.61358 4.78159   2
  -3  -5 -20 29.3290 6.71417   2
   3  -5  20 22.8950 6.02824   2
  -3  -5  20 46.6230 6.90263   2
   3  -5 -20 30.1286 4.98006   1
   3  -5 -20 30.0617 6.57604   2
  -4  -5 -20 -2.3181 5.16307   2
   4  -5  20 1.60176 4.99639   2
  -4  -5  20 5.38478 4.71893   2
   4  -5 -20 4.53492 3.81311   1
   4  -5 -20 2.54868 5.17468   2
  -5  -5 -20 9.43088 5.94626   2
   5  -5  20 2.32844 5.21415   2
   5  -5 -20 -1.2023 5.04020   2
   5  -5 -20 8.94106 4.23452   1
  -5  -5  20 -1.9082 4.53235   2
   0   0  21 -0.9977 4.31726   1
   0   0 -21 -0.7237 4.15070   1
  -1   0 -21 284.723 13.0342   1
   1   0 -21 260.194 12.5073   1
   1   0  21 272.769 12.7567   1
  -1   0  21 267.643 12.4707   1
  -2   0 -21 99.8456 8.80467   1
   2   0 -21 91.0834 8.52271   1
   2   0  21 81.2625 8.15038   1
  -2   0  21 85.8095 8.11695   1
  -2   0 -21 83.2414 8.26509   1
   3   0 -21 35.1504 6.22279   1
   3   0  21 33.3916 6.23745   1
  -3   0  21 29.8315 5.85796   1
  -3   0 -21 34.4972 6.46449   1
  -3   0 -21 30.2818 6.23409   1
  -4   0  21 43.4985 6.52818   1
   4   0  21 40.5582 6.82455   1
   4   0 -21 46.9774 6.66557   1
  -4   0 -21 46.5183 6.88104   1
   5   0 -21 40.5890 6.52993   1
   5   0  21 44.0167 7.24550   1
  -5   0  21 42.3483 6.43036   1
  -5   0 -21 57.9576 7.66828   1
   6   0  21 0.12504 5.17757   1
  -6   0  21 8.21801 5.01334   1
   6   0 -21 12.6229 5.29234   1
  -6   0 -21 10.2602 5.43447   1
  -7   0 -21 528.259 18.7536   1
   7   0  21 535.696 19.2408   1
  -7   0  21 523.339 18.1492   1
   7   0 -21 544.441 18.3376   1
   8   0 -21 311.528 14.5405   1
  -8   0 -21 331.647 15.6406   1
  -8   0  21 302.097 14.1302   1
   8   0  21 331.635 15.4524   1
  -9   0 -21 12.9150 5.87510   1
   9   0  21 3.23974 5.47600   1
  -9   0  21 12.9118 5.63283   1
 -10   0 -21 15.2012 6.21378   1
 -10   0  21 12.3598 5.71915   1
  10   0  21 9.14739 6.37836   1
   0  -1  21 195.976 11.0734   1
   0  -1 -21 192.119 10.9452   1
   0   1  21 192.769 11.3441   1
  -1  -1 -21 42.6454 6.36613   1
  -1  -1 -21 37.2506 6.14150   1
   1  -1  21 30.5196 5.76941   1
  -1   1  21 35.3650 6.30200   1
   1   1  21 35.9851 6.35485   1
   1  -1 -21 48.1675 6.70566   1
  -1  -1  21 42.9115 6.28006   1
  -2  -1 -21 -1.5339 4.07445   1
  -2   1  21 -4.7238 4.27259   1
  -2  -1 -21 6.64184 4.59183   1
   2  -1  21 -6.7219 3.85617   1
   2  -1 -21 6.19571 4.38828   1
   2   1  21 2.93507 4.99027   1
  -2  -1  21 6.45813 4.55558   1
   3  -1  21 30.1596 5.98333   1
  -3   1  21 28.3496 5.85645   1
  -3  -1 -21 25.6812 5.77625   1
  -3  -1  21 27.0188 5.54079   1
   3   1  21 46.0527 7.10169   1
   3  -1 -21 26.5105 5.70313   1
   4  -1  21 148.606 10.7197   1
  -4  -1 -21 143.249 10.2185   1
  -4   1  21 161.154 10.7298   1
   4  -1 -21 146.154 10.2592   1
  -4  -1  21 158.800 10.1128   1
  -5  -1 -21 -1.9055 4.59019   1
  -5   1  21 4.53185 4.72453   1
   5  -1  21 -5.3202 4.44645   1
  -5  -1  21 -1.4039 4.08176   1
   5  -1 -21 -7.4550 3.98099   1
  -6   1  21 95.7229 9.03407   1
   6  -1  21 98.7070 9.26121   1
  -6  -1 -21 84.4652 8.57993   1
  -6  -1  21 97.0125 8.75504   1
   6  -1 -21 100.886 9.15115   1
  -7  -1 -21 21.1716 6.05767   1
  -7   1  21 21.6198 6.04497   1
   7  -1  21 15.4239 5.87475   1
   7  -1 -21 19.4604 5.53594   1
  -7  -1  21 12.4421 5.06581   1
  -8   1  21 15.5056 6.17940   1
  -8  -1 -21 31.8239 6.95788   1
   8  -1  21 33.0296 6.89761   1
  -8  -1  21 31.8960 6.38592   1
   8  -1 -21 46.1054 7.34935   1
   9  -1  21 37.3981 7.26619   1
  -9   1  21 33.8943 6.78670   1
  -9  -1 -21 21.1798 6.11345   1
  -9  -1  21 37.1931 6.71826   1
   9  -1 -21 56.8082 7.73928   1
 -10   1  21 69.5644 8.95182   1
  10  -1  21 71.0455 8.77845   1
 -10  -1 -21 80.1318 9.00056   1
 -10  -1  21 80.1553 8.65898   1
  10  -1 -21 74.9198 8.64624   1
   0  -2  21 -4.0150 4.04807   1
   0  -2 -21 -9.1023 3.74306   1
   0  -2 -21 1.05614 4.20983   1
  -1  -2 -21 -1.5770 4.15355   1
  -1  -2 -21 5.35039 4.63866   1
   1  -2  21 -0.9824 4.02969   1
  -1  -2  21 -1.3452 3.98087   1
   1  -2 -21 2.80368 3.97965   1
   2  -2  21 324.538 13.4519   1
  -2  -2 -21 335.819 13.5739   1
   2  -2 -21 326.823 13.4015   1
  -2  -2  21 349.729 13.4003   1
   3  -2  21 97.9026 8.62432   1
  -3  -2 -21 99.7705 8.64239   1
   3  -2 -21 110.686 8.92176   1
  -3  -2  21 89.4293 7.84254   1
  -4  -2 -21 16.8555 5.23671   1
   4  -2  21 21.9543 5.75562   1
  -4  -2  21 17.6515 5.08061   1
   4  -2 -21 3.58000 4.57832   1
   5  -2  21 56.5846 7.23169   1
  -5  -2 -21 50.4852 7.03155   1
   5  -2 -21 44.6517 6.49270   1
  -5  -2  21 46.7846 6.10666   1
   6  -2  21 409.383 15.6240   1
  -6  -2 -21 400.133 15.6235   1
   6  -2 -21 415.199 15.4922   1
  -6  -2  21 421.676 14.8732   1
  -7  -2 -21 11.2678 4.94653   1
   7  -2  21 6.46722 5.26754   1
   7  -2 -21 -1.7950 4.25140   1
  -7  -2  21 5.40235 4.47480   1
   8  -2  21 6.34335 5.22437   1
  -8  -2 -21 -0.8698 4.53320   1
  -8  -2  21 7.01070 4.75051   1
   8  -2 -21 12.7673 5.10060   1
   9  -2  21 26.0944 6.30458   1
  -9  -2 -21 20.9726 6.02041   1
  -9  -2  21 14.6976 5.33482   1
   9  -2 -21 16.8991 5.58901   1
   0  -3  21 178.273 9.82554   1
   0  -3 -21 155.558 9.72619   1
   1  -3  21 33.2804 5.57249   1
  -1  -3 -21 23.2233 5.24008   1
  -1  -3  21 20.9088 4.82645   1
   1  -3 -21 27.0523 5.31036   1
   1  -3 -21 29.1129 5.53338   1
  -2  -3 -21 5.21421 4.34425   1
   2  -3  21 -4.5586 3.71728   1
   2  -3 -21 4.85606 4.22745   1
   2  -3 -21 5.08326 4.23456   1
  -2  -3  21 5.20114 3.95722   1
   3  -3  21 31.6398 5.65039   1
  -3  -3 -21 23.9797 5.33384   1
   3  -3 -21 30.4953 5.50335   1
  -3  -3  21 27.6783 5.32563   1
   4  -3  21 124.716 9.24355   1
  -4  -3 -21 96.2374 8.37729   1
   4  -3 -21 116.824 8.84698   1
  -4  -3  21 102.734 8.13648   1
   5  -3  21 -2.5120 4.21265   1
  -5  -3 -21 0.08825 4.23099   1
  -5  -3  21 -1.7310 3.87951   1
   5  -3 -21 -0.9305 4.12341   1
   6  -3  21 100.964 8.47549   1
  -6  -3 -21 80.4409 7.77143   1
  -6  -3  21 99.0943 8.02176   1
   6  -3 -21 77.5720 7.82573   1
  -7  -3 -21 19.6341 5.36949   1
   7  -3  21 14.2495 5.27480   1
  -7  -3  21 16.5790 4.83283   1
   7  -3 -21 13.5309 5.08569   1
   8  -3  21 28.6389 6.29376   1
  -8  -3 -21 29.6963 6.17088   1
  -8  -3  21 20.0719 5.30262   1
   8  -3 -21 20.2923 5.67048   1
   0  -4  21 -0.6653 4.22367   2
   0  -4  21 -0.3133 3.65185   1
   0  -4 -21 -0.1181 3.99387   1
   1  -4  21 182.844 11.8025   2
   1  -4  21 189.354 9.47365   1
  -1  -4 -21 206.512 10.3765   1
   1  -4 -21 178.912 9.98290   1
  -1  -4  21 214.084 11.8476   2
  -1  -4  21 204.372 9.46705   1
   2  -4  21 61.2906 6.19938   1
   2  -4  21 53.7421 7.55149   2
  -2  -4 -21 44.6832 6.05412   1
   2  -4 -21 56.1210 6.25797   1
  -2  -4  21 66.7562 6.24237   1
  -2  -4  21 54.1633 7.42391   2
   3  -4  21 14.2525 4.60054   1
  -3  -4 -21 22.3295 4.93521   1
   3  -4  21 15.9592 5.66258   2
  -3  -4  21 27.5623 4.83154   1
  -3  -4  21 22.3323 5.68200   2
   3  -4 -21 19.2456 4.97303   1
   4  -4  21 34.4567 5.46458   1
  -4  -4 -21 41.7738 5.88204   1
   4  -4  21 45.7107 7.41209   2
   4  -4 -21 39.7212 5.98470   1
   4  -4 -21 38.6272 5.93124   1
  -4  -4  21 30.7369 5.02243   1
  -4  -4  21 30.1512 6.12440   2
  -5  -4 -21 33.8939 5.45674   1
   5  -4  21 25.9104 5.42116   1
  -5  -4  21 41.0095 5.22696   1
   5  -4 -21 32.0089 5.78009   1
  -5  -4  21 33.0771 6.67340   2
  -6  -4 -21 -1.8163 4.14573   1
   6  -4  21 1.50144 4.28201   1
  -6  -4  21 6.41096 3.91154   1
   6  -4 -21 5.61047 4.55327   1
  -6  -4  21 7.44871 5.27852   2
   0  -5 -21 127.082 10.5985   2
   0  -5 -21 152.732 8.75766   1
   0  -5  21 125.962 10.0961   2
   1  -5  21 28.7277 6.20641   2
  -1  -5 -21 32.5203 7.02215   2
   1  -5 -21 30.9550 4.96373   1
  -1  -5  21 36.0149 6.27644   2
   1  -5 -21 37.9461 7.32827   2
  -2  -5 -21 2.64643 5.67328   2
   2  -5  21 -0.0617 4.75789   2
   2  -5 -21 0.18693 4.87159   2
  -2  -5  21 9.10542 5.15725   2
   2  -5 -21 1.68246 3.94981   1
   0   0 -22 561.202 18.3001   1
   0   0  22 546.801 17.8885   1
  -1   0  22 190.996 11.2730   1
   1   0 -22 197.245 11.6155   1
  -1   0 -22 195.788 11.4709   1
   1   0  22 208.110 11.7529   1
  -2   0 -22 24.4800 6.00271   1
   2   0 -22 10.0441 5.07773   1
   2   0  22 21.2160 5.56166   1
  -2   0  22 11.3269 4.95744   1
  -2   0 -22 31.2142 6.36905   1
  -3   0 -22 686.154 20.9404   1
   3   0  22 680.313 20.6452   1
   3   0 -22 702.493 20.5307   1
  -3   0  22 671.081 20.1413   1
  -3   0 -22 695.659 20.9576   1
   4   0  22 7.47681 5.04239   1
  -4   0 -22 4.71211 4.94994   1
   4   0 -22 5.15595 4.93912   1
  -4   0  22 7.45775 4.71415   1
   5   0 -22 468.930 17.0344   1
  -5   0  22 394.395 15.8484   1
  -5   0 -22 476.170 17.4432   1
   5   0  22 442.855 17.1172   1
   6   0 -22 100.476 9.47202   1
  -6   0  22 75.1293 8.20989   1
   6   0  22 78.6738 9.02320   1
  -6   0 -22 97.6699 9.57166   1
  -7   0 -22 19.8330 6.50275   1
  -7   0  22 22.7815 6.08253   1
   7   0 -22 22.2067 6.35394   1
   7   0  22 21.5184 6.68923   1
   8   0  22 127.265 11.1597   1
  -8   0 -22 137.030 11.4270   1
  -8   0  22 120.457 10.6409   1
  -9   0  22 11.8877 5.45467   1
  -9   0 -22 7.68309 5.87229   1
   9   0  22 9.51727 5.97739   1
   0  -1  22 0.73262 4.29890   1
   0  -1 -22 -3.2534 4.27434   1
   0   1  22 -0.2614 4.56061   1
   1  -1  22 8.36059 5.08640   1
  -1   1  22 14.2814 5.09226   1
  -1  -1 -22 7.79337 5.02168   1
  -1  -1 -22 12.3204 5.18460   1
  -1  -1  22 20.6379 5.39238   1
   1  -1 -22 13.4953 5.20061   1
   1   1  22 18.7245 5.62691   1
  -2  -1 -22 9.55179 5.09556   1
   2  -1  22 1.84774 4.74857   1
  -2  -1 -22 12.5631 5.42383   1
  -2   1  22 12.8529 5.41554   1
   2  -1 -22 5.11979 4.44414   1
  -2  -1  22 6.85497 4.80065   1
  -3   1  22 2.90672 5.05015   1
   3  -1  22 3.69184 4.89844   1
  -3  -1 -22 13.8860 5.22437   1
   3  -1 -22 19.7830 5.60647   1
  -3  -1  22 6.64208 4.74635   1
  -4   1  22 29.5564 6.40816   1
  -4  -1 -22 25.0714 6.07202   1
   4  -1  22 19.0382 5.86609   1
   4  -1 -22 21.7188 5.67355   1
  -4  -1  22 16.7450 5.35093   1
   5  -1  22 229.923 12.8900   1
  -5  -1 -22 244.808 13.0233   1
  -5   1  22 232.878 12.6996   1
   5  -1 -22 220.412 12.1485   1
  -5  -1  22 221.372 11.9886   1
  -6  -1 -22 88.1030 9.23050   1
   6  -1  22 74.6346 8.74191   1
  -6   1  22 81.7718 8.79005   1
  -6  -1  22 67.0719 7.89763   1
   6  -1 -22 97.6478 9.00202   1
  -7   1  22 144.946 11.1135   1
   7  -1  22 112.914 10.3074   1
  -7  -1 -22 142.659 11.5134   1
   7  -1 -22 125.631 10.2956   1
  -7  -1  22 112.225 9.65490   1
   8  -1  22 14.5382 5.84435   1
  -8   1  22 15.7381 6.03214   1
  -8  -1 -22 -4.6140 4.94178   1
   8  -1 -22 10.0976 5.70648   1
  -8  -1  22 2.27786 4.84744   1
  -9  -1 -22 18.2473 6.27666   1
   9  -1  22 6.00927 5.94743   1
  -9   1  22 17.7262 6.54292   1
   9  -1 -22 15.6247 6.07946   1
  -9  -1  22 5.01762 5.08294   1
   0  -2  22 9.14882 4.81798   1
   0  -2 -22 4.82388 4.68310   1
   0  -2 -22 0.40678 4.41092   1
  -1  -2 -22 163.831 10.4874   1
   1  -2  22 160.655 10.4235   1
  -1  -2  22 156.935 10.0411   1
   1  -2 -22 154.915 10.4848   1
   2  -2  22 46.4887 6.66568   1
  -2  -2 -22 45.5156 6.69523   1
   2  -2 -22 30.1862 5.92674   1
  -2  -2  22 44.9200 6.33908   1
   3  -2  22 6.44498 5.00838   1
  -3  -2 -22 0.81477 4.40667   1
   3  -2 -22 7.29263 4.54024   1
  -3  -2  22 2.50717 4.19735   1
   4  -2  22 53.6496 7.19987   1
  -4  -2 -22 58.4574 7.55947   1
   4  -2 -22 42.4661 6.69465   1
  -4  -2  22 51.9298 6.71650   1
  -5  -2 -22 22.8652 5.82063   1
   5  -2  22 17.6207 5.69441   1
  -5  -2  22 21.7486 5.48145   1
   5  -2 -22 27.0587 5.82648   1
  -6  -2 -22 12.8837 5.49875   1
   6  -2  22 12.0067 5.35654   1
   6  -2 -22 5.19721 5.02827   1
  -6  -2  22 7.20316 4.68782   1
  -7  -2 -22 92.0350 9.05047   1
   7  -2  22 99.1073 9.56703   1
   7  -2 -22 94.8242 8.92577   1
  -7  -2  22 86.0633 8.17955   1
   8  -2  22 9.92942 5.31923   1
  -8  -2 -22 17.6813 6.03575   1
  -8  -2  22 17.1356 5.39402   1
   8  -2 -22 20.9833 5.85924   1
   0  -3  22 7.58760 4.58311   1
   0  -3 -22 -0.7778 4.03190   1
   1  -3  22 8.28816 4.54337   1
  -1  -3 -22 8.97382 4.47181   1
  -1  -3  22 7.60007 4.53329   1
   1  -3 -22 0.27115 4.42011   1
   1  -3 -22 9.90387 4.78545   1
   2  -3  22 0.48003 4.08809   1
  -2  -3 -22 4.81942 4.46366   1
  -2  -3  22 -0.2457 3.82995   1
   2  -3 -22 -1.1305 4.30779   1
   2  -3 -22 7.00943 4.63165   1
  -3  -3 -22 8.26129 4.39456   1
   3  -3  22 6.97762 4.69427   1
   3  -3 -22 6.61723 4.55742   1
  -3  -3  22 11.4944 4.55145   1
   4  -3  22 21.7151 5.41851   1
  -4  -3 -22 21.0281 5.54395   1
  -4  -3  22 21.3598 4.94210   1
   4  -3 -22 12.0580 4.86100   1
   5  -3  22 180.405 11.1673   1
  -5  -3 -22 204.043 11.1543   1
  -5  -3  22 179.036 10.0248   1
   5  -3 -22 177.475 10.6152   1
   6  -3  22 58.0122 7.24993   1
  -6  -3 -22 69.3202 7.67816   1
  -6  -3  22 59.9677 6.65431   1
   6  -3 -22 55.1576 7.03903   1
  -7  -3 -22 89.4690 8.58122   1
   7  -3  22 90.1805 8.64588   1
   7  -3 -22 82.6588 8.54295   1
  -7  -3  22 85.3112 7.69396   1
   0  -4 -22 365.934 13.5231   1
   0  -4  22 384.345 15.9080   2
   0  -4  22 411.149 12.9161   1
   1  -4  22 135.086 8.84327   1
   1  -4  22 128.907 10.6085   2
  -1  -4 -22 148.601 9.67758   1
  -1  -4  22 145.697 8.63164   1
  -1  -4  22 159.471 11.3068   2
   1  -4 -22 166.748 9.88601   1
   2  -4  22 8.20531 5.50381   2
  -2  -4 -22 19.6150 4.99781   1
   2  -4  22 23.9290 5.11636   1
  -2  -4  22 20.4654 4.70622   1
  -2  -4  22 14.9565 5.99911   2
   2  -4 -22 13.6571 4.78966   1
   3  -4  22 494.952 14.8666   1
  -3  -4 -22 505.383 15.6921   1
  -3  -4  22 474.135 14.1493   1
   3  -4 -22 495.928 15.6811   1
  -3  -4  22 510.566 18.2255   2
  -4  -4 -22 0.33192 4.28584   1
   4  -4  22 10.3068 4.61357   1
  -4  -4  22 5.38047 4.17931   1
   4  -4 -22 11.2256 4.90865   1
   4  -4 -22 5.55068 4.68375   1
  -4  -4  22 6.30586 5.03098   2
   0   0 -23 4.04060 4.87541   1
   0   0  23 5.80801 4.89649   1
  -1   0 -23 600.569 19.6801   1
   1   0  23 618.721 19.6203   1
  -1   0  23 603.743 19.5644   1
   1   0 -23 648.235 20.1167   1
   2   0 -23 9.48009 5.30044   1
  -2   0 -23 10.1970 5.26387   1
  -2   0  23 -9.5952 4.22736   1
   2   0  23 7.08668 5.11933   1
  -2   0 -23 6.62433 5.22237   1
  -3   0 -23 192.250 12.1526   1
  -3   0  23 216.562 12.2846   1
   3   0 -23 223.706 12.5897   1
   3   0  23 215.230 12.5812   1
   4   0 -23 295.827 14.4745   1
   4   0  23 333.039 15.0789   1
  -4   0 -23 328.249 14.8867   1
  -4   0  23 312.513 14.2570   1
  -5   0  23 133.086 10.6862   1
   5   0  23 126.718 10.7871   1
  -5   0 -23 141.145 11.4183   1
   5   0 -23 156.343 11.3035   1
   6   0 -23 22.3870 6.49011   1
  -6   0  23 16.6366 5.93356   1
   6   0  23 29.9126 7.03364   1
  -6   0 -23 18.8335 6.41746   1
  -7   0  23 95.0651 9.26833   1
  -7   0 -23 94.5584 9.94832   1
   7   0  23 94.6906 10.2662   1
  -8   0 -23 175.588 13.1789   1
  -8   0  23 189.079 12.3417   1
   8   0  23 182.278 12.9860   1
   0  -1  23 45.0563 6.88703   1
   0  -1 -23 48.5622 7.13226   1
  -1  -1 -23 109.908 9.67826   1
  -1   1  23 95.2234 9.49547   1
   1  -1  23 91.7489 8.70629   1
  -1  -1 -23 97.1464 9.32002   1
   1  -1 -23 115.242 10.0107   1
  -1  -1  23 117.797 9.87647   1
  -2   1  23 30.4326 6.51204   1
  -2  -1 -23 38.8771 6.86069   1
   2  -1  23 39.8779 6.80254   1
  -2  -1 -23 46.1839 6.93497   1
   2  -1 -23 27.4477 6.20056   1
  -2  -1  23 34.8107 6.46062   1
   3  -1  23 67.1073 7.98643   1
  -3  -1 -23 55.4008 7.68783   1
  -3   1  23 60.8241 7.93845   1
  -3  -1  23 45.8221 6.81545   1
   3  -1 -23 48.1089 7.35650   1
  -4  -1 -23 112.044 10.0754   1
  -4   1  23 139.024 10.8667   1
   4  -1  23 109.019 9.98072   1
  -4  -1  23 97.3423 8.83606   1
   4  -1 -23 111.736 9.73470   1
  -5   1  23 3.17427 5.22999   1
  -5  -1 -23 -0.0208 4.91909   1
   5  -1  23 2.87456 5.31308   1
   5  -1 -23 2.96847 4.91799   1
  -5  -1  23 7.32322 5.08186   1
   6  -1  23 65.2571 8.54107   1
  -6   1  23 72.5816 8.87344   1
  -6  -1 -23 67.9198 8.38277   1
   6  -1 -23 80.6361 8.74866   1
  -6  -1  23 79.5726 8.49825   1
  -7   1  23 92.4089 9.98610   1
  -7  -1 -23 88.2265 9.64384   1
   7  -1  23 82.5132 9.30836   1
  -7  -1  23 95.0880 9.20909   1
   7  -1 -23 95.7351 9.33947   1
  -8  -1 -23 24.7495 6.77381   1
   8  -1  23 10.8889 6.28265   1
   8  -1 -23 22.9238 6.31748   1
  -8  -1  23 20.3677 5.96154   1
   0  -2 -23 3.75269 4.74252   1
   0  -2 -23 2.95065 4.82903   1
   0  -2  23 -2.4629 4.19493   1
  -1  -2 -23 44.2172 6.69893   1
   1  -2  23 37.8786 6.52657   1
  -1  -2  23 49.0209 6.96367   1
   1  -2 -23 46.8650 6.99905   1
   1  -2 -23 50.4546 6.85902   1
   2  -2  23 2.59202 4.93025   1
  -2  -2 -23 4.72950 4.77977   1
   2  -2 -23 -6.2782 4.12822   1
  -2  -2  23 -3.7622 3.81547   1
  -3  -2 -23 105.686 9.22435   1
   3  -2  23 108.503 9.21368   1
   3  -2 -23 105.524 9.32005   1
  -3  -2  23 94.4263 8.56106   1
   4  -2  23 326.042 14.4815   1
  -4  -2 -23 345.165 14.6514   1
   4  -2 -23 307.748 13.9782   1
  -4  -2  23 320.376 13.5854   1
  -5  -2 -23 57.8611 7.83682   1
   5  -2  23 65.3478 7.69757   1
  -5  -2  23 75.3232 7.97810   1
   5  -2 -23 62.5076 7.91259   1
   6  -2  23 66.7892 8.16237   1
  -6  -2 -23 47.7739 7.37644   1
  -6  -2  23 65.5970 7.66384   1
   6  -2 -23 52.5267 7.23433   1
  -7  -2 -23 1.66281 5.03288   1
   7  -2  23 10.8684 5.73696   1
  -7  -2  23 9.18342 5.05654   1
   7  -2 -23 4.72314 4.98694   1
   0  -3  23 52.8544 6.80379   1
   0  -3 -23 57.0141 7.08051   1
  -1  -3 -23 63.5983 7.35824   1
   1  -3  23 71.5609 7.42650   1
   1  -3 -23 88.2893 8.09766   1
  -1  -3  23 75.2083 7.41673   1
   2  -3  23 23.3379 5.35727   1
  -2  -3 -23 21.0812 5.59635   1
  -2  -3  23 34.9606 5.90190   1
   2  -3 -23 21.2214 5.49993   1
   2  -3 -23 32.2197 6.12320   1
  -3  -3 -23 45.3519 6.68022   1
   3  -3  23 35.8497 6.09909   1
  -3  -3  23 33.0576 5.87345   1
   3  -3 -23 25.5647 5.84366   1
   3  -3 -23 48.4622 7.07614   1
   4  -3  23 98.3265 8.62763   1
  -4  -3 -23 72.9718 8.14454   1
   4  -3 -23 81.7728 8.20312   1
  -4  -3  23 105.457 8.54636   1
  -5  -3 -23 4.76396 4.70978   1
   5  -3  23 9.44543 5.08631   1
   5  -3 -23 4.52060 4.66881   1
  -5  -3  23 8.52821 4.46744   1
   0  -4  23 -3.3534 3.74738   1
   0  -4 -23 2.12596 4.23959   1
  -1  -4 -23 422.883 15.0501   1
   1  -4  23 453.910 14.3548   1
   1  -4 -23 451.282 15.1365   1
  -1  -4  23 461.772 13.9450   1
   2  -4  23 0.73791 4.03532   1
  -2  -4 -23 7.40902 4.67089   1
   2  -4 -23 0.41016 4.35030   1
  -2  -4  23 6.94139 4.19801   1
   0   0 -24 3.30244 5.26426   1
   0   0  24 15.5205 5.75208   1
  -1   0 -24 1.22520 5.11922   1
  -1   0  24 -5.0667 4.66026   1
  -1   0 -24 5.68275 5.49491   1
   1   0 -24 -0.0344 4.87826   1
   1   0  24 0.62556 4.80343   1
   2   0 -24 15.9620 5.97402   1
   2   0  24 7.18371 5.78172   1
  -2   0  24 14.8118 5.73533   1
  -2   0 -24 0.71098 5.49472   1
  -2   0 -24 23.5152 6.30123   1
  -3   0 -24 2.64304 5.35439   1
   3   0 -24 -2.5626 5.11611   1
  -3   0  24 5.69772 5.09534   1
   3   0  24 0.57646 4.93236   1
  -4   0  24 38.9389 7.05968   1
   4   0 -24 50.1048 7.80679   1
  -4   0 -24 22.6760 6.57046   1
   4   0  24 35.7835 6.98397   1
  -5   0  24 -2.5783 5.00745   1
  -5   0 -24 -0.0147 5.34529   1
   5   0 -24 7.90404 5.44394   1
   5   0  24 -7.7568 5.13009   1
  -6   0  24 109.952 10.1903   1
  -6   0 -24 108.734 10.5447   1
   6   0  24 88.6189 9.63125   1
  -7   0  24 17.3372 6.33246   1
  -7   0 -24 13.8986 6.42931   1
   7   0  24 13.9767 6.45083   1
   0  -1 -24 -1.8500 4.81717   1
   0  -1  24 -11.316 3.79460   1
   0  -1 -24 7.33035 5.28475   1
  -1  -1 -24 76.1023 8.62243   1
   1  -1  24 65.1927 8.03262   1
  -1  -1 -24 53.7710 7.79842   1
  -1  -1  24 57.0863 7.78555   1
   1  -1 -24 64.8987 7.95627   1
  -2  -1 -24 17.2764 6.04663   1
   2  -1  24 29.4376 6.50486   1
  -2  -1  24 28.5407 6.16829   1
   2  -1 -24 23.5646 6.44838   1
  -3  -1 -24 8.73188 5.45873   1
   3  -1  24 7.69735 5.31129   1
   3  -1 -24 13.9907 5.57908   1
  -3  -1  24 5.88319 5.02104   1
  -4  -1 -24 193.506 12.5825   1
   4  -1  24 205.132 12.9831   1
   4  -1 -24 190.916 12.2738   1
  -4  -1  24 206.350 12.1844   1
   5  -1  24 11.2487 6.08066   1
  -5  -1 -24 8.57668 5.62988   1
   5  -1 -24 -0.1236 4.47578   1
  -5  -1  24 7.81819 5.20117   1
  -6  -1 -24 22.6421 6.63931   1
   6  -1  24 33.8374 7.38190   1
   6  -1 -24 42.8553 7.39076   1
  -6  -1  24 20.3834 6.23988   1
   0  -2 -24 1228.28 29.3888   1
   0  -2 -24 1216.36 29.4052   1
   0  -2  24 1187.76 28.3015   1
  -1  -2 -24 82.0717 8.63568   1
   1  -2  24 75.4744 8.23675   1
  -1  -2  24 83.9936 8.30962   1
   1  -2 -24 86.6510 8.73949   1
   1  -2 -24 73.9182 8.27599   1
   2  -2  24 118.493 10.0288   1
  -2  -2 -24 110.803 9.63910   1
  -2  -2  24 136.094 9.81174   1
   2  -2 -24 105.306 9.54235   1
  -3  -2 -24 13.8536 5.49356   1
   3  -2  24 18.1963 5.75071   1
  -3  -2  24 11.8952 5.21353   1
   3  -2 -24 14.5934 5.68897   1
   4  -2  24 2.27072 5.14179   1
  -4  -2 -24 -1.7949 4.69715   1
  -4  -2  24 6.66028 4.91738   1
   4  -2 -24 7.16261 5.12003   1
   5  -2  24 7.08045 5.38538   1
  -5  -2 -24 16.5974 5.98426   1
  -5  -2  24 14.3039 5.16181   1
   5  -2 -24 20.4068 5.73929   1
   0  -3 -24 0.47493 4.42599   1
   0  -3  24 -2.7922 4.16074   1
  -1  -3 -24 51.9826 7.05024   1
   1  -3  24 55.0327 6.96172   1
   1  -3 -24 54.7023 7.02693   1
  -1  -3  24 45.1507 6.38430   1
   2  -3  24 27.7568 5.93974   1
  -2  -3 -24 24.5189 5.84924   1
   2  -3 -24 22.0462 5.48051   1
   2  -3 -24 17.4827 5.64067   1
  -2  -3  24 22.7733 5.45729   1
  -3  -3 -24 0.11180 4.35545   1
   3  -3  24 10.0838 5.26499   1
   3  -3 -24 4.67905 4.88403   1
   3  -3 -24 5.37902 4.69487   1
  -3  -3  24 0.04535 4.06809   1
   0   0 -25 -3.9557 4.74737   1
   0   0  25 -7.6123 4.35960   1
  -1   0  25 297.442 14.4941   1
   1   0  25 334.643 15.0952   1
   1   0 -25 300.624 14.8892   1
  -1   0 -25 354.402 15.6643   1
  -1   0 -25 325.776 15.3641   1
  -2   0  25 12.8904 5.72426   1
  -2   0 -25 9.96422 5.74286   1
   2   0  25 2.49216 5.06573   1
  -2   0 -25 3.38105 5.32097   1
   2   0 -25 -2.6112 4.95934   1
  -3   0  25 182.918 12.3222   1
  -3   0 -25 188.650 12.8226   1
   3   0 -25 211.272 13.2524   1
   3   0  25 199.337 12.9583   1
   4   0  25 28.1089 7.33404   1
  -4   0  25 31.9457 6.46278   1
  -4   0 -25 33.3877 7.29126   1
  -5   0 -25 50.2892 8.37054   1
   5   0  25 64.9305 9.11144   1
  -5   0  25 79.0301 8.92463   1
   0  -1  25 52.2924 7.83606   1
   0  -1 -25 47.9350 7.51041   1
   0  -1 -25 49.3303 7.65243   1
   1  -1  25 127.309 10.5764   1
  -1  -1 -25 132.160 10.9624   1
  -1  -1 -25 105.794 9.95315   1
  -1  -1  25 85.9003 8.70468   1
   1  -1 -25 116.670 10.3091   1
   2  -1  25 -1.1705 4.90979   1
  -2  -1 -25 0.15964 4.99651   1
   2  -1 -25 1.56866 4.78756   1
  -2  -1  25 3.22634 4.86123   1
   3  -1  25 276.475 14.4703   1
  -3  -1 -25 287.474 14.6392   1
  -3  -1  25 285.246 14.1542   1
   3  -1 -25 278.988 14.2588   1
  -4  -1 -25 53.5814 7.98040   1
   4  -1  25 62.1263 8.61489   1
   4  -1 -25 60.3525 8.33602   1
  -4  -1  25 58.1736 7.91659   1
   0  -2 -25 5.57112 5.31454   1
   0  -2 -25 0.50748 4.99513   1
   0  -2  25 -0.4696 4.59596   1
  -1  -2 -25 3.15417 4.89969   1
   1  -2  25 -1.2963 4.54741   1
   1  -2 -25 3.91584 5.18355   1
   1  -2 -25 -0.3862 4.96405   1
  -1  -2  25 3.94319 4.78438   1
   2  -2  25 103.921 9.75151   1
  -2  -2 -25 109.029 9.89162   1
  -2  -2  25 143.446 10.6355   1
   2  -2 -25 109.947 9.90562   1
   2  -2 -25 116.605 9.96458   1
   3  -2  25 450.516 17.1141   1
  -3  -2 -25 436.802 17.1972   1
   3  -2 -25 435.162 17.1173   1
  -3  -2  25 465.261 16.6182   1
   0   0  26 110.934 10.4608   1
   0   0 -26 111.858 10.7826   1
   0   0 -26 109.877 10.3309   1
  -1   0  26 41.2349 7.64041   1
   1   0 -26 35.1460 7.46666   1
   1   0  26 46.7046 7.83364   1
  -1   0 -26 58.4581 8.69612   1
  -1   0 -26 34.8837 7.49811   1
  -2   0  26 63.5903 8.37555   1
   2   0  26 48.4704 8.08745   1
  -2   0 -26 54.7281 8.56494   1
  -2   0 -26 81.2440 9.56060   1
   0  -1  26 -5.5458 4.56892   1
   0  -1 -26 -6.8747 4.99078   1
   0  -1 -26 7.98456 5.57145   1
   0   0   0    0.00    0.00   0
;
_shelx_hkl_checksum              91143
loop_
_space_group_symop_operation_xyz
'x, y, z'
'-x+1/2, -y, z+1/2'
'x+1/2, -y+1/2, -z+1/2'
'-x, y+1/2, -z'
'-x, -y, -z'
'x-1/2, y, -z-1/2'
'-x-1/2, y-1/2, z-1/2'
'x, -y-1/2, z'
loop_
_atom_site_label
_atom_site_type_symbol
_atom_site_fract_x
_atom_site_fract_y
_atom_site_fract_z
_atom_site_U_iso_or_equiv
_atom_site_adp_type
_atom_site_occupancy
_atom_site_site_symmetry_order
_atom_site_calc_flag
_atom_site_refinement_flags_posn
_atom_site_refinement_flags_adp
_atom_site_refinement_flags_occupancy
U1 U 0.29176(2) 0.2500 0.37606(2) 0.00753(6) Uani 1 2 d S T P
Ba1 Ba 0.32257(3) 0.2500 0.05798(2) 0.00719(9) Uani 1 2 d S T P
Ba2 Ba 0.44537(3) 0.2500 0.72283(2) 0.00695(9) Uani 1 2 d S T P
Te1 Te 0.07840(3) 0.00141(5) 0.39820(2) 0.00785(7) Uani 1 1 d . . .
Te2 Te 0.30772(3) 0.00207(5) 0.23114(2) 0.00716(7) Uani 1 1 d . . .
Te3 Te 0.04019(4) 0.2500 0.12358(2) 0.00558(9) Uani 1 2 d S T P
Te4 Te 0.32069(4) 0.2500 0.54112(2) 0.00563(9) Uani 1 2 d S T P
Te5 Te 0.63946(4) 0.2500 0.58448(2) 0.00483(9) Uani 1 2 d S T P
Ti1 Ti 0.0000 0.0000 0.0000 0.0179(3) Uani 1 2 d S . P
loop_
_atom_site_aniso_label
_atom_site_aniso_U_11
_atom_site_aniso_U_22
_atom_site_aniso_U_33
_atom_site_aniso_U_23
_atom_site_aniso_U_13
_atom_site_aniso_U_12
U1 0.00899(14) 0.00694(11) 0.00665(13) 0.000 0.00027(10) 0.000
Ba1 0.0090(2) 0.00713(17) 0.00541(19) 0.000 -0.00093(16) 0.000
Ba2 0.0063(2) 0.00729(18) 0.0072(2) 0.000 0.00050(15) 0.000
Te1 0.00696(15) 0.00981(14) 0.00677(15) -0.00096(12) -0.00027(12) 0.00139(12)
Te2 0.00746(15) 0.00891(14) 0.00512(15) 0.00115(12) -0.00034(11) -0.00014(12)
Te3 0.0065(2) 0.00483(19) 0.0054(2) 0.000 -0.00018(16) 0.000
Te4 0.0069(2) 0.00500(18) 0.0050(2) 0.000 0.00031(17) 0.000
Te5 0.0056(2) 0.00455(18) 0.0044(2) 0.000 -0.00025(16) 0.000
Ti1 0.0161(7) 0.0223(7) 0.0152(7) -0.0009(6) 0.0011(6) 0.0005(6)
loop_
_atom_type_symbol
_atom_type_description
_atom_type_scat_dispersion_real
_atom_type_scat_dispersion_imag
_atom_type_scat_source
Ti Ti 0.2776 0.4457 'International Tables Vol C Tables 4.2.6.8 and 6.1.1.4'
Te Te -0.5308 1.6751 'International Tables Vol C Tables 4.2.6.8 and 6.1.1.4'
Ba Ba -0.3244 2.2819 'International Tables Vol C Tables 4.2.6.8 and 6.1.1.4'
U U -9.6767 9.6646 'International Tables Vol C Tables 4.2.6.8 and 6.1.1.4'
loop_
_geom_angle_atom_site_label_1
_geom_angle_atom_site_label_2
_geom_angle_atom_site_label_3
_geom_angle
_geom_angle_site_symmetry_1
_geom_angle_site_symmetry_3
Te4 U1 Te1 88.210(12) . .
Te4 U1 Te1 88.210(12) . 8_565
Te1 U1 Te1 59.021(13) . 8_565
Te4 U1 Te2 148.782(8) . .
Te1 U1 Te2 85.914(10) . .
Te1 U1 Te2 114.368(12) 8_565 .
Te4 U1 Te2 148.783(8) . 8_565
Te1 U1 Te2 114.368(12) . 8_565
Te1 U1 Te2 85.914(10) 8_565 8_565
Te2 U1 Te2 58.832(13) . 8_565
Te4 U1 Te3 83.157(14) . 6_656
Te1 U1 Te3 149.293(7) . 6_656
Te1 U1 Te3 149.293(7) 8_565 6_656
Te2 U1 Te3 86.420(12) . 6_656
Te2 U1 Te3 86.420(12) 8_565 6_656
Te4 U1 Te5 75.326(9) . 5_666
Te1 U1 Te5 131.178(12) . 5_666
Te1 U1 Te5 74.563(10) 8_565 5_666
Te2 U1 Te5 129.700(12) . 5_666
Te2 U1 Te5 73.553(10) 8_565 5_666
Te3 U1 Te5 74.746(9) 6_656 5_666
Te4 U1 Te5 75.326(9) . 5_656
Te1 U1 Te5 74.562(10) . 5_656
Te1 U1 Te5 131.177(12) 8_565 5_656
Te2 U1 Te5 73.552(10) . 5_656
Te2 U1 Te5 129.699(12) 8_565 5_656
Te3 U1 Te5 74.746(9) 6_656 5_656
Te5 U1 Te5 139.605(17) 5_666 5_656
Te5 Ba1 Te2 130.466(14) 6_556 8_565
Te5 Ba1 Te2 130.466(14) 6_556 .
Te2 Ba1 Te2 50.572(12) 8_565 .
Te5 Ba1 Te1 66.238(11) 6_556 2_554
Te2 Ba1 Te1 162.567(16) 8_565 2_554
Te2 Ba1 Te1 125.761(8) . 2_554
Te5 Ba1 Te1 66.238(11) 6_556 7_665
Te2 Ba1 Te1 125.761(8) 8_565 7_665
Te2 Ba1 Te1 162.566(16) . 7_665
Te1 Ba1 Te1 51.281(12) 2_554 7_665
Te5 Ba1 Te4 66.771(10) 6_556 2_554
Te2 Ba1 Te4 114.882(14) 8_565 2_554
Te2 Ba1 Te4 71.672(10) . 2_554
Te1 Ba1 Te4 74.246(10) 2_554 2_554
Te1 Ba1 Te4 118.249(14) 7_665 2_554
Te5 Ba1 Te4 66.771(10) 6_556 2_564
Te2 Ba1 Te4 71.672(10) 8_565 2_564
Te2 Ba1 Te4 114.882(14) . 2_564
Te1 Ba1 Te4 118.249(14) 2_554 2_564
Te1 Ba1 Te4 74.246(10) 7_665 2_564
Te4 Ba1 Te4 118.770(18) 2_554 2_564
Te5 Ba1 Te1 138.115(13) 6_556 3
Te2 Ba1 Te1 70.374(10) 8_565 3
Te2 Ba1 Te1 91.316(12) . 3
Te1 Ba1 Te1 93.626(12) 2_554 3
Te1 Ba1 Te1 72.525(11) 7_665 3
Te4 Ba1 Te1 145.318(12) 2_554 3
Te4 Ba1 Te1 95.700(9) 2_564 3
Te5 Ba1 Te1 138.115(13) 6_556 6_656
Te2 Ba1 Te1 91.316(12) 8_565 6_656
Te2 Ba1 Te1 70.374(10) . 6_656
Te1 Ba1 Te1 72.525(11) 2_554 6_656
Te1 Ba1 Te1 93.626(12) 7_665 6_656
Te4 Ba1 Te1 95.700(9) 2_554 6_656
Te4 Ba1 Te1 145.318(12) 2_564 6_656
Te1 Ba1 Te1 49.676(11) 3 6_656
Te5 Ba1 Te3 68.232(13) 6_556 .
Te2 Ba1 Te3 69.879(11) 8_565 .
Te2 Ba1 Te3 69.879(11) . .
Te1 Ba1 Te3 126.837(13) 2_554 .
Te1 Ba1 Te3 126.837(13) 7_665 .
Te4 Ba1 Te3 63.547(10) 2_554 .
Te4 Ba1 Te3 63.547(10) 2_564 .
Te1 Ba1 Te3 139.290(12) 3 .
Te1 Ba1 Te3 139.290(12) 6_656 .
Te2 Ba2 Te2 52.116(12) 2 7_666
Te2 Ba2 Te5 130.356(13) 2 .
Te2 Ba2 Te5 130.356(13) 7_666 .
Te2 Ba2 Te2 163.558(14) 2 4_656
Te2 Ba2 Te2 125.213(10) 7_666 4_656
Te5 Ba2 Te2 65.152(11) . 4_656
Te2 Ba2 Te2 125.213(10) 2 5_656
Te2 Ba2 Te2 163.558(14) 7_666 5_656
Te5 Ba2 Te2 65.152(11) . 5_656
Te2 Ba2 Te2 51.616(12) 4_656 5_656
Te2 Ba2 Te3 72.036(10) 2 2
Te2 Ba2 Te3 116.345(14) 7_666 2
Te5 Ba2 Te3 65.882(10) . 2
Te2 Ba2 Te3 116.924(14) 4_656 2
Te2 Ba2 Te3 72.982(10) 5_656 2
Te2 Ba2 Te3 116.345(14) 2 2_565
Te2 Ba2 Te3 72.036(10) 7_666 2_565
Te5 Ba2 Te3 65.882(10) . 2_565
Te2 Ba2 Te3 72.982(10) 4_656 2_565
Te2 Ba2 Te3 116.924(14) 5_656 2_565
Te3 Ba2 Te3 117.779(17) 2 2_565
Te2 Ba2 Te1 94.263(12) 2 7_666
Te2 Ba2 Te1 72.510(10) 7_666 7_666
Te5 Ba2 Te1 135.359(13) . 7_666
Te2 Ba2 Te1 70.655(10) 4_656 7_666
Te2 Ba2 Te1 92.308(12) 5_656 7_666
Te3 Ba2 Te1 146.367(12) 2 7_666
Te3 Ba2 Te1 95.852(9) 2_565 7_666
Te2 Ba2 Te1 72.510(10) 2 2
Te2 Ba2 Te1 94.263(12) 7_666 2
Te5 Ba2 Te1 135.359(13) . 2
Te2 Ba2 Te1 92.308(12) 4_656 2
Te2 Ba2 Te1 70.656(10) 5_656 2
Te3 Ba2 Te1 95.852(9) 2 2
Te3 Ba2 Te1 146.367(12) 2_565 2
Te1 Ba2 Te1 50.516(12) 7_666 2
Te2 Ba2 Te4 70.361(11) 2 .
Te2 Ba2 Te4 70.361(11) 7_666 .
Te5 Ba2 Te4 68.091(12) . .
Te2 Ba2 Te4 125.582(13) 4_656 .
Te2 Ba2 Te4 125.582(13) 5_656 .
Te3 Ba2 Te4 63.521(9) 2 .
Te3 Ba2 Te4 63.521(9) 2_565 .
Te1 Ba2 Te4 141.578(12) 7_666 .
Te1 Ba2 Te4 141.578(12) 2 .
Te1 Te1 Te1 180.00(2) 8_565 8
Te1 Te1 U1 60.490(6) 8_565 .
Te1 Te1 U1 119.511(6) 8 .
Te1 Te1 Ba1 115.641(6) 8_565 2
Te1 Te1 Ba1 64.360(6) 8 2
U1 Te1 Ba1 91.456(11) . 2
Te1 Te1 Ba2 115.258(6) 8_565 2_554
Te1 Te1 Ba2 64.742(6) 8 2_554
U1 Te1 Ba2 99.276(11) . 2_554
Ba1 Te1 Ba2 126.394(10) 2 2_554
Te1 Te1 Ba1 65.161(6) 8_565 6_556
Te1 Te1 Ba1 114.837(6) 8 6_556
U1 Te1 Ba1 125.394(10) . 6_556
Ba1 Te1 Ba1 107.475(11) 2 6_556
Ba2 Te1 Ba1 107.987(12) 2_554 6_556
Te2 Te2 Te2 180.00(2) 8_565 8
Te2 Te2 U1 60.585(6) 8_565 .
Te2 Te2 U1 119.418(6) 8 .
Te2 Te2 Ba2 116.057(6) 8_565 2_554
Te2 Te2 Ba2 63.943(6) 8 2_554
U1 Te2 Ba2 101.309(12) . 2_554
Te2 Te2 Ba2 115.808(6) 8_565 5_656
Te2 Te2 Ba2 64.192(6) 8 5_656
U1 Te2 Ba2 93.477(11) . 5_656
Ba2 Te2 Ba2 126.706(9) 2_554 5_656
Te2 Te2 Ba1 64.713(6) 8_565 .
Te2 Te2 Ba1 115.285(6) 8 .
U1 Te2 Ba1 125.290(10) . .
Ba2 Te2 Ba1 101.231(12) 2_554 .
Ba2 Te2 Ba1 110.975(12) 5_656 .
Ti1 Te3 Ti1 66.297(10) . 4
Ti1 Te3 U1 79.802(12) . 6_556
Ti1 Te3 U1 79.802(12) 4 6_556
Ti1 Te3 Ba2 153.867(13) . 2_564
Ti1 Te3 Ba2 87.791(6) 4 2_564
U1 Te3 Ba2 92.819(11) 6_556 2_564
Ti1 Te3 Ba2 87.791(6) . 2_554
Ti1 Te3 Ba2 153.867(13) 4 2_554
U1 Te3 Ba2 92.819(11) 6_556 2_554
Ba2 Te3 Ba2 117.778(17) 2_564 2_554
Ti1 Te3 Ba1 84.368(12) . .
Ti1 Te3 Ba1 84.368(12) 4 .
U1 Te3 Ba1 161.061(17) 6_556 .
Ba2 Te3 Ba1 96.916(11) 2_564 .
Ba2 Te3 Ba1 96.916(11) 2_554 .
Ti1 Te4 Ti1 65.938(10) 3 2
Ti1 Te4 U1 79.858(12) 3 .
Ti1 Te4 U1 79.858(12) 2 .
Ti1 Te4 Ba1 152.928(13) 3 2
Ti1 Te4 Ba1 87.350(6) 2 2
U1 Te4 Ba1 91.634(11) . 2
Ti1 Te4 Ba1 87.350(6) 3 2_565
Ti1 Te4 Ba1 152.928(13) 2 2_565
U1 Te4 Ba1 91.634(11) . 2_565
Ba1 Te4 Ba1 118.770(18) 2 2_565
Ti1 Te4 Ba2 85.028(12) 3 .
Ti1 Te4 Ba2 85.028(12) 2 .
U1 Te4 Ba2 161.955(17) . .
Ba1 Te4 Ba2 97.493(11) 2 .
Ba1 Te4 Ba2 97.493(11) 2_565 .
Ti1 Te5 Ti1 66.419(10) 2 3
Ti1 Te5 U1 143.397(13) 2 5_666
Ti1 Te5 U1 76.981(5) 3 5_666
Ti1 Te5 U1 76.981(5) 2 5_656
Ti1 Te5 U1 143.397(13) 3 5_656
U1 Te5 U1 139.606(17) 5_666 5_656
Ti1 Te5 Ba1 89.005(12) 2 6_656
Ti1 Te5 Ba1 89.005(12) 3 6_656
U1 Te5 Ba1 89.880(10) 5_666 6_656
U1 Te5 Ba1 89.880(10) 5_656 6_656
Ti1 Te5 Ba2 88.907(12) 2 .
Ti1 Te5 Ba2 88.907(12) 3 .
U1 Te5 Ba2 90.982(10) 5_666 .
U1 Te5 Ba2 90.982(10) 5_656 .
Ba1 Te5 Ba2 177.505(17) 6_656 .
Te5 Ti1 Te5 180.000(15) 6_556 2_554
Te5 Ti1 Te3 87.280(11) 6_556 5
Te5 Ti1 Te3 92.720(11) 2_554 5
Te5 Ti1 Te3 92.720(11) 6_556 .
Te5 Ti1 Te3 87.280(11) 2_554 .
Te3 Ti1 Te3 180.0 5 .
Te5 Ti1 Te4 92.510(11) 6_556 6_556
Te5 Ti1 Te4 87.490(11) 2_554 6_556
Te3 Ti1 Te4 86.218(11) 5 6_556
Te3 Ti1 Te4 93.783(11) . 6_556
Te5 Ti1 Te4 87.490(11) 6_556 2_554
Te5 Ti1 Te4 92.510(11) 2_554 2_554
Te3 Ti1 Te4 93.782(11) 5 2_554
Te3 Ti1 Te4 86.217(11) . 2_554
Te4 Ti1 Te4 180.00(2) 6_556 2_554
Te5 Ti1 Ti1 56.790(5) 6_556 4
Te5 Ti1 Ti1 123.210(5) 2_554 4
Te3 Ti1 Ti1 123.149(5) 5 4
Te3 Ti1 Ti1 56.851(5) . 4
Te4 Ti1 Ti1 57.031(5) 6_556 4
Te4 Ti1 Ti1 122.969(5) 2_554 4
Te5 Ti1 Ti1 123.210(5) 6_556 4_545
Te5 Ti1 Ti1 56.790(5) 2_554 4_545
Te3 Ti1 Ti1 56.851(5) 5 4_545
Te3 Ti1 Ti1 123.149(5) . 4_545
Te4 Ti1 Ti1 122.969(5) 6_556 4_545
Te4 Ti1 Ti1 57.031(5) 2_554 4_545
Ti1 Ti1 Ti1 180.0 4 4_545
loop_
_geom_bond_atom_site_label_1
_geom_bond_atom_site_label_2
_geom_bond_distance
_geom_bond_site_symmetry_2
U1 Te4 3.0895(5) .
U1 Te1 3.1002(4) .
U1 Te1 3.1002(4) 8_565
U1 Te2 3.1009(4) .
U1 Te2 3.1010(4) 8_565
U1 Te3 3.1045(5) 6_656
U1 Te5 3.27272(19) 5_666
U1 Te5 3.27272(19) 5_656
Ba1 Te5 3.4998(6) 6_556
Ba1 Te2 3.5656(5) 8_565
Ba1 Te2 3.5657(5) .
Ba1 Te1 3.5690(5) 2_554
Ba1 Te1 3.5690(5) 7_665
Ba1 Te4 3.5690(3) 2_554
Ba1 Te4 3.5690(3) 2_564
Ba1 Te1 3.6354(5) 3
Ba1 Te1 3.6354(5) 6_656
Ba1 Te3 3.7337(6) .
Ba2 Te2 3.5250(5) 2
Ba2 Te2 3.5250(5) 7_666
Ba2 Te5 3.5350(6) .
Ba2 Te2 3.5568(5) 4_656
Ba2 Te2 3.5568(5) 5_656
Ba2 Te3 3.5875(3) 2
Ba2 Te3 3.5875(3) 2_565
Ba2 Te1 3.6195(5) 7_666
Ba2 Te1 3.6195(5) 2
Ba2 Te4 3.7197(6) .
Te1 Te1 3.0542(6) 8_565
Te1 Te1 3.0888(6) 8
Te1 Ba1 3.5690(5) 2
Te1 Ba2 3.6194(5) 2_554
Te1 Ba1 3.6355(5) 6_556
Te2 Te2 3.0460(6) 8_565
Te2 Te2 3.0969(6) 8
Te2 Ba2 3.5250(5) 2_554
Te2 Ba2 3.5567(5) 5_656
Te3 Ti1 2.8085(4) .
Te3 Ti1 2.8085(4) 4
Te3 U1 3.1045(5) 6_556
Te3 Ba2 3.5875(3) 2_564
Te3 Ba2 3.5875(3) 2_554
Te4 Ti1 2.8221(4) 3
Te4 Ti1 2.8221(4) 2
Te4 Ba1 3.5689(3) 2
Te4 Ba1 3.5689(3) 2_565
Te5 Ti1 2.8040(4) 2
Te5 Ti1 2.8040(4) 3
Te5 U1 3.27271(19) 5_666
Te5 U1 3.27271(19) 5_656
Te5 Ba1 3.4998(6) 6_656
Ti1 Te5 2.8040(4) 6_556
Ti1 Te5 2.8040(4) 2_554
Ti1 Te3 2.8085(4) 5
Ti1 Te4 2.8221(4) 6_556
Ti1 Te4 2.8221(4) 2_554
Ti1 Ti1 3.07147(5) 4
Ti1 Ti1 3.07147(5) 4_545
