#------------------------------------------------------------------------------
#$Date: 2015-06-04 12:53:36 +0300 (Thu, 04 Jun 2015) $
#$Revision: 137913 $
#$URL: svn://www.crystallography.net/cod/cif/4/34/31/4343121.cif $
#------------------------------------------------------------------------------
#
# This file is available in the Crystallography Open Database (COD),
# http://www.crystallography.net/
#
# All data on this site have been placed in the public domain by the
# contributors.
#
data_4343121
loop_
_publ_author_name
'Prakash, Jai'
'Mesbah, Adel'
'Beard, Jessica'
'Leb\`egue, S\'ebastien'
'Malliakas, Christos D.'
'Ibers, James A.'
_publ_section_title
;
 Three New Quaternary Actinide Chalcogenides Ba2TiUTe7, Ba2CrUTe7, and
 Ba2CrThTe7: Syntheses, Crystal Structures, Transport Properties, and
 Theoretical Studies.
;
_journal_issue                   7
_journal_name_full               'Inorganic chemistry'
_journal_page_first              3688
_journal_page_last               3694
_journal_paper_doi               10.1021/acs.inorgchem.5b00338
_journal_volume                  54
_journal_year                    2015
_chemical_formula_sum            'Ba2 Cr Te7 U'
_chemical_formula_weight         1457.91
_chemical_name_common            Ba2UCrTe7
_space_group_crystal_system      orthorhombic
_space_group_IT_number           62
_space_group_name_Hall           '-P 2ac 2n'
_space_group_name_H-M_alt        'P n m a'
_symmetry_space_group_name_Hall  '-P 2ac 2n'
_symmetry_space_group_name_H-M   'P n m a'
_atom_sites_solution_primary     direct
_atom_sites_solution_secondary   difmap
_audit_creation_method           SHELXL-2014/6
_cell_angle_alpha                90
_cell_angle_beta                 90
_cell_angle_gamma                90
_cell_formula_units_Z            4
_cell_length_a                   12.4711(3)
_cell_length_b                   6.16530(10)
_cell_length_c                   18.5645(4)
_cell_measurement_reflns_used    8239
_cell_measurement_temperature    100(2)
_cell_measurement_theta_max      30.05
_cell_measurement_theta_min      2.74
_cell_volume                     1427.39(5)
_computing_cell_refinement       'Bruker SAINT'
_computing_data_collection       'Bruker APEX2'
_computing_data_reduction        'Bruker SAINT'
_computing_molecular_graphics    'Bruker SHELXTL'
_computing_publication_material  'Bruker SHELXTL'
_computing_structure_refinement  'SHELXL-2014/6 (Sheldrick, 2014)'
_computing_structure_solution    'SHELXS-97 (Sheldrick 2008)'
_diffrn_ambient_temperature      100(2)
_diffrn_measured_fraction_theta_full 0.996
_diffrn_measured_fraction_theta_max 0.996
_diffrn_measurement_device_type  'Bruker APEX-II CCD'
_diffrn_measurement_method       '\f and \w scans'
_diffrn_radiation_type           MoK\a
_diffrn_radiation_wavelength     0.71073
_diffrn_reflns_av_R_equivalents  0.0306
_diffrn_reflns_av_unetI/netI     0.0181
_diffrn_reflns_laue_measured_fraction_full 0.996
_diffrn_reflns_laue_measured_fraction_max 0.996
_diffrn_reflns_limit_h_max       17
_diffrn_reflns_limit_h_min       -17
_diffrn_reflns_limit_k_max       8
_diffrn_reflns_limit_k_min       -5
_diffrn_reflns_limit_l_max       26
_diffrn_reflns_limit_l_min       -25
_diffrn_reflns_number            18311
_diffrn_reflns_point_group_measured_fraction_full 0.996
_diffrn_reflns_point_group_measured_fraction_max 0.996
_diffrn_reflns_theta_full        25.242
_diffrn_reflns_theta_max         30.078
_diffrn_reflns_theta_min         3.676
_diffrn_source                   'fine-focus sealed tube'
_exptl_absorpt_coefficient_mu    31.470
_exptl_absorpt_correction_T_max  0.67528
_exptl_absorpt_correction_T_min  0.17223
_exptl_absorpt_correction_type   numerical
_exptl_absorpt_process_details   'face indexed (SADABS; Sheldric, 2012/1'
_exptl_crystal_colour            Black
_exptl_crystal_density_diffrn    6.784
_exptl_crystal_density_meas      ?
_exptl_crystal_density_method    'not measured'
_exptl_crystal_description       needle
_exptl_crystal_F_000             2368
_exptl_crystal_size_max          0.184
_exptl_crystal_size_mid          0.025
_exptl_crystal_size_min          0.022
_refine_diff_density_max         1.998
_refine_diff_density_min         -2.013
_refine_diff_density_rms         0.271
_refine_ls_extinction_coef       0.000087(19)
_refine_ls_extinction_expression Fc^*^=kFc[1+0.001xFc^2^\l^3^/sin(2\q)]^-1/4^
_refine_ls_extinction_method     SHELXL
_refine_ls_goodness_of_fit_ref   1.069
_refine_ls_hydrogen_treatment    undef
_refine_ls_matrix_type           full
_refine_ls_number_parameters     62
_refine_ls_number_reflns         2270
_refine_ls_number_restraints     0
_refine_ls_restrained_S_all      1.069
_refine_ls_R_factor_all          0.0229
_refine_ls_R_factor_gt           0.0187
_refine_ls_shift/su_max          0.001
_refine_ls_shift/su_mean         0.000
_refine_ls_structure_factor_coef Fsqd
_refine_ls_weighting_details
'w=1/[\s^2^(Fo^2^)+(0.0250P)^2^] where P=(1.0000Fo^2^+0.0000Fc^2^)'
_refine_ls_weighting_scheme      calc
_refine_ls_wR_factor_gt          0.0416
_refine_ls_wR_factor_ref         0.0430
_reflns_Friedel_coverage         0.000
_reflns_number_gt                2045
_reflns_number_total             2270
_reflns_threshold_expression     'I > 2\s(I)'
_cod_data_source_file            ic5b00338_si_001.cif
_cod_data_source_block           Ba2CrUTe7
_cod_depositor_comments
;
The following automatic conversions were performed:

'_exptl_crystal_density_meas' value 'not measured' was changed to '?'
- the value is perceived as not measured.

Automatic conversion script
Id: cif_fix_values 3271 2015-04-21 07:52:19Z andrius 
;
_cod_database_code               4343121
_shelx_space_group_comment
;
The symmetry employed for this shelxl refinement is uniquely defined
by the following loop, which should always be used as a source of
symmetry information in preference to the above space-group names.
They are only intended as comments.
;
_shelxl_version_number           2014/6
_shelx_res_file
;
TITL Ba2UCrTe7 in Pnma after abs correction and tidy
CELL 0.71073 12.4711 6.1653 18.5645 90 90 90
ZERR 4 0.0003 0.0001 0.0004 0 0 0
LATT 1
SYMM 0.5-X,-Y,0.5+Z
SYMM 0.5+X,0.5-Y,0.5-Z
SYMM -X,0.5+Y,-Z

SFAC Cr Te Ba U
UNIT 4 28 8 4

L.S. 4
PLAN  20
TEMP -173.1
BOND
fmap 2
acta
OMIT 1 0 2
OMIT 2 0 0
OMIT 1 0 1
OMIT 0 0 2

WGHT    0.025000    0.000000    0.000000    0.000000    0.000000    1.000000
EXTI    0.000087
FVAR       0.07394
U1    4    0.293248    0.250000    0.376613    10.50000    0.00828    0.00924 =
         0.00679    0.00000   -0.00040    0.00000
BA1   3    0.323170    0.250000    0.058027    10.50000    0.00982    0.01006 =
         0.00702    0.00000   -0.00132    0.00000
BA2   3    0.445678    0.250000    0.723246    10.50000    0.00764    0.01057 =
         0.00750    0.00000    0.00042    0.00000
TE1   2    0.079064    0.001858    0.398215    11.00000    0.00683    0.01377 =
         0.00756   -0.00157   -0.00020    0.00087
TE2   2    0.307827    0.002544    0.231422    11.00000    0.00796    0.01304 =
         0.00557    0.00083   -0.00032   -0.00017
TE3   2    0.041098    0.250000    0.120459    10.50000    0.00743    0.00819 =
         0.00662    0.00000   -0.00011    0.00000
TE4   2    0.325752    0.250000    0.541175    10.50000    0.00804    0.00814 =
         0.00582    0.00000   -0.00009    0.00000
TE5   2    0.638008    0.250000    0.583581    10.50000    0.00656    0.00726 =
         0.00558    0.00000   -0.00052    0.00000
CR1   1    0.000000    0.000000    0.000000    10.50000    0.00826    0.01098 =
         0.00619   -0.00031    0.00019   -0.00073
HKLF 4

REM  Ba2UCrTe7 in Pnma after abs correction and tidy
REM R1 =  0.0187 for    2045 Fo > 4sig(Fo)  and  0.0229 for all    2270 data
REM     62 parameters refined using      0 restraints

END

WGHT      0.0251      2.3319

REM Highest difference peak  1.998,  deepest hole -2.013,  1-sigma level  0.271
Q1    1   0.2888  0.1274  0.3768  11.00000  0.05    2.00
Q2    1   0.4498  0.1211  0.7231  11.00000  0.05    1.55
Q3    1   0.6480  0.1260  0.5841  11.00000  0.05    1.52
Q4    1   0.0295  0.1264  0.1208  11.00000  0.05    1.49
Q5    1   0.0846 -0.1236  0.3997  11.00000  0.05    1.42
Q6    1   0.3326  0.1268  0.5421  11.00000  0.05    1.37
Q7    1   0.3362  0.1267  0.0598  11.00000  0.05    1.35
Q8    1   0.0804  0.1267  0.3990  11.00000  0.05    1.26
Q9    1   0.2987 -0.1215  0.2293  11.00000  0.05    1.24
Q10   1   0.3390  0.2500  0.4039  10.50000  0.05    1.11
Q11   1   0.3319  0.1160  0.2375  11.00000  0.05    1.10
Q12   1   0.4012  0.2500  0.7496  10.50000  0.05    0.94
Q13   1   0.5972  0.2500  0.6098  10.50000  0.05    0.89
Q14   1   0.0853  0.2500  0.4164  10.50000  0.05    0.89
Q15   1   0.2971 -0.0170  0.3851  11.00000  0.05    0.86
Q16   1   0.2785  0.2500  0.5645  10.50000  0.05    0.82
Q17   1   0.2182  0.2500  0.5203  10.50000  0.05    0.82
Q18   1   0.2409  0.0224  0.0421  11.00000  0.05    0.82
Q19   1   0.3926  0.2500  0.3981  10.50000  0.05    0.81
Q20   1   0.2650 -0.2500  0.2404  10.50000  0.05    0.79
;
_shelx_res_checksum              5101
_shelx_hkl_file
;
   1   0   0 0.06242 0.31660   3
  -1   0   0 -0.4330 0.36203   3
   2   0   0 -0.1193 0.83035   3
  -3   0   0 -0.6155 1.20386   5
  -3   0   0 -0.3600 1.38968   3
   3   0   0 -0.7830 1.31724   3
   4   0   0 2.14765 1.67150   1
  -4   0   0 4.16211 1.68746   1
  -4   0   0 5.62768 1.59497   2
  -4   0   0 4.11146 1.88817   3
  -4   0   0 5.56632 1.67094   5
   4   0   0 5.05881 1.89370   3
   4   0   0 3.65371 1.57094   2
   5   0   0 -0.1665 1.61141   1
  -5   0   0 0.71915 1.76730   3
   5   0   0 0.00193 1.41256   2
  -5   0   0 -2.3943 1.48106   1
  -5   0   0 0.05817 1.50106   2
   5   0   0 -0.6231 1.69655   3
  -5   0   0 0.23656 1.48234   5
   6   0   0 342.520 11.3874   3
   6   0   0 326.522 9.83579   1
  -6   0   0 312.129 11.3423   3
  -6   0   0 327.695 9.67812   2
  -6   0   0 313.894 9.83922   1
  -6   0   0 328.204 9.80658   5
   6   0   0 336.383 9.76852   2
  -7   0   0 -1.2325 1.56114   5
   7   0   0 -0.9397 1.75453   3
   7   0   0 -1.4621 1.68583   1
  -7   0   0 -2.2266 1.64084   1
   7   0   0 0.02131 1.56689   2
  -7   0   0 -2.6874 1.58043   2
  -7   0   0 -1.9299 1.81243   3
   8   0   0 3518.90 101.080   3
   8   0   0 3481.30 85.7463   2
  -8   0   0 3358.56 86.7918   5
   8   0   0 3379.30 86.9426   1
  -8   0   0 3335.86 85.5269   2
  -8   0   0 3407.77 86.9974   1
  -8   0   0 3364.53 101.097   3
   9   0   0 0.76008 2.03868   1
  -9   0   0 0.85925 2.09400   1
   9   0   0 -0.9565 2.22803   3
  -9   0   0 -2.7601 2.16965   3
  -9   0   0 -1.2478 1.85066   5
  -9   0   0 -0.2827 2.01060   2
 -10   0   0 164.418 8.34407   3
  10   0   0 182.957 7.42613   1
 -10   0   0 184.202 7.50076   1
 -10   0   0 172.537 7.19111   5
 -11   0   0 1.13611 2.34124   5
  11   0   0 -1.3068 2.45669   1
 -11   0   0 1.93766 2.58654   1
 -12   0   0 25.9638 3.53633   5
  12   0   0 18.2176 3.44046   1
 -12   0   0 26.5915 3.80214   1
  13   0   0 -3.3673 3.17704   1
 -13   0   0 3.53931 3.15200   1
 -13   0   0 -2.6670 2.78645   5
 -14   0   0 23.3917 3.89942   5
  14   0   0 17.6926 4.00993   1
 -14   0   0 19.4845 4.02964   1
  15   0   0 -1.7113 3.34441   1
 -15   0   0 -3.1165 3.21596   1
  16   0   0 167.863 9.22857   1
 -16   0   0 159.667 9.34543   1
 -17   0   0 -1.3222 3.79453   1
  17   0   0 -1.5146 3.75749   1
   0   1   0 -0.7048 0.79555   4
   0   1   0 -0.8875 0.80463   3
   0  -1   0 -0.5205 0.90596   3
   1   1   0 0.59601 0.47582   2
  -1   1   0 0.20528 0.91524   4
  -1  -1   0 -0.7229 1.09429   3
   1   1   0 -0.4926 0.96637   3
   1   1   0 0.25044 0.84463   4
   2   1   0 517.691 13.3773   2
   2   1   0 482.796 16.8591   4
   2   1   0 502.248 16.1586   3
  -2   1   0 514.491 13.2955   2
   2  -1   0 535.853 15.7219   3
  -2  -1   0 507.267 16.1688   3
  -2   1   0 540.605 15.7710   3
  -2   1   0 528.232 17.1430   4
  -2   1   0 537.707 13.7937   5
   2   1   0 519.376 13.3842   2
   2   1   0 553.304 13.4935   1
  -3   1   0 1.51121 1.33577   4
   3  -1   0 -0.0529 1.21994   3
  -3   1   0 -0.4372 1.12050   2
   3   1   0 -0.6326 0.87152   4
  -3   1   0 -0.0776 1.32365   3
  -3   1   0 1.03041 1.40662   5
  -3   1   0 -1.3109 1.14943   1
   3   1   0 -0.8975 1.18600   1
   3   1   0 -1.1042 1.55397   3
  -3  -1   0 -0.1267 1.57040   3
   3   1   0 -0.0885 1.10623   2
   4   1   0 1314.92 33.3240   1
  -4   1   0 1351.28 33.3526   1
   4  -1   0 1324.25 38.6167   3
  -4   1   0 1313.96 38.7428   3
  -4   1   0 1355.12 33.5905   5
   4   1   0 1218.33 32.8884   2
  -4   1   0 1317.59 41.5522   4
  -4   1   0 1254.75 32.8373   2
   4   1   0 1270.80 39.1754   3
  -4  -1   0 1259.91 39.1554   3
  -5   1   0 1.04024 1.59692   5
  -5  -1   0 1.29024 1.59589   1
  -5   1   0 0.63731 1.51297   1
  -5  -1   0 -1.9118 1.43479   5
   5   1   0 -0.1814 1.43506   2
   5  -1   0 2.17931 1.52038   3
  -5   1   0 0.79674 1.79244   3
  -5   1   0 -1.5356 1.32071   4
  -5   1   0 -0.1028 1.45309   2
   5   1   0 -0.9484 1.41757   1
   5   1   0 -1.3675 1.75300   3
  -5  -1   0 -2.3797 1.79123   3
  -6  -1   0 1159.51 36.1157   3
  -6  -1   0 1134.85 30.6091   5
  -6   1   0 1223.36 35.8182   3
  -6   1   0 1172.51 30.3525   2
  -6   1   0 1181.57 30.8147   1
  -6  -1   0 1161.78 30.9153   1
   6  -1   0 1169.92 30.8101   1
  -6   1   0 1166.75 37.7967   4
   6  -1   0 1200.80 35.5223   3
   6   1   0 1150.93 30.4183   2
   6   1   0 1185.44 30.7858   1
  -6   1   0 1163.09 30.9391   5
   6   1   0 1194.11 36.1827   3
  -7  -1   0 -0.4909 1.54432   5
  -7   1   0 0.07072 1.98188   3
   7   1   0 0.93011 1.59390   2
  -7   1   0 1.29201 1.40399   4
   7  -1   0 -0.4611 1.75820   1
  -7  -1   0 4.27279 1.91288   1
   7  -1   0 0.32060 1.68535   3
   7   1   0 0.26877 1.65482   1
   7   1   0 1.73027 1.97765   3
  -7  -1   0 -0.9725 1.91225   3
  -7   1   0 -1.8590 1.73665   5
  -7   1   0 1.86594 1.78258   1
  -7   1   0 -0.4381 1.65821   2
  -8   1   0 137.132 6.00693   5
  -8   1   0 140.832 5.79066   4
  -8  -1   0 139.694 5.72584   5
  -8  -1   0 136.149 6.09311   1
  -8   1   0 142.146 5.85492   2
  -8   1   0 149.640 6.93170   3
   8   1   0 147.140 5.89557   2
   8  -1   0 150.499 6.50955   3
   8   1   0 135.033 5.86763   1
  -8  -1   0 136.140 7.01134   3
   8  -1   0 138.601 5.97077   1
   8   1   0 147.344 7.19632   3
  -8   1   0 143.246 6.04305   1
  -9   1   0 4.92184 2.48419   3
  -9   1   0 -2.1226 1.97839   1
  -9  -1   0 3.24933 1.88584   5
  -9  -1   0 2.50418 2.13757   1
  -9  -1   0 0.60653 2.23534   3
  -9   1   0 2.06361 2.01930   2
   9   1   0 -1.4805 2.03133   1
   9   1   0 -0.2120 1.86157   2
  -9   1   0 -0.0827 2.15544   5
   9  -1   0 -2.7789 1.98083   3
   9  -1   0 2.36634 2.22163   1
 -10   1   0 550.431 16.4399   5
 -10   1   0 530.448 18.8023   3
  10  -1   0 548.209 16.4216   1
 -10   1   0 550.483 16.3676   1
  10   1   0 536.190 16.2950   1
  10   1   0 542.209 16.2398   2
 -10  -1   0 551.833 16.4529   1
 -10  -1   0 552.831 16.0209   5
 -10   1   0 525.557 15.9456   2
 -11  -1   0 1.71444 2.79524   1
 -11  -1   0 -4.6474 2.13350   5
  11  -1   0 1.36708 2.57429   1
  11   1   0 -1.5914 2.55653   1
 -11   1   0 0.52882 2.57750   1
 -11   1   0 2.47189 2.54645   5
 -12   1   0 98.5495 6.45726   5
 -12  -1   0 90.8003 6.58997   1
  12   1   0 97.6185 6.30812   1
 -12  -1   0 94.2331 5.98478   5
 -12   1   0 91.2910 6.43546   1
 -13   1   0 0.70660 2.99885   1
  13   1   0 1.00085 2.77433   1
 -13   1   0 0.65280 2.91924   5
 -13  -1   0 5.77812 3.34851   1
 -14   1   0 26.5666 4.24602   1
  14   1   0 14.2513 3.69627   1
 -14   1   0 17.9932 3.94712   5
 -15   1   0 2.31537 3.52745   1
 -15   1   0 -0.6697 3.35628   5
  15   1   0 -1.7911 3.37852   1
  16   1   0 38.1793 5.13987   1
 -16   1   0 35.6909 5.00726   1
 -16   1   0 46.3220 5.32629   5
  17   1   0 -3.5148 3.78025   1
 -17   1   0 1.38561 3.82842   1
   0   2   0 834.512 25.8790   3
   0  -2   0 840.445 25.9165   3
   0   2   0 831.416 28.0477   4
   0   2   0 851.191 22.0420   5
   1   2   0 -0.9776 1.36870   4
   1  -2   0 -0.8350 1.28149   3
  -1   2   0 1.80230 1.54059   4
   1   2   0 0.10938 0.99210   5
   1   2   0 -0.0569 1.48926   3
  -1   2   0 -0.7613 1.18576   5
  -1  -2   0 0.83117 1.52675   3
  -2   2   0 185.979 5.87930   5
  -2   2   0 178.963 7.30735   4
  -2   2   0 173.110 4.95442   2
   2   2   0 194.128 5.02624   2
  -2   2   0 188.307 4.94153   2
   2   2   0 176.023 7.06642   4
   2   2   0 181.350 5.05684   2
  -2  -2   0 185.587 7.07386   3
   2   2   0 169.850 6.98943   3
   3   2   0 -0.6820 1.23645   4
  -3   2   0 1.09655 1.03085   2
   3   2   0 0.02867 1.07414   2
  -3   2   0 1.02671 1.66685   4
   3   2   0 0.62118 1.66526   3
  -3   2   0 1.39432 1.43340   5
   3  -2   0 -0.6105 1.18202   3
   3   2   0 0.15250 0.94340   1
  -3  -2   0 0.25825 1.69210   3
  -4  -2   0 -0.5186 1.85579   3
  -4   2   0 -0.4532 1.10605   1
   4  -2   0 0.78346 1.33045   3
  -4   2   0 1.30262 1.85268   4
   4   2   0 -2.3450 1.84184   3
  -4   2   0 -2.2545 1.22103   2
   4   2   0 1.23635 1.23920   1
   4   2   0 0.42008 1.29840   2
  -4   2   0 -2.9477 1.47195   5
   4   2   0 -1.3320 1.26384   4
  -5   2   0 0.25514 1.60980   5
  -5   2   0 1.11076 1.74982   4
   5   2   0 0.52970 1.14419   4
  -5   2   0 0.09748 1.17820   1
   5   2   0 -0.4282 1.33911   2
  -5   2   0 0.90731 1.39582   3
  -5   2   0 -0.2655 1.29400   2
   5  -2   0 -0.1855 1.29586   3
  -5  -2   0 -0.4644 1.74743   3
   5   2   0 0.60104 1.25678   1
   5   2   0 3.37156 1.93744   3
  -6   2   0 578.172 18.6899   3
  -6  -2   0 576.101 19.6516   3
  -6   2   0 600.607 20.2924   4
   6   2   0 600.014 19.7445   3
  -6   2   0 593.677 16.7711   5
   6   2   0 573.197 19.4131   4
   6  -2   0 619.880 18.5801   3
  -6   2   0 588.802 16.0973   2
  -6   2   0 583.868 16.1072   1
   6   2   0 602.540 16.1780   1
   6   2   0 601.417 16.2618   2
  -7   2   0 -1.7620 1.83249   5
  -7   2   0 0.12643 1.50923   1
  -7  -2   0 -0.9263 1.95316   3
  -7   2   0 0.26210 1.91684   3
   7  -2   0 2.28211 1.53770   3
  -7   2   0 -0.6545 1.75546   4
  -7   2   0 0.88451 1.78699   2
   7   2   0 -0.3117 1.59730   2
   7   2   0 -1.5743 1.60787   1
   8   2   0 16.8479 2.38483   1
  -8   2   0 15.3532 2.80440   5
  -8   2   0 19.7486 2.89144   3
  -8   2   0 17.2351 2.59297   4
  -8   2   0 13.6637 2.27096   1
  -8  -2   0 17.2012 2.27601   5
  -8   2   0 17.2482 2.45440   2
   8  -2   0 18.3951 2.35937   3
   8   2   0 16.6798 2.48913   2
   9   2   0 0.12065 1.95205   2
   9   2   0 -0.3920 1.96812   1
  -9   2   0 -2.1798 2.25383   5
  -9   2   0 -0.1634 2.07444   2
  -9   2   0 0.79499 2.02485   1
  -9  -2   0 -0.7890 1.87021   5
 -10   2   0 802.015 23.3296   5
 -10   2   0 814.210 22.7013   2
 -10   2   0 805.014 22.7943   1
  10   2   0 842.707 23.0157   2
  10   2   0 810.690 22.8733   1
 -11   2   0 -2.9733 2.64518   5
  11   2   0 0.60852 2.46009   1
 -11   2   0 0.38621 2.36666   1
  11   2   0 0.09255 2.54262   2
 -11   2   0 3.90641 2.60448   2
 -12   2   0 679.113 19.8330   2
  12   2   0 676.544 19.8549   1
 -12   2   0 668.534 19.7558   1
 -12   2   0 643.655 20.2559   5
  13   2   0 -3.3505 2.75097   1
 -13   2   0 1.77006 2.85394   1
 -13   2   0 -2.0589 3.12411   5
 -14   2   0 93.6287 6.87416   1
  14   2   0 95.3643 6.80631   1
 -14   2   0 93.1688 6.86985   5
 -15   2   0 -1.3215 3.38297   1
 -15   2   0 -4.7268 3.32389   5
  15   2   0 -5.4980 3.35366   1
  16   2   0 42.7339 5.24964   1
 -16   2   0 43.1413 5.65193   5
 -16   2   0 48.9298 5.32487   1
  17   2   0 -5.8561 3.77101   1
 -17   2   0 4.22564 3.86698   1
 -17   2   0 3.31126 4.14409   5
   0  -3   0 -0.4805 1.45957   3
   0   3   0 -1.4406 1.55222   3
   0   3   0 -1.2813 1.09473   5
   0   3   0 0.84906 1.65276   4
   1  -3   0 0.93269 1.43466   3
   1   3   0 -0.9386 1.52317   3
   1   3   0 -0.2409 0.95817   5
  -1  -3   0 1.49815 1.53368   3
  -1   3   0 0.04900 1.65008   4
  -1   3   0 -2.2044 1.07716   5
   1   3   0 -0.0877 1.61563   4
  -2   3   0 319.249 9.47580   5
   2  -3   0 316.164 10.7537   3
   2   3   0 316.240 11.9377   4
  -2  -3   0 313.137 11.3943   3
   2   3   0 335.135 11.4292   3
  -2   3   0 332.267 12.2562   4
  -3  -3   0 1.43127 1.83357   3
   3   3   0 -1.2298 0.83422   2
  -3   3   0 0.11849 0.94374   2
   3  -3   0 -1.3717 1.28719   3
   3   3   0 -1.3558 0.99197   2
  -3   3   0 0.03897 1.75086   4
  -3   3   0 0.50145 1.38547   5
   3   3   0 0.98401 1.79175   3
  -3   3   0 0.42425 0.79430   2
   3   3   0 0.32760 1.55173   4
  -4   3   0 751.913 19.6646   2
   4   3   0 766.818 19.7441   2
   4  -3   0 773.667 23.4194   3
  -4   3   0 760.064 19.6429   2
   4   3   0 774.234 19.8762   2
  -4  -3   0 759.591 24.5637   3
   4   3   0 779.100 19.8605   2
   4   3   0 750.949 25.5848   4
  -4   3   0 757.182 20.8022   5
   4   3   0 741.378 24.4501   3
  -4   3   0 768.371 26.1269   4
   5  -3   0 -1.0184 1.29247   3
   5   3   0 1.90935 1.35096   2
  -5  -3   0 -1.5603 1.87825   3
  -5   3   0 -2.6369 1.19298   2
  -5   3   0 -0.3940 1.97723   4
   5   3   0 -1.8288 1.35123   4
  -5   3   0 0.97097 1.83678   5
  -6   3   0 809.589 20.6309   1
   6  -3   0 784.607 24.2853   3
  -6   3   0 794.790 27.0870   4
   6   3   0 788.008 21.1378   2
  -6   3   0 815.812 22.0523   5
  -6  -3   0 755.967 25.9676   3
  -6   3   0 812.775 20.9706   2
   6   3   0 769.408 20.6805   1
   6   3   0 763.048 26.2409   4
   7   3   0 1.47471 1.50029   1
  -7   3   0 -1.4098 2.08777   5
  -7   3   0 1.01065 1.39141   1
   7   3   0 3.10956 1.71719   2
  -7   3   0 -2.0586 2.05459   4
  -7   3   0 2.66919 1.80172   2
  -8   3   0 119.652 6.75965   4
  -8   3   0 125.652 6.43658   5
   8   3   0 119.916 5.73533   2
   8   3   0 119.773 5.11920   1
  -8   3   0 114.231 5.48306   2
  -8   3   0 129.317 5.12284   1
  -9   3   0 -0.5797 2.40826   4
  -9   3   0 1.79361 1.82751   1
   9   3   0 6.01920 2.10421   1
  -9   3   0 2.09409 2.25344   2
   9   3   0 0.17590 2.09518   2
  -9   3   0 -1.7067 2.49782   5
 -10   3   0 432.753 13.4308   1
 -10   3   0 449.389 14.7742   5
  10   3   0 449.085 13.5589   1
  10   3   0 446.548 14.0455   2
 -10   3   0 447.867 13.8081   2
  11   3   0 -3.2967 2.36694   1
  11   3   0 -0.4781 2.56265   2
 -11   3   0 5.05936 2.72472   2
 -11   3   0 6.39904 3.24179   5
 -11   3   0 -0.8659 2.36429   1
 -12   3   0 73.9895 5.54705   1
 -12   3   0 72.6968 5.91520   5
  12   3   0 66.8176 4.93609   1
 -12   3   0 67.9486 5.33224   2
  12   3   0 66.9510 5.48351   2
 -13   3   0 1.53980 2.87325   1
 -13   3   0 -1.7568 3.32874   5
  13   3   0 1.28308 2.97485   1
 -13   3   0 -2.3008 3.04364   2
  13   3   0 0.76013 3.10358   2
  14   3   0 11.0747 3.53501   1
 -14   3   0 16.9486 4.45799   5
 -14   3   0 8.22328 3.28349   1
 -15   3   0 -3.2397 3.82891   5
  15   3   0 5.04202 3.56240   1
 -15   3   0 -3.9033 2.95623   1
  16   3   0 39.8112 4.85460   1
 -16   3   0 33.1103 4.76611   1
 -16   3   0 39.8024 5.68512   5
   0  -4   0 9999.99 285.675   3
   0   4   0 9435.60 308.407   4
   0   4   0 9848.25 244.752   5
   1   4   0 0.66641 1.86222   4
   1  -4   0 1.46446 1.57303   3
  -1   4   0 2.68753 2.12203   4
   1   4   0 0.57638 1.72882   3
  -1   4   0 0.41791 1.17956   5
  -1  -4   0 -0.8855 1.54157   3
   1   4   0 -0.7474 1.09566   5
  -2  -4   0 107.296 5.75489   3
  -2   4   0 102.485 6.07823   4
  -2   4   0 110.150 4.61979   5
   2  -4   0 112.714 5.23174   3
   2   4   0 97.3395 5.81298   4
   2   4   0 107.618 5.73793   3
  -3   4   0 0.62201 0.89940   2
   3   4   0 -0.3621 0.84331   2
  -3   4   0 2.21403 2.15675   4
   3   4   0 -0.0125 1.78604   4
  -3  -4   0 -1.5596 1.83704   3
   3  -4   0 -1.7031 1.41790   3
  -3   4   0 -1.2340 1.36722   5
   3   4   0 -0.1753 0.96610   2
  -4   4   0 15.5051 2.89381   4
   4  -4   0 9.40366 1.98371   3
  -4   4   0 12.6209 2.23413   5
   5   4   0 2.49855 1.79958   4
  -5   4   0 1.62167 1.43455   2
   5   4   0 2.18456 1.35034   2
  -5   4   0 1.30436 2.36399   4
  -5   4   0 -1.2544 1.94252   5
   6   4   0 169.299 6.19531   2
   6   4   0 174.097 7.87492   4
  -6   4   0 172.044 6.03104   2
  -6   4   0 177.647 8.77159   4
  -6   4   0 173.728 7.26448   5
   7   4   0 2.25025 1.70444   2
  -7   4   0 0.63717 1.78871   2
  -7   4   0 -0.3582 2.36356   5
  -7   4   0 1.58818 2.65366   4
  -8   4   0 2039.44 65.8105   4
  -8   4   0 2017.47 52.8966   5
   8   4   0 1983.09 51.3243   2
  -8   4   0 1938.04 51.0757   2
   9   4   0 3.29825 2.23619   2
   9   4   0 -0.9608 1.70258   1
  -9   4   0 -3.5462 2.62888   5
  -9   4   0 -0.2441 2.83404   4
  -9   4   0 -4.3770 2.00290   2
  10   4   0 100.990 6.07266   2
 -10   4   0 103.431 7.19382   5
 -10   4   0 108.809 5.99507   2
  10   4   0 99.3298 4.99247   1
 -10   4   0 112.744 4.93763   1
 -11   4   0 3.19989 2.62819   2
  11   4   0 3.60806 2.30776   1
 -11   4   0 2.69931 2.22174   1
  11   4   0 -3.6057 2.38315   2
 -11   4   0 0.98989 3.48201   5
  12   4   0 23.9340 3.90912   2
  12   4   0 23.6109 3.27296   1
 -12   4   0 21.2408 3.17837   1
 -12   4   0 19.6171 4.36625   5
 -12   4   0 26.9174 3.87062   2
 -13   4   0 2.91569 3.12683   2
  13   4   0 1.95552 2.90250   1
  13   4   0 1.69519 3.02970   2
 -13   4   0 -0.4010 3.70973   5
 -13   4   0 -4.2237 2.59961   1
 -14   4   0 22.4426 4.23244   2
  14   4   0 14.0280 4.02506   2
 -14   4   0 17.5253 3.50137   1
  14   4   0 14.1106 3.32388   1
 -14   4   0 13.9732 4.77396   5
 -15   4   0 -7.0308 3.95037   5
 -15   4   0 -0.9898 2.99829   1
  15   4   0 7.00655 3.46597   1
   0   5   0 0.00025 1.37599   5
   0   5   0 1.40561 2.24349   4
   0  -5   0 3.61638 2.01548   3
  -1   5   0 3.73235 2.55622   4
   1   5   0 -0.2319 1.30365   5
   1   5   0 -0.8120 2.12868   4
  -1   5   0 0.48757 1.50931   5
   1  -5   0 -0.8221 1.76227   3
   2   5   0 180.123 9.01948   4
  -2   5   0 187.549 9.30447   4
  -2   5   0 186.703 6.88867   5
  -3   5   0 -0.2565 2.40124   4
   3   5   0 2.24462 2.26597   4
  -3   5   0 -0.3780 1.81111   5
  -4   5   0 603.370 15.9227   2
  -4   5   0 598.254 22.5322   4
   4   5   0 610.874 16.1119   2
   4   5   0 608.112 16.1296   2
  -4   5   0 595.414 17.6399   5
   4   5   0 599.600 22.0229   4
   5   5   0 -0.4257 1.37061   2
  -5   5   0 2.01292 1.49182   2
  -5   5   0 -0.9605 2.00386   5
   5   5   0 1.97558 2.11504   4
  -5   5   0 1.41704 2.77665   4
  -6   5   0 575.954 17.6794   5
  -6   5   0 577.038 16.0230   2
   6   5   0 579.618 16.2289   2
  -6   5   0 603.726 22.2523   4
  -7   5   0 -0.0799 1.89038   2
   7   5   0 -1.1574 1.71745   2
  -7   5   0 1.94148 2.76916   5
  -7   5   0 -0.1171 3.01574   4
  -8   5   0 71.1982 4.60701   2
   8   5   0 67.6111 4.66294   2
  -8   5   0 65.6298 6.50423   4
  -8   5   0 69.8082 5.42704   5
  -9   5   0 -3.7652 3.02028   5
  -9   5   0 0.16360 2.31907   2
   9   5   0 -0.3921 2.21362   2
  -9   5   0 -0.9957 3.19897   4
 -10   5   0 258.800 11.5787   5
 -10   5   0 284.011 10.0407   2
  10   5   0 282.881 10.2194   2
  11   5   0 -1.3159 2.55874   2
 -11   5   0 2.50748 2.84506   2
 -11   5   0 -1.0689 3.54791   5
  12   5   0 61.4516 5.27821   2
 -12   5   0 74.0756 6.61438   5
 -12   5   0 64.9638 5.32825   2
  13   5   0 1.10361 2.89205   2
 -13   5   0 0.55661 4.02279   5
 -13   5   0 3.46275 3.39120   2
 -14   5   0 21.0375 4.94990   5
  14   5   0 19.5268 4.12367   2
 -14   5   0 22.4914 4.23293   2
   0   6   0 373.543 15.8493   4
  -1   6   0 -0.7937 1.79351   5
  -1   6   0 2.97827 2.86325   4
   1   6   0 -3.7306 2.29979   4
  -2   6   0 58.8245 4.50001   5
  -2   6   0 57.4408 5.88788   4
   2   6   0 65.3442 5.91650   4
   3   6   0 -1.0935 2.45298   4
  -3   6   0 1.36660 2.90810   4
  -3   6   0 0.53573 2.11018   5
   4   6   0 3.01069 1.38732   2
  -4   6   0 4.97663 3.25248   4
  -4   6   0 -0.2510 1.39636   2
  -4   6   0 4.96395 2.43253   5
   4   6   0 0.68529 2.56075   4
   5   6   0 0.62171 1.51663   2
  -5   6   0 0.76248 2.44236   5
   5   6   0 -1.0742 2.56404   4
  -5   6   0 -7.5531 2.67075   4
  -5   6   0 1.22428 1.56995   2
   6   6   0 218.596 7.67791   2
  -6   6   0 226.653 9.46110   5
  -6   6   0 222.953 11.9343   4
  -6   6   0 238.052 7.63503   2
   7   6   0 1.68093 1.91565   2
  -7   6   0 -2.3603 2.77303   5
  -7   6   0 0.13693 1.99665   2
  -7   6   0 4.37527 3.66932   4
   8   6   0 16.6766 2.72066   2
  -8   6   0 16.1507 3.83184   5
  -8   6   0 16.8758 4.51623   4
  -8   6   0 18.8047 2.74158   2
  -9   6   0 3.71428 3.83193   4
   9   6   0 2.57566 2.22644   2
  -9   6   0 3.27835 3.45458   5
  -9   6   0 1.50942 2.30035   2
 -10   6   0 325.493 13.4008   5
 -10   6   0 357.846 16.6896   4
 -10   6   0 352.532 11.6842   2
  10   6   0 323.260 11.6300   2
 -11   6   0 1.60873 3.80689   5
  11   6   0 1.71706 2.69854   2
 -11   6   0 4.77747 3.04505   2
 -12   6   0 354.684 14.2790   5
 -12   6   0 334.077 12.2440   2
  12   6   0 335.177 12.5504   2
   0   7   0 -1.5972 3.07059   4
   1   7   0 -0.4408 2.89995   4
  -1   7   0 1.08443 3.17560   4
  -2   7   0 101.134 8.26229   4
   2   7   0 103.767 7.92006   4
   3   7   0 1.98492 3.23474   4
  -3   7   0 -6.5163 2.83556   4
  -4   7   0 245.884 9.86320   5
   4   7   0 231.379 11.9676   4
   4   7   0 227.875 7.34272   2
  -4   7   0 234.907 12.6870   4
  -5   7   0 1.81998 2.89361   5
   5   7   0 0.40619 1.61029   2
  -5   7   0 -2.5330 1.52742   2
  -5   7   0 -1.8427 3.56063   4
  -6   7   0 288.472 11.4353   5
  -6   7   0 282.420 9.00889   2
   6   7   0 284.728 9.18047   2
  -6   7   0 274.747 14.3168   4
  -7   7   0 -2.2858 3.09222   5
   7   7   0 -1.0188 1.89287   2
  -7   7   0 1.50997 3.88096   4
  -7   7   0 0.93242 1.97697   2
  -8   7   0 51.5483 3.97686   2
   8   7   0 56.7946 4.15392   2
  -8   7   0 63.0630 7.25155   4
  -8   7   0 53.1509 5.60289   5
  -9   7   0 2.43568 4.17424   4
   9   7   0 -0.0606 2.26712   2
  -9   7   0 -3.2176 3.59370   5
  -9   7   0 -0.5478 2.30186   2
  10   7   0 192.684 8.35964   2
 -10   7   0 188.327 12.3275   4
 -10   7   0 196.605 8.30329   2
 -10   7   0 195.838 10.5774   5
   0   8   0 2946.97 98.3412   4
  -1   8   0 0.15737 3.44400   4
   1   8   0 0.24301 3.46318   4
  -2   8   0 37.9857 6.10829   4
   2   8   0 37.9344 5.70027   4
  -3   8   0 -1.0402 3.67517   4
   3   8   0 0.47319 3.24261   4
  -4   8   0 -0.3341 3.68313   4
   4   8   0 -1.3034 3.17464   4
   5   8   0 -0.8877 1.72601   2
  -6   8   0 68.2066 4.12207   2
   6   8   0 70.3622 4.46935   2
   1   0  -1 -0.5076 0.34986   3
  -1   0   1 -0.2541 0.39149   3
  -1   0  -1 -0.0990 0.50985   3
   1   0   1 0.31985 0.44169   3
  -3   0  -1 29.6290 2.20501   5
  -3   0   1 31.8189 2.60876   5
  -3   0  -1 33.9687 3.06401   3
   3   0   1 32.7215 2.78081   3
  -3   0   1 34.6945 2.68188   3
   3   0  -1 35.5929 2.54850   3
   4   0  -1 5333.17 133.618   2
  -4   0   1 5429.37 157.819   3
  -4   0  -1 5281.86 135.650   1
  -4   0  -1 5413.27 135.437   5
   4   0   1 5473.51 158.023   3
  -4   0  -1 5468.36 133.554   2
  -4   0   1 5246.52 135.653   1
   4   0   1 5446.27 135.631   1
   4   0   1 5424.64 133.633   2
  -4   0  -1 5219.16 157.984   3
  -4   0   1 5255.55 135.595   5
  -4   0   1 5507.04 133.572   2
   4   0  -1 5555.27 135.649   1
   4   0  -1 5557.57 157.816   3
   5   0   1 770.024 20.7422   2
   5   0  -1 786.777 20.7440   2
   5   0   1 810.318 21.0494   1
  -5   0   1 776.489 21.0802   1
  -5   0  -1 791.529 20.6787   2
  -5   0   1 789.701 21.1299   5
  -5   0  -1 758.597 20.8593   5
  -5   0  -1 764.699 21.0415   1
  -5   0   1 806.231 20.7226   2
  -5   0   1 790.701 24.3523   3
   5   0  -1 854.677 24.3883   3
   5   0  -1 798.208 21.0526   1
   5   0   1 807.679 24.5705   3
  -5   0  -1 770.462 24.5535   3
  -6   0   1 46.5609 3.34205   2
   6   0   1 41.0300 3.77538   3
  -6   0  -1 40.9430 3.32153   1
   6   0  -1 46.4764 3.44994   1
  -6   0   1 37.5633 2.89575   1
  -6   0  -1 44.7732 3.18124   2
  -6   0  -1 38.6888 3.06759   5
   6   0  -1 45.3167 3.19148   2
  -6   0   1 42.1639 3.71897   3
   6   0  -1 49.9659 3.72920   3
   6   0   1 43.0850 3.19427   2
  -6   0  -1 47.7237 4.04884   3
  -6   0   1 41.2498 2.95439   5
   6   0   1 40.7971 3.29955   1
  -7   0   1 253.150 8.60698   1
   7   0  -1 265.436 8.59598   1
   7   0   1 271.982 8.50194   2
   7   0   1 270.147 10.0044   3
   7   0  -1 276.425 9.76032   3
  -7   0   1 265.698 9.80893   3
  -7   0   1 259.924 8.60613   5
  -7   0  -1 266.763 10.0984   3
  -7   0  -1 263.887 8.37838   5
  -7   0   1 261.618 8.41331   2
   7   0  -1 264.596 8.46800   2
  -7   0  -1 260.296 8.59402   1
   7   0   1 269.814 8.60232   1
  -7   0  -1 267.026 8.39145   2
  -8   0  -1 125.347 5.47253   5
   8   0   1 136.283 6.64162   3
  -8   0   1 127.893 5.74396   5
   8   0  -1 137.247 5.68556   2
  -8   0  -1 131.514 5.56315   2
  -8   0   1 131.361 6.39582   3
  -8   0  -1 131.975 6.71900   3
  -8   0  -1 130.670 5.74371   1
   8   0  -1 144.710 6.46078   3
  -8   0   1 137.844 5.90492   1
   8   0   1 135.902 5.71903   1
   8   0   1 135.626 5.63662   2
   8   0  -1 128.876 5.76097   1
  -8   0   1 133.201 5.64697   2
  -9   0  -1 61.4409 4.57167   1
  -9   0   1 70.3898 5.02405   3
   9   0   1 65.8773 4.56246   1
  -9   0  -1 70.9991 5.43104   3
  -9   0   1 71.2264 4.67347   5
   9   0  -1 56.1878 4.50053   1
  -9   0   1 63.5789 4.55253   1
  -9   0  -1 56.3891 4.22797   2
  -9   0   1 69.0893 4.52116   2
  -9   0  -1 67.4377 4.28026   5
   9   0  -1 72.9667 5.09402   3
   9   0   1 77.4174 5.12984   3
 -10   0   1 53.6670 4.22142   1
 -10   0   1 47.8196 4.36740   3
 -10   0  -1 55.9499 4.34067   1
  10   0  -1 47.3656 4.04011   1
 -10   0  -1 44.0217 3.74856   5
 -10   0  -1 57.6161 5.36262   3
  10   0   1 54.7651 4.16708   1
 -10   0   1 43.1610 3.86125   5
  11   0  -1 502.166 15.2976   1
 -11   0  -1 478.785 15.3471   1
 -11   0   1 472.423 15.2732   1
  11   0   1 490.355 15.3683   1
 -11   0   1 489.445 15.1820   5
 -11   0  -1 498.495 15.0841   5
 -12   0  -1 424.645 13.6316   5
 -12   0   1 427.218 14.0961   1
  12   0   1 429.579 14.0813   1
 -12   0   1 404.424 13.8167   5
  12   0  -1 416.334 13.9735   1
 -12   0  -1 449.299 14.3299   1
 -13   0   1 150.187 7.87172   1
 -13   0  -1 131.388 7.81965   1
 -13   0  -1 136.334 7.32456   5
  13   0   1 136.684 7.59087   1
  13   0  -1 138.129 7.68074   1
 -13   0   1 132.842 7.38490   5
  14   0  -1 177.275 8.98062   1
 -14   0  -1 162.724 8.92339   1
 -14   0   1 161.390 8.56036   5
 -14   0   1 192.487 9.29278   1
 -14   0  -1 170.324 8.37507   5
  14   0   1 173.909 8.59106   1
 -15   0   1 7.99072 3.82492   5
 -15   0   1 11.7925 4.17954   1
  15   0   1 17.9588 4.27870   1
  15   0  -1 17.0078 4.31272   1
 -15   0  -1 18.9224 4.15614   1
  16   0  -1 186.785 9.68252   1
 -16   0   1 185.241 9.85020   1
 -16   0  -1 174.752 9.89843   1
  16   0   1 175.395 9.45835   1
 -17   0   1 3.08666 4.01232   1
  17   0  -1 5.05459 4.07880   1
 -17   0  -1 11.8966 4.39450   1
  17   0   1 4.50338 4.04683   1
   1   1  -1 12.5900 1.68389   4
  -1   1   1 16.8914 0.97738   2
   1   1  -1 17.7909 1.12571   2
  -1  -1  -1 13.9097 1.56929   3
  -1  -1   1 15.1853 1.68148   3
  -1   1  -1 15.8819 1.34158   5
   1  -1  -1 14.1347 1.36166   3
   1   1   1 14.8623 1.53237   4
   1   1   1 14.9341 1.07441   2
  -1   1  -1 16.3072 1.13934   2
   2   1  -1 283.281 7.31684   1
   2   1  -1 250.945 7.21825   2
  -2   1   1 282.994 7.65000   5
   2   1  -1 273.304 9.02827   4
  -2   1   1 261.501 7.14832   2
  -2   1   1 269.685 9.27739   4
  -2  -1  -1 254.947 8.95726   3
  -2   1   1 281.990 7.20569   1
   2  -1   1 275.167 8.65818   3
  -2  -1   1 255.345 8.94830   3
  -2   1  -1 274.091 8.76139   3
   2   1   1 256.061 8.92732   3
  -2   1  -1 258.838 9.27732   4
  -2   1  -1 262.592 7.22894   1
  -2   1  -1 277.194 7.17732   2
   2   1   1 247.513 9.03547   4
   2   1   1 275.531 7.23150   1
  -2   1  -1 278.877 7.58232   5
   2   1   1 262.881 7.18464   2
  -3  -1  -1 362.309 12.5220   3
   3   1  -1 383.074 10.3984   2
  -3   1   1 383.559 11.7763   3
   3   1  -1 367.498 12.4536   3
   3   1  -1 410.209 10.4774   1
  -3   1   1 402.548 10.7891   5
  -3   1   1 369.500 10.2272   2
  -3   1   1 417.890 10.4416   1
  -3   1   1 390.736 12.9737   4
   3  -1   1 389.056 12.2225   3
   3   1  -1 372.301 10.3735   2
   3   1  -1 380.184 12.5839   4
   3   1   1 344.321 12.5635   4
  -3   1  -1 371.859 12.9656   4
   3   1   1 389.743 10.3651   1
  -3   1  -1 389.978 10.2781   2
   3   1   1 377.118 10.3362   2
   3  -1  -1 407.725 11.7352   3
  -3   1  -1 392.470 10.6624   5
   3   1   1 364.379 12.5518   3
  -3   1  -1 374.319 10.3752   1
  -3   1  -1 377.732 12.2245   3
  -3  -1   1 367.259 12.4981   3
  -4  -1  -1 173.074 5.61013   5
  -4  -1  -1 176.155 7.27535   3
   4   1  -1 172.210 5.84917   2
  -4   1   1 197.725 5.86837   1
  -4   1   1 194.732 6.25729   5
   4   1  -1 198.635 5.99325   1
  -4   1   1 184.647 6.54745   3
  -4   1   1 189.242 6.91843   4
  -4   1   1 175.484 5.72240   2
   4  -1   1 183.594 6.76937   3
   4   1  -1 187.285 7.24325   3
   4   1   1 185.974 5.78127   1
  -4   1  -1 182.771 5.78683   1
   4   1   1 159.523 6.27959   4
   4   1   1 182.012 7.26800   3
  -4   1  -1 191.691 5.78539   2
  -4   1  -1 187.196 7.06282   3
  -4   1  -1 181.428 6.91623   4
   4  -1  -1 195.196 6.32956   3
   4   1   1 178.234 5.82944   2
  -4   1  -1 186.751 6.06293   5
  -4  -1   1 177.584 7.15046   3
  -5  -1  -1 35.2580 2.63538   5
  -5   1   1 36.7653 2.86795   1
  -5  -1  -1 31.9743 3.04006   3
   5  -1   1 38.0878 2.86584   1
   5   1  -1 35.9656 2.55089   2
   5   1  -1 34.8034 2.48551   1
  -5   1   1 35.3360 2.68821   5
  -5   1   1 39.1109 2.83350   2
  -5   1   1 36.5952 2.74240   4
   5  -1   1 34.9540 3.16458   3
   5   1  -1 30.9632 2.96616   3
  -5  -1  -1 33.9052 2.54308   1
  -5   1   1 37.2575 3.24343   3
  -5  -1   1 36.1719 2.64795   1
  -5   1  -1 35.9145 2.85703   2
  -5   1  -1 29.2120 2.43146   5
   5   1   1 37.3068 3.17901   3
   5   1   1 31.5121 2.35009   1
  -5   1  -1 34.2001 2.40165   1
  -5   1  -1 28.6574 2.76564   4
  -5   1  -1 34.9347 2.94996   3
   5   1   1 32.3887 2.36391   2
   5  -1  -1 33.5841 2.85950   3
  -5  -1   1 33.0133 2.98890   3
   6   1  -1 25.8996 2.84049   3
  -6   1   1 20.7605 2.27691   2
  -6   1   1 26.2593 2.47783   4
   6   1  -1 26.5832 2.43373   1
  -6  -1  -1 22.2893 2.40629   1
  -6  -1  -1 17.1603 2.66172   3
  -6   1   1 23.9991 2.37981   1
   6  -1   1 25.7168 2.44366   1
  -6  -1  -1 22.0774 2.04848   5
   6   1  -1 21.4185 2.27370   2
  -6   1   1 26.0009 2.51761   3
  -6   1   1 18.0083 2.38331   5
   6  -1   1 26.8604 2.51793   3
   6   1   1 25.3966 2.38321   2
  -6   1  -1 24.5519 2.23033   4
  -6  -1   1 25.3010 2.51142   1
   6  -1  -1 22.1925 2.35433   1
  -6   1  -1 21.1342 2.23380   1
   6   1   1 24.2688 2.91503   3
   6   1   1 21.9042 2.22335   1
   6  -1  -1 26.9823 2.35689   3
  -6  -1   1 21.9818 2.76027   3
  -6   1  -1 22.0896 2.66803   3
  -6   1  -1 25.1393 2.47971   5
  -6   1  -1 23.4431 2.26833   2
   7   1  -1 4.10479 1.77446   2
   7   1  -1 0.07842 1.78560   1
  -7   1   1 1.68471 1.38373   4
  -7   1   1 -1.9622 1.69637   2
  -7   1   1 0.57153 1.94531   3
  -7   1   1 -0.2375 1.76736   5
   7   1  -1 -0.3188 1.92708   3
  -7  -1  -1 1.91002 1.75275   1
   7  -1   1 3.06418 1.88754   1
  -7  -1  -1 0.15915 1.95976   3
   7  -1   1 -1.6167 1.62261   3
  -7  -1  -1 1.49694 1.53867   5
  -7   1   1 1.19903 1.72627   1
  -7   1  -1 0.04950 1.65337   2
  -7   1  -1 0.23645 2.02624   3
   7   1   1 5.37736 2.15908   3
  -7   1  -1 0.84698 1.71812   5
  -7  -1   1 3.09866 2.14777   3
  -7  -1   1 0.38881 1.67834   5
   7   1   1 -0.6705 1.68417   1
  -7  -1   1 -1.5928 1.70206   1
   7   1   1 2.56923 1.71113   2
  -7   1  -1 0.25037 1.68402   1
   7  -1  -1 -1.0317 1.70755   1
   7  -1  -1 -0.3265 1.63906   3
  -8   1   1 29.2294 3.02315   5
  -8   1   1 29.1633 3.11343   3
  -8   1   1 31.3598 2.60324   4
   8  -1   1 28.3442 2.95253   1
  -8  -1  -1 32.6607 3.04660   1
  -8  -1  -1 25.9313 2.49422   5
  -8   1   1 30.4262 2.83851   2
   8  -1   1 34.8160 3.21991   3
   8   1  -1 25.3127 2.77449   2
  -8   1   1 27.4614 2.80357   1
   8   1  -1 34.3784 3.56385   3
  -8  -1  -1 26.1877 3.27175   3
   8   1  -1 28.6160 2.82473   1
   8  -1  -1 33.5379 3.06706   1
  -8   1  -1 25.5241 2.78373   5
  -8  -1   1 21.6601 2.78936   1
   8  -1  -1 32.1329 2.90547   3
  -8  -1   1 25.1236 2.66419   5
   8   1   1 29.8848 2.84493   1
   8   1   1 30.7298 2.90338   2
  -8   1  -1 28.4788 3.30748   3
  -8   1  -1 27.6421 2.77514   2
  -8  -1   1 28.1836 3.30745   3
  -8   1  -1 32.5390 2.96716   1
   9  -1   1 339.828 11.4645   1
  -9  -1  -1 362.345 11.7261   1
   9   1  -1 374.852 11.6104   2
   9   1  -1 351.087 11.5212   1
  -9   1   1 361.210 11.4337   2
  -9  -1  -1 356.528 11.1581   5
   9  -1   1 399.462 13.1975   3
  -9   1   1 363.159 11.7686   5
  -9  -1  -1 344.033 13.6012   3
  -9   1   1 369.736 11.5797   1
  -9   1   1 358.865 13.2093   3
  -9  -1   1 357.744 11.6602   1
   9  -1  -1 388.201 12.8327   3
  -9  -1   1 359.546 13.5260   3
  -9   1  -1 359.768 11.3924   2
  -9   1  -1 374.023 11.7057   1
  -9   1  -1 382.493 13.6711   3
  -9   1  -1 364.788 11.6602   5
   9  -1  -1 375.789 11.6972   1
  -9  -1   1 353.662 11.3977   5
   9   1   1 363.717 11.4720   2
   9   1   1 353.188 11.5105   1
 -10   1   1 269.909 9.32585   1
 -10   1   1 267.709 9.29789   2
 -10  -1  -1 259.937 9.52770   1
  10   1  -1 254.688 9.23067   2
 -10  -1  -1 242.808 8.74003   5
  10   1  -1 263.452 9.32998   1
 -10   1   1 255.057 9.43786   5
  10  -1   1 247.921 9.27522   1
 -10   1  -1 251.029 10.8379   3
  10  -1  -1 255.420 9.38877   1
 -10  -1   1 248.498 9.46316   1
 -10   1  -1 264.339 9.38931   5
 -10   1  -1 249.156 9.27263   1
 -10   1  -1 251.530 9.06659   2
  10   1   1 260.087 9.35327   2
  10   1   1 254.730 9.20529   1
 -10  -1   1 248.427 9.05754   5
 -11  -1  -1 41.6637 4.07279   1
 -11   1   1 43.7226 4.07593   5
 -11   1   1 39.4399 4.03187   1
  11  -1   1 40.7354 3.99839   1
 -11  -1  -1 31.6838 3.30449   5
  11   1  -1 40.6968 4.00760   1
  11  -1  -1 31.7787 3.85323   1
 -11  -1   1 45.4303 4.34551   1
 -11   1  -1 38.7589 3.91638   1
  11   1   1 39.3094 3.84743   1
 -11  -1   1 34.2530 3.59122   5
 -11   1  -1 38.7692 3.86651   5
 -12  -1  -1 45.5111 4.65535   1
  12   1  -1 42.5172 4.31098   1
 -12   1   1 35.9838 4.40618   5
 -12   1   1 42.1727 4.39716   1
 -12   1  -1 36.1225 4.10210   5
 -12  -1   1 37.1680 4.34842   1
 -12   1  -1 41.8695 4.34636   1
  12   1   1 34.2897 4.05455   1
 -12  -1   1 38.9088 3.99767   5
 -13   1   1 8.12418 3.23982   5
 -13   1   1 1.96967 3.17984   1
 -13  -1  -1 5.73394 3.43360   1
  13   1  -1 3.82338 3.07630   1
 -13  -1   1 9.61838 3.60602   1
  13   1   1 3.49650 3.00727   1
 -13   1  -1 12.6138 3.49739   1
 -13  -1   1 3.86533 3.11179   5
 -13   1  -1 5.10433 3.20514   5
 -14   1   1 10.6806 3.59103   5
 -14   1   1 5.42935 3.45002   1
  14   1  -1 -0.7421 3.24646   1
  14   1   1 -0.4793 3.22997   1
 -14   1  -1 8.08618 3.56640   1
 -14   1  -1 0.08977 3.13270   5
  15   1  -1 30.8434 4.43944   1
 -15   1   1 27.1879 4.44049   1
 -15   1   1 24.3178 4.51356   5
  15   1   1 22.1027 4.30528   1
 -15   1  -1 17.4665 4.20701   5
 -15   1  -1 25.8537 4.42653   1
 -16   1   1 55.4998 5.91320   5
  16   1  -1 57.2963 5.84661   1
 -16   1   1 65.4957 6.04576   1
 -16   1  -1 64.4028 6.12540   5
  16   1   1 62.1685 6.21271   1
 -16   1  -1 69.5766 6.11315   1
  17   1  -1 9.39330 4.17000   1
 -17   1   1 1.83188 3.98687   5
 -17   1   1 8.89032 4.18218   1
  17   1   1 2.32301 4.14988   1
 -17   1  -1 2.73313 3.96854   1
   0   2   1 1.10002 1.42556   3
   0   2  -1 1.12420 1.18597   5
   0   2  -1 -1.4740 1.43847   4
   0  -2   1 1.58874 1.53057   3
   0   2   1 0.78779 1.54954   4
   0  -2  -1 0.03798 1.33605   3
   0   2   1 -0.9029 0.95026   5
  -1   2   1 1192.33 29.9684   5
  -1  -2  -1 1179.74 35.1830   3
   1  -2   1 1186.58 35.0581   3
  -1   2   1 1185.58 34.7517   3
  -1   2   1 1158.78 37.9689   4
   1   2  -1 1144.44 37.8600   4
   1   2  -1 1133.38 35.2166   3
  -1  -2   1 1157.63 35.2595   3
   1   2   1 1131.12 37.8288   4
  -1   2  -1 1155.82 37.9758   4
   1  -2  -1 1218.79 34.8031   3
   1   2   1 1152.33 35.1169   3
   1   2   1 1165.36 29.6795   5
  -1   2  -1 1205.04 30.0987   5
  -2   2   1 4.22132 1.38638   5
  -2   2   1 3.09511 1.73723   4
  -2  -2  -1 3.14585 1.69159   3
  -2   2   1 3.21050 0.77713   2
   2   2  -1 4.80510 1.62472   4
   2   2  -1 5.00564 1.80009   3
  -2   2   1 3.35412 0.83073   2
   2   2  -1 3.35587 0.93186   2
   2   2   1 1.98494 0.93494   2
  -2   2  -1 2.81615 0.82565   2
   2   2   1 5.31780 1.81822   3
   2   2   1 4.61731 0.82552   2
   2  -2  -1 5.01065 1.22305   3
  -2   2  -1 3.82716 1.76132   4
  -2   2  -1 3.00302 1.40122   5
   2   2   1 3.41509 1.48038   4
  -2  -2   1 4.25809 1.75672   3
  -2   2  -1 3.19411 0.89620   2
  -3   2   1 279.009 7.88801   2
   3   2  -1 295.330 7.80746   1
  -3   2   1 292.867 8.62692   5
  -3  -2  -1 279.830 10.2308   3
   3   2  -1 286.753 10.2463   3
   3  -2   1 286.446 9.62914   3
   3   2  -1 304.062 10.3539   4
  -3   2   1 294.960 10.7148   4
   3   2  -1 283.235 8.03302   2
   3   2   1 279.982 10.2513   3
   3   2   1 279.435 10.2906   4
   3   2   1 303.632 7.76603   1
  -3   2  -1 281.921 10.6656   4
  -3  -2   1 278.984 10.2606   3
  -3   2  -1 290.424 7.92401   2
   3  -2  -1 285.321 9.17033   3
  -3   2  -1 288.860 8.62968   5
  -3   2  -1 302.769 7.76298   1
   3   2   1 283.951 7.95659   2
   4  -2   1 5.42448 1.54992   3
  -4   2   1 4.68045 1.88622   4
  -4  -2  -1 2.29466 1.87827   3
   4   2  -1 4.67718 1.25066   1
   4   2  -1 1.63120 1.35705   2
  -4   2   1 9.69005 1.41772   2
   4   2  -1 3.09142 1.83779   3
   4   2  -1 2.21770 1.28097   2
  -4   2   1 2.19022 1.14106   1
  -4   2   1 0.11458 1.54207   5
   4   2  -1 4.92397 1.40360   4
  -4   2  -1 1.74657 1.23750   2
   4   2   1 3.47419 1.30806   2
   4   2   1 4.16459 2.02007   3
  -4   2  -1 3.90847 1.18176   1
  -4   2  -1 2.45156 1.59110   5
   4  -2  -1 1.40765 1.14448   3
  -4  -2   1 1.66620 1.88499   3
   4   2   1 2.19953 1.32201   4
  -4   2  -1 7.13178 1.95343   4
   4   2   1 5.30949 1.24022   1
  -5  -2  -1 36.1005 3.29189   3
  -5   2   1 34.0162 2.66490   3
   5   2  -1 33.0237 2.63136   1
   5   2  -1 35.4342 2.80214   2
  -5   2   1 32.9887 3.00778   4
   5   2  -1 32.9288 3.16476   3
   5  -2   1 34.9858 3.01544   3
  -5   2   1 28.9607 2.20576   2
   5   2  -1 34.3838 2.50179   4
  -5   2   1 37.3444 2.55155   1
  -5   2   1 30.6897 2.67071   5
  -5   2  -1 36.9200 3.43801   4
   5   2   1 30.1003 3.08080   3
  -5   2  -1 34.7749 2.81033   3
  -5   2  -1 38.3843 2.87431   5
   5  -2  -1 36.8377 2.51825   3
  -5   2  -1 31.3769 2.17535   1
  -5  -2   1 35.5177 3.31013   3
  -5   2  -1 38.4837 2.75295   2
   5   2   1 31.0484 2.50664   4
   5   2   1 39.6551 2.65525   1
   5   2   1 36.7012 2.80597   2
   6   2  -1 505.935 14.0675   1
   6  -2   1 530.904 16.2649   3
   6   2  -1 515.141 17.1183   3
   6   2  -1 498.418 14.1354   2
  -6   2   1 508.607 13.9680   1
  -6   2   1 504.112 13.9717   2
  -6   2   1 513.538 17.5498   4
  -6   2   1 493.643 15.9195   3
  -6   2   1 512.549 14.6463   5
  -6  -2  -1 471.759 17.0720   3
   6   2   1 496.196 17.0916   3
  -6  -2   1 490.028 17.0306   3
   6   2   1 519.514 14.0170   1
  -6   2  -1 515.149 14.6200   5
  -6   2  -1 508.133 13.9957   1
  -6   2  -1 497.485 16.4078   3
   6   2   1 488.846 14.0295   2
  -6   2  -1 499.249 17.5585   4
  -6   2  -1 487.340 13.9254   2
   6   2   1 489.611 16.7070   4
   6  -2  -1 529.365 15.7967   3
   7  -2   1 560.954 17.9374   3
  -7  -2  -1 526.838 18.8595   3
  -7   2   1 566.402 16.2439   5
  -7  -2  -1 551.459 15.3412   5
  -7   2   1 565.534 15.6257   2
  -7   2   1 565.678 19.2860   4
   7   2  -1 534.832 15.7115   2
  -7   2   1 575.206 15.5933   1
  -7   2   1 565.293 17.9261   3
   7   2  -1 552.665 15.6642   1
  -7   2  -1 546.273 15.5456   2
   7  -2  -1 570.669 17.5637   3
  -7   2  -1 559.753 16.1682   5
  -7   2  -1 563.154 15.6280   1
   7   2   1 551.522 15.5745   1
  -7   2  -1 550.732 19.2791   4
   7   2   1 563.862 15.6870   2
  -7  -2   1 559.836 18.9717   3
  -7   2  -1 568.669 18.3799   3
  -8   2   1 338.677 10.4855   2
  -8  -2  -1 326.850 10.1254   5
  -8   2   1 342.439 10.3969   1
  -8   2   1 343.487 11.1010   5
   8   2  -1 334.508 10.6691   2
  -8   2   1 319.154 12.0152   3
   8   2  -1 336.837 10.5227   1
  -8   2   1 326.606 12.3946   4
   8  -2   1 346.767 11.8093   3
   8   2   1 340.644 10.3866   1
  -8   2  -1 343.328 12.5010   3
  -8   2  -1 322.793 10.9149   5
  -8   2  -1 322.901 10.3788   2
  -8   2  -1 341.257 12.5179   4
  -8   2  -1 340.963 10.4334   1
   8   2   1 339.689 10.5955   2
  -9   2   1 37.9136 3.40880   2
  -9   2   1 39.0713 3.75304   5
   9   2  -1 36.9099 3.35486   1
  -9   2   1 36.2806 3.22553   1
   9   2  -1 37.0623 3.37543   2
   9   2   1 39.0981 3.26375   1
  -9   2  -1 36.5167 3.74150   5
   9   2   1 39.6468 3.52882   2
  -9   2  -1 35.0895 3.23047   1
  -9  -2   1 44.9700 3.56174   5
  -9   2  -1 43.9849 3.48380   2
  10   2  -1 9.91194 2.67427   1
 -10   2   1 11.6950 3.05568   5
 -10   2   1 5.30815 2.48282   2
 -10   2   1 10.4545 2.60155   1
  10   2  -1 12.0519 2.77143   2
 -10   2  -1 13.1233 2.76606   2
  10   2   1 9.05499 2.52821   1
 -10   2  -1 7.88977 2.92163   5
 -10   2  -1 10.8409 2.53999   1
 -10  -2   1 11.9872 2.66846   5
  10   2   1 11.7413 2.77972   2
 -11   2   1 57.8759 4.60212   2
  11   2  -1 70.2758 5.36394   2
  11   2  -1 63.5246 5.20226   1
 -11   2   1 57.9889 4.43470   1
 -11   2   1 65.1445 5.26691   5
  11   2   1 72.5960 5.44335   2
 -11   2  -1 69.9498 5.29564   1
 -11   2  -1 69.5096 5.26530   5
  11   2   1 62.3265 5.07702   1
 -11   2  -1 67.9432 5.14571   2
  12   2  -1 96.6420 6.15606   1
 -12   2   1 104.220 6.38501   1
 -12   2   1 105.513 6.50967   2
 -12   2   1 103.956 7.01855   5
 -12   2  -1 92.5828 6.90830   5
  12   2   1 101.965 6.42557   1
 -12   2  -1 100.485 6.34225   2
 -12   2  -1 108.633 6.49215   1
 -13   2   1 1.28530 2.99939   1
 -13   2   1 1.98701 3.49199   5
  13   2  -1 4.93289 3.17787   1
 -13   2  -1 1.71275 3.02051   1
 -13   2  -1 -0.0218 3.20926   5
  13   2   1 5.38864 3.25748   1
 -14   2   1 272.815 11.8923   5
 -14   2   1 280.938 11.2282   1
  14   2  -1 306.900 11.5011   1
 -14   2  -1 311.606 12.1672   5
 -14   2  -1 297.613 11.5294   1
  14   2   1 292.367 11.5160   1
 -15   2   1 67.4044 6.16543   5
 -15   2   1 75.1951 5.91622   1
  15   2  -1 65.7785 5.86422   1
  15   2   1 71.7443 5.98768   1
 -15   2  -1 71.5193 5.79877   1
 -15   2  -1 66.9204 6.13467   5
 -16   2   1 244.000 10.9050   1
  16   2  -1 263.753 11.4054   1
 -16   2   1 264.794 11.8924   5
 -16   2  -1 254.361 11.0608   1
  16   2   1 271.875 11.4969   1
 -16   2  -1 253.719 11.7580   5
  17   2  -1 208.684 10.5284   1
 -17   2   1 205.129 10.2064   1
 -17   2   1 192.161 10.7368   5
 -17   2  -1 196.735 10.0543   1
  17   2   1 218.425 10.5296   1
 -17   2  -1 220.073 11.0416   5
   0   3  -1 9.63918 1.43794   5
   0   3   1 10.5968 1.38155   5
   0  -3   1 12.5340 2.08576   3
   0  -3  -1 12.6915 1.94801   3
   0   3   1 11.7189 1.91177   3
   0   3  -1 11.3602 2.20754   4
   0   3   1 9.57059 2.12757   4
   1  -3   1 8.72229 1.84589   3
   1   3  -1 13.9448 2.19674   3
  -1   3   1 10.8295 2.27609   4
   1   3  -1 13.5486 2.35002   4
  -1   3   1 10.5212 1.51956   5
   1   3  -1 10.5946 1.51968   5
  -1  -3  -1 12.1440 2.01527   3
  -1   3  -1 9.54084 1.60366   5
   1   3   1 11.3092 2.08819   3
   1  -3  -1 13.8347 1.84984   3
  -1   3  -1 9.33860 2.22486   4
   1   3   1 11.7219 2.25500   4
   1   3   1 9.76259 1.32489   5
  -1  -3   1 12.7043 2.10706   3
   2   3  -1 148.432 6.52328   3
   2   3  -1 148.864 6.68046   4
  -2  -3  -1 152.842 6.52012   3
   2   3  -1 146.619 4.27907   2
   2  -3   1 145.802 6.07592   3
  -2   3   1 152.916 5.23049   5
   2   3  -1 154.034 4.26470   2
  -2   3   1 148.584 6.86610   4
  -2   3  -1 145.413 6.90013   4
   2  -3  -1 140.351 5.66518   3
   2   3   1 144.878 6.62015   4
   2   3   1 144.523 6.36133   3
  -2  -3   1 148.307 6.58972   3
  -2   3  -1 149.990 5.37697   5
   3   3  -1 260.734 10.1996   3
  -3   3   1 278.267 8.54517   5
   3  -3   1 272.190 9.52555   3
   3   3  -1 273.211 7.67030   2
  -3  -3  -1 264.802 10.1730   3
   3   3  -1 271.245 10.4707   4
  -3   3   1 287.384 10.9022   4
  -3   3   1 263.051 7.47109   2
   3   3  -1 282.345 7.61401   2
  -3   3   1 288.999 7.46476   2
  -3   3  -1 276.096 7.55363   2
   3  -3  -1 265.645 9.14173   3
   3   3   1 276.179 10.1929   3
   3   3   1 264.822 10.4432   4
  -3   3  -1 269.720 8.60995   5
  -3   3  -1 279.800 10.8891   4
   3   3   1 275.525 7.60817   2
  -3  -3   1 272.679 10.3242   3
   3   3   1 274.807 7.50098   2
  -3   3  -1 275.173 7.47976   2
   4   3  -1 134.177 4.60238   2
  -4  -3  -1 128.524 6.37034   3
   4   3  -1 129.306 5.97139   4
  -4   3   1 129.151 4.34911   2
  -4   3   1 128.974 5.34280   5
  -4   3   1 127.755 6.48298   4
   4   3  -1 131.278 4.45005   2
  -4   3   1 133.934 4.27472   2
   4   3  -1 123.105 6.31390   3
   4  -3   1 130.584 5.46079   3
   4   3   1 132.469 4.46348   2
  -4   3  -1 135.221 5.41704   5
  -4   3  -1 132.617 4.33160   2
   4   3   1 130.950 6.28652   3
   4  -3  -1 125.096 4.97601   3
  -4   3  -1 123.262 4.34567   2
  -4  -3   1 127.512 6.56174   3
  -4   3  -1 123.906 6.42999   4
   4   3   1 134.839 4.32927   2
   4  -3  -1 123.542 5.07489   3
   4   3   1 130.505 5.96069   4
  -5   3   1 18.6488 2.45434   5
  -5   3   1 19.4082 2.83984   4
   5  -3   1 21.2716 2.27625   3
   5   3  -1 20.8315 2.04629   2
  -5  -3  -1 20.1368 2.86523   3
   5   3  -1 22.9848 2.20193   2
  -5   3   1 20.0704 1.86994   2
   5   3  -1 17.6391 2.36240   4
   5   3  -1 23.9106 1.90386   1
   5   3   1 21.1532 2.38648   4
   5   3   1 22.2743 2.01749   2
  -5   3  -1 20.3164 2.87486   4
  -5  -3   1 21.7059 2.96690   3
  -5   3  -1 23.2402 2.00895   2
   5  -3  -1 20.8147 1.89638   3
  -5   3  -1 22.2774 2.51701   5
  -6   3   1 15.7738 1.95283   2
   6  -3   1 15.2819 2.11499   3
  -6   3   1 16.8351 2.56907   5
  -6   3   1 16.8442 2.83803   4
  -6   3   1 17.0718 1.58802   1
  -6  -3  -1 15.4775 3.02080   3
   6   3  -1 19.0138 2.24803   2
   6   3  -1 16.6339 1.74331   1
   6   3  -1 13.6446 2.06746   4
   6   3   1 16.2892 2.05087   2
   6   3   1 19.7024 1.74133   1
   6   3   1 13.1174 2.03577   4
  -6   3  -1 13.7578 2.75400   4
  -6   3  -1 15.8973 1.99636   2
  -6  -3   1 13.5826 3.02606   3
  -6   3  -1 14.1093 1.56108   1
  -6   3  -1 17.1655 2.64074   5
  -7   3   1 2.24325 2.27143   5
  -7   3   1 1.64558 1.40329   1
  -7   3   1 2.49042 1.80109   2
  -7   3   1 1.34851 2.23443   4
   7   3  -1 -0.4225 1.51317   1
   7   3  -1 -0.9729 1.62903   2
  -7   3  -1 -0.4961 2.12475   4
  -7   3  -1 0.07340 1.71602   2
  -7   3  -1 -0.4708 1.36403   1
  -7   3  -1 3.97739 2.31170   5
   7   3   1 -0.3967 1.58476   2
   7   3   1 -1.1955 1.46000   1
   8   3  -1 17.2197 2.60213   2
  -8   3   1 12.1992 2.43042   2
  -8   3   1 15.1943 2.13578   1
  -8   3   1 15.3546 2.88553   5
  -8   3   1 17.9797 3.06191   4
   8   3  -1 13.2254 2.27040   1
  -8   3  -1 13.9278 2.11373   1
  -8   3  -1 14.4998 2.94014   4
   8   3   1 15.0418 2.17164   1
  -8   3  -1 9.53470 2.29573   2
  -8   3  -1 12.8551 2.89215   5
   8   3   1 12.0684 2.33716   2
   9   3  -1 271.359 9.56127   2
  -9   3   1 284.034 11.4242   4
  -9   3   1 278.337 9.45973   2
  -9   3   1 263.342 10.1434   5
  -9   3   1 264.995 8.85556   1
   9   3  -1 259.714 8.98378   1
  -9   3  -1 255.226 8.93618   1
   9   3   1 267.970 8.91155   1
  -9   3  -1 283.862 10.2471   5
  -9   3  -1 278.414 9.35204   2
  -9   3  -1 271.744 11.3726   4
   9   3   1 272.064 9.51377   2
 -10   3   1 167.138 6.99463   1
  10   3  -1 184.178 7.69824   2
  10   3  -1 171.255 7.16909   1
 -10   3   1 184.396 7.58123   2
 -10   3   1 169.565 8.29082   5
  10   3   1 175.188 7.64229   2
  10   3   1 172.657 7.08624   1
 -10   3  -1 185.741 7.16161   1
 -10   3  -1 178.220 7.42589   2
 -10   3  -1 181.842 8.39993   5
 -11   3   1 35.2809 4.38027   5
  11   3  -1 38.2599 3.80213   1
 -11   3   1 36.9800 3.98447   2
  11   3  -1 31.6757 3.83450   2
 -11   3   1 29.8185 3.37395   1
 -11   3  -1 34.5527 3.53071   1
 -11   3  -1 36.0332 4.37607   5
  11   3   1 32.2522 3.54320   1
 -11   3  -1 41.4343 3.98004   2
  11   3   1 38.0177 4.06322   2
  12   3  -1 35.1088 3.89946   1
 -12   3   1 34.8883 4.59852   5
 -12   3   1 32.0323 4.13712   2
  12   3  -1 22.7330 3.87095   2
 -12   3   1 33.4807 3.79236   1
  12   3   1 32.5602 3.86102   1
 -12   3  -1 30.8823 4.52522   5
 -12   3  -1 30.8206 4.05979   2
  12   3   1 33.4464 4.13252   2
 -12   3  -1 32.7435 3.72805   1
 -13   3   1 8.78508 3.42052   2
  13   3  -1 7.68938 3.22975   1
 -13   3   1 2.91473 3.65884   5
 -13   3   1 8.25646 3.11469   1
 -13   3  -1 2.82490 3.65356   5
 -13   3  -1 8.26646 3.35282   2
  13   3   1 5.99573 3.18560   2
  13   3   1 2.80022 3.03354   1
 -13   3  -1 2.43908 2.88649   1
 -14   3   1 3.53545 3.56254   5
 -14   3   1 7.45112 3.20321   1
  14   3  -1 3.86884 3.39856   1
 -14   3  -1 3.64518 3.06512   1
 -14   3  -1 1.40633 3.88277   5
  14   3   1 4.56531 3.17927   1
 -15   3   1 15.8467 4.54199   5
 -15   3   1 8.22749 3.46856   1
  15   3  -1 11.6842 3.91462   1
  15   3   1 21.6983 4.11157   1
 -15   3  -1 13.2688 3.67097   1
 -15   3  -1 19.3769 4.55467   5
  16   3  -1 56.4477 5.59924   1
 -16   3   1 59.0305 6.43676   5
 -16   3   1 52.5220 5.30920   1
  16   3   1 61.3097 5.61414   1
 -16   3  -1 50.0610 6.01071   5
 -16   3  -1 51.2592 5.29548   1
   0   4   1 0.65838 1.61133   3
   0   4   1 0.16393 1.13337   5
   0  -4  -1 2.86283 1.68931   3
   0   4   1 -2.6845 1.72614   4
  -1  -4  -1 47.9430 3.94929   3
   1  -4   1 44.1036 3.71661   3
   1   4  -1 50.0288 2.94694   5
  -1   4   1 44.1470 4.23779   4
   1   4  -1 47.6444 4.16180   4
  -1   4   1 45.1281 2.93538   5
   1   4  -1 45.3134 3.98633   3
   1   4   1 47.3536 2.65729   5
  -1   4  -1 43.4582 3.05558   5
   1   4   1 46.1888 4.10476   4
   1   4   1 43.7408 3.72777   3
   1  -4  -1 51.8769 3.57960   3
  -1  -4   1 49.1940 4.12250   3
  -1   4  -1 48.3901 4.37447   4
  -2   4   1 20.7524 2.17056   5
  -2   4   1 21.4095 3.17255   4
  -2  -4  -1 24.6480 2.93503   3
   2   4  -1 22.7546 3.12395   4
   2  -4   1 26.2459 2.70922   3
   2   4   1 22.6956 3.07834   4
  -2   4  -1 22.1849 3.17109   4
  -2  -4   1 25.8239 3.00139   3
   2  -4  -1 23.3309 2.37537   3
  -2   4  -1 25.2451 2.47006   5
   2   4   1 25.4408 2.90559   3
   3  -4   1 25.6479 2.57460   3
   3   4  -1 23.7098 3.10594   4
   3   4  -1 24.7754 1.72294   2
  -3  -4  -1 18.7990 2.86275   3
  -3   4   1 27.1724 2.60951   5
   3   4  -1 23.9510 1.89365   2
  -3   4   1 25.2797 3.28505   4
  -3   4  -1 21.3147 1.66725   2
  -3   4  -1 21.2361 1.55721   2
   3  -4  -1 22.9069 2.34286   3
  -3  -4   1 22.3549 2.99521   3
  -3   4  -1 24.0536 3.29662   4
   3   4   1 22.6960 1.66596   2
   3   4   1 22.6541 1.72847   2
   3   4   1 21.7670 2.96172   4
  -3   4  -1 19.2221 2.31763   5
   4   4  -1 2639.18 84.2004   4
  -4   4   1 2612.82 67.1775   5
   4  -4   1 2670.83 77.6508   3
  -4   4   1 2553.93 84.5656   4
   4  -4   1 2637.23 77.6801   3
   4   4  -1 2673.93 65.3263   2
  -4   4   1 2594.21 65.0495   2
   4   4   1 2606.55 65.1934   2
  -4   4  -1 2561.61 67.1535   5
  -4   4  -1 2615.46 65.1097   2
  -4   4  -1 2566.62 84.5948   4
   4   4   1 2586.63 84.1138   4
  -5   4   1 373.911 10.8688   2
   5   4  -1 388.138 11.2134   2
  -5   4   1 398.016 12.2515   5
   5   4  -1 396.700 14.7103   4
  -5   4   1 381.876 15.2758   4
   5   4  -1 395.356 11.2105   2
  -5   4  -1 392.120 10.9766   2
   5   4   1 398.415 14.6520   4
  -5   4  -1 386.286 15.2501   4
  -5   4  -1 390.154 12.3180   5
   5   4   1 393.861 11.1293   2
   6   4  -1 25.5256 3.03349   4
  -6   4   1 24.1213 3.05422   5
   6   4  -1 20.0017 2.28296   2
  -6   4   1 24.7265 3.68941   4
  -6   4   1 20.2239 2.20887   2
  -6   4  -1 23.1393 2.22796   2
   6   4   1 26.2157 2.35937   2
   6   4   1 18.9956 2.72894   4
  -6   4  -1 27.3515 3.21900   5
  -6   4  -1 22.1409 3.60272   4
  -7   4   1 137.931 7.74326   4
  -7   4   1 134.750 5.56186   2
  -7   4   1 133.959 6.83420   5
   7   4  -1 137.486 5.75579   2
  -7   4  -1 147.359 7.98534   4
  -7   4  -1 133.605 5.54226   2
   7   4   1 135.792 5.73646   2
  -7   4  -1 132.250 6.76138   5
   8   4  -1 101.627 5.23903   2
  -8   4   1 90.6569 6.20016   5
  -8   4   1 92.0271 6.67950   4
  -8   4   1 80.3494 4.80993   2
   8   4   1 84.5219 4.94003   2
  -8   4  -1 89.0567 6.09587   5
  -8   4  -1 99.7311 6.79375   4
  -8   4  -1 87.0069 4.87788   2
   9   4  -1 34.5267 3.57592   2
  -9   4   1 42.5421 4.79694   4
  -9   4   1 37.7104 3.51638   2
   9   4  -1 40.5283 3.25947   1
  -9   4   1 42.4413 4.50349   5
  -9   4  -1 38.9458 4.28789   5
  -9   4  -1 38.6758 3.48333   2
  -9   4  -1 37.9040 4.59771   4
   9   4   1 39.8100 3.20709   1
   9   4   1 35.3517 3.53717   2
 -10   4   1 27.9634 3.46499   2
  10   4  -1 38.2598 3.84974   2
 -10   4   1 36.5351 2.91584   1
  10   4  -1 34.8624 3.09305   1
 -10   4   1 27.9346 4.26342   5
  10   4   1 36.9897 2.97658   1
 -10   4  -1 33.5506 4.38991   5
 -10   4  -1 36.5291 2.95935   1
  10   4   1 30.6477 3.60130   2
 -10   4  -1 27.1706 3.51866   2
 -11   4   1 335.680 10.2639   1
  11   4  -1 316.368 11.4451   2
 -11   4   1 313.626 12.3766   5
  11   4  -1 303.467 10.3045   1
 -11   4   1 303.296 11.0954   2
  11   4   1 323.673 10.3000   1
 -11   4  -1 308.244 12.2864   5
  11   4   1 325.135 11.5200   2
 -11   4  -1 298.020 11.0797   2
 -11   4  -1 326.651 10.2760   1
 -12   4   1 284.990 9.78812   1
 -12   4   1 256.906 11.6446   5
  12   4  -1 270.182 9.78006   1
  12   4  -1 282.720 10.9067   2
 -12   4   1 269.012 10.5389   2
 -12   4  -1 284.287 11.8696   5
 -12   4  -1 261.934 10.4208   2
  12   4   1 284.304 10.8360   2
 -12   4  -1 284.119 9.79196   1
  12   4   1 273.964 9.64031   1
 -13   4   1 95.6946 6.73441   2
  13   4  -1 95.8798 7.18435   2
 -13   4   1 94.5557 7.15395   5
 -13   4   1 97.1120 6.23554   1
  13   4  -1 83.9836 6.04425   1
  13   4   1 89.4733 6.98919   2
 -13   4  -1 95.2614 6.65863   2
  13   4   1 88.7918 6.01700   1
 -13   4  -1 98.7570 8.06951   5
 -13   4  -1 90.4313 6.11923   1
 -14   4   1 114.400 6.98154   1
  14   4  -1 127.122 8.83866   2
 -14   4   1 115.297 7.70793   2
 -14   4   1 124.251 8.85841   5
  14   4  -1 117.758 6.97412   1
  14   4   1 114.167 7.94593   2
 -14   4  -1 115.667 8.25600   5
  14   4   1 121.799 6.88550   1
 -14   4  -1 120.503 7.07099   1
 -14   4  -1 125.137 7.80109   2
 -15   4   1 7.94333 3.50610   1
  15   4  -1 10.1430 3.65128   1
 -15   4   1 8.54751 4.64642   5
 -15   4  -1 16.6513 4.99159   5
 -15   4  -1 11.9651 3.59271   1
  15   4   1 15.0367 3.68473   1
   0   5   1 26.1220 2.50247   5
   0   5  -1 33.0449 4.17949   4
   0  -5  -1 27.7016 3.18413   3
   0   5  -1 29.6762 2.65121   5
   0   5   1 33.1042 4.12307   4
   0  -5   1 28.6868 3.31621   3
  -1   5   1 5.86777 2.59268   4
   1  -5   1 10.2427 2.41699   3
   1   5  -1 15.8007 3.10105   4
  -1  -5  -1 14.3784 2.70610   3
  -1   5   1 9.68419 1.93596   5
  -1   5  -1 10.4456 1.97622   5
   1   5   1 12.4548 2.98344   4
   1   5   1 8.51321 1.73618   5
   1  -5  -1 7.84265 2.10071   3
  -1   5  -1 12.4409 3.08791   4
   2   5  -1 110.750 6.71469   4
  -2   5   1 107.140 6.88874   4
  -2   5   1 103.785 4.89399   5
   2  -5   1 109.863 5.94162   3
   2   5   1 105.869 6.62688   4
  -2   5  -1 113.131 5.21925   5
  -2   5  -1 106.571 6.86744   4
  -3   5   1 141.809 7.91529   4
   3   5  -1 134.686 7.52484   4
  -3   5   1 136.068 5.87499   5
   3   5  -1 132.100 4.54445   2
   3   5   1 131.354 7.43143   4
  -3   5  -1 141.794 6.02403   5
  -3   5  -1 133.480 7.82903   4
   4   5  -1 69.5105 3.50503   2
  -4   5   1 80.0175 6.25428   4
  -4   5   1 74.1856 3.18558   2
  -4   5   1 70.0052 4.58888   5
   4   5  -1 74.3580 5.58070   4
  -4   5  -1 70.8421 6.00321   4
   4   5   1 66.6142 5.40079   4
  -4   5  -1 74.6749 3.35212   2
   4   5   1 71.6427 3.39909   2
  -4   5  -1 64.8154 4.75382   5
   5   5  -1 14.8102 2.19167   2
  -5   5   1 19.9556 2.96949   5
  -5   5   1 17.9142 1.96169   2
  -5   5   1 13.4844 3.56762   4
   5   5  -1 17.0866 3.16672   4
   5   5  -1 19.2784 2.08306   2
  -5   5  -1 8.75901 2.53275   5
  -5   5  -1 18.6565 3.73277   4
  -5   5  -1 17.0310 1.94913   2
   5   5   1 15.7745 1.97731   2
   5   5   1 15.3365 3.06038   4
  -6   5   1 10.9816 2.87906   5
   6   5  -1 12.7859 2.02708   2
  -6   5   1 8.19529 3.29718   4
  -6   5   1 7.70715 1.92922   2
   6   5   1 12.3243 2.03634   2
  -6   5  -1 9.96883 2.81526   5
  -6   5  -1 12.2705 2.07074   2
  -6   5  -1 15.8008 3.61890   4
  -7   5   1 -1.3360 2.56383   5
   7   5  -1 3.10764 1.88771   2
  -7   5   1 -0.7603 2.94964   4
  -7   5   1 3.18041 1.93050   2
  -7   5  -1 -1.6155 1.78903   2
  -7   5  -1 0.00608 2.97856   4
   7   5   1 0.13929 1.75738   2
  -7   5  -1 3.71649 2.66834   5
  -8   5   1 24.8353 4.27596   4
  -8   5   1 25.3309 3.97864   5
  -8   5   1 21.9294 2.79963   2
   8   5  -1 27.2134 3.02544   2
   8   5   1 17.4216 2.68462   2
  -8   5  -1 26.4106 4.40032   4
  -8   5  -1 24.4545 3.94491   5
  -8   5  -1 27.3456 2.90052   2
  -9   5   1 191.056 9.42135   5
  -9   5   1 212.190 7.96236   2
  -9   5   1 217.177 11.0248   4
   9   5  -1 200.914 8.15184   2
  -9   5  -1 202.211 10.9210   4
  -9   5  -1 203.087 7.89345   2
  -9   5  -1 194.794 9.60483   5
   9   5   1 204.850 8.12288   2
  10   5  -1 167.532 7.50318   2
 -10   5   1 162.298 7.37199   2
 -10   5   1 148.712 8.79932   5
 -10   5  -1 170.077 9.15149   5
 -10   5  -1 157.076 7.34156   2
  10   5   1 148.447 7.34890   2
 -11   5   1 19.0733 3.49887   2
 -11   5   1 16.2537 4.37802   5
  11   5  -1 14.8096 3.33390   2
 -11   5  -1 21.4843 4.39746   5
 -11   5  -1 26.3143 3.68309   2
  11   5   1 24.6486 3.56786   2
 -12   5   1 30.0249 4.86132   5
  12   5  -1 23.3153 3.89564   2
 -12   5   1 21.5099 3.81626   2
 -12   5  -1 23.1473 4.65853   5
  12   5   1 22.1873 3.73430   2
 -12   5  -1 20.2047 3.76598   2
 -13   5   1 -3.9942 3.04329   2
 -13   5   1 0.30783 3.78904   5
  13   5  -1 -4.9238 2.74142   2
 -13   5  -1 11.1819 4.38447   5
 -13   5  -1 4.76598 3.37572   2
  13   5   1 1.22649 3.04388   2
 -14   5   1 3.81588 4.15781   5
  14   5  -1 13.9864 3.64264   2
 -14   5   1 3.50156 3.39138   2
  14   5   1 0.87803 3.22633   2
 -14   5  -1 5.66540 3.51573   2
 -14   5  -1 3.89434 4.34000   5
   0   6  -1 -2.6955 2.41115   4
   0   6   1 -3.6467 2.55105   4
   0   6  -1 -0.1569 1.87184   5
   1   6  -1 341.740 15.0853   4
  -1   6   1 359.405 15.2919   4
  -1   6  -1 343.104 11.3595   5
   1   6   1 365.532 15.2379   4
  -1   6  -1 352.824 15.2897   4
   2   6  -1 0.49367 2.42219   4
  -2   6   1 0.30533 2.85086   4
  -2   6   1 1.10084 2.15524   5
  -2   6  -1 0.09954 2.90382   4
  -2   6  -1 -1.2967 1.95916   5
   2   6   1 -1.5150 2.37490   4
   3   6  -1 98.0519 7.07912   4
  -3   6   1 99.5019 7.42606   4
  -3   6   1 90.5004 5.50570   5
  -3   6  -1 103.014 7.52647   4
   3   6   1 85.1082 6.74102   4
  -3   6  -1 100.253 5.55705   5
   4   6  -1 4.96037 1.54022   2
  -4   6   1 1.55660 3.06483   4
  -4   6   1 4.67029 2.37078   5
   4   6  -1 3.25906 2.77711   4
   4   6   1 1.09931 1.39430   2
  -4   6  -1 2.58914 3.02588   4
   4   6   1 3.37074 2.76252   4
  -4   6  -1 2.79386 1.49153   2
  -4   6  -1 5.10282 2.44937   5
   5   6  -1 9.10486 3.18457   4
  -5   6   1 7.33608 3.55646   4
  -5   6   1 5.37580 2.76762   5
   5   6  -1 4.54587 1.69871   2
  -5   6   1 5.82669 1.72719   2
  -5   6  -1 11.8439 3.03908   5
  -5   6  -1 1.58269 1.66499   2
   5   6   1 6.44915 1.69787   2
   5   6   1 7.58771 3.08823   4
  -5   6  -1 4.73476 3.58009   4
  -6   6   1 166.456 10.2171   4
  -6   6   1 163.366 8.08993   5
   6   6  -1 175.419 6.54062   2
  -6   6   1 176.850 6.41955   2
   6   6   1 170.495 6.50622   2
  -6   6  -1 177.894 8.43694   5
  -6   6  -1 182.190 10.4688   4
  -6   6  -1 185.849 6.50988   2
  -7   6   1 209.576 11.3261   4
   7   6  -1 192.569 7.43884   2
  -7   6   1 196.412 9.05975   5
  -7   6   1 205.561 7.35715   2
  -7   6  -1 193.713 9.16391   5
  -7   6  -1 210.064 11.2922   4
   7   6   1 189.002 7.28557   2
  -7   6  -1 203.622 7.36560   2
  -8   6   1 139.617 6.29796   2
   8   6  -1 143.002 6.47503   2
  -8   6   1 142.964 9.65162   4
  -8   6   1 146.606 8.17219   5
   8   6   1 136.630 6.30019   2
  -8   6  -1 149.553 9.88549   4
  -8   6  -1 148.528 6.36222   2
  -8   6  -1 139.472 8.15053   5
   9   6  -1 13.4299 2.77136   2
  -9   6   1 7.96525 3.71155   5
  -9   6   1 14.9989 4.58106   4
  -9   6   1 12.5647 2.72650   2
   9   6   1 18.6387 2.90828   2
  -9   6  -1 12.9178 2.79754   2
  -9   6  -1 16.4607 4.59840   4
  -9   6  -1 8.42780 3.80309   5
 -10   6   1 9.35352 2.78540   2
 -10   6   1 7.25357 4.45304   4
 -10   6   1 9.83132 4.12000   5
  10   6  -1 4.37508 2.62987   2
 -10   6  -1 6.70657 3.87600   5
 -10   6  -1 11.8326 3.00666   2
 -10   6  -1 2.92609 4.12802   4
  10   6   1 6.23405 2.64921   2
  11   6  -1 35.0785 4.29322   2
 -11   6   1 34.7247 4.00928   2
 -11   6   1 34.3805 5.24579   5
 -11   6  -1 37.6256 5.40118   5
  11   6   1 41.3333 4.14237   2
 -11   6  -1 32.9318 4.14769   2
  12   6  -1 34.9452 4.42522   2
 -12   6   1 46.5201 4.63244   2
 -12   6   1 40.5777 5.71648   5
 -12   6  -1 45.5151 5.91078   5
 -12   6  -1 45.1244 4.64527   2
  12   6   1 38.2202 4.51245   2
   0   7  -1 -2.2357 2.88766   4
   0   7   1 4.58662 3.43852   4
   1   7  -1 8.73846 3.52600   4
  -1   7   1 8.05368 3.65553   4
   1   7   1 5.89118 3.40076   4
  -1   7  -1 5.35556 3.44708   4
   2   7  -1 41.9571 5.47195   4
  -2   7   1 45.5936 5.98699   4
  -2   7  -1 43.3924 5.97572   4
   2   7   1 49.8372 5.64562   4
  -3   7   1 96.1572 8.22831   4
   3   7  -1 106.978 7.92700   4
  -3   7  -1 99.2964 8.29168   4
   3   7   1 102.463 7.92587   4
  -3   7  -1 112.428 6.68395   5
   4   7  -1 39.6800 3.23023   2
   4   7  -1 57.3829 6.09793   4
  -4   7   1 54.3384 6.44216   4
  -4   7   1 53.5134 5.27189   5
  -4   7  -1 50.6022 5.00244   5
   4   7   1 45.9274 5.69853   4
  -4   7  -1 52.6310 6.31275   4
  -5   7   1 8.92994 1.90240   2
  -5   7   1 6.11970 4.04000   4
  -5   7   1 6.47944 2.99083   5
   5   7  -1 6.32961 1.88633   2
   5   7   1 4.05452 1.72991   2
  -5   7  -1 5.02932 1.77239   2
  -5   7  -1 12.4988 4.36412   4
  -5   7  -1 7.29417 3.18711   5
   6   7  -1 8.88981 2.16618   2
  -6   7   1 11.1187 2.15129   2
  -6   7   1 6.82194 4.18178   4
  -6   7   1 8.54175 3.42991   5
  -6   7  -1 3.36602 3.41304   5
  -6   7  -1 12.1257 4.37179   4
   6   7   1 6.61549 1.96883   2
  -6   7  -1 5.94171 2.10593   2
  -7   7   1 -1.6495 3.71860   4
   7   7  -1 -0.2138 1.95603   2
  -7   7   1 -4.4255 2.99386   5
  -7   7   1 -1.4161 2.00510   2
   7   7   1 -0.7503 1.86396   2
  -7   7  -1 0.18753 2.01154   2
  -7   7  -1 0.51946 3.95715   4
  -7   7  -1 3.52096 3.27805   5
  -8   7   1 -3.0538 3.27201   5
  -8   7   1 6.97947 2.48221   2
  -8   7   1 5.52126 4.20217   4
   8   7  -1 3.79655 2.26907   2
  -8   7  -1 6.44836 4.48307   4
  -8   7  -1 6.56868 2.43197   2
  -8   7  -1 0.69730 3.55098   5
   8   7   1 4.62006 2.32469   2
  -9   7   1 112.077 9.48328   4
   9   7  -1 109.053 6.17332   2
  -9   7   1 124.279 8.42959   5
  -9   7   1 112.960 6.13840   2
  -9   7  -1 118.089 9.78885   4
  -9   7  -1 121.473 8.28878   5
  -9   7  -1 116.404 6.22523   2
   9   7   1 120.694 6.24039   2
 -10   7   1 72.7233 5.41954   2
  10   7  -1 62.5377 4.98764   2
 -10   7   1 58.4384 7.63159   4
 -10   7   1 71.8878 6.59576   5
  10   7   1 71.6220 5.39776   2
 -10   7  -1 59.3216 7.80173   4
 -10   7  -1 71.7970 6.73308   5
 -10   7  -1 68.8345 5.41984   2
   0   8  -1 7.14336 3.94305   4
   0   8   1 -2.6464 3.41609   4
  -1   8   1 29.0834 5.26066   4
   1   8  -1 18.1564 4.63071   4
   1   8   1 22.1024 5.06122   4
  -1   8  -1 34.2864 5.45804   4
   2   8  -1 6.56251 3.76547   4
  -2   8   1 7.75513 4.16593   4
  -2   8  -1 9.42025 4.27039   4
   2   8   1 5.92417 4.01030   4
   3   8  -1 15.3813 4.27913   4
  -3   8   1 12.5310 4.72254   4
   3   8   1 6.61985 3.78981   4
  -3   8  -1 8.61071 4.28679   4
   4   8  -1 730.660 28.0683   4
  -4   8   1 708.308 29.0578   4
   4   8   1 714.512 27.9591   4
  -4   8  -1 709.874 28.9356   4
   5   8  -1 123.534 5.32739   2
   5   8   1 120.499 5.23179   2
   6   8  -1 2.87634 1.96779   2
  -6   8   1 5.80280 1.94975   2
   6   8   1 9.26257 2.28294   2
  -6   8  -1 5.41209 3.81232   5
  -6   8  -1 -0.2538 1.87478   2
   0   0   2 -0.4357 0.48013   3
   0   0  -2 -0.0649 0.56679   3
   1   0   2 -0.5106 0.71130   3
  -2   0  -2 27.2809 2.54235   3
   2   0   2 22.2357 1.86467   3
   3   0   2 83.0907 4.15716   3
  -3   0  -2 81.0192 4.34257   3
  -3   0   2 86.9634 3.73490   3
  -4   0  -2 196.871 7.73051   3
   4   0  -2 207.119 6.35627   2
  -4   0  -2 198.095 6.13975   5
   4   0   2 205.252 7.61518   3
   4   0  -2 221.188 7.24684   3
  -4   0   2 189.164 6.98020   4
  -4   0   2 207.856 6.29152   2
  -4   0   2 211.176 7.22837   3
   4   0   2 202.823 6.28202   2
   4   0  -2 205.744 6.49878   1
  -4   0  -2 203.871 6.26880   2
  -4   0   2 204.239 6.53586   1
  -4   0  -2 193.367 6.42458   1
   4   0   2 203.131 6.40633   1
  -5   0  -2 21.2115 2.54627   3
   5   0   2 16.5687 1.93455   2
  -5   0  -2 17.1450 1.97729   2
  -5   0   2 15.1515 2.15588   5
   5   0  -2 15.6080 2.02446   3
  -5   0   2 16.3430 1.95031   2
  -5   0   2 13.5405 2.10010   3
  -5   0  -2 16.7632 2.06720   1
   5   0   2 16.4208 2.00723   1
   5   0  -2 16.0108 2.05233   1
  -5   0  -2 13.4785 1.76761   5
   5   0  -2 17.1144 1.96648   2
   5   0   2 14.5797 2.28703   3
  -5   0   2 16.7464 2.06782   1
   6   0  -2 125.380 5.13722   1
   6   0   2 135.281 6.07166   3
  -6   0   2 119.041 5.19539   5
  -6   0   2 120.766 5.12442   1
  -6   0  -2 119.447 5.13381   1
  -6   0  -2 125.640 4.92081   2
   6   0   2 130.580 4.97237   2
  -6   0   2 131.696 5.69557   3
  -6   0  -2 118.671 4.81117   5
   6   0  -2 132.935 5.59339   3
  -6   0   2 120.023 4.98883   2
  -6   0  -2 120.250 6.13088   3
   6   0  -2 124.625 4.94876   2
   6   0   2 122.535 5.09095   1
  -7   0  -2 948.419 25.6576   5
  -7   0   2 965.834 25.9909   1
  -7   0   2 938.356 29.8171   3
  -7   0   2 965.487 25.5312   2
   7   0  -2 1006.37 29.8650   3
  -7   0   2 924.453 25.9833   5
   7   0  -2 991.224 25.9685   1
   7   0   2 956.629 25.9402   1
   7   0   2 970.352 25.5731   2
  -7   0  -2 989.156 26.0363   1
  -7   0  -2 951.714 25.4667   2
  -7   0  -2 957.425 30.3270   3
   7   0   2 981.064 30.2658   3
   7   0  -2 980.875 25.6038   2
  -8   0  -2 296.402 11.5481   3
   8   0  -2 312.783 9.89032   1
  -8   0  -2 296.595 9.60296   2
   8   0   2 293.687 9.82656   1
   8   0  -2 320.555 11.1310   3
   8   0   2 293.602 9.65576   2
  -8   0   2 300.956 9.68055   2
  -8   0   2 304.779 9.93199   1
  -8   0   2 291.626 9.93927   5
  -8   0  -2 306.978 9.95173   1
   8   0   2 314.400 11.5309   3
  -8   0  -2 300.107 9.54443   5
  -8   0   2 309.781 11.1060   3
   8   0  -2 300.831 9.65324   2
  -9   0  -2 303.622 9.79850   5
   9   0   2 304.718 10.1808   1
   9   0  -2 307.280 10.1966   1
  -9   0   2 301.243 10.0298   2
  -9   0   2 292.439 10.1771   5
  -9   0   2 291.891 10.1708   1
   9   0  -2 322.097 11.4783   3
  -9   0   2 310.355 11.5559   3
  -9   0  -2 304.645 12.0179   3
  -9   0  -2 317.976 10.3180   1
  10   0   2 17.4515 3.04970   1
 -10   0   2 17.3373 3.00144   1
 -10   0   2 19.7903 3.02679   5
  10   0  -2 22.3161 3.10162   1
 -10   0  -2 19.3193 2.72122   5
 -10   0  -2 13.1893 2.87562   1
 -10   0   2 18.0144 3.08232   3
 -11   0   2 5.47185 2.70552   5
 -11   0  -2 6.64499 2.51914   5
  11   0   2 5.18794 2.72781   1
 -11   0  -2 4.65998 2.80885   1
 -11   0   2 5.38462 2.79473   1
  11   0  -2 6.69086 2.83743   1
  12   0   2 468.744 15.0787   1
 -12   0  -2 473.691 14.8164   5
  12   0  -2 477.301 15.2643   1
 -12   0   2 484.021 15.3566   1
 -12   0   2 454.990 15.1461   5
 -12   0  -2 477.905 15.3898   1
 -13   0  -2 293.328 10.7997   5
  13   0   2 287.835 11.2053   1
 -13   0   2 286.361 11.1314   5
  13   0  -2 285.180 11.2954   1
 -13   0   2 309.250 11.3947   1
 -13   0  -2 299.336 11.4614   1
 -14   0  -2 -2.0104 3.19379   1
  14   0  -2 5.25181 3.50935   1
 -14   0   2 11.7279 3.43305   5
  14   0   2 3.97277 3.29765   1
 -14   0   2 7.26496 3.51185   1
 -15   0   2 892.280 26.7467   1
 -15   0   2 879.189 26.4833   5
 -15   0  -2 880.355 26.7347   1
  15   0   2 911.312 26.6610   1
  15   0  -2 913.238 26.8425   1
 -16   0   2 56.4424 6.12765   1
 -16   0  -2 62.8061 6.00555   1
  16   0   2 43.1673 5.32412   1
 -16   0   2 50.8812 6.27977   5
  16   0  -2 64.0836 6.18399   1
  17   0   2 196.142 10.6002   1
 -17   0  -2 201.858 10.6036   1
 -17   0   2 202.864 10.5195   1
  17   0  -2 206.009 10.5808   1
   0   1   2 0.07945 0.55604   2
   0   1  -2 -0.7185 1.02194   4
   0   1  -2 -0.8540 0.63636   2
   0  -1  -2 -0.0545 0.96442   3
   0   1   2 -0.9661 0.89923   3
   0   1  -2 -1.5591 0.90838   5
   0   1   2 0.31513 1.14467   4
  -1  -1  -2 -0.1493 1.25988   3
   1   1  -2 -0.0226 0.71858   2
   1   1  -2 -1.5642 1.23398   3
  -1   1   2 0.44505 0.67494   2
  -1   1   2 0.44227 1.25275   4
   1  -1   2 -0.3451 1.26215   3
  -1   1  -2 1.00896 0.82197   2
  -1  -1   2 1.75528 1.34214   3
   1   1   2 -0.1651 0.74633   2
   1   1   2 0.28547 1.23419   4
  -1   1  -2 0.68436 1.06000   5
  -1   1  -2 1.73812 1.23751   4
   1   1   2 2.19902 1.29871   3
  -2   1   2 5.50910 1.08877   2
  -2   1   2 7.46450 1.50025   5
  -2   1   2 8.77013 1.63898   4
  -2  -1  -2 3.46525 1.62925   3
   2   1  -2 4.95683 1.21532   1
   2   1  -2 5.45037 1.67463   3
   2  -1   2 4.19604 1.50075   3
   2   1  -2 5.10275 1.10722   2
  -2   1   2 5.40567 1.13320   1
   2   1   2 7.22589 1.13181   1
  -2   1  -2 5.68106 1.70352   3
  -2   1  -2 6.21712 1.52132   4
   2   1   2 6.33040 1.67129   3
  -2  -1   2 2.84993 1.57986   3
  -2   1  -2 4.11582 1.29532   5
   2   1   2 4.81594 1.37264   4
   2   1   2 4.89627 1.05883   2
  -2   1  -2 6.09592 1.11957   2
  -2   1  -2 5.52116 1.13848   1
  -3  -1  -2 267.527 9.56379   3
   3   1  -2 259.132 9.40626   3
  -3   1   2 265.311 7.68848   2
   3   1  -2 280.193 7.88332   1
   3  -1   2 276.823 9.33165   3
   3   1  -2 266.447 7.82082   2
  -3   1   2 289.137 7.81147   1
  -3   1   2 303.039 9.84878   4
  -3   1   2 285.125 8.22350   5
   3   1   2 286.832 7.77606   1
  -3   1  -2 259.756 7.76720   1
   3   1   2 271.482 9.59856   3
  -3   1  -2 263.454 9.39132   3
   3   1   2 263.917 9.50230   4
  -3  -1   2 261.552 9.47904   3
   3   1   2 275.457 7.78486   2
  -3   1  -2 266.844 9.74056   4
  -3   1  -2 280.672 7.73636   2
  -4   1   2 948.257 28.7407   4
  -4   1   2 918.696 23.0590   1
  -4   1   2 909.366 26.3321   3
  -4  -1  -2 878.861 22.6573   5
  -4   1   2 906.081 23.3985   5
   4   1  -2 875.172 22.8785   2
  -4   1   2 869.624 22.7041   2
   4   1  -2 893.770 23.0847   1
   4   1  -2 848.823 27.0149   3
  -4  -1  -2 849.456 27.2443   3
   4   1  -2 831.990 22.8048   2
   4  -1   2 905.230 26.9996   3
   4   1   2 889.791 23.0328   1
  -4   1  -2 892.124 22.7390   2
   4  -1  -2 919.914 26.2263   3
  -4   1  -2 884.269 27.0797   3
   4   1   2 839.804 28.3265   4
   4   1   2 862.041 22.7925   2
  -4  -1   2 873.457 27.1288   3
   4   1   2 878.453 27.2978   3
  -4   1  -2 852.991 22.9955   1
  -4   1  -2 885.575 23.1628   5
  -5   1   2 241.520 7.52581   2
   5  -1   2 243.735 8.90931   3
  -5   1   2 251.419 8.05135   5
  -5   1   2 259.148 8.45770   3
   5   1  -2 245.305 7.68362   2
   5  -1   2 255.511 7.74038   1
  -5  -1  -2 236.220 7.15838   5
  -5   1   2 253.699 8.95301   4
  -5   1   2 257.954 7.68994   1
   5   1  -2 240.668 9.04226   3
  -5  -1  -2 245.918 7.73288   1
   5   1  -2 251.011 7.74901   1
  -5  -1  -2 236.591 9.32263   3
  -5   1  -2 251.778 9.20150   3
  -5   1  -2 244.604 7.61168   1
   5   1   2 244.139 9.31753   3
   5   1   2 241.188 7.57987   2
  -5   1  -2 250.829 7.75910   5
  -5   1  -2 250.519 7.51869   2
   5   1   2 246.062 7.56401   1
   5   1   2 219.458 8.39498   4
  -5  -1   2 247.441 9.17782   3
  -5  -1   2 239.428 7.80443   1
   5  -1  -2 263.872 8.23465   3
  -6  -1  -2 -0.7302 1.88661   3
   6  -1   2 3.10946 1.77811   1
  -6   1   2 -2.1739 1.39787   4
  -6   1   2 -3.6305 1.54333   2
  -6   1   2 -1.1712 1.64775   1
   6   1  -2 0.03473 1.56482   2
  -6   1   2 -2.5155 1.61207   3
  -6  -1  -2 0.66756 1.67631   1
   6   1  -2 -2.7672 1.79634   3
  -6  -1  -2 -0.3380 1.26441   5
   6   1  -2 -4.8562 1.58036   1
   6  -1   2 1.49710 1.72409   3
  -6   1   2 2.44342 1.88454   5
   6  -1  -2 -0.1411 1.45545   3
   6   1   2 0.91619 1.97680   3
  -6  -1   2 -1.3010 1.84568   3
  -6   1  -2 -3.1604 1.48829   1
   6   1   2 -1.4486 1.51493   1
  -6   1  -2 -1.8419 1.58122   5
   6   1   2 -1.1649 0.75033   4
  -6   1  -2 0.44323 2.03258   3
   6  -1  -2 1.56837 1.76473   1
  -6   1  -2 0.95116 1.57589   2
  -6  -1   2 -0.6539 1.70025   1
   6   1   2 -1.7141 1.46947   2
   7   1  -2 643.127 20.2793   3
   7   1  -2 604.730 17.2689   1
  -7   1   2 626.016 19.7021   3
  -7   1   2 619.519 20.5473   4
   7   1  -2 614.421 17.2343   2
  -7   1   2 629.604 17.0841   2
   7  -1   2 636.508 20.0419   3
  -7  -1  -2 609.489 17.3636   1
  -7  -1  -2 608.273 20.5060   3
   7  -1   2 610.742 17.2861   1
  -7   1   2 625.973 17.6695   5
  -7   1   2 632.719 17.3055   1
  -7  -1  -2 594.054 16.7704   5
  -7   1  -2 641.408 17.3514   1
  -7  -1   2 600.197 20.1859   3
  -7  -1   2 595.507 17.3923   1
  -7  -1   2 622.969 17.0462   2
   7  -1  -2 642.038 19.4538   3
   7   1   2 615.004 17.1900   2
  -7   1  -2 615.287 17.0534   2
   7  -1  -2 614.981 17.3411   1
   7   1   2 635.509 17.2997   1
   7   1   2 605.666 20.4062   3
  -7   1  -2 634.627 17.3855   5
  -7   1  -2 626.331 20.3158   3
  -8   1   2 -0.3359 2.06764   3
   8   1  -2 1.53214 2.11579   3
  -8   1   2 4.15379 1.97521   2
   8   1  -2 3.72771 1.97319   1
   8  -1   2 3.54024 1.98370   1
   8  -1   2 2.06741 1.92568   3
  -8  -1  -2 2.19611 2.16852   3
  -8  -1  -2 5.02602 1.63642   5
   8   1  -2 1.88400 1.85084   2
  -8   1   2 5.20830 2.29667   5
  -8  -1  -2 0.69447 2.02477   1
  -8   1   2 5.36707 1.59793   4
  -8   1   2 2.89487 2.08072   1
  -8  -1   2 3.91124 1.95977   5
  -8   1  -2 2.66816 2.01174   1
  -8   1  -2 4.48237 2.02878   5
  -8   1  -2 1.69533 1.86620   2
  -8  -1   2 6.25254 2.33960   3
   8  -1  -2 3.78372 1.79278   3
  -8   1  -2 2.04818 2.28084   3
   8   1   2 2.50848 1.86798   2
   8  -1  -2 1.12025 1.92653   1
  -8  -1   2 -1.4929 2.01267   1
   8   1   2 3.37761 1.92844   1
  -9  -1  -2 224.987 7.61952   5
  -9   1   2 215.017 8.16510   1
  -9   1   2 220.812 8.52068   5
  -9   1   2 227.262 9.12053   3
   9   1  -2 226.569 8.30074   1
   9   1  -2 229.200 8.21459   2
  -9   1   2 230.581 8.18910   2
   9  -1   2 232.688 8.31287   1
  -9  -1  -2 231.084 8.31951   1
   9  -1   2 234.603 9.31297   3
   9   1   2 218.814 8.12645   2
  -9   1  -2 229.301 8.05932   2
  -9  -1   2 219.671 9.55288   3
   9  -1  -2 219.981 8.28668   1
   9   1   2 223.828 8.17582   1
  -9   1  -2 218.185 9.63588   3
  -9   1  -2 229.512 8.34313   1
  -9   1  -2 211.549 8.16154   5
  -9  -1   2 212.367 8.15949   5
  -9  -1   2 221.496 8.37379   1
 -10  -1  -2 182.765 7.05159   5
  10  -1   2 194.185 7.89933   1
 -10   1   2 187.470 7.64883   2
  10   1  -2 193.040 7.73632   2
 -10   1   2 196.034 8.09107   5
 -10  -1  -2 193.359 7.95365   1
 -10   1   2 189.355 7.73276   1
  10   1  -2 191.859 7.79125   1
  10   1   2 180.611 7.65409   1
 -10  -1   2 189.594 8.04024   1
 -10  -1   2 178.456 7.66515   5
 -10   1  -2 199.118 7.79694   5
 -10   1  -2 190.221 7.59852   2
 -10   1  -2 198.457 9.15544   3
 -10   1  -2 198.230 7.93891   1
  10  -1  -2 192.273 7.91433   1
  10   1   2 192.929 7.74136   2
 -11   1   2 70.6498 5.53207   1
  11   1  -2 65.1336 5.37937   1
  11  -1   2 81.2623 5.79884   1
 -11  -1  -2 77.5821 5.70825   1
 -11   1   2 65.8864 5.00432   5
 -11  -1   2 92.2161 6.00937   1
  11   1   2 82.6075 5.46745   1
 -11   1  -2 72.8048 5.43666   5
  11  -1  -2 67.6234 5.02856   1
 -11   1  -2 73.3598 5.73479   1
 -11  -1   2 73.1266 5.37792   5
 -12   1   2 232.739 9.81589   5
  12   1  -2 234.022 9.54410   1
 -12  -1  -2 246.325 9.98263   1
  12  -1   2 242.631 10.2903   1
 -12   1   2 228.706 9.56696   1
 -12   1  -2 248.100 9.53954   5
  12   1   2 226.785 9.39891   1
 -12  -1   2 249.633 9.90453   1
 -12  -1   2 238.015 9.49169   5
 -12   1  -2 243.199 9.77104   1
 -13   1   2 103.463 7.07818   1
 -13   1   2 84.1182 6.99355   5
  13   1  -2 106.529 6.86778   1
 -13  -1   2 86.1535 6.98739   1
 -13   1  -2 91.8182 6.62114   5
 -13   1  -2 103.304 6.98503   1
  13   1   2 93.5947 6.46218   1
 -13  -1   2 107.285 6.76914   5
 -14   1   2 113.949 7.60907   5
  14   1  -2 104.818 7.39124   1
 -14   1   2 114.682 7.55756   1
  14   1   2 89.2587 7.09560   1
 -14   1  -2 116.306 7.27490   5
 -14   1  -2 104.753 7.38127   1
 -15   1   2 9.23885 3.86265   5
  15   1  -2 4.59762 3.77314   1
 -15   1   2 1.16860 3.28073   1
  15   1   2 8.55322 3.90693   1
 -15   1  -2 6.47732 3.68114   5
 -15   1  -2 9.81604 3.92664   1
 -16   1   2 44.4172 5.44357   5
  16   1  -2 44.9020 5.23062   1
 -16   1   2 37.5926 4.98064   1
  16   1   2 33.7129 5.27403   1
 -16   1  -2 42.4677 5.35229   1
  17   1  -2 209.788 10.5028   1
 -17   1   2 222.406 10.8434   5
 -17   1   2 185.017 10.1613   1
  17   1   2 200.290 10.3836   1
 -17   1  -2 192.142 10.3719   1
   0   2   2 715.869 23.7029   4
   0   2   2 717.755 18.2929   5
   0   2   2 705.617 21.5562   3
   0   2  -2 689.747 23.6055   4
   0   2  -2 712.991 18.6497   5
   0  -2   2 707.746 21.9413   3
   0  -2  -2 711.322 21.5612   3
   1   2  -2 21.7727 2.36589   4
  -1  -2  -2 17.9830 2.02741   3
   1   2  -2 17.1243 1.09410   2
  -1   2   2 19.8263 2.35960   4
   1   2  -2 16.2709 2.16477   3
  -1   2   2 21.6947 1.70251   5
  -1   2   2 15.6737 1.60517   3
   1   2  -2 15.8798 1.08012   2
   1   2   2 17.1094 2.20083   4
  -1   2  -2 15.5059 1.27687   2
   1  -2  -2 16.0956 1.57518   3
   1   2   2 14.1766 1.96995   3
  -1   2  -2 17.0394 1.36963   2
  -1  -2   2 16.1930 2.17758   3
  -1   2  -2 19.7277 1.79255   5
  -1   2  -2 19.6770 2.38933   4
   2   2  -2 2207.28 66.9889   3
   2   2  -2 2277.99 71.9208   4
   2   2  -2 2193.71 56.0060   2
  -2   2   2 2209.72 55.8278   2
  -2   2   2 2434.52 55.8788   2
  -2   2   2 2319.37 57.2605   5
  -2   2   2 2301.70 72.1749   4
  -2  -2  -2 2210.74 66.8889   3
  -2   2  -2 2290.23 57.3520   5
  -2   2  -2 2294.22 55.9602   2
  -2   2  -2 2216.70 72.1374   4
   2   2   2 2236.96 55.8586   2
   2   2   2 2214.84 55.8957   2
   2   2   2 2186.17 71.9316   4
   2   2   2 2267.24 66.9286   3
   2  -2  -2 2267.44 66.0381   3
  -2  -2   2 2227.66 67.0339   3
   3   2  -2 1653.47 42.0365   2
   3   2  -2 1708.42 42.4037   1
   3   2  -2 1631.98 50.3048   3
  -3   2   2 1649.25 41.8765   2
   3  -2   2 1703.47 49.9612   3
  -3  -2  -2 1658.33 50.3517   3
  -3   2   2 1689.43 54.0207   4
   3   2  -2 1746.51 53.7273   4
  -3   2   2 1695.83 43.0367   5
  -3   2  -2 1672.08 54.0521   4
  -3  -2   2 1604.66 50.3153   3
  -3   2  -2 1772.35 42.4125   1
   3   2   2 1656.95 41.9537   2
   3   2   2 1596.11 53.6650   4
  -3   2  -2 1661.40 43.0147   5
  -3   2  -2 1679.76 41.9357   2
   3   2   2 1745.46 42.2954   1
   3   2   2 1622.92 50.3137   3
   4   2  -2 150.996 4.88907   1
  -4   2   2 152.938 4.70223   1
   4   2  -2 149.254 6.58476   3
  -4  -2  -2 145.915 6.63051   3
   4   2  -2 148.486 6.00577   4
  -4   2   2 142.183 4.90123   2
   4  -2   2 151.581 6.05199   3
   4   2  -2 152.101 5.14366   2
  -4   2   2 151.250 6.61515   4
  -4   2   2 152.789 5.70049   5
   4   2   2 146.434 4.97111   2
  -4   2  -2 157.819 6.63598   4
  -4   2  -2 156.657 4.86594   1
  -4   2  -2 148.397 4.95336   2
  -4   2  -2 150.538 5.52162   5
   4   2   2 148.495 6.61690   3
   4   2   2 153.566 4.81517   1
   4   2   2 136.915 5.93882   4
  -4  -2   2 133.636 6.54610   3
   5   2  -2 551.020 14.6845   1
  -5   2   2 554.659 14.5645   1
   5   2  -2 527.252 17.8308   3
  -5   2   2 548.038 15.3344   5
   5   2  -2 543.482 14.8007   2
  -5   2   2 544.103 14.5899   2
   5   2  -2 532.265 14.7942   2
   5  -2   2 554.249 17.3237   3
  -5  -2  -2 509.481 17.8858   3
  -5   2   2 557.592 18.6765   4
   5   2   2 559.899 14.6286   1
  -5   2  -2 537.211 18.6647   4
   5   2   2 529.254 17.9545   3
  -5   2  -2 532.734 14.5698   2
   5   2   2 541.693 14.6580   2
  -5   2  -2 529.487 17.3927   3
  -5   2  -2 532.968 15.1836   5
  -5   2  -2 555.501 14.6721   1
  -5  -2   2 544.436 17.9547   3
   5   2   2 500.540 17.9426   4
   6   2  -2 1191.22 37.4261   3
  -6   2   2 1207.11 31.1916   2
   6   2  -2 1216.83 31.4349   2
  -6  -2  -2 1186.14 37.5834   3
  -6   2   2 1253.46 39.6126   4
  -6   2   2 1221.91 32.1741   5
  -6  -2  -2 1212.28 31.1002   5
  -6   2   2 1216.89 31.4764   1
   6  -2   2 1236.36 36.7983   3
   6   2  -2 1199.57 31.5507   1
  -6   2  -2 1225.84 39.6476   4
   6   2   2 1130.35 38.7824   4
  -6  -2   2 1205.26 37.5326   3
   6   2   2 1186.94 31.2805   2
   6   2   2 1228.27 31.4853   1
  -6   2  -2 1199.63 31.1984   2
  -6  -2   2 1229.83 31.9290   1
   6   2   2 1215.12 37.6383   3
  -6   2  -2 1215.85 37.0069   3
  -6   2  -2 1189.98 32.0161   5
  -6   2  -2 1215.06 31.5383   1
   7   2  -2 103.530 4.87097   2
  -7   2   2 97.9289 5.21471   4
   7  -2   2 109.211 5.26164   3
   7   2  -2 94.3395 4.54569   1
  -7  -2  -2 90.5186 4.01733   5
  -7  -2  -2 97.4403 5.93268   3
  -7   2   2 99.3003 4.65075   2
  -7   2   2 95.4174 4.73426   3
  -7   2   2 97.0246 4.54333   1
  -7   2   2 103.140 5.30297   5
  -7   2  -2 99.4168 5.05130   5
   7  -2  -2 96.8962 4.38032   3
   7   2   2 88.9527 4.58355   2
  -7   2  -2 97.4774 5.38320   4
  -7  -2   2 101.834 5.46719   1
  -7   2  -2 99.8464 4.64564   2
  -7   2  -2 99.1047 5.63618   3
  -7  -2   2 93.1196 5.78152   3
  -7   2  -2 98.2939 4.55227   1
   7   2   2 92.3947 4.45856   1
   8   2  -2 295.780 9.84292   2
  -8   2   2 306.409 10.4192   5
  -8   2   2 307.711 9.61298   1
  -8   2   2 295.293 11.3756   4
   8   2  -2 312.556 9.67519   1
   8  -2   2 303.860 10.9429   3
  -8   2   2 307.974 9.68081   2
   8   2   2 290.139 9.71605   2
  -8   2  -2 301.447 10.1189   5
  -8   2  -2 287.422 9.52724   2
  -8   2  -2 289.813 11.5789   3
  -8   2  -2 299.212 9.62282   1
   8   2   2 299.423 9.57503   1
  -9   2   2 49.7631 4.20085   5
   9   2  -2 57.2929 4.35290   2
   9   2  -2 44.1915 3.59768   1
  -9   2   2 43.7453 3.51542   1
  -9   2   2 48.4460 3.76823   2
  -9   2  -2 47.6824 4.01881   5
  -9   2  -2 55.6087 4.33875   1
   9   2   2 52.9856 4.28668   1
   9   2   2 42.9284 3.60960   2
  -9   2  -2 48.5121 4.55887   3
  -9  -2   2 52.5355 3.88128   5
  -9   2  -2 44.1320 3.65209   2
 -10   2   2 185.523 8.39825   5
 -10   2   2 192.782 7.85648   2
  10   2  -2 196.824 7.92014   2
 -10   2   2 193.075 7.74632   1
  10   2  -2 191.948 7.77755   1
  10   2   2 185.318 7.65676   1
 -10   2  -2 197.005 7.75541   1
 -10   2  -2 188.685 8.20181   5
 -10  -2   2 198.797 7.89607   5
  10   2   2 196.088 7.95821   2
 -10   2  -2 195.763 7.70192   2
  11   2  -2 699.320 20.2939   2
 -11   2   2 711.527 20.1927   2
 -11   2   2 679.220 20.0124   1
  11   2  -2 697.165 20.2670   1
 -11   2   2 672.066 20.6029   5
  11   2   2 696.999 20.2302   2
 -11  -2   2 685.742 20.2520   5
  11   2   2 658.516 20.0321   1
 -11   2  -2 696.931 20.0945   1
 -11   2  -2 696.729 20.5514   5
 -11   2  -2 694.593 20.0005   2
 -12   2   2 -0.3352 2.98198   5
  12   2  -2 1.81134 2.70600   1
 -12   2   2 -0.7850 2.86957   2
 -12   2   2 5.79543 2.90417   1
 -12   2  -2 3.13062 2.73570   2
 -12   2  -2 -1.1880 3.00319   5
  12   2   2 0.12533 2.85177   1
 -12   2  -2 -1.7381 2.62664   1
  13   2  -2 421.276 14.2677   1
 -13   2   2 415.230 14.1237   1
 -13   2   2 405.596 14.8127   5
 -13   2  -2 423.790 14.7003   5
  13   2   2 428.699 14.2759   1
 -13   2  -2 444.990 14.3797   1
  14   2  -2 244.192 10.1320   1
 -14   2   2 227.627 9.95944   1
 -14   2   2 229.930 10.7484   5
 -14   2  -2 231.940 10.5809   5
 -14   2  -2 244.530 10.2185   1
  14   2   2 249.385 10.3330   1
 -15   2   2 41.5389 5.37255   5
 -15   2   2 38.4930 4.62913   1
  15   2  -2 41.0686 5.10449   1
 -15   2  -2 45.5808 5.43542   5
 -15   2  -2 40.8944 4.83059   1
  15   2   2 47.6220 5.26861   1
  16   2  -2 46.3032 5.19975   1
 -16   2   2 30.0469 5.18952   5
 -16   2   2 38.9333 4.90834   1
 -16   2  -2 27.0873 5.01380   5
 -16   2  -2 38.3507 4.85422   1
  16   2   2 44.7174 5.33180   1
 -17   2   2 8.06689 4.45419   5
 -17   2   2 7.69215 4.04179   1
  17   2  -2 6.00071 4.19492   1
  17   2   2 14.1775 4.36407   1
 -17   2  -2 5.15105 4.34382   5
 -17   2  -2 8.08287 4.09212   1
   0   3   2 0.28351 1.02088   5
   0  -3  -2 -0.4868 1.39017   3
   0   3  -2 -0.0304 1.67215   4
   0   3   2 3.65911 1.86368   4
   0   3   2 -1.1100 1.39738   3
   0   3  -2 0.05845 1.17703   5
   0  -3   2 -0.2955 1.59523   3
  -1   3   2 1.34188 1.37339   3
   1   3  -2 1.83722 1.74481   4
  -1  -3  -2 1.76553 1.50471   3
   1   3  -2 -0.0273 1.72436   3
  -1   3   2 0.90461 1.12005   5
   1  -3   2 0.40327 1.57874   3
  -1   3   2 -0.8111 1.68614   4
  -1   3  -2 -0.9342 1.25101   5
  -1   3  -2 -0.9982 1.66013   4
   1   3   2 -0.0469 1.62467   4
   1   3   2 -0.3301 0.87384   5
   1  -3  -2 0.52955 1.29631   3
  -1  -3   2 1.32507 1.67587   3
   1   3   2 0.15871 1.51915   3
   2   3  -2 9.38238 2.11647   3
  -2  -3  -2 10.6646 2.03805   3
  -2   3   2 10.2598 1.64154   5
   2  -3   2 9.70993 1.88833   3
  -2   3   2 9.95628 2.31456   4
   2   3  -2 9.63641 2.15528   4
   2   3  -2 10.1712 1.05556   2
   2   3  -2 9.62242 1.11692   2
  -2   3  -2 9.22356 0.96098   2
  -2   3  -2 9.60342 2.24161   4
   2   3   2 8.69179 1.98758   3
  -2   3  -2 10.5703 1.82861   5
   2   3   2 8.78032 2.03702   4
   2  -3  -2 9.66611 1.47179   3
  -2   3  -2 9.06800 1.05651   2
  -2  -3   2 8.30718 2.10778   3
   3   3  -2 161.261 7.09704   3
   3  -3   2 150.340 6.41256   3
  -3   3   2 169.389 5.82141   5
  -3   3   2 163.673 4.80335   2
  -3  -3  -2 157.120 6.95760   3
   3   3  -2 155.523 5.02576   2
  -3   3   2 154.090 7.36118   4
   3   3  -2 164.461 7.11610   4
  -3   3   2 163.893 4.76167   2
   3   3  -2 155.422 4.88096   2
  -3   3  -2 160.478 5.91832   5
  -3  -3   2 154.943 7.15947   3
   3   3   2 160.960 4.90420   2
   3   3   2 166.265 7.01951   3
  -3   3  -2 164.937 4.82786   2
  -3   3  -2 161.631 4.91642   2
   3   3   2 152.189 6.97145   4
   3   3   2 162.361 4.78512   2
  -3   3  -2 162.093 7.45140   4
   3  -3  -2 160.162 5.77851   3
   4   3  -2 650.172 17.0500   2
  -4   3   2 643.933 16.8096   2
  -4  -3  -2 646.851 21.1219   3
  -4   3   2 647.585 22.4188   4
   4   3  -2 629.836 21.0698   3
   4   3  -2 656.112 21.9603   4
   4  -3   2 643.847 20.3224   3
  -4   3   2 659.844 16.7850   2
  -4   3   2 644.997 17.8307   5
  -4   3  -2 658.229 16.8602   2
  -4  -3   2 638.596 21.1467   3
   4   3   2 637.317 16.8707   2
   4   3   2 611.172 21.8507   4
  -4   3  -2 623.378 16.7651   2
  -4   3  -2 649.796 22.4433   4
   4   3   2 631.246 21.0211   3
   4   3   2 642.684 16.7689   2
  -4   3  -2 642.354 17.9047   5
   5  -3   2 169.380 6.79912   3
  -5   3   2 170.250 6.40347   5
  -5  -3  -2 160.770 7.68815   3
  -5   3   2 167.055 5.55694   2
   5   3  -2 164.167 5.83052   2
   5   3  -2 166.259 5.14137   1
  -5   3   2 173.184 7.78351   4
   5   3  -2 168.560 7.08540   4
   5   3   2 157.152 6.96728   4
   5   3   2 162.220 5.63457   2
  -5   3  -2 163.308 5.58542   2
  -5   3  -2 163.610 6.47898   5
  -5  -3   2 168.868 7.86335   3
  -5   3  -2 167.977 7.78651   4
  -6   3   2 2.70375 1.17285   1
   6   3  -2 -2.1044 1.41072   2
  -6   3   2 -0.9941 1.50559   2
   6   3  -2 0.10385 1.34889   1
  -6   3   2 0.29517 2.15270   4
  -6   3   2 2.88677 2.04150   5
   6  -3   2 2.20757 1.64698   3
  -6   3  -2 1.96451 1.23900   1
  -6   3  -2 2.98134 2.22862   4
  -6   3  -2 2.33479 1.65400   2
   6   3   2 0.09368 1.46402   2
  -6   3  -2 -0.3068 1.87253   5
   6   3   2 0.46021 1.49317   4
   6   3   2 2.07058 1.30765   1
  -7   3   2 528.012 15.6309   5
  -7   3   2 519.253 18.7506   4
  -7   3   2 521.688 14.2236   1
   7   3  -2 515.793 14.8967   2
   7   3  -2 502.627 14.3580   1
  -7   3   2 522.992 14.6880   2
  -7   3  -2 515.916 14.6322   2
   7   3   2 503.309 14.2508   1
   7   3   2 513.706 14.7824   2
  -7   3  -2 537.672 14.4161   1
  -7   3  -2 511.140 18.8115   4
  -7   3  -2 519.442 15.5547   5
   8   3  -2 -0.5366 1.72510   1
  -8   3   2 3.44972 2.40461   5
  -8   3   2 2.89254 1.69042   1
  -8   3   2 0.99714 2.33686   4
   8   3  -2 0.53694 1.89408   2
  -8   3   2 -0.2067 1.94291   2
  -8   3  -2 -0.8751 1.71718   1
   8   3   2 2.60265 1.76619   1
  -8   3  -2 0.64399 2.21642   5
   8   3   2 -1.1756 1.82790   2
  -8   3  -2 -0.5467 1.94225   2
  -8   3  -2 1.77317 2.38464   4
   9   3  -2 180.939 7.42809   2
  -9   3   2 185.198 8.69126   4
  -9   3   2 184.135 6.84532   1
  -9   3   2 187.196 8.11629   5
   9   3  -2 176.269 6.89720   1
  -9   3   2 180.275 7.31355   2
   9   3   2 186.972 6.85410   1
  -9   3  -2 183.496 8.83849   4
  -9   3  -2 173.936 7.97887   5
  -9   3  -2 175.475 7.15288   2
   9   3   2 177.810 7.34497   2
  -9   3  -2 169.738 6.84540   1
  10   3  -2 172.098 7.53121   2
 -10   3   2 166.271 6.88475   1
  10   3  -2 174.361 6.99764   1
 -10   3   2 164.847 7.35622   2
 -10   3   2 153.303 7.99056   5
 -10   3  -2 167.275 6.84893   1
 -10   3  -2 158.101 7.96654   5
 -10   3  -2 161.803 7.15467   2
  10   3   2 157.319 7.23844   2
  10   3   2 171.641 6.92084   1
 -11   3   2 41.7373 3.84858   1
 -11   3   2 46.1311 4.84015   5
 -11   3   2 47.6882 4.28279   2
  11   3  -2 48.6258 4.06541   1
  11   3  -2 53.7678 4.71377   2
 -11   3  -2 50.1618 4.27903   2
  11   3   2 47.9613 4.43941   2
  11   3   2 47.7823 3.99882   1
 -11   3  -2 55.5375 5.05976   5
 -11   3  -2 46.3746 3.97923   1
 -12   3   2 208.103 8.68198   1
 -12   3   2 215.879 9.34502   2
  12   3  -2 204.290 8.71207   1
 -12   3   2 229.821 10.1152   5
  12   3  -2 210.716 9.35416   2
 -12   3  -2 213.080 9.93718   5
  12   3   2 235.773 9.47656   2
  12   3   2 216.043 8.79068   1
 -12   3  -2 222.155 8.92932   1
 -12   3  -2 211.638 9.00403   2
 -13   3   2 81.3413 6.62101   5
 -13   3   2 69.1519 5.62518   2
 -13   3   2 83.1519 6.07864   1
  13   3  -2 82.6360 6.09613   1
  13   3   2 81.2345 6.15282   1
 -13   3  -2 68.6614 5.31137   1
  13   3   2 81.0698 6.52365   2
 -13   3  -2 77.2061 6.38497   5
 -13   3  -2 79.4424 5.90421   2
 -14   3   2 75.0672 6.14837   1
 -14   3   2 75.5767 6.60040   5
  14   3  -2 80.7902 5.94275   1
  14   3   2 79.6611 5.77513   1
 -14   3  -2 77.7642 5.82640   1
 -14   3  -2 72.6221 6.53832   5
 -15   3   2 6.93070 3.45150   1
  15   3  -2 4.75616 3.59856   1
 -15   3   2 13.3092 4.42118   5
 -15   3  -2 5.71769 3.51271   1
  15   3   2 6.13853 3.69220   1
 -15   3  -2 -2.0516 3.84320   5
 -16   3   2 28.6014 5.24903   5
 -16   3   2 38.4297 4.71732   1
  16   3  -2 23.1952 4.54643   1
  16   3   2 28.3588 4.64181   1
 -16   3  -2 28.4445 4.95999   5
 -16   3  -2 27.5435 4.49323   1
   0   4   2 10.3551 1.45932   5
   0   4   2 11.3524 2.59513   4
   0   4  -2 12.2086 2.62741   4
   0  -4   2 10.0311 2.29905   3
   0  -4  -2 11.5986 2.03543   3
   0   4   2 11.0717 2.13859   3
   0   4  -2 10.7967 1.75074   5
  -1   4   2 144.693 5.19758   5
  -1   4   2 141.241 7.22932   4
  -1  -4  -2 147.077 6.47974   3
   1  -4   2 138.183 6.48273   3
   1   4  -2 142.909 7.22819   4
  -1   4  -2 139.967 7.28190   4
  -1   4  -2 136.797 5.43723   5
   1   4   2 149.695 7.19236   4
   1   4   2 145.118 4.86055   5
  -1  -4   2 146.693 6.82795   3
   1   4   2 143.703 6.37315   3
   1  -4  -2 141.326 6.07319   3
   2   4  -2 5.17510 1.02831   2
   2   4  -2 10.0112 1.08836   2
  -2   4   2 10.1173 1.72372   5
  -2  -4  -2 10.2729 2.25924   3
  -2   4   2 7.06205 2.35076   4
   2  -4   2 10.0559 2.02360   3
   2   4  -2 7.79569 2.31526   4
   2   4   2 9.28393 2.33553   4
   2   4   2 7.50258 2.06078   3
   2  -4  -2 6.94329 1.70210   3
  -2   4  -2 6.93578 2.31860   4
  -2  -4   2 6.91708 2.27217   3
  -2   4  -2 6.74553 1.73367   5
  -3   4   2 25.9617 2.56116   5
   3  -4   2 27.8702 3.03859   3
   3   4  -2 27.7319 1.90722   2
  -3   4   2 32.1366 3.71028   4
   3   4  -2 28.9075 2.01570   2
   3   4  -2 28.0142 3.36519   4
  -3  -4  -2 24.4698 3.00376   3
   3   4   2 31.8736 3.49833   4
  -3   4  -2 26.5906 3.48644   4
   3   4   2 25.3467 1.93879   2
  -3   4  -2 25.8759 1.83008   2
  -3   4  -2 28.1229 2.72001   5
   3   4   2 26.2171 1.80399   2
  -3  -4   2 23.7919 3.18298   3
  -3   4  -2 29.1276 2.08919   2
   3  -4  -2 31.3338 2.80429   3
  -4   4   2 108.268 3.97687   2
   4   4  -2 106.965 5.97197   4
   4   4  -2 110.417 4.21736   2
  -4   4   2 106.749 6.54557   4
   4  -4   2 110.983 5.47329   3
   4  -4   2 111.864 5.56869   3
  -4   4   2 107.657 5.09503   5
  -4   4  -2 118.152 4.11095   2
   4   4   2 101.529 4.00713   2
  -4   4  -2 112.159 5.34733   5
  -4   4  -2 119.214 6.63561   4
   4   4   2 99.4456 5.90594   4
  -5   4   2 5.83630 2.57633   4
   5   4  -2 8.12087 1.63031   2
  -5   4   2 8.19416 2.23635   5
   5   4  -2 8.01711 2.25004   4
  -5   4   2 8.32704 1.58134   2
   5   4   2 5.75413 1.47461   2
  -5   4  -2 9.07025 1.67843   2
  -5   4  -2 6.54124 2.16375   5
   5   4   2 6.71723 2.16862   4
  -5   4  -2 6.71728 2.65978   4
   6   4  -2 60.3621 4.06363   2
  -6   4   2 71.0839 5.00350   5
   6   4  -2 75.6728 4.10560   2
  -6   4   2 68.4769 5.67337   4
  -6   4   2 72.0762 3.73343   2
   6   4  -2 72.2287 4.89943   4
   6   4   2 68.0254 4.70480   4
   6   4   2 78.4650 3.89561   2
  -6   4  -2 84.0604 5.92721   4
  -6   4  -2 77.1727 5.06780   5
  -6   4  -2 67.5974 3.76788   2
  -7   4   2 549.697 15.3681   2
  -7   4   2 568.446 20.5434   4
  -7   4   2 549.598 16.7472   5
   7   4  -2 542.071 15.6770   2
  -7   4  -2 540.203 16.6813   5
  -7   4  -2 561.335 20.5182   4
  -7   4  -2 523.025 15.3513   2
   7   4   2 541.103 15.4842   2
  -8   4   2 156.102 7.79556   5
   8   4  -2 171.286 6.93765   2
  -8   4   2 177.911 9.03515   4
  -8   4   2 174.323 6.73707   2
   8   4  -2 159.329 5.56660   1
   8   4   2 169.914 6.75359   2
  -8   4  -2 165.272 8.91521   4
  -8   4  -2 161.210 7.83689   5
  -8   4  -2 168.724 6.58126   2
   9   4  -2 177.993 6.38514   1
  -9   4   2 183.503 8.58855   5
  -9   4   2 198.628 9.72140   4
   9   4  -2 193.720 7.78798   2
  -9   4   2 192.161 7.44050   2
   9   4   2 173.409 6.20233   1
   9   4   2 183.332 7.54804   2
  -9   4  -2 169.145 8.46317   5
  -9   4  -2 187.674 9.72584   4
  -9   4  -2 178.222 7.36581   2
  10   4  -2 12.7467 3.01015   2
  10   4  -2 10.6319 2.35237   1
 -10   4   2 14.6332 3.62207   5
 -10   4   2 7.21576 2.04501   1
 -10   4   2 15.3918 3.13312   2
  10   4   2 7.89170 2.73265   2
 -10   4  -2 9.12213 2.82773   2
 -10   4  -2 11.4245 2.24165   1
  10   4   2 7.03434 2.14420   1
 -10   4  -2 6.57420 3.41775   5
 -11   4   2 11.0803 3.85657   5
 -11   4   2 7.93923 2.39836   1
 -11   4   2 9.77074 3.20168   2
  11   4  -2 12.3511 2.67826   1
  11   4  -2 4.53070 2.82666   2
 -11   4  -2 6.77831 2.45472   1
 -11   4  -2 7.11985 3.00152   2
  11   4   2 7.43293 2.43306   1
  11   4   2 8.86430 2.94971   2
 -11   4  -2 14.6519 3.99835   5
 -12   4   2 305.449 12.7255   5
  12   4  -2 305.135 10.7335   1
 -12   4   2 304.861 11.5283   2
  12   4  -2 321.989 11.8671   2
 -12   4   2 340.110 10.7350   1
 -12   4  -2 310.950 11.4428   2
 -12   4  -2 313.634 10.6751   1
 -12   4  -2 300.635 12.6657   5
  12   4   2 334.434 11.8346   2
  12   4   2 313.368 10.6100   1
  13   4  -2 226.959 8.99852   1
 -13   4   2 221.919 8.87216   1
  13   4  -2 223.065 10.0427   2
 -13   4   2 202.825 10.7222   5
 -13   4   2 224.846 9.70856   2
 -13   4  -2 218.825 9.64471   2
  13   4   2 227.284 9.96424   2
 -13   4  -2 211.320 10.8636   5
 -13   4  -2 234.939 8.93629   1
  13   4   2 222.058 8.79406   1
 -14   4   2 9.82807 3.54854   2
 -14   4   2 2.10996 3.04377   1
 -14   4   2 2.05584 4.07525   5
  14   4  -2 1.40397 3.02278   1
  14   4   2 3.51641 3.05245   1
 -14   4  -2 0.21876 2.86319   1
 -14   4  -2 -1.0352 3.96050   5
 -14   4  -2 2.61870 3.43751   2
  14   4   2 -3.1573 3.29247   2
  15   4  -2 640.399 19.6042   1
 -15   4   2 637.820 19.3435   1
 -15   4   2 604.966 21.2411   5
  15   4   2 656.157 19.5594   1
 -15   4  -2 644.946 19.4667   1
 -15   4  -2 659.911 21.6841   5
   0   5  -2 0.50499 1.51515   5
   0   5   2 -0.5548 1.42642   5
   0   5  -2 1.78688 2.34235   4
   0  -5  -2 -1.2250 1.71205   3
   0   5   2 0.15241 2.19495   4
   1  -5   2 2.55526 2.17696   3
  -1   5   2 3.09231 2.36977   4
  -1  -5  -2 1.35215 1.98910   3
  -1   5   2 0.92984 1.54090   5
   1   5  -2 3.15890 2.38896   4
   1   5   2 -0.3240 2.18834   4
  -1   5  -2 1.97584 2.40736   4
  -1   5  -2 -1.8668 1.51215   5
   2  -5   2 1.18306 2.03793   3
  -2   5   2 1.03470 1.67078   5
  -2   5   2 0.92590 2.26768   4
   2   5  -2 -0.0423 2.15072   4
  -2   5  -2 2.03303 2.41733   4
  -2   5  -2 1.55062 1.74452   5
   2   5   2 -1.3998 2.07994   4
   3   5  -2 103.996 3.87829   2
  -3   5   2 94.8647 6.72580   4
   3   5  -2 107.753 6.59939   4
  -3   5   2 107.530 5.14276   5
  -3   5  -2 95.3547 6.67147   4
  -3   5  -2 91.6312 5.13803   5
  -3   5  -2 106.879 3.79809   2
   3   5   2 100.602 6.47776   4
  -4   5   2 308.199 10.5227   5
   4   5  -2 332.618 13.2902   4
  -4   5   2 314.755 8.97356   2
  -4   5   2 314.870 13.6612   4
   4   5  -2 323.314 9.34198   2
   4   5   2 317.129 13.1489   4
  -4   5  -2 317.068 9.14142   2
   4   5   2 325.359 9.13196   2
  -4   5  -2 313.831 10.7314   5
  -4   5  -2 316.394 13.7092   4
  -5   5   2 129.281 6.20784   5
   5   5  -2 122.056 5.04449   2
  -5   5   2 118.424 7.87365   4
   5   5  -2 122.626 7.15725   4
  -5   5   2 128.956 4.79525   2
   5   5   2 131.010 4.94935   2
  -5   5  -2 125.610 4.92149   2
   5   5   2 135.596 7.29819   4
  -5   5  -2 122.134 7.83519   4
  -5   5  -2 132.754 6.48431   5
  -6   5   2 -0.5724 1.68919   2
  -6   5   2 0.78059 2.37769   5
  -6   5   2 1.10263 2.86753   4
   6   5  -2 1.10694 1.57456   2
   6   5   2 -1.6721 1.51783   2
  -6   5  -2 -0.4586 2.37000   5
   6   5   2 0.67840 2.09274   4
  -6   5  -2 1.07170 2.77437   4
  -6   5  -2 0.32231 1.66920   2
   7   5  -2 276.060 9.30772   2
  -7   5   2 284.294 9.03596   2
  -7   5   2 281.965 10.5858   5
  -7   5   2 281.530 12.9592   4
   7   5   2 270.298 9.08086   2
  -7   5  -2 282.981 13.0379   4
  -7   5  -2 287.122 10.7535   5
  -7   5  -2 280.568 9.12292   2
  -8   5   2 0.83552 2.81435   5
   8   5  -2 4.09349 2.14821   2
  -8   5   2 5.18571 2.21224   2
  -8   5   2 2.78405 3.19930   4
  -8   5  -2 0.15802 3.28880   4
  -8   5  -2 1.54505 2.83486   5
   8   5   2 -2.0872 1.86827   2
  -8   5  -2 2.53024 2.17628   2
   9   5  -2 104.841 6.10585   2
  -9   5   2 122.602 8.44658   4
  -9   5   2 113.113 7.46719   5
  -9   5   2 120.498 6.12386   2
  -9   5  -2 111.104 7.49489   5
   9   5   2 115.518 6.05913   2
  -9   5  -2 113.453 5.97371   2
  -9   5  -2 123.416 8.47787   4
 -10   5   2 81.6430 5.79957   2
  10   5  -2 91.1769 6.05252   2
 -10   5   2 91.6423 7.49705   5
 -10   5  -2 96.0714 7.47928   5
  10   5   2 99.4979 6.07883   2
 -10   5  -2 102.355 5.96566   2
 -11   5   2 45.3484 4.45128   2
 -11   5   2 55.1023 5.78953   5
  11   5  -2 50.9438 4.74080   2
  11   5   2 50.2817 4.55312   2
 -11   5  -2 48.4549 4.44578   2
 -11   5  -2 51.3197 5.56566   5
 -12   5   2 119.188 8.80601   5
  12   5  -2 125.766 7.54358   2
 -12   5   2 138.233 7.41308   2
 -12   5  -2 118.847 7.19353   2
 -12   5  -2 130.119 8.86660   5
  12   5   2 119.172 7.35008   2
 -13   5   2 62.8813 5.39018   2
  13   5  -2 67.7308 5.71543   2
 -13   5   2 55.7588 6.33473   5
  13   5   2 77.1223 5.92604   2
 -13   5  -2 58.1731 5.23260   2
 -13   5  -2 59.8086 6.39264   5
 -14   5   2 62.2955 6.55318   5
  14   5  -2 67.9632 6.02707   2
 -14   5   2 69.2725 5.76347   2
 -14   5  -2 81.1739 7.16073   5
  14   5   2 64.0452 5.72540   2
 -14   5  -2 62.4720 5.70284   2
   0   6  -2 229.811 11.1625   4
   0   6   2 206.377 10.8929   4
  -1   6   2 15.0225 3.72011   4
   1   6  -2 10.8656 3.42834   4
  -1   6  -2 12.9745 3.61686   4
  -1   6  -2 15.0218 2.71848   5
   1   6   2 14.9093 3.59652   4
  -2   6   2 663.738 25.4677   4
  -2   6   2 688.361 19.5018   5
   2   6  -2 669.061 25.1608   4
  -2   6  -2 682.353 19.7123   5
  -2   6  -2 660.884 25.4413   4
   2   6   2 681.395 25.2630   4
   3   6  -2 539.212 20.6267   4
  -3   6   2 519.209 15.9473   5
  -3   6   2 507.503 20.8655   4
   3   6  -2 541.227 14.2636   2
  -3   6  -2 526.912 16.2665   5
  -3   6  -2 519.686 20.9109   4
   3   6   2 542.026 20.6579   4
   4   6  -2 52.6169 3.31766   2
  -4   6   2 61.1416 6.17643   4
   4   6  -2 48.4129 5.25669   4
  -4   6   2 57.4418 4.56683   5
  -4   6  -2 60.3558 4.75851   5
  -4   6  -2 54.0191 5.88255   4
   4   6   2 48.4893 3.16122   2
   4   6   2 56.4312 5.61702   4
  -4   6  -2 53.2409 3.18040   2
   5   6  -2 185.216 9.74850   4
  -5   6   2 193.434 8.17439   5
  -5   6   2 184.132 6.25584   2
   5   6  -2 186.726 6.63079   2
   5   6  -2 183.454 6.60122   2
  -5   6   2 181.566 10.4727   4
   5   6   2 186.417 6.39391   2
   5   6   2 185.302 9.70122   4
  -5   6  -2 187.963 8.25280   5
  -5   6  -2 168.233 10.2172   4
  -5   6  -2 189.874 6.42396   2
  -6   6   2 476.630 15.1417   5
  -6   6   2 465.592 13.1274   2
   6   6  -2 436.966 13.2552   2
  -6   6   2 456.947 19.0429   4
  -6   6  -2 465.736 19.1856   4
  -6   6  -2 465.279 15.2566   5
  -6   6  -2 449.480 13.1695   2
   6   6   2 442.233 13.1443   2
   7   6  -2 40.6284 3.37023   2
  -7   6   2 47.1015 3.47329   2
  -7   6   2 52.9127 4.86753   5
  -7   6   2 46.7855 5.88492   4
   7   6   2 46.0846 3.46125   2
  -7   6  -2 42.6865 4.86285   5
  -7   6  -2 45.7072 3.45965   2
  -7   6  -2 49.4761 5.96735   4
  -8   6   2 109.285 8.63964   4
   8   6  -2 104.329 5.79161   2
  -8   6   2 118.109 7.56831   5
  -8   6   2 115.968 5.66869   2
  -8   6  -2 113.610 5.72419   2
  -8   6  -2 109.579 7.59296   5
  -8   6  -2 110.518 8.83427   4
   8   6   2 112.995 5.67832   2
  -9   6   2 18.7752 2.93550   2
   9   6  -2 18.9839 2.99001   2
  -9   6   2 16.1802 4.09033   5
  -9   6   2 14.1451 4.57707   4
  -9   6  -2 8.15523 4.19733   4
  -9   6  -2 11.8735 3.93482   5
   9   6   2 20.5322 2.92857   2
  -9   6  -2 16.1170 2.99120   2
 -10   6   2 76.3267 6.60052   5
  10   6  -2 74.7698 5.71123   2
 -10   6   2 75.9382 5.52537   2
  10   6   2 81.8661 5.62973   2
 -10   6  -2 87.8549 5.75994   2
 -10   6  -2 76.4107 7.75396   4
 -10   6  -2 82.3958 6.68580   5
 -11   6   2 311.988 11.2068   2
  11   6  -2 315.272 11.6008   2
 -11   6   2 337.352 13.4090   5
 -11   6  -2 308.235 13.1982   5
  11   6   2 304.185 11.2905   2
 -11   6  -2 299.753 11.2769   2
  12   6  -2 -0.3966 2.99121   2
 -12   6   2 0.52976 2.97664   2
 -12   6   2 -7.1707 3.75357   5
  12   6   2 0.54295 2.97085   2
 -12   6  -2 -0.4530 4.05083   5
 -12   6  -2 1.48471 3.03121   2
   0   7  -2 0.94284 3.13425   4
   0   7   2 1.18776 3.08412   4
  -1   7   2 5.53008 3.50407   4
   1   7  -2 -1.9531 2.78051   4
  -1   7  -2 3.27798 3.37862   4
   1   7   2 1.91860 3.09080   4
   2   7  -2 5.21207 3.34197   4
  -2   7   2 6.94299 3.64956   4
   2   7   2 2.98580 3.20547   4
  -2   7  -2 1.28945 3.24250   4
  -2   7  -2 3.00364 2.60622   5
   3   7  -2 52.7915 5.96910   4
  -3   7   2 56.1686 6.43215   4
   3   7   2 58.0461 6.18454   4
  -3   7  -2 50.8657 4.77664   5
  -3   7  -2 44.5322 5.95881   4
   4   7  -2 216.906 7.45412   2
   4   7  -2 234.263 11.9252   4
  -4   7   2 234.388 12.5393   4
  -4   7  -2 235.839 9.83203   5
  -4   7  -2 228.822 7.18722   2
   4   7   2 214.107 11.6420   4
  -4   7  -2 226.193 12.4499   4
   4   7   2 231.694 7.17693   2
   5   7  -2 63.8967 3.99356   2
  -5   7   2 50.5448 6.45637   4
  -5   7   2 56.8552 3.64826   2
  -5   7   2 64.4744 5.31536   5
  -5   7  -2 62.4738 6.96058   4
  -5   7  -2 64.7671 5.56414   5
   5   7   2 61.8492 3.78851   2
  -5   7  -2 58.1563 3.67717   2
   6   7  -2 3.98566 1.93058   2
  -6   7   2 0.40888 3.06587   5
  -6   7   2 2.50462 1.91079   2
  -6   7   2 0.27108 3.57380   4
  -6   7  -2 1.19020 3.13635   5
   6   7   2 0.44055 1.80998   2
  -6   7  -2 1.16645 3.70686   4
  -6   7  -2 4.40754 1.96020   2
  -7   7   2 219.737 10.0669   5
  -7   7   2 208.316 7.66825   2
  -7   7   2 215.612 12.3757   4
   7   7  -2 205.022 7.91914   2
   7   7   2 207.346 7.75146   2
  -7   7  -2 214.839 10.1465   5
  -7   7  -2 207.954 7.67294   2
  -7   7  -2 211.149 12.3474   4
  -8   7   2 3.85611 2.37884   2
   8   7  -2 -0.8457 2.10912   2
  -8   7   2 0.34718 3.97466   4
  -8   7   2 -1.2236 3.40635   5
  -8   7  -2 4.76483 2.37463   2
  -8   7  -2 -1.0371 3.96176   4
   8   7   2 -0.6963 2.04172   2
  -8   7  -2 -1.9722 3.27731   5
  -9   7   2 67.7959 7.49443   4
  -9   7   2 77.8521 6.71388   5
  -9   7   2 80.7469 5.22755   2
   9   7  -2 72.1470 5.44429   2
  -9   7  -2 66.5344 7.69477   4
  -9   7  -2 76.1243 5.24148   2
   9   7   2 78.7349 5.29028   2
  -9   7  -2 69.6816 6.53550   5
 -10   7   2 68.4574 8.18154   4
  10   7  -2 79.3318 5.84643   2
 -10   7   2 74.9840 6.98622   5
 -10   7   2 78.6605 5.54548   2
 -10   7  -2 85.7187 7.28915   5
  10   7   2 85.2203 5.61517   2
 -10   7  -2 66.3824 8.04497   4
 -10   7  -2 88.5654 5.77011   2
   0   8  -2 10.2708 4.03264   4
   0   8   2 7.98487 4.16348   4
  -1   8   2 54.8341 6.80661   4
   1   8  -2 49.6755 6.53433   4
   1   8   2 43.4283 6.30437   4
  -1   8  -2 62.3705 7.26556   4
  -2   8   2 -3.6292 3.43842   4
   2   8  -2 1.64138 3.57350   4
   2   8   2 0.40213 3.42493   4
  -2   8  -2 4.91159 3.92967   4
  -3   8   2 5.62597 4.41070   4
   3   8  -2 4.32372 3.64195   4
   3   8   2 0.94201 3.23696   4
  -3   8  -2 -0.3545 3.73097   4
   4   8  -2 36.7264 2.85758   2
   4   8  -2 35.9270 5.74935   4
  -4   8   2 22.5469 5.93288   4
  -4   8  -2 34.0650 6.19347   4
   4   8   2 30.7491 5.38719   4
   5   8  -2 -1.6023 1.66237   2
  -5   8  -2 -0.1740 1.63663   2
   5   8   2 -0.7321 1.72812   2
  -6   8   2 33.4773 2.88728   2
   6   8  -2 29.9136 3.00756   2
   6   8   2 33.8638 3.03234   2
  -6   8  -2 26.5925 4.74341   5
  -6   8  -2 35.8919 2.98682   2
   0   0   3 -6.8187 0.87624   3
   0   0  -3 -5.0771 0.97445   3
  -1   0  -3 -0.3367 1.17193   3
   1   0   3 0.79470 1.11894   3
  -2   0   3 145.945 4.82246   3
   2   0   3 127.735 5.35139   3
  -2   0  -3 130.312 5.48363   3
   3   0  -3 11.6872 1.59656   3
   3   0   3 10.4707 2.01261   3
  -3   0   3 11.0132 1.69857   1
  -3   0  -3 11.8022 1.36693   5
   3   0   3 8.66721 1.53388   2
  -3   0   3 11.0975 1.61890   3
  -3   0   3 14.4946 1.66349   2
   3   0   3 10.8015 1.62559   1
  -3   0  -3 13.0600 2.14730   3
  -3   0  -3 10.7640 1.59334   1
   4   0   3 205.579 8.29489   3
  -4   0  -3 212.648 6.60641   5
  -4   0   3 225.228 7.76555   3
   4   0  -3 227.278 7.06417   1
   4   0   3 224.156 7.00329   1
   4   0  -3 216.787 6.87391   2
   4   0   3 225.519 6.95478   2
   4   0  -3 241.363 7.85670   3
  -4   0  -3 225.083 7.00688   1
  -4   0  -3 224.158 8.52160   3
  -4   0  -3 231.853 6.88939   2
  -4   0   3 229.353 7.04225   1
  -4   0   3 225.102 6.89636   2
   5   0  -3 39.8363 3.14959   3
  -5   0   3 37.1243 2.58914   4
   5   0   3 41.5203 3.10885   1
   5   0  -3 41.5907 3.00955   2
  -5   0   3 37.2494 3.18221   3
  -5   0  -3 29.6883 2.48269   1
  -5   0  -3 32.3992 2.43215   2
  -5   0   3 37.6495 2.74409   1
   5   0   3 33.6401 3.00144   3
  -5   0  -3 36.0755 3.19557   3
  -5   0  -3 35.6494 2.64711   5
   5   0  -3 35.1139 2.57886   1
  -5   0   3 36.0336 2.52813   2
   5   0   3 42.9746 3.02124   2
   6   0  -3 202.537 7.34843   3
  -6   0   3 203.149 7.40385   3
   6   0   3 194.977 6.58474   2
   6   0   3 182.785 6.64637   1
   6   0  -3 202.939 6.64953   2
  -6   0   3 187.746 6.85223   4
   6   0   3 188.356 7.87119   3
  -6   0   3 197.018 6.58594   2
  -6   0  -3 184.128 6.45916   2
  -6   0   3 191.038 6.89801   5
  -6   0  -3 183.215 6.24418   5
  -6   0  -3 185.715 8.14668   3
   6   0  -3 200.112 6.78552   1
  -6   0   3 195.375 6.76028   1
  -6   0  -3 199.023 6.80802   1
   7   0   3 127.226 5.11386   2
   7   0  -3 126.636 5.63104   3
   7   0   3 115.268 5.09716   1
  -7   0   3 117.200 5.01333   2
   7   0   3 110.192 6.11690   3
  -7   0   3 114.366 4.50470   4
   7   0  -3 116.562 5.05822   2
  -7   0   3 126.097 5.32147   1
  -7   0  -3 122.075 5.02405   2
  -7   0   3 120.262 5.62237   3
  -7   0  -3 116.492 6.43883   3
  -7   0  -3 114.725 4.77872   5
   7   0  -3 120.532 5.25471   1
  -7   0  -3 120.213 5.32904   1
  -7   0   3 119.338 5.40842   5
   8   0   3 128.194 5.54945   2
  -8   0   3 122.106 5.79390   1
   8   0   3 132.943 6.76538   3
   8   0  -3 140.597 6.21321   3
   8   0  -3 129.813 5.79090   1
  -8   0   3 126.428 6.11301   3
  -8   0  -3 135.027 5.87209   1
   8   0  -3 127.800 5.50282   2
   8   0   3 128.492 5.60503   1
  -8   0  -3 122.336 6.87659   3
  -8   0  -3 133.640 5.56119   2
  -8   0  -3 126.973 5.30755   5
  -8   0   3 131.110 5.67491   2
  -8   0   3 123.538 5.92573   5
  -9   0   3 1.81108 2.18399   1
   9   0  -3 1.28563 2.15928   1
  -9   0  -3 4.34071 2.35432   1
   9   0  -3 0.57523 2.12053   3
  -9   0   3 0.38287 2.16843   2
   9   0   3 3.58625 2.15023   1
  -9   0   3 1.91308 2.19069   3
  -9   0  -3 3.46730 2.48041   3
  -9   0   3 5.10715 2.31009   5
  -9   0  -3 5.97810 2.00595   5
 -10   0   3 608.605 17.6725   1
 -10   0  -3 599.953 17.6355   1
 -10   0   3 589.511 17.6586   5
 -10   0  -3 602.190 17.0579   5
  10   0   3 576.081 17.4501   1
 -10   0   3 560.428 19.7362   3
  10   0  -3 599.705 17.5511   1
 -11   0   3 425.538 14.1531   5
  11   0   3 445.932 14.1196   1
 -11   0  -3 421.894 13.4956   5
  11   0  -3 447.975 14.1797   1
 -11   0   3 436.160 14.1654   1
 -11   0  -3 453.759 14.2918   1
 -12   0   3 280.487 10.6752   1
  12   0   3 269.915 10.3594   1
 -12   0   3 284.735 10.7247   5
 -12   0  -3 274.824 9.88863   5
  12   0  -3 272.775 10.4475   1
 -12   0  -3 266.373 10.5798   1
 -13   0   3 107.951 7.25709   1
 -13   0  -3 109.715 7.33796   1
  13   0  -3 118.233 7.32538   1
  13   0   3 109.809 7.00339   1
 -13   0   3 120.316 7.31526   5
  14   0  -3 70.9387 5.88979   1
 -14   0   3 63.4908 5.45002   5
  14   0   3 72.0049 5.76549   1
 -14   0   3 57.8326 5.50800   1
 -14   0  -3 57.9266 5.53454   1
  15   0   3 5.90756 3.86597   1
 -15   0   3 4.26876 3.54281   1
 -15   0  -3 7.78107 3.95219   1
 -15   0   3 -1.0773 3.25158   5
  15   0  -3 13.6601 3.90327   1
  16   0  -3 25.1394 4.81080   1
 -16   0   3 23.1391 4.92512   1
 -16   0   3 17.3581 4.43657   5
 -16   0  -3 20.8297 4.65274   1
  16   0   3 7.95493 4.25032   1
  17   0   3 22.6533 5.18575   1
 -17   0   3 27.7085 5.12983   1
  17   0  -3 18.2091 4.91886   1
 -17   0  -3 22.8786 5.06010   1
   0   1   3 847.703 25.6390   3
   0   1   3 914.468 21.5898   2
   0   1   3 865.562 28.1513   4
   0   1  -3 817.610 21.9752   1
   0  -1  -3 896.326 25.6741   3
   0   1  -3 826.395 21.6395   2
  -1  -1  -3 137.193 5.36199   3
  -1   1   3 146.154 4.25219   1
   1   1  -3 130.545 4.36802   1
   1  -1   3 141.890 5.57282   3
   1   1  -3 133.662 4.27316   2
  -1   1   3 151.233 5.92106   4
  -1   1   3 147.085 4.18128   2
  -1   1   3 154.741 4.65667   5
   1   1   3 138.953 5.81467   4
  -1   1  -3 146.834 4.29001   2
   1   1   3 146.140 5.42683   3
   1   1   3 141.721 4.24472   1
  -1   1  -3 139.835 4.38308   1
   1   1   3 155.069 4.25426   2
  -1  -1   3 133.202 5.49650   3
  -2   1   3 31.2504 2.21512   1
   2   1  -3 31.4513 2.47299   3
  -2   1   3 32.7620 2.20248   5
  -2   1   3 35.3209 2.95323   4
  -2  -1  -3 32.5884 3.06377   3
   2   1  -3 27.0515 2.15233   2
  -2   1   3 33.2362 2.13502   2
   2  -1   3 26.4321 2.36543   3
   2   1  -3 30.7176 2.32987   1
  -2   1  -3 27.6233 1.98734   5
   2   1   3 31.1552 2.76302   4
  -2   1  -3 34.5333 3.28305   3
  -2   1  -3 35.6114 2.24125   2
  -2   1  -3 26.5285 2.14440   1
   2   1   3 31.1486 2.15468   2
  -2  -1   3 27.2625 2.37366   3
   2   1   3 29.9922 2.09794   1
   2   1   3 30.1437 2.46008   3
   3   1  -3 88.3454 4.49239   3
  -3   1   3 94.1145 4.09271   5
  -3   1   3 94.8260 4.47078   4
  -3   1   3 92.1648 3.54507   1
   3   1  -3 79.3377 3.54582   2
  -3  -1  -3 89.6617 4.67539   3
   3  -1   3 83.9744 4.57853   3
   3   1  -3 83.6818 3.64515   1
  -3   1   3 89.8103 3.51522   2
  -3  -1   3 87.6117 4.47832   3
  -3   1  -3 87.0583 3.56878   1
  -3   1  -3 82.4680 4.59949   3
  -3   1  -3 88.5515 3.53853   2
  -3   1  -3 85.7547 3.77265   5
   3   1   3 86.8158 3.52433   2
   3   1   3 89.3385 4.23579   4
   3   1   3 90.4274 3.54798   1
   3   1   3 84.9915 4.68847   3
  -4   1   3 616.322 19.6482   4
   4   1  -3 581.133 18.5859   3
  -4   1   3 588.673 15.5908   2
  -4  -1  -3 573.924 18.8612   3
  -4   1   3 610.340 16.2240   5
   4   1  -3 554.201 15.6433   2
   4  -1   3 605.611 18.6812   3
   4   1  -3 593.725 15.8276   1
  -4   1   3 602.870 15.7934   1
  -4  -1   3 567.827 18.5759   3
   4   1   3 584.313 15.6064   2
   4   1   3 577.900 18.8463   3
  -4   1  -3 576.018 18.7026   3
  -4   1  -3 591.517 15.8724   5
  -4   1  -3 602.210 15.6096   2
  -4   1  -3 575.109 15.7610   1
   4   1   3 586.043 15.7199   1
   4   1   3 558.941 19.3942   4
   5  -1   3 13.5795 1.97375   1
  -5  -1  -3 13.7433 1.45045   5
  -5  -1  -3 16.0459 1.99225   1
   5   1  -3 18.7628 2.15122   2
  -5   1   3 11.0917 1.68741   3
  -5   1   3 13.4155 1.88853   1
   5   1  -3 10.7326 1.83593   2
   5  -1   3 8.61175 2.06658   3
   5   1  -3 14.6621 2.37466   3
  -5   1   3 13.5932 1.91437   2
   5   1  -3 15.1078 2.01987   1
  -5   1   3 14.2886 2.04714   4
  -5   1   3 11.4266 2.16310   5
  -5  -1  -3 15.4923 2.43268   3
   5   1   3 13.7923 1.91466   2
   5   1   3 12.2855 2.34933   3
   5   1   3 12.0461 1.88560   1
  -5  -1   3 14.5964 2.12310   1
   5  -1  -3 14.7189 2.02965   1
  -5  -1   3 15.3756 2.41221   3
  -5   1  -3 15.9215 2.51331   3
  -5   1  -3 12.7115 1.88490   1
  -5   1  -3 11.8285 1.84922   2
   5   1   3 12.9193 1.66843   4
   5  -1  -3 12.5922 1.47106   3
  -5   1  -3 14.6435 1.97158   5
   6   1  -3 48.7194 3.47063   1
  -6  -1  -3 39.3816 3.61649   3
  -6   1   3 56.8966 3.49819   1
   6  -1   3 43.7764 3.45045   1
  -6   1   3 43.0130 3.25602   5
  -6  -1  -3 48.3546 3.42411   1
  -6  -1  -3 42.6503 2.69769   5
  -6   1   3 48.7511 3.23677   4
   6  -1   3 49.3381 4.04283   3
   6   1  -3 51.6645 4.03892   3
  -6   1   3 47.8144 3.34845   3
  -6   1   3 48.6676 3.34849   2
   6   1  -3 41.0912 3.32131   2
  -6  -1   3 46.4056 3.60832   1
  -6   1  -3 46.3687 3.41267   1
   6  -1  -3 49.1861 3.00798   3
  -6  -1   3 48.7549 4.06206   3
   6  -1  -3 45.5700 3.47893   1
  -6   1  -3 45.6540 4.31955   3
   6   1   3 41.0679 3.32321   1
   6   1   3 48.1147 4.32294   3
   6   1   3 48.8467 3.36448   2
  -6   1  -3 47.7090 3.35740   5
   6   1   3 39.0136 2.51216   4
  -6   1  -3 40.1330 3.22421   2
  -7   1   3 1.60630 1.78693   1
  -7  -1  -3 1.20892 1.74284   1
   7   1  -3 3.36792 1.78974   2
  -7   1   3 0.34479 1.52519   4
  -7  -1  -3 4.48413 2.20002   3
  -7   1   3 1.90773 1.80914   2
  -7   1   3 3.79182 2.05835   5
  -7  -1  -3 0.97159 1.34994   5
   7   1  -3 0.47595 1.93966   3
   7  -1   3 4.82531 1.94953   3
  -7   1   3 2.96901 1.78488   3
   7  -1   3 3.22171 1.87567   1
   7   1  -3 1.71451 1.88044   1
  -7   1  -3 0.15267 1.79464   5
   7  -1  -3 0.19529 1.86081   1
  -7   1  -3 1.84154 1.70902   1
  -7  -1   3 1.87963 1.90214   1
   7   1   3 3.10505 2.10989   3
  -7   1  -3 1.52133 1.76614   2
  -7  -1   3 -0.2626 1.82814   2
  -7   1  -3 1.25646 2.14386   3
   7  -1  -3 2.01984 1.53156   3
   7   1   3 2.71467 0.97631   4
   7   1   3 -0.9764 1.71659   1
   7   1   3 0.81406 1.61526   2
  -7  -1   3 3.76977 2.09160   3
  -8   1   3 731.024 20.2335   2
   8   1  -3 743.940 20.4009   2
  -8   1   3 746.022 20.5261   1
  -8   1   3 743.623 20.8684   5
  -8   1   3 738.884 23.1860   3
   8   1  -3 723.218 20.4813   1
  -8  -1  -3 717.994 24.2387   3
   8  -1   3 731.780 20.5384   1
   8   1  -3 726.050 23.7333   3
  -8  -1  -3 750.014 20.6134   1
   8  -1   3 752.390 23.8137   3
  -8  -1  -3 707.400 19.7993   5
  -8   1   3 735.810 24.2748   4
   8  -1  -3 752.605 20.5811   1
  -8  -1   3 743.612 20.6888   1
  -8  -1   3 704.662 20.5737   5
  -8   1  -3 758.509 24.2499   3
  -8   1  -3 745.847 20.4423   5
  -8  -1   3 696.916 23.7225   3
  -8   1  -3 721.505 20.1672   2
   8   1   3 729.847 20.4559   1
  -8   1  -3 749.753 20.5327   1
   8   1   3 740.574 20.3244   2
   8  -1  -3 771.880 22.9877   3
   9   1  -3 121.840 5.86232   2
   9  -1   3 125.235 5.90822   1
  -9  -1  -3 121.712 5.13243   5
  -9   1   3 121.922 6.33163   5
  -9   1   3 133.088 5.98994   1
  -9   1   3 123.089 5.88964   2
  -9  -1  -3 117.268 6.07928   1
   9   1  -3 115.243 5.87329   1
  -9   1   3 118.161 6.83572   3
  -9   1  -3 121.360 7.09044   3
  -9  -1   3 118.693 5.96435   5
  -9   1  -3 131.907 6.05676   1
   9   1   3 122.767 5.73062   2
  -9   1  -3 131.066 5.80323   2
  -9  -1   3 117.818 6.09981   1
  -9   1  -3 120.562 5.81997   5
  -9  -1   3 129.059 6.88179   3
   9   1   3 114.571 5.75327   1
   9  -1  -3 116.709 5.96517   1
  10  -1   3 13.6549 2.84220   1
 -10  -1  -3 10.3382 2.92728   1
 -10   1   3 11.0336 2.74415   1
 -10   1   3 10.1546 2.92063   5
 -10  -1  -3 11.5692 2.24219   5
 -10   1   3 7.09850 2.70627   2
  10   1  -3 14.2362 2.91037   1
  10   1  -3 10.0711 2.63246   2
  10   1   3 8.33975 2.65530   1
 -10   1  -3 7.37520 3.06053   3
 -10  -1   3 10.7989 2.73042   5
 -10   1  -3 13.9120 2.71676   5
  10  -1  -3 10.1703 2.88495   1
  10   1   3 13.7994 2.78627   2
 -10  -1   3 14.1586 2.97984   1
 -10   1  -3 8.27778 2.54017   2
 -10   1  -3 13.5067 2.85249   1
 -11   1   3 35.3851 3.90961   1
  11   1  -3 40.4579 4.11661   1
  11  -1   3 30.4385 3.74633   1
 -11  -1  -3 35.1209 4.08760   1
 -11   1   3 38.1217 4.13097   5
  11   1   3 46.6109 4.27441   1
 -11  -1   3 41.8954 4.02655   5
 -11   1  -3 40.9024 4.13975   1
 -11  -1   3 33.4223 4.04825   1
 -11   1  -3 34.8432 3.84441   5
  11  -1  -3 44.1423 4.38650   1
  12   1  -3 170.456 7.91266   1
 -12   1   3 166.172 7.86620   1
 -12   1   3 156.214 8.06863   5
 -12  -1  -3 173.818 8.30891   1
  12  -1   3 168.855 7.90945   1
 -12   1  -3 157.780 7.99856   1
 -12   1  -3 157.772 7.73559   5
  12   1   3 160.820 7.89410   1
 -12  -1   3 156.701 8.10923   1
 -12  -1   3 147.607 7.68791   5
 -13   1   3 113.875 7.22784   1
  13   1  -3 93.8483 6.89486   1
 -13   1   3 127.478 7.62608   5
 -13  -1   3 116.653 7.13423   5
 -13   1  -3 126.787 7.16449   5
  13   1   3 114.751 7.13713   1
 -13  -1   3 125.871 7.60635   1
 -13   1  -3 120.392 7.46470   1
  14   1  -3 32.3056 4.53308   1
 -14   1   3 23.1845 4.18988   1
 -14   1   3 27.6262 4.41979   5
  14   1   3 20.5161 4.27800   1
 -14   1  -3 31.2719 4.43466   1
 -14  -1   3 20.3916 3.98428   5
 -14   1  -3 21.6902 4.03150   5
  15   1  -3 16.0503 4.29179   1
 -15   1   3 20.5685 4.37287   5
 -15   1   3 14.8349 3.95505   1
 -15   1  -3 16.7579 4.10311   5
  15   1   3 14.1992 4.27034   1
 -15   1  -3 14.6833 4.09989   1
 -16   1   3 3.63156 3.62357   1
 -16   1   3 -3.5611 3.62852   5
  16   1  -3 5.57587 3.96036   1
  16   1   3 -4.0471 3.73130   1
 -16   1  -3 -3.9253 3.65360   1
  17   1  -3 9.61191 4.03506   1
 -17   1   3 6.57128 4.34415   5
 -17   1   3 3.46543 3.83613   1
  17   1   3 7.23216 4.15354   1
 -17   1  -3 6.02059 4.12477   1
   0   2   3 -1.7970 0.96577   5
   0   2  -3 0.05434 0.87358   2
   0  -2   3 -0.3093 1.69361   3
   0   2  -3 -2.2404 1.30681   5
   0  -2  -3 -2.8282 1.28280   3
   0   2  -3 0.26214 1.72089   4
   0   2   3 -0.2653 1.43489   3
   0   2   3 -3.4324 1.65437   4
  -1   2   3 982.071 31.8985   4
  -1   2   3 996.748 24.9321   5
  -1   2   3 960.820 24.0672   2
  -1  -2  -3 958.161 29.2760   3
  -1   2   3 952.305 28.7276   3
  -1   2   3 990.883 24.1129   2
   1   2  -3 954.101 24.2999   2
   1   2  -3 957.068 31.7055   4
   1  -2  -3 1014.58 28.7855   3
  -1   2  -3 971.771 25.2173   5
   1   2   3 940.217 29.2598   3
  -1   2  -3 947.041 31.7740   4
  -1  -2   3 911.277 29.4885   3
   1   2   3 930.755 31.7408   4
   1   2   3 994.161 24.1295   2
   1   2   3 974.837 24.1153   2
  -1   2  -3 972.756 24.2689   2
  -2   2   3 3053.33 77.5108   2
  -2  -2  -3 3160.80 92.5190   3
   2   2  -3 3156.60 78.6841   1
   2   2  -3 3229.73 99.5962   4
   2   2  -3 3076.34 77.6980   2
   2   2  -3 3106.38 92.6140   3
  -2   2   3 3237.55 99.8413   4
  -2   2   3 3215.72 79.2046   5
   2  -2   3 3107.52 92.3886   3
  -2   2  -3 3218.07 78.6497   1
   2   2   3 3176.36 77.5888   2
   2   2   3 3082.80 92.4626   3
  -2  -2   3 3037.45 92.5942   3
   2   2   3 2998.58 99.5851   4
  -2   2  -3 3239.26 77.6826   2
  -2   2  -3 3161.42 79.2980   5
  -2   2  -3 3037.43 99.7217   4
   3   2  -3 -0.9477 1.15452   1
  -3   2   3 6.80666 1.67686   5
  -3   2   3 0.95071 1.83600   4
   3  -2   3 0.37252 1.51950   3
  -3  -2  -3 1.77838 1.72673   3
   3   2  -3 2.30808 1.86902   3
  -3   2   3 1.70152 1.12221   2
   3   2  -3 2.45676 1.25192   2
  -3   2   3 -0.4269 0.87617   1
   3   2   3 -0.0440 1.39277   4
  -3   2  -3 1.09361 1.76779   4
  -3   2  -3 -0.8483 1.14370   2
  -3   2  -3 3.62917 1.15299   1
   3   2   3 4.22935 1.88387   3
   3   2   3 4.30403 1.13532   1
  -3  -2   3 2.37854 1.80431   3
  -3   2  -3 -0.8768 1.40737   5
   3   2   3 2.40907 1.13297   2
  -4   2   3 270.278 7.91844   2
   4  -2   3 267.241 9.75730   3
  -4   2   3 274.858 8.62130   5
   4   2  -3 269.239 8.10080   2
   4   2  -3 278.615 8.01800   1
   4   2  -3 265.886 10.1023   3
  -4   2   3 280.793 7.76534   1
  -4  -2  -3 266.349 10.1870   3
  -4   2   3 286.052 10.5103   4
   4   2   3 274.543 8.02222   2
  -4   2  -3 281.650 8.02680   2
  -4  -2   3 277.499 10.2167   3
   4   2   3 254.022 10.0696   3
  -4   2  -3 273.288 10.5623   4
  -4   2  -3 276.600 8.55502   5
  -4   2  -3 281.148 7.95320   1
   4   2   3 291.332 7.88382   1
   4   2   3 247.269 9.91100   4
  -5   2   3 282.104 8.36716   2
  -5   2   3 287.018 10.7515   4
  -5   2   3 284.071 8.26767   1
   5  -2   3 280.701 10.0411   3
   5   2  -3 280.902 8.60991   2
  -5   2   3 282.655 9.09032   5
   5   2  -3 290.132 8.49483   1
   5   2  -3 270.453 10.3867   3
  -5  -2  -3 277.779 10.6360   3
  -5   2  -3 288.657 8.42305   1
  -5   2  -3 274.228 10.2500   3
   5   2   3 298.746 8.34025   1
  -5  -2   3 281.804 10.5993   3
  -5   2  -3 278.491 10.7829   4
  -5   2  -3 284.285 8.93559   5
   5   2   3 266.659 10.0724   4
   5   2   3 280.846 8.45809   2
  -5   2  -3 288.233 8.45543   2
   5   2   3 273.103 10.5786   3
   6   2  -3 545.362 15.0301   1
   6   2  -3 535.354 15.1371   2
   6  -2   3 547.120 15.6136   1
   6   2  -3 538.832 15.1486   2
   6   2  -3 542.979 18.1044   3
  -6   2   3 565.385 18.7830   4
   6  -2   3 549.591 17.6830   3
  -6   2   3 549.090 14.8869   1
  -6  -2  -3 527.522 14.2505   5
  -6  -2  -3 536.492 18.2972   3
  -6   2   3 548.530 15.6558   5
  -6   2   3 538.709 14.9269   2
  -6   2  -3 525.669 17.8159   3
  -6   2  -3 539.515 15.4597   5
  -6   2  -3 561.535 15.0066   1
   6   2   3 502.956 17.9952   4
  -6   2  -3 529.965 14.8850   2
   6   2   3 533.367 14.9298   2
  -6  -2   3 549.118 15.3630   1
  -6  -2   3 520.648 18.0897   3
   6   2   3 545.613 14.9015   1
   6   2   3 528.218 18.2531   3
   7  -2   3 464.913 15.4189   3
  -7   2   3 456.856 13.8145   5
  -7   2   3 463.151 13.0748   1
  -7   2   3 476.555 16.2269   4
   7   2  -3 456.922 13.3683   2
   7   2  -3 469.810 13.2556   1
  -7   2   3 457.045 13.1077   2
  -7  -2  -3 439.766 16.0901   3
  -7   2  -3 457.642 13.6326   5
  -7   2  -3 450.684 13.1370   1
  -7   2  -3 442.350 13.0684   2
  -7  -2   3 444.777 15.9106   3
  -7   2  -3 437.393 15.7348   3
   7   2   3 443.661 12.9839   1
   7   2   3 449.594 13.2037   2
  -8   2   3 459.429 13.2773   1
  -8   2   3 459.214 14.0928   5
  -8   2   3 452.772 13.3895   2
   8   2  -3 441.310 13.4276   1
   8   2  -3 465.263 13.5993   2
  -8   2   3 468.001 16.1971   4
   8  -2   3 443.556 15.5190   3
  -8   2  -3 455.475 13.3933   1
  -8   2  -3 446.553 13.3404   2
  -8   2  -3 434.694 16.1098   3
   8   2   3 443.292 13.2806   1
  -8   2  -3 449.617 13.8247   5
   8   2   3 465.508 13.4978   2
   9   2  -3 4.29574 2.17703   1
   9   2  -3 2.25651 2.17632   2
  -9   2   3 3.53975 2.44132   5
  -9   2   3 0.18131 2.12713   1
   9  -2   3 2.53118 2.23173   3
  -9   2   3 8.06325 2.40261   2
  -9   2  -3 1.14266 2.42973   5
  -9   2  -3 1.75804 2.20179   2
  -9   2  -3 1.75212 2.76601   3
   9   2   3 2.17187 2.10913   1
   9   2   3 4.19559 2.20996   2
  -9   2  -3 2.24695 2.20693   1
  10   2  -3 350.919 11.4771   2
  10   2  -3 338.519 11.1651   1
 -10   2   3 329.404 11.0652   1
 -10   2   3 349.304 11.9100   5
 -10   2   3 331.952 11.1944   2
  10   2   3 321.123 11.0335   1
 -10  -2   3 322.865 11.3804   5
  10   2   3 347.786 11.3440   2
 -10   2  -3 337.664 11.5807   5
 -10   2  -3 321.988 11.0424   2
 -10   2  -3 333.306 11.1838   1
 -11   2   3 2.14005 3.01838   5
  11   2  -3 0.06739 2.52818   2
 -11   2   3 -1.1533 2.63292   2
 -11   2   3 0.25420 2.52987   1
  11   2  -3 2.21875 2.53580   1
  11   2   3 -0.8400 2.32798   2
  11   2   3 4.49139 2.73080   1
 -11  -2   3 1.20062 2.59243   5
 -11   2  -3 -0.8799 2.45960   1
 -11   2  -3 3.54360 2.60254   2
 -11   2  -3 1.77696 2.93576   5
  12   2  -3 0.92986 2.79808   1
 -12   2   3 -0.2879 2.64364   1
 -12   2   3 -1.0385 3.14402   5
 -12   2   3 -1.3997 2.91337   2
 -12   2  -3 -0.7221 2.97829   5
  12   2   3 -6.2499 2.44904   1
 -12   2  -3 5.78364 3.01299   1
  13   2  -3 33.6866 4.45684   1
 -13   2   3 29.0256 4.40771   5
 -13   2   3 39.3196 4.21463   1
  13   2   3 27.6862 4.07815   1
 -13   2  -3 33.7526 4.72131   5
 -13   2  -3 33.6094 4.13876   1
 -14   2   3 182.558 8.87310   1
  14   2  -3 197.320 9.25088   1
 -14   2   3 191.241 9.84789   5
 -14   2  -3 176.808 9.45323   5
  14   2   3 202.346 9.18296   1
 -14   2  -3 194.685 9.12121   1
  15   2  -3 111.923 7.56840   1
 -15   2   3 113.060 7.56719   1
 -15   2   3 122.839 8.61344   5
  15   2   3 148.793 8.12096   1
 -15   2  -3 107.924 8.04940   5
 -15   2  -3 128.074 7.83231   1
 -16   2   3 537.168 17.5240   1
 -16   2   3 526.203 18.3405   5
  16   2  -3 516.696 17.7421   1
 -16   2  -3 541.341 17.7256   1
  16   2   3 529.138 17.7411   1
 -16   2  -3 510.370 17.9881   5
   0   3  -3 531.313 13.5604   2
   0   3  -3 516.019 13.5872   2
   0   3   3 531.911 18.8196   4
   0   3  -3 526.881 18.7426   4
   0  -3  -3 538.575 16.8718   3
   0  -3   3 531.563 17.4284   3
   0   3  -3 544.022 14.7331   5
   0   3   3 525.258 14.1427   5
   0   3   3 533.378 16.8322   3
  -1  -3  -3 95.2505 4.65757   3
  -1   3   3 91.9901 4.18368   3
  -1   3   3 99.5522 3.69896   5
   1   3  -3 94.1330 3.09691   2
   1   3  -3 91.4000 5.17796   4
  -1   3   3 90.8028 5.30695   4
   1   3  -3 93.6646 3.14299   2
   1  -3   3 95.2623 5.03462   3
   1   3   3 97.3614 5.31184   4
   1  -3  -3 95.7022 4.21254   3
  -1   3  -3 82.2597 4.08885   5
   1   3   3 95.0874 4.64595   3
  -1   3  -3 88.1149 5.17475   4
  -1   3  -3 95.4574 3.10406   2
  -1   3  -3 89.6201 3.04653   2
   1   3   3 94.5283 3.23763   5
  -1  -3   3 95.0087 5.11325   3
   2   3  -3 9.27308 2.21256   4
  -2   3   3 9.59195 1.57575   5
  -2   3   3 10.4836 2.37370   4
   2   3  -3 9.88912 1.22670   2
  -2  -3  -3 10.9555 2.17565   3
   2   3  -3 9.92659 1.16037   2
   2   3  -3 8.63661 2.11477   3
  -2  -3   3 8.84039 2.17897   3
   2  -3  -3 8.63675 1.42206   3
  -2   3  -3 11.0896 1.82259   5
   2   3   3 9.92853 2.02803   3
  -2   3  -3 12.8267 1.24610   2
   2   3   3 8.14763 2.09957   4
  -2   3  -3 9.10228 2.23454   4
  -2   3  -3 10.0337 1.09058   2
   2   3   3 10.0787 1.05263   2
   2   3   3 9.63324 0.99433   2
   3   3  -3 70.4543 3.06688   2
  -3   3   3 73.7346 2.71560   2
  -3   3   3 66.4542 2.76084   2
   3   3  -3 62.3514 2.84131   2
  -3   3   3 71.9113 4.88085   4
  -3  -3  -3 64.3586 4.56823   3
   3  -3   3 66.4844 4.10208   3
   3   3  -3 69.9662 4.36182   4
  -3   3   3 75.6472 3.65793   5
   3   3  -3 70.8770 4.68140   3
  -3   3  -3 69.1986 4.74715   4
   3   3   3 65.7864 2.68530   2
  -3  -3   3 63.6996 4.62525   3
  -3   3  -3 68.0786 2.75004   2
   3   3   3 65.0594 4.28632   4
  -3   3  -3 70.0034 3.00298   2
  -3   3  -3 71.1084 3.94814   5
   3   3   3 68.5779 2.82365   2
   3   3   3 67.2574 4.53797   3
  -4   3   3 433.556 12.5290   5
   4   3  -3 447.441 15.3826   4
  -4   3   3 439.090 15.7862   4
  -4   3   3 430.943 11.5901   2
   4   3  -3 416.515 14.8634   3
  -4  -3  -3 430.187 14.8847   3
   4  -3   3 420.140 14.2734   3
  -4   3   3 463.807 11.6370   2
   4   3  -3 429.616 11.8708   2
   4   3   3 411.092 11.5099   2
  -4  -3   3 421.544 15.0011   3
   4   3   3 417.863 14.8477   3
  -4   3  -3 407.707 12.5545   5
  -4   3  -3 429.430 11.6947   2
   4   3   3 417.156 11.6437   2
   4   3   3 396.727 15.1572   4
  -4   3  -3 430.400 15.8244   4
  -5   3   3 7.57191 1.62554   2
   5   3  -3 8.14638 1.39577   1
   5   3  -3 6.87713 1.62569   2
  -5   3   3 7.09232 2.00331   5
  -5   3   3 9.35092 2.52833   4
  -5  -3  -3 9.78698 2.46208   3
   5  -3   3 7.76042 1.95990   3
   5   3   3 7.11704 1.51608   2
  -5   3  -3 7.64882 2.42250   4
   5   3   3 9.00943 2.01781   4
  -5   3  -3 8.38914 2.07987   5
  -5   3  -3 10.2326 1.37306   1
  -5   3  -3 8.01832 1.57922   2
  -5  -3   3 6.31156 2.19570   3
   6  -3   3 16.9244 2.48318   3
   6   3  -3 24.7904 2.55426   2
  -6   3   3 20.1287 2.18438   2
   6   3  -3 24.1963 2.47790   2
   6   3  -3 20.1974 1.98262   1
  -6   3   3 24.5018 3.21531   4
  -6   3   3 19.0366 2.68214   5
  -6   3   3 19.7651 1.74031   1
  -6   3  -3 18.0305 2.64864   5
   6   3   3 20.3685 2.48294   4
  -6   3  -3 25.1416 3.27231   4
  -6   3  -3 21.7907 1.93626   1
  -6   3  -3 22.4290 2.24196   2
   6   3   3 23.1354 1.92445   1
   6   3   3 23.3395 2.28081   2
  -7   3   3 -2.9302 2.17685   4
   7   3  -3 1.92042 1.77739   2
  -7   3   3 3.74869 2.24391   5
  -7   3   3 -1.6699 1.72707   2
   7   3  -3 4.73799 1.69361   1
   7  -3   3 -0.3113 1.76705   3
  -7   3   3 1.98706 1.43418   1
  -7   3  -3 2.29902 1.58795   1
  -7   3  -3 0.05375 2.29419   4
   7   3   3 -0.8252 1.47600   1
  -7   3  -3 4.87438 1.92107   2
   7   3   3 -1.1310 1.61343   2
  -7   3  -3 0.64431 2.16112   5
  -8   3   3 603.432 16.8979   1
   8   3  -3 606.589 17.1648   1
   8   3  -3 610.221 17.5483   2
  -8   3   3 617.873 21.8419   4
  -8   3   3 616.072 17.3628   2
  -8   3   3 619.957 18.3233   5
  -8   3  -3 599.543 17.2783   2
  -8   3  -3 634.830 17.1959   1
  -8   3  -3 609.554 18.1767   5
   8   3   3 606.336 16.9947   1
   8   3   3 616.387 17.4004   2
  -9   3   3 96.5636 4.88868   1
   9   3  -3 103.180 5.23985   1
  -9   3   3 98.4863 6.23579   5
  -9   3   3 101.395 6.36599   4
   9   3  -3 93.3611 5.56688   2
  -9   3   3 105.008 5.57273   2
  -9   3  -3 93.0082 6.18123   5
  -9   3  -3 93.2437 5.31552   2
   9   3   3 98.8078 5.00019   1
  -9   3  -3 97.6392 5.20756   1
   9   3   3 93.7062 5.49283   2
 -10   3   3 9.53175 3.22067   5
 -10   3   3 15.3018 2.65525   1
 -10   3   3 13.4089 3.00824   2
  10   3  -3 15.7214 2.92344   2
  10   3  -3 14.3186 2.69596   1
  10   3   3 11.8196 2.61097   1
 -10   3  -3 15.2151 2.67999   1
 -10   3  -3 15.2620 2.94742   2
 -10   3  -3 8.04315 3.13246   5
  10   3   3 14.6379 2.97556   2
 -11   3   3 36.8964 3.53106   1
  11   3  -3 33.4376 3.57050   1
  11   3  -3 27.6003 3.92455   2
 -11   3   3 35.9409 4.52706   5
 -11   3   3 38.8051 4.13860   2
  11   3   3 33.2413 3.86609   2
 -11   3  -3 34.8181 3.58824   1
 -11   3  -3 40.5883 3.99284   2
 -11   3  -3 38.5753 4.50291   5
  11   3   3 37.0703 3.63789   1
  12   3  -3 160.086 8.05023   2
 -12   3   3 147.465 7.81320   2
 -12   3   3 153.933 7.28125   1
 -12   3   3 161.019 8.79375   5
  12   3  -3 158.817 7.58186   1
 -12   3  -3 155.237 8.54009   5
 -12   3  -3 162.608 7.52992   1
  12   3   3 157.112 7.95854   2
  12   3   3 141.679 7.30515   1
 -12   3  -3 155.083 7.65560   2
 -13   3   3 99.8449 7.07188   2
  13   3  -3 90.0048 6.35208   1
 -13   3   3 104.769 7.89027   5
 -13   3   3 92.1862 6.35258   1
  13   3   3 88.8852 6.47633   1
 -13   3  -3 110.801 6.75989   1
  13   3   3 83.7065 6.69595   2
 -13   3  -3 108.832 6.91491   2
 -13   3  -3 89.4445 7.39773   5
  14   3  -3 23.8018 4.02401   1
 -14   3   3 21.1835 3.68255   1
 -14   3   3 27.8150 4.89033   5
  14   3   3 24.2370 4.08001   1
 -14   3  -3 29.2328 4.72897   5
 -14   3  -3 20.5142 3.84881   1
  15   3  -3 9.14819 3.83451   1
 -15   3   3 4.74032 4.17247   5
 -15   3   3 5.79126 3.43848   1
 -15   3  -3 18.9381 4.60987   5
 -15   3  -3 9.67055 3.66952   1
  15   3   3 19.9480 4.04710   1
 -16   3   3 -1.2535 4.18669   5
  16   3  -3 -2.4077 3.56544   1
 -16   3   3 1.99081 3.48355   1
  16   3   3 0.91248 3.59048   1
 -16   3  -3 2.15323 4.07537   5
 -16   3  -3 -0.8878 3.37871   1
   0   4   3 0.87110 1.18388   5
   0   4   3 2.74074 1.60168   3
   0  -4   3 0.52644 1.79199   3
   0   4  -3 0.35023 1.92004   4
   0  -4  -3 -1.0213 1.53972   3
   0   4  -3 -2.4832 1.26770   5
   0   4   3 2.02662 2.14445   4
  -1  -4  -3 3.63801 1.71100   3
  -1   4   3 1.84840 1.55636   3
   1   4  -3 2.79356 0.92636   2
   1   4  -3 1.67357 1.86733   4
  -1   4   3 1.31251 1.18202   5
   1   4  -3 0.94856 0.87913   2
   1  -4   3 1.20700 1.83662   3
  -1   4   3 0.93654 2.05394   4
   1   4   3 0.53095 1.60174   3
   1   4   3 0.73079 1.91600   4
  -1   4  -3 -0.2166 1.89371   4
   1   4   3 1.28393 1.08964   5
  -1  -4   3 1.00753 1.89573   3
   1  -4  -3 0.18200 1.35423   3
  -1   4  -3 -0.6311 1.45869   5
   2   4  -3 41.4342 4.15858   4
  -2   4   3 40.4026 3.00717   5
   2  -4   3 41.7681 3.87434   3
   2   4  -3 37.8604 2.17534   2
  -2  -4  -3 40.6906 3.82689   3
   2   4  -3 45.1254 2.30074   2
  -2   4   3 44.8046 4.36795   4
   2   4   3 35.6460 3.88927   4
  -2   4  -3 43.1856 2.11728   2
   2  -4  -3 42.9270 3.14778   3
  -2   4  -3 43.1604 4.27373   4
  -2   4  -3 41.9733 2.21824   2
   2   4   3 44.8643 3.89940   3
  -2   4  -3 47.2922 3.36114   5
  -2  -4   3 39.9252 3.75506   3
  -3  -4  -3 5.95016 2.25119   3
  -3   4   3 3.35387 1.62704   5
  -3   4   3 8.20078 2.60330   4
   3  -4   3 4.53026 1.88276   3
   3   4  -3 9.20934 1.38065   2
  -3   4   3 6.46294 1.08222   2
  -3   4   3 7.88704 1.16161   2
   3   4  -3 5.48266 2.19641   4
   3  -4   3 6.13066 1.93443   3
  -3   4  -3 5.14272 1.30886   2
   3   4   3 8.86877 1.22548   2
  -3   4  -3 6.16139 1.92100   5
   3   4   3 9.56251 2.38165   4
  -3   4  -3 4.45878 2.27623   4
   3   4   3 4.80875 1.02250   2
  -4   4   3 115.446 6.87430   4
  -4   4   3 120.270 4.32296   2
   4   4  -3 124.292 4.58802   2
   4   4  -3 125.233 6.49180   4
  -4   4   3 111.929 5.28169   5
   4  -4   3 126.813 5.95537   3
  -4   4  -3 124.703 6.98364   4
  -4   4  -3 126.344 4.46771   2
  -4   4  -3 116.604 5.63955   5
   4   4   3 117.490 4.33491   2
   4   4   3 117.398 6.39841   4
   5  -4   3 26.3904 2.89799   3
  -5   4   3 25.6137 2.92524   5
   5   4  -3 27.4480 3.29539   4
   5   4  -3 23.8468 2.28001   2
  -5   4   3 20.6440 3.45482   4
  -5   4   3 29.2739 2.24637   2
  -5   4  -3 23.8473 2.96407   5
  -5   4  -3 25.1036 3.69564   4
  -5   4  -3 28.9151 2.32595   2
   5   4   3 25.2411 2.19202   2
   5   4   3 23.3533 3.06701   4
  -6   4   3 99.9212 5.59309   5
  -6   4   3 104.711 4.49961   2
  -6   4   3 95.3210 6.56818   4
   6   4  -3 96.3463 4.68740   2
   6   4   3 97.5964 5.64270   4
  -6   4  -3 99.8366 4.52890   2
  -6   4  -3 91.4205 5.44392   5
   6   4   3 92.7355 4.40537   2
  -6   4  -3 90.4901 6.47530   4
  -7   4   3 80.4146 6.08766   4
  -7   4   3 76.5217 4.25011   2
  -7   4   3 66.3158 5.42896   5
   7   4  -3 78.7271 4.55626   2
   7   4   3 71.6579 4.31422   2
  -7   4  -3 77.9962 4.35347   2
  -7   4  -3 83.3968 5.52997   5
  -7   4  -3 85.2811 6.24904   4
   8   4  -3 65.6833 3.53218   1
   8   4  -3 67.0691 4.74330   2
  -8   4   3 62.5302 5.97681   4
  -8   4   3 71.0266 5.13017   5
  -8   4   3 65.6784 4.44870   2
  -8   4  -3 67.5566 4.50766   2
   8   4   3 72.2347 4.62492   2
  -8   4  -3 74.7061 6.49124   4
  -8   4  -3 71.3772 5.70501   5
   9   4  -3 0.24898 1.84592   1
   9   4  -3 1.28254 2.18507   2
  -9   4   3 1.14671 2.28908   2
  -9   4   3 2.33169 3.02557   5
  -9   4   3 1.80970 3.09725   4
  -9   4  -3 5.53709 3.27953   4
   9   4   3 0.99557 1.71645   1
  -9   4  -3 2.67620 1.77946   1
  -9   4  -3 1.98695 2.34692   2
   9   4   3 -0.0421 2.12576   2
  -9   4  -3 -3.8204 2.66923   5
 -10   4   3 342.187 12.8881   5
  10   4  -3 352.630 11.0039   1
 -10   4   3 383.058 10.6964   1
 -10   4   3 345.381 11.7688   2
  10   4  -3 343.397 11.9850   2
  10   4   3 347.963 10.6804   1
  10   4   3 347.563 11.8773   2
 -10   4  -3 364.922 10.9233   1
 -10   4  -3 337.754 12.8003   5
 -10   4  -3 348.122 11.7733   2
  11   4  -3 278.580 10.7593   2
 -11   4   3 302.355 9.43912   1
 -11   4   3 276.325 11.5728   5
 -11   4   3 270.903 10.4939   2
  11   4  -3 272.211 9.64172   1
 -11   4  -3 274.739 11.4918   5
 -11   4  -3 276.951 10.3282   2
 -11   4  -3 298.530 9.64882   1
  11   4   3 279.455 9.32394   1
  11   4   3 275.686 10.5659   2
  12   4  -3 177.067 7.80297   1
 -12   4   3 169.937 8.46484   2
 -12   4   3 166.092 9.53304   5
 -12   4   3 195.714 7.67582   1
  12   4  -3 190.572 8.84472   2
 -12   4  -3 187.182 8.43388   2
  12   4   3 186.476 8.66149   2
 -12   4  -3 187.004 9.68118   5
 -12   4  -3 196.508 7.83854   1
  12   4   3 183.767 7.54030   1
 -13   4   3 81.9137 5.90651   1
 -13   4   3 87.4479 6.68192   2
  13   4  -3 80.2207 5.93174   1
 -13   4   3 83.5863 6.81991   5
  13   4  -3 84.3806 6.36123   2
 -13   4  -3 72.2516 5.72857   2
  13   4   3 87.7366 5.89546   1
 -13   4  -3 84.3650 6.00174   1
 -13   4  -3 72.0477 6.50073   5
  13   4   3 91.5701 6.81555   2
 -14   4   3 43.2703 5.06470   2
 -14   4   3 49.9227 5.94587   5
  14   4  -3 49.9512 4.70520   1
 -14   4   3 42.4574 4.37349   1
 -14   4  -3 51.6143 5.37746   2
 -14   4  -3 46.1489 5.79848   5
  14   4   3 45.3177 5.16038   2
 -14   4  -3 46.5426 4.57571   1
  14   4   3 54.5306 4.63409   1
 -15   4   3 0.56201 4.01361   5
 -15   4   3 4.79187 3.17121   1
  15   4  -3 6.61197 3.42155   1
  15   4   3 -1.7872 3.17467   1
 -15   4  -3 -1.5001 4.35284   5
 -15   4  -3 6.82963 3.27129   1
   0   5  -3 280.546 12.3604   4
   0  -5  -3 290.470 11.2633   3
   0   5  -3 288.705 9.38203   5
   0   5   3 283.129 12.4607   4
  -1   5   3 51.1403 5.02803   4
   1   5  -3 49.0768 5.00482   4
  -1  -5  -3 58.9401 4.50917   3
  -1   5   3 57.4733 3.45342   5
  -1   5  -3 53.3171 3.88545   5
  -1   5  -3 45.4670 4.76824   4
   1   5   3 54.4211 5.15847   4
   2  -5   3 19.2017 3.04885   3
  -2   5   3 19.3732 3.54504   4
   2   5  -3 18.3599 1.63024   2
  -2   5   3 17.4299 2.36597   5
   2   5  -3 15.5510 3.24864   4
  -2   5  -3 18.7453 2.63900   5
  -2   5  -3 15.9673 1.55760   2
   2   5   3 18.8091 3.29566   4
  -2   5  -3 14.9916 3.27733   4
  -3   5   3 30.7709 2.97616   5
   3  -5   3 31.8306 3.39813   3
   3   5  -3 32.2555 4.03413   4
  -3   5   3 33.3434 4.42333   4
   3   5  -3 33.8150 2.29590   2
  -3   5  -3 39.7185 2.50836   2
   3   5   3 29.0423 2.29586   2
  -3   5  -3 26.4904 3.07488   5
   3   5   3 32.2992 4.07585   4
  -3   5  -3 34.5103 4.32132   4
  -4   5   3 225.655 11.0181   4
  -4   5   3 232.051 6.99695   2
   4   5  -3 234.568 10.6154   4
  -4   5   3 248.348 8.55731   5
   4   5  -3 226.224 7.31585   2
   4   5   3 227.340 10.4814   4
  -4   5  -3 239.112 7.21286   2
  -4   5  -3 236.788 8.78700   5
  -4   5  -3 227.011 11.0266   4
   4   5   3 228.964 7.07525   2
  -5   5   3 10.2776 1.78014   2
  -5   5   3 8.96696 2.41058   5
  -5   5   3 5.81894 3.02012   4
   5   5  -3 9.11975 1.80910   2
   5   5  -3 8.45689 2.81098   4
   5   5   3 6.38892 2.59958   4
  -5   5  -3 8.39840 2.69300   5
   5   5   3 9.71846 1.76837   2
  -5   5  -3 5.14469 1.71561   2
  -5   5  -3 6.70356 3.22574   4
  -6   5   3 33.4926 3.63858   5
   6   5  -3 30.5432 2.87307   2
   6   5  -3 32.5770 2.85735   2
  -6   5   3 35.5595 4.64455   4
  -6   5   3 33.2464 2.65514   2
  -6   5  -3 32.5878 3.90009   5
   6   5   3 32.6689 3.96197   4
  -6   5  -3 37.4486 4.82311   4
  -6   5  -3 25.4345 2.60689   2
   6   5   3 34.5727 2.77069   2
   7   5  -3 1.05221 1.85014   2
  -7   5   3 3.38895 1.91324   2
  -7   5   3 4.06660 3.24944   4
  -7   5   3 3.49845 2.65492   5
  -7   5  -3 3.83915 2.02112   2
  -7   5  -3 2.98501 2.80397   5
   7   5   3 1.20907 1.74367   2
  -7   5  -3 1.90150 3.09338   4
  -8   5   3 358.149 15.2956   4
  -8   5   3 355.351 12.6995   5
   8   5  -3 350.600 11.4072   2
  -8   5   3 350.341 11.0795   2
   8   5   3 347.447 11.2071   2
  -8   5  -3 340.681 15.4330   4
  -8   5  -3 343.377 11.1997   2
  -8   5  -3 365.455 12.8313   5
  -9   5   3 61.5494 6.23801   4
  -9   5   3 61.8906 5.48026   5
   9   5  -3 67.0630 5.19852   2
  -9   5   3 62.6271 4.87590   2
  -9   5  -3 71.9861 5.07838   2
  -9   5  -3 79.8821 7.28999   4
   9   5   3 63.9450 4.94704   2
  -9   5  -3 66.7839 5.58954   5
 -10   5   3 11.1408 3.03951   2
 -10   5   3 4.16894 3.51403   5
  10   5  -3 10.3008 2.81142   2
 -10   5  -3 3.49644 3.48997   5
  10   5   3 1.90183 2.52875   2
 -10   5  -3 7.01957 2.79174   2
 -11   5   3 18.2659 4.47811   5
 -11   5   3 22.7621 3.65011   2
  11   5  -3 23.9417 3.77230   2
 -11   5  -3 16.9202 3.50284   2
 -11   5  -3 17.9053 4.19452   5
  11   5   3 20.2714 3.57335   2
 -12   5   3 101.205 7.51171   5
  12   5  -3 81.7781 6.61456   2
 -12   5   3 84.6122 6.53696   2
 -12   5  -3 85.6286 7.05273   5
  12   5   3 86.3579 6.61034   2
 -12   5  -3 86.1226 6.51728   2
 -13   5   3 60.3268 5.43545   2
 -13   5   3 63.6415 6.42416   5
  13   5  -3 65.0480 5.76985   2
 -13   5  -3 56.7424 5.33112   2
 -13   5  -3 73.4480 6.70770   5
  13   5   3 71.3659 5.72297   2
  14   5  -3 12.8715 3.92620   2
 -14   5   3 10.3406 4.51224   5
 -14   5   3 17.7906 3.99158   2
 -14   5  -3 6.74492 4.44162   5
  14   5   3 9.88641 3.68362   2
 -14   5  -3 17.6619 4.08940   2
   0   6   3 0.95994 2.64079   4
   0   6  -3 1.52949 2.77175   4
  -1   6   3 275.123 12.8651   4
   1   6  -3 279.331 12.7958   4
  -1   6  -3 269.413 9.67910   5
   1   6   3 274.924 12.7514   4
  -1   6  -3 266.043 12.7489   4
  -2   6   3 943.842 33.9339   4
   2   6  -3 946.792 24.2561   2
   2   6  -3 940.976 33.6736   4
   2   6   3 951.161 33.7110   4
  -2   6  -3 942.571 26.4230   5
  -2   6  -3 929.238 33.8710   4
  -3   6   3 -0.2774 2.22018   5
   3   6  -3 0.29947 2.58871   4
   3   6  -3 0.75387 1.36078   2
  -3   6   3 -2.6160 2.69514   4
  -3   6  -3 -1.5639 2.66438   4
  -3   6  -3 2.75360 1.37370   2
  -3   6  -3 4.07139 2.47340   5
   3   6   3 0.58261 2.58687   4
  -4   6   3 110.484 5.94151   5
   4   6  -3 98.7888 7.20834   4
   4   6  -3 109.429 4.49999   2
  -4   6   3 104.187 7.90568   4
   4   6   3 102.950 4.27625   2
   4   6   3 110.062 7.41488   4
  -4   6  -3 98.5552 6.16838   5
  -4   6  -3 102.802 7.83186   4
  -4   6  -3 99.5199 4.34817   2
  -5   6   3 100.734 6.18180   5
  -5   6   3 107.073 4.49932   2
   5   6  -3 104.788 4.83422   2
  -5   6   3 105.245 8.13490   4
   5   6  -3 100.162 7.34318   4
   5   6   3 107.593 4.64772   2
  -5   6  -3 104.104 6.57618   5
  -5   6  -3 101.808 8.04313   4
   5   6   3 108.453 7.27387   4
  -5   6  -3 113.571 4.73416   2
  -6   6   3 193.341 6.82925   2
   6   6  -3 196.043 7.09476   2
   6   6  -3 196.831 7.19051   2
  -6   6   3 198.515 8.64473   5
  -6   6   3 180.194 10.7372   4
   6   6   3 187.734 6.93444   2
  -6   6  -3 195.645 8.87370   5
  -6   6  -3 189.540 6.89346   2
  -6   6  -3 197.088 11.0015   4
  -7   6   3 185.780 7.03137   2
  -7   6   3 186.736 8.95689   5
   7   6  -3 183.873 7.26670   2
  -7   6   3 191.505 10.8961   4
  -7   6  -3 188.509 10.9397   4
  -7   6  -3 192.278 7.20500   2
  -7   6  -3 185.346 9.03790   5
   7   6   3 189.914 7.10531   2
   8   6  -3 182.747 7.38138   2
  -8   6   3 166.333 10.5377   4
  -8   6   3 176.313 8.88109   5
  -8   6   3 178.608 7.11237   2
  -8   6  -3 184.780 7.26381   2
  -8   6  -3 182.102 9.14410   5
   8   6   3 161.989 7.08668   2
  -8   6  -3 176.271 11.0112   4
   9   6  -3 -0.9174 2.36407   2
  -9   6   3 -0.1619 3.25284   5
  -9   6   3 3.39077 2.62501   2
  -9   6   3 -1.5710 3.64426   4
  -9   6  -3 3.91919 3.59920   5
  -9   6  -3 3.53409 4.01850   4
   9   6   3 4.93689 2.33783   2
  -9   6  -3 6.10855 2.62074   2
 -10   6   3 128.043 6.71765   2
 -10   6   3 129.940 8.54142   5
  10   6  -3 121.615 6.73107   2
  10   6   3 129.224 6.73635   2
 -10   6  -3 134.900 8.79603   5
 -10   6  -3 119.319 6.61102   2
  11   6  -3 -2.7636 2.61859   2
 -11   6   3 6.41425 3.05153   2
 -11   6   3 -6.1788 3.61050   5
 -11   6  -3 -1.2005 3.87867   5
 -11   6  -3 -2.5379 2.64169   2
  11   6   3 2.05312 2.57751   2
 -12   6   3 7.64851 3.19211   2
 -12   6   3 -2.2194 4.09351   5
  12   6  -3 0.87421 3.10820   2
  12   6   3 -0.4471 2.81429   2
 -12   6  -3 1.56188 2.93164   2
 -12   6  -3 0.14775 3.87330   5
   0   7  -3 164.970 9.98127   4
   0   7   3 156.391 9.88426   4
   1   7  -3 30.6370 5.10129   4
  -1   7   3 34.2605 5.38575   4
  -1   7  -3 38.2379 5.47920   4
   1   7   3 38.1790 5.40355   4
   2   7  -3 3.12569 3.23521   4
  -2   7   3 3.75442 3.50359   4
   2   7   3 0.01271 2.81139   4
  -2   7  -3 0.29874 3.21143   4
  -2   7  -3 3.52118 2.61669   5
  -3   7   3 25.5488 4.89213   4
   3   7  -3 26.9326 4.76994   4
   3   7  -3 27.1707 2.31539   2
  -3   7  -3 20.4689 4.62111   4
  -3   7  -3 29.3430 3.91980   5
   3   7   3 22.4048 4.43421   4
   4   7  -3 152.174 5.97418   2
  -4   7   3 156.911 10.2827   4
   4   7  -3 169.300 10.0756   4
  -4   7  -3 161.726 8.31933   5
   4   7   3 161.300 5.63240   2
  -4   7  -3 158.382 10.2557   4
  -4   7  -3 162.212 5.71625   2
   4   7   3 159.517 9.73447   4
  -5   7   3 4.53624 1.86618   2
   5   7  -3 1.07983 1.77088   2
   5   7  -3 4.35974 1.93400   2
  -5   7   3 8.05582 4.15208   4
  -5   7  -3 2.24865 3.06026   5
  -5   7  -3 0.02122 1.68570   2
   5   7   3 3.33225 1.73706   2
  -5   7  -3 -2.6401 3.49555   4
   5   7   3 2.73833 3.24068   4
  -6   7   3 2.53631 3.19293   5
  -6   7   3 6.04008 3.93197   4
  -6   7   3 4.31517 1.95636   2
   6   7  -3 3.10031 2.04435   2
   6   7   3 3.67104 1.95898   2
  -6   7  -3 1.06446 1.94817   2
  -6   7  -3 -1.3215 2.86167   5
  -6   7  -3 3.63602 3.93871   4
   7   7  -3 3.44821 2.18306   2
  -7   7   3 -5.4007 1.96795   2
  -7   7   3 -2.6221 3.74777   4
  -7   7   3 -2.1389 3.13393   5
   7   7   3 3.07068 2.04793   2
  -7   7  -3 4.18146 3.39921   5
  -7   7  -3 -5.5018 3.78740   4
  -7   7  -3 -3.8888 2.07647   2
  -8   7   3 242.353 13.6034   4
  -8   7   3 261.058 11.3757   5
  -8   7   3 251.146 9.01843   2
   8   7  -3 242.931 9.23651   2
   8   7   3 247.916 8.99339   2
  -8   7  -3 270.011 11.6443   5
  -8   7  -3 252.658 9.10358   2
  -8   7  -3 250.436 13.9519   4
  -9   7   3 40.6626 3.82690   2
  -9   7   3 44.5903 5.48835   5
  -9   7   3 41.9446 6.44404   4
   9   7  -3 37.0444 3.84623   2
   9   7   3 32.2721 3.55161   2
  -9   7  -3 40.0766 3.88757   2
  -9   7  -3 40.8719 5.24356   5
 -10   7   3 4.67115 3.83687   5
 -10   7   3 2.99924 4.81433   4
  10   7  -3 5.34584 2.87949   2
 -10   7   3 11.7504 2.94881   2
 -10   7  -3 8.13226 2.97260   2
  10   7   3 14.5437 2.98480   2
 -10   7  -3 3.60656 4.04570   5
   0   8   3 0.97393 3.51486   4
   0   8  -3 4.06330 3.91353   4
   1   8  -3 8.85597 4.14246   4
  -1   8   3 4.93375 3.82939   4
   1   8   3 -0.6019 3.44569   4
  -1   8  -3 -2.5321 3.48450   4
   2   8  -3 0.33182 3.77329   4
  -2   8   3 -4.0687 3.54153   4
   2   8   3 0.54765 3.47273   4
  -2   8  -3 0.88380 3.77431   4
   3   8  -3 0.98031 3.42794   4
  -3   8   3 2.09374 4.05011   4
   3   8   3 5.24063 3.58705   4
  -3   8  -3 7.81795 4.36580   4
   4   8  -3 43.2802 3.12852   2
   4   8  -3 41.5709 5.97833   4
   4   8   3 33.4037 5.61510   4
   5   8  -3 8.95785 2.25913   2
  -5   8  -3 10.9169 2.02210   2
   5   8   3 11.6520 2.21874   2
  -5   8  -3 14.2911 3.90660   5
  -6   8   3 26.9475 2.66420   2
   6   8  -3 32.5663 3.19057   2
   6   8   3 31.4203 2.93021   2
  -6   8  -3 19.0208 2.68012   2
  -6   8  -3 33.1885 4.99015   5
   0   0  -4 234.670 7.95075   3
   1   0   4 58.0144 3.51719   3
  -1   0  -4 60.8264 3.53090   3
  -2   0   4 163.578 5.18366   1
  -2   0   4 159.853 5.03510   2
  -2   0  -4 145.849 6.29153   3
  -2   0   4 166.512 5.60860   3
   2   0   4 148.925 6.27047   3
   2   0   4 155.924 5.10081   1
  -3   0   4 611.837 15.6573   2
   3   0   4 561.222 18.7303   3
   3   0   4 605.378 15.8658   1
   3   0  -4 594.581 15.8796   1
  -3   0   4 589.601 15.8878   1
   3   0  -4 608.746 18.1186   3
  -3   0  -4 572.614 18.8083   3
  -3   0  -4 593.879 15.5348   5
  -3   0  -4 590.652 15.5965   2
  -3   0   4 626.148 18.1312   3
  -3   0  -4 560.105 15.8034   1
  -4   0  -4 40.4748 3.33630   3
   4   0   4 40.6947 3.07209   1
  -4   0  -4 37.7675 2.68029   5
   4   0  -4 38.7004 2.61424   1
   4   0  -4 37.9979 3.02459   2
  -4   0  -4 43.5973 2.91917   2
  -4   0  -4 40.0234 3.05682   1
   4   0  -4 38.7207 3.04779   3
  -4   0   4 41.3852 3.07173   1
   4   0  -4 37.7172 2.96394   2
  -4   0   4 39.3859 3.02976   3
   4   0   4 38.5854 3.15171   3
  -4   0   4 38.4290 2.93355   2
   4   0   4 38.0579 2.92654   2
   5   0   4 303.136 9.17679   1
  -5   0   4 305.222 9.04249   2
  -5   0  -4 300.056 8.77036   5
  -5   0  -4 295.268 8.96963   2
   5   0  -4 305.279 9.03734   2
  -5   0   4 311.688 9.22606   1
  -5   0  -4 287.827 11.0561   3
   5   0  -4 313.339 10.2048   3
  -5   0   4 301.782 10.1750   3
  -5   0  -4 291.161 9.14025   1
   5   0   4 290.256 10.8759   3
  -5   0   4 314.715 10.8961   4
   5   0   4 314.272 9.11948   2
   5   0  -4 309.150 9.26090   1
  -6   0   4 952.802 31.5699   4
  -6   0   4 981.464 29.7818   3
   6   0   4 981.198 26.0316   1
  -6   0   4 973.688 25.6088   2
   6   0   4 946.925 30.4739   3
   6   0  -4 997.073 25.7064   2
  -6   0  -4 950.764 26.0063   1
   6   0   4 964.264 25.6720   2
  -6   0  -4 967.895 25.5802   2
  -6   0  -4 973.712 25.5790   5
  -6   0  -4 968.561 30.6578   3
   6   0  -4 998.334 26.0393   1
   6   0  -4 1021.60 29.8241   3
  -6   0   4 984.436 26.1026   1
   7   0  -4 178.817 6.98203   3
   7   0  -4 174.935 6.39581   2
   7   0  -4 172.686 6.57017   1
  -7   0  -4 168.275 7.94312   3
  -7   0   4 173.934 6.98688   3
  -7   0  -4 180.495 6.61132   1
   7   0   4 177.733 6.48423   2
  -7   0   4 171.087 6.56209   1
   7   0   4 167.172 7.61597   3
  -7   0  -4 169.735 6.35110   2
  -7   0   4 161.025 6.38417   4
  -7   0   4 166.839 6.33123   2
  -7   0  -4 171.581 6.00372   5
   7   0   4 180.794 6.50437   1
  -7   0   4 164.800 6.79273   5
  -8   0  -4 20.3731 2.34514   5
  -8   0   4 20.5324 2.69637   3
   8   0   4 22.5199 2.78409   2
  -8   0  -4 19.1765 2.57690   2
   8   0  -4 19.6052 2.68307   1
  -8   0   4 22.3508 2.89837   5
  -8   0   4 17.9396 2.51680   2
  -8   0  -4 20.4688 2.68746   1
  -8   0   4 19.4938 2.75421   1
   8   0  -4 15.9410 2.46119   2
   8   0   4 22.0681 2.63246   1
  -8   0  -4 19.0244 3.15175   3
   8   0  -4 17.8763 2.56459   3
   9   0  -4 7.79585 2.46605   1
  -9   0   4 5.74738 2.38366   1
  -9   0  -4 3.97150 1.95703   5
  -9   0   4 7.35754 2.50722   5
  -9   0  -4 6.35271 2.88916   3
  -9   0   4 7.94069 2.34361   3
   9   0  -4 6.02342 2.33270   3
   9   0   4 5.41743 2.23754   1
  -9   0  -4 9.11188 2.56720   1
  10   0  -4 14.6815 2.98891   1
 -10   0  -4 6.03358 2.39835   5
  10   0   4 10.9044 2.77978   1
 -10   0   4 12.0161 2.75092   1
 -10   0  -4 11.2747 2.89146   1
 -10   0   4 8.84242 2.63076   3
 -10   0   4 17.0229 3.10945   5
 -11   0   4 3.17268 2.81318   5
 -11   0   4 -0.5586 2.59580   1
 -11   0  -4 -0.3036 2.36320   5
  11   0  -4 -1.2775 2.60378   1
  11   0   4 0.24101 2.57004   1
 -11   0  -4 2.92894 2.86496   1
 -12   0  -4 67.9595 5.27761   1
 -12   0   4 58.5008 4.99126   5
  12   0  -4 59.0432 5.10739   1
 -12   0   4 66.1888 5.28852   1
 -12   0  -4 57.9785 4.51115   5
  12   0   4 70.7376 5.36429   1
  13   0  -4 391.995 14.1837   1
 -13   0   4 415.601 14.4145   1
  13   0   4 414.606 14.3295   1
 -13   0   4 422.594 14.4724   5
 -13   0  -4 426.707 14.4231   1
 -14   0  -4 324.243 12.5561   1
 -14   0   4 309.447 12.3709   5
  14   0  -4 327.562 12.4783   1
 -14   0   4 328.785 12.5095   1
  14   0   4 312.787 12.2801   1
  15   0  -4 83.6792 6.67653   1
 -15   0   4 94.7688 7.37848   1
  15   0   4 93.4403 7.42434   1
 -15   0  -4 83.2007 6.80967   1
 -15   0   4 74.0087 6.15850   5
 -16   0   4 404.202 14.8475   5
  16   0   4 412.608 15.0676   1
  16   0  -4 399.675 14.9830   1
 -16   0   4 380.325 14.6472   1
 -16   0  -4 400.706 15.1566   1
  17   0  -4 147.784 9.51768   1
  17   0   4 147.116 9.39508   1
 -17   0   4 134.528 10.2163   5
 -17   0   4 145.960 9.48367   1
 -17   0  -4 153.273 9.85302   1
   0   1  -4 -2.7731 0.96116   2
   0   1   4 -0.0721 1.71522   4
   0   1  -4 -0.6150 1.20068   1
   0   1   4 0.01341 0.97986   2
   0   1   4 0.27405 1.30802   3
   0  -1  -4 -1.0376 1.26376   3
   0   1   4 -0.9327 1.07111   1
  -1   1   4 81.9282 3.01530   2
   1  -1   4 77.2961 4.25659   3
  -1  -1  -4 78.5976 3.94306   3
   1   1  -4 73.3865 3.19875   1
  -1   1   4 78.0302 3.04399   1
  -1   1   4 79.4117 4.39737   4
   1   1  -4 72.6870 3.06885   2
   1  -1  -4 90.4251 3.26868   3
  -1   1  -4 79.2897 3.10505   2
   1   1   4 82.4594 3.98447   3
   1   1   4 86.7780 4.79703   4
  -1   1  -4 73.2097 3.22000   1
   1   1   4 80.1428 3.08431   1
  -2   1   4 294.617 9.72098   4
   2  -1   4 255.404 8.99043   3
   2   1  -4 240.023 7.21591   2
  -2   1   4 271.519 7.73357   5
  -2  -1  -4 239.169 8.89538   3
  -2   1   4 262.159 7.27069   1
  -2   1   4 247.239 7.13277   2
   2   1  -4 244.798 7.34044   1
  -2   1  -4 262.614 7.22903   2
  -2   1  -4 235.583 7.29552   1
   2   1   4 254.995 7.26815   1
   2   1   4 238.726 8.87208   3
  -2  -1   4 235.029 8.74681   3
  -2   1  -4 248.225 9.09714   3
   2   1   4 256.082 7.20764   2
  -3  -1  -4 1344.03 40.8614   3
   3  -1   4 1399.32 40.8727   3
   3   1  -4 1332.46 34.7106   1
   3   1  -4 1289.09 34.2467   2
  -3   1   4 1350.62 34.1514   2
  -3   1   4 1459.70 43.7864   4
  -3   1   4 1375.28 34.6504   1
   3   1  -4 1353.28 40.6379   3
  -3   1   4 1411.54 35.0575   5
   3   1   4 1343.68 34.2088   2
  -3   1  -4 1321.91 40.7810   3
  -3   1  -4 1366.14 34.2100   2
  -3   1  -4 1305.56 34.6696   1
  -3   1  -4 1342.76 34.7598   5
  -3  -1   4 1303.48 40.5574   3
   3   1   4 1312.82 40.8031   3
   3   1   4 1367.78 34.6263   1
   4   1  -4 757.596 23.4899   3
   4   1  -4 747.221 20.0749   1
   4  -1   4 760.721 23.7177   3
  -4   1   4 822.126 25.1956   4
  -4  -1  -4 742.098 23.8498   3
  -4   1   4 778.978 20.0470   1
  -4   1   4 778.541 20.4755   5
  -4   1   4 750.110 19.7616   2
   4   1  -4 730.325 19.8515   2
   4   1   4 742.458 19.7919   2
  -4  -1   4 728.521 20.1537   1
  -4   1  -4 736.462 23.7338   3
   4   1   4 757.869 20.0130   1
  -4   1  -4 704.743 19.9807   1
  -4   1  -4 762.710 20.1012   5
  -4   1  -4 799.062 19.8464   2
   4   1   4 747.968 23.8340   3
  -4  -1   4 741.605 23.4862   3
  -5   1   4 140.348 5.60542   5
   5  -1   4 137.905 6.25077   3
   5   1  -4 137.933 6.05087   3
  -5   1   4 133.317 5.04974   2
  -5   1   4 145.423 6.02525   4
  -5  -1  -4 129.852 5.18950   1
   5  -1   4 132.846 5.15705   1
   5   1  -4 136.637 5.22726   2
  -5  -1  -4 127.834 6.46626   3
  -5  -1  -4 122.918 4.22854   5
   5   1  -4 134.187 5.22881   1
  -5   1   4 132.746 5.10775   1
  -5   1  -4 133.571 5.15250   5
   5   1   4 134.368 5.04645   2
   5  -1  -4 132.977 5.17524   1
  -5   1  -4 129.388 6.48043   3
   5   1   4 134.505 5.10857   1
  -5   1  -4 143.457 5.07224   2
   5   1   4 132.777 6.42092   3
  -5   1  -4 135.089 5.13744   1
   5   1   4 134.934 5.97127   4
  -5  -1   4 132.759 5.30472   1
  -5  -1   4 138.431 6.08002   3
  -6   1   4 6.35290 1.87230   4
  -6   1   4 6.01874 2.12383   5
  -6  -1  -4 4.76746 1.34974   5
  -6   1   4 3.28654 1.80458   1
  -6  -1  -4 6.23112 1.99258   1
   6   1  -4 5.99611 2.17761   3
  -6  -1  -4 6.62279 2.30397   3
   6   1  -4 1.70298 1.64843   2
  -6   1   4 4.74209 1.72661   2
   6   1  -4 3.63658 1.89237   1
   6  -1   4 6.30203 1.90684   1
   6  -1   4 6.00327 2.21219   3
  -6   1   4 5.46469 1.55120   3
   6   1   4 6.52645 1.82501   2
   6   1   4 6.27228 2.28237   3
  -6   1  -4 4.21309 1.83954   5
   6   1   4 7.74011 1.90537   1
  -6   1  -4 2.24520 1.74011   2
  -6  -1   4 6.63111 2.03240   1
  -6  -1   4 5.23625 2.13447   3
   6  -1  -4 9.34442 2.10743   1
   6  -1  -4 4.65084 1.41265   3
  -6   1  -4 2.86174 2.30374   3
   6   1   4 4.83292 1.56237   4
  -6   1  -4 5.70868 1.84975   1
  -7   1   4 256.559 8.52970   1
  -7   1   4 264.788 8.48893   2
   7   1  -4 262.735 8.56308   2
  -7   1   4 264.559 9.05573   3
   7  -1   4 256.424 10.0018   3
   7   1  -4 272.226 9.92613   3
  -7  -1  -4 250.661 10.4408   3
   7  -1   4 264.558 8.64544   1
   7   1  -4 263.269 8.63046   1
  -7  -1  -4 253.680 7.72103   5
  -7   1   4 268.008 9.69956   4
  -7   1   4 264.745 9.06998   5
  -7  -1  -4 260.466 8.72505   1
   7   1   4 259.155 8.55268   1
  -7   1  -4 250.119 8.37932   2
   7  -1  -4 268.930 8.87949   3
   7  -1  -4 262.101 8.67773   1
  -7   1  -4 249.429 8.52242   1
  -7   1  -4 266.416 8.51474   5
  -7  -1   4 259.609 8.79596   1
  -7   1  -4 259.678 10.4784   3
   7   1   4 249.970 8.43507   2
  -7  -1   4 257.244 9.87245   3
   7   1   4 270.822 10.7613   3
   7   1   4 246.966 9.30625   4
  -8   1   4 853.025 26.6492   3
   8   1  -4 828.910 23.4518   2
  -8   1   4 863.988 24.0577   5
  -8   1   4 881.710 23.3928   2
   8  -1   4 826.992 23.6540   1
  -8  -1  -4 838.128 22.8254   5
  -8  -1  -4 862.086 23.7975   1
  -8  -1  -4 836.755 27.9792   3
   8   1  -4 857.064 27.3994   3
   8  -1   4 865.377 27.5297   3
  -8   1   4 866.441 28.3628   4
   8   1  -4 876.528 23.7272   1
  -8   1   4 859.441 23.6233   1
  -8  -1   4 879.491 27.4915   3
  -8   1  -4 860.645 23.7054   1
   8   1   4 879.772 23.5009   2
  -8  -1   4 854.888 23.8206   1
   8  -1  -4 908.130 26.5855   3
  -8   1  -4 866.607 27.9969   3
  -8   1  -4 854.001 23.2971   2
  -8   1  -4 837.280 23.4911   5
   8  -1  -4 874.249 23.7392   1
   8   1   4 873.403 23.6322   1
  -9  -1  -4 52.8222 3.71100   5
  -9  -1  -4 63.9651 4.85974   1
   9  -1   4 67.1232 4.70360   1
  -9   1   4 57.9587 4.50802   2
   9   1  -4 57.8859 4.63598   1
   9   1  -4 69.2379 4.59392   2
  -9   1   4 53.3416 4.38707   5
  -9   1   4 58.1066 4.62306   1
  -9   1  -4 62.7758 4.42720   2
   9   1   4 57.9864 4.54965   1
  -9   1  -4 62.5331 5.74189   3
   9   1   4 63.4099 4.54418   2
  -9  -1   4 65.1242 5.15077   3
  -9   1  -4 63.9454 4.85937   1
  -9   1  -4 54.7404 4.45616   5
  -9  -1   4 61.9999 4.56981   5
   9  -1  -4 57.8937 4.67508   1
  -9  -1   4 73.0457 5.01499   1
 -10  -1  -4 28.1915 3.59826   1
 -10   1   4 32.4092 3.77753   5
  10   1  -4 34.1619 3.66584   1
 -10   1   4 30.4549 3.46983   1
  10  -1   4 34.6317 3.63645   1
 -10   1   4 28.3936 3.46559   2
 -10   1  -4 31.8357 3.47689   5
 -10  -1   4 29.6690 3.75267   1
 -10   1  -4 30.3388 3.36092   2
 -10   1  -4 31.0027 3.65968   1
 -10  -1   4 29.0425 3.49662   5
  10   1   4 28.3703 3.35410   2
  10  -1  -4 29.9187 3.60773   1
  10   1   4 29.9732 3.56385   1
  11   1  -4 131.665 6.80977   1
 -11   1   4 119.772 7.28200   5
  11  -1   4 129.551 6.84839   1
 -11   1   4 129.139 6.89587   1
 -11  -1  -4 127.604 7.13794   1
 -11   1  -4 134.822 6.62671   5
 -11   1  -4 129.666 7.07740   1
 -11  -1   4 122.979 7.02802   1
 -11  -1   4 125.723 6.91171   5
  11   1   4 139.301 6.85581   1
 -12  -1  -4 42.3402 4.54333   1
  12  -1   4 38.9486 4.33976   1
 -12   1   4 40.0585 4.26643   1
  12   1  -4 29.4304 4.05190   1
 -12   1   4 36.1657 4.40625   5
 -12   1  -4 39.1610 4.19912   5
  12   1   4 39.6356 4.25256   1
 -12  -1   4 40.4048 4.29616   5
 -12  -1   4 40.5247 4.56009   1
 -12   1  -4 43.2795 4.50927   1
  13   1  -4 0.87541 3.07325   1
 -13   1   4 3.75003 3.34432   5
 -13   1   4 3.25971 3.04289   1
 -13  -1   4 7.53569 3.16387   5
  13   1   4 -2.7630 3.08738   1
 -13   1  -4 3.93761 3.36942   1
 -13  -1   4 0.50908 3.13582   1
 -13   1  -4 1.85805 3.19510   5
  14   1  -4 1.29968 3.34726   1
 -14   1   4 3.39730 3.38315   1
 -14   1   4 10.7415 3.62263   5
 -14  -1   4 6.28353 3.69571   1
 -14   1  -4 2.50011 3.36739   1
 -14   1  -4 0.21195 3.16052   5
  14   1   4 5.70132 3.46880   1
 -14  -1   4 4.42893 3.33690   5
  15   1  -4 15.3799 4.20768   1
 -15   1   4 15.9545 4.05999   1
 -15   1   4 12.0739 4.23400   5
  15   1   4 11.7337 4.06894   1
 -15   1  -4 16.6931 4.16883   1
 -16   1   4 259.083 11.2508   1
 -16   1   4 257.355 11.5417   5
  16   1  -4 250.975 11.4538   1
 -16   1  -4 225.893 11.2028   1
  16   1   4 250.780 11.2454   1
 -17   1   4 13.5462 4.36468   1
 -17   1   4 18.5575 4.62058   5
  17   1  -4 15.0292 4.58298   1
  17   1   4 17.8127 4.66142   1
 -17   1  -4 6.09334 4.03417   1
   0   2   4 707.261 18.0426   5
   0   2  -4 695.366 17.7998   2
   0   2   4 692.558 17.6335   2
   0   2   4 670.410 21.2090   3
   0  -2  -4 711.530 21.2773   3
   0   2   4 715.006 17.6064   2
   0   2  -4 707.355 18.6101   5
   0   2  -4 660.059 17.8396   1
   0   2   4 695.742 23.6160   4
  -1  -2  -4 639.523 20.2875   3
  -1   2   4 652.250 19.7079   3
   1   2  -4 645.819 16.8331   2
  -1   2   4 645.161 22.2893   4
  -1   2   4 646.127 16.5905   2
  -1   2   4 677.189 17.2586   5
  -1   2   4 672.343 16.7355   2
   1   2  -4 618.735 16.8548   1
   1   2   4 626.385 22.1526   4
  -1   2  -4 654.108 16.8644   1
   1  -2  -4 696.687 19.7851   3
   1   2   4 639.941 20.3020   3
   1   2   4 684.380 16.6687   2
  -1   2  -4 650.221 17.5785   5
  -1   2  -4 658.413 16.7997   2
  -1  -2   4 642.787 20.6668   3
   2  -2   4 938.609 29.6206   3
  -2   2   4 999.202 32.1099   4
   2   2  -4 922.753 24.5954   2
   2   2  -4 951.453 24.7718   1
  -2  -2  -4 945.474 29.5759   3
  -2   2   4 1022.74 25.3156   5
  -2   2   4 950.978 24.3973   2
   2   2   4 979.316 24.4604   2
  -2   2  -4 977.780 24.5642   2
   2   2   4 947.404 29.5769   3
   2   2   4 949.800 31.8796   4
  -2   2  -4 1001.16 24.7868   1
  -2  -2   4 950.330 29.7753   3
  -2   2  -4 967.918 25.3983   5
   3   2  -4 40.8259 2.62469   1
  -3   2   4 41.8329 3.76262   4
   3   2  -4 38.0483 3.21020   3
  -3   2   4 40.2629 2.18646   1
  -3  -2  -4 36.4780 3.08998   3
  -3   2   4 36.1491 2.39791   2
   3   2  -4 31.5739 2.58407   2
  -3   2   4 40.0966 3.10612   5
   3  -2   4 35.6108 2.92817   3
   3   2   4 42.2294 2.41575   1
   3   2   4 40.7798 3.33236   4
   3   2   4 41.0538 3.30123   3
  -3   2  -4 36.2740 2.70295   5
  -3  -2   4 33.0997 3.10874   3
  -3   2  -4 32.8349 2.57847   2
  -3   2  -4 39.6408 2.50234   1
   3   2   4 38.6300 2.45008   2
   4   2  -4 498.481 16.9894   3
   4   2  -4 539.298 14.0747   1
   4   2  -4 499.640 14.0630   2
  -4   2   4 527.926 14.6728   5
   4  -2   4 514.686 16.8951   3
  -4  -2  -4 514.558 17.1527   3
  -4   2   4 551.211 18.1605   4
  -4   2   4 503.929 13.8365   2
  -4   2   4 545.397 13.8534   1
  -4  -2   4 491.212 16.9972   3
   4   2   4 513.216 13.9149   2
   4   2   4 486.318 17.6714   4
  -4   2  -4 507.579 14.4927   5
  -4   2  -4 522.662 13.9631   2
   4   2   4 523.111 13.8651   1
   4   2   4 491.880 17.0304   3
  -4   2  -4 518.958 14.0222   1
  -4   2  -4 514.775 16.9977   3
  -5   2   4 43.6674 3.87159   4
   5  -2   4 38.3800 3.28306   3
  -5   2   4 46.9226 3.09662   2
   5   2  -4 43.2403 4.07699   3
   5   2  -4 48.7084 3.17046   1
  -5   2   4 44.7714 3.29029   5
   5   2  -4 47.4874 3.26052   2
  -5  -2  -4 42.9293 4.14776   3
  -5   2   4 44.1933 2.95645   1
  -5   2  -4 40.5421 3.06074   2
  -5  -2   4 43.8161 4.16409   3
   5   2   4 48.1873 2.95286   1
  -5   2  -4 50.3685 3.59658   5
   5   2   4 42.4019 3.67284   3
  -5   2  -4 35.9862 3.34008   3
   5   2   4 45.4276 3.07990   2
   5   2   4 43.1973 3.20890   4
  -5   2  -4 46.4771 3.05448   1
   6   2  -4 942.429 30.4204   3
   6   2  -4 986.582 25.6740   2
   6  -2   4 955.962 30.1464   3
   6   2  -4 965.969 25.6902   1
   6   2  -4 965.637 25.6306   2
  -6   2   4 963.697 25.3746   2
  -6   2   4 1008.58 32.2231   4
  -6   2   4 978.651 25.5517   1
  -6  -2  -4 906.175 30.5601   3
  -6   2   4 988.942 26.3727   5
   6  -2   4 976.846 25.7821   1
   6   2   4 961.019 25.5163   1
  -6   2  -4 959.035 25.4216   2
   6   2   4 923.522 31.5762   4
  -6   2  -4 979.549 26.0876   5
  -6  -2   4 970.882 26.0231   1
  -6   2  -4 989.201 25.7229   1
  -6  -2   4 965.520 30.5630   3
  -6   2  -4 956.443 30.3829   3
   6   2   4 966.276 25.4454   2
  -7   2   4 383.825 11.8535   5
   7  -2   4 385.846 13.2455   3
  -7   2   4 362.238 10.9861   1
   7   2  -4 378.780 11.3492   2
   7   2  -4 363.999 11.1780   1
  -7   2   4 363.178 11.1273   2
  -7   2   4 379.349 13.6595   4
  -7  -2  -4 358.110 13.7441   3
  -7   2  -4 360.583 13.5857   3
   7   2   4 356.683 11.1279   2
   7   2   4 367.836 10.9924   1
  -7   2  -4 361.514 11.5314   5
  -7   2  -4 378.974 11.1838   1
  -7  -2   4 365.554 13.4522   3
  -7   2  -4 362.251 11.0839   2
   8   2  -4 -2.6549 1.87197   1
  -8   2   4 3.35678 2.39181   5
   8  -2   4 5.29116 2.21315   3
  -8   2   4 1.93901 1.92522   1
  -8   2   4 6.08839 2.15246   2
   8   2  -4 0.33613 1.90763   2
  -8   2   4 5.27586 2.22991   4
   8   2   4 1.27160 1.95196   1
  -8   2  -4 0.62043 1.98201   2
   8   2   4 1.57391 1.87386   2
  -8   2  -4 4.02884 2.23522   5
  -8   2  -4 1.16194 1.93564   1
  -8   2  -4 5.58591 2.68602   3
   9   2  -4 864.691 24.2312   2
   9   2  -4 873.023 24.2087   1
  -9   2   4 898.980 24.0490   2
  -9   2   4 857.515 24.7697   5
  -9   2   4 862.426 23.9644   1
   9   2   4 870.324 24.0378   1
  -9   2  -4 896.183 24.2250   1
  -9   2  -4 840.686 28.7940   3
  -9   2  -4 869.084 23.9690   2
  -9   2  -4 890.940 24.5615   5
   9   2   4 883.250 24.0415   2
 -10   2   4 414.224 13.6882   5
  10   2  -4 404.509 13.1027   2
  10   2  -4 402.566 12.9787   1
 -10   2   4 411.495 13.0003   2
 -10   2   4 390.493 12.7162   1
  10   2   4 414.595 13.0697   2
 -10   2  -4 411.990 13.3918   5
 -10   2  -4 408.409 12.9749   1
  10   2   4 397.985 12.7475   1
 -10   2  -4 406.007 12.8970   2
  11   2  -4 13.0203 3.27720   2
 -11   2   4 16.1536 3.57952   5
 -11   2   4 18.2203 3.35119   2
 -11   2   4 13.4110 3.02665   1
  11   2  -4 16.3191 3.14589   1
 -11   2  -4 16.7765 3.44539   5
  11   2   4 18.0149 3.20532   2
 -11   2  -4 13.7729 3.03575   1
 -11   2  -4 16.8165 3.15839   2
 -11  -2   4 15.3067 3.30986   5
  11   2   4 17.4554 3.13761   1
 -12   2   4 968.508 27.2723   1
 -12   2   4 959.208 28.0378   5
 -12   2   4 990.131 27.4973   2
  12   2  -4 960.358 27.4429   1
 -12   2  -4 969.052 27.4284   1
 -12  -2   4 990.431 27.6653   5
 -12   2  -4 972.618 27.7817   5
  12   2   4 951.429 27.3070   1
 -13   2   4 479.000 16.4985   5
 -13   2   4 478.774 15.5292   1
  13   2  -4 476.975 15.8158   1
 -13   2  -4 487.569 15.7653   1
 -13   2  -4 470.854 15.9498   5
  13   2   4 484.884 15.5945   1
 -14   2   4 0.61021 3.52085   5
 -14   2   4 4.64798 3.19001   1
  14   2  -4 4.81076 3.69107   1
 -14   2  -4 5.26997 3.33917   1
  14   2   4 -0.8607 3.15240   1
 -14   2  -4 -1.4351 3.40356   5
 -15   2   4 20.8921 4.11729   1
 -15   2   4 19.2115 4.55757   5
  15   2  -4 12.3000 3.94273   1
  15   2   4 18.5519 4.16170   1
 -15   2  -4 24.3074 4.41626   1
 -15   2  -4 18.5333 4.28339   5
  16   2  -4 -0.2885 3.49516   1
 -16   2   4 4.81168 4.06511   5
 -16   2   4 6.74904 3.66874   1
 -16   2  -4 4.10333 3.78775   1
 -16   2  -4 1.96060 3.97697   5
  16   2   4 2.02390 3.87926   1
   0   3   4 0.21156 0.92876   5
   0   3  -4 -0.5186 0.87172   2
   0   3  -4 0.29246 1.35812   5
   0   3   4 -2.5205 1.65323   4
   0   3  -4 0.46598 0.88957   2
   0   3   4 -0.8264 1.38299   3
   0  -3   4 0.93350 1.72277   3
   0  -3  -4 -1.1489 1.31702   3
   0   3  -4 -0.7602 1.79774   4
  -1  -3  -4 46.5910 3.52580   3
  -1   3   4 48.7975 2.65226   5
   1  -3   4 44.7255 3.95170   3
   1   3  -4 45.7168 2.26720   2
  -1   3   4 42.5721 3.98942   4
  -1   3   4 46.9504 2.92105   3
   1   3  -4 49.2921 2.33538   2
   1   3  -4 43.1398 3.93156   4
   1   3   4 47.3093 2.10878   5
   1   3   4 46.8770 1.98165   2
  -1   3  -4 41.6616 4.03561   4
  -1  -3   4 48.3819 3.93762   3
  -1   3  -4 41.9219 3.17368   5
  -1   3  -4 43.7532 2.17630   2
   1  -3  -4 53.2239 3.05866   3
  -1   3  -4 43.4314 2.29020   2
   1   3   4 41.1902 3.42129   3
   1   3   4 45.8515 3.89294   4
  -2   3   4 124.770 6.42731   4
  -2  -3  -4 122.620 5.74626   3
   2   3  -4 117.451 4.03052   2
  -2   3   4 115.703 4.54803   3
   2   3  -4 115.496 5.96962   4
  -2   3   4 109.673 3.71268   2
   2   3  -4 119.772 4.06463   2
  -2   3   4 125.094 4.53598   5
  -2   3   4 120.331 3.74213   2
   2  -3  -4 121.165 4.63006   3
   2   3   4 117.284 5.63443   3
  -2   3  -4 116.650 4.00964   2
  -2  -3   4 115.557 6.01677   3
  -2   3  -4 121.564 4.98733   5
   2   3   4 122.435 6.07248   4
   2   3   4 117.378 3.72775   2
  -2   3  -4 116.089 6.21423   4
   2   3   4 117.738 3.81655   2
  -2   3  -4 115.871 3.92118   2
  -3   3   4 886.771 23.1251   2
   3   3  -4 877.413 28.6044   3
  -3   3   4 928.837 24.2357   5
  -3   3   4 956.333 23.1938   2
   3  -3   4 902.717 28.3201   3
   3   3  -4 909.307 23.4227   2
  -3   3   4 915.512 30.7946   4
  -3  -3  -4 927.357 28.6019   3
   3   3   4 916.265 23.2151   2
   3   3   4 883.686 28.4518   3
  -3   3  -4 901.357 23.2915   2
   3   3   4 890.975 23.1038   2
   3   3   4 856.115 30.3871   4
  -3   3  -4 926.995 24.4470   5
  -3   3  -4 931.551 23.3653   2
  -3  -3   4 886.697 28.7053   3
  -3   3  -4 906.403 30.8170   4
  -4   3   4 582.841 14.6979   2
  -4   3   4 555.244 19.5874   4
  -4   3   4 558.927 15.5493   5
  -4  -3  -4 548.218 18.3606   3
  -4   3   4 548.436 14.5589   2
   4  -3   4 536.296 17.9213   3
   4   3  -4 554.042 14.8884   2
   4   3  -4 533.209 14.3913   1
  -4   3  -4 569.615 14.7579   2
   4   3   4 509.365 19.0643   4
   4   3   4 546.693 14.6480   2
  -4  -3   4 535.115 18.4421   3
  -4   3  -4 534.991 19.6210   4
  -4   3  -4 542.917 15.6415   5
   4   3   4 526.973 18.2551   3
  -5   3   4 105.311 5.02106   5
   5   3  -4 101.865 4.58941   2
   5  -3   4 104.222 5.53955   3
  -5   3   4 104.927 6.20095   4
  -5   3   4 109.213 4.36230   2
   5   3  -4 103.153 4.01156   1
  -5  -3  -4 108.381 6.16667   3
  -5  -3   4 116.675 6.27618   3
  -5   3  -4 104.524 5.15178   5
   5   3   4 110.433 3.79658   1
   5   3   4 108.481 4.44316   2
  -5   3  -4 111.606 4.01909   1
   5   3   4 100.081 5.39680   4
  -5   3  -4 112.860 4.50510   2
  -5   3  -4 114.457 6.29644   4
  -6   3   4 4.49424 1.71837   2
  -6   3   4 10.8544 1.43868   1
   6   3  -4 9.85376 1.96654   2
  -6   3   4 10.7407 2.44965   5
  -6   3   4 7.05789 2.53942   4
   6  -3   4 8.31921 2.14977   3
   6   3  -4 15.5936 1.87153   1
   6   3   4 10.0667 1.65720   1
   6   3   4 7.86348 1.81567   2
   6   3   4 11.0245 2.12207   4
  -6   3  -4 7.28264 1.86629   2
  -6   3  -4 12.2199 1.74656   1
  -6   3  -4 9.33136 2.25764   5
  -7   3   4 209.359 8.04390   5
   7  -3   4 201.389 8.40720   3
   7   3  -4 207.699 7.41106   2
  -7   3   4 196.652 6.52074   1
  -7   3   4 217.907 9.28798   4
   7   3  -4 193.647 6.86885   1
  -7   3   4 184.308 7.09367   2
   7   3  -4 203.934 7.45656   2
   7   3   4 195.696 6.67752   1
  -7   3  -4 210.329 7.25844   2
  -7   3  -4 205.222 6.92091   1
   7   3   4 190.792 7.11398   2
  -7   3  -4 199.556 7.91012   5
  -8   3   4 749.146 25.4836   4
  -8   3   4 730.844 21.1113   5
  -8   3   4 720.808 19.7365   1
   8   3  -4 716.868 20.3765   2
  -8   3   4 739.135 20.1150   2
   8   3  -4 731.553 20.1108   1
   8   3   4 702.289 20.1417   2
  -8   3  -4 697.692 20.0711   2
   8   3   4 738.277 19.8397   1
  -8   3  -4 722.550 20.9685   5
  -8   3  -4 729.486 19.9605   1
  -9   3   4 47.6237 4.02372   2
  -9   3   4 52.3776 4.07493   1
   9   3  -4 47.5387 3.74880   1
  -9   3   4 57.3601 4.68934   5
   9   3  -4 54.1830 4.26580   2
  -9   3   4 52.6051 5.09648   4
   9   3   4 45.3464 3.81125   2
  -9   3  -4 52.1882 4.56681   5
   9   3   4 51.1180 3.57078   1
  -9   3  -4 46.7676 3.66730   1
  -9   3  -4 57.7315 4.52996   2
 -10   3   4 12.9881 3.06868   2
  10   3  -4 16.8383 3.21112   2
 -10   3   4 22.0696 3.71820   5
  10   3  -4 18.6242 3.04281   1
 -10   3   4 19.8389 2.83318   1
 -10   3  -4 14.3263 2.75051   1
  10   3   4 19.7498 2.84628   1
 -10   3  -4 16.7319 3.08960   2
 -10   3  -4 14.6052 3.44446   5
  10   3   4 19.0372 3.09613   2
 -11   3   4 113.676 5.96787   1
 -11   3   4 96.4359 7.18612   5
  11   3  -4 98.2663 6.41626   2
  11   3  -4 113.902 6.17513   1
 -11   3   4 106.578 6.46005   2
  11   3   4 99.1653 5.92635   1
  11   3   4 114.614 6.42018   2
 -11   3  -4 98.2291 6.19058   2
 -11   3  -4 103.882 6.15192   1
 -11   3  -4 92.6364 6.99762   5
  12   3  -4 46.1990 4.71095   2
 -12   3   4 41.2215 4.46935   2
  12   3  -4 45.0079 4.26084   1
 -12   3   4 42.9748 5.01767   5
 -12   3   4 34.3753 3.77419   1
  12   3   4 43.0479 4.16492   1
  12   3   4 34.8357 4.18642   2
 -12   3  -4 44.7525 4.44298   2
 -12   3  -4 35.7907 4.78834   5
 -12   3  -4 34.4187 3.94459   1
 -13   3   4 -1.0086 2.68503   1
  13   3  -4 -1.8149 2.78157   1
 -13   3   4 2.61730 3.42823   2
 -13   3   4 -6.1271 3.30395   5
  13   3   4 2.59795 3.12436   1
 -13   3  -4 4.71637 3.14113   2
 -13   3  -4 -2.1522 2.90085   1
 -13   3  -4 3.79288 3.65765   5
  14   3  -4 0.79352 3.23068   1
 -14   3   4 -0.0583 2.95184   1
 -14   3   4 2.57897 3.80488   5
 -14   3  -4 8.22721 3.42263   1
 -14   3  -4 4.84441 3.92934   5
  14   3   4 5.86359 3.45888   1
 -15   3   4 0.32800 3.91272   5
  15   3  -4 12.3977 3.79827   1
 -15   3   4 12.0260 3.62975   1
  15   3   4 8.91123 3.92244   1
 -15   3  -4 13.7131 3.96544   1
 -15   3  -4 10.3676 4.31347   5
 -16   3   4 220.399 10.0549   1
  16   3  -4 222.868 10.3622   1
 -16   3   4 221.244 11.7270   5
 -16   3  -4 224.491 11.1799   5
 -16   3  -4 235.418 10.5151   1
  16   3   4 248.699 10.7002   1
   0   4  -4 126.930 6.75943   4
   0   4   4 114.376 4.30055   5
   0   4  -4 115.860 4.98000   5
   0  -4   4 118.143 6.40785   3
   0   4  -4 116.689 3.89920   2
   0   4   4 125.909 6.84966   4
   0   4  -4 117.987 3.93784   2
   0   4   4 119.837 5.49593   3
   0  -4  -4 123.369 5.66392   3
  -1   4   4 28.2306 2.24304   5
   1   4  -4 22.6896 1.65039   2
   1  -4   4 31.8592 3.35722   3
  -1  -4  -4 24.0262 2.77771   3
  -1   4   4 24.9596 2.41067   3
   1   4  -4 24.2103 1.95415   2
   1   4  -4 22.0968 3.27358   4
  -1   4   4 26.5131 3.58603   4
  -1  -4   4 31.0698 3.33072   3
   1   4   4 27.7939 3.57240   4
  -1   4  -4 22.0128 2.43149   5
   1   4   4 21.2080 1.68556   5
   1  -4  -4 26.8933 2.49567   3
  -1   4  -4 24.8781 1.67504   2
  -1   4  -4 26.7079 3.53763   4
   1   4   4 24.8238 2.71950   3
  -1   4  -4 24.9660 1.88954   2
   2  -4   4 64.6645 4.66449   3
  -2   4   4 65.5509 3.50751   5
   2   4  -4 64.5338 4.89663   4
   2   4  -4 60.7613 2.87373   2
  -2  -4  -4 62.6910 4.52262   3
  -2   4   4 67.3680 5.14133   4
   2  -4  -4 61.9488 3.59022   3
   2   4   4 64.4126 2.57289   2
   2   4   4 60.1276 4.75548   4
  -2  -4   4 53.4838 4.83484   3
  -2   4  -4 60.3788 2.80478   2
   2   4   4 62.2887 4.41052   3
  -2   4  -4 62.2753 3.98722   5
  -2   4  -4 58.1601 4.96050   4
  -3   4   4 272.648 11.5120   4
  -3   4   4 282.904 7.63574   2
  -3   4   4 270.578 8.69285   5
  -3   4   4 265.326 7.57459   2
   3   4  -4 263.944 7.93216   2
   3   4  -4 267.693 11.2358   4
   3  -4   4 272.492 10.4012   3
  -3  -4  -4 275.740 10.6302   3
   3  -4   4 250.962 10.2810   3
  -3   4  -4 266.810 11.5119   4
   3   4   4 274.375 7.66480   2
  -3   4  -4 265.142 9.07500   5
  -3   4  -4 277.475 7.87390   2
   3   4   4 257.492 11.0719   4
   4   4  -4 17.6047 2.91887   4
  -4   4   4 13.0147 1.67858   2
  -4   4   4 17.5779 2.42288   5
   4   4  -4 17.2256 1.90757   2
  -4   4   4 17.3904 3.32329   4
   4  -4   4 14.5969 2.55505   3
   4   4   4 15.7433 2.74609   4
   4   4   4 13.6367 1.62423   2
  -4   4  -4 16.9389 1.82299   2
  -4   4  -4 14.8266 2.45399   5
  -4   4  -4 14.4524 3.04833   4
  -5   4   4 152.834 6.48204   5
   5   4  -4 149.910 5.69951   2
  -5   4   4 152.473 8.18519   4
  -5   4   4 155.636 5.48353   2
   5  -4   4 163.410 7.29250   3
   5   4   4 151.529 5.45889   2
   5   4   4 147.245 7.44527   4
  -5   4  -4 155.736 5.59580   2
  -5   4  -4 153.986 8.27453   4
  -5   4  -4 158.442 6.82346   5
   6   4  -4 483.677 14.2094   2
  -6   4   4 498.648 15.1044   5
  -6   4   4 516.525 18.8536   4
  -6   4   4 497.122 13.8765   2
   6   4   4 478.834 17.8581   4
  -6   4  -4 502.708 18.9417   4
   6   4   4 490.554 13.9490   2
  -6   4  -4 479.957 15.1382   5
  -6   4  -4 485.566 13.9526   2
   7   4  -4 103.639 5.32642   2
  -7   4   4 110.380 7.07461   4
  -7   4   4 110.708 6.21183   5
   7   4  -4 100.258 5.28254   2
  -7   4   4 110.116 5.07291   2
  -7   4  -4 102.527 6.05831   5
   7   4   4 103.013 5.02149   2
  -7   4  -4 102.630 5.04855   2
  -7   4  -4 105.933 7.13306   4
   8   4  -4 11.5521 2.47145   2
   8   4  -4 14.9291 2.08511   1
  -8   4   4 7.67983 2.93201   5
  -8   4   4 11.4473 2.43302   2
  -8   4   4 13.1324 3.42466   4
   8   4   4 11.6111 2.43387   2
  -8   4  -4 11.9309 2.47657   2
  -8   4  -4 7.55354 2.71298   5
   9   4  -4 -0.4181 2.14516   2
  -9   4   4 0.05534 2.32168   2
  -9   4   4 -2.4750 2.81966   5
  -9   4   4 0.71276 2.94642   4
   9   4  -4 3.57963 2.01039   1
  -9   4  -4 1.86073 2.34950   2
   9   4   4 2.54429 2.17967   2
  -9   4  -4 1.47121 1.82775   1
   9   4   4 0.87527 1.75033   1
  -9   4  -4 -0.6091 2.81897   5
 -10   4   4 10.3226 2.15002   1
 -10   4   4 9.19215 2.89785   2
 -10   4   4 7.04809 3.34255   5
  10   4  -4 8.50973 2.76410   2
  10   4  -4 8.03689 2.40163   1
 -10   4  -4 6.16467 2.74083   2
  10   4   4 9.60534 2.25526   1
 -10   4  -4 9.38252 2.42935   1
  10   4   4 4.06700 2.52163   2
 -10   4  -4 6.87729 3.42823   5
 -11   4   4 0.44759 3.44950   5
 -11   4   4 2.41548 2.87592   2
  11   4  -4 -0.7874 2.40914   1
  11   4  -4 -1.5589 2.42742   2
 -11   4   4 0.52993 2.17050   1
  11   4   4 2.80777 2.33165   1
 -11   4  -4 -1.4308 3.23625   5
  11   4   4 -1.9803 2.58025   2
 -11   4  -4 2.58519 2.86556   2
 -11   4  -4 4.45659 2.46273   1
  12   4  -4 66.0133 5.64041   2
 -12   4   4 51.4087 4.12308   1
 -12   4   4 46.8574 4.84635   2
  12   4  -4 52.8220 4.41339   1
 -12   4   4 56.0143 5.65211   5
  12   4   4 58.5193 4.97179   2
 -12   4  -4 66.5798 5.24576   1
 -12   4  -4 47.5373 4.65015   2
  12   4   4 60.0251 4.27457   1
 -12   4  -4 58.6954 5.88461   5
 -13   4   4 296.636 10.5468   1
  13   4  -4 309.438 12.0206   2
 -13   4   4 298.389 12.7400   5
  13   4  -4 303.666 10.9313   1
 -13   4   4 294.777 11.6137   2
 -13   4  -4 301.206 10.8585   1
 -13   4  -4 290.703 11.4480   2
  13   4   4 299.407 10.5986   1
  13   4   4 289.963 11.6194   2
 -13   4  -4 293.696 12.5315   5
 -14   4   4 235.775 9.33106   1
 -14   4   4 242.652 10.4575   2
 -14   4   4 218.886 11.3599   5
  14   4  -4 220.310 9.51581   1
 -14   4  -4 227.242 11.2758   5
 -14   4  -4 238.156 9.62029   1
  14   4   4 221.295 9.19113   1
  14   4   4 231.540 10.7960   2
 -14   4  -4 224.689 10.2702   2
 -15   4   4 66.8249 6.77956   5
  15   4  -4 63.2594 5.48629   1
 -15   4   4 59.0846 5.07185   1
 -15   4  -4 61.8597 5.26164   1
 -15   4  -4 68.9804 6.84508   5
  15   4   4 58.4677 5.06783   1
   0   5  -4 -0.7693 0.98246   2
   0   5   4 -2.1475 2.19426   4
   0   5  -4 1.93956 2.48280   4
  -1  -5  -4 32.7346 3.56647   3
  -1   5   4 32.2678 4.21022   4
   1   5  -4 31.0374 2.27397   2
  -1   5   4 26.7931 2.53705   5
   1   5  -4 34.6618 4.12171   4
  -1   5  -4 31.1398 4.13189   4
  -1   5  -4 26.8791 2.14942   2
  -1   5  -4 33.1341 3.16868   5
   1   5   4 29.8702 3.99145   4
  -2   5   4 117.187 5.09993   5
  -2   5   4 118.986 7.28011   4
   2   5  -4 121.126 7.21866   4
   2   5  -4 120.649 4.28725   2
  -2   5  -4 115.060 7.29478   4
  -2   5  -4 112.468 4.14565   2
   2   5   4 113.888 7.10451   4
  -2   5  -4 115.989 5.64853   5
   3   5  -4 512.284 13.9805   2
   3   5  -4 521.851 19.6340   4
  -3   5   4 533.061 15.1948   5
  -3   5   4 501.872 19.7365   4
  -3   5  -4 511.380 13.8487   2
  -3   5  -4 510.578 15.5733   5
  -3   5  -4 496.261 19.7127   4
   3   5   4 512.118 19.4654   4
   3   5   4 517.799 13.6775   2
   4   5  -4 311.744 13.1534   4
   4   5  -4 306.645 9.33146   2
  -4   5   4 302.865 13.4697   4
  -4   5   4 304.716 8.87956   2
  -4   5   4 326.512 10.4464   5
  -4   5  -4 301.296 10.6912   5
   4   5   4 311.363 8.98656   2
   4   5   4 304.107 12.9676   4
  -4   5  -4 321.030 9.21633   2
  -4   5  -4 299.004 13.4956   4
  -5   5   4 48.4308 5.18768   4
  -5   5   4 52.1799 3.35320   2
   5   5  -4 44.6537 3.42154   2
  -5   5   4 51.0488 4.11741   5
   5   5   4 46.7808 4.67338   4
  -5   5  -4 52.1492 5.45219   4
  -5   5  -4 47.5060 3.42015   2
  -5   5  -4 47.5379 4.15897   5
   5   5   4 46.9308 3.29960   2
  -6   5   4 0.81692 1.70724   2
   6   5  -4 2.83867 1.85954   2
  -6   5   4 4.10683 2.51122   5
  -6   5   4 7.18026 3.27212   4
   6   5   4 3.27763 2.47648   4
  -6   5  -4 -3.7480 2.76848   4
   6   5   4 3.09771 1.73246   2
  -6   5  -4 1.26298 1.76870   2
  -6   5  -4 -1.1629 2.38333   5
  -7   5   4 130.449 7.00746   5
  -7   5   4 130.330 5.62721   2
   7   5  -4 126.567 5.98092   2
   7   5  -4 124.389 5.96284   2
  -7   5   4 136.351 8.57275   4
   7   5   4 132.917 5.70875   2
  -7   5  -4 133.060 7.48740   5
  -7   5  -4 132.995 5.79759   2
  -7   5  -4 145.175 8.83730   4
   8   5  -4 402.804 12.8867   2
  -8   5   4 418.981 17.2785   4
  -8   5   4 436.027 14.2933   5
  -8   5   4 400.552 12.5790   2
   8   5   4 401.369 12.6358   2
  -8   5  -4 409.527 17.3815   4
  -8   5  -4 402.739 12.7064   2
  -8   5  -4 427.251 14.3986   5
   9   5  -4 28.2135 3.38760   2
  -9   5   4 32.2238 3.37306   2
  -9   5   4 30.7166 4.40563   5
  -9   5   4 26.5094 4.77934   4
  -9   5  -4 36.2135 3.62611   2
  -9   5  -4 33.2586 4.50393   5
   9   5   4 33.4247 3.47924   2
  10   5  -4 23.1866 3.55119   2
 -10   5   4 23.5838 3.61001   2
 -10   5   4 22.5212 4.49448   5
 -10   5  -4 21.0050 3.39781   2
  10   5   4 22.9353 3.46659   2
 -10   5  -4 26.1684 4.52292   5
 -11   5   4 64.8461 5.13533   2
 -11   5   4 78.2544 6.53489   5
  11   5  -4 82.2745 6.16883   2
  11   5   4 73.2687 5.88955   2
 -11   5  -4 71.1535 6.44144   5
 -11   5  -4 76.1072 5.88751   2
  12   5  -4 18.6968 3.78104   2
 -12   5   4 16.9828 3.78034   2
 -12   5   4 14.0014 4.38923   5
 -12   5  -4 8.13141 4.37244   5
  12   5   4 11.7064 3.37829   2
 -12   5  -4 19.5921 3.71340   2
 -13   5   4 -0.6116 3.38269   2
  13   5  -4 -0.9915 3.09573   2
 -13   5   4 -3.0576 3.91185   5
 -13   5  -4 -1.9864 4.03671   5
 -13   5  -4 -2.9979 3.13035   2
  13   5   4 -0.2450 3.07169   2
  14   5  -4 5.70711 3.58861   2
 -14   5   4 3.91966 4.08655   5
 -14   5   4 7.61898 3.62701   2
 -14   5  -4 2.49713 3.63263   2
  14   5   4 1.48600 3.43407   2
 -14   5  -4 8.79712 4.58002   5
   0   6   4 238.562 11.5860   4
   0   6  -4 220.681 6.79172   2
   0   6  -4 228.900 11.4489   4
   1   6  -4 188.879 5.91861   2
  -1   6   4 194.462 10.3462   4
   1   6  -4 193.494 10.2005   4
   1   6   4 199.200 10.3142   4
  -1   6  -4 184.909 10.1941   4
  -1   6  -4 172.873 7.64962   5
  -2   6   4 303.018 13.9836   4
   2   6  -4 321.630 13.9403   4
   2   6  -4 307.012 8.84379   2
  -2   6  -4 301.883 10.8089   5
  -2   6  -4 305.741 14.0017   4
  -2   6  -4 297.675 8.70801   2
   2   6   4 298.666 13.7192   4
   3   6  -4 15.2108 1.91398   2
  -3   6   4 20.2350 4.13024   4
   3   6  -4 20.8694 4.00811   4
  -3   6  -4 23.4323 3.43301   5
  -3   6  -4 15.8357 1.89198   2
  -3   6  -4 14.8779 3.87445   4
   3   6   4 17.3550 3.74334   4
  -4   6   4 178.797 5.83875   2
  -4   6   4 187.735 7.70638   5
  -4   6   4 164.998 10.0223   4
   4   6  -4 174.753 9.61423   4
   4   6  -4 171.508 6.23740   2
   4   6   4 174.774 5.91243   2
   4   6   4 175.604 9.59304   4
  -4   6  -4 160.623 9.88679   4
  -4   6  -4 173.803 6.04662   2
  -4   6  -4 176.879 8.01595   5
  -5   6   4 18.6932 3.13810   5
  -5   6   4 17.6006 2.14430   2
   5   6  -4 18.1343 2.37540   2
  -5   6   4 21.0571 4.32390   4
  -5   6  -4 15.3750 3.31213   5
   5   6   4 14.0910 3.57683   4
  -5   6  -4 15.8930 2.28674   2
   5   6   4 19.7310 2.21967   2
  -5   6  -4 18.8096 4.44315   4
  -6   6   4 348.715 12.0402   5
  -6   6   4 324.515 9.91049   2
  -6   6   4 329.810 15.0826   4
   6   6  -4 315.504 10.3339   2
  -6   6  -4 331.857 12.2274   5
   6   6   4 311.437 10.0158   2
  -6   6  -4 309.464 15.0982   4
  -6   6  -4 327.263 10.2288   2
  -7   6   4 162.387 9.92721   4
  -7   6   4 154.995 8.00220   5
   7   6  -4 146.833 6.55337   2
  -7   6   4 148.001 6.21082   2
   7   6   4 144.882 6.18638   2
  -7   6  -4 147.709 8.09461   5
  -7   6  -4 146.792 9.83890   4
  -7   6  -4 141.997 6.32573   2
  -8   6   4 0.28593 3.17086   5
  -8   6   4 5.80519 2.43767   2
  -8   6   4 0.36822 3.69107   4
   8   6  -4 1.41969 2.14710   2
  -8   6  -4 -4.6120 3.08197   5
   8   6   4 -3.0867 1.87618   2
  -8   6  -4 1.22475 2.29539   2
  -9   6   4 380.306 16.9064   4
  -9   6   4 361.368 12.0005   2
  -9   6   4 376.684 14.0362   5
   9   6  -4 378.549 12.4078   2
  -9   6  -4 392.784 14.2745   5
  -9   6  -4 361.246 12.2096   2
   9   6   4 352.711 12.0598   2
  10   6  -4 183.814 8.23612   2
 -10   6   4 186.596 9.78787   5
 -10   6   4 171.727 7.89999   2
 -10   6  -4 179.490 8.06276   2
  10   6   4 172.927 7.77227   2
 -10   6  -4 177.234 9.75876   5
 -11   6   4 17.2289 4.44887   5
  11   6  -4 2.78958 2.82367   2
 -11   6   4 5.69195 3.14077   2
 -11   6  -4 5.45870 2.99181   2
 -11   6  -4 13.7120 4.53962   5
  11   6   4 8.90591 2.99456   2
 -12   6   4 473.389 15.7864   2
 -12   6   4 487.026 17.8341   5
  12   6  -4 502.516 16.2742   2
 -12   6  -4 475.847 17.8641   5
 -12   6  -4 474.343 15.9437   2
  12   6   4 496.416 16.0033   2
   0   7  -4 -1.1148 3.07015   4
   0   7   4 2.74393 3.34021   4
  -1   7   4 20.7195 4.57949   4
   1   7  -4 16.8927 4.26571   4
  -1   7  -4 16.1711 4.28279   4
   1   7   4 15.0821 4.11257   4
   2   7  -4 33.3507 5.20692   4
  -2   7   4 43.4391 5.94075   4
   2   7  -4 29.9881 2.33807   2
  -2   7  -4 36.5347 5.62741   4
   2   7   4 25.9720 4.95034   4
  -2   7  -4 32.6166 3.97962   5
  -3   7   4 319.827 15.1740   4
   3   7  -4 303.225 14.6590   4
   3   7  -4 306.356 9.44744   2
  -3   7  -4 299.444 14.9848   4
  -3   7  -4 324.465 11.8401   5
   3   7   4 320.913 14.7544   4
  -3   7  -4 306.775 9.17156   2
   4   7  -4 200.872 6.96801   2
  -4   7   4 197.631 11.5550   4
   4   7   4 182.264 10.8073   4
   4   7   4 203.181 6.54152   2
  -4   7  -4 187.407 11.5504   4
  -4   7  -4 194.225 6.61815   2
  -4   7  -4 208.090 9.34620   5
  -5   7   4 44.0624 6.08719   4
  -5   7   4 38.6715 2.82294   2
   5   7  -4 36.1275 3.14915   2
  -5   7  -4 53.5346 5.34535   5
  -5   7  -4 46.4025 3.53397   2
   5   7   4 43.7686 3.47295   2
  -5   7  -4 41.7820 6.19657   4
   5   7   4 44.1770 5.94191   4
  -6   7   4 2.31435 3.83008   4
   6   7  -4 7.41164 2.24356   2
  -6   7   4 10.2517 2.14914   2
  -6   7  -4 5.96691 3.44006   5
  -6   7  -4 6.77044 2.12377   2
  -6   7  -4 8.69976 4.34341   4
   6   7   4 3.51607 1.96782   2
  -7   7   4 79.7581 7.83248   4
   7   7  -4 78.6336 5.12466   2
  -7   7   4 77.3476 4.76857   2
  -7   7   4 93.1552 7.00956   5
  -7   7  -4 75.1374 6.35793   5
   7   7   4 73.8786 4.73750   2
  -7   7  -4 77.7472 4.87824   2
  -7   7  -4 75.8725 7.83703   4
  -8   7   4 317.630 10.5824   2
  -8   7   4 316.441 12.8386   5
   8   7  -4 300.448 10.8004   2
  -8   7   4 327.486 15.9421   4
   8   7   4 301.135 10.5312   2
  -8   7  -4 335.500 13.2050   5
  -8   7  -4 322.706 10.7416   2
  -9   7   4 21.9194 5.12245   4
  -9   7   4 17.5569 3.08671   2
  -9   7   4 22.9465 4.76894   5
   9   7  -4 22.6213 3.32996   2
  -9   7  -4 22.1480 4.75998   5
  -9   7  -4 14.3205 3.19954   2
   9   7   4 18.2197 3.06537   2
 -10   7   4 1.22462 2.83576   2
 -10   7   4 6.20428 4.04445   5
  10   7  -4 6.36473 2.88953   2
 -10   7  -4 4.11787 4.00740   5
 -10   7  -4 3.65963 3.08400   2
  10   7   4 7.19477 2.86355   2
   0   8  -4 41.0096 6.23380   4
   0   8   4 47.3754 6.34941   4
  -1   8   4 8.37384 4.19134   4
   1   8  -4 7.30940 3.99154   4
  -1   8  -4 3.73475 3.96184   4
   1   8   4 5.22050 4.01059   4
   2   8  -4 13.8744 4.45802   4
  -2   8   4 4.46783 4.06486   4
  -2   8  -4 8.43088 4.36431   4
   2   8   4 14.4769 4.31860   4
  -3   8   4 76.6993 8.19873   4
   3   8  -4 77.7758 4.25821   2
   3   8   4 83.7613 7.90759   4
  -3   8  -4 82.2785 8.40287   4
   4   8  -4 5.50406 1.94621   2
   4   8   4 -1.9807 3.25791   4
  -4   8  -4 0.62700 3.32854   5
  -4   8  -4 1.76347 1.64112   2
   5   8  -4 52.2955 4.22843   2
  -5   8  -4 55.5399 5.88519   5
   5   8   4 48.4364 3.34935   2
  -5   8  -4 47.2090 3.64086   2
   6   8  -4 131.122 6.30840   2
  -6   8   4 133.219 5.75995   2
   6   8   4 148.902 5.97267   2
  -6   8  -4 147.780 9.00556   5
  -6   8  -4 127.198 5.81660   2
   0   0  -5 -1.5079 1.58016   3
   0   0   5 0.09071 1.54185   3
   0   0   5 -0.6272 1.33411   1
   0   0   5 0.05263 1.27162   2
   1   0   5 234.871 6.91343   1
   1   0   5 228.823 8.33689   3
  -1   0   5 241.983 6.92700   1
  -1   0  -5 213.314 8.17245   3
  -2   0  -5 157.410 6.81790   3
  -2   0  -5 178.520 5.36086   5
  -2   0  -5 171.722 5.62823   1
   2   0   5 170.216 5.55682   1
   2   0  -5 177.754 5.64013   1
  -2   0   5 180.920 5.65821   1
   2   0   5 168.892 6.89599   3
  -3   0   5 1000.45 25.4545   1
  -3   0   5 993.574 29.1751   3
   3   0   5 963.679 25.0942   2
  -3   0  -5 926.339 29.9191   3
  -3   0  -5 985.433 25.0522   2
  -3   0   5 1000.79 25.0665   2
   3   0   5 953.216 25.3673   1
   3   0  -5 1014.02 25.1060   2
  -3   0  -5 937.858 25.3478   1
  -3   0  -5 973.929 25.0594   5
   3   0  -5 964.609 25.3925   1
   3   0   5 942.623 29.9032   3
  -4   0  -5 152.327 5.26506   2
  -4   0   5 155.419 5.73321   3
   4   0  -5 145.925 5.27899   2
   4   0  -5 151.146 5.48138   1
   4   0   5 145.007 6.65379   3
   4   0   5 141.818 5.30966   2
   4   0  -5 152.837 5.79169   3
  -4   0  -5 143.686 5.35472   1
  -4   0   5 157.878 5.47812   1
   4   0   5 142.785 5.37850   1
  -4   0  -5 149.957 5.00183   5
  -4   0  -5 144.250 6.73897   3
  -4   0   5 151.210 5.34636   2
   5   0  -5 1148.26 33.8346   3
  -5   0  -5 1080.89 29.4812   1
  -5   0  -5 1067.52 34.7213   3
   5   0   5 1102.04 29.4564   1
  -5   0   5 1137.86 33.8160   3
  -5   0  -5 1132.17 29.0701   5
  -5   0   5 1161.87 29.1049   2
   5   0  -5 1162.26 29.1728   2
  -5   0  -5 1111.55 29.0342   2
   5   0  -5 1111.49 29.4920   1
   5   0  -5 1147.25 29.1272   2
   5   0   5 1130.01 29.1280   2
   5   0   5 1090.65 34.6485   3
  -5   0   5 1129.09 29.5645   1
  -6   0   5 3.32462 1.84212   2
  -6   0   5 3.48371 1.75022   4
   6   0   5 3.46161 2.09420   3
  -6   0  -5 3.93606 1.87759   1
   6   0   5 4.15620 1.73266   2
   6   0  -5 2.26914 1.64550   3
  -6   0   5 2.13051 1.80009   1
  -6   0   5 3.78065 1.73185   3
  -6   0  -5 4.13956 2.28155   3
  -6   0  -5 3.93047 1.56681   5
   6   0  -5 1.71219 1.90728   1
   6   0  -5 2.27720 1.63102   2
  -6   0  -5 1.43661 1.67644   2
   6   0   5 3.87902 1.85771   1
   7   0  -5 81.3152 4.24706   2
  -7   0  -5 73.2363 4.26219   2
   7   0   5 79.2391 5.30796   3
  -7   0   5 79.9186 4.94099   5
   7   0   5 78.7004 4.27671   2
  -7   0  -5 80.1591 4.55872   1
  -7   0  -5 69.9164 5.55255   3
  -7   0   5 68.5107 3.96353   4
  -7   0   5 73.2002 4.31462   2
   7   0  -5 73.3623 4.51324   1
  -7   0   5 82.7645 4.60312   1
   7   0   5 71.2074 4.35217   1
  -7   0   5 70.7997 4.43455   3
   7   0  -5 82.6830 4.45013   3
  -7   0  -5 82.8639 3.98700   5
  -8   0   5 70.5401 4.47214   2
  -8   0  -5 65.0977 5.63927   3
  -8   0  -5 73.7997 4.02034   5
  -8   0  -5 70.4349 4.36066   2
   8   0  -5 71.5896 4.61085   1
   8   0  -5 75.4329 4.66962   3
  -8   0   5 66.7729 4.86212   5
  -8   0   5 76.9011 4.65000   3
  -8   0  -5 69.8519 4.62948   1
   8   0   5 68.4015 4.60042   1
   8   0   5 67.3312 4.39030   2
  -8   0   5 72.7596 4.68340   1
  -9   0   5 154.113 7.24407   3
  -9   0  -5 161.367 6.33676   5
   9   0  -5 166.221 7.35813   3
  -9   0  -5 158.684 7.00398   1
   9   0   5 168.902 7.09043   1
   9   0  -5 156.475 6.92501   1
  -9   0   5 165.978 7.32622   5
  -9   0   5 164.856 7.05788   1
 -10   0  -5 17.4561 3.14296   1
 -10   0   5 21.3924 3.34002   5
 -10   0  -5 22.4192 2.95568   5
  10   0   5 24.8315 3.37080   1
 -10   0   5 17.6959 3.15123   1
  10   0  -5 17.6679 3.16212   1
 -11   0  -5 357.027 11.6307   5
  11   0  -5 351.592 12.4289   1
  11   0   5 381.202 12.5293   1
 -11   0   5 352.423 12.5640   5
 -11   0   5 352.436 12.3486   1
 -11   0  -5 372.794 12.5744   1
 -12   0   5 145.316 7.79541   5
 -12   0   5 143.123 7.73766   1
 -12   0  -5 154.331 7.94406   1
  12   0   5 136.250 7.57925   1
  12   0  -5 154.034 7.76091   1
  13   0   5 682.897 21.0868   1
 -13   0   5 696.544 21.2287   1
 -13   0  -5 717.597 21.3842   1
  13   0  -5 689.907 21.1620   1
 -13   0   5 677.961 21.1738   5
  14   0  -5 15.1986 4.01470   1
  14   0   5 19.4077 4.21705   1
 -14   0   5 15.1903 3.98762   5
 -14   0   5 24.1592 4.34789   1
 -14   0  -5 20.1844 4.31876   1
  15   0  -5 26.2780 4.75539   1
 -15   0   5 22.1198 4.49229   1
 -15   0   5 27.0744 4.49567   5
  15   0   5 24.0484 4.65581   1
 -15   0  -5 24.0390 4.80604   1
 -16   0  -5 4.71036 4.04293   1
  16   0  -5 6.74198 4.05989   1
 -16   0   5 0.22543 3.69360   5
 -16   0   5 13.7401 4.06943   1
  16   0   5 6.99301 3.98264   1
  17   0  -5 166.369 9.88406   1
 -17   0   5 147.999 9.52442   5
 -17   0  -5 164.877 10.0826   1
 -17   0   5 149.304 9.47588   1
  17   0   5 163.746 9.71844   1
   0  -1  -5 1358.29 39.2733   3
   0   1  -5 1338.69 33.2934   2
   0   1   5 1326.71 33.1944   2
   0   1   5 1315.96 39.3247   3
   0   1  -5 1254.06 33.7717   1
   0   1   5 1323.91 33.6754   1
  -1   1   5 37.4266 3.47972   4
  -1   1   5 35.6033 2.43437   1
   1   1  -5 31.8195 2.39496   2
  -1   1   5 32.7368 2.63943   3
   1  -1   5 29.9003 2.69646   3
  -1  -1  -5 31.2110 2.56505   3
  -1   1   5 34.0272 2.35659   2
   1   1  -5 32.3233 2.56028   1
  -1   1  -5 34.0886 2.57805   1
   1   1   5 35.4353 2.71363   3
  -1   1  -5 33.9102 2.45422   2
   1  -1  -5 38.0680 2.45651   3
   1   1   5 30.1256 2.44596   1
  -1   1  -5 36.7974 2.84378   5
   1   1   5 34.0748 2.36040   2
  -2   1   5 8.14910 1.40945   2
  -2   1   5 2.06967 1.35735   1
   2  -1   5 5.71101 1.96800   3
  -2  -1  -5 6.46690 1.87634   3
   2   1  -5 5.47228 1.47370   1
   2   1  -5 5.53649 1.42486   2
  -2   1   5 1.92950 2.05590   4
  -2   1  -5 4.66342 1.46286   2
   2   1   5 3.61627 1.34935   2
  -2   1  -5 5.09042 1.58267   5
   2   1   5 5.25289 1.51613   1
   2   1   5 5.07589 1.94255   3
  -2  -1   5 4.15179 1.83451   3
  -2   1  -5 4.78024 2.01918   3
  -2   1  -5 6.73443 1.59146   1
  -3   1   5 892.369 27.6768   4
   3  -1   5 848.985 25.9111   3
  -3  -1  -5 785.884 25.7143   3
  -3   1   5 841.025 21.4202   2
  -3   1   5 848.521 21.7249   1
   3   1  -5 808.894 21.7803   1
   3   1  -5 797.056 21.5023   2
   3   1   5 830.252 21.6873   1
  -3   1  -5 812.232 25.8367   3
  -3   1  -5 836.420 21.4757   2
  -3   1  -5 804.267 21.7340   1
   3   1   5 823.968 25.7966   3
   3   1   5 830.164 21.4837   2
  -3   1  -5 815.451 21.7791   5
  -3  -1   5 830.449 25.5023   3
   4   1  -5 27.3070 2.29824   1
  -4  -1  -5 26.9966 2.89182   3
   4  -1   5 27.0863 2.91826   3
  -4   1   5 25.6691 2.57256   5
  -4   1   5 28.8091 2.23903   2
   4  -1   5 22.8400 2.25467   1
   4   1  -5 27.6840 2.30824   2
  -4   1   5 29.8165 2.85476   4
  -4   1   5 31.4825 2.33724   1
   4   1  -5 27.2248 2.66874   3
  -4  -1  -5 26.1009 2.45590   1
   4   1   5 22.7659 2.12550   2
  -4   1  -5 25.5778 2.18902   2
  -4  -1   5 25.5544 2.40506   1
  -4   1  -5 23.7554 2.24708   5
   4   1   5 25.3408 2.16405   1
  -4   1  -5 20.7431 2.73121   3
  -4   1  -5 25.9308 2.22418   1
  -4  -1   5 24.0481 2.59475   3
   4   1   5 27.5678 2.89560   3
  -5  -1  -5 1.26326 1.12637   5
  -5  -1  -5 3.29596 2.00390   3
   5   1  -5 5.26021 1.67604   2
  -5   1   5 1.68619 1.90246   4
  -5   1   5 3.98649 1.93715   5
   5   1  -5 1.91017 1.69207   1
   5  -1   5 -0.5396 1.88388   3
   5   1  -5 2.99042 1.88363   3
   5  -1   5 2.79520 1.73310   1
  -5   1   5 1.46426 1.60831   2
  -5   1   5 0.48530 1.63961   1
  -5  -1  -5 -0.5371 1.61121   1
  -5   1  -5 1.15324 1.57660   5
  -5   1  -5 2.19103 1.62119   2
   5   1   5 3.27292 1.95248   3
  -5  -1   5 1.47887 1.74901   1
   5   1   5 4.73617 1.63044   2
   5  -1  -5 3.18817 1.75246   1
  -5   1  -5 -2.3802 1.90098   3
  -5  -1   5 1.84323 1.86250   3
  -5   1  -5 -0.8712 1.54266   1
   5   1   5 2.28444 1.62063   1
  -6   1   5 -2.0264 1.86975   5
  -6  -1  -5 1.31208 1.22457   5
  -6   1   5 -1.5371 1.68504   2
  -6   1   5 -1.8050 1.64764   1
  -6  -1  -5 -0.8777 1.97145   3
   6   1  -5 -2.7094 1.71694   1
   6   1  -5 1.17519 1.88640   3
   6  -1   5 -0.1052 1.71754   1
   6   1  -5 -1.0888 1.70879   2
  -6  -1  -5 -1.6238 1.70499   1
   6   1  -5 1.25121 1.71007   2
  -6   1   5 -0.5651 1.33658   3
  -6   1   5 2.27241 1.90468   4
   6  -1   5 -0.3114 1.92004   3
   6   1   5 -2.3564 1.54163   2
  -6  -1   5 1.49144 1.85701   1
   6   1   5 -1.2470 1.68382   1
  -6   1  -5 2.23061 2.21381   3
  -6  -1   5 0.79913 1.72768   2
  -6   1  -5 -1.5200 1.64984   2
  -6   1  -5 -1.9202 1.62955   5
  -6  -1   5 -1.4345 1.96731   3
  -6   1  -5 -1.1857 1.68500   1
   6  -1  -5 -1.9306 1.76961   1
   6   1   5 0.47303 2.02724   3
   6  -1  -5 0.12389 1.23465   3
  -7   1   5 154.154 6.58440   5
  -7  -1  -5 146.207 6.14209   1
   7  -1   5 148.189 6.10483   1
  -7   1   5 149.362 6.51101   4
   7   1  -5 151.903 6.01050   2
  -7  -1  -5 144.736 5.07364   5
   7   1  -5 150.346 6.18419   1
   7  -1   5 147.427 7.15898   3
  -7   1   5 151.998 5.86686   3
   7   1  -5 155.272 6.88291   3
  -7  -1  -5 141.889 7.42304   3
  -7   1   5 141.254 5.98512   1
  -7   1   5 147.412 5.98425   2
  -7  -1   5 156.217 6.21136   1
  -7  -1   5 146.453 6.81702   3
   7   1   5 147.998 6.52878   4
  -7   1  -5 146.672 7.45322   3
   7  -1  -5 158.276 5.78415   3
   7   1   5 146.129 5.92154   2
   7   1   5 143.567 5.90151   1
  -7   1  -5 143.663 5.86428   5
  -7   1  -5 145.569 5.91624   2
   7  -1  -5 149.593 6.16051   1
  -7   1  -5 150.914 6.03389   1
   8   1  -5 86.7509 5.33356   3
  -8   1   5 81.3725 5.35813   5
   8  -1   5 88.3636 4.93656   1
  -8   1   5 85.2428 4.84946   2
   8   1  -5 91.1608 4.85193   2
  -8   1   5 89.8570 5.03441   1
  -8   1   5 82.2988 4.68183   4
   8   1  -5 85.1113 5.00644   1
  -8  -1  -5 88.8649 5.06318   1
  -8   1   5 87.1754 4.65720   3
  -8  -1  -5 76.7092 3.90424   5
   8  -1  -5 87.7861 5.10400   1
  -8   1  -5 88.9132 4.80383   2
   8   1   5 87.1392 4.77982   2
  -8  -1   5 89.6278 5.43718   3
  -8   1  -5 86.2295 4.79147   5
  -8   1  -5 89.3540 6.33841   3
   8   1   5 83.7074 4.81896   1
  -8  -1   5 82.1320 5.11899   1
  -8   1  -5 86.3755 4.98640   1
  -9   1   5 344.912 11.3495   2
  -9   1   5 337.617 11.8677   5
   9   1  -5 344.573 11.5016   1
  -9  -1  -5 360.966 11.7003   1
   9   1  -5 360.202 11.5726   2
  -9   1   5 350.904 11.4686   1
   9  -1   5 359.321 11.5084   1
  -9   1  -5 349.377 11.2942   5
  -9   1  -5 360.043 11.5928   1
   9  -1  -5 358.250 11.6378   1
   9   1   5 346.150 11.3748   2
   9   1   5 354.466 11.4107   1
  -9  -1   5 359.706 11.7714   1
  -9  -1   5 357.990 13.1651   3
  -9   1  -5 343.225 11.2965   2
  10  -1   5 39.8517 3.91757   1
 -10   1   5 26.8857 3.65971   5
 -10   1   5 39.2307 3.82353   1
 -10   1   5 40.2219 3.85201   2
 -10  -1  -5 39.2593 4.03081   1
  10   1  -5 33.9492 3.74432   1
  10  -1  -5 30.9669 3.74096   1
 -10  -1   5 36.0783 3.90428   5
  10   1   5 31.4378 3.61680   1
 -10  -1   5 38.6520 4.06303   1
  10   1   5 32.2685 3.62454   2
 -10   1  -5 33.1418 3.61372   5
 -10   1  -5 40.6469 3.99772   1
 -10   1  -5 32.6786 3.78013   2
  11  -1   5 177.669 7.96036   1
 -11  -1  -5 168.574 8.13634   1
  11   1  -5 163.064 7.70641   1
 -11   1   5 168.737 7.73908   1
 -11   1   5 164.622 8.37602   5
  11   1   5 167.171 7.63965   1
 -11   1  -5 179.232 8.05906   1
 -11  -1   5 177.811 8.06172   5
 -11   1  -5 154.131 7.35471   5
 -11  -1   5 161.328 7.99829   1
  12   1  -5 255.721 10.1432   1
 -12   1   5 246.363 10.1192   1
 -12   1   5 258.023 10.6866   5
  12  -1   5 247.980 10.4460   1
  12   1   5 262.584 10.1780   1
 -12   1  -5 245.650 9.83611   5
 -12  -1   5 266.418 10.4612   1
 -12  -1   5 263.614 10.5191   5
 -12   1  -5 265.314 10.4817   1
 -13   1   5 0.21347 3.05002   1
 -13   1   5 6.47923 3.54950   5
  13   1  -5 -0.3410 3.34052   1
 -13  -1   5 2.67370 3.41466   1
  13   1   5 -5.1914 2.82600   1
 -13   1  -5 6.19924 3.26488   5
 -13  -1   5 1.52733 3.12440   5
 -13   1  -5 -1.0597 3.21001   1
 -14   1   5 38.5625 4.74424   1
  14   1  -5 35.2168 4.59609   1
 -14   1   5 37.1797 4.82126   5
  14   1   5 30.3948 4.53501   1
 -14  -1   5 37.2172 4.67721   5
 -14  -1   5 36.6773 5.11664   1
 -14   1  -5 34.7418 4.64477   1
 -14   1  -5 30.4467 4.37090   5
 -15   1   5 122.780 8.31333   5
 -15   1   5 132.674 8.10724   1
  15   1  -5 126.852 8.14624   1
 -15   1  -5 129.287 8.37724   1
 -15  -1   5 121.404 8.29424   5
  15   1   5 127.858 8.13941   1
 -16   1   5 0.72778 3.95085   5
 -16   1   5 4.58093 3.78159   1
  16   1  -5 0.75325 3.83293   1
  16   1   5 11.0647 4.14286   1
 -16   1  -5 4.70531 4.13875   1
 -17   1   5 3.52143 3.96501   5
 -17   1   5 -4.1220 3.69434   1
  17   1  -5 5.54933 4.22509   1
  17   1   5 2.37911 4.01782   1
 -17   1  -5 4.59490 4.03391   1
   0  -2  -5 -0.3840 1.25867   3
   0   2   5 2.40402 1.11296   5
   0   2   5 1.47941 1.89700   4
   0   2  -5 -1.2478 1.05202   2
   0   2  -5 -0.6132 1.08844   1
   0   2   5 -0.3401 1.38159   3
   0   2   5 0.19045 0.97882   2
  -1   2   5 779.603 23.8111   3
  -1   2   5 793.573 26.8551   4
  -1   2   5 835.527 20.8578   5
  -1   2   5 775.832 20.1947   2
   1   2  -5 774.218 20.4291   2
   1   2  -5 748.048 20.5484   1
  -1  -2  -5 821.584 24.4921   3
   1   2   5 757.517 24.3915   3
   1   2   5 791.989 26.8917   4
   1  -2  -5 856.526 23.9130   3
   1   2   5 813.940 20.2663   2
  -1   2  -5 795.927 20.4035   2
  -1  -2   5 756.378 24.8107   3
   2   2  -5 232.871 7.13650   1
  -2   2   5 241.097 6.97166   2
  -2  -2  -5 250.308 9.00328   3
   2  -2   5 237.822 9.08979   3
  -2   2   5 252.642 6.81854   1
  -2   2   5 261.570 7.62352   5
  -2   2   5 253.291 9.87453   4
   2   2  -5 243.186 7.21252   2
  -2  -2   5 226.802 9.09491   3
   2   2   5 241.561 8.98769   3
  -2   2  -5 242.393 7.11680   1
  -2   2  -5 249.435 7.78584   5
   2   2   5 237.509 9.72849   4
  -2   2  -5 241.718 7.15229   2
   2   2   5 249.837 6.84680   1
   2   2   5 242.641 7.01706   2
  -3   2   5 45.9161 3.27306   5
  -3   2   5 51.4608 4.13933   4
   3   2  -5 39.7809 2.82921   2
  -3   2   5 49.2397 2.52241   1
  -3   2   5 44.8939 2.61125   2
  -3  -2  -5 40.5625 3.84886   3
   3  -2   5 46.4503 3.82414   3
   3   2  -5 38.6797 2.82814   1
  -3  -2   5 40.8118 3.87502   3
   3   2   5 46.2098 2.62724   1
   3   2   5 43.9194 2.76610   2
  -3   2  -5 39.2426 3.23667   5
  -3   2  -5 44.6052 2.83215   2
  -3   2  -5 42.6998 2.75503   1
   3   2   5 40.8087 3.75824   4
   3   2   5 46.1130 3.92616   3
  -4  -2  -5 490.883 16.4081   3
   4   2  -5 478.242 16.2167   3
  -4   2   5 519.405 17.3807   4
   4  -2   5 467.785 16.1340   3
  -4   2   5 507.992 13.1615   1
   4   2  -5 466.799 13.3687   1
   4   2  -5 470.196 13.4146   2
  -4   2   5 473.776 13.1491   2
  -4   2   5 503.421 13.9828   5
   4   2   5 470.486 16.3090   3
  -4   2  -5 468.474 16.2244   3
  -4   2  -5 477.418 13.8422   5
   4   2   5 472.046 17.0253   4
   4   2   5 478.536 13.2327   2
  -4  -2   5 460.932 16.1634   3
  -4   2  -5 480.793 13.3637   1
   4   2   5 508.624 13.2376   1
  -4   2  -5 500.897 13.3503   2
   5  -2   5 204.164 8.26821   3
  -5   2   5 206.741 6.48981   1
  -5  -2  -5 206.727 8.51299   3
   5   2  -5 189.094 6.75489   2
  -5   2   5 196.798 7.21525   5
   5   2  -5 207.249 6.70331   1
   5   2  -5 192.985 8.23930   3
  -5   2   5 217.620 8.63490   4
  -5   2   5 196.833 6.55184   2
  -5   2  -5 195.643 6.61334   1
   5   2   5 187.808 6.53693   2
   5   2   5 203.800 6.49573   1
   5   2   5 184.401 8.00300   4
  -5   2  -5 195.447 6.62284   2
  -5  -2   5 192.812 8.25598   3
  -5  -2   5 194.448 6.89665   1
   5   2   5 201.923 8.48796   3
  -5   2  -5 196.646 7.01024   5
  -5   2  -5 198.199 8.34194   3
   6   2  -5 717.770 19.8475   2
   6  -2   5 737.980 20.0587   1
  -6  -2  -5 701.562 23.8125   3
   6  -2   5 729.153 23.4708   3
   6   2  -5 703.841 23.5253   3
  -6   2   5 741.789 19.6215   2
  -6   2   5 777.518 24.9571   4
  -6   2   5 754.779 19.7240   1
   6   2  -5 722.862 19.8446   1
  -6   2   5 748.116 20.5230   5
  -6  -2   5 702.386 23.5319   3
  -6   2  -5 713.676 23.6402   3
   6   2   5 685.701 24.3148   4
   6   2   5 747.652 19.7054   1
   6   2   5 717.803 19.6555   2
  -6  -2   5 718.111 20.1347   1
  -6   2  -5 736.730 19.7223   2
  -6   2  -5 701.456 20.0739   5
  -6   2  -5 745.760 19.8699   1
  -7   2   5 57.8276 3.96252   1
  -7   2   5 55.9951 3.98000   2
  -7   2   5 61.2595 4.54170   4
   7   2  -5 61.6094 4.07893   2
   7   2  -5 61.7087 4.22983   2
   7   2  -5 53.3904 3.97738   1
  -7   2   5 60.0944 4.69435   5
   7  -2   5 61.6007 4.72215   3
   7   2   5 57.8198 3.93504   2
  -7   2  -5 68.1259 4.21569   1
   7   2   5 53.0991 3.78503   4
  -7  -2   5 60.1131 5.07984   3
  -7   2  -5 62.6907 3.98497   2
  -7   2  -5 59.7180 5.16251   3
  -7   2  -5 45.7107 3.70391   5
   7   2   5 51.4786 3.82684   1
  -8   2   5 252.041 8.64585   1
  -8   2   5 269.051 8.89626   2
  -8   2   5 265.785 9.62171   5
   8   2  -5 251.729 8.79643   1
   8   2  -5 249.827 8.85028   2
  -8   2   5 273.330 10.4039   4
  -8   2  -5 248.186 8.77075   1
   8   2   5 250.822 8.79718   2
  -8   2  -5 250.704 8.70674   2
  -8   2  -5 243.792 8.98141   5
  -8   2  -5 251.457 10.9541   3
   8   2   5 258.028 8.67848   1
  -9   2   5 170.968 6.93221   1
  -9   2   5 170.519 7.81909   5
   9   2  -5 159.514 7.09360   2
  -9   2   5 173.501 7.08171   2
   9   2  -5 167.304 7.07298   1
  -9   2  -5 170.783 7.40311   5
   9   2   5 171.950 7.10009   2
  -9   2  -5 170.220 7.03699   2
  -9   2  -5 165.190 7.01069   1
  -9   2  -5 171.590 9.31187   3
   9   2   5 169.216 6.90005   1
 -10   2   5 83.9695 5.56699   2
  10   2  -5 81.5573 5.68854   2
 -10   2   5 78.5401 5.40154   1
  10   2  -5 80.5512 5.45254   1
 -10   2   5 83.1516 6.33053   5
 -10   2  -5 75.0515 5.29857   2
  10   2   5 90.0806 5.53108   2
 -10   2  -5 87.8452 5.74344   1
 -10   2  -5 76.6510 5.66657   5
  10   2   5 91.1075 5.42967   1
 -11   2   5 22.8768 3.92538   5
 -11   2   5 26.2537 3.45551   1
  11   2  -5 32.1912 3.89280   2
  11   2  -5 26.7974 3.63292   1
 -11   2   5 30.1215 3.93115   2
 -11   2  -5 21.5756 3.42136   2
 -11   2  -5 19.8553 3.51907   5
  11   2   5 21.5895 3.32147   1
 -11   2  -5 27.0144 3.65131   1
  11   2   5 29.3725 3.72897   2
 -11  -2   5 25.4315 3.85849   5
 -12   2   5 60.4768 5.25900   2
 -12   2   5 67.6804 5.65823   5
 -12   2   5 60.9292 4.86195   1
  12   2  -5 68.7908 5.23966   1
 -12   2  -5 64.2569 5.27572   5
 -12  -2   5 73.6555 5.48941   5
  12   2   5 62.7257 4.98309   1
 -12   2  -5 76.2400 5.45642   1
  13   2  -5 279.731 10.9425   1
 -13   2   5 275.192 11.6043   5
 -13   2   5 269.748 10.6765   1
 -13   2  -5 281.205 11.0124   1
  13   2   5 282.840 10.9117   1
 -13   2  -5 274.714 11.1125   5
 -13  -2   5 267.844 11.1292   5
 -14   2   5 146.637 8.11317   1
  14   2  -5 133.641 8.22542   1
 -14   2   5 149.301 9.26571   5
 -14   2  -5 159.090 8.66072   5
 -14   2  -5 154.928 8.50543   1
  14   2   5 167.461 8.55453   1
 -15   2   5 65.1984 5.62342   1
 -15   2   5 75.4529 6.48863   5
  15   2  -5 62.1830 5.98240   1
  15   2   5 87.6117 7.04101   1
 -15   2  -5 78.5537 6.30938   1
 -15   2  -5 75.7364 6.30512   5
  16   2  -5 41.2044 5.33007   1
 -16   2   5 40.1639 5.45559   5
 -16   2   5 41.7080 5.11471   1
 -16   2  -5 51.2946 5.98221   5
  16   2   5 40.6212 5.32995   1
 -16   2  -5 43.1856 5.43709   1
   0  -3   5 890.231 27.8740   3
   0   3   5 847.885 26.8579   3
   0   3  -5 843.061 22.4868   2
   0   3   5 866.235 29.9232   4
   0   3   5 887.194 22.2495   2
   0   3   5 887.319 22.1990   2
   0  -3  -5 926.286 27.0641   3
   0   3  -5 874.849 22.4864   2
   0   3   5 886.222 22.8003   5
  -1   3   5 33.1786 1.96443   2
  -1   3   5 28.3378 3.45708   4
   1   3  -5 28.2631 2.21513   2
  -1  -3  -5 31.5247 2.83536   3
  -1   3   5 27.9673 1.75507   2
   1   3  -5 29.3510 2.13094   2
  -1   3   5 32.1421 2.32000   5
  -1   3   5 29.8362 2.59689   3
   1   3   5 32.4083 1.74316   5
   1  -3  -5 28.6257 2.55336   3
   1   3   5 33.4375 1.88981   2
  -1   3  -5 31.5526 2.22208   2
   1   3   5 33.2900 3.42057   4
  -1  -3   5 28.0777 3.04922   3
   1   3   5 27.4790 2.58458   3
   1   3   5 30.1709 1.90445   2
  -1   3  -5 28.5782 2.56274   5
  -1   3  -5 26.5878 2.06113   2
  -2   3   5 1.85611 1.96726   4
  -2   3   5 3.53657 1.37418   5
  -2   3   5 1.41799 1.06722   2
  -2   3   5 0.15873 0.98329   2
   2   3  -5 5.07864 1.25218   2
  -2  -3  -5 0.66321 1.63885   3
   2  -3   5 1.68264 1.83718   3
   2   3   5 2.02476 1.11685   2
  -2   3  -5 0.58895 1.15092   2
   2   3   5 0.01953 1.67881   4
   2   3   5 1.43180 0.99092   2
  -2   3  -5 -0.0249 1.06388   2
   2  -3  -5 0.55442 1.08857   3
   2   3   5 2.95406 1.79784   3
  -2  -3   5 1.18868 1.92955   3
  -2   3  -5 0.90730 1.55019   5
  -3   3   5 624.027 16.4979   5
   3   3  -5 593.676 15.7918   2
   3  -3   5 572.746 19.2378   3
  -3   3   5 607.443 21.1035   4
  -3   3   5 629.834 15.6412   2
  -3  -3  -5 588.971 19.3982   3
  -3   3   5 566.103 15.4700   2
  -3  -3   5 575.511 19.5709   3
   3   3   5 561.510 15.4213   2
  -3   3  -5 593.929 15.7122   2
  -3   3  -5 600.448 16.7040   5
   3   3   5 575.612 19.3822   3
   3   3   5 552.783 20.6423   4
   3   3   5 610.755 15.6068   2
   4  -3   5 22.8138 2.78763   3
   4   3  -5 19.4339 2.03621   2
   4   3  -5 23.4446 1.80584   1
  -4   3   5 18.3267 1.84748   2
  -4   3   5 22.2504 3.20707   4
  -4  -3  -5 24.4861 2.95862   3
  -4   3   5 23.8497 2.58652   5
  -4  -3   5 16.4821 2.69168   3
  -4   3  -5 20.1594 2.08383   2
  -4   3  -5 19.4080 2.48384   5
  -4   3  -5 23.7326 1.75433   1
   4   3   5 23.3372 1.98922   2
   4   3   5 19.4148 2.73472   4
   4   3   5 23.1900 2.97482   3
  -5   3   5 0.62630 1.81390   5
  -5   3   5 1.26609 2.30737   4
   5  -3   5 2.96411 2.04537   3
   5   3  -5 0.85640 1.37492   1
   5   3  -5 3.18714 1.60488   2
  -5  -3  -5 1.35801 1.98487   3
  -5   3   5 2.61219 1.48414   2
  -5   3  -5 1.53505 1.93495   5
  -5   3  -5 1.20484 1.25466   1
  -5  -3   5 0.65810 2.08388   3
   5   3   5 2.26919 1.22325   1
   5   3   5 3.16180 1.71469   4
  -5   3  -5 -0.9168 1.54002   2
   5   3   5 1.92479 1.42578   2
   6   3  -5 1.66281 1.78406   2
   6   3  -5 2.50144 1.65799   1
  -6   3   5 0.82864 2.23591   4
   6  -3   5 1.13067 2.00957   3
  -6   3   5 1.77399 1.74627   2
  -6   3   5 0.42722 1.20885   1
  -6   3   5 -0.6930 2.03527   5
  -6   3  -5 2.91598 1.73828   2
   6   3   5 -0.0782 1.51955   4
   6   3   5 -3.0787 1.35859   2
   6   3   5 -2.0462 1.41262   1
  -6   3  -5 0.42043 1.96792   5
  -6   3  -5 -0.3673 1.46464   1
  -7   3   5 112.305 5.20297   2
   7   3  -5 119.352 5.57161   2
  -7   3   5 107.022 5.99256   5
  -7   3   5 110.731 4.59115   1
  -7   3   5 116.272 6.63695   4
   7   3  -5 114.621 5.44913   2
   7   3  -5 114.035 5.04314   1
  -7   3  -5 112.872 5.27348   2
  -7   3  -5 113.222 5.90273   5
   7   3   5 108.462 4.65713   1
   7   3   5 112.344 5.16588   2
  -7   3  -5 110.608 5.00891   1
  -8   3   5 83.3461 5.93692   4
  -8   3   5 89.4180 4.94222   2
  -8   3   5 76.1826 4.34457   1
   8   3  -5 78.1451 4.56278   1
  -8   3   5 81.5190 5.75510   5
   8   3  -5 77.6664 5.01183   2
  -8   3  -5 77.4950 4.85237   2
   8   3   5 63.1003 4.53017   2
  -8   3  -5 94.9136 4.74579   1
  -8   3  -5 79.7030 5.51014   5
   8   3   5 82.0651 4.42156   1
   9   3  -5 246.734 9.14997   2
  -9   3   5 247.439 9.90971   5
  -9   3   5 246.923 8.76837   2
  -9   3   5 242.500 8.29383   1
  -9   3   5 245.163 10.6354   4
   9   3  -5 249.327 8.64601   1
  -9   3  -5 235.472 8.47475   1
  -9   3  -5 243.634 9.49742   5
  -9   3  -5 222.421 8.70232   2
   9   3   5 236.233 8.35069   1
   9   3   5 230.166 8.73298   2
 -10   3   5 19.8449 2.89787   1
 -10   3   5 22.3652 3.35296   2
  10   3  -5 17.3225 3.12839   2
 -10   3   5 19.4839 3.71353   5
  10   3  -5 18.0352 3.01942   1
  10   3   5 17.7073 2.99899   2
 -10   3  -5 26.3977 3.80994   5
  10   3   5 17.6968 2.90363   1
 -10   3  -5 18.5704 2.97522   1
 -10   3  -5 23.9717 3.33061   2
 -11   3   5 134.488 6.67352   1
  11   3  -5 140.222 7.40466   2
 -11   3   5 145.091 7.27949   2
  11   3  -5 140.137 6.94478   1
 -11   3   5 138.075 8.02019   5
 -11   3  -5 138.698 6.90852   1
  11   3   5 133.710 7.12446   2
 -11   3  -5 145.186 7.11179   2
 -11   3  -5 129.371 7.78583   5
  11   3   5 137.736 6.73412   1
  12   3  -5 223.547 9.68441   2
 -12   3   5 199.326 9.92600   5
 -12   3   5 220.341 8.81661   1
 -12   3   5 229.662 9.51339   2
  12   3  -5 222.268 9.21796   1
 -12   3  -5 220.681 8.98314   1
  12   3   5 215.675 8.87544   1
 -12   3  -5 205.467 9.19626   2
  12   3   5 228.272 9.42464   2
 -12   3  -5 213.318 9.92728   5
  13   3  -5 -0.9323 3.06664   1
 -13   3   5 -0.5117 3.39870   2
 -13   3   5 5.35131 3.67656   5
 -13   3   5 -1.1064 2.79738   1
 -13   3  -5 -4.1609 3.43020   5
  13   3   5 2.68957 3.12117   1
 -13   3  -5 1.88307 2.96587   1
 -14   3   5 32.8365 4.24104   1
 -14   3   5 27.4161 5.00643   5
  14   3  -5 29.8997 4.15444   1
 -14   3  -5 23.6619 3.99200   1
  14   3   5 28.5267 4.29146   1
 -14   3  -5 24.7746 4.71714   5
  15   3  -5 100.304 7.40730   1
 -15   3   5 101.776 6.94496   1
 -15   3   5 106.176 8.67425   5
 -15   3  -5 92.8593 7.09149   1
  15   3   5 96.0407 7.32496   1
 -15   3  -5 97.8957 8.05944   5
 -16   3   5 2.46686 3.42628   1
 -16   3   5 2.27745 4.23977   5
  16   3  -5 0.73108 3.53430   1
 -16   3  -5 7.44751 3.58371   1
  16   3   5 0.96375 3.77242   1
 -16   3  -5 4.77089 4.14383   5
   0  -4   5 0.56505 2.03235   3
   0  -4  -5 0.40218 1.63373   3
   0   4   5 0.27439 1.05241   5
   0   4  -5 1.60696 2.15049   4
   0   4   5 0.54217 1.54983   3
   0   4  -5 0.46449 1.08356   2
   0   4   5 3.36138 2.30948   4
   1   4  -5 80.0173 5.62485   4
  -1  -4  -5 80.4123 4.86122   3
  -1   4   5 83.3341 3.69456   5
  -1   4   5 85.1418 4.28757   3
   1   4  -5 78.9790 3.40025   2
   1  -4   5 80.2124 5.50684   3
  -1   4   5 86.2639 5.88204   4
   1  -4  -5 88.1028 4.46601   3
  -1  -4   5 79.3340 5.59827   3
   1   4   5 86.2198 4.77127   3
   1   4   5 86.8226 5.68143   4
   1   4   5 89.2079 2.98623   2
  -1   4  -5 82.3573 3.32604   2
  -1   4  -5 72.8754 4.37445   5
  -1   4  -5 85.0053 5.80017   4
   2  -4   5 68.1074 5.05409   3
   2   4  -5 72.2444 3.30240   2
  -2   4   5 78.0947 5.53230   4
  -2   4   5 80.2469 3.76999   5
  -2   4   5 66.2729 2.93320   2
  -2   4   5 67.9339 2.88244   2
  -2  -4  -5 77.2268 4.82438   3
   2   4   5 74.1800 2.88480   2
  -2   4  -5 73.2858 4.46714   5
   2   4   5 67.7319 5.21288   4
  -2   4  -5 73.0173 3.27545   2
  -2   4  -5 66.0357 5.33171   4
   2   4   5 70.2168 4.63328   3
   2   4   5 75.3714 3.01833   2
   3   4  -5 456.994 12.6101   2
  -3   4   5 449.421 13.3023   5
  -3   4   5 449.801 12.2276   2
  -3  -4  -5 471.872 16.0211   3
  -3   4   5 450.692 17.3988   4
  -3   4  -5 444.490 17.4136   4
   3   4   5 472.061 12.3281   2
  -3   4  -5 461.137 13.8230   5
  -3   4  -5 458.910 12.5032   2
   3   4   5 435.883 17.0425   4
  -4   4   5 62.7467 5.37598   4
  -4   4   5 60.8610 4.00383   5
   4   4  -5 56.8746 3.49532   2
  -4   4   5 66.8066 3.19784   2
  -4   4  -5 57.4027 3.35713   2
   4   4   5 56.2732 4.73711   4
  -4   4  -5 58.4008 4.44953   5
   4   4   5 64.4347 3.20723   2
  -4   4  -5 62.1026 5.44460   4
  -5   4   5 591.636 21.6265   4
  -5   4   5 582.054 15.9243   2
   5   4  -5 573.696 16.2773   2
  -5   4   5 596.078 17.0952   5
  -5   4  -5 596.624 16.1422   2
   5   4   5 594.311 16.0197   2
   5   4   5 560.594 20.9656   4
  -5   4  -5 582.450 21.7265   4
  -5   4  -5 592.346 17.3393   5
  -6   4   5 -0.1960 2.11711   5
  -6   4   5 5.99397 2.97194   4
   6   4  -5 1.74783 1.75037   2
  -6   4   5 0.94198 1.77418   2
   6   4   5 3.52292 1.76542   2
  -6   4  -5 2.18823 2.43765   5
  -6   4  -5 2.80954 1.87571   2
   6   4   5 1.17614 1.96986   4
  -7   4   5 38.0607 3.11264   2
  -7   4   5 38.2331 4.56008   4
   7   4  -5 36.0857 3.37730   2
   7   4  -5 41.0187 2.82720   1
  -7   4   5 43.2124 4.12465   5
   7   4   5 40.9230 3.25852   2
  -7   4  -5 42.3927 4.01604   5
  -7   4  -5 40.9064 3.25053   2
  -8   4   5 50.5380 5.04364   4
  -8   4   5 47.3415 3.63426   2
   8   4  -5 43.5986 4.05873   2
   8   4  -5 46.9352 3.95205   2
   8   4  -5 51.3361 3.52716   1
  -8   4   5 51.8806 4.62296   5
  -8   4  -5 45.5691 3.69826   2
  -8   4  -5 46.2711 3.21621   1
   8   4   5 45.4932 3.52568   2
  -8   4  -5 45.5153 4.40918   5
  -9   4   5 103.605 5.71483   2
  -9   4   5 119.542 7.56539   4
   9   4  -5 101.661 6.09466   2
   9   4  -5 100.243 4.99879   1
  -9   4   5 93.0119 6.83061   5
  -9   4  -5 105.386 4.92418   1
  -9   4  -5 102.204 5.76442   2
   9   4   5 103.655 5.71574   2
  -9   4  -5 94.5692 6.76875   5
   9   4   5 108.215 4.63102   1
  10   4  -5 15.7779 3.21335   2
 -10   4   5 9.97634 3.58142   5
  10   4  -5 11.7835 2.59095   1
 -10   4   5 15.9221 2.40785   1
 -10   4   5 10.8916 2.94980   2
 -10   4  -5 5.31347 3.33407   5
 -10   4  -5 10.8355 3.00546   2
  10   4   5 12.2973 2.93931   2
  10   4   5 13.5038 2.40939   1
 -10   4  -5 13.4203 2.57557   1
 -11   4   5 243.046 8.44154   1
 -11   4   5 223.044 9.63971   2
  11   4  -5 244.240 9.89798   2
 -11   4   5 243.983 10.8478   5
  11   4  -5 234.004 8.80133   1
  11   4   5 249.592 8.50679   1
 -11   4  -5 256.701 9.05353   1
 -11   4  -5 242.879 9.63237   2
 -11   4  -5 242.387 10.7046   5
  11   4   5 235.856 9.55397   2
 -12   4   5 86.9567 6.90006   5
  12   4  -5 89.5620 6.84918   2
 -12   4   5 93.1724 6.66048   2
 -12   4   5 99.8167 5.76728   1
  12   4  -5 89.5914 5.89155   1
 -12   4  -5 98.5432 6.11673   1
  12   4   5 93.1416 6.66331   2
 -12   4  -5 99.8048 7.73506   5
  12   4   5 92.5303 5.68395   1
 -12   4  -5 91.6185 6.58258   2
 -13   4   5 432.595 16.5144   5
 -13   4   5 466.942 15.6500   2
 -13   4   5 471.016 14.5032   1
  13   4  -5 488.240 16.1361   2
  13   4  -5 462.603 14.9583   1
  13   4   5 450.941 15.6642   2
 -13   4  -5 469.215 14.8777   1
  13   4   5 468.475 14.6386   1
 -13   4  -5 466.486 16.6124   5
 -13   4  -5 467.248 15.7011   2
 -14   4   5 10.7668 3.24268   1
 -14   4   5 16.0868 4.64667   5
 -14   4   5 7.54692 3.92275   2
  14   4  -5 4.50006 3.29673   1
  14   4   5 13.7629 3.53533   1
 -14   4  -5 12.4993 4.59630   5
 -14   4  -5 8.44263 3.89398   2
 -14   4  -5 11.1914 3.37035   1
 -15   4   5 8.75501 3.48946   1
  15   4  -5 15.6073 3.86259   1
 -15   4   5 12.7781 4.64046   5
 -15   4  -5 18.8050 3.83186   1
  15   4   5 20.3097 3.94487   1
 -15   4  -5 22.0394 4.87653   5
   0   5  -5 453.003 12.3448   2
   0   5  -5 460.473 18.1040   4
   0   5   5 460.263 18.0592   4
   1   5  -5 8.58539 1.46264   2
  -1   5   5 13.2854 3.33627   4
   1   5  -5 5.93062 2.77067   4
  -1   5  -5 8.74051 3.08402   4
  -1   5  -5 5.39193 1.40749   2
   1   5   5 6.57018 2.86097   4
  -1   5  -5 9.99091 2.31922   5
   2   5  -5 3.48283 2.69767   4
  -2   5   5 3.01128 2.78899   4
   2   5  -5 -1.1190 1.29509   2
  -2   5   5 -0.3307 1.59946   5
  -2   5  -5 5.78431 2.91055   4
  -2   5  -5 7.39681 1.39764   2
   2   5   5 5.11921 1.23614   2
   2   5   5 7.10323 2.86362   4
  -2   5  -5 6.44120 2.26720   5
  -3   5   5 322.687 13.9807   4
  -3   5   5 332.384 10.4827   5
  -3   5   5 318.455 9.08706   2
   3   5  -5 314.995 9.49964   2
  -3   5  -5 312.098 13.9709   4
   3   5   5 327.480 13.7164   4
   3   5   5 337.520 9.21177   2
  -3   5  -5 327.707 11.0754   5
  -3   5  -5 315.629 9.39132   2
  -4   5   5 7.35646 2.26036   5
  -4   5   5 10.1203 1.74400   2
  -4   5   5 10.8217 3.35722   4
   4   5  -5 9.71714 1.81677   2
   4   5   5 9.85224 2.95172   4
  -4   5  -5 9.66978 1.82836   2
  -4   5  -5 11.6854 2.77428   5
   4   5   5 11.2222 1.65549   2
  -4   5  -5 7.87839 3.21583   4
   5   5  -5 -0.1626 1.54096   2
  -5   5   5 1.62542 2.97137   4
  -5   5   5 0.51122 2.18064   5
  -5   5   5 -0.2676 1.59028   2
  -5   5  -5 1.18918 2.93417   4
  -5   5  -5 0.86695 1.75029   2
   5   5   5 2.16825 2.36787   4
  -5   5  -5 1.17915 2.48503   5
   5   5   5 -0.1333 1.48870   2
  -6   5   5 -1.0464 2.94649   4
  -6   5   5 -0.6052 2.31643   5
   6   5  -5 0.70837 1.81935   2
  -6   5   5 4.08510 1.89989   2
   6   5   5 2.26044 1.74546   2
   6   5   5 3.70595 2.48177   4
  -6   5  -5 -0.8596 1.80680   2
  -6   5  -5 3.24280 2.64169   5
  -7   5   5 79.5603 6.99949   4
   7   5  -5 70.9775 4.71652   2
   7   5  -5 71.3251 4.82672   2
  -7   5   5 71.7856 4.47145   2
  -7   5   5 65.3209 5.16018   5
   7   5   5 70.3231 4.38380   2
  -7   5  -5 71.8651 5.49127   5
  -7   5  -5 73.5869 4.68099   2
  -8   5   5 49.6352 5.55617   4
   8   5  -5 41.9454 3.83340   2
  -8   5   5 37.5176 4.44306   5
  -8   5   5 38.8186 3.44631   2
   8   5   5 36.9550 3.41252   2
  -8   5  -5 34.2490 4.43509   5
  -8   5  -5 38.7693 3.59250   2
   9   5  -5 226.732 8.92997   2
  -9   5   5 232.157 11.6876   4
  -9   5   5 213.160 9.94432   5
  -9   5   5 220.066 8.46801   2
   9   5   5 217.203 8.48980   2
  -9   5  -5 222.676 10.2297   5
  -9   5  -5 217.300 8.66792   2
  10   5  -5 24.5833 3.52595   2
 -10   5   5 28.0870 4.48957   5
 -10   5   5 20.6937 3.49925   2
 -10   5  -5 21.5580 3.52045   2
 -10   5  -5 24.6314 4.49337   5
  10   5   5 27.5485 3.53407   2
 -11   5   5 99.1284 6.55482   2
  11   5  -5 106.318 6.81376   2
 -11   5   5 100.201 7.28676   5
 -11   5  -5 102.355 6.58001   2
  11   5   5 85.1477 6.32406   2
 -11   5  -5 107.436 8.18679   5
 -12   5   5 133.352 9.21171   5
 -12   5   5 127.810 7.73299   2
  12   5  -5 142.862 7.94354   2
 -12   5  -5 135.821 7.67820   2
  12   5   5 145.285 7.88718   2
 -12   5  -5 141.795 9.25652   5
 -13   5   5 7.69348 4.25726   5
 -13   5   5 -0.4558 3.38187   2
  13   5  -5 4.34638 3.40226   2
 -13   5  -5 -0.5738 3.90293   5
 -13   5  -5 -8.6786 3.01899   2
  13   5   5 5.90665 3.52406   2
   0   6  -5 -0.7327 1.22459   2
   0   6  -5 -0.4937 2.77573   4
   0   6   5 -1.9379 2.57226   4
   1   6  -5 260.491 12.0596   4
  -1   6   5 231.182 11.7955   4
   1   6  -5 230.938 7.17490   2
  -1   6  -5 240.038 7.18963   2
   1   6   5 221.813 11.5656   4
  -1   6  -5 225.363 11.7713   4
   2   6  -5 73.9763 6.52481   4
   2   6  -5 72.1679 3.56849   2
  -2   6   5 68.1840 6.60471   4
  -2   6  -5 68.8439 6.74531   4
  -2   6  -5 67.0920 5.26295   5
  -2   6  -5 67.3715 3.49505   2
   2   6   5 64.8806 6.42875   4
   3   6  -5 6.42690 1.73415   2
  -3   6   5 5.39083 3.27263   4
   3   6   5 7.69967 1.63978   2
  -3   6  -5 6.22263 3.40110   4
   3   6   5 7.12734 3.18185   4
  -3   6  -5 11.3848 1.76691   2
  -3   6  -5 7.17240 2.71646   5
  -4   6   5 159.451 5.65062   2
  -4   6   5 169.585 7.55955   5
   4   6  -5 162.067 6.10910   2
  -4   6   5 150.150 9.71974   4
   4   6   5 159.069 5.74126   2
  -4   6  -5 163.581 7.96997   5
  -4   6  -5 164.355 5.91848   2
  -4   6  -5 155.347 9.79500   4
   4   6   5 177.383 9.55618   4
   5   6  -5 50.9034 3.93492   2
  -5   6   5 52.4640 6.11345   4
  -5   6   5 56.5583 4.67490   5
  -5   6   5 59.5875 3.67278   2
   5   6   5 55.0162 5.60779   4
  -5   6  -5 55.5089 3.92202   2
  -5   6  -5 70.3430 5.47208   5
  -5   6  -5 69.4337 6.80140   4
   5   6   5 58.0684 3.71421   2
  -6   6   5 273.627 8.85434   2
   6   6  -5 265.179 9.27149   2
  -6   6   5 291.576 10.7657   5
  -6   6   5 275.838 13.5913   4
  -6   6  -5 273.943 11.0540   5
   6   6   5 272.756 8.95149   2
  -6   6  -5 283.033 9.15414   2
  -7   6   5 22.4508 2.74263   2
   7   6  -5 21.2979 2.97896   2
  -7   6   5 19.2765 3.75586   5
   7   6  -5 20.0428 2.94957   2
  -7   6   5 21.6706 4.71965   4
  -7   6  -5 21.7235 4.13452   5
   7   6   5 18.4266 2.66266   2
  -7   6  -5 21.7249 2.83387   2
   8   6  -5 105.823 5.88223   2
  -8   6   5 108.205 7.36950   5
  -8   6   5 112.585 8.74088   4
  -8   6   5 96.1259 5.52340   2
   8   6   5 104.984 5.61186   2
  -8   6  -5 113.295 5.96233   2
  -8   6  -5 112.794 7.71877   5
  -9   6   5 72.5024 5.21666   2
  -9   6   5 78.1438 6.38483   5
   9   6  -5 75.2311 5.52878   2
  -9   6   5 86.9914 8.14114   4
   9   6   5 78.8756 5.36852   2
  -9   6  -5 73.0298 5.49287   2
  -9   6  -5 85.0859 6.73491   5
  10   6  -5 36.7646 4.15761   2
 -10   6   5 29.4379 4.82975   5
 -10   6   5 31.8573 3.79890   2
 -10   6  -5 37.7327 4.14826   2
  10   6   5 33.9096 3.85715   2
 -10   6  -5 30.8073 5.00584   5
 -11   6   5 17.4802 4.53130   5
  11   6  -5 17.8802 3.74638   2
 -11   6   5 11.5836 3.26902   2
  11   6   5 24.0866 3.69081   2
 -11   6  -5 18.4999 4.75802   5
 -11   6  -5 18.2044 3.72249   2
  12   6  -5 34.8860 4.61386   2
 -12   6   5 31.7912 4.33912   2
 -12   6   5 22.8331 5.03331   5
 -12   6  -5 24.4152 5.11482   5
  12   6   5 26.2650 4.12965   2
 -12   6  -5 35.3478 4.57286   2
   0   7  -5 307.162 14.8839   4
   0   7  -5 308.383 9.08031   2
   0   7   5 313.132 14.8910   4
   1   7  -5 17.1555 4.16798   4
   1   7  -5 9.89670 1.76810   2
  -1   7   5 14.6409 4.22144   4
   1   7   5 16.7843 4.16880   4
  -1   7  -5 9.58409 3.87728   4
  -1   7  -5 8.40139 1.67265   2
   2   7  -5 -1.4931 1.54411   2
  -2   7   5 3.92441 3.52908   4
   2   7   5 0.54431 3.17706   4
  -2   7  -5 -0.3882 3.23490   4
  -2   7  -5 1.70744 1.48099   2
  -3   7   5 222.566 12.0988   4
   3   7  -5 209.309 7.24482   2
  -3   7  -5 196.702 11.8155   4
  -3   7  -5 213.251 6.96966   2
   3   7   5 210.656 11.6124   4
  -3   7  -5 206.973 9.39311   5
  -4   7   5 7.66100 3.94547   4
   4   7  -5 7.31253 2.01280   2
  -4   7  -5 13.3392 4.35542   4
   4   7   5 2.89699 3.52202   4
   4   7   5 8.78105 1.90573   2
  -4   7  -5 8.52569 1.89884   2
  -4   7  -5 7.68806 3.23736   5
   5   7  -5 -0.4112 1.80771   2
  -5   7   5 -1.1541 1.74883   2
  -5   7   5 1.30331 3.67616   4
  -5   7  -5 4.10351 1.83377   2
   5   7   5 -3.3587 1.77909   2
  -5   7  -5 -1.3991 2.84962   5
   5   7   5 1.46622 3.31155   4
   6   7  -5 -1.8623 1.94529   2
   6   7  -5 -1.7817 1.88976   2
  -6   7   5 2.84770 1.98733   2
  -6   7   5 0.10801 3.84985   4
  -6   7  -5 0.49798 3.19698   5
  -6   7  -5 -1.0084 1.95042   2
   6   7   5 -0.4749 2.03804   2
  -7   7   5 50.2416 6.58278   4
  -7   7   5 37.1328 3.37424   2
   7   7  -5 35.4116 3.55704   2
  -7   7  -5 37.7929 3.45682   2
  -7   7  -5 48.1802 5.51244   5
   7   7   5 44.2920 3.64826   2
   8   7  -5 38.6717 3.89372   2
  -8   7   5 51.9623 5.47749   5
  -8   7   5 36.5152 6.14216   4
  -8   7   5 31.6908 3.46498   2
  -8   7  -5 35.1558 3.63060   2
  -8   7  -5 35.8413 5.13029   5
   8   7   5 47.7754 3.87580   2
  -9   7   5 109.452 7.92861   5
   9   7  -5 88.8241 6.15349   2
  -9   7   5 101.912 5.88167   2
  -9   7   5 94.3335 9.06957   4
   9   7   5 92.9565 5.90658   2
  -9   7  -5 97.6435 5.97012   2
  -9   7  -5 98.8232 8.08903   5
   0   8   5 -2.2674 3.62915   4
  -1   8   5 15.5614 4.80575   4
   1   8   5 18.6759 4.86363   4
   2   8  -5 17.6025 2.26103   2
  -2   8   5 16.4073 4.94069   4
   2   8   5 14.3432 4.43129   4
   3   8  -5 135.927 5.66519   2
  -3   8  -5 128.995 5.24228   2
   3   8   5 131.898 9.63960   4
   4   8  -5 14.2807 2.49031   2
   4   8   5 14.1847 4.61730   4
  -4   8  -5 11.1745 2.11724   2
  -4   8  -5 11.0791 3.80205   5
   5   8  -5 163.227 6.86915   2
   5   8  -5 159.874 6.80611   2
   5   8   5 161.785 6.22755   2
  -5   8  -5 157.798 6.33150   2
  -5   8  -5 168.982 9.45829   5
   0   0  -6 4399.19 128.224   3
   0   0   6 4411.78 110.020   1
   0   0   6 4371.11 128.237   3
   0   0   6 4337.41 108.336   2
   0   0  -6 4344.86 110.015   1
  -1   0  -6 4053.83 125.327   3
  -1   0   6 4498.11 125.196   3
  -1   0   6 4264.98 105.860   2
   1   0   6 4177.94 125.411   3
  -1   0   6 4331.55 107.520   1
   1   0   6 4266.27 107.472   1
  -1   0  -6 4250.33 107.466   1
   1   0   6 4128.81 105.845   2
   1   0  -6 4464.96 107.529   1
   2   0  -6 100.073 4.09167   1
   2   0   6 91.7058 4.01525   2
   2   0   6 95.7482 4.07729   1
  -2   0  -6 97.5041 3.98671   2
   2   0   6 86.3039 5.12501   3
  -2   0   6 99.4967 3.97636   2
  -2   0  -6 89.7696 5.04068   3
  -2   0  -6 93.3606 4.04425   1
  -2   0   6 95.3570 4.11733   1
  -3   0  -6 65.3233 3.12458   5
   3   0   6 63.5512 4.49704   3
   3   0  -6 66.7704 3.41283   2
  -3   0   6 63.8113 3.38871   2
   3   0  -6 62.8160 3.57290   1
  -3   0  -6 65.1327 3.43475   2
  -3   0  -6 61.2981 3.47094   1
   3   0   6 64.6857 3.52850   2
  -3   0   6 68.1730 3.59180   3
  -3   0   6 66.1749 3.58332   1
   3   0   6 62.8873 3.49896   1
  -3   0  -6 64.4040 4.63737   3
   4   0   6 381.908 13.5398   3
  -4   0   6 399.889 11.1280   2
  -4   0  -6 367.445 11.2097   1
  -4   0   6 387.630 11.3131   1
  -4   0  -6 386.255 10.8248   5
  -4   0   6 411.115 12.6286   3
  -4   0  -6 403.691 11.1352   2
  -4   0  -6 366.524 13.5396   3
   4   0   6 380.776 11.1467   2
   4   0  -6 389.570 11.3482   1
   4   0  -6 406.031 11.1863   2
   4   0   6 385.111 11.2916   1
   5   0  -6 33.0723 2.67164   2
   5   0  -6 32.8151 2.72702   1
  -5   0  -6 30.7094 2.67084   1
   5   0   6 35.5317 3.36396   3
   5   0   6 34.4031 2.69305   2
  -5   0   6 29.8547 2.67059   2
  -5   0  -6 35.2673 2.78033   5
  -5   0   6 34.3110 2.88285   1
   5   0  -6 32.1581 2.61413   2
  -5   0   6 34.7591 3.07032   3
  -5   0  -6 39.5884 3.15476   2
   5   0   6 36.0234 2.72957   1
  -5   0  -6 29.4778 3.21232   3
  -6   0  -6 7.30511 1.99087   2
  -6   0   6 9.93278 2.08129   1
   6   0   6 12.2878 2.18160   1
   6   0  -6 7.95248 1.89695   2
  -6   0  -6 7.52623 2.07651   1
  -6   0  -6 6.65233 2.44688   3
  -6   0   6 8.28313 2.02667   2
  -6   0   6 10.4184 2.08681   3
  -6   0  -6 7.57418 1.68654   5
   6   0   6 8.21310 2.31184   3
   6   0  -6 7.13458 2.17242   1
   6   0   6 7.67598 1.96123   2
   6   0  -6 12.2384 2.08743   3
  -7   0   6 664.030 20.8639   3
  -7   0  -6 663.014 18.2608   2
   7   0  -6 688.717 18.6471   1
   7   0   6 673.147 18.4071   2
  -7   0  -6 662.464 17.9955   5
   7   0   6 649.580 18.5391   1
  -7   0   6 666.786 18.6483   1
  -7   0  -6 628.049 18.5777   1
  -7   0  -6 637.116 22.1127   3
   7   0  -6 653.819 18.3143   2
  -7   0   6 648.274 18.3223   2
  -7   0   6 638.519 22.1742   4
   7   0  -6 705.220 20.9703   3
   8   0   6 865.652 24.1201   1
  -8   0   6 881.108 24.2336   1
  -8   0  -6 885.038 23.5594   5
  -8   0   6 893.712 27.3704   3
   8   0   6 841.530 23.8591   2
  -8   0  -6 872.193 24.2162   1
   8   0  -6 878.396 24.1727   1
  -8   0   6 883.468 24.6223   5
   8   0  -6 899.569 27.3065   3
  -8   0   6 879.232 23.7929   2
  -8   0  -6 833.617 29.4243   3
   9   0   6 1992.68 52.3082   1
  -9   0  -6 2008.68 51.6259   5
  -9   0   6 2018.35 52.3478   1
   9   0  -6 2044.80 52.3932   1
  -9   0   6 1979.36 60.0228   3
  -9   0  -6 1972.25 52.4004   1
  -9   0   6 1949.31 52.5666   5
 -10   0  -6 -1.5533 2.11536   5
  10   0   6 1.72833 2.56273   1
 -10   0   6 0.56429 2.53672   1
 -10   0   6 3.79100 2.78000   5
  10   0  -6 2.34256 2.60109   1
 -10   0  -6 2.23237 2.67816   1
 -11   0   6 0.31811 2.83688   5
  11   0   6 1.01071 2.84589   1
  11   0  -6 3.86623 2.90558   1
 -11   0  -6 2.69004 2.95027   1
 -11   0   6 5.17381 2.95582   1
  12   0  -6 0.72333 3.00835   1
 -12   0  -6 -0.7096 3.11991   1
 -12   0   6 -1.9896 2.82278   5
 -12   0   6 3.42477 3.14041   1
  12   0   6 5.62237 3.17333   1
 -13   0   6 1.09495 3.21141   1
 -13   0   6 -0.7766 3.06619   5
  13   0  -6 3.63089 3.44194   1
 -13   0  -6 1.44007 3.53058   1
  13   0   6 1.50923 3.36261   1
  14   0   6 6.11959 3.56374   1
 -14   0  -6 13.7582 4.02259   1
  14   0  -6 11.8866 3.86872   1
 -14   0   6 12.5367 3.96188   1
 -14   0   6 14.6338 3.78883   5
 -15   0   6 -2.5683 3.68303   1
 -15   0  -6 5.80339 4.04297   1
  15   0  -6 -3.1535 3.63780   1
 -15   0   6 -3.3595 3.71116   5
  15   0   6 2.89361 3.81398   1
  16   0   6 69.7151 6.47121   1
  16   0  -6 75.8295 6.57602   1
 -16   0  -6 63.7277 6.37737   1
 -16   0   6 57.8228 6.00989   1
 -16   0   6 65.2647 6.33697   5
 -17   0   6 133.892 9.16267   5
 -17   0  -6 145.350 9.62276   1
 -17   0   6 121.699 8.97771   1
  17   0   6 144.652 9.09490   1
  17   0  -6 135.737 9.27256   1
   0   1   6 -1.8856 1.66645   3
   0  -1   6 -3.6499 1.81302   3
   0   1  -6 -1.1886 1.49507   1
   0   1   6 -2.9674 1.22936   2
   0   1   6 -2.8224 1.29783   1
   0   1  -6 -3.2274 1.18158   2
   0  -1  -6 -1.3184 1.63094   3
  -1  -1  -6 1494.21 43.1859   3
   1   1  -6 1393.56 36.3586   2
   1   1  -6 1347.00 36.8909   1
  -1   1   6 1496.23 42.7593   3
  -1   1   6 1434.88 36.8023   1
  -1   1   6 1446.27 36.2766   2
   1  -1   6 1392.64 43.3783   3
  -1   1  -6 1369.00 36.9056   1
   1   1   6 1463.28 36.8169   1
   1   1   6 1424.08 43.1887   3
  -1   1  -6 1436.94 36.3648   2
   1   1   6 1409.88 36.2897   2
   1  -1  -6 1588.41 42.7167   3
  -2   1   6 7.68158 1.51805   3
   2   1  -6 2.83724 1.40931   2
  -2  -1  -6 2.69710 1.84891   3
  -2   1   6 8.16910 2.80526   4
   2  -1   6 7.49049 2.12571   3
  -2   1   6 4.66334 1.42221   2
  -2   1   6 5.78745 1.53120   1
   2   1  -6 3.20136 1.53713   1
   2   1   6 3.83826 1.56173   1
  -2   1  -6 5.44328 2.09179   3
  -2   1  -6 3.70074 1.62358   5
   2   1   6 1.09506 1.87983   3
  -2  -1   6 1.75428 1.79262   3
   2   1   6 2.55418 1.41080   2
  -2   1  -6 5.06192 1.50546   2
  -2   1  -6 5.28670 1.60912   1
  -3  -1  -6 466.362 15.7388   3
   3   1  -6 466.595 13.1827   1
   3  -1   6 469.382 15.9108   3
  -3   1   6 486.329 12.9305   2
   3   1  -6 461.977 13.0565   2
  -3   1   6 514.711 17.0655   4
  -3   1   6 487.363 13.1135   1
   3  -1   6 484.831 13.2665   1
   3   1   6 458.343 15.7620   3
  -3   1  -6 476.303 12.9961   2
  -3   1  -6 443.160 15.7587   3
  -3  -1   6 466.178 13.2848   1
  -3   1  -6 477.382 13.2182   5
  -3   1  -6 455.054 13.1522   1
   3   1   6 477.240 12.9957   2
   3   1   6 475.194 13.1203   1
  -3  -1   6 491.746 15.4615   3
  -4  -1  -6 -0.3344 1.05034   5
  -4   1   6 0.34951 1.49938   2
  -4   1   6 -0.7959 1.55385   1
  -4  -1  -6 -0.8564 1.50493   1
  -4   1   6 1.21451 1.99013   4
  -4  -1  -6 -0.1333 1.92230   3
   4  -1   6 1.08171 1.62191   1
   4   1  -6 -1.8344 1.55622   1
   4   1  -6 -0.9879 1.50118   2
   4  -1   6 2.92104 2.03389   3
   4   1   6 -2.8010 1.86976   3
  -4   1  -6 -1.9601 1.48299   2
  -4   1  -6 -0.6028 1.51540   1
  -4  -1   6 -1.4685 1.66752   1
   4   1   6 -1.7543 1.46815   2
  -4   1  -6 -0.8211 2.01157   3
   4   1   6 -0.6923 1.55728   1
   4  -1  -6 0.32034 1.63681   1
  -4   1  -6 -0.0442 1.51884   5
  -4  -1   6 -3.1607 1.75183   3
  -5   1   6 1138.41 35.6720   4
  -5  -1  -6 1066.43 27.5466   5
   5  -1   6 1067.22 33.5985   3
  -5   1   6 1109.46 28.9585   5
  -5   1   6 1081.01 28.4164   1
  -5  -1  -6 1083.36 33.7635   3
  -5   1   6 1107.61 28.1095   2
  -5  -1  -6 1066.85 28.5291   1
   5  -1   6 1066.12 28.4732   1
   5   1  -6 1098.13 28.5449   1
   5   1  -6 1081.93 28.2013   2
   5   1  -6 1089.97 33.1354   3
  -5  -1   6 1044.90 28.5641   1
   5  -1  -6 1115.85 28.5171   1
   5   1   6 1019.42 33.5746   3
  -5   1  -6 1086.51 28.3783   5
   5   1   6 1078.12 28.4373   1
   5   1   6 1060.86 28.0880   2
  -5   1  -6 1061.57 33.6677   3
  -5   1  -6 1050.81 28.0663   2
  -5  -1   6 1071.59 33.0764   3
  -5   1  -6 1050.42 28.4769   1
   6  -1   6 257.739 10.0785   3
  -6   1   6 252.000 8.26746   1
  -6   1   6 253.511 8.80542   5
   6   1  -6 245.580 8.28658   2
   6   1  -6 261.994 9.55190   3
  -6  -1  -6 245.724 10.1962   3
  -6   1   6 266.908 9.98224   4
  -6   1   6 256.469 8.19402   2
  -6  -1  -6 250.330 8.31863   1
   6  -1   6 249.161 8.33154   1
   6   1  -6 253.790 8.39026   1
  -6  -1  -6 247.863 7.28711   5
  -6  -1   6 249.029 8.14430   2
  -6  -1   6 253.977 8.48114   1
  -6   1  -6 246.333 8.27214   1
   6   1   6 238.007 8.09000   2
  -6   1  -6 243.141 8.11922   2
  -6   1  -6 227.983 10.0588   3
  -6   1  -6 257.946 8.19299   5
   6   1   6 248.969 8.19562   1
   6   1   6 239.428 10.0268   3
   6  -1  -6 242.643 8.27522   1
  -6  -1   6 261.551 9.56655   3
   7   1  -6 427.849 12.9996   2
  -7  -1  -6 420.942 12.0179   5
  -7  -1  -6 425.036 13.0645   1
  -7   1   6 434.555 13.5312   5
  -7  -1  -6 426.086 15.7981   3
  -7   1   6 440.493 12.8596   2
   7   1  -6 432.712 13.0699   2
  -7   1   6 440.373 13.0020   1
  -7   1   6 445.668 15.5532   4
   7   1  -6 436.108 13.0868   1
  -7   1   6 423.552 13.8499   3
   7   1  -6 455.996 15.0592   3
   7  -1   6 440.388 13.1508   1
   7   1   6 436.195 12.9597   1
  -7   1  -6 435.432 12.8364   5
  -7   1  -6 428.849 13.0811   1
   7   1   6 412.856 12.8578   2
  -7   1  -6 432.063 15.7947   3
  -7  -1   6 447.789 15.0776   3
   7  -1  -6 437.338 13.1377   1
   7  -1  -6 442.957 13.8525   3
  -7  -1   6 451.200 13.2803   1
  -7   1  -6 449.343 12.9537   2
  -8   1   6 10.0752 2.45465   1
   8   1  -6 9.54383 2.43861   1
  -8   1   6 7.42111 2.35619   2
   8   1  -6 8.03545 2.50903   3
  -8  -1  -6 5.86611 2.29033   1
   8   1  -6 9.41372 2.39563   2
  -8   1   6 9.00157 2.23535   4
  -8   1   6 11.6805 2.78884   5
   8  -1   6 4.20921 2.27794   1
   8   1   6 7.33709 2.22079   2
   8   1   6 13.6963 2.41920   1
   8  -1  -6 8.99664 2.56650   1
  -8   1  -6 7.06157 2.29614   2
  -8  -1   6 7.53300 2.48344   3
  -8   1  -6 5.66424 2.18215   5
  -8   1  -6 8.01192 2.81744   3
  -8   1  -6 7.72420 2.38842   1
  -8  -1   6 12.7029 2.65185   1
   9   1  -6 303.262 10.6581   2
  -9   1   6 340.187 10.7202   2
  -9   1   6 332.363 10.8576   1
   9  -1   6 318.830 10.9076   1
  -9  -1  -6 315.894 10.9151   1
  -9   1   6 317.098 11.2654   5
   9   1  -6 323.184 10.8580   1
  -9   1  -6 319.224 10.8523   1
   9   1   6 335.962 10.8351   2
  -9  -1   6 302.657 10.9284   1
   9   1   6 307.843 10.7021   1
  -9  -1   6 325.901 12.1967   3
  -9   1  -6 315.135 10.5901   2
  -9   1  -6 313.236 10.4715   5
   9  -1  -6 335.338 10.9974   1
 -10   1   6 128.401 6.58617   2
 -10   1   6 127.766 7.12463   5
  10   1  -6 143.681 6.77746   1
 -10   1   6 135.675 6.65961   1
  10  -1   6 127.839 6.73518   1
 -10  -1  -6 126.293 6.82606   1
 -10   1  -6 130.310 6.35546   5
  10   1   6 116.734 6.43980   1
 -10  -1   6 126.358 7.16851   5
 -10  -1   6 134.029 6.90489   1
  10  -1  -6 138.848 7.06338   1
 -10   1  -6 131.642 6.79329   1
  11  -1   6 3.41392 2.93538   1
 -11   1   6 4.61416 3.07990   5
 -11   1   6 2.02362 2.74847   1
  11   1  -6 4.82477 2.92196   1
 -11  -1  -6 3.16862 2.83503   1
  11   1   6 -0.4162 2.63605   1
 -11  -1   6 -2.2944 2.88253   1
 -11  -1   6 2.91169 2.93348   5
 -11   1  -6 0.37252 2.78781   1
 -11   1  -6 5.40459 2.78179   5
  12  -1   6 24.8037 4.06417   1
  12   1  -6 30.6925 4.11209   1
 -12   1   6 20.0248 3.98903   5
 -12   1   6 28.7371 4.05079   1
 -12  -1   6 36.8384 4.30733   5
 -12  -1   6 31.3755 4.39279   1
 -12   1  -6 32.7722 4.05135   5
  12   1   6 25.5828 3.74518   1
 -12   1  -6 19.7290 3.82622   1
 -13   1   6 184.706 9.50445   5
  13   1  -6 175.935 8.82760   1
 -13   1   6 188.260 9.02448   1
 -13   1  -6 181.197 9.22523   1
 -13   1  -6 182.734 8.60736   5
 -13  -1   6 190.261 9.27749   1
 -13  -1   6 186.064 9.15014   5
  13   1   6 188.504 8.81734   1
 -14   1   6 2.93106 3.61954   5
 -14   1   6 -1.7769 3.31190   1
  14   1  -6 1.71889 3.33069   1
 -14   1  -6 -0.4836 3.40948   1
 -14  -1   6 -6.1682 3.25793   1
 -14  -1   6 7.23739 3.61430   5
  14   1   6 -0.6267 3.25276   1
 -15   1   6 7.50833 3.80111   1
  15   1  -6 2.83933 3.56554   1
 -15   1   6 -3.1821 3.50503   5
  15   1   6 7.29315 3.99635   1
 -15  -1   6 4.66107 3.81661   5
 -15   1  -6 -0.4407 3.62462   1
 -16   1   6 65.2735 6.15389   1
 -16   1   6 61.4039 6.28775   5
  16   1  -6 79.0265 6.69333   1
  16   1   6 63.4098 6.39970   1
 -16  -1   6 67.7375 6.95172   5
 -16   1  -6 75.3811 6.60208   1
  17   1  -6 11.8609 4.57426   1
   0   2   6 4.12174 1.25168   5
   0   2   6 1.36438 2.00020   4
   0   2   6 1.10378 1.04650   1
   0   2   6 2.09301 1.56919   3
   0  -2  -6 2.49335 1.45241   3
   0   2  -6 1.38130 1.20921   2
   0   2  -6 4.53390 1.36079   1
   0   2   6 4.02731 1.17973   2
   1   2  -6 280.093 8.31097   2
  -1   2   6 274.147 7.98414   1
  -1   2   6 290.453 8.11999   2
  -1   2   6 282.539 11.3809   4
   1   2  -6 273.416 8.34904   1
  -1   2   6 297.934 8.53295   5
   1  -2   6 290.576 10.6020   3
  -1  -2  -6 306.572 10.1405   3
  -1   2   6 291.546 9.49886   3
   1   2   6 270.731 11.3022   4
   1  -2  -6 320.395 9.55883   3
  -1   2  -6 300.915 8.94377   5
  -1   2  -6 297.858 8.40525   1
   1   2   6 293.041 8.16264   2
  -1  -2   6 278.088 10.5516   3
  -1   2  -6 296.118 8.35950   2
   1   2   6 289.269 10.1166   3
  -2   2   6 59.1521 4.67661   4
  -2   2   6 55.8197 2.91479   2
  -2  -2  -6 53.1842 3.94310   3
   2   2  -6 60.4095 3.16625   2
   2  -2   6 56.1729 4.19701   3
  -2   2   6 57.3943 2.73608   1
  -2   2   6 59.9671 3.43547   5
   2   2  -6 57.7177 3.14130   1
  -2   2  -6 59.9350 3.09198   2
   2   2   6 61.6178 4.50827   4
  -2  -2   6 57.5564 4.29453   3
  -2   2  -6 58.2752 3.61322   5
   2   2   6 56.3496 4.08106   3
  -2   2  -6 58.9522 3.05103   1
   2   2   6 64.5824 2.98674   2
   2   2   6 63.6727 2.80830   1
  -3   2   6 498.160 16.9406   4
   3   2  -6 439.389 12.7777   2
  -3   2   6 454.763 12.5671   2
  -3   2   6 500.543 13.4002   5
  -3   2   6 480.227 12.5773   1
   3  -2   6 461.041 15.6312   3
   3   2  -6 435.964 12.8092   1
  -3  -2  -6 469.301 15.6289   3
   3   2   6 436.162 16.6136   4
   3   2   6 476.221 12.6246   1
  -3   2  -6 459.322 13.2895   5
  -3  -2   6 440.959 15.5421   3
  -3   2  -6 469.394 12.8542   1
   3   2   6 457.140 15.5572   3
  -3   2  -6 463.749 12.7407   2
   3   2   6 465.488 12.6803   2
  -4   2   6 0.12359 1.37629   1
  -4   2   6 0.98298 2.11164   4
  -4   2   6 -0.9911 1.38248   2
  -4  -2  -6 -0.7001 1.83162   3
   4  -2   6 1.83657 1.94568   3
   4   2  -6 -1.2698 1.38772   2
   4   2  -6 -0.9749 1.53620   1
  -4   2   6 -1.9534 1.64917   5
   4   2   6 0.79362 1.37758   2
   4   2   6 -0.5055 1.47026   1
  -4   2  -6 0.37966 1.65353   5
  -4   2  -6 -0.1654 1.47204   2
  -4   2  -6 0.84541 1.54634   1
  -4  -2   6 -0.9729 1.81686   3
   4   2   6 0.23800 1.92659   3
   4   2   6 1.00045 1.78644   4
  -4   2  -6 -1.0524 1.98299   3
  -5   2   6 212.971 6.93617   2
   5  -2   6 212.736 7.16875   1
   5  -2   6 214.310 8.76903   3
   5   2  -6 201.372 7.12216   2
   5   2  -6 211.527 8.66799   3
  -5   2   6 216.412 9.01159   4
  -5  -2  -6 205.400 8.88620   3
  -5   2   6 213.503 7.62271   5
  -5   2   6 220.183 6.87336   1
   5   2  -6 212.522 7.07280   1
  -5   2  -6 216.704 7.01743   1
   5   2   6 184.018 8.46225   4
  -5  -2   6 202.246 8.54283   3
  -5   2  -6 203.919 7.42509   5
  -5  -2   6 199.884 7.24975   1
  -5   2  -6 213.708 7.03936   2
   5   2   6 208.949 6.95931   2
   5   2   6 206.576 8.89906   3
  -5   2  -6 203.309 8.88263   3
   5   2   6 213.650 6.86476   1
  -6   2   6 288.510 8.96488   1
  -6   2   6 286.526 9.79955   5
   6  -2   6 289.265 11.1828   3
   6   2  -6 287.924 9.40215   2
  -6  -2  -6 285.404 11.5227   3
   6   2  -6 302.643 9.32906   1
  -6   2   6 299.658 9.18821   2
  -6   2   6 309.185 11.5625   4
  -6   2  -6 284.099 9.51740   5
  -6   2  -6 293.352 9.21475   1
   6   2   6 288.880 9.19634   2
   6   2   6 270.502 11.0554   4
  -6  -2   6 294.470 9.54756   1
  -6  -2   6 296.195 11.2421   3
  -6   2  -6 278.823 11.2615   3
  -6   2  -6 294.629 9.23991   2
   6   2   6 286.772 9.03993   1
   7   2  -6 157.141 6.48514   2
   7   2  -6 155.055 6.27003   1
  -7   2   6 168.340 6.13330   1
  -7   2   6 154.647 6.90750   5
  -7   2   6 166.812 7.47768   4
   7   2  -6 153.704 6.36259   2
  -7   2   6 147.254 6.14727   2
  -7   2  -6 157.724 6.56695   5
  -7  -2   6 158.487 7.65227   3
  -7   2  -6 156.365 6.31193   2
  -7   2  -6 163.461 7.99392   3
  -7   2  -6 148.644 6.25979   1
   7   2   6 156.669 6.07351   1
   7   2   6 143.547 6.83068   4
   7   2   6 153.167 6.18648   2
  -8   2   6 461.325 13.4576   1
  -8   2   6 440.514 16.3470   4
  -8   2   6 465.328 13.5046   2
  -8   2   6 445.639 14.3091   5
   8   2  -6 450.992 13.6341   1
   8   2  -6 449.481 13.7381   2
  -8   2  -6 437.529 13.7266   5
  -8   2  -6 441.634 13.5240   2
  -8   2  -6 439.065 16.6394   3
  -8   2  -6 434.228 13.5352   1
   8   2   6 453.206 13.5287   2
   8   2   6 457.094 13.4411   1
  -9   2   6 8.36660 2.46977   1
  -9   2   6 8.76578 2.96591   5
   9   2  -6 13.6807 2.89129   2
   9   2  -6 6.17461 2.65699   1
  -9   2   6 16.1361 2.84871   2
  -9   2  -6 7.60253 2.57062   1
  -9   2  -6 9.15344 2.68673   2
  -9   2  -6 6.02134 2.66456   5
   9   2   6 10.2282 2.46391   1
   9   2   6 10.4454 2.63392   2
  10   2  -6 373.258 12.3065   2
  10   2  -6 354.358 12.0557   1
 -10   2   6 355.031 11.8856   1
 -10   2   6 366.292 12.0569   2
 -10   2   6 362.753 12.8903   5
  10   2   6 363.636 11.9683   1
  10   2   6 369.318 12.1502   2
 -10   2  -6 345.309 12.1746   5
 -10   2  -6 361.213 12.0721   2
 -10   2  -6 375.523 12.2002   1
 -11   2   6 5.36568 3.30481   5
 -11   2   6 4.00459 2.72499   1
 -11   2   6 5.60522 2.92199   2
  11   2  -6 1.26097 2.67924   1
 -11   2  -6 7.93040 3.21998   5
  11   2   6 9.25830 3.02705   1
  11   2   6 3.38283 2.87198   2
 -11   2  -6 2.69537 2.83090   1
 -11   2  -6 5.37584 2.92700   2
  12   2  -6 70.0215 5.44277   1
 -12   2   6 69.8316 5.12196   1
 -12   2   6 62.5724 5.59399   5
  12   2   6 86.7670 6.05733   1
 -12   2  -6 75.7877 6.21338   5
 -12  -2   6 70.1064 5.60901   5
 -12   2  -6 72.0236 5.35855   1
 -13   2   6 17.9868 4.24039   5
  13   2  -6 25.0153 4.09250   1
 -13   2   6 22.2697 3.72709   1
 -13  -2   6 16.1112 3.97171   5
 -13   2  -6 21.9521 4.20646   5
 -13   2  -6 24.6379 4.08483   1
  13   2   6 21.3677 3.91312   1
 -14   2   6 -3.0474 3.07627   1
 -14   2   6 -0.9251 3.52529   5
  14   2  -6 -2.4646 3.18153   1
 -14   2  -6 -1.1373 3.27375   1
 -14   2  -6 -4.6209 3.36873   5
  14   2   6 -2.4819 3.30375   1
 -15   2   6 18.2388 4.08582   1
  15   2  -6 25.0799 4.60759   1
 -15   2   6 13.4907 4.55383   5
 -15   2  -6 14.6328 4.28896   5
 -15   2  -6 21.3070 4.45609   1
  15   2   6 19.2329 4.29972   1
 -16   2   6 5.89398 3.97995   5
 -16   2   6 -1.4471 3.61364   1
  16   2  -6 -1.3543 3.81205   1
  16   2   6 -3.7243 3.73370   1
 -16   2  -6 -1.5103 3.82275   1
   0   3  -6 0.61840 1.14586   2
   0   3   6 -0.9186 0.94082   2
   0   3   6 2.24552 1.54494   3
   0  -3   6 0.80813 1.91630   3
   0  -3  -6 -2.1393 1.40208   3
   0   3   6 -0.7408 0.96620   5
   0   3   6 -0.8273 0.99388   2
   0   3   6 0.12048 1.97469   4
  -1   3   6 939.507 24.4840   2
  -1   3   6 985.708 32.8842   4
  -1   3   6 970.866 25.2040   5
   1   3  -6 977.118 24.8607   2
  -1  -3  -6 968.770 29.7722   3
  -1   3   6 946.550 29.0916   3
  -1   3   6 981.200 24.5969   2
   1   3   6 915.255 32.6352   4
   1   3   6 908.793 24.6168   5
  -1   3  -6 963.613 24.8018   2
   1   3   6 989.486 24.5576   2
  -1  -3   6 969.893 30.4880   3
   1  -3  -6 1010.13 29.2342   3
   1   3   6 999.322 24.6152   2
  -1   3  -6 950.312 25.8620   5
   1   3   6 940.919 29.7187   3
   2   3  -6 6.31226 1.45417   2
   2  -3   6 2.57777 1.85162   3
  -2   3   6 4.10071 1.20914   2
  -2  -3  -6 6.44598 2.03420   3
   2   3  -6 4.57628 1.12883   1
  -2   3   6 7.14788 2.40477   4
  -2   3   6 4.70087 1.52868   5
  -2   3   6 4.38712 1.26847   2
   2   3   6 4.59767 1.16273   2
   2   3   6 3.89037 2.08440   4
  -2   3  -6 4.50024 1.36879   2
   2   3   6 5.27075 1.93840   3
  -2  -3   6 4.38053 1.98940   3
  -2   3  -6 3.48879 1.75617   5
   2   3   6 5.55904 1.21127   2
  -3   3   6 305.978 9.35709   5
  -3   3   6 323.281 12.4021   4
  -3   3   6 285.223 8.61186   2
  -3  -3  -6 305.748 11.2262   3
   3   3  -6 306.232 8.59052   1
   3  -3   6 300.065 11.2651   3
   3   3  -6 298.296 9.02919   2
  -3   3  -6 307.801 8.92210   2
   3   3   6 282.843 11.9163   4
  -3   3  -6 305.727 8.54391   1
   3   3   6 313.068 8.79545   2
   3   3   6 298.539 11.1392   3
  -3   3  -6 315.006 9.84070   5
  -3  -3   6 294.612 11.4682   3
  -4  -3  -6 2.20845 1.94910   3
  -4   3   6 3.79316 1.84305   5
  -4   3   6 3.60289 1.48836   2
   4   3  -6 1.95454 1.53761   2
   4   3  -6 3.03074 1.41170   1
  -4   3   6 3.16918 2.38019   4
   4  -3   6 -0.5939 1.83465   3
  -4   3  -6 3.59066 1.97661   5
  -4  -3   6 1.31918 2.05120   3
   4   3   6 4.31638 1.53403   2
  -4   3  -6 1.97080 1.50031   2
  -4   3  -6 4.13121 1.32912   1
   4   3   6 2.63838 1.93390   4
  -5  -3  -6 728.465 24.1348   3
   5   3  -6 723.302 19.8826   2
  -5   3   6 773.644 25.8314   4
  -5   3   6 691.707 19.4997   2
  -5   3   6 722.758 20.5185   5
   5  -3   6 710.408 23.9317   3
   5   3  -6 740.038 19.6589   1
  -5   3  -6 772.941 19.6576   1
   5   3   6 747.693 19.2597   1
  -5   3  -6 725.300 20.5716   5
   5   3   6 690.854 25.1471   4
   5   3   6 720.218 19.6321   2
  -5   3  -6 756.589 19.7719   2
  -6   3   6 167.350 6.18458   2
  -6   3   6 162.560 6.94035   5
   6   3  -6 162.962 6.46757   2
  -6   3   6 163.986 5.53465   1
  -6   3   6 169.706 8.20754   4
   6   3  -6 172.008 6.10882   1
  -6   3  -6 166.874 6.35122   2
   6   3   6 159.041 7.52008   4
  -6   3  -6 152.874 6.96120   5
   6   3   6 162.179 5.70343   1
   6   3   6 162.829 6.15473   2
  -6   3  -6 173.600 6.04056   1
   7   3  -6 343.952 10.6077   1
  -7   3   6 327.368 11.5394   5
  -7   3   6 339.044 10.6788   2
  -7   3   6 344.817 10.2084   1
   7   3  -6 340.939 11.0421   2
  -7   3   6 364.948 13.8588   4
  -7   3  -6 342.952 10.8621   2
   7   3   6 343.657 10.7254   2
  -7   3  -6 323.166 11.3797   5
   7   3   6 341.192 10.2880   1
  -7   3  -6 364.775 10.6781   1
  -8   3   6 9.43411 3.11127   4
  -8   3   6 6.39800 2.34946   2
  -8   3   6 4.95594 2.66830   5
   8   3  -6 9.35011 2.46256   2
   8   3  -6 9.81112 2.53404   2
   8   3  -6 6.26610 2.19982   1
  -8   3   6 7.75326 2.06114   1
   8   3   6 5.93423 2.06335   1
  -8   3  -6 5.97281 2.14035   1
  -8   3  -6 7.32363 2.42206   2
   8   3   6 9.79415 2.38565   2
  -8   3  -6 9.42263 2.82762   5
   9   3  -6 245.337 9.24535   2
  -9   3   6 247.881 8.57105   1
  -9   3   6 256.472 9.16569   2
   9   3  -6 232.857 8.82483   1
  -9   3   6 232.830 9.84772   5
  -9   3   6 259.112 11.1123   4
  -9   3  -6 238.993 9.67034   5
   9   3   6 248.110 9.00439   2
   9   3   6 248.182 8.63306   1
  -9   3  -6 259.857 8.90055   1
  -9   3  -6 248.114 9.11831   2
  10   3  -6 110.500 6.25608   2
 -10   3   6 101.546 5.69703   1
 -10   3   6 101.800 6.03487   2
  10   3  -6 88.3895 5.71460   1
 -10   3   6 104.925 7.12199   5
 -10   3  -6 106.274 5.94335   1
 -10   3  -6 104.012 6.13538   2
  10   3   6 105.081 6.07131   2
  10   3   6 105.263 5.64323   1
 -10   3  -6 110.592 6.81552   5
  11   3  -6 5.34302 2.75433   1
 -11   3   6 3.75950 2.56596   1
  11   3  -6 -0.3741 2.77774   2
 -11   3   6 5.43010 2.96501   2
 -11   3   6 1.76674 3.37640   5
  11   3   6 5.35169 2.78945   1
 -11   3  -6 -1.0691 2.76138   2
  11   3   6 -0.8593 2.76310   2
 -11   3  -6 1.78316 2.62637   1
 -11   3  -6 1.23394 3.22678   5
  12   3  -6 20.6075 3.67917   1
  12   3  -6 20.4316 3.82457   2
 -12   3   6 32.6719 4.31670   2
 -12   3   6 15.0596 4.11507   5
 -12   3   6 15.1311 3.23599   1
  12   3   6 16.5092 3.70039   2
 -12   3  -6 19.0646 3.85635   2
 -12   3  -6 18.4123 3.57144   1
 -12   3  -6 24.8505 4.24593   5
  12   3   6 18.7556 3.42427   1
 -13   3   6 148.891 8.25336   2
 -13   3   6 141.687 8.85769   5
  13   3  -6 132.221 7.79521   1
 -13   3   6 140.483 7.43855   1
 -13   3  -6 149.120 7.77882   1
 -13   3  -6 146.319 8.52648   5
  13   3   6 150.453 7.81947   1
  14   3  -6 1.20010 3.29738   1
 -14   3   6 -0.2418 2.98911   1
 -14   3   6 -0.9397 3.75545   5
 -14   3  -6 -3.5806 2.97452   1
 -14   3  -6 -3.1974 3.58534   5
  14   3   6 -1.3706 3.25149   1
 -15   3   6 3.87035 3.25523   1
 -15   3   6 3.30283 4.19769   5
  15   3  -6 3.70874 3.54331   1
 -15   3  -6 1.05369 3.97310   5
 -15   3  -6 -2.6141 3.20245   1
  15   3   6 6.86876 3.81903   1
  16   3  -6 60.5230 5.91446   1
   0   4  -6 1889.71 47.7662   2
   0  -4  -6 1998.07 57.1269   3
   0   4   6 1895.87 47.4465   2
   0   4   6 1881.75 47.3831   2
   0   4   6 1874.52 56.8921   3
   0   4   6 1856.17 62.6128   4
  -1  -4  -6 2041.94 59.5689   3
  -1   4   6 1969.82 65.0652   4
   1   4  -6 2006.14 49.7395   2
  -1   4   6 2014.90 49.4250   2
  -1   4   6 2016.64 50.6478   5
   1  -4   6 1998.41 60.3391   3
  -1   4   6 1927.90 49.2487   2
  -1   4  -6 1947.23 51.4140   5
   1   4   6 1879.54 59.2576   3
   1   4   6 1914.30 64.8783   4
   1   4   6 2011.10 49.3366   2
  -1   4  -6 1965.19 49.6510   2
   2  -4   6 42.2135 4.02137   3
   2   4  -6 37.1670 2.77789   2
  -2   4   6 38.6565 4.21965   4
  -2  -4  -6 46.6406 4.09146   3
  -2   4   6 38.6433 2.44554   2
  -2   4   6 43.4268 3.09690   5
   2   4   6 37.9894 4.16753   4
  -2   4  -6 40.2703 3.39984   5
  -2   4  -6 39.4629 2.73935   2
   2   4   6 43.3340 4.03699   3
   2   4   6 35.8292 2.42141   2
  -3   4   6 46.7664 4.57047   4
  -3  -4  -6 49.2196 4.40060   3
   3   4  -6 37.0088 3.00245   2
  -3   4   6 39.6888 2.64102   2
  -3   4   6 37.0380 2.95099   5
   3   4   6 39.5140 4.24638   4
  -3   4  -6 42.5604 2.94569   2
  -3   4  -6 39.0798 3.51895   5
   3   4   6 43.0763 2.74947   2
  -4   4   6 186.859 9.38872   4
  -4   4   6 197.906 7.20312   5
   4   4  -6 196.073 6.71922   2
  -4   4   6 183.840 6.24186   2
  -4   4  -6 197.887 6.60626   2
   4   4   6 191.941 6.38278   2
   4   4   6 188.331 8.95083   4
  -4   4  -6 194.178 7.66648   5
   5   4  -6 18.7631 2.35246   2
  -5   4   6 25.3473 3.89199   4
  -5   4   6 24.6829 2.99107   5
  -5   4   6 21.4973 2.25128   2
   5   4   6 22.6044 2.27568   2
   5   4   6 21.4141 3.32337   4
  -5   4  -6 20.7295 2.34822   2
  -5   4  -6 17.7884 2.90812   5
  -6   4   6 3.56351 2.93744   4
   6   4  -6 3.30960 1.97349   2
  -6   4   6 3.48073 2.31400   5
  -6   4   6 1.10753 1.80074   2
   6   4   6 1.40291 2.10792   4
  -6   4  -6 3.33910 2.53019   5
  -6   4  -6 1.50633 1.85645   2
   6   4   6 5.99581 1.93717   2
   7   4  -6 381.693 12.1642   2
  -7   4   6 397.522 15.8779   4
  -7   4   6 384.157 11.7074   2
   7   4  -6 382.108 11.0901   1
  -7   4   6 387.944 12.8922   5
  -7   4  -6 393.849 12.9891   5
   7   4   6 380.438 11.8538   2
  -7   4  -6 387.199 11.9541   2
  -8   4   6 487.039 15.8734   5
   8   4  -6 498.549 15.1790   2
   8   4  -6 524.828 15.3272   2
  -8   4   6 504.136 19.2265   4
  -8   4   6 500.377 14.6866   2
   8   4  -6 484.787 14.1015   1
  -8   4  -6 482.247 14.8493   2
  -8   4  -6 503.594 16.0302   5
   8   4   6 466.756 14.6996   2
  -8   4  -6 503.901 14.0045   1
  -9   4   6 1195.54 32.2555   2
  -9   4   6 1241.21 41.3743   4
  -9   4   6 1156.05 33.5676   5
   9   4  -6 1178.85 32.5941   2
   9   4  -6 1196.70 31.9326   1
  -9   4  -6 1219.44 33.6894   5
  -9   4  -6 1244.29 31.9053   1
   9   4   6 1213.27 32.4072   2
  -9   4  -6 1186.89 32.4077   2
   9   4   6 1197.16 31.4304   1
  10   4  -6 2.97375 2.63365   2
 -10   4   6 1.81941 2.66753   2
 -10   4   6 -2.8194 1.88934   1
  10   4  -6 1.85259 2.23244   1
 -10   4   6 -2.6335 3.04696   5
 -10   4  -6 -2.5663 2.51799   2
 -10   4  -6 0.11856 3.21468   5
  10   4   6 -2.3850 2.07087   1
  10   4   6 0.65660 2.50130   2
 -10   4  -6 0.37785 2.22740   1
  11   4  -6 3.57019 2.68525   1
 -11   4   6 4.48181 3.08285   2
  11   4  -6 7.61025 3.00392   2
 -11   4   6 2.35457 3.56496   5
 -11   4   6 1.85247 2.25293   1
  11   4   6 1.21280 2.34665   1
 -11   4  -6 1.97960 2.46292   1
  11   4   6 5.56329 2.88049   2
 -11   4  -6 5.05137 3.81276   5
 -11   4  -6 -2.3318 2.80710   2
  12   4  -6 4.21445 2.77595   1
 -12   4   6 6.13638 3.38438   2
 -12   4   6 0.03286 3.72020   5
 -12   4   6 4.73328 2.59783   1
  12   4  -6 1.50061 2.91044   2
  12   4   6 2.02967 2.66612   1
 -12   4  -6 3.01131 2.83468   1
 -12   4  -6 3.51239 3.21037   2
  12   4   6 3.05369 3.05316   2
 -12   4  -6 -2.7272 3.52650   5
 -13   4   6 10.5030 4.16129   5
 -13   4   6 6.12066 2.98107   1
  13   4  -6 1.90264 2.96019   1
 -13   4   6 1.74559 3.43694   2
  13   4  -6 6.30244 3.50707   2
 -13   4  -6 2.64537 3.41426   2
 -13   4  -6 4.09628 2.94325   1
  13   4   6 7.08357 3.55251   2
 -13   4  -6 3.51740 3.99483   5
  13   4   6 -0.4530 2.83142   1
  14   4  -6 6.39138 3.36573   1
 -14   4   6 14.0117 4.37691   5
 -14   4   6 5.20743 2.97145   1
 -14   4   6 5.92334 3.85110   2
 -14   4  -6 5.48831 3.28865   1
 -14   4  -6 7.88681 4.36869   5
  14   4   6 7.68015 3.29486   1
 -15   4   6 8.86150 3.32475   1
 -15   4   6 1.01052 4.23794   5
  15   4  -6 3.52967 3.38004   1
  15   4   6 1.02189 3.35722   1
 -15   4  -6 1.41255 4.13099   5
 -15   4  -6 1.16657 3.40109   1
   0   5  -6 -1.0459 1.21914   2
   0   5   6 2.49544 2.70437   4
  -1   5   6 533.539 20.4773   4
   1   5  -6 527.273 14.3842   2
  -1   5  -6 525.023 14.3648   2
  -1   5  -6 528.927 15.9389   5
   1   5   6 534.703 13.9307   2
   1   5   6 529.696 20.3639   4
  -2   5   6 2.35532 2.73163   4
   2   5  -6 1.34894 1.41701   2
  -2   5   6 4.10627 1.30658   2
   2   5   6 2.80411 2.68472   4
  -2   5  -6 1.76739 2.22708   5
   2   5   6 2.99086 1.29612   2
  -2   5  -6 -0.4218 1.37618   2
   3   5  -6 213.560 7.04184   2
  -3   5   6 213.435 10.7083   4
  -3   5   6 209.571 6.61228   2
  -3   5   6 221.564 7.83967   5
  -3   5  -6 207.940 6.93379   2
   3   5   6 213.710 6.72417   2
   3   5   6 218.304 10.4062   4
  -3   5  -6 221.931 8.52536   5
  -4   5   6 -2.5014 1.94047   5
  -4   5   6 2.59545 1.54921   2
  -4   5   6 1.39916 2.83957   4
   4   5  -6 -0.9913 1.48332   2
   4   5   6 1.73380 1.54250   2
  -4   5  -6 0.59646 1.60213   2
  -4   5  -6 2.29446 2.36874   5
   4   5   6 3.38758 2.49335   4
  -5   5   6 528.933 15.1568   2
   5   5  -6 544.815 15.6699   2
  -5   5   6 569.248 16.7110   5
  -5   5   6 529.139 21.2705   4
  -5   5  -6 560.031 15.5281   2
   5   5   6 559.573 15.3264   2
   5   5   6 559.852 20.8166   4
  -5   5  -6 546.422 17.0455   5
  -6   5   6 137.278 6.86095   5
   6   5  -6 124.346 5.82088   2
  -6   5   6 128.805 5.55132   2
  -6   5   6 142.391 8.71440   4
   6   5   6 128.330 5.57510   2
  -6   5  -6 133.894 7.29238   5
  -6   5  -6 130.027 5.73960   2
   6   5   6 133.267 7.63875   4
  -7   5   6 214.614 11.1013   4
   7   5  -6 214.630 8.08780   2
  -7   5   6 206.448 7.60611   2
  -7   5   6 214.597 9.12207   5
   7   5   6 214.048 7.83102   2
  -7   5  -6 216.283 9.34724   5
  -7   5  -6 211.732 7.91833   2
   8   5  -6 4.80517 2.43642   2
  -8   5   6 2.45316 3.44240   4
   8   5  -6 0.92935 2.39461   2
  -8   5   6 -0.5923 2.88966   5
  -8   5   6 2.26212 2.33729   2
   8   5   6 3.22088 2.32795   2
  -8   5  -6 2.11152 3.10280   5
  -8   5  -6 7.26761 2.56630   2
  -9   5   6 168.698 9.98256   4
  -9   5   6 168.575 8.82310   5
  -9   5   6 161.499 7.19308   2
   9   5  -6 169.632 7.67828   2
   9   5   6 162.711 7.41001   2
  -9   5  -6 190.911 9.19436   5
  -9   5  -6 167.952 7.62202   2
 -10   5   6 66.0427 4.90443   2
  10   5  -6 72.2657 5.77491   2
 -10   5   6 68.9944 6.24181   5
  10   5   6 68.7837 5.06572   2
 -10   5  -6 72.4772 6.08305   5
 -10   5  -6 75.1977 5.75856   2
 -11   5   6 1.54357 3.06516   2
 -11   5   6 -0.6875 3.60547   5
  11   5  -6 8.76664 3.12956   2
 -11   5  -6 1.98217 2.95656   2
 -11   5  -6 6.52895 3.98765   5
  11   5   6 1.48840 2.94088   2
 -12   5   6 24.8884 5.06617   5
 -12   5   6 22.3430 4.08780   2
  12   5  -6 23.1615 3.90376   2
  12   5   6 17.5190 3.68762   2
 -12   5  -6 17.3237 3.83409   2
 -12   5  -6 24.4775 5.03278   5
 -13   5   6 120.581 7.91073   2
  13   5  -6 135.948 8.38730   2
 -13   5   6 136.201 9.49064   5
 -13   5  -6 137.755 9.62446   5
 -13   5  -6 133.593 8.15344   2
  13   5   6 135.314 8.17459   2
   0   6  -6 2.11255 1.43879   2
   0   6   6 -0.9839 2.60019   4
  -1   6   6 132.943 8.52462   4
   1   6  -6 128.247 4.92705   2
   1   6   6 129.151 8.45287   4
  -1   6  -6 126.941 4.84661   2
  -2   6   6 15.6243 3.89863   4
   2   6  -6 17.8728 2.08255   2
  -2   6  -6 15.6140 1.97544   2
   2   6   6 12.9979 3.65347   4
  -2   6  -6 14.1417 3.00387   5
  -3   6   6 160.052 9.70365   4
   3   6  -6 155.118 6.01968   2
  -3   6   6 169.480 5.57002   2
   3   6   6 159.663 9.35456   4
  -3   6  -6 165.521 7.85286   5
  -3   6  -6 162.797 5.93386   2
   3   6   6 169.286 5.64083   2
   4   6  -6 -0.3675 1.68563   2
  -4   6   6 -0.5478 1.58249   2
  -4   6   6 -0.8678 3.08694   4
   4   6   6 1.41057 2.80437   4
  -4   6  -6 1.32303 1.65442   2
  -4   6  -6 -1.9195 2.53857   5
   4   6   6 1.87608 1.64965   2
  -5   6   6 82.8715 4.24383   2
   5   6  -6 75.8194 4.51630   2
  -5   6   6 78.0113 5.60558   5
  -5   6   6 84.5651 7.54507   4
  -5   6  -6 76.9071 4.40329   2
  -5   6  -6 81.7567 6.45683   5
   5   6   6 75.8034 4.33688   2
   5   6   6 81.6717 6.80715   4
  -6   6   6 103.926 8.47342   4
  -6   6   6 110.481 6.66240   5
   6   6  -6 102.009 5.43966   2
  -6   6   6 105.062 5.04973   2
  -6   6  -6 101.363 7.23858   5
   6   6   6 107.345 5.18980   2
  -6   6  -6 100.667 5.21964   2
   7   6  -6 69.6223 4.94767   2
  -7   6   6 73.8814 5.74228   5
  -7   6   6 68.7413 4.70625   2
  -7   6   6 71.2268 7.03051   4
  -7   6  -6 69.2771 4.86986   2
  -7   6  -6 72.4043 5.85781   5
   7   6   6 64.8119 4.73969   2
  -8   6   6 159.950 6.76287   2
   8   6  -6 161.929 7.37693   2
  -8   6   6 155.403 8.57704   5
  -8   6   6 169.358 10.4142   4
  -8   6  -6 158.437 9.00463   5
  -8   6  -6 162.516 7.12475   2
   8   6   6 149.618 6.98658   2
  -9   6   6 10.2408 4.40155   4
   9   6  -6 6.64826 2.78861   2
  -9   6   6 11.4613 2.89517   2
  -9   6   6 18.4877 4.08783   5
  -9   6  -6 6.55121 3.77958   5
  -9   6  -6 3.56798 2.74424   2
   9   6   6 8.13039 2.85679   2
  10   6  -6 158.006 7.85272   2
 -10   6   6 155.193 9.45926   5
 -10   6   6 158.327 7.53182   2
 -10   6  -6 161.218 7.76069   2
  10   6   6 157.094 7.72049   2
 -10   6  -6 179.126 9.70537   5
 -11   6   6 4.44677 3.08476   2
 -11   6   6 -0.7640 3.97253   5
  11   6  -6 -1.1508 2.84618   2
  11   6   6 11.0603 3.14996   2
 -11   6  -6 5.94057 4.10910   5
 -11   6  -6 8.99900 3.34306   2
 -12   6   6 25.8624 4.33393   2
 -12   6   6 40.0049 5.94872   5
  12   6  -6 36.8269 4.52699   2
 -12   6  -6 27.3332 4.30750   2
 -12   6  -6 31.7557 5.69186   5
  12   6   6 24.6443 4.02842   2
   0   7   6 -4.9527 3.06780   4
   0   7  -6 -0.5791 1.45168   2
  -1   7   6 337.128 15.4817   4
   1   7  -6 315.188 9.56865   2
   1   7   6 306.735 15.0399   4
  -1   7  -6 315.968 9.48294   2
  -2   7   6 1.04143 3.43309   4
   2   7  -6 0.60041 1.62035   2
   2   7   6 -1.1005 3.19022   4
  -2   7  -6 -0.0883 1.58897   2
   3   7  -6 102.052 4.90742   2
  -3   7   6 100.716 8.52629   4
  -3   7  -6 107.599 6.95741   5
   3   7   6 99.8335 8.16551   4
  -3   7  -6 104.206 4.69350   2
  -4   7   6 2.89807 3.71913   4
  -4   7   6 -0.2638 1.73166   2
   4   7  -6 3.44402 1.97507   2
  -4   7  -6 2.15372 1.75501   2
   4   7   6 3.87228 1.81822   2
  -4   7  -6 0.11587 3.02127   5
   4   7   6 1.45878 3.17000   4
   5   7  -6 247.356 8.78924   2
  -5   7   6 263.764 13.6269   4
  -5   7   6 253.326 8.17715   2
  -5   7  -6 243.422 8.50232   2
  -5   7  -6 259.426 10.9549   5
   5   7   6 257.217 8.36666   2
   5   7   6 249.626 13.7176   4
  -6   7   6 58.4578 6.84871   4
   6   7  -6 49.0381 4.07847   2
  -6   7   6 64.4479 4.20213   2
  -6   7  -6 61.1897 4.43405   2
   6   7   6 60.4351 4.36721   2
  -6   7  -6 63.8893 5.89872   5
  -7   7   6 136.487 6.05225   2
   7   7  -6 132.881 6.51898   2
   7   7  -6 129.998 6.46675   2
  -7   7   6 139.927 10.2417   4
  -7   7  -6 137.620 8.74578   5
   7   7   6 138.904 6.31381   2
  -7   7  -6 138.535 6.33881   2
  -8   7   6 9.68147 2.58812   2
   8   7  -6 9.17193 2.67305   2
  -8   7   6 6.57597 4.02683   5
  -8   7   6 0.01228 4.18807   4
  -8   7  -6 6.91661 3.80340   5
  -8   7  -6 0.76918 2.36001   2
   8   7   6 1.49562 2.38020   2
  -9   7   6 114.564 8.62823   5
  -9   7   6 89.4127 9.00420   4
  -9   7   6 94.9111 5.90738   2
   9   7  -6 104.967 6.26216   2
   9   7   6 100.316 6.17509   2
  -9   7  -6 100.712 6.10941   2
  -9   7  -6 98.6289 7.64560   5
   0   8  -6 560.771 15.4152   2
   0   8   6 540.949 23.3638   4
   1   8  -6 580.354 16.0685   2
  -1   8   6 563.384 24.1695   4
   1   8   6 579.147 24.1497   4
  -1   8  -6 577.344 15.9711   2
   2   8  -6 13.2846 2.21616   2
   2   8   6 13.3634 4.33090   4
  -2   8  -6 5.21538 2.09624   2
   3   8  -6 21.4436 2.62644   2
   3   8   6 20.6795 4.91677   4
  -3   8  -6 20.1915 2.38187   2
   4   8  -6 60.7907 4.47882   2
  -4   8  -6 59.8936 4.16608   2
   4   8   6 53.6543 6.71445   4
  -4   8  -6 66.4947 6.08133   5
   5   8  -6 10.2447 2.56646   2
   5   8   6 11.7055 2.38094   2
  -5   8  -6 7.94572 3.88708   5
  -5   8  -6 8.61252 2.33482   2
   0   0  -7 0.17028 1.53214   1
   0   0   7 1.76366 1.60388   1
   0   0   7 2.02345 1.49840   2
   0   0   7 1.89490 1.83552   3
   0   0  -7 1.98144 1.43397   2
   0   0  -7 -0.0233 1.73071   3
   1   0  -7 153.651 5.36259   1
  -1   0   7 152.169 6.28285   3
   1   0   7 144.310 6.54721   3
  -1   0  -7 144.301 6.47709   3
   1   0   7 143.468 5.23839   2
   1   0  -7 146.760 5.17290   2
  -1   0  -7 154.406 5.36087   1
   1   0   7 151.714 5.38786   1
  -1   0   7 155.332 5.41290   1
  -2   0   7 0.61782 1.62564   1
   2   0  -7 1.37455 1.47716   2
  -2   0   7 0.19325 1.52322   2
  -2   0  -7 2.36292 1.94668   3
  -2   0  -7 1.27018 1.58011   1
   2   0  -7 1.89461 1.60824   1
   2   0   7 1.07946 1.59690   1
   2   0   7 -0.9671 1.90727   3
  -2   0   7 3.26361 1.83508   3
   2   0   7 2.16654 1.58514   2
  -2   0  -7 0.77717 1.51260   2
  -3   0   7 367.237 10.3325   2
   3   0   7 340.362 12.5659   3
  -3   0  -7 361.971 10.3441   2
  -3   0   7 365.713 10.5161   1
  -3   0  -7 363.882 10.1157   5
   3   0   7 350.631 10.4245   1
  -3   0   7 365.357 11.6861   3
   3   0  -7 374.358 10.5045   1
  -3   0  -7 337.396 10.3673   1
  -3   0  -7 342.492 12.5608   3
   3   0   7 358.066 10.3733   2
  -4   0  -7 4128.04 103.430   5
   4   0   7 4029.90 103.908   1
  -4   0   7 4070.00 103.947   1
  -4   0  -7 3955.22 121.479   3
  -4   0   7 4268.04 120.531   3
   4   0  -7 4175.10 103.943   1
   4   0   7 4128.28 102.426   2
   4   0  -7 4252.51 102.436   2
  -4   0   7 4266.67 102.457   2
  -4   0  -7 3956.33 103.922   1
  -4   0  -7 4079.03 102.367   2
   4   0   7 3983.57 121.446   3
   5   0  -7 1436.05 37.7060   1
  -5   0   7 1489.81 43.2533   3
  -5   0  -7 1458.67 37.1314   2
   5   0   7 1426.68 44.3314   3
   5   0   7 1420.60 37.2033   2
  -5   0   7 1479.14 37.1795   2
  -5   0   7 1456.53 37.7453   1
   5   0  -7 1492.66 37.2513   2
  -5   0  -7 1413.63 44.3759   3
   5   0   7 1426.36 37.6887   1
  -5   0  -7 1427.16 37.1405   5
  -5   0  -7 1387.36 37.6377   1
  -6   0  -7 24.2190 2.62247   1
   6   0  -7 24.5448 2.69931   1
   6   0   7 22.1007 3.07347   3
  -6   0   7 23.9636 2.49802   3
  -6   0  -7 20.2550 3.17290   3
  -6   0  -7 25.6100 2.61880   2
   6   0   7 19.7440 2.56153   1
   6   0  -7 25.1768 2.55045   2
   6   0   7 25.4561 2.60531   2
   6   0  -7 24.7016 2.66525   2
  -6   0   7 21.1952 2.51956   2
  -6   0  -7 25.4597 2.34737   5
  -6   0   7 23.9206 2.69960   1
  -7   0   7 390.613 13.0983   3
  -7   0   7 395.056 12.0280   1
   7   0  -7 406.801 11.9137   2
   7   0   7 389.717 12.0345   1
  -7   0  -7 375.687 14.3585   3
  -7   0   7 394.295 11.8725   2
   7   0  -7 395.531 12.0823   1
   7   0  -7 397.980 13.1875   3
  -7   0  -7 365.598 11.6655   2
  -7   0  -7 387.357 11.3755   5
  -7   0   7 391.224 14.2452   4
  -7   0  -7 394.034 12.0815   1
   7   0   7 381.843 11.8821   2
  -8   0   7 8.26232 2.48118   1
   8   0   7 5.41540 2.32395   1
  -8   0  -7 5.76522 2.38066   1
  -8   0   7 8.49101 2.28494   3
   8   0  -7 6.80195 2.13064   3
   8   0  -7 5.37276 2.43306   1
  -8   0  -7 3.16239 1.94228   5
  -8   0   7 3.69611 2.32479   2
   9   0  -7 47.3787 4.07397   1
   9   0   7 58.7977 4.69573   1
  -9   0   7 47.0978 4.35527   5
  -9   0  -7 48.5352 3.55688   5
  -9   0  -7 53.7841 4.25017   1
  -9   0   7 47.8092 4.32573   1
 -10   0   7 121.021 6.74618   1
  10   0   7 119.871 6.54316   1
 -10   0   7 117.803 7.08337   5
 -10   0  -7 125.912 6.86499   1
 -10   0  -7 120.875 6.22230   5
  10   0  -7 140.279 6.90678   1
 -11   0  -7 612.435 18.5284   1
  11   0  -7 613.819 18.4695   1
 -11   0   7 577.290 18.2802   1
 -11   0   7 592.377 18.7149   5
  11   0   7 604.808 18.3878   1
 -12   0   7 187.036 9.10873   5
  12   0   7 178.464 8.72907   1
  12   0  -7 193.247 8.85463   1
 -12   0   7 201.866 9.03153   1
 -12   0  -7 191.132 9.09791   1
 -13   0   7 131.394 7.96029   5
  13   0  -7 120.072 7.67944   1
  13   0   7 121.268 7.59491   1
 -13   0  -7 124.304 8.08430   1
 -13   0   7 126.264 7.76559   1
  14   0  -7 208.324 9.70918   1
 -14   0   7 168.289 9.48083   5
 -14   0  -7 192.995 10.0131   1
  14   0   7 195.655 9.38128   1
 -14   0   7 193.601 9.66549   1
  15   0  -7 17.2960 4.47669   1
 -15   0   7 6.79092 3.91730   1
  15   0   7 8.52237 4.03828   1
 -15   0  -7 2.87543 4.00848   1
 -15   0   7 7.92237 3.95994   5
 -16   0   7 18.1317 4.50993   1
 -16   0  -7 24.6986 5.12071   1
  16   0  -7 22.5773 4.96192   1
  16   0   7 8.89195 4.58065   1
 -16   0   7 28.5632 4.94172   5
   0   1   7 364.350 10.0581   2
   0   1   7 353.670 10.1691   1
   0  -1   7 352.260 12.4219   3
   0  -1  -7 378.228 11.9175   3
   0  -1   7 365.898 10.3231   1
   0   1   7 364.565 11.9889   3
   0   1  -7 329.900 10.2514   1
   0   1  -7 355.268 10.1290   2
   1  -1   7 467.928 13.2975   1
   1   1  -7 478.240 13.1184   2
  -1  -1  -7 485.427 15.6393   3
  -1   1   7 514.420 15.3020   3
  -1   1   7 468.228 13.1537   1
  -1   1   7 487.742 13.0087   2
   1   1  -7 451.133 13.2994   1
   1  -1   7 477.546 16.0392   3
   1   1   7 462.419 13.1796   1
  -1   1  -7 483.193 13.0900   2
   1  -1  -7 508.682 15.1493   3
  -1   1  -7 465.473 13.3050   1
   1   1   7 479.871 15.7261   3
   1   1   7 479.948 13.0607   2
  -1  -1   7 496.054 13.3916   1
   2  -1   7 76.1827 5.03487   3
  -2   1   7 89.1306 4.08578   3
   2  -1   7 88.4087 3.95987   1
   2   1  -7 83.5133 3.89198   2
  -2   1   7 85.8742 3.76002   2
  -2  -1  -7 76.0342 4.80071   3
   2   1  -7 80.1032 3.94550   1
  -2   1   7 82.6447 3.85892   1
  -2   1  -7 81.4048 5.14799   3
   2   1   7 91.7360 3.95249   1
  -2   1  -7 87.8943 3.96295   1
  -2  -1   7 88.1251 4.01290   1
   2   1   7 88.3237 3.83842   2
   2   1   7 89.7697 5.02323   3
  -2   1  -7 80.2568 4.01067   5
  -2   1  -7 91.6498 3.91160   2
  -3  -1  -7 337.476 12.4823   3
   3  -1   7 355.070 12.7874   3
  -3   1   7 364.803 10.3550   1
  -3   1   7 364.397 10.2213   2
   3  -1   7 355.834 10.4725   1
   3   1  -7 341.401 10.4210   1
  -3   1   7 416.578 14.2126   4
   3   1  -7 359.789 10.3643   2
  -3   1   7 376.171 11.3330   3
  -3  -1  -7 327.531 10.2903   1
  -3   1  -7 348.668 10.3825   5
  -3  -1   7 354.413 12.1400   3
   3   1   7 349.859 10.2578   2
   3   1   7 332.812 12.4361   3
   3  -1  -7 365.670 10.4403   1
  -3   1  -7 353.153 10.2893   2
  -3  -1   7 375.206 10.5838   1
   3   1   7 361.144 10.3990   1
  -3   1  -7 335.187 12.6362   3
  -3   1  -7 340.883 10.4272   1
   4   1  -7 173.597 6.25697   2
   4  -1   7 175.713 7.74347   3
  -4   1   7 177.471 6.23300   1
   4  -1   7 180.008 6.37658   1
  -4   1   7 189.008 8.11961   4
  -4  -1  -7 172.118 6.18863   1
   4   1  -7 191.571 6.42566   1
  -4   1   7 177.428 6.09078   2
  -4  -1  -7 170.401 7.70306   3
  -4   1  -7 177.857 6.23445   5
  -4  -1   7 174.191 6.39741   1
  -4   1  -7 161.737 7.75087   3
  -4  -1   7 177.589 7.20305   3
   4  -1  -7 188.799 6.31826   1
   4   1   7 179.901 6.16309   2
  -4   1  -7 174.839 6.16920   2
   4   1   7 173.353 7.72250   3
  -4   1  -7 175.991 6.30873   1
   4   1   7 175.999 6.14014   1
  -5   1   7 661.791 17.8777   2
  -5   1   7 695.743 22.8254   4
   5  -1   7 634.107 21.5561   3
  -5  -1  -7 658.240 17.1796   5
   5   1  -7 664.644 18.0081   2
   5  -1   7 658.027 18.1779   1
  -5  -1  -7 647.736 18.1296   1
  -5   1   7 638.220 18.0367   1
   5  -1   7 655.239 18.3300   2
  -5  -1  -7 627.553 21.6227   3
   5   1  -7 677.759 18.2086   1
   5  -1  -7 689.603 18.2259   1
  -5   1  -7 633.571 21.6729   3
  -5  -1   7 671.418 21.0156   3
  -5   1  -7 653.443 18.1589   1
  -5   1  -7 648.149 17.9913   5
   5   1   7 661.028 18.0846   1
  -5   1  -7 663.770 17.8935   2
   5   1   7 655.558 17.9100   2
   5   1   7 634.212 21.6031   3
  -5  -1   7 658.250 17.8709   2
  -5  -1   7 639.268 18.2310   1
   6   1  -7 17.6563 2.58546   3
   6   1  -7 19.0604 2.42833   2
  -6   1   7 18.5384 2.71477   4
  -6   1   7 13.1628 2.28545   1
  -6  -1  -7 11.0768 2.70079   3
  -6  -1  -7 17.6767 2.44490   1
   6   1  -7 12.3481 2.30507   1
  -6   1   7 15.1853 2.65292   5
  -6   1   7 14.2142 2.29139   2
   6  -1   7 15.1531 2.46496   1
  -6  -1  -7 16.3738 1.66444   5
   6  -1   7 17.3127 2.88980   3
   6  -1  -7 14.9748 2.43618   1
  -6   1  -7 12.6768 2.73289   3
  -6   1  -7 17.9935 2.40960   5
   6   1   7 13.2933 2.26142   1
  -6   1  -7 13.3101 2.30748   1
   6   1   7 16.4859 2.30794   2
  -6   1  -7 16.7478 2.34885   2
  -6  -1   7 14.1168 2.45324   1
  -6  -1   7 18.1565 2.59297   3
  -7   1   7 16.0421 2.69347   4
  -7   1   7 11.7586 1.97383   3
  -7   1   7 13.6546 2.43089   1
   7   1  -7 13.7305 2.47218   1
  -7   1   7 12.9738 2.71199   5
   7   1  -7 10.3414 2.34727   2
   7   1  -7 11.3072 2.55560   3
   7   1  -7 11.7792 2.34857   2
   7  -1   7 12.4560 2.43918   1
  -7  -1  -7 15.5213 2.58380   1
  -7   1   7 13.3385 2.37503   2
  -7   1  -7 10.4871 2.89636   3
   7   1   7 10.1389 2.29859   1
  -7   1  -7 14.3086 2.43259   1
   7   1   7 11.0891 2.29819   2
  -7   1  -7 10.2719 2.21204   5
  -7  -1   7 9.07922 2.44796   1
   7  -1  -7 10.0171 2.36936   1
  -7   1  -7 14.1384 2.50297   2
  -7  -1   7 12.8236 2.55011   3
   8   1  -7 159.899 7.40051   3
   8  -1   7 159.903 6.79181   1
  -8   1   7 147.464 7.21029   5
  -8   1   7 160.111 6.67293   1
  -8   1   7 152.871 7.13686   4
   8   1  -7 152.496 6.49343   2
  -8   1   7 153.397 6.52293   2
   8   1  -7 153.869 6.74854   1
  -8  -1  -7 145.763 6.75879   1
  -8   1  -7 148.326 6.35388   5
  -8   1  -7 147.868 6.46724   2
   8  -1  -7 156.657 6.81945   1
  -8  -1   7 158.673 6.81805   1
  -8   1  -7 155.120 6.76411   1
  -8  -1   7 168.759 7.40469   3
   8   1   7 154.791 6.55175   2
   8   1   7 143.322 6.54373   1
  -9   1   7 54.5495 4.66579   5
  -9   1   7 46.3254 3.95286   2
  -9  -1  -7 50.1272 4.17840   1
   9  -1   7 49.4899 4.17026   1
  -9   1   7 48.2959 4.08191   1
   9   1  -7 43.1624 4.01239   1
  -9   1  -7 45.7611 3.93663   2
   9   1   7 46.7173 4.00442   2
   9   1   7 51.0907 4.06003   1
  -9   1  -7 46.6004 3.86972   5
  -9  -1   7 49.7171 4.38634   3
  -9  -1   7 53.8544 4.42640   1
  -9   1  -7 47.4054 4.11173   1
   9  -1  -7 48.8149 4.04172   1
 -10   1   7 87.2387 5.53569   2
  10   1  -7 80.0794 5.62511   1
  10  -1   7 81.8179 5.80525   1
 -10   1   7 76.9210 5.61267   1
 -10   1   7 71.1331 5.57767   5
 -10  -1  -7 78.8888 5.86050   1
 -10   1  -7 86.4710 5.92470   1
 -10  -1   7 84.3100 5.88006   1
 -10   1  -7 79.8937 5.31196   5
  10   1   7 81.2189 5.55618   1
 -11   1   7 77.5038 6.01332   1
  11   1  -7 60.6317 5.06025   1
 -11  -1  -7 89.6883 6.52782   1
  11  -1   7 75.4988 6.11190   1
 -11   1   7 86.9707 6.77638   5
 -11  -1   7 81.2373 5.93530   1
 -11   1  -7 67.6483 5.45960   5
 -11   1  -7 81.0299 6.35337   1
 -11  -1   7 76.2801 5.76677   5
  11   1   7 78.4203 5.80186   1
  12   1  -7 58.9333 5.19397   1
 -12   1   7 58.2842 5.45326   5
  12  -1   7 65.2027 5.52035   1
 -12   1   7 52.7884 4.95243   1
 -12  -1   7 63.3068 5.51145   5
 -12  -1   7 69.0420 5.63918   1
  12   1   7 62.0982 5.21973   1
 -12   1  -7 59.6821 4.86569   5
 -12   1  -7 64.6950 5.51344   1
 -13   1   7 -4.3970 2.92558   1
 -13   1   7 2.92944 3.32066   5
  13   1  -7 5.18859 3.39433   1
  13   1   7 3.41127 3.36102   1
 -13   1  -7 -0.1637 3.33806   1
 -13  -1   7 0.78417 3.36889   1
 -13  -1   7 6.77848 3.47519   5
 -14   1   7 9.75933 3.73821   1
  14   1  -7 6.48805 3.79995   1
 -14   1   7 9.56427 3.97261   5
 -14   1  -7 13.5989 4.16690   1
  14   1   7 8.16780 3.76331   1
 -14  -1   7 10.7458 4.08846   1
 -14  -1   7 13.9825 4.04428   5
 -15   1   7 89.0696 7.15372   5
 -15   1   7 94.0226 7.35288   1
  15   1  -7 79.3814 6.69801   1
 -15  -1   7 91.0549 6.95157   5
  15   1   7 82.5106 6.59253   1
 -15   1  -7 83.5441 6.74873   1
 -16   1   7 45.9855 5.78602   5
  16   1  -7 47.4001 5.65911   1
 -16   1   7 47.2156 5.59370   1
  16   1   7 52.5110 5.80611   1
 -16  -1   7 45.2419 5.60802   5
 -16   1  -7 43.2741 5.66493   1
   0   2   7 1.59654 1.20250   1
   0   2   7 -0.4028 1.23468   5
   0  -2  -7 0.48690 1.43483   3
   0   2   7 0.82307 2.23454   4
   0   2   7 1.00290 1.22499   2
   0   2  -7 -1.3291 1.33093   1
   0   2  -7 0.68682 1.33648   2
   0   2   7 -0.8409 1.54182   3
  -1   2   7 345.986 9.75143   2
  -1   2   7 354.542 13.6407   4
   1  -2   7 338.843 12.4237   3
   1   2  -7 340.918 9.96679   2
  -1   2   7 357.874 10.1575   5
  -1  -2  -7 371.174 12.0057   3
  -1   2   7 359.738 11.4203   3
   1   2  -7 338.360 10.0555   1
   1   2   7 349.329 13.7392   4
  -1   2  -7 338.316 10.0598   1
   1   2   7 350.619 9.81567   2
   1  -2  -7 375.252 11.3955   3
   1   2   7 354.324 11.9875   3
   1   2   7 340.883 9.54161   5
  -1   2  -7 351.654 9.94671   2
   1   2   7 344.404 9.68804   1
  -2   2   7 252.029 10.5057   4
   2   2  -7 239.971 7.72104   2
  -2   2   7 254.799 7.40332   1
  -2  -2  -7 260.890 9.46802   3
   2   2  -7 244.954 7.77746   1
  -2   2   7 251.982 7.51735   2
  -2   2   7 271.289 8.11372   5
   2  -2   7 241.568 9.71401   3
   2   2   7 256.441 9.53522   3
   2   2   7 259.537 7.59104   2
  -2  -2   7 248.511 9.68603   3
  -2   2  -7 258.677 8.26738   5
  -2   2  -7 253.473 7.73780   1
   2   2   7 245.384 10.6510   4
   2   2   7 253.852 7.44346   1
  -2   2  -7 259.344 7.72332   2
   3   2  -7 1.65791 1.49423   2
  -3  -2  -7 -0.4187 1.74489   3
   3  -2   7 3.43816 2.01701   3
   3   2  -7 1.46884 1.47574   1
  -3   2   7 3.54777 1.77248   5
  -3   2   7 1.12923 2.20672   4
  -3   2   7 2.52595 1.37495   2
  -3   2   7 0.00967 1.28102   1
  -3   2  -7 0.38326 1.69009   5
   3   2   7 3.47575 1.50512   1
   3   2   7 -0.2460 1.91269   3
   3   2   7 2.93310 1.40160   2
   3   2   7 0.20519 2.01925   4
  -3   2  -7 1.43041 1.44587   1
  -3  -2   7 1.86567 1.86850   3
  -3   2  -7 1.38242 1.51903   2
  -4   2   7 15.4196 2.44648   5
   4   2  -7 17.9789 2.21543   2
   4   2  -7 14.7035 2.08641   1
  -4   2   7 19.5654 1.97270   1
   4  -2   7 18.9813 2.28025   1
  -4   2   7 15.7307 2.84799   4
  -4  -2  -7 13.4530 2.45814   3
  -4   2   7 18.7888 2.03798   2
   4  -2   7 15.6931 2.75043   3
  -4   2  -7 23.4762 3.02362   3
   4   2   7 12.8558 2.56162   3
  -4   2  -7 17.0630 2.08291   1
  -4  -2   7 18.6582 2.35462   1
  -4   2  -7 15.1707 2.26985   5
   4   2   7 18.9013 2.98977   4
  -4  -2   7 17.1409 2.68683   3
   4   2   7 13.4913 1.90325   2
   4   2   7 20.3221 2.10233   1
  -4   2  -7 15.3460 2.07275   2
  -5   2   7 51.7869 3.73569   5
   5  -2   7 49.3480 4.12821   3
   5  -2   7 47.5832 3.73516   1
  -5  -2  -7 44.5837 3.99185   3
   5   2  -7 50.7216 3.73497   2
   5   2  -7 53.0163 3.71167   1
  -5   2   7 51.7313 3.39010   1
  -5   2   7 47.5641 3.34604   2
  -5   2   7 55.7702 4.65648   4
  -5   2  -7 50.5073 3.65069   1
  -5   2  -7 45.8456 3.46387   2
   5   2   7 46.1300 4.30357   4
  -5   2  -7 49.6561 4.75192   3
  -5  -2   7 49.4451 3.85827   1
  -5   2  -7 48.3663 3.81885   5
  -5  -2   7 49.6305 4.36372   3
   5   2   7 44.9518 3.36214   2
   5   2   7 56.4135 3.50956   1
  -6   2   7 128.788 6.57083   4
  -6   2   7 116.947 5.09777   1
  -6  -2  -7 110.841 7.22403   3
  -6   2   7 116.436 5.13961   2
   6   2  -7 114.159 5.36661   2
   6   2  -7 117.564 5.34266   1
  -6   2   7 115.557 5.79425   5
   6   2   7 120.601 5.06743   1
  -6   2  -7 107.089 5.25302   1
   6   2   7 117.051 5.15319   2
  -6   2  -7 115.092 6.75621   3
  -6   2  -7 121.999 5.25084   2
   6   2   7 102.670 5.98393   4
  -6   2  -7 116.887 5.53042   5
  -6  -2   7 116.283 6.37005   3
  -6  -2   7 116.170 5.54291   1
   7   2  -7 9.78382 2.33438   1
  -7   2   7 16.6452 2.96523   5
  -7   2   7 16.6122 3.00715   4
   7   2  -7 14.3774 2.62170   2
  -7   2   7 15.7241 2.32303   1
  -7   2   7 10.4008 2.37520   2
  -7  -2   7 13.8821 2.91226   3
   7   2   7 13.5077 2.47435   4
  -7   2  -7 18.0278 2.62468   2
  -7   2  -7 16.8426 3.18843   3
  -7   2  -7 15.8311 2.51514   1
  -7   2  -7 16.4597 2.72236   5
   7   2   7 15.1702 2.40200   1
   7   2   7 14.9772 2.50170   2
   8   2  -7 409.868 13.0175   2
  -8   2   7 413.023 12.6575   2
  -8   2   7 418.953 13.5139   5
   8   2  -7 414.833 12.9187   2
  -8   2   7 401.396 12.5398   1
   8   2  -7 411.528 12.8432   1
  -8   2   7 426.280 15.4898   4
   8   2   7 404.683 12.7347   2
  -8   2  -7 420.653 12.8712   1
  -8   2  -7 415.337 13.0364   5
  -8   2  -7 403.550 12.7298   2
   8   2   7 400.969 12.6062   1
  -9   2   7 24.7717 3.14628   1
  -9   2   7 32.6543 3.94347   5
  -9   2   7 32.3860 3.53173   2
   9   2  -7 26.6837 3.28563   2
   9   2  -7 20.8505 3.16250   1
   9   2   7 25.3852 3.12068   1
  -9   2  -7 27.4238 3.33398   2
  -9   2  -7 28.3020 3.25555   1
   9   2   7 26.3064 3.35833   2
  -9   2  -7 26.8938 3.44727   5
 -10   2   7 55.2676 4.27597   1
  10   2  -7 64.1691 4.79566   1
 -10   2   7 69.7580 5.23821   2
 -10   2   7 53.5825 4.92823   5
  10   2  -7 46.6495 4.37416   2
 -10   2  -7 62.4072 4.84716   5
  10   2   7 56.1226 4.55392   2
 -10   2  -7 51.6266 4.43975   1
 -10   2  -7 51.2134 4.47210   2
  10   2   7 62.4273 5.00640   1
 -11   2   7 5.56815 3.39090   5
 -11   2   7 3.12745 2.76251   1
 -11   2   7 3.04061 2.96528   2
  11   2  -7 -2.4982 2.61974   1
  11   2   7 1.02890 2.73875   2
 -11   2  -7 7.97897 3.08192   1
 -11   2  -7 -0.5418 2.76605   5
  11   2   7 -1.7981 2.80269   1
 -12   2   7 102.737 7.91567   5
  12   2  -7 131.143 7.20108   1
 -12   2   7 108.014 6.96650   1
 -12  -2   7 119.822 7.68610   5
 -12   2  -7 115.323 7.18947   1
 -12   2  -7 116.715 7.12414   5
  12   2   7 118.036 7.01684   1
 -13   2   7 9.87704 3.40987   1
  13   2  -7 15.3266 3.87442   1
 -13   2   7 8.85188 3.90837   5
 -13   2  -7 8.78794 3.48005   1
 -13  -2   7 9.83817 3.58042   5
 -13   2  -7 12.8499 3.71189   5
  13   2   7 19.1707 3.75368   1
  14   2  -7 210.908 9.51301   1
 -14   2   7 170.396 8.84474   1
 -14   2   7 192.783 10.1041   5
  14   2   7 178.083 9.12836   1
 -14   2  -7 191.542 9.42315   5
 -14  -2   7 188.440 9.66579   5
 -14   2  -7 185.246 9.39206   1
 -15   2   7 190.621 10.4424   5
  15   2  -7 191.592 9.64670   1
 -15   2   7 185.980 9.24496   1
 -15   2  -7 191.359 9.78814   1
  15   2   7 181.505 9.59694   1
  16   2  -7 287.673 12.6005   1
 -16   2   7 304.153 13.4696   5
 -16   2   7 285.676 12.0469   1
 -16   2  -7 312.136 12.7648   1
  16   2   7 321.294 12.7235   1
   0  -3   7 192.960 8.27474   3
   0   3   7 187.244 5.74693   2
   0   3   7 182.772 5.69533   2
   0   3   7 185.143 7.13885   3
   0  -3  -7 189.605 7.19859   3
   0   3  -7 185.527 5.64568   1
   0   3   7 175.722 8.73668   4
   0   3  -7 184.632 6.01399   2
   0   3   7 192.358 5.76410   5
  -1   3   7 282.192 8.32377   2
  -1  -3  -7 295.601 10.5315   3
  -1   3   7 288.819 9.87636   3
  -1   3   7 296.447 8.41887   2
  -1   3   7 294.431 8.67879   5
   1   3  -7 296.504 8.33592   1
  -1   3   7 300.698 12.1868   4
   1   3  -7 298.151 8.71227   2
  -1   3  -7 295.289 8.68136   2
  -1   3  -7 290.095 8.28906   1
   1   3   7 280.684 12.0463   4
   1  -3  -7 316.765 10.0172   3
   1   3   7 301.233 8.40899   2
   1   3   7 295.420 10.5227   3
  -1  -3   7 287.659 11.3521   3
   1   3   7 294.756 8.40007   2
  -2  -3  -7 52.0517 4.00756   3
   2   3  -7 50.5244 3.23384   2
   2   3  -7 57.2317 2.92549   1
  -2   3   7 55.3148 2.92916   2
   2  -3   7 52.6228 4.45410   3
  -2   3   7 62.3508 3.33575   5
  -2   3   7 60.5148 4.92743   4
   2   3   7 57.1201 2.94939   2
   2   3   7 57.0775 4.21758   3
  -2  -3   7 64.7323 4.75579   3
   2   3   7 55.9202 4.73091   4
  -2   3  -7 55.8832 2.83520   1
  -2   3  -7 56.0217 3.21169   2
  -2   3  -7 51.7788 3.87807   5
  -3   3   7 244.657 7.95707   5
   3   3  -7 227.459 7.21259   1
  -3  -3  -7 252.837 9.51900   3
  -3   3   7 229.709 7.26358   2
   3   3  -7 238.481 7.65201   2
  -3   3   7 249.360 10.5389   4
  -3  -3   7 224.699 9.62084   3
  -3   3  -7 243.305 8.37176   5
   3   3   7 227.454 7.25546   2
  -3   3  -7 245.354 7.51944   2
   3   3   7 228.657 9.46734   3
   3   3   7 226.917 10.1986   4
  -3   3  -7 245.212 7.19788   1
   4   3  -7 135.034 5.13355   1
  -4   3   7 153.146 5.91785   5
  -4  -3  -7 142.260 6.92653   3
   4   3  -7 138.909 5.55825   2
  -4   3   7 144.284 5.19193   2
  -4   3   7 137.175 7.41511   4
   4   3   7 133.570 4.48941   1
  -4   3  -7 138.750 5.34696   2
  -4   3  -7 141.794 6.14207   5
   4   3   7 131.686 5.14004   2
   4   3   7 124.819 7.00295   4
  -4   3  -7 139.340 5.00756   1
  -5   3   7 485.947 13.6989   2
   5   3  -7 507.608 14.1639   2
   5   3  -7 478.497 13.7283   1
  -5   3   7 478.860 13.1522   1
  -5   3   7 484.563 18.2316   4
  -5   3   7 485.736 14.6076   5
  -5   3  -7 513.878 13.8433   1
   5   3   7 461.721 17.7654   4
   5   3   7 483.419 13.7992   2
   5   3   7 484.505 13.3016   1
  -5   3  -7 485.198 14.6483   5
  -5   3  -7 483.040 13.9073   2
   6   3  -7 15.1118 2.50529   2
  -6   3   7 20.1850 3.45386   4
  -6   3   7 11.8677 2.67120   5
  -6   3   7 17.2530 1.92352   1
   6   3  -7 17.5397 2.26683   1
  -6   3   7 10.3479 2.21171   2
   6   3   7 14.7693 2.28922   2
  -6   3  -7 16.5172 2.40549   2
  -6   3  -7 14.2328 2.68425   5
   6   3   7 16.9871 2.77151   4
   6   3   7 13.2152 2.00669   1
  -6   3  -7 14.3295 2.24005   1
  -7   3   7 13.8687 2.08270   1
  -7   3   7 13.6791 3.24206   4
  -7   3   7 11.8248 2.85886   5
   7   3  -7 12.9909 2.35161   1
  -7   3   7 9.61438 2.39514   2
   7   3  -7 15.1805 2.72034   2
   7   3   7 12.5957 2.21653   1
  -7   3  -7 15.8355 2.94257   5
  -7   3  -7 10.9530 2.50718   2
  -7   3  -7 14.6814 2.42493   1
   7   3   7 12.6406 2.42431   2
  -8   3   7 104.454 5.49492   2
   8   3  -7 102.213 5.82747   2
   8   3  -7 97.2914 5.85085   2
   8   3  -7 88.5882 5.13964   1
  -8   3   7 106.589 6.77348   4
  -8   3   7 112.826 6.54067   5
  -8   3   7 97.3963 4.96368   1
  -8   3  -7 102.291 6.24043   5
  -8   3  -7 109.989 5.41444   1
   8   3   7 102.535 4.97798   1
  -8   3  -7 100.170 5.57834   2
   8   3   7 96.3370 5.48232   2
  -9   3   7 25.1655 3.97110   4
   9   3  -7 29.7608 3.33466   1
  -9   3   7 37.2142 3.17849   1
  -9   3   7 36.6655 3.69837   2
  -9   3   7 27.8631 3.92759   5
   9   3  -7 31.0764 3.59407   2
   9   3   7 31.5844 3.12859   1
  -9   3  -7 30.4766 3.30001   1
  -9   3  -7 32.8634 3.97620   5
   9   3   7 25.8332 3.32020   2
  -9   3  -7 28.7767 3.58302   2
  10   3  -7 54.5390 4.79495   2
 -10   3   7 48.5740 3.79013   1
  10   3  -7 54.4392 4.34174   1
 -10   3   7 48.1973 4.24365   2
 -10   3   7 48.8625 4.90071   5
 -10   3  -7 44.1190 4.20178   2
 -10   3  -7 55.5951 5.02310   5
  10   3   7 50.0333 3.96585   1
  10   3   7 44.2125 4.39265   2
 -10   3  -7 51.9839 4.22367   1
 -11   3   7 54.8446 4.83729   2
 -11   3   7 66.1462 5.32255   1
  11   3  -7 52.8930 4.49266   1
  11   3  -7 57.3519 5.01620   2
 -11   3   7 57.4692 5.43470   5
  11   3   7 62.2583 5.05312   2
 -11   3  -7 50.3208 4.71919   2
 -11   3  -7 63.9991 4.73401   1
 -11   3  -7 58.9737 5.32742   5
  11   3   7 60.6879 4.49807   1
 -12   3   7 55.8958 5.04068   2
 -12   3   7 54.1254 5.65882   5
 -12   3   7 56.3155 4.52662   1
  12   3  -7 51.1730 4.70212   1
 -12   3  -7 49.6352 4.56948   1
  12   3   7 68.0515 5.51211   1
 -12   3  -7 52.5797 5.44065   5
 -12   3  -7 45.4831 4.87277   2
  12   3   7 54.8830 5.07231   2
  13   3  -7 4.57244 3.24997   1
 -13   3   7 -2.0823 3.54675   5
 -13   3   7 -1.6941 2.84490   1
 -13   3   7 0.48221 3.56075   2
  13   3   7 -2.4138 2.97079   1
 -13   3  -7 7.66149 3.85235   5
 -13   3  -7 0.96973 3.14690   1
  14   3  -7 4.45337 3.58860   1
 -14   3   7 10.2806 3.38003   1
 -14   3   7 9.57538 4.13690   5
  14   3   7 17.5859 3.90258   1
 -14   3  -7 10.9745 4.14474   5
 -14   3  -7 8.62890 3.58336   1
 -15   3   7 72.7159 5.67736   1
  15   3  -7 76.5604 6.29140   1
 -15   3   7 79.1149 7.05197   5
  15   3   7 86.3001 7.03380   1
 -15   3  -7 69.2974 6.69649   5
 -15   3  -7 85.9230 7.01442   1
   0   4   7 0.06430 1.09126   2
   0   4   7 -0.2643 2.12889   4
   0   4   7 2.20987 1.75218   3
   0  -4  -7 0.87515 1.59732   3
   0   4  -7 1.92039 1.27100   2
  -1   4   7 66.4395 3.34145   5
  -1   4   7 61.8040 2.92184   2
   1   4  -7 59.4422 3.33463   2
  -1   4   7 62.0350 5.43632   4
  -1  -4  -7 64.4984 4.41383   3
   1   4   7 64.2231 5.30482   4
   1   4   7 67.9119 2.96126   2
  -1   4  -7 63.7979 3.31794   2
   1   4   7 51.7573 4.24707   3
   2   4  -7 1.78652 1.39436   2
  -2   4   7 0.48567 1.49405   5
  -2  -4  -7 4.21938 2.05085   3
  -2   4   7 1.86808 2.40605   4
  -2   4   7 3.69327 1.34441   2
   2   4   7 -1.3149 1.79137   3
  -2   4  -7 -0.0504 1.34155   2
   2   4   7 -0.5145 2.06481   4
   2   4   7 1.14695 1.22282   2
  -2   4  -7 3.36036 2.15507   5
  -3  -4  -7 189.833 8.25658   3
  -3   4   7 174.718 9.07402   4
  -3   4   7 184.082 6.64570   5
  -3   4   7 170.236 5.89930   2
   3   4  -7 179.805 6.33808   2
   3   4   7 170.779 5.89817   2
  -3   4  -7 183.707 6.21991   2
  -3   4  -7 184.979 7.35303   5
   3   4   7 179.016 8.79538   4
  -4   4   7 2124.43 53.9782   2
  -4   4   7 2194.06 55.5967   5
  -4   4   7 2159.54 70.3907   4
   4   4  -7 2146.58 54.4345   2
   4   4   7 2165.98 54.0382   2
  -4   4  -7 2111.79 54.2173   2
   4   4   7 2065.14 69.9983   4
  -4   4  -7 2138.46 55.9547   5
  -5   4   7 790.766 22.2596   5
   5   4  -7 802.328 21.5824   2
  -5   4   7 779.759 28.1160   4
  -5   4   7 777.739 21.0294   2
   5   4   7 767.186 27.6431   4
  -5   4  -7 797.188 21.3317   2
  -5   4  -7 772.814 22.4912   5
   5   4   7 804.693 21.1803   2
   6   4  -7 11.0954 2.36919   2
  -6   4   7 14.5031 2.29114   2
   6   4  -7 16.0062 1.93816   1
  -6   4   7 14.2998 2.85023   5
  -6   4   7 11.7086 3.44291   4
   6   4   7 11.7713 2.86357   4
  -6   4  -7 10.0945 2.80891   5
  -6   4  -7 14.0362 2.46208   2
   6   4   7 12.3030 2.31917   2
  -7   4   7 235.464 11.2995   4
   7   4  -7 240.231 7.80021   1
  -7   4   7 236.831 8.38509   2
  -7   4   7 227.121 9.30383   5
   7   4  -7 242.468 8.81737   2
  -7   4  -7 242.501 9.53607   5
  -7   4  -7 247.799 7.60304   1
   7   4   7 237.196 8.53986   2
  -7   4  -7 239.132 8.52412   2
  -8   4   7 6.60864 3.09159   5
   8   4  -7 5.29318 2.12454   1
  -8   4   7 8.21903 3.47142   4
   8   4  -7 11.1582 2.79531   2
  -8   4   7 5.15841 2.35120   2
   8   4  -7 4.34604 2.40589   2
  -8   4  -7 2.93888 2.97842   5
   8   4   7 6.68205 2.41709   2
  -8   4  -7 5.02863 2.02809   1
  -8   4  -7 5.21366 2.51078   2
  -9   4   7 35.2516 4.74938   4
   9   4  -7 30.8216 3.24645   1
   9   4  -7 34.6999 3.96781   2
  -9   4   7 29.5960 3.49909   2
  -9   4   7 28.0311 4.21304   5
   9   4  -7 33.0403 3.84531   2
  -9   4  -7 33.5560 4.37993   5
   9   4   7 31.0599 2.72482   1
  -9   4  -7 25.6345 3.57008   2
   9   4   7 28.3216 3.48001   2
  -9   4  -7 33.7324 3.11873   1
 -10   4   7 74.8685 4.48058   1
 -10   4   7 74.1961 5.62478   2
 -10   4   7 86.6405 6.98501   5
  10   4  -7 78.2769 5.17786   1
  10   4  -7 77.7899 5.94860   2
 -10   4  -7 72.5540 5.33483   2
  10   4   7 78.5054 5.93434   2
 -10   4  -7 76.1975 5.08714   1
 -10   4  -7 73.4305 6.05862   5
  10   4   7 78.4799 4.59894   1
  11   4  -7 389.867 12.6771   1
  11   4  -7 375.589 13.4919   2
 -11   4   7 390.786 13.3715   2
 -11   4   7 418.546 12.1750   1
 -11   4   7 380.946 14.4359   5
 -11   4  -7 404.786 12.6883   1
 -11   4  -7 397.841 14.4937   5
  11   4   7 383.984 13.4521   2
  11   4   7 379.482 12.1234   1
 -11   4  -7 379.625 13.3189   2
  12   4  -7 117.628 6.52961   1
  12   4  -7 124.481 7.65996   2
 -12   4   7 108.216 7.17763   2
 -12   4   7 130.816 6.30415   1
 -12   4   7 104.366 8.39212   5
 -12   4  -7 122.802 6.80108   1
  12   4   7 111.327 7.36899   2
 -12   4  -7 110.579 7.29976   2
  12   4   7 122.686 6.20877   1
 -12   4  -7 114.992 8.42672   5
  13   4  -7 91.0050 6.40745   1
 -13   4   7 82.1491 6.41155   2
 -13   4   7 86.2288 6.07194   1
 -13   4   7 80.4969 7.04373   5
 -13   4  -7 82.8357 6.92284   5
 -13   4  -7 99.0376 6.59032   1
 -13   4  -7 98.0973 7.17066   2
  13   4   7 90.4012 6.00391   1
  13   4   7 89.7010 6.59635   2
 -14   4   7 138.564 9.39645   5
 -14   4   7 127.737 7.16079   1
 -14   4   7 127.480 8.37903   2
  14   4  -7 140.355 7.57467   1
  14   4   7 137.308 7.32821   1
 -14   4  -7 123.668 7.58590   1
 -14   4  -7 132.945 9.27278   5
   0   5  -7 178.009 6.02770   2
   0   5   7 180.373 9.52833   4
   0   5   7 173.844 5.51272   2
  -1   5   7 201.832 6.31622   2
   1   5  -7 216.993 6.89765   2
  -1   5   7 210.499 10.5058   4
   1   5   7 197.097 10.2515   4
  -1   5  -7 214.739 6.82938   2
   1   5   7 211.549 6.37876   2
   2   5  -7 39.2350 2.75610   2
  -2   5   7 34.2997 2.69555   2
  -2   5   7 40.0660 4.82828   4
  -2   5  -7 34.5847 3.61566   5
   2   5   7 37.8421 4.56749   4
  -2   5  -7 35.2834 2.64987   2
   2   5   7 38.9307 2.68368   2
  -3   5   7 160.212 6.42169   5
  -3   5   7 138.964 8.79781   4
  -3   5   7 151.640 5.37640   2
   3   5  -7 150.758 5.82691   2
   3   5   7 163.458 8.79871   4
  -3   5  -7 153.584 5.73650   2
  -3   5  -7 164.195 7.37098   5
   3   5   7 155.795 5.43938   2
  -4   5   7 67.8086 3.81174   2
   4   5  -7 73.6312 4.37230   2
  -4   5   7 84.4423 6.78944   4
  -4   5   7 77.4811 4.84012   5
  -4   5  -7 74.5428 4.14884   2
   4   5   7 79.2494 6.25295   4
  -4   5  -7 75.0995 5.59043   5
   4   5   7 75.0594 3.91099   2
  -5   5   7 308.984 13.8285   4
   5   5  -7 290.371 9.84426   2
  -5   5   7 325.024 10.7468   5
  -5   5   7 303.115 9.42797   2
   5   5   7 298.168 13.1450   4
   5   5   7 301.655 9.51100   2
  -5   5  -7 301.128 9.68482   2
  -5   5  -7 316.945 11.2433   5
  -6   5   7 7.44851 3.72388   4
   6   5  -7 9.72823 2.37085   2
  -6   5   7 1.88786 1.95278   2
  -6   5   7 7.66733 2.79334   5
  -6   5  -7 7.77763 2.21362   2
  -6   5  -7 5.31306 3.01450   5
   6   5   7 8.63620 2.21410   2
   6   5   7 3.08063 2.72023   4
  -7   5   7 6.86204 2.96212   5
   7   5  -7 7.18267 2.39807   2
  -7   5   7 2.18761 3.27052   4
  -7   5   7 7.37048 2.23669   2
   7   5   7 1.17811 2.20237   2
  -7   5  -7 8.01479 3.28062   5
  -7   5  -7 2.15375 2.29062   2
   8   5  -7 97.6468 5.91093   2
  -8   5   7 94.6432 7.83851   4
   8   5  -7 90.4774 5.82975   2
  -8   5   7 100.374 5.50785   2
  -8   5   7 83.7073 6.75240   5
  -8   5  -7 109.630 7.27471   5
   8   5   7 99.9010 5.76006   2
  -8   5  -7 102.698 5.80480   2
  -9   5   7 27.3388 3.54602   2
   9   5  -7 28.0292 3.68094   2
  -9   5   7 29.0497 4.45171   5
  -9   5   7 27.3509 4.98989   4
  -9   5  -7 31.6025 4.42790   5
   9   5   7 32.3417 3.64016   2
  -9   5  -7 33.8072 3.81062   2
 -10   5   7 49.7644 5.44920   5
  10   5  -7 57.9484 5.01215   2
 -10   5   7 53.8113 4.52537   2
  10   5   7 51.3673 4.65646   2
 -10   5  -7 58.7835 5.66351   5
 -10   5  -7 53.7001 4.79406   2
 -11   5   7 51.0910 4.78701   2
 -11   5   7 59.0193 5.99104   5
  11   5  -7 50.1665 4.82125   2
  11   5   7 50.7082 4.90140   2
 -11   5  -7 50.7043 5.77453   5
 -11   5  -7 41.7538 4.71988   2
  12   5  -7 28.3167 4.24459   2
 -12   5   7 36.3560 5.43869   5
 -12   5   7 31.0371 4.39783   2
 -12   5  -7 31.3305 5.19366   5
  12   5   7 33.2313 4.29049   2
 -12   5  -7 29.2362 4.23701   2
  13   5  -7 7.65555 3.02970   1
 -13   5   7 -7.0484 3.79137   5
  13   5  -7 -2.4085 3.15396   2
 -13   5   7 -1.9222 3.34945   2
 -13   5  -7 -1.0450 3.88133   5
 -13   5  -7 8.27441 3.66573   2
  13   5   7 -0.0523 3.26635   2
   0   6  -7 -3.7413 1.31533   2
   0   6   7 0.79834 2.96926   4
   1   6  -7 107.905 4.66507   2
  -1   6   7 108.288 8.03057   4
   1   6   7 104.228 4.06441   2
   1   6   7 104.651 7.84182   4
  -1   6  -7 106.905 4.57008   2
   2   6  -7 85.1470 4.32625   2
  -2   6   7 86.2300 7.43857   4
  -2   6   7 90.2318 3.85449   2
  -2   6  -7 92.0758 4.30371   2
   2   6   7 94.2222 3.89840   2
   2   6   7 80.7361 7.13383   4
  -3   6   7 -0.9348 2.92303   4
  -3   6   7 3.18798 1.62646   2
   3   6  -7 1.04411 1.68508   2
   3   6   7 -0.0445 2.80344   4
   3   6   7 -0.3238 1.50197   2
  -3   6  -7 -0.5044 2.55758   5
  -3   6  -7 2.66217 1.72791   2
   4   6  -7 -0.4575 1.72075   2
  -4   6   7 -0.2695 3.21819   4
  -4   6   7 2.72265 1.75423   2
  -4   6  -7 0.37379 2.76418   5
   4   6   7 0.02225 1.72154   2
   4   6   7 3.69344 3.12491   4
  -4   6  -7 -0.4245 1.66867   2
  -5   6   7 33.4172 2.82675   2
  -5   6   7 33.8291 5.21089   4
   5   6  -7 24.1511 2.92440   2
  -5   6  -7 25.2661 2.81007   2
  -5   6  -7 29.9997 4.09978   5
   5   6   7 23.6215 4.30559   4
   5   6   7 28.7208 2.79729   2
   6   6  -7 38.8006 3.64558   2
  -6   6   7 39.1574 5.68548   4
  -6   6   7 42.7158 3.30090   2
  -6   6   7 47.8377 4.57205   5
   6   6   7 36.4103 3.29436   2
  -6   6  -7 47.3890 4.94808   5
  -6   6  -7 37.2178 3.42905   2
  -7   6   7 11.0062 3.63963   5
  -7   6   7 11.7973 2.46068   2
  -7   6   7 7.33409 4.16180   4
   7   6  -7 9.31447 2.56360   2
  -7   6  -7 1.50229 3.33282   5
  -7   6  -7 12.1932 2.66472   2
   7   6   7 11.5787 2.48051   2
  -8   6   7 183.997 9.09808   5
  -8   6   7 155.614 7.11639   2
   8   6  -7 154.242 7.64619   2
  -8   6   7 184.557 10.8773   4
   8   6  -7 169.796 7.69243   2
  -8   6  -7 165.970 9.18922   5
   8   6   7 166.717 7.30082   2
  -8   6  -7 175.670 7.52842   2
  -9   6   7 6.11577 4.15483   4
   9   6  -7 10.3810 2.92638   2
  -9   6   7 24.3294 4.59277   5
  -9   6   7 16.1909 2.95975   2
  -9   6  -7 11.5584 3.20376   2
  -9   6  -7 11.6335 3.98466   5
   9   6   7 9.04198 2.97097   2
 -10   6   7 29.0683 3.66704   2
  10   6  -7 25.2134 3.84658   2
 -10   6   7 30.6408 5.19688   5
 -10   6  -7 24.8236 4.85693   5
  10   6   7 25.4353 3.68228   2
 -10   6  -7 27.0420 3.84837   2
 -11   6   7 5.67111 4.15924   5
  11   6  -7 -4.7648 2.55994   2
 -11   6   7 -4.0210 2.80183   2
  11   6   7 -4.1304 2.71694   2
 -11   6  -7 -1.4286 3.00521   2
 -11   6  -7 0.95735 4.06712   5
   0   7   7 44.7825 6.18945   4
   0   7  -7 50.2986 3.54736   2
   1   7  -7 88.0412 4.36430   2
  -1   7   7 78.0477 7.80288   4
   1   7   7 101.830 8.29682   4
  -1   7  -7 87.0417 4.37125   2
   2   7  -7 21.9794 2.41714   2
  -2   7   7 19.5066 4.76635   4
  -2   7  -7 16.7118 2.26485   2
   2   7   7 23.6299 4.82508   4
  -3   7   7 78.2236 7.93305   4
   3   7  -7 80.8078 4.62474   2
   3   7   7 77.2269 7.55774   4
   3   7   7 85.6959 4.06916   2
  -3   7  -7 83.8377 4.39503   2
  -4   7   7 58.2383 3.67480   2
  -4   7   7 51.9309 6.61775   4
   4   7  -7 52.5733 3.92261   2
   4   7   7 53.4297 3.75208   2
  -4   7  -7 57.4217 5.42174   5
  -4   7  -7 54.8743 4.05178   2
   4   7   7 54.1455 6.33934   4
  -5   7   7 183.291 11.3350   4
   5   7  -7 187.892 7.28153   2
  -5   7   7 168.397 6.50101   2
   5   7   7 182.607 6.73413   2
  -5   7  -7 174.215 6.83388   2
   5   7   7 161.324 11.3306   4
  -5   7  -7 173.137 9.25263   5
  -6   7   7 7.35561 4.17425   4
   6   7  -7 6.49907 2.36683   2
  -6   7   7 4.30206 2.17305   2
   6   7   7 4.28754 2.29980   2
  -6   7  -7 8.94605 3.62921   5
  -6   7  -7 5.12793 2.29861   2
   7   7  -7 6.62551 2.47244   2
  -7   7   7 3.42940 4.21374   4
  -7   7   7 5.80692 2.37356   2
   7   7  -7 4.57429 2.43371   2
  -7   7  -7 13.2588 4.11861   5
   7   7   7 3.86929 2.40030   2
  -7   7  -7 4.90849 2.38894   2
   8   7  -7 32.1546 3.66133   2
  -8   7   7 37.7572 6.11139   4
  -8   7   7 28.1955 3.32730   2
   8   7   7 30.8485 3.49427   2
  -8   7  -7 39.2852 3.84383   2
  -8   7  -7 30.9849 5.02868   5
   9   7  -7 8.64366 3.08672   2
  -9   7   7 17.0016 4.65307   5
  -9   7   7 10.0066 2.80899   2
  -9   7  -7 3.78557 4.12428   5
   9   7   7 13.6973 3.09675   2
  -9   7  -7 8.08047 2.99556   2
   0   8  -7 -1.1038 1.61791   2
   1   8  -7 17.3026 2.34910   2
  -1   8  -7 14.4464 2.20758   2
   1   8   7 11.0582 4.48485   4
   2   8  -7 2.30598 1.91197   2
   2   8   7 0.30055 3.67969   4
  -2   8  -7 4.45803 1.84143   2
   3   8  -7 52.9883 3.88201   2
  -3   8  -7 49.5020 3.86541   2
   3   8   7 49.5221 6.73484   4
   4   8  -7 659.625 19.0880   2
  -4   8  -7 675.883 18.7806   2
   4   8   7 674.971 18.2599   2
   4   8   7 673.472 26.9970   4
   0   0  -8 1470.75 38.7018   1
   0   0   8 1489.03 45.2090   3
   0   0  -8 1543.39 38.1282   2
   0   0  -8 1528.18 45.2168   3
   0   0   8 1482.43 38.7093   1
   0   0   8 1478.84 38.1339   2
   1   0   8 81.1158 4.98101   3
   1   0  -8 76.8863 3.90112   1
   1   0   8 82.3687 3.86110   2
  -1   0   8 74.8016 3.96734   1
  -1   0  -8 75.1340 3.91426   1
  -1   0   8 77.2203 4.63161   3
  -1   0   8 74.3002 3.72609   2
  -1   0  -8 74.0505 4.73654   3
  -1   0  -8 73.6862 3.82873   2
   1   0  -8 86.0311 3.77281   2
   1   0   8 77.0835 3.96152   1
  -2   0  -8 47.5830 3.33314   2
  -2   0   8 52.3183 3.30386   2
   2   0   8 46.1562 3.39153   2
   2   0   8 43.1377 4.25063   3
  -2   0   8 57.2973 3.56456   1
   2   0  -8 53.1841 3.23466   2
  -2   0  -8 55.1403 3.53156   1
  -2   0  -8 49.4225 4.20116   3
  -2   0   8 50.9738 4.00733   3
   2   0  -8 51.4812 3.44082   1
   2   0   8 56.3550 3.57809   1
  -3   0  -8 347.037 10.6247   1
  -3   0  -8 343.377 12.7673   3
   3   0   8 358.335 10.6445   1
  -3   0   8 368.410 10.5183   2
  -3   0   8 368.109 10.6887   1
   3   0  -8 371.098 10.7239   1
   3   0   8 366.634 10.6165   2
  -3   0  -8 349.960 10.5089   2
   3   0  -8 386.030 10.5908   2
   3   0   8 334.009 12.7471   3
  -4   0   8 716.856 18.6242   2
   4   0   8 676.498 18.8080   1
  -4   0  -8 653.590 22.3227   3
  -4   0  -8 667.710 18.8008   1
   4   0  -8 687.911 18.8525   1
  -4   0  -8 692.932 18.3775   5
  -4   0   8 711.585 21.3418   3
  -4   0  -8 686.868 18.6089   2
   4   0  -8 710.945 18.6308   2
  -4   0   8 691.721 18.8645   1
   4   0   8 660.659 22.3615   3
   4   0   8 665.727 18.5888   2
   5   0  -8 186.804 6.83101   1
  -5   0   8 182.070 6.74342   1
   5   0   8 177.177 6.55613   2
  -5   0  -8 171.353 6.67401   1
  -5   0  -8 180.702 6.16954   5
  -5   0  -8 184.394 6.67166   2
   5   0   8 186.770 6.77858   1
   5   0  -8 186.819 6.64239   2
  -5   0   8 191.765 6.66710   2
  -5   0   8 186.445 7.08319   3
   5   0   8 187.250 8.33449   3
  -5   0  -8 177.332 8.35381   3
   6   0  -8 171.527 6.48280   2
  -6   0   8 178.138 6.79570   3
   6   0   8 170.661 6.57949   1
   6   0  -8 163.547 6.53989   1
   6   0   8 164.978 6.46065   2
  -6   0  -8 168.583 6.46062   2
   6   0  -8 166.010 6.38383   2
  -6   0  -8 155.461 6.43605   1
  -6   0   8 172.407 6.67420   1
  -6   0  -8 161.681 5.90054   5
  -6   0   8 161.652 6.39832   2
  -6   0  -8 158.997 8.02287   3
  -7   0   8 315.524 10.3677   1
  -7   0  -8 295.973 9.50702   5
   7   0  -8 317.946 10.3720   1
  -7   0   8 331.216 11.1232   3
  -7   0  -8 311.884 10.3964   1
   7   0   8 311.772 10.3018   1
   7   0   8 317.297 10.1780   2
  -7   0   8 301.696 10.1078   2
  -8   0  -8 303.009 9.67791   5
  -8   0  -8 300.650 10.5130   1
   8   0  -8 320.395 10.5829   1
  -8   0   8 313.222 11.1491   3
   8   0   8 295.762 10.3532   1
  -8   0   8 313.417 10.5050   1
  -9   0  -8 -2.3446 1.93892   5
   9   0   8 3.28742 2.48787   1
   9   0  -8 4.23521 2.49264   1
  -9   0   8 4.80641 2.95167   5
  -9   0   8 0.56216 2.49456   1
  -9   0  -8 0.25276 2.52055   1
  10   0   8 314.438 11.3456   1
 -10   0   8 321.621 11.4008   1
 -10   0  -8 315.552 11.4624   1
 -10   0   8 322.768 11.9428   5
  10   0  -8 328.297 11.4006   1
 -11   0   8 276.414 11.1025   5
  11   0   8 270.504 10.6610   1
 -11   0   8 280.409 10.7016   1
  11   0  -8 288.851 10.7416   1
 -11   0  -8 269.615 10.7721   1
  12   0  -8 372.230 13.2681   1
 -12   0   8 346.913 13.4382   5
  12   0   8 369.851 13.3220   1
 -12   0  -8 393.351 13.5801   1
 -12   0   8 370.897 13.3061   1
  13   0   8 91.4401 7.15685   1
  13   0  -8 94.9715 7.03399   1
 -13   0   8 72.9133 6.24199   5
 -13   0  -8 94.8159 7.44890   1
 -13   0   8 73.2581 6.16785   1
 -14   0  -8 147.556 8.80161   1
  14   0  -8 132.453 8.45611   1
  14   0   8 134.293 8.30526   1
 -14   0   8 136.002 8.44132   1
 -14   0   8 127.169 8.52809   5
  15   0  -8 363.188 14.2996   1
 -15   0  -8 384.680 14.6993   1
 -15   0   8 374.255 14.4292   5
 -15   0   8 371.940 14.2126   1
  15   0   8 361.613 14.1329   1
  16   0  -8 9.74187 4.29831   1
 -16   0   8 5.94933 3.98379   1
 -16   0   8 1.14093 4.06762   5
  16   0   8 7.30458 4.25202   1
 -16   0  -8 12.2096 4.74903   1
   0   1  -8 -2.3412 1.36355   2
   0   1  -8 -0.0062 1.64454   1
   0   1   8 -2.8969 1.71544   3
   0  -1   8 -0.4115 1.96759   3
   0   1   8 1.43750 1.48065   2
   0   1   8 -2.7113 1.48586   1
   0  -1   8 -0.1252 1.60572   1
   0  -1  -8 0.82919 1.64335   3
  -1   1   8 91.7205 3.88109   2
   1  -1   8 91.9687 4.18484   1
  -1  -1  -8 86.0004 4.73626   3
  -1   1   8 87.9007 3.98849   1
   1  -1   8 81.3884 5.14291   3
   1   1  -8 85.2233 3.93530   2
   1   1  -8 74.9158 4.04112   1
  -1   1   8 90.5932 4.61907   3
   1  -1  -8 89.3552 4.29316   3
   1   1   8 89.5742 3.98474   2
  -1  -1   8 86.8427 5.10409   3
   1   1   8 86.9541 4.00690   1
  -1   1  -8 82.2121 4.11561   1
  -1  -1   8 94.3478 4.26321   1
  -1   1  -8 91.8436 3.98394   2
   1   1   8 92.7609 5.09827   3
   2  -1   8 7.50462 1.80380   1
  -2   1   8 7.39672 1.70043   2
  -2  -1  -8 9.65094 2.23464   3
   2   1  -8 8.38477 1.73214   2
  -2   1   8 7.87036 1.82142   1
   2   1  -8 7.65640 1.87037   1
   2  -1   8 9.68550 2.31933   3
  -2  -1  -8 4.92474 1.69766   1
  -2   1   8 6.68037 1.78928   3
   2   1   8 11.2529 1.82242   1
   2   1   8 8.65511 2.26453   3
  -2   1  -8 5.39367 2.20524   3
   2  -1  -8 11.6068 2.00526   1
  -2  -1   8 5.83478 1.75430   1
   2   1   8 4.38070 1.63551   2
  -2   1  -8 7.91775 1.82289   1
  -2   1  -8 7.60517 1.73059   2
  -3  -1  -8 70.2600 3.84614   1
  -3   1   8 72.8074 3.77250   2
  -3  -1  -8 76.1606 4.93346   3
  -3   1   8 79.2873 3.82699   3
   3   1  -8 74.7817 4.04216   1
   3   1  -8 74.3799 3.90221   2
  -3   1   8 75.8325 3.89845   1
   3  -1   8 76.2833 5.23394   3
   3  -1   8 77.0385 4.01196   1
  -3   1  -8 77.0839 4.04893   1
   3   1   8 74.1620 3.87143   2
  -3   1  -8 73.6751 5.08121   3
  -3   1  -8 71.0332 3.98911   5
  -3  -1   8 85.3839 4.65133   3
   3   1   8 77.5768 4.03808   1
   3   1   8 74.7997 5.06718   3
   3  -1  -8 76.2304 3.97387   1
  -3   1  -8 70.7370 3.90037   2
  -3  -1   8 81.1646 4.21283   1
  -4   1   8 91.0188 5.72719   4
  -4   1   8 77.2673 3.74397   3
   4  -1   8 71.2888 5.09454   3
  -4  -1  -8 68.1110 3.94686   1
  -4  -1  -8 71.6927 5.08831   3
  -4   1   8 74.1404 3.83208   2
   4  -1   8 79.4700 4.26171   2
  -4   1   8 77.0127 3.44109   3
   4   1  -8 67.8480 4.16189   1
   4   1  -8 74.1989 4.01888   2
   4  -1   8 71.8168 4.12491   1
  -4   1   8 73.7095 3.94051   1
   4  -1  -8 70.1050 4.00125   1
  -4   1  -8 67.4734 4.11610   1
  -4  -1   8 76.3618 4.45293   3
   4   1   8 64.8324 3.79875   2
  -4   1  -8 62.5958 5.18853   3
  -4  -1   8 66.0844 3.91777   2
  -4  -1   8 72.9548 4.13350   1
   4   1   8 68.0910 4.07628   1
   4   1   8 67.4230 4.98777   3
  -4   1  -8 68.1773 4.00280   2
  -4   1  -8 70.5301 3.95467   5
  -5  -1  -8 196.265 7.12871   1
  -5   1   8 214.209 6.95506   3
  -5   1   8 195.631 6.94948   2
   5  -1   8 189.746 7.21785   1
  -5   1   8 200.127 7.09832   1
   5  -1   8 196.740 8.83872   3
  -5  -1  -8 201.403 8.86702   3
  -5   1   8 213.657 9.04389   4
   5   1  -8 204.895 7.25191   1
   5   1  -8 203.789 7.17569   2
  -5  -1   8 206.185 7.32979   1
   5  -1  -8 209.218 7.18141   1
  -5   1  -8 204.738 7.05990   5
   5   1   8 201.083 7.16950   1
  -5   1  -8 192.670 7.14339   1
  -5  -1   8 208.581 8.15791   3
   5   1   8 202.431 7.08839   2
  -5   1  -8 186.664 8.85010   3
  -5   1  -8 205.443 7.09847   2
   5   1   8 201.633 8.80391   3
  -5  -1   8 202.954 7.13834   2
  -6  -1  -8 2.75080 1.94771   1
  -6   1   8 5.83056 2.02528   1
  -6  -1  -8 2.86254 2.33713   3
   6   1  -8 5.32157 2.15997   1
  -6   1   8 4.02678 1.91409   2
   6  -1   8 0.36067 2.00540   1
  -6   1   8 5.75130 1.48117   3
  -6   1   8 7.27170 2.54655   5
  -6   1   8 6.34035 2.57260   4
   6   1  -8 2.05523 1.89306   2
   6  -1  -8 3.36819 2.13225   1
  -6   1  -8 5.70144 1.98736   2
  -6   1  -8 3.64230 2.00345   1
   6   1   8 2.87292 1.86214   2
  -6   1  -8 2.48179 2.39192   3
  -6   1  -8 3.96404 1.87327   5
  -6  -1   8 5.14840 2.16333   3
   6   1   8 3.47635 1.98329   1
  -6  -1   8 7.36593 2.20179   1
   7  -1   8 0.64103 2.08282   1
   7   1  -8 0.26017 2.09808   1
  -7  -1  -8 -2.3655 2.02004   1
  -7   1   8 -2.4587 2.30163   5
  -7   1   8 -1.7192 1.98140   2
   7   1  -8 -0.4026 1.90182   2
  -7   1   8 -0.7864 2.18383   4
  -7   1   8 -1.5315 1.99068   1
  -7  -1   8 -0.9178 2.20342   1
  -7   1  -8 -1.6370 1.83436   5
  -7  -1   8 -1.9374 2.06954   3
  -7   1  -8 3.48190 2.05330   2
   7  -1  -8 -0.4591 2.08566   1
   7   1   8 -0.4520 2.00955   1
  -7   1  -8 1.04502 2.14002   1
   7   1   8 3.45936 1.96291   2
  -8   1   8 489.890 14.8907   1
   8  -1   8 503.099 15.1502   1
   8   1  -8 499.737 15.0408   1
  -8   1   8 492.934 17.7784   4
  -8  -1  -8 514.342 15.1767   1
  -8   1   8 515.728 14.8094   2
   8   1  -8 483.287 14.9312   2
   8   1  -8 465.934 14.8147   2
  -8   1   8 489.262 15.4813   5
   8   1   8 494.291 14.8939   1
   8   1   8 484.043 14.8345   2
   8  -1  -8 480.831 15.0581   1
  -8   1  -8 495.600 14.7907   2
  -8   1  -8 490.461 14.6867   5
  -8  -1   8 493.297 15.1544   1
  -8  -1   8 512.288 17.1337   3
  -8   1  -8 503.922 15.1064   1
  -9   1   8 -1.1285 2.38448   1
   9  -1   8 -3.1766 2.38027   1
  -9   1   8 -0.2102 2.51874   2
  -9  -1  -8 3.10853 2.60879   1
  -9   1   8 3.13511 2.84694   5
   9   1  -8 -1.4693 2.34229   1
  -9  -1   8 1.85423 2.55221   3
   9  -1  -8 -3.2157 2.45883   1
   9   1   8 -3.3380 2.33405   1
   9   1   8 5.91387 2.53667   2
  -9   1  -8 -0.4336 2.41924   1
  -9   1  -8 0.41332 2.20353   5
  -9  -1   8 3.60140 2.68043   1
  10  -1   8 221.748 8.87247   1
  10   1  -8 209.795 8.76615   1
 -10   1   8 219.475 8.69396   1
 -10  -1  -8 215.132 9.04453   1
 -10   1   8 188.674 9.20826   5
 -10   1  -8 211.993 8.33928   5
 -10  -1   8 218.225 9.02939   1
  10   1   8 200.607 8.63176   1
 -10   1  -8 213.140 8.87086   1
  11  -1   8 316.386 11.1061   1
 -11   1   8 285.533 11.3909   5
 -11   1   8 271.182 10.5861   1
  11   1  -8 269.785 10.7580   1
 -11   1  -8 282.428 10.3720   5
  11   1   8 292.479 10.8869   1
 -11   1  -8 293.865 11.1307   1
 -11  -1   8 277.137 11.3597   5
 -11  -1   8 293.945 11.0967   1
 -12   1   8 87.1373 6.58285   1
 -12   1   8 95.0070 7.32389   5
  12   1  -8 85.3680 6.62449   1
  12  -1   8 91.4708 6.90071   1
 -12  -1   8 86.3133 7.07178   1
 -12   1  -8 86.6550 7.02872   1
 -12   1  -8 86.6612 6.15271   5
  12   1   8 77.7448 6.38163   1
 -12  -1   8 79.1679 6.14762   5
  13   1  -8 1.61217 3.47755   1
 -13   1   8 6.25824 3.38307   1
 -13   1   8 5.62037 3.77423   5
 -13   1  -8 -0.1404 3.63257   1
  13   1   8 5.11688 3.45443   1
 -13  -1   8 5.20942 3.71070   1
 -13  -1   8 6.52435 3.59828   5
 -14   1   8 54.9704 5.43185   1
  14   1  -8 62.9909 5.89400   1
 -14   1   8 64.3833 6.11522   5
  14   1   8 72.5737 6.04595   1
 -14  -1   8 65.1356 6.19430   1
 -14  -1   8 60.1532 5.82452   5
 -14   1  -8 52.6837 5.65603   1
 -15   1   8 105.701 8.58487   5
  15   1  -8 114.247 8.28441   1
 -15   1   8 122.344 8.08757   1
 -15  -1   8 132.963 8.41402   5
 -15   1  -8 131.569 8.81870   1
  15   1   8 110.096 8.18172   1
  16   1  -8 384.386 14.6961   1
 -16   1   8 372.366 14.2266   1
 -16   1   8 372.645 14.9507   5
  16   1   8 395.179 14.8521   1
 -16  -1   8 371.769 14.8435   5
 -16   1  -8 391.988 14.8854   1
   0  -2  -8 272.347 9.16889   3
   0   2  -8 255.805 8.00575   1
   0   2   8 252.283 7.59094   1
   0   2   8 274.820 9.38290   3
   0   2   8 238.884 10.9787   4
   0   2   8 252.942 7.82782   5
   0   2  -8 257.182 7.90612   2
   0   2   8 258.521 7.71055   2
   1  -2   8 436.263 15.2765   3
  -1   2   8 442.159 16.8498   4
  -1   2   8 428.319 12.1134   1
  -1   2   8 458.119 12.6267   5
  -1   2   8 455.246 14.3203   3
   1   2  -8 422.644 12.3749   2
  -1   2   8 435.676 12.1757   2
  -1  -2  -8 459.616 14.7562   3
   1   2  -8 433.755 12.5109   1
  -1   2  -8 431.893 12.3722   2
   1   2   8 429.769 16.8578   4
   1   2   8 443.346 14.8349   3
  -1   2  -8 437.270 12.5187   1
   1  -2  -8 474.232 14.1686   3
   1   2   8 439.081 12.1629   1
   1   2   8 450.357 12.2132   2
  -2   2   8 47.6506 2.88901   1
  -2   2   8 50.5768 3.10247   3
   2   2  -8 52.3767 3.30126   2
  -2   2   8 48.5115 3.45218   5
  -2   2   8 48.0772 4.55175   4
   2  -2   8 46.0880 3.84482   3
   2   2  -8 39.3717 2.84004   1
  -2   2   8 46.8046 2.99493   2
  -2  -2  -8 44.4787 3.98849   3
   2   2   8 47.9426 2.95529   1
   2   2   8 46.5350 4.83331   4
   2  -2  -8 52.9158 2.80903   3
   2   2   8 47.4709 3.07404   2
  -2   2  -8 46.3896 3.18659   1
   2   2   8 51.9211 4.18086   3
  -2  -2   8 44.5536 3.77860   3
  -2   2  -8 50.3320 3.21618   2
  -2   2  -8 45.4961 3.64173   5
   3   2  -8 1158.39 30.1120   2
  -3  -2  -8 1160.83 35.9426   3
  -3   2   8 1139.23 30.0905   1
   3  -2   8 1163.46 30.4919   1
   3   2  -8 1116.06 30.3730   1
  -3   2   8 1195.43 30.8455   5
   3  -2   8 1138.24 36.0677   3
  -3   2   8 1163.84 29.8700   2
  -3   2   8 1182.44 38.9654   4
  -3  -2   8 1125.47 35.8469   3
  -3   2  -8 1149.94 30.7384   5
  -3  -2   8 1168.91 30.6165   1
   3   2   8 1197.78 30.1961   1
   3   2   8 1141.53 36.0214   3
  -3   2  -8 1212.04 30.5300   1
   3   2   8 1119.62 39.1399   4
   3   2   8 1141.26 29.9165   2
  -3   2  -8 1156.64 30.0368   2
   4   2  -8 367.851 11.1259   2
  -4   2   8 386.803 10.7769   1
   4   2  -8 373.238 11.0837   1
  -4  -2  -8 358.452 13.4384   3
  -4   2   8 373.894 11.5430   5
  -4   2   8 374.159 10.8308   2
  -4   2   8 384.130 14.4471   4
   4  -2   8 368.667 11.1631   1
   4  -2   8 367.431 13.5941   3
  -4   2  -8 354.589 11.0379   1
   4   2   8 370.140 10.8714   2
  -4   2  -8 373.957 11.3770   5
  -4  -2   8 369.765 11.2950   1
   4   2   8 387.080 10.8924   1
   4   2   8 360.508 13.4664   3
   4   2   8 361.343 14.5428   4
  -4  -2   8 367.797 13.2494   3
  -4   2  -8 357.466 10.9401   2
  -5   2   8 1638.52 42.0564   2
  -5   2   8 1658.77 42.4695   1
   5   2  -8 1626.94 42.7391   1
  -5  -2  -8 1629.01 50.5107   3
  -5   2   8 1669.58 43.3396   5
  -5   2   8 1779.08 54.2422   4
   5   2  -8 1579.98 42.3110   2
  -5  -2   8 1657.56 43.0028   1
  -5  -2   8 1575.89 50.0329   3
  -5   2  -8 1671.71 42.7790   1
   5   2   8 1603.34 54.0581   4
  -5   2  -8 1586.92 50.4670   3
  -5   2  -8 1615.57 42.9292   5
  -5   2  -8 1675.86 42.2120   2
   5   2   8 1606.22 42.0975   2
   5   2   8 1659.90 42.5340   1
  -6   2   8 318.657 12.4007   4
   6   2  -8 317.434 9.90533   1
   6   2  -8 295.131 9.87074   2
  -6   2   8 312.942 10.5485   5
  -6   2   8 298.422 9.58036   2
  -6   2   8 305.495 9.58950   1
  -6   2  -8 312.210 9.90156   1
  -6  -2   8 279.024 11.4330   3
  -6   2  -8 289.972 12.2200   3
   6   2   8 312.108 9.68728   1
   6   2   8 294.083 12.3607   4
  -6   2  -8 309.824 9.78213   2
   6   2   8 312.059 9.75799   2
  -6   2  -8 302.931 10.0430   5
   7   2  -8 265.193 9.45634   2
  -7   2   8 284.524 11.5173   4
  -7   2   8 263.216 9.97408   5
  -7   2   8 265.065 9.08957   1
  -7   2   8 281.390 9.24175   2
   7   2  -8 270.971 9.41713   1
  -7   2  -8 272.512 9.34182   1
   7   2   8 272.137 9.28035   2
   7   2   8 259.670 11.2675   4
  -7   2  -8 274.129 9.28602   2
  -7   2  -8 291.170 9.66007   5
   7   2   8 280.996 9.19656   1
   8   2  -8 19.2322 2.93043   1
   8   2  -8 17.8558 2.90844   2
  -8   2   8 20.2226 2.81959   1
  -8   2   8 22.6269 3.01453   2
   8   2  -8 16.7333 3.09641   2
  -8   2   8 16.6021 3.13515   4
  -8   2   8 17.4959 3.33038   5
  -8   2  -8 12.4488 2.90294   2
  -8   2  -8 16.4379 2.97246   5
   8   2   8 17.6898 2.86312   2
  -8   2  -8 17.7588 2.87196   1
   8   2   8 19.8949 2.90291   1
  -9   2   8 -0.0081 2.83472   5
  -9   2   8 2.07493 2.38515   1
   9   2  -8 4.78037 2.57257   1
  -9   2   8 1.13622 2.41625   2
   9   2  -8 1.97555 2.34292   2
   9   2   8 2.89980 2.44123   1
   9   2   8 6.67684 2.60438   2
  -9   2  -8 3.07435 2.60840   5
  -9   2  -8 7.00847 2.60897   2
  -9   2  -8 6.68026 2.63834   1
 -10   2   8 42.0282 4.62174   5
  10   2  -8 43.4613 4.46592   2
 -10   2   8 43.4314 4.17136   2
 -10   2   8 43.0485 3.93821   1
  10   2  -8 43.4983 4.18297   1
 -10   2  -8 44.6032 4.25552   2
 -10   2  -8 47.1934 4.28202   1
 -10   2  -8 43.3525 4.30866   5
  10   2   8 39.9520 3.91017   1
  10   2   8 48.2728 4.36824   2
 -11   2   8 246.398 10.9477   5
 -11   2   8 255.956 10.0035   2
 -11   2   8 250.948 9.81509   1
  11   2  -8 265.366 10.1779   1
  11   2   8 276.383 11.0892   2
  11   2   8 256.103 9.92598   1
 -11   2  -8 260.154 10.1886   5
 -11   2  -8 253.468 10.0933   1
  12   2  -8 709.960 21.6855   1
 -12   2   8 696.565 22.3949   5
 -12   2   8 729.160 21.4209   1
  12   2   8 712.470 21.5463   1
 -12  -2   8 722.733 22.2783   5
 -12   2  -8 761.679 21.8837   1
 -12   2  -8 728.205 21.7460   5
  13   2  -8 23.7742 4.18317   1
 -13   2   8 24.7743 4.08570   1
 -13   2   8 22.4469 4.71335   5
 -13   2  -8 24.8398 4.13458   1
 -13   2  -8 30.4116 4.55329   5
 -13  -2   8 22.9107 4.21117   5
  13   2   8 23.0376 4.10254   1
  14   2  -8 17.6581 4.36491   1
 -14   2   8 25.8843 4.85485   5
 -14   2   8 26.7943 4.07924   1
  14   2   8 29.8838 4.53680   1
 -14   2  -8 23.9588 4.54484   5
 -14  -2   8 26.5808 4.79180   5
 -14   2  -8 21.5528 4.39658   1
  15   2  -8 100.499 7.79610   1
 -15   2   8 90.7016 7.38402   5
 -15   2   8 86.2823 6.51595   1
  15   2   8 93.3611 7.53280   1
 -15   2  -8 99.1656 7.88519   1
 -16   2   8 191.943 9.88082   1
  16   2  -8 238.542 10.8810   1
 -16   2   8 201.682 11.4605   5
  16   2   8 208.777 10.4736   1
 -16   2  -8 215.758 10.5000   1
   0   3   8 0.69010 1.56793   3
   0   3  -8 -0.9382 1.30435   2
   0  -3  -8 -0.6688 1.50121   3
   0   3   8 0.57400 1.10481   5
   0   3  -8 1.78121 1.25167   1
   0   3   8 0.71558 1.25333   2
   0   3   8 -0.6449 2.08662   4
  -1   3   8 43.9942 2.84370   5
  -1   3   8 47.6829 3.20923   3
   1   3  -8 49.5522 3.13180   2
   1   3  -8 45.9407 2.87805   1
  -1  -3  -8 42.8515 3.67916   3
  -1   3   8 42.2836 4.27759   4
  -1   3   8 41.2355 2.77596   2
  -1  -3   8 47.3092 4.53346   3
   1   3   8 43.3316 3.72837   3
   1   3   8 45.9072 4.49001   4
   1  -3  -8 48.6217 3.27944   3
  -1   3  -8 42.3293 2.82466   1
   1   3   8 44.8004 2.81312   2
  -1   3  -8 51.1885 3.12538   2
  -2  -3  -8 3.45056 1.77086   3
  -2   3   8 5.11063 1.71320   5
   2   3  -8 5.49374 1.65208   2
  -2   3   8 4.53595 2.46317   4
   2   3  -8 6.41488 1.55410   1
  -2   3   8 5.34997 1.53026   2
  -2   3  -8 5.47955 2.01613   5
  -2   3  -8 6.57935 1.70709   2
   2   3   8 6.06731 1.47040   2
  -2   3  -8 6.10222 1.47486   1
  -2  -3   8 6.93823 2.32813   3
   2   3   8 2.35304 2.27528   4
   2   3   8 3.98005 2.05701   3
   3   3  -8 70.4991 3.83781   2
  -3  -3  -8 65.6017 4.80262   3
  -3   3   8 66.0907 5.38973   4
  -3   3   8 65.7022 3.41064   2
  -3   3   8 67.1680 3.98690   5
   3   3  -8 61.6278 3.54883   1
  -3   3  -8 61.2731 4.37305   5
   3   3   8 62.1210 3.45579   2
  -3   3  -8 65.6943 3.44606   1
  -3   3  -8 67.7397 3.77545   2
   3   3   8 67.0160 4.76212   3
   3   3   8 55.0139 5.00981   4
  -4   3   8 37.7800 2.70138   2
  -4   3   8 35.3588 2.45031   1
  -4   3   8 41.8643 3.37562   5
   4   3  -8 39.1495 2.74626   1
   4   3  -8 36.9451 3.04479   2
  -4  -3  -8 39.1391 3.88157   3
  -4   3   8 39.9866 4.24940   4
   4   3   8 38.6079 4.06949   4
   4   3   8 33.5300 2.53383   1
  -4   3  -8 36.1216 3.39784   5
  -4   3  -8 38.5361 3.07100   1
   4   3   8 40.5030 3.13994   2
  -4   3  -8 31.9944 2.73795   2
  -5   3   8 159.760 6.77884   5
  -5   3   8 163.645 8.39176   4
   5   3  -8 163.058 6.48296   2
  -5   3   8 161.122 5.42665   1
   5   3  -8 158.166 6.04898   1
  -5   3   8 157.957 5.92713   2
  -5   3  -8 153.524 6.22410   2
   5   3   8 151.918 5.48750   1
  -5   3  -8 167.276 6.05233   1
   5   3   8 156.027 6.05478   2
   5   3   8 158.404 7.99444   4
  -5   3  -8 152.882 6.84979   5
  -6   3   8 4.63859 2.47373   5
  -6   3   8 4.81298 1.69885   1
  -6   3   8 2.21166 2.75638   4
  -6   3   8 2.71328 1.95036   2
   6   3  -8 4.07236 2.10771   2
   6   3  -8 6.45229 1.99118   1
   6   3   8 3.94352 1.85661   1
  -6   3  -8 1.45237 2.32922   5
   6   3   8 5.98684 1.97831   2
  -6   3  -8 7.02540 2.16892   2
  -6   3  -8 4.15914 1.86349   1
   6   3   8 4.82873 2.40241   4
   7   3  -8 1.58331 2.24698   2
  -7   3   8 2.25139 2.16643   2
  -7   3   8 4.36063 2.94337   4
  -7   3   8 1.09809 1.86280   1
   7   3  -8 4.40658 2.04693   1
  -7   3   8 -0.1386 2.46848   5
   7   3   8 4.99257 2.18102   2
  -7   3  -8 2.18274 2.45068   5
  -7   3  -8 2.69479 2.02713   1
  -7   3  -8 2.77897 2.17175   2
   7   3   8 3.55819 1.95663   1
   8   3  -8 417.735 13.2288   2
  -8   3   8 428.067 16.1268   4
   8   3  -8 408.986 12.6685   1
  -8   3   8 391.421 12.2067   1
  -8   3   8 407.557 12.6772   2
  -8   3   8 399.772 13.7477   5
   8   3   8 397.374 12.2937   1
   8   3   8 388.945 12.7280   2
  -8   3  -8 387.671 13.3273   5
  -8   3  -8 423.255 12.7155   1
  -8   3  -8 413.656 12.8785   2
  -9   3   8 2.48895 2.56544   2
   9   3  -8 -1.4592 2.32751   1
  -9   3   8 1.27670 2.95887   4
   9   3  -8 0.47404 2.41002   2
   9   3  -8 1.00473 2.59247   2
  -9   3   8 -5.3144 2.01657   1
  -9   3   8 -3.8594 2.85441   5
   9   3   8 -1.0734 2.19632   1
   9   3   8 -1.3797 2.29770   2
  -9   3  -8 -3.2268 2.21862   2
  -9   3  -8 -2.3167 2.60918   5
  -9   3  -8 0.57262 2.37171   1
 -10   3   8 155.145 7.08504   1
  10   3  -8 174.252 7.60065   1
 -10   3   8 166.981 8.78819   5
  10   3  -8 169.574 7.95900   2
 -10   3   8 163.582 7.77449   2
 -10   3  -8 174.487 7.83618   2
 -10   3  -8 167.864 8.40111   5
  10   3   8 161.566 7.80441   2
  10   3   8 173.077 7.23781   1
 -10   3  -8 176.343 7.53430   1
 -11   3   8 261.482 9.64206   1
  11   3  -8 266.442 10.4784   2
 -11   3   8 276.994 10.2318   2
 -11   3   8 250.084 11.1197   5
  11   3  -8 251.977 10.0422   1
  11   3   8 262.775 9.81239   1
  11   3   8 268.459 10.4105   2
 -11   3  -8 259.347 10.0563   1
 -11   3  -8 256.662 10.8345   5
 -11   3  -8 243.628 10.0893   2
 -12   3   8 66.0854 4.95012   1
  12   3  -8 74.6362 5.53657   1
 -12   3   8 79.7837 6.43058   5
 -12   3   8 80.7945 5.90500   2
  12   3   8 76.6568 6.01213   1
 -12   3  -8 74.2121 6.10844   5
 -12   3  -8 74.8718 6.14592   1
  12   3   8 80.6169 6.04581   2
 -13   3   8 -3.2628 3.71241   5
  13   3  -8 13.3616 3.58006   1
 -13   3   8 0.48402 2.95828   1
 -13   3  -8 2.55030 3.66415   5
 -13   3  -8 5.57467 3.24388   1
  13   3   8 0.41220 3.29362   1
  14   3  -8 44.6598 5.16214   1
 -14   3   8 39.0140 4.46396   1
 -14   3   8 35.8900 5.42713   5
  14   3   8 42.4326 4.88700   1
 -14   3  -8 45.2752 5.01449   1
 -14   3  -8 39.3783 5.27890   5
 -15   3   8 97.0612 7.63908   5
 -15   3   8 101.541 7.12362   1
  15   3  -8 104.858 7.67018   1
 -15   3  -8 100.916 7.57430   1
 -15   3  -8 102.626 8.45057   5
  15   3   8 109.839 7.65611   1
   0   4   8 678.105 18.0559   2
   0   4   8 687.792 25.0508   4
   0   4  -8 697.110 18.4787   2
  -1   4   8 43.5358 4.72418   4
  -1  -4  -8 42.6184 3.89560   3
  -1   4   8 42.3437 2.72492   2
   1   4  -8 40.7422 3.10427   2
  -1   4  -8 44.7551 3.15608   2
   1   4   8 43.7768 2.79794   2
   1   4   8 38.1726 3.46939   3
   1   4   8 43.2775 4.60713   4
  -2  -4  -8 17.6410 2.73878   3
  -2   4   8 23.4224 2.04474   2
  -2   4   8 24.2695 2.42948   5
  -2   4   8 22.4780 3.62554   4
   2   4  -8 23.7367 2.37504   2
  -2   4  -8 19.8825 2.80950   5
   2   4   8 19.9856 1.97700   2
  -2   4  -8 20.1176 2.21109   2
   2   4   8 24.1958 3.72304   4
  -3   4   8 167.209 5.87638   2
   3   4  -8 167.057 6.35581   2
  -3  -4  -8 173.087 7.96011   3
  -3   4   8 171.553 6.50087   5
  -3   4   8 175.960 9.00121   4
   3   4   8 163.888 5.80455   2
  -3   4  -8 165.776 7.29009   5
   3   4   8 162.816 8.67918   4
  -3   4  -8 179.357 6.19107   2
  -4   4   8 371.564 10.8451   2
   4   4  -8 364.405 11.3262   2
  -4   4   8 387.683 11.7551   5
  -4   4   8 376.930 15.3423   4
   4   4   8 372.055 10.9073   2
  -4   4  -8 376.948 11.1798   2
  -4   4  -8 364.571 12.2256   5
   4   4   8 350.169 14.8394   4
  -5   4   8 108.377 4.92574   2
  -5   4   8 126.992 7.84778   4
  -5   4   8 110.055 5.77688   5
   5   4  -8 108.712 5.38528   2
   5   4  -8 110.976 4.41123   1
   5   4   8 107.248 4.98070   2
   5   4   8 104.042 6.64271   4
  -5   4  -8 119.984 5.34631   2
  -5   4  -8 119.016 6.33291   5
  -6   4   8 105.484 7.32358   4
  -6   4   8 97.5040 5.87110   5
   6   4  -8 105.971 4.51917   1
   6   4  -8 98.5789 5.36360   2
  -6   4   8 99.3389 4.95891   2
   6   4   8 92.8136 4.99092   2
  -6   4  -8 108.324 6.26522   5
   6   4   8 84.3888 6.18306   4
  -6   4  -8 104.900 5.26441   2
  -6   4  -8 103.162 4.23743   1
   7   4  -8 163.584 6.30855   1
  -7   4   8 161.821 7.84410   5
   7   4  -8 179.184 7.35452   2
  -7   4   8 173.199 6.91632   2
  -7   4   8 169.758 9.41651   4
   7   4   8 178.224 7.08219   2
  -7   4  -8 171.014 6.18782   1
  -7   4  -8 181.211 7.24634   2
  -7   4  -8 164.425 8.08796   5
   8   4  -8 184.201 8.00658   2
  -8   4   8 182.641 7.41162   2
   8   4  -8 166.791 6.84406   1
  -8   4   8 188.566 9.88450   4
  -8   4   8 166.350 8.37475   5
  -8   4  -8 181.090 8.45903   5
  -8   4  -8 201.374 6.93341   1
   8   4   8 178.403 7.62113   2
  -8   4  -8 179.165 7.72075   2
   9   4  -8 7.72286 2.82226   2
  -9   4   8 1.78100 2.54698   2
  -9   4   8 0.03101 3.08422   5
   9   4  -8 -1.2827 2.14159   1
  -9   4   8 0.03288 3.18915   4
   9   4  -8 -0.2824 2.38829   2
  -9   4  -8 3.38774 2.65923   2
  -9   4  -8 -0.4269 2.94654   5
   9   4   8 1.68092 2.03116   1
   9   4   8 -3.7258 2.39126   2
  -9   4  -8 0.42618 2.11130   1
 -10   4   8 205.407 8.56134   2
 -10   4   8 207.220 7.34638   1
  10   4  -8 203.093 8.84473   2
 -10   4   8 191.023 9.60864   5
  10   4  -8 196.335 8.03071   1
  10   4   8 207.553 8.79469   2
 -10   4  -8 202.339 8.68773   2
 -10   4  -8 193.164 9.64561   5
  10   4   8 205.714 7.43382   1
 -10   4  -8 204.594 8.02994   1
 -11   4   8 157.112 9.26386   5
  11   4  -8 179.032 8.50684   2
 -11   4   8 170.668 8.07992   2
 -11   4   8 165.191 6.95914   1
  11   4  -8 168.804 7.64057   1
  11   4   8 155.795 8.18499   2
 -11   4  -8 171.606 7.60484   1
 -11   4  -8 167.469 9.07760   5
 -11   4  -8 163.853 8.12987   2
  11   4   8 155.767 6.91236   1
 -12   4   8 258.449 10.7735   2
  12   4  -8 281.080 11.3819   2
 -12   4   8 254.353 11.8549   5
  12   4  -8 268.632 10.1741   1
 -12   4   8 271.512 9.64878   1
  12   4   8 260.968 9.60009   1
 -12   4  -8 267.333 11.6938   5
  12   4   8 272.199 11.0532   2
 -12   4  -8 275.882 10.2301   1
 -12   4  -8 263.000 10.7899   2
 -13   4   8 45.4142 5.83722   5
 -13   4   8 54.0564 4.36976   1
  13   4  -8 59.9305 4.85941   1
 -13   4   8 53.1556 5.50264   2
  13   4   8 54.2834 5.42531   2
 -13   4  -8 51.1995 4.82860   1
  13   4   8 59.9119 4.64462   1
 -13   4  -8 41.3357 5.50133   5
 -13   4  -8 54.1146 5.32925   2
 -14   4   8 100.807 7.67553   2
 -14   4   8 88.7294 6.30791   1
 -14   4   8 87.5724 7.31580   5
  14   4  -8 93.4748 6.88001   1
 -14   4  -8 104.394 7.86014   5
  14   4   8 97.7453 6.48640   1
 -14   4  -8 94.8169 6.97403   1
   0   5   8 -0.0477 2.68859   4
   0   5  -8 2.29092 1.45752   2
   0   5   8 -0.2842 1.32747   2
  -1   5   8 42.0252 5.02588   4
   1   5  -8 41.5143 3.30432   2
  -1   5   8 42.3818 2.85923   2
   1   5   8 42.6510 2.88384   2
   1   5   8 42.7276 4.95460   4
  -1   5  -8 40.7491 3.14675   2
   2   5  -8 3.44228 1.61776   2
  -2   5   8 4.24211 3.10986   4
  -2   5   8 -1.0553 1.47980   2
  -2   5  -8 7.54496 2.56387   5
   2   5   8 2.06766 2.79709   4
  -2   5  -8 0.34657 1.54742   2
   2   5   8 2.27114 1.42445   2
  -3   5   8 33.2587 4.68565   4
  -3   5   8 25.9019 2.32985   2
   3   5  -8 25.1998 2.59799   2
   3   5   8 30.6388 4.39819   4
  -3   5  -8 26.1847 3.53669   5
  -3   5  -8 24.0965 2.41961   2
   3   5   8 27.9059 2.39670   2
  -4   5   8 54.5305 5.69343   4
  -4   5   8 47.2372 3.96206   5
  -4   5   8 47.9823 3.46926   2
   4   5  -8 46.5006 3.54978   2
   4   5   8 51.6570 3.54464   2
   4   5   8 52.5558 5.50524   4
  -4   5  -8 49.6013 4.44485   5
  -4   5  -8 47.8851 3.78925   2
  -5   5   8 87.5029 4.60471   2
  -5   5   8 102.968 5.78424   5
  -5   5   8 96.0826 7.54959   4
   5   5  -8 95.3683 5.14372   2
  -5   5  -8 94.1427 6.43811   5
   5   5   8 96.3031 6.96779   4
  -5   5  -8 103.080 5.09474   2
   5   5   8 93.1845 4.76474   2
  -6   5   8 2.73944 2.06782   2
  -6   5   8 5.81604 3.40735   4
   6   5  -8 2.68759 2.05136   2
  -6   5   8 2.96780 2.69927   5
  -6   5  -8 1.68479 2.95482   5
   6   5   8 5.36045 2.89819   4
   6   5   8 -1.8017 1.83334   2
  -6   5  -8 2.34913 2.16623   2
  -7   5   8 2.99378 2.87471   5
   7   5  -8 0.47304 2.21021   2
  -7   5   8 -0.0890 3.33603   4
  -7   5   8 -3.0056 2.14026   2
  -7   5  -8 4.90729 3.12122   5
   7   5   8 0.23856 2.06582   2
  -7   5  -8 -0.6362 2.17155   2
  -8   5   8 258.395 10.6892   5
   8   5  -8 259.388 9.82267   2
  -8   5   8 257.149 12.7196   4
  -8   5   8 242.024 9.03941   2
  -8   5  -8 248.624 9.44043   2
  -8   5  -8 258.724 10.7739   5
   8   5   8 253.261 9.38208   2
   9   5  -8 3.13948 2.77671   2
  -9   5   8 2.76533 3.51069   4
   9   5  -8 -0.5897 2.58803   2
  -9   5   8 3.09059 2.72349   2
  -9   5   8 0.39876 3.33993   5
  -9   5  -8 -4.0469 2.53602   2
   9   5   8 5.82044 2.89538   2
  -9   5  -8 2.26405 3.46011   5
 -10   5   8 105.723 8.17495   5
 -10   5   8 122.193 6.68921   2
  10   5  -8 121.238 7.06969   2
  10   5   8 124.332 7.06057   2
 -10   5  -8 116.063 7.08590   2
 -10   5  -8 119.281 8.37896   5
 -11   5   8 145.174 7.81231   2
  11   5  -8 151.761 8.16583   2
 -11   5   8 147.964 9.38115   5
 -11   5  -8 162.938 9.41893   5
 -11   5  -8 145.221 8.02338   2
  11   5   8 150.830 8.09507   2
 -12   5   8 45.4412 4.76953   2
 -12   5   8 44.4284 5.76397   5
  12   5  -8 37.2565 4.82201   2
 -12   5  -8 44.6713 5.71503   5
  12   5   8 42.3697 4.86719   2
 -12   5  -8 33.5094 4.56651   2
  13   5  -8 3.88735 2.90994   1
  13   5  -8 6.41148 3.55283   2
 -13   5   8 9.14940 4.50925   5
 -13   5   8 0.54865 3.55499   2
 -13   5  -8 1.68121 4.19515   5
 -13   5  -8 2.53210 3.51235   2
  13   5   8 0.88121 3.30413   2
   0   6   8 66.9099 3.42197   2
   0   6   8 64.8669 6.71239   4
   0   6  -8 68.2923 3.92715   2
   1   6  -8 158.043 5.96944   2
  -1   6   8 156.784 9.66029   4
  -1   6   8 158.003 5.48016   2
   1   6   8 152.213 9.57885   4
  -1   6  -8 157.725 5.99173   2
   1   6   8 161.437 5.43242   2
  -2   6   8 23.2047 4.62737   4
   2   6  -8 15.0084 2.20809   2
  -2   6   8 15.4291 1.95988   2
   2   6   8 18.7013 4.08322   4
  -2   6  -8 15.3089 2.21808   2
   2   6   8 21.1417 2.09720   2
  -3   6   8 371.147 16.7478   4
  -3   6   8 371.475 10.9758   2
   3   6  -8 385.081 11.5763   2
   3   6   8 394.991 11.0991   2
  -3   6  -8 375.936 11.4022   2
  -3   6  -8 388.958 13.3290   5
   3   6   8 365.884 16.4361   4
  -4   6   8 149.198 9.79222   4
   4   6  -8 142.182 6.25022   2
  -4   6   8 149.075 5.74532   2
   4   6   8 170.342 9.59239   4
  -4   6  -8 148.021 6.16689   2
   4   6   8 143.509 5.84063   2
  -4   6  -8 161.558 8.12958   5
   5   6  -8 616.793 17.8948   2
  -5   6   8 602.079 24.4861   4
  -5   6   8 607.825 17.2850   2
  -5   6  -8 624.535 17.7211   2
  -5   6  -8 624.562 19.6387   5
   5   6   8 663.303 24.2915   4
   5   6   8 629.019 17.4919   2
  -6   6   8 128.009 5.81031   2
  -6   6   8 132.570 9.37926   4
   6   6  -8 128.190 6.26238   2
   6   6   8 127.443 5.91953   2
  -6   6  -8 128.459 6.03165   2
  -6   6  -8 123.924 7.75118   5
  -7   6   8 107.521 8.74056   4
  -7   6   8 97.0341 7.03485   5
   7   6  -8 101.518 5.96472   2
  -7   6   8 100.066 5.44526   2
  -7   6  -8 100.032 5.73679   2
  -7   6  -8 96.3708 7.51278   5
   7   6   8 96.3349 5.55632   2
   8   6  -8 -0.3246 2.37499   2
  -8   6   8 3.37488 2.45129   2
   8   6  -8 8.33307 2.78613   2
  -8   6   8 5.95062 3.38634   5
  -8   6   8 2.08710 4.01583   4
   8   6   8 4.38624 2.60885   2
  -8   6  -8 8.81949 3.85617   5
  -8   6  -8 9.47362 2.85261   2
  -9   6   8 0.28186 3.90534   4
  -9   6   8 0.56450 3.44635   5
  -9   6   8 8.73442 2.85795   2
   9   6  -8 3.77341 2.71093   2
  -9   6  -8 1.37036 2.67693   2
   9   6   8 3.41271 2.79332   2
  -9   6  -8 5.60599 3.74739   5
  10   6  -8 16.9128 3.44550   2
 -10   6   8 16.3903 3.45783   2
 -10   6   8 16.5481 4.50392   5
  10   6   8 15.1063 3.61441   2
 -10   6  -8 18.2876 3.67564   2
 -10   6  -8 9.25987 4.19071   5
 -11   6   8 113.532 8.93054   5
  11   6  -8 121.958 7.52916   2
 -11   6   8 113.589 6.94512   2
 -11   6  -8 126.515 8.87874   5
  11   6   8 120.386 7.34161   2
 -11   6  -8 106.960 7.35002   2
   0   7  -8 3.13318 1.70571   2
   0   7   8 -1.4357 3.06525   4
   1   7  -8 8.15339 2.01648   2
  -1   7   8 15.2402 4.32693   4
   1   7   8 13.5406 4.15608   4
  -1   7  -8 8.36264 1.92901   2
   2   7  -8 1.96288 1.83815   2
  -2   7   8 3.29853 3.57052   4
  -2   7  -8 3.11527 1.78352   2
   2   7   8 0.01426 3.20691   4
   2   7   8 5.28260 1.73087   2
   3   7  -8 23.5776 2.90448   2
  -3   7   8 20.7379 4.99157   4
  -3   7   8 28.1850 2.46739   2
   3   7   8 30.0902 2.64102   2
  -3   7  -8 27.2134 2.79348   2
   3   7   8 27.0307 5.11768   4
  -4   7   8 9.85802 2.21087   2
  -4   7   8 12.5403 4.59671   4
   4   7  -8 5.25061 2.35138   2
   4   7   8 13.0193 4.22480   4
  -4   7  -8 14.0598 3.71044   5
   4   7   8 14.0213 2.30376   2
  -4   7  -8 7.51447 2.25119   2
  -5   7   8 55.7515 6.93837   4
  -5   7   8 59.6540 4.14913   2
   5   7  -8 64.1655 4.73600   2
  -5   7  -8 64.1110 4.54529   2
  -5   7  -8 62.0392 5.78615   5
   5   7   8 58.1184 4.27262   2
   6   7  -8 4.54475 2.51896   2
  -6   7   8 1.98291 2.19705   2
  -6   7   8 8.00881 4.47078   4
   6   7   8 3.37289 2.30822   2
  -6   7  -8 3.41847 3.51121   5
  -6   7  -8 3.49750 2.24468   2
  -7   7   8 3.37361 2.44819   2
  -7   7   8 4.44539 4.06607   4
   7   7  -8 2.88169 2.50403   2
  -7   7  -8 3.18134 3.54451   5
   7   7   8 2.17726 2.49411   2
  -7   7  -8 -2.1013 2.14782   2
   8   7  -8 170.483 7.92594   2
  -8   7   8 172.053 11.4853   4
  -8   7   8 167.332 7.17890   2
   8   7  -8 169.705 7.87059   2
   8   7   8 165.908 7.50100   2
  -8   7  -8 185.013 9.98949   5
  -8   7  -8 174.215 7.66913   2
   0   8  -8 202.153 7.39295   2
   1   8  -8 19.1761 2.58404   2
  -1   8  -8 17.5438 2.47794   2
   2   8  -8 8.14815 2.40278   2
  -2   8  -8 10.2782 2.30392   2
   3   8  -8 38.4122 3.67484   2
  -3   8  -8 39.5186 3.31256   2
  -4   8   8 130.003 5.46043   2
   4   8  -8 121.252 6.35352   2
  -4   8  -8 130.143 6.03447   2
   4   8   8 142.529 5.70286   2
   0   0  -9 -1.8308 1.91727   3
   0   0   9 -0.3345 1.88422   3
   0   0   9 -0.4175 1.71587   1
   0   0  -9 -4.4572 1.35690   2
   0   0  -9 0.05069 1.67872   1
   0   0   9 2.50099 1.64452   2
  -1   0  -9 45.5388 3.33985   2
  -1   0   9 52.9556 3.64936   1
   1   0  -9 52.3985 3.33423   2
  -1   0   9 55.8104 3.37930   2
  -1   0  -9 50.7332 4.21831   3
  -1   0  -9 49.2230 3.48119   1
   1   0   9 52.9661 4.49089   3
  -1   0   9 57.5053 4.25899   3
   1   0  -9 58.8716 3.61337   1
   1   0   9 57.6265 3.64423   1
   1   0   9 52.7578 3.39852   2
   2   0   9 2.04283 1.80305   1
  -2   0  -9 -2.1117 1.59811   2
  -2   0   9 4.58608 1.80602   1
   2   0   9 2.19268 1.65889   2
  -2   0  -9 0.59765 1.74912   1
  -2   0   9 3.35788 1.90022   3
   2   0   9 -0.3752 2.01016   3
   2   0  -9 1.26834 1.60302   2
  -2   0   9 1.73985 1.59865   2
   2   0  -9 1.84291 1.78223   1
  -2   0  -9 0.97889 2.07379   3
  -3   0  -9 301.055 12.1288   3
   3   0   9 325.753 12.3599   3
  -3   0   9 360.924 11.7876   3
  -3   0  -9 344.696 10.1577   2
  -3   0   9 349.954 10.3066   1
  -3   0   9 343.341 10.1200   2
   3   0   9 317.695 10.1180   2
   3   0   9 337.805 10.3085   1
   3   0  -9 357.150 10.1923   2
   3   0  -9 346.571 10.3164   1
  -3   0  -9 321.285 10.2173   1
   4   0  -9 11.4418 2.14877   2
  -4   0  -9 13.6032 2.21764   2
  -4   0  -9 15.4120 2.81824   3
   4   0   9 11.6188 2.54736   3
  -4   0  -9 13.6669 2.26073   1
   4   0   9 12.1598 2.23312   2
   4   0   9 10.4379 2.12024   1
   4   0  -9 11.6770 2.25789   1
  -4   0   9 11.0464 2.20365   1
  -4   0   9 14.0502 2.17441   2
  -4   0   9 14.0732 2.15032   3
  -5   0   9 308.052 9.50670   2
   5   0  -9 293.622 9.63672   1
  -5   0   9 317.063 10.4191   3
   5   0  -9 315.532 9.53825   2
  -5   0  -9 283.887 9.55798   1
  -5   0  -9 287.881 9.44712   2
   5   0   9 303.937 9.57494   2
  -5   0  -9 279.303 11.5784   3
  -5   0  -9 290.193 9.00546   5
  -5   0   9 303.241 9.67205   1
   5   0   9 289.939 9.62234   1
   6   0  -9 396.578 12.0730   1
  -6   0  -9 394.452 11.3799   5
  -6   0   9 395.219 11.8756   2
   6   0   9 379.765 11.9977   1
  -6   0   9 399.006 12.1156   1
  -6   0  -9 385.290 11.8329   2
  -6   0   9 407.373 13.0907   3
   6   0   9 379.281 11.8469   2
  -6   0  -9 369.146 12.0371   1
  -6   0  -9 368.466 14.4832   3
  -7   0   9 50.4610 3.99748   3
  -7   0   9 42.6345 3.77078   1
  -7   0  -9 44.0664 3.74364   1
  -7   0   9 58.7821 4.36931   2
   7   0   9 48.6336 3.80747   1
  -7   0  -9 53.8807 3.71865   5
   7   0  -9 45.9060 3.79349   1
   7   0   9 49.4197 4.18765   2
  -8   0   9 831.236 23.5526   1
   8   0  -9 869.115 23.7031   1
  -8   0  -9 858.432 23.7380   1
   8   0   9 824.503 23.5932   1
  -8   0  -9 807.089 22.6901   5
  -9   0   9 0.36995 2.59035   1
   9   0  -9 2.65599 2.68953   1
  -9   0  -9 -1.5937 2.54745   1
   9   0   9 -0.2478 2.49421   1
 -10   0   9 63.3958 5.37271   5
  10   0   9 73.9258 5.73907   1
 -10   0   9 71.8468 5.86055   1
 -10   0  -9 63.0145 5.09702   1
  10   0  -9 71.5684 5.72232   1
  11   0  -9 662.312 19.5790   1
 -11   0   9 612.010 19.7267   5
  11   0   9 621.721 19.3437   1
 -11   0   9 623.547 19.3522   1
 -11   0  -9 638.824 19.5783   1
 -12   0   9 48.2410 5.18402   1
  12   0   9 58.6493 5.22486   1
  12   0  -9 44.3846 4.91338   1
 -12   0  -9 43.0247 4.98773   1
 -12   0   9 41.4051 5.00426   5
 -13   0   9 73.0550 6.24632   5
  13   0  -9 72.7640 6.19985   1
 -13   0  -9 98.4249 6.99523   1
 -13   0   9 65.7461 5.80814   1
  13   0   9 81.6759 6.36699   1
 -14   0  -9 6.77617 4.15841   1
  14   0  -9 3.76924 3.66685   1
 -14   0   9 3.98528 3.69169   1
 -14   0   9 10.3469 3.98234   5
  14   0   9 7.12670 3.77912   1
  15   0  -9 11.7291 4.33062   1
  15   0   9 15.9549 4.47710   1
 -15   0   9 12.1183 4.28275   5
 -15   0   9 8.65346 4.31631   1
 -15   0  -9 23.3174 4.88191   1
  16   0  -9 183.075 10.2167   1
 -16   0   9 182.755 10.0336   1
  16   0   9 186.141 10.2228   1
 -16   0  -9 196.464 10.8882   1
 -16   0   9 161.139 10.0505   5
   0   1  -9 338.099 9.81049   2
   0  -1   9 339.418 12.0756   3
   0   1   9 315.284 9.81928   1
   0  -1  -9 347.102 9.93448   1
   0  -1   9 336.082 10.0488   1
   0  -1  -9 348.446 11.5340   3
   0   1   9 344.720 11.6633   3
   0   1   9 307.095 9.65221   2
   0   1  -9 307.837 9.94127   1
  -1  -1  -9 335.848 10.2177   1
   1   1  -9 319.759 10.2688   1
   1  -1   9 339.491 12.4597   3
  -1   1   9 361.316 11.8454   3
  -1  -1  -9 345.977 12.0558   3
  -1   1   9 348.004 10.1867   1
   1  -1   9 342.379 10.3367   1
   1   1  -9 343.372 10.0854   2
  -1   1   9 343.075 10.0182   2
  -1  -1   9 358.555 12.3620   3
  -1  -1   9 349.649 10.3790   1
   1   1   9 336.332 10.1401   1
   1  -1  -9 362.944 11.6301   3
   1  -1  -9 362.277 10.3301   1
   1   1   9 352.644 12.2403   3
  -1   1  -9 331.289 10.0826   2
  -1   1  -9 320.702 10.2801   1
   1   1   9 336.689 10.0440   2
  -2  -1  -9 6.83714 1.80272   1
  -2   1   9 6.59054 1.71454   2
  -2   1   9 5.03794 1.86510   3
   2   1  -9 3.76441 1.65787   2
   2   1  -9 5.10585 1.84727   1
   2  -1   9 4.37679 2.26741   3
  -2   1   9 2.29760 1.75611   1
   2  -1   9 7.75480 1.88628   1
  -2  -1  -9 1.47453 2.00313   3
   2   1   9 8.49029 2.35780   3
  -2  -1   9 5.54500 1.83887   2
  -2   1  -9 2.81415 1.73464   1
  -2   1  -9 3.81091 1.72798   2
   2   1   9 3.61960 1.66744   2
  -2  -1   9 4.17383 1.81650   1
   2   1   9 6.44890 1.84730   1
  -2   1  -9 5.45544 2.21024   3
   2  -1  -9 1.44996 1.82370   1
   3   1  -9 45.9183 3.60459   1
   3  -1   9 40.0532 3.83870   3
  -3  -1  -9 48.7477 4.40392   3
  -3   1   9 47.4626 3.31307   2
   3  -1   9 44.1513 3.43703   1
  -3   1   9 56.3126 3.45591   3
   3   1  -9 48.4334 3.37530   2
   3  -1   9 49.7646 3.55140   2
  -3   1   9 47.8444 3.47721   1
  -3  -1  -9 44.1872 3.41698   1
  -3   1  -9 38.0487 3.80782   3
   3   1   9 42.5623 3.52622   1
  -3  -1   9 46.7028 3.88736   3
  -3  -1   9 50.7926 3.40627   2
  -3   1  -9 39.3981 3.10704   1
   3   1   9 42.5560 3.79166   3
   3  -1  -9 48.3523 3.61442   1
  -3  -1   9 50.8707 3.72403   1
  -3   1  -9 46.6880 3.41098   2
   3   1   9 46.2938 3.44619   2
   4   1  -9 3.44503 1.77170   2
  -4   1   9 1.17096 2.83698   4
   4  -1   9 0.30466 1.87531   2
  -4   1   9 2.25754 1.56604   3
  -4  -1  -9 0.93684 2.01881   3
  -4   1   9 0.77132 1.71535   1
  -4   1   9 1.81470 1.67354   2
   4   1  -9 2.18295 1.87367   1
  -4   1   9 2.38406 1.35269   3
  -4  -1  -9 2.99491 1.71727   1
   4  -1   9 -1.2237 1.70801   1
   4  -1   9 -2.5830 1.90504   3
  -4   1  -9 -0.1703 1.71849   5
  -4  -1   9 -0.3996 1.85542   3
  -4   1  -9 1.81846 1.81340   1
   4  -1  -9 2.51092 1.86891   1
  -4  -1   9 0.48205 1.86859   1
   4   1   9 0.00152 1.67473   2
  -4  -1   9 -1.3457 1.71561   2
  -4   1  -9 2.40677 2.26050   3
   4   1   9 0.95560 1.82542   1
  -4   1  -9 -0.2291 1.62742   2
   4   1   9 -2.5346 1.89594   3
  -5   1   9 10.6217 2.99716   4
   5   1  -9 8.63351 2.21141   1
  -5   1   9 11.0020 1.64300   3
   5  -1   9 11.6014 2.31354   1
  -5  -1  -9 10.0708 2.64770   3
  -5   1   9 13.3864 2.22225   2
  -5  -1  -9 11.0155 2.19431   1
  -5   1   9 13.7872 1.95139   3
   5   1  -9 12.2943 2.31966   2
  -5   1   9 11.9064 2.19626   1
  -5   1  -9 7.61939 2.66090   3
  -5  -1   9 6.86027 2.15155   3
  -5   1  -9 9.49078 2.27508   5
  -5   1  -9 7.05746 2.11468   2
   5  -1  -9 15.0103 2.38752   1
   5   1   9 12.8849 2.32903   1
   5   1   9 10.2747 2.13393   2
  -5   1  -9 11.1447 2.31896   1
  -5  -1   9 7.52384 2.20655   1
  -6   1   9 6.01332 2.66645   4
   6   1  -9 5.95588 2.16314   1
   6   1  -9 3.55537 1.98202   2
  -6  -1  -9 1.66186 2.02148   1
  -6   1   9 6.53726 2.10037   2
  -6   1   9 4.22294 2.07991   1
   6  -1   9 7.80806 2.33151   1
   6   1   9 5.83514 2.13141   1
   6  -1  -9 4.79390 2.29351   1
  -6   1  -9 3.94085 2.07149   1
  -6   1  -9 1.15060 1.92917   2
  -6  -1   9 0.93504 2.13600   1
  -6  -1   9 5.79904 2.19760   3
  -6   1  -9 9.43370 2.16495   5
   6   1   9 4.67857 1.97392   2
  -7   1   9 26.8821 3.63443   5
  -7  -1  -9 30.6066 3.33642   1
  -7   1   9 27.5599 3.10579   2
   7   1  -9 38.8244 3.47912   2
  -7   1   9 37.6196 3.99696   4
   7   1  -9 38.4165 3.54977   1
   7  -1   9 32.2156 3.36934   1
  -7   1   9 35.5650 3.28170   1
  -7   1  -9 32.2249 3.05637   5
   7  -1  -9 33.3223 3.43599   1
  -7   1  -9 36.8424 3.50351   1
  -7  -1   9 32.7533 3.53031   1
  -7   1  -9 33.3531 3.28650   2
   7   1   9 32.3973 3.27246   1
   7   1   9 35.5169 3.31885   2
  -7  -1   9 33.2794 3.49200   3
  -8   1   9 30.5914 3.39595   2
  -8   1   9 37.2706 4.04916   4
  -8   1   9 30.0496 3.72409   5
  -8   1   9 27.0580 3.33815   1
   8   1  -9 29.7020 3.50785   1
   8  -1   9 33.5684 3.67914   1
  -8  -1  -9 35.8221 3.63143   1
   8   1   9 36.8088 3.62922   2
  -8  -1   9 31.6436 3.53950   1
  -8  -1   9 34.6484 3.84481   3
   8  -1  -9 34.8687 3.65146   1
   8   1   9 25.7871 3.31115   1
  -8   1  -9 28.6083 3.36154   2
  -8   1  -9 33.7583 3.56706   1
  -8   1  -9 36.4070 3.41265   5
   9   1  -9 216.428 8.54065   1
  -9   1   9 210.739 9.18597   5
  -9   1   9 211.260 8.29497   2
  -9   1   9 197.487 8.32530   1
   9  -1   9 215.587 8.59758   1
  -9  -1  -9 212.406 8.75773   1
  -9   1  -9 197.607 7.96753   5
  -9   1  -9 207.649 8.77518   1
   9   1   9 199.147 8.33078   2
   9   1   9 198.576 8.40354   1
  -9  -1   9 213.436 9.62552   3
  -9  -1   9 210.702 8.65121   1
  10  -1   9 1.98829 2.96145   1
 -10   1   9 0.32116 2.72081   1
 -10   1   9 4.55651 3.08949   5
  10   1  -9 -1.0792 2.78837   1
 -10  -1   9 -1.1401 2.73165   1
 -10   1  -9 1.70773 2.89028   1
 -10   1  -9 -0.8889 2.56025   5
  10   1   9 4.67980 2.82932   1
 -11   1   9 7.86695 3.17275   1
  11   1  -9 10.6261 3.27079   1
 -11   1   9 4.70948 3.45521   5
  11  -1   9 5.78788 3.28660   1
  11   1   9 2.50923 3.05332   1
 -11  -1   9 9.09375 3.68350   5
 -11  -1   9 2.07918 3.24809   1
 -11   1  -9 8.33937 3.38707   1
 -11   1  -9 6.60320 2.92466   5
 -12   1   9 306.832 12.4012   5
 -12   1   9 311.971 11.7654   1
  12   1  -9 318.873 11.9891   1
 -12  -1   9 312.075 12.3065   5
 -12   1  -9 324.336 12.2618   1
  12   1   9 308.470 11.8411   1
 -12  -1   9 315.557 12.3244   1
 -13   1   9 101.613 7.50414   1
  13   1  -9 99.2591 7.29875   1
 -13   1   9 113.343 8.05666   5
 -13  -1   9 114.364 8.02300   1
  13   1   9 99.0807 7.37835   1
 -13   1  -9 108.223 7.87520   1
 -13  -1   9 101.596 7.75990   5
  14   1  -9 149.008 8.58437   1
 -14   1   9 116.968 8.73622   5
 -14   1   9 134.997 8.27005   1
  14   1   9 148.220 8.62423   1
 -14   1  -9 132.535 8.83122   1
 -14  -1   9 158.597 8.99653   5
 -14  -1   9 146.903 9.11720   1
 -15   1   9 -1.9842 3.51664   1
 -15   1   9 -4.8786 3.82208   5
  15   1  -9 -5.7045 3.43208   1
  15   1   9 -1.0896 3.71577   1
 -15   1  -9 1.14634 3.87993   1
 -15  -1   9 3.08476 3.81774   5
  16   1  -9 9.18130 4.37931   1
 -16   1   9 6.55349 4.09228   1
 -16   1   9 2.53699 4.40513   5
 -16  -1   9 12.4225 4.37989   5
 -16   1  -9 16.3393 4.60007   1
  16   1   9 5.51060 4.19558   1
   0   2   9 -3.0919 1.34571   2
   0  -2   9 1.27926 1.96528   3
   0   2   9 -0.0249 2.69420   4
   0  -2  -9 0.44362 1.61854   3
   0  -2   9 3.32649 1.71114   1
   0   2  -9 -2.5497 1.48162   1
   0   2  -9 -1.4897 1.41379   2
   0   2   9 0.98019 1.87278   3
   0   2   9 2.33069 1.49069   1
  -1  -2  -9 1720.31 49.9476   3
  -1   2   9 1610.94 42.4115   1
   1  -2   9 1635.73 42.8365   1
  -1   2   9 1648.94 54.9880   4
  -1   2   9 1661.70 41.9947   2
   1  -2   9 1618.01 50.4578   3
   1   2  -9 1601.86 42.7432   1
   1   2  -9 1626.63 42.2188   2
  -1   2   9 1667.95 49.5793   3
   1   2   9 1659.47 42.4572   1
   1   2   9 1651.27 42.0585   2
  -1   2  -9 1634.07 42.1893   2
  -1  -2   9 1679.12 42.9390   1
  -1   2  -9 1633.32 42.7859   1
   1   2   9 1634.19 55.1739   4
   1  -2  -9 1736.85 49.3695   3
   1   2   9 1689.67 50.1572   3
   2   2  -9 819.291 22.3614   2
  -2   2   9 824.389 22.2331   1
   2  -2   9 828.276 27.0462   3
  -2   2   9 834.575 22.1516   2
   2  -2   9 833.359 22.6996   1
  -2   2   9 863.252 25.7562   3
  -2   2   9 857.151 22.9092   5
  -2   2   9 865.116 29.5898   4
  -2  -2  -9 860.468 26.6815   3
   2   2  -9 806.214 22.5775   1
  -2  -2   9 801.116 26.7607   3
   2   2   9 828.862 29.8053   4
   2  -2  -9 887.014 25.4839   3
   2   2   9 839.254 22.2921   1
  -2   2  -9 822.462 22.5738   1
   2   2   9 854.469 22.2309   2
   2   2   9 858.358 26.8375   3
  -2  -2   9 833.148 22.7487   1
  -2   2  -9 847.505 22.3310   2
   3   2  -9 340.728 10.7056   2
   3   2  -9 351.832 10.7764   1
  -3   2   9 375.941 14.5072   4
  -3   2   9 369.967 11.1564   5
  -3  -2  -9 357.112 12.9517   3
  -3   2   9 360.478 10.4387   1
  -3   2   9 364.543 10.4933   2
   3  -2   9 351.336 10.8294   1
  -3   2  -9 354.392 10.7827   1
   3   2   9 327.536 14.5871   4
   3   2   9 362.803 10.5221   1
   3   2   9 354.657 13.0780   3
  -3   2  -9 354.128 11.0570   5
   3   2   9 348.566 10.5742   2
  -3   2  -9 374.205 10.7529   2
  -3  -2   9 367.639 11.0105   1
  -3  -2   9 342.137 12.8911   3
   4  -2   9 5.74448 1.97325   1
  -4   2   9 6.11658 2.19419   5
  -4   2   9 1.87652 2.58622   4
   4   2  -9 4.57949 1.91744   1
  -4   2   9 3.52864 1.79619   2
  -4  -2  -9 3.37123 2.25688   3
  -4   2   9 7.25590 1.80897   1
   4   2  -9 7.08402 2.08471   2
  -4  -2   9 7.34744 2.20264   1
  -4   2  -9 5.17436 2.13243   5
   4   2   9 4.41759 2.74583   4
  -4   2  -9 3.08988 1.82578   2
   4   2   9 3.50234 1.81231   2
  -4  -2   9 4.97269 2.31251   3
  -4   2  -9 4.19006 1.86309   1
   4   2   9 3.40560 1.88280   1
  -5   2   9 205.060 7.19608   2
   5   2  -9 211.935 7.60469   1
  -5   2   9 208.812 7.98639   5
  -5   2   9 207.638 7.14042   1
  -5   2   9 233.512 9.90378   4
  -5  -2  -9 200.640 9.23106   3
   5   2  -9 206.473 7.58076   2
  -5  -2   9 197.708 7.75021   1
   5   2   9 207.760 9.95614   4
  -5   2  -9 192.443 9.28112   3
  -5   2  -9 207.465 7.45296   2
  -5   2  -9 212.270 7.54139   1
  -5   2  -9 209.952 7.69993   5
   5   2   9 209.564 7.29793   1
  -5  -2   9 197.535 8.79221   3
   5   2   9 190.592 7.18796   2
  -6   2   9 6.86036 2.57915   5
  -6   2   9 3.91990 2.04524   1
  -6   2   9 2.95306 2.10505   2
   6   2  -9 6.16110 2.23611   2
   6   2  -9 3.98886 2.23943   1
  -6   2   9 4.07263 2.68585   4
   6   2   9 3.15143 2.62104   4
  -6  -2   9 0.90410 2.63169   3
  -6   2  -9 6.68879 2.40202   5
   6   2   9 2.23685 1.94748   2
  -6   2  -9 5.89627 2.31661   1
   6   2   9 5.77576 2.20976   1
  -6   2  -9 1.55811 2.17253   2
  -7   2   9 1841.02 48.4397   1
  -7   2   9 1856.81 49.4073   5
   7   2  -9 1835.22 48.3858   2
   7   2  -9 1869.18 48.7963   1
  -7   2   9 2008.41 61.3126   4
  -7   2   9 1829.03 47.9551   2
  -7   2  -9 1843.27 48.6825   1
   7   2   9 1818.42 61.1538   4
   7   2   9 1862.04 48.1483   2
   7   2   9 1870.66 48.5518   1
  -7   2  -9 1856.58 48.1968   2
  -7   2  -9 1830.96 48.8452   5
   8   2  -9 142.141 6.68721   1
   8   2  -9 142.946 6.82689   2
  -8   2   9 144.770 6.57726   2
  -8   2   9 138.486 7.50688   5
  -8   2   9 150.781 6.49366   1
  -8   2   9 142.013 7.73168   4
  -8   2  -9 145.730 6.63063   2
   8   2   9 133.990 6.40774   1
  -8   2  -9 140.950 6.64823   1
  -8   2  -9 135.913 6.68952   5
   8   2   9 133.752 6.57630   2
   9   2  -9 223.533 9.32789   2
  -9   2   9 253.238 9.24283   2
  -9   2   9 245.576 9.07103   1
   9   2  -9 261.866 9.69422   2
  -9   2   9 250.925 10.2817   5
   9   2  -9 240.280 9.39851   1
  -9   2  -9 250.379 9.45356   1
   9   2   9 246.528 9.33513   2
  -9   2  -9 239.269 9.37055   5
   9   2   9 263.099 9.32326   1
  -9   2  -9 255.626 9.43953   2
 -10   2   9 143.942 8.19775   5
 -10   2   9 148.241 7.39012   2
  10   2  -9 154.118 7.53816   1
 -10   2   9 139.697 7.02897   1
  10   2   9 140.270 7.08392   1
 -10   2  -9 142.844 7.32304   5
 -10   2  -9 150.023 7.51350   1
  10   2   9 157.463 7.51808   2
 -10   2  -9 145.746 7.35660   2
  11   2  -9 13.7876 3.50155   1
 -11   2   9 10.1314 3.68782   5
 -11   2   9 11.2090 3.12012   1
 -11   2   9 14.9651 3.60572   2
 -11   2  -9 12.1324 3.54824   5
  11   2   9 10.8475 3.26423   1
 -11   2  -9 13.1778 3.44551   1
 -12   2   9 -2.4537 2.78753   1
 -12   2   9 1.20522 3.63415   5
  12   2  -9 -2.1968 3.23121   1
  12   2   9 -6.6037 2.91798   1
 -12   2  -9 -1.0612 3.19100   1
 -12   2  -9 0.11031 3.11888   5
 -13   2   9 157.128 9.51099   5
  13   2  -9 164.034 8.75698   1
 -13   2   9 172.397 8.41730   1
  13   2   9 169.196 8.58910   1
 -13  -2   9 167.742 9.28033   5
 -13   2  -9 155.007 8.68869   5
 -13   2  -9 163.838 8.84658   1
 -14   2   9 1.58684 3.28453   1
 -14   2   9 1.39793 4.02779   5
  14   2  -9 2.96386 3.79125   1
  14   2   9 6.68018 3.75549   1
 -14  -2   9 0.19515 3.66867   5
 -14   2  -9 2.18664 3.61249   1
 -15   2   9 122.964 7.91689   1
 -15   2   9 124.881 9.12909   5
  15   2  -9 134.161 8.56497   1
 -15   2  -9 121.157 8.56672   1
 -15  -2   9 121.497 8.86677   5
  15   2   9 134.159 8.44840   1
  16   2  -9 6.94899 4.13670   1
  16   2   9 -0.6692 4.10863   1
   0   3   9 204.802 8.05077   3
   0   3   9 208.559 6.71486   2
   0   3  -9 208.523 7.00012   2
   0   3  -9 212.424 6.83649   1
   0   3   9 206.311 6.60472   5
   0   3   9 220.597 10.2111   4
   0  -3  -9 217.537 8.13903   3
  -1   3   9 242.868 8.88806   3
  -1   3   9 231.122 11.1552   4
   1   3  -9 248.126 8.03203   2
  -1   3   9 255.640 7.70593   2
   1   3  -9 250.951 7.80813   1
  -1   3   9 268.668 8.01150   5
  -1  -3  -9 268.094 9.59830   3
   1  -3  -9 256.622 8.89668   3
   1   3   9 243.113 9.50332   3
   1   3   9 233.360 11.2948   4
  -1   3  -9 242.541 7.78566   1
   1   3   9 257.159 7.73101   2
  -1   3  -9 256.801 7.99135   2
  -2  -3  -9 1.40420 1.88535   3
  -2   3   9 4.91657 2.60101   4
  -2   3   9 4.39231 1.77516   5
   2   3  -9 2.92873 1.59512   1
   2   3  -9 0.40556 1.56990   2
  -2   3   9 2.36764 1.54834   2
   2   3   9 3.12603 1.42061   2
   2   3   9 -1.1596 1.79320   3
  -2   3  -9 4.05778 1.58554   1
  -2   3  -9 2.67623 1.59787   2
   2   3   9 3.08772 2.65944   4
  -3  -3  -9 49.2008 4.42836   3
  -3   3   9 49.5545 3.27749   2
  -3   3   9 57.6063 5.38741   4
   3   3  -9 47.7187 3.63373   2
  -3   3   9 51.9461 3.82038   5
   3   3  -9 51.2586 3.48081   1
  -3   3   9 51.0626 2.66662   1
   3   3   9 46.1351 3.28258   2
   3   3   9 46.6370 2.69226   1
  -3   3  -9 45.9592 3.72648   5
   3   3   9 58.3186 5.44127   4
  -3   3  -9 46.0757 3.54816   2
  -3   3  -9 42.2816 3.31327   1
  -4   3   9 0.09087 1.29253   1
  -4   3   9 -1.6011 2.45837   4
   4   3  -9 -2.1578 1.69801   1
  -4   3   9 -2.0756 1.56221   2
  -4  -3  -9 1.01454 2.14056   3
  -4   3   9 3.23550 2.00218   5
   4   3  -9 -0.3770 1.71093   2
   4   3   9 0.30818 1.44600   1
  -4   3  -9 -0.5303 1.74425   2
   4   3   9 -2.5025 2.15376   4
   4   3   9 1.07594 1.61821   2
  -4   3  -9 0.85093 1.67171   1
  -4   3  -9 0.15831 1.98891   5
  -5   3   9 3.48316 1.61549   1
   5   3  -9 7.19406 2.20364   2
   5   3  -9 4.94202 1.99441   1
  -5   3   9 4.07268 2.88075   4
  -5   3   9 5.10978 2.52877   5
  -5   3   9 5.04055 1.93725   2
   5   3   9 2.15773 2.59760   4
   5   3   9 2.30984 1.71613   1
  -5   3  -9 2.72898 1.90207   1
   5   3   9 2.61297 1.90202   2
  -5   3  -9 3.75079 2.46124   5
  -5   3  -9 4.31859 2.02068   2
  -6   3   9 4.53895 2.54852   5
   6   3  -9 5.74673 2.17003   1
   6   3  -9 4.33393 2.27956   2
  -6   3   9 7.74074 3.01491   4
  -6   3   9 5.42708 2.16311   2
  -6   3   9 5.39243 1.89845   1
   6   3   9 8.49036 2.07008   1
   6   3   9 9.50101 2.81067   4
   6   3   9 2.42835 2.05189   2
  -6   3  -9 4.50917 2.15024   2
  -6   3  -9 5.38253 2.60530   5
  -6   3  -9 4.59662 2.05049   1
   7   3  -9 33.1996 3.54950   2
  -7   3   9 39.9199 3.07361   1
  -7   3   9 36.7499 3.40849   2
   7   3  -9 33.9242 3.27021   1
  -7   3   9 40.7575 4.67476   4
  -7   3   9 36.2742 4.01507   5
  -7   3  -9 35.9681 3.35344   1
  -7   3  -9 38.7751 3.63862   2
   7   3   9 35.6651 3.12922   1
  -7   3  -9 38.8715 3.89730   5
   7   3   9 38.2961 3.47361   2
   8   3  -9 33.6561 3.80365   2
  -8   3   9 31.8229 4.35930   4
  -8   3   9 27.6176 4.14379   5
  -8   3   9 28.6267 3.03761   1
  -8   3   9 29.3032 3.42515   2
   8   3  -9 35.9357 3.48263   1
  -8   3  -9 30.4966 3.85741   5
  -8   3  -9 38.5193 3.52673   1
   8   3   9 33.2493 3.54178   2
   8   3   9 33.9509 3.19813   1
  -8   3  -9 29.8257 3.50606   2
  -9   3   9 158.837 8.41876   5
   9   3  -9 156.635 7.70067   2
  -9   3   9 169.624 7.40101   2
   9   3  -9 160.349 7.72818   2
  -9   3   9 151.318 6.86658   1
   9   3  -9 159.473 7.28623   1
  -9   3   9 174.911 9.20750   4
  -9   3  -9 162.240 8.01446   5
   9   3   9 166.090 6.94159   1
   9   3   9 162.536 7.46851   2
  -9   3  -9 168.917 7.37734   1
  -9   3  -9 153.988 7.49920   2
 -10   3   9 0.45211 2.51456   1
  10   3  -9 -1.0489 2.58229   1
 -10   3   9 0.84173 2.88050   2
  10   3  -9 2.73771 2.69368   2
 -10   3   9 -0.3970 3.36885   5
  10   3   9 5.28112 2.71901   1
 -10   3  -9 1.36569 2.90136   2
 -10   3  -9 4.23394 2.70817   1
 -10   3  -9 -0.9127 2.95736   5
  10   3   9 3.44101 2.88369   2
 -11   3   9 11.8896 3.53558   2
  11   3  -9 13.2724 3.62301   2
 -11   3   9 13.9775 4.00433   5
  11   3  -9 10.6980 3.25670   1
 -11   3   9 8.11758 2.96063   1
 -11   3  -9 7.81083 3.08034   1
  11   3   9 7.97052 3.02310   1
  11   3   9 6.07953 3.21163   2
 -11   3  -9 14.6170 3.59945   2
 -11   3  -9 9.63480 3.54109   5
  12   3  -9 260.504 10.4950   1
 -12   3   9 226.272 9.73334   1
 -12   3   9 278.851 10.7473   2
 -12   3   9 236.825 11.3550   5
  12   3   9 270.173 10.8657   2
 -12   3  -9 263.096 10.9413   5
 -12   3  -9 260.602 10.2929   1
  12   3   9 260.630 10.0426   1
 -13   3   9 90.0778 6.49503   1
  13   3  -9 99.9747 6.94033   1
 -13   3   9 89.9278 7.18066   5
 -13   3  -9 101.143 7.73142   5
 -13   3  -9 86.3690 7.01096   1
  13   3   9 96.2517 6.80427   1
 -14   3   9 127.369 9.36464   5
 -14   3   9 121.969 7.47588   1
  14   3  -9 132.252 7.90173   1
  14   3   9 121.084 7.77537   1
 -14   3  -9 133.820 8.75202   5
 -14   3  -9 121.124 7.95991   1
  15   3  -9 4.89589 3.81951   1
 -15   3   9 2.39292 4.14358   5
 -15   3   9 -1.3490 3.10263   1
 -15   3  -9 1.06803 4.01027   5
  15   3   9 0.30254 3.75972   1
 -15   3  -9 0.68854 3.36874   1
   0   4  -9 -0.0562 1.41826   2
   0   4   9 -1.5934 1.23168   2
   0   4   9 5.06992 2.77405   4
   1   4  -9 28.4033 2.59916   2
  -1   4   9 32.7239 4.36418   4
  -1   4   9 30.1316 2.31358   2
  -1   4  -9 32.0171 2.61215   2
   1   4   9 31.4840 2.31002   2
   1   4   9 27.5499 4.18630   4
  -2  -4  -9 -0.8758 1.97053   3
  -2   4   9 3.17539 2.65287   4
  -2   4   9 -1.4139 1.47632   2
  -2   4   9 3.97998 1.80170   5
   2   4  -9 2.55999 1.71639   2
   2   4   9 -0.1578 1.35497   2
  -2   4  -9 -0.4944 1.60909   2
   2   4   9 2.74889 2.76062   4
  -3   4   9 163.755 5.83993   2
  -3   4   9 172.985 6.52548   5
  -3   4   9 150.842 8.84150   4
   3   4  -9 148.887 6.27769   2
  -3   4  -9 159.489 6.22957   2
   3   4   9 166.848 5.89759   2
  -3   4  -9 171.431 7.37114   5
   3   4   9 165.842 8.91082   4
  -4   4   9 10.4744 2.02831   2
   4   4  -9 11.9465 2.30152   2
   4   4  -9 7.06148 1.65973   1
  -4   4   9 16.4249 2.81938   5
  -4   4   9 8.28208 3.24476   4
   4   4   9 7.78080 1.83859   2
  -4   4  -9 7.43809 2.62565   5
   4   4   9 11.5740 3.15199   4
  -4   4  -9 5.35764 2.09024   2
   5   4  -9 161.686 6.84391   2
  -5   4   9 162.736 6.30313   2
  -5   4   9 172.907 9.39492   4
   5   4  -9 166.096 5.92787   1
  -5   4   9 167.989 7.37696   5
  -5   4  -9 178.380 7.86474   5
   5   4   9 164.295 8.77358   4
   5   4   9 161.877 6.35678   2
  -5   4  -9 167.122 6.75773   2
   6   4  -9 226.368 7.65934   1
  -6   4   9 222.508 8.04213   2
  -6   4   9 221.880 9.12589   5
  -6   4   9 239.555 11.4928   4
   6   4  -9 228.845 8.61874   2
  -6   4  -9 232.164 8.43562   2
  -6   4  -9 232.612 9.35069   5
  -6   4  -9 233.142 7.47932   1
   6   4   9 221.034 10.6305   4
   6   4   9 231.123 8.18505   2
  -7   4   9 25.9310 4.32138   4
  -7   4   9 21.1462 3.70823   5
   7   4  -9 20.9902 2.60837   1
  -7   4   9 24.2523 2.96473   2
   7   4  -9 25.1698 3.26078   2
   7   4   9 15.9983 2.83105   2
  -7   4  -9 25.4709 2.58971   1
  -7   4  -9 18.5361 3.55334   5
  -7   4  -9 20.0095 3.02553   2
   8   4  -9 512.555 15.2880   1
  -8   4   9 528.234 17.0223   5
  -8   4   9 521.634 15.6390   2
   8   4  -9 529.608 16.2573   2
  -8   4   9 527.976 20.3791   4
  -8   4  -9 496.710 16.7236   5
   8   4   9 510.942 15.6914   2
   8   4   9 510.400 14.4208   1
  -8   4  -9 547.021 15.2594   1
  -8   4  -9 517.350 15.8447   2
  -9   4   9 2.01617 2.66305   2
   9   4  -9 4.77917 2.88332   2
  -9   4   9 1.65182 3.39937   5
  -9   4   9 0.56113 3.24496   4
   9   4  -9 -1.1917 2.59270   2
   9   4  -9 1.48707 2.33301   1
  -9   4  -9 4.04513 3.37603   5
  -9   4  -9 -1.9604 2.49854   2
   9   4   9 -0.5383 2.06834   1
  -9   4  -9 2.03827 2.37178   1
   9   4   9 1.09242 2.65703   2
 -10   4   9 32.9706 4.80545   5
  10   4  -9 38.5831 3.77926   1
  10   4  -9 32.7154 4.12690   2
 -10   4   9 45.8590 4.40887   2
 -10   4   9 45.2762 3.38296   1
 -10   4  -9 29.0527 4.03651   2
  10   4   9 38.6753 3.34971   1
 -10   4  -9 41.9346 4.99883   5
  10   4   9 32.3773 4.02917   2
 -10   4  -9 44.7612 3.92834   1
 -11   4   9 387.692 14.9016   5
 -11   4   9 411.329 12.5871   1
 -11   4   9 408.211 13.7750   2
  11   4  -9 392.012 14.1863   2
  11   4  -9 387.177 13.1804   1
  11   4   9 409.129 13.9421   2
 -11   4  -9 401.393 13.2892   1
 -11   4  -9 414.171 14.0390   2
 -11   4  -9 422.064 14.9308   5
  11   4   9 416.698 12.6968   1
 -12   4   9 34.6094 4.70801   2
 -12   4   9 23.2211 4.76984   5
 -12   4   9 33.6920 3.61368   1
  12   4  -9 29.6592 3.98459   1
  12   4  -9 38.4274 4.80204   2
 -12   4  -9 34.0704 5.19958   5
  12   4   9 38.7305 3.86332   1
 -12   4  -9 30.1869 4.33729   2
 -12   4  -9 30.2488 3.95245   1
  12   4   9 31.7194 4.35573   2
 -13   4   9 59.6840 5.65001   2
 -13   4   9 63.1753 6.32033   5
  13   4  -9 62.2358 5.10542   1
 -13   4   9 60.8783 4.59470   1
  13   4   9 54.6711 4.65604   1
  13   4   9 66.2779 5.81937   2
 -13   4  -9 53.4960 4.99113   1
 -13   4  -9 54.7931 6.05399   5
 -14   4   9 6.39081 3.10250   1
 -14   4   9 2.52309 4.30928   5
  14   4  -9 19.9088 3.80609   1
  14   4   9 9.95618 3.47775   1
 -14   4  -9 5.39064 3.44385   1
 -14   4  -9 12.0047 4.64131   5
   0   5   9 152.695 5.34265   2
   0   5   9 152.388 9.14181   4
   0   5  -9 151.456 5.85381   2
  -1   5   9 139.169 8.86574   4
   1   5  -9 131.411 5.65995   2
  -1   5   9 141.951 5.19862   2
   1   5   9 151.723 8.96058   4
  -1   5  -9 142.086 5.63991   2
   1   5   9 146.565 5.19207   2
  -2   5   9 7.52232 3.25306   4
   2   5  -9 0.69481 1.67242   2
  -2   5   9 4.61489 1.70897   2
   2   5   9 1.33109 2.88495   4
  -2   5  -9 3.85751 1.78734   2
   2   5   9 4.74077 1.64743   2
   3   5  -9 10.6139 2.20813   2
  -3   5   9 14.2196 2.11326   2
  -3   5   9 19.1160 3.98817   4
  -3   5  -9 12.5657 2.25777   2
   3   5   9 10.6144 3.52389   4
  -3   5  -9 15.2820 3.11014   5
   3   5   9 15.2905 2.10587   2
  -4   5   9 -0.3746 1.75025   2
   4   5  -9 -0.8536 1.75752   2
  -4   5   9 -0.1526 3.12104   4
  -4   5  -9 -0.1820 1.82920   2
  -4   5  -9 0.38548 2.59527   5
   4   5   9 -0.0390 1.69369   2
   4   5   9 2.24246 2.84942   4
   5   5  -9 4.81826 2.18111   2
  -5   5   9 7.99053 2.74576   5
  -5   5   9 4.94093 2.07488   2
  -5   5   9 1.23692 3.19054   4
  -5   5  -9 5.18228 2.92497   5
   5   5   9 5.29870 3.08086   4
  -5   5  -9 4.42928 2.21291   2
   5   5   9 8.82949 2.07058   2
   6   5  -9 2.84001 2.28913   2
  -6   5   9 1.93703 3.44631   4
  -6   5   9 2.82091 2.11101   2
  -6   5   9 5.03820 2.62837   5
   6   5   9 4.05279 2.21703   2
  -6   5  -9 -1.4469 2.84671   5
   6   5   9 2.25578 2.82837   4
  -6   5  -9 -2.9332 1.99620   2
   7   5  -9 11.0517 2.79072   2
  -7   5   9 17.2336 4.10612   4
  -7   5   9 14.2709 3.41795   5
  -7   5   9 15.1592 2.77765   2
  -7   5  -9 8.42403 2.78255   2
  -7   5  -9 10.2082 3.49796   5
   7   5   9 16.3617 2.93191   2
  -8   5   9 11.5331 3.75127   5
  -8   5   9 10.8106 2.75044   2
  -8   5   9 13.0958 4.22777   4
   8   5  -9 11.9661 2.98684   2
   8   5   9 13.5441 2.91535   2
  -8   5  -9 13.9810 3.94634   5
  -8   5  -9 20.5793 3.27573   2
  -9   5   9 124.878 8.10134   5
  -9   5   9 113.507 8.76785   4
   9   5  -9 108.969 6.93123   2
   9   5  -9 110.965 7.01740   2
  -9   5   9 112.954 6.29616   2
  -9   5  -9 106.924 7.89151   5
   9   5   9 115.343 6.65255   2
  -9   5  -9 110.329 6.59535   2
  10   5  -9 2.87653 2.81106   2
 -10   5   9 -2.6410 2.83027   2
 -10   5   9 3.61632 3.81912   5
 -10   5  -9 -2.3310 3.71523   5
 -10   5  -9 8.18302 3.12559   2
  10   5   9 -4.0375 2.61618   2
 -11   5   9 1.83912 3.00111   2
 -11   5   9 1.45477 3.86883   5
  11   5  -9 7.10291 3.38608   2
 -11   5  -9 3.48150 3.30368   2
 -11   5  -9 -0.3252 3.88657   5
  11   5   9 -0.7727 2.99381   2
 -12   5   9 213.588 9.53897   2
  12   5  -9 204.875 8.12750   1
 -12   5   9 216.864 11.2148   5
  12   5  -9 204.140 9.85612   2
 -12   5  -9 211.856 9.72003   2
 -12   5  -9 208.201 11.0025   5
  12   5   9 202.102 9.62688   2
 -13   5   9 49.9341 5.37175   2
  13   5  -9 53.1716 5.47940   2
  13   5  -9 62.6757 4.56971   1
 -13   5   9 46.5030 6.28677   5
  13   5   9 58.9242 5.68290   2
 -13   5  -9 52.2921 6.50270   5
 -13   5  -9 60.0096 5.62828   2
   0   6   9 0.42125 1.62978   2
   0   6  -9 1.56583 1.64252   2
   0   6   9 1.11979 3.22416   4
  -1   6   9 563.039 22.7797   4
  -1   6   9 580.214 15.5137   2
   1   6  -9 564.516 16.0504   2
  -1   6  -9 549.568 15.9937   2
   1   6   9 582.857 15.5513   2
   1   6   9 576.767 22.7786   4
  -2   6   9 297.702 14.2288   4
   2   6  -9 288.234 9.52082   2
  -2   6   9 291.032 8.97719   2
  -2   6  -9 290.219 9.46780   2
   2   6   9 294.799 9.02463   2
   2   6   9 311.377 14.2506   4
  -3   6   9 115.381 8.61748   4
  -3   6   9 119.051 5.02599   2
   3   6  -9 119.557 5.53592   2
   3   6   9 120.872 5.15314   2
   3   6   9 118.338 8.45399   4
  -3   6  -9 114.753 5.40523   2
  -4   6   9 1.67675 3.38576   4
   4   6  -9 -1.9090 2.10070   2
  -4   6   9 2.03185 1.93415   2
  -4   6  -9 1.80988 2.98253   5
  -4   6  -9 -0.4464 1.87685   2
   4   6   9 4.29190 2.01150   2
   4   6   9 5.05968 3.37237   4
  -5   6   9 90.7572 4.87428   2
   5   6  -9 84.9780 5.30942   2
  -5   6   9 96.9161 8.20406   4
   5   6   9 92.0767 4.97000   2
  -5   6  -9 87.5064 5.16260   2
  -5   6  -9 87.9883 6.83840   5
   5   6   9 89.6489 7.63780   4
  -6   6   9 5.90464 2.27526   2
  -6   6   9 2.65460 3.68667   4
   6   6  -9 3.18284 2.41603   2
  -6   6  -9 2.44170 3.17640   5
  -6   6  -9 -0.2124 2.29316   2
   6   6   9 5.91844 2.31800   2
  -7   6   9 720.703 20.5973   2
  -7   6   9 720.598 28.2233   4
   7   6  -9 723.583 21.3525   2
   7   6   9 750.308 20.9031   2
  -7   6  -9 755.605 22.9795   5
  -7   6  -9 740.677 21.1213   2
  -8   6   9 84.3964 6.50942   5
   8   6  -9 74.0112 5.45917   2
  -8   6   9 75.2510 5.24376   2
  -8   6   9 82.8807 8.21414   4
   8   6   9 77.6028 5.57044   2
  -8   6  -9 72.3010 6.34660   5
  -8   6  -9 78.7898 5.76009   2
   9   6  -9 109.590 6.73135   2
  -9   6   9 105.401 7.73468   5
   9   6  -9 98.3801 6.75817   2
  -9   6   9 104.322 6.18004   2
  -9   6   9 107.008 9.13447   4
  -9   6  -9 103.307 6.60441   2
   9   6   9 103.461 6.56635   2
  -9   6  -9 101.922 8.04903   5
 -10   6   9 61.3126 6.47743   5
 -10   6   9 61.0882 4.76808   2
  10   6  -9 63.4500 5.25377   2
  10   6   9 73.6871 5.39722   2
 -10   6  -9 64.7958 6.38043   5
 -10   6  -9 69.9904 5.43560   2
 -11   6   9 10.8321 4.59763   5
  11   6  -9 9.35380 3.45278   2
 -11   6   9 1.91564 3.27987   2
  11   6   9 5.82752 3.30357   2
 -11   6  -9 2.98235 4.09115   5
 -11   6  -9 1.39706 3.28028   2
   0   7  -9 69.3972 4.36448   2
   0   7   9 70.1961 3.74311   2
   0   7   9 76.3345 7.68854   4
  -1   7   9 82.3031 8.18918   4
  -1   7   9 98.3048 4.27088   2
   1   7  -9 88.0840 4.85463   2
   1   7   9 95.4386 4.28483   2
  -1   7  -9 90.3673 4.83832   2
   1   7   9 84.2332 8.08697   4
  -2   7   9 1.46285 1.72049   2
  -2   7   9 2.62725 3.87511   4
   2   7  -9 0.75696 1.87928   2
  -2   7  -9 1.76794 1.87014   2
   2   7   9 2.53455 1.81659   2
   2   7   9 3.38348 3.63159   4
  -3   7   9 25.0464 5.41658   4
   3   7  -9 22.8616 2.86066   2
  -3   7   9 24.5702 2.59740   2
  -3   7  -9 29.6273 2.93538   2
   3   7   9 26.1233 5.00978   4
   3   7   9 29.8953 2.71146   2
   4   7  -9 1.20852 2.06495   2
  -4   7   9 4.01386 4.08139   4
  -4   7   9 -1.5938 1.93777   2
   4   7   9 2.21539 2.12378   2
  -4   7  -9 2.74236 1.99552   2
   4   7   9 1.79079 3.36578   4
  -5   7   9 5.45425 2.12976   2
  -5   7   9 -4.1369 3.53839   4
   5   7  -9 3.44558 2.32583   2
  -5   7  -9 1.95285 3.25147   5
   5   7   9 5.26507 2.24178   2
  -5   7  -9 3.87297 2.25320   2
  -6   7   9 -2.1844 3.90485   4
  -6   7   9 3.05349 2.39056   2
   6   7  -9 -1.8293 2.11381   2
  -6   7  -9 7.59765 3.51466   5
   6   7   9 4.29007 2.36668   2
  -6   7  -9 3.46691 2.36405   2
  -7   7   9 17.4696 5.21855   4
  -7   7   9 15.2863 2.85432   2
   7   7  -9 13.7979 3.15210   2
  -7   7  -9 15.5809 3.00819   2
  -7   7  -9 14.9824 4.28243   5
   7   7   9 17.1269 3.07891   2
   8   7  -9 16.5560 3.35524   2
  -8   7   9 12.8504 2.94345   2
   8   7  -9 13.7732 3.11567   2
  -8   7  -9 11.9352 3.05638   2
   8   7   9 13.7485 3.24238   2
  -8   7  -9 9.27710 4.18848   5
   0   8  -9 -1.3927 1.94524   2
   1   8  -9 15.2512 2.62150   2
  -1   8  -9 13.0565 2.50950   2
   2   8  -9 -3.0454 1.89302   2
  -2   8  -9 1.27277 1.96139   2
   3   8  -9 49.4219 4.08069   2
  -3   8   9 43.5261 3.11084   2
  -3   8  -9 43.6209 3.60586   2
   3   8   9 50.0446 3.36182   2
   0   0 -10 98.1643 4.37597   2
   0   0  10 92.1800 4.59424   1
   0   0  10 94.6804 4.43203   2
   0   0 -10 99.2041 5.51677   3
   0   0 -10 100.651 4.75230   1
   0   0  10 104.135 5.71044   3
   1   0  10 200.720 8.49482   3
   1   0 -10 200.292 6.79696   2
  -1   0  10 205.841 6.89480   2
  -1   0  10 206.738 7.08939   1
  -1   0 -10 194.417 6.98202   1
   1   0  10 194.125 6.87155   2
  -1   0 -10 198.579 8.34475   3
   1   0  10 194.986 7.01850   1
   1   0 -10 198.272 7.03481   1
  -1   0  10 217.626 8.33911   3
  -1   0 -10 203.230 6.83424   2
   2   0  10 1133.79 37.0141   3
  -2   0  10 1196.75 31.5237   1
  -2   0 -10 1169.93 37.0924   3
  -2   0  10 1219.42 31.1222   2
  -2   0  10 1270.56 36.7367   3
  -2   0 -10 1164.47 31.5098   1
  -2   0 -10 1169.82 31.0793   2
   2   0  10 1212.76 31.1750   2
   2   0 -10 1219.84 31.1072   2
   2   0  10 1181.34 31.5507   1
   3   0  10 455.231 13.6811   1
  -3   0  10 482.660 13.4761   2
   3   0 -10 477.207 13.5290   2
   3   0  10 440.281 16.2719   3
  -3   0  10 520.090 15.8768   3
  -3   0 -10 468.955 13.7454   1
  -3   0 -10 475.795 13.5335   2
  -3   0 -10 446.312 16.2449   3
   3   0  10 474.108 13.6166   2
  -3   0  10 466.610 13.6887   1
   3   0 -10 460.632 13.6676   1
   4   0 -10 1.05536 1.99654   1
  -4   0 -10 -1.3079 1.73498   2
  -4   0  10 4.98944 1.94272   3
   4   0  10 5.75404 2.00971   2
   4   0 -10 6.02262 1.86987   2
  -4   0  10 2.76931 1.85408   2
  -4   0 -10 -0.5141 1.88146   1
   4   0  10 5.97743 2.04775   1
  -4   0 -10 2.26033 2.29699   3
  -4   0  10 3.66051 2.07191   1
   5   0 -10 4.89786 2.02415   2
  -5   0  10 3.16837 1.92933   3
  -5   0  10 4.09314 2.00589   2
   5   0 -10 3.35562 2.11527   1
  -5   0 -10 2.24489 1.78227   5
  -5   0 -10 7.95947 2.12427   1
  -5   0  10 1.31766 2.05730   1
   5   0  10 3.66311 2.02044   2
   5   0  10 2.41384 1.98105   1
  -5   0 -10 1.33646 2.26137   3
  -5   0 -10 4.46450 2.07625   2
  -6   0  10 1029.92 26.9464   2
   6   0 -10 1017.93 27.3817   1
   6   0  10 975.979 27.3154   1
  -6   0  10 1062.46 30.9310   3
  -6   0 -10 966.213 27.3117   1
  -6   0  10 1022.29 27.4115   1
  -6   0 -10 984.258 26.5950   5
   6   0  10 946.325 26.9231   2
  -7   0 -10 472.104 14.0287   5
   7   0 -10 490.201 14.8260   1
  -7   0  10 501.384 14.9421   1
   7   0  10 468.890 14.7658   1
  -7   0  10 508.791 16.5903   3
  -7   0 -10 478.485 14.8605   1
   8   0 -10 122.167 6.42582   1
  -8   0 -10 112.425 6.42604   1
  -8   0  10 127.791 6.48483   1
   8   0  10 117.340 6.41063   1
   9   0 -10 134.611 6.95302   1
  -9   0 -10 124.696 6.90158   1
  -9   0  10 115.814 6.75458   1
   9   0  10 138.690 6.86402   1
 -10   0  10 10.5375 3.67662   5
  10   0  10 6.76378 3.20926   1
 -10   0 -10 14.2806 3.34014   1
  10   0 -10 7.09028 3.13004   1
 -10   0  10 9.70919 3.26576   1
 -11   0 -10 40.7353 4.64354   1
 -11   0  10 34.7869 4.47177   1
  11   0  10 35.5349 4.45765   1
  11   0 -10 43.2662 4.65311   1
 -11   0  10 42.8988 4.92860   5
 -12   0 -10 4.64774 3.65328   1
  12   0  10 3.95811 3.37485   1
  12   0 -10 1.74838 3.24466   1
 -12   0  10 10.8880 3.74865   5
 -12   0  10 1.90425 3.37691   1
 -13   0 -10 11.9367 4.04396   1
  13   0 -10 15.9735 3.94613   1
 -13   0  10 15.7496 4.37344   5
  13   0  10 14.2487 4.07723   1
 -13   0  10 13.7613 4.15144   1
 -14   0  10 544.892 18.6613   5
 -14   0 -10 542.546 18.6838   1
  14   0 -10 544.830 18.3570   1
 -14   0  10 538.993 18.0893   1
  14   0  10 550.301 18.2954   1
 -15   0  10 322.525 13.6092   5
 -15   0  10 312.561 13.2247   1
  15   0  10 348.748 13.5067   1
  15   0 -10 314.639 13.3863   1
 -15   0 -10 354.010 14.0825   1
 -16   0 -10 27.6795 5.34313   1
  16   0 -10 26.6422 5.56663   1
 -16   0  10 30.6159 5.31910   1
  16   0  10 24.3971 5.11669   1
 -16   0  10 28.2138 5.16042   5
   0   1  10 -1.2250 1.50373   2
   0  -1 -10 6.29248 1.95296   1
   0   1  10 2.46368 1.78496   1
   0   1  10 0.69568 1.77887   3
   0  -1  10 -1.2737 1.95894   3
   0   1 -10 -0.5702 1.77412   1
   0   1 -10 -0.0223 1.57483   2
   0  -1  10 -0.2805 1.68086   2
   0  -1  10 -2.3033 1.64337   1
   0  -1 -10 -0.7978 1.74862   3
   1  -1  10 86.0404 5.65148   3
  -1  -1 -10 91.8286 4.42450   1
  -1   1  10 92.3071 4.98092   3
  -1   1  10 82.7931 4.30949   1
  -1   1  10 87.2227 4.17673   2
   1  -1  10 90.0535 4.40569   2
  -1  -1 -10 92.4205 5.13572   3
   1   1 -10 93.6535 4.30205   2
   1  -1  10 82.8351 4.46493   1
  -1  -1  10 82.6392 5.44073   3
   1   1  10 84.3296 5.24321   3
  -1   1 -10 99.8774 4.40042   2
  -1  -1  10 83.2492 4.44295   1
   1   1  10 82.7291 4.31843   1
  -1   1 -10 81.1798 4.41278   1
   1  -1 -10 90.4790 4.79005   3
   1  -1 -10 95.1968 4.50144   1
   1   1  10 78.7273 4.15687   2
  -1  -1  10 83.3699 4.26674   2
   2   1 -10 412.811 11.9809   2
  -2  -1 -10 397.253 14.3105   3
   2  -1  10 413.930 12.1648   1
   2   1 -10 390.603 12.1251   1
  -2  -1 -10 398.551 12.0803   1
  -2   1  10 409.454 12.0025   1
  -2   1  10 427.661 11.8928   2
   2  -1  10 411.325 14.7538   3
   2  -1  10 415.647 12.0988   2
  -2   1  10 437.805 13.7669   3
   2   1  10 415.564 12.0742   1
  -2   1 -10 396.689 11.9574   2
   2  -1 -10 433.170 12.1995   1
  -2   1 -10 381.683 12.1340   1
  -2  -1  10 420.546 14.3802   3
  -2  -1  10 418.421 12.1607   1
  -2   1 -10 395.141 14.6331   3
   2   1  10 404.271 14.4103   3
   2   1  10 416.603 11.9729   2
  -2  -1  10 391.907 11.8769   2
   3  -1  10 318.957 10.1294   1
   3  -1  10 327.015 10.1393   2
  -3  -1 -10 311.150 10.0749   1
  -3   1  10 330.284 10.0366   1
  -3   1  10 344.551 11.1119   3
  -3  -1 -10 309.671 12.0881   3
   3   1 -10 324.012 10.2034   1
  -3   1  10 334.007 9.90707   2
   3   1 -10 331.783 10.0053   2
  -3   1 -10 307.273 10.1091   1
  -3  -1  10 331.255 11.6726   3
   3  -1 -10 339.584 10.1559   1
  -3  -1  10 311.073 9.91736   2
   3   1  10 329.576 10.1199   1
   3   1  10 311.333 12.1212   3
  -3   1 -10 321.509 9.96270   2
  -3   1 -10 309.031 12.3197   3
  -3  -1  10 324.579 10.2140   1
   3   1  10 303.237 9.85039   2
  -4   1  10 248.186 8.11906   2
  -4   1  10 250.133 8.25559   1
  -4   1  10 248.078 8.42227   3
  -4   1  10 263.021 8.78787   3
   4  -1  10 236.244 8.26509   1
   4   1 -10 258.462 8.34523   2
   4   1 -10 242.424 8.37573   1
  -4  -1 -10 230.651 8.25252   1
  -4  -1 -10 235.797 10.0307   3
   4   1  10 229.573 8.23627   1
  -4   1 -10 234.789 8.11757   5
  -4   1 -10 234.102 10.2015   3
   4   1  10 241.294 8.16234   2
  -4   1 -10 233.197 8.16366   2
  -4  -1  10 253.683 9.44560   3
  -4  -1  10 240.025 8.34385   1
  -4   1 -10 242.749 8.41237   1
   4  -1 -10 256.106 8.33615   1
  -5  -1 -10 261.472 8.98345   1
  -5   1  10 279.153 9.40917   3
   5   1 -10 259.228 9.12765   1
  -5   1  10 284.219 9.11277   3
  -5   1  10 288.115 8.91487   2
   5  -1  10 268.186 9.15976   1
  -5  -1 -10 236.048 10.7888   3
  -5   1  10 253.237 8.90887   1
   5   1 -10 261.047 8.94096   2
  -5   1  10 320.818 12.2550   4
  -5   1 -10 258.564 9.10017   1
  -5   1 -10 266.757 8.91950   2
  -5  -1  10 261.721 9.14401   1
  -5  -1  10 262.017 10.1331   3
   5   1  10 256.017 8.95544   2
   5   1  10 265.003 9.02818   1
   5  -1 -10 272.928 9.06340   1
  -5   1 -10 259.004 8.81093   5
   6   1 -10 2.45911 2.19849   1
   6  -1  10 -0.4827 2.16804   1
  -6   1  10 1.62192 2.08625   1
  -6   1  10 -0.0272 2.03407   2
  -6   1  10 3.04090 2.71255   4
  -6  -1 -10 1.05169 1.97603   1
   6   1 -10 2.62575 2.02278   2
   6  -1 -10 2.73061 2.24801   1
  -6   1 -10 0.87363 2.02088   5
  -6   1 -10 0.70427 2.18147   2
   6   1  10 1.27214 2.21404   1
   6   1  10 6.18436 2.15017   2
  -6  -1  10 3.81600 2.32173   1
  -6   1 -10 0.80078 2.11379   1
  -6  -1  10 3.84296 2.20669   3
  -7   1  10 6.76601 2.89626   5
  -7   1  10 5.21070 2.36162   1
   7   1 -10 4.55208 2.35853   2
   7  -1  10 4.28771 2.48671   1
  -7  -1 -10 5.69404 2.47217   1
   7   1 -10 5.50321 2.60756   1
  -7   1  10 3.31195 2.34513   2
  -7   1  10 4.97135 3.02363   4
  -7   1 -10 8.99626 2.46822   2
   7   1  10 5.32046 2.45524   1
   7   1  10 3.15019 2.16553   2
  -7   1 -10 7.71884 2.49810   1
  -7  -1  10 7.06902 2.68543   1
   7  -1 -10 2.27396 2.44777   1
  -7  -1  10 6.14315 2.56134   3
  -7   1 -10 9.82713 2.47223   5
  -8  -1 -10 164.941 7.73700   1
   8   1 -10 169.506 7.57925   1
  -8   1  10 179.057 7.56918   1
  -8   1  10 182.198 8.68148   4
  -8   1  10 186.390 8.36218   5
   8  -1  10 166.353 7.72292   1
  -8   1  10 182.937 7.50223   2
  -8  -1  10 181.157 7.89597   1
   8   1  10 173.742 7.54372   1
  -8  -1  10 183.708 8.20727   3
  -8   1 -10 172.723 7.70489   1
   8   1  10 170.721 7.39970   2
  -8   1 -10 169.053 7.15437   5
   9   1 -10 159.649 7.36967   1
  -9   1  10 148.594 7.05922   2
  -9  -1 -10 149.956 7.53171   1
  -9   1  10 149.147 8.03494   5
   9  -1  10 149.272 7.49442   1
  -9   1  10 151.267 7.28963   1
   9   1  10 149.716 7.16253   1
  -9   1 -10 149.284 6.89247   5
  -9  -1  10 153.070 7.52261   1
  -9   1 -10 151.751 7.48454   1
 -10   1  10 95.8145 6.44459   1
 -10   1  10 96.9816 7.24690   5
  10   1 -10 88.1764 6.25141   1
  10  -1  10 78.3873 6.31949   1
 -10   1 -10 83.9994 6.38843   1
  10   1  10 90.7988 6.16465   1
 -10  -1  10 93.5277 6.62224   1
 -10   1 -10 84.7626 5.77027   5
  11   1 -10 59.3447 5.25727   1
 -11   1  10 59.8007 5.15967   1
  11  -1  10 53.8388 5.17700   1
 -11   1  10 53.8756 5.38414   5
  11   1  10 59.4800 5.01607   1
 -11   1 -10 65.5131 5.51446   1
 -11  -1  10 61.0102 5.48132   1
 -12   1  10 25.2888 4.14902   1
 -12   1  10 19.2363 4.31282   5
  12   1 -10 25.2662 4.11011   1
  12   1  10 22.7669 4.21525   1
 -12   1 -10 24.8307 4.48427   1
 -12  -1  10 28.0761 4.64275   1
 -12  -1  10 27.8149 4.63050   5
 -13   1  10 38.2067 5.31828   5
  13   1 -10 42.6566 5.09416   1
 -13   1  10 41.8517 4.81842   1
 -13  -1  10 44.4642 5.30544   5
 -13   1 -10 34.0851 5.07226   1
 -13  -1  10 41.1682 5.27957   1
  13   1  10 40.1063 5.01692   1
 -14   1  10 1.79503 3.99758   5
 -14   1  10 3.02483 3.75317   1
  14   1 -10 0.26461 3.67451   1
 -14  -1  10 5.09722 4.06383   1
  14   1  10 6.25443 3.96803   1
 -14   1 -10 6.21325 4.05636   1
 -14  -1  10 1.23184 3.75261   5
 -15   1  10 26.6896 5.18298   5
 -15   1  10 33.2326 4.87897   1
  15   1 -10 31.2906 5.14877   1
 -15   1 -10 37.8597 5.60510   1
  15   1  10 33.4665 4.87926   1
 -15  -1  10 32.8607 5.22452   5
 -16   1  10 38.8168 5.82990   5
 -16   1  10 49.0820 5.69964   1
  16   1 -10 53.6357 6.08573   1
 -16   1 -10 48.4481 6.03602   1
  16   1  10 35.3277 5.61921   1
 -16  -1  10 46.4150 5.91378   5
   0   2  10 499.408 14.0989   1
   0   2 -10 495.378 14.4835   1
   0   2  10 511.516 16.9604   3
   0   2  10 493.616 14.0779   2
   0   2 -10 502.597 14.3267   2
   0  -2  10 523.452 14.6226   1
   0  -2 -10 523.995 16.6682   3
  -1   2  10 362.516 10.6474   2
  -1  -2 -10 387.377 12.9073   3
  -1   2  10 393.709 12.7131   3
   1  -2  10 357.166 11.0732   1
   1   2 -10 369.633 10.8963   2
  -1   2  10 363.780 10.6327   1
  -1   2  10 346.580 15.0564   4
   1   2 -10 353.599 10.9592   1
   1   2  10 364.320 10.6333   1
  -1   2 -10 352.732 10.9913   1
  -1   2 -10 355.441 10.8599   2
   1   2  10 349.927 10.6440   2
   1   2  10 343.910 15.3947   4
  -1  -2  10 372.671 11.1518   1
   1  -2 -10 382.239 12.2342   3
   1   2  10 357.920 13.0260   3
   2   2 -10 69.6311 4.28722   1
  -2  -2 -10 75.8258 5.01241   3
  -2   2  10 79.6992 6.39174   4
  -2   2  10 87.2132 3.92294   1
   2   2 -10 76.3368 4.20618   2
   2  -2  10 80.6022 4.43339   1
  -2   2  10 83.7151 4.58948   3
  -2   2  10 71.6839 3.90658   2
  -2  -2  10 73.1059 5.20232   3
  -2   2 -10 77.3928 4.17603   2
   2  -2 -10 85.2314 3.94818   3
   2   2  10 74.0178 3.95134   1
   2   2  10 73.7335 5.26727   3
  -2   2 -10 72.2344 4.22479   1
   2   2  10 83.7792 7.00778   4
  -2  -2  10 75.2762 4.45378   1
   2   2  10 72.0554 3.95360   2
  -3   2  10 1614.40 41.2430   2
   3   2 -10 1600.34 42.0057   1
  -3  -2 -10 1620.73 49.3197   3
   3   2 -10 1631.19 41.5444   2
  -3   2  10 1669.23 53.8693   4
  -3   2  10 1590.27 41.5884   1
   3  -2  10 1586.87 42.0321   1
  -3   2  10 1595.25 42.3228   5
   3   2  10 1561.91 54.3702   4
  -3  -2  10 1607.39 42.1103   1
  -3   2 -10 1570.84 41.3541   2
   3   2  10 1659.40 41.7144   1
  -3   2 -10 1649.07 42.0302   1
  -3  -2  10 1565.76 49.2096   3
   3   2  10 1571.49 49.3979   3
   3   2  10 1606.59 41.2535   2
   4   2 -10 44.3898 3.51341   2
  -4   2  10 45.7387 3.50186   1
  -4   2  10 46.7112 3.64402   2
  -4   2  10 48.7061 3.85361   5
  -4  -2 -10 40.6284 4.00173   3
  -4   2  10 54.7233 5.35009   4
   4   2 -10 46.1561 3.51108   1
  -4  -2  10 44.1038 3.96999   3
   4   2  10 54.5474 5.67747   4
   4   2  10 48.7785 3.79108   1
  -4   2 -10 46.8485 3.44096   1
   4   2  10 51.7893 3.76352   2
  -4  -2  10 52.9775 3.94070   1
  -4   2 -10 54.5524 3.92884   2
  -4   2 -10 42.9290 3.59202   5
   5   2 -10 144.466 6.27051   2
  -5   2  10 139.698 5.78571   1
  -5   2  10 148.340 5.94483   2
   5   2 -10 150.922 6.28438   1
  -5   2  10 145.512 6.74888   5
  -5   2  10 151.162 8.12221   4
   5   2  10 141.531 6.04383   2
   5   2  10 153.872 6.13476   1
  -5   2 -10 140.521 6.38168   5
  -5   2 -10 150.715 6.22676   2
  -5   2 -10 152.652 6.32503   1
  -5  -2  10 140.516 7.25399   3
   5   2  10 136.176 8.49817   4
  -6   2  10 18.7113 2.68947   2
  -6   2  10 22.2573 3.94714   4
   6   2 -10 20.0947 2.94724   2
  -6   2  10 14.3789 2.97027   5
  -6   2  10 19.1824 2.63746   1
   6   2 -10 18.0801 2.88585   1
  -6   2 -10 16.7836 2.76914   1
   6   2  10 19.5114 2.76799   1
  -6   2 -10 15.4803 2.71656   2
  -6   2 -10 16.6670 2.84796   5
   6   2  10 21.3901 2.78817   2
   6   2  10 18.3775 3.59689   4
  -7   2  10 23.6445 3.89859   4
  -7   2  10 23.2954 3.61593   5
   7   2 -10 30.1709 3.45644   1
  -7   2  10 30.9227 3.11444   1
   7   2 -10 24.8731 3.29222   2
  -7   2  10 32.0784 3.29230   2
   7   2  10 29.3439 3.23518   1
  -7   2 -10 33.5573 3.40605   1
   7   2  10 26.0765 3.96508   4
  -7   2 -10 26.2203 3.43696   5
   7   2  10 27.2137 3.14221   2
  -7   2 -10 32.7064 3.42697   2
   8   2 -10 176.738 7.77816   2
  -8   2  10 182.687 8.53366   5
  -8   2  10 167.717 7.32427   1
   8   2 -10 164.438 7.57801   1
  -8   2  10 188.691 7.62686   2
  -8   2  10 193.684 9.29440   4
  -8   2 -10 172.065 7.61592   2
   8   2  10 175.742 7.44095   1
  -8   2 -10 173.453 7.74791   5
  -8   2 -10 174.902 7.56709   1
   8   2  10 183.354 7.65751   2
   9   2 -10 1123.35 30.5106   2
  -9   2  10 1047.01 30.9322   5
   9   2 -10 1082.97 30.4196   1
  -9   2  10 1126.40 29.9862   2
  -9   2  10 1077.25 29.9426   1
   9   2 -10 1124.89 30.4965   2
   9   2  10 1087.08 30.0460   2
   9   2  10 1090.76 30.0825   1
  -9   2 -10 1105.00 30.3914   1
  -9   2 -10 1102.22 30.1418   2
  -9   2 -10 1081.28 30.3327   5
 -10   2  10 32.7677 3.93623   2
  10   2 -10 28.1378 4.01127   1
 -10   2  10 35.9873 4.64738   5
 -10   2  10 32.9348 3.63246   1
  10   2  10 31.7534 3.92767   1
  10   2  10 41.7911 4.35448   2
 -10   2 -10 28.6270 3.84077   1
 -10   2 -10 31.0971 4.00512   5
 -11   2  10 496.459 15.8883   1
  11   2 -10 499.630 16.3142   1
 -11   2  10 504.727 17.1302   5
 -11   2 -10 496.186 16.1813   5
  11   2  10 502.082 16.0576   1
 -11   2 -10 513.296 16.2730   1
 -12   2  10 770.333 23.0065   1
 -12   2  10 795.219 24.2877   5
  12   2 -10 799.022 23.5137   1
 -12   2 -10 776.513 23.3850   1
 -12   2 -10 767.949 23.2293   5
  12   2  10 787.349 23.2562   1
  13   2 -10 5.83797 3.76962   1
 -13   2  10 2.11237 3.43326   1
 -13   2  10 10.3426 4.13782   5
 -13   2 -10 8.23043 3.97106   5
 -13  -2  10 11.0401 4.14617   5
  13   2  10 2.80918 3.40608   1
 -13   2 -10 7.97374 3.82109   1
 -14   2  10 0.67325 3.30253   1
 -14   2  10 3.33351 4.37386   5
  14   2 -10 -1.6091 3.61599   1
 -14   2 -10 4.45351 3.81375   1
 -14  -2  10 -0.6882 3.76070   5
  14   2  10 -11.448 3.18750   1
  15   2 -10 11.8037 4.45692   1
 -15   2  10 13.0864 3.88190   1
 -15   2  10 15.2149 4.79848   5
 -15   2 -10 12.6205 4.29741   1
 -15  -2  10 15.4802 4.62223   5
  15   2  10 13.9773 4.30587   1
   0   3  10 0.37286 1.83783   3
   0   3  10 0.11988 1.11494   1
   0   3 -10 3.95083 1.71443   2
   0   3  10 -0.0697 1.49410   2
   0   3 -10 -1.2970 1.53743   1
   0  -3 -10 2.34465 1.82619   3
   0   3  10 -4.3079 2.37906   4
   1   3 -10 74.4781 4.03729   1
  -1   3  10 81.6219 3.93478   2
  -1   3  10 77.9279 4.07288   5
  -1  -3 -10 85.2684 5.05421   3
  -1   3  10 73.0934 6.35344   4
  -1   3  10 74.5554 3.20992   1
   1   3 -10 76.8279 4.22860   2
   1   3  10 75.0174 5.03536   3
  -1   3 -10 72.2440 4.03530   1
  -1   3 -10 80.1189 4.15114   2
   1   3  10 74.6970 6.23859   4
   1   3  10 72.9633 3.84067   2
   2   3 -10 258.034 8.45520   2
  -2   3  10 252.461 11.7522   4
  -2   3  10 243.332 7.47329   1
  -2   3  10 262.219 8.63360   5
  -2   3  10 254.753 8.07934   2
  -2  -3 -10 274.792 10.2827   3
   2   3 -10 244.990 8.21912   1
  -2   3 -10 268.458 8.29813   1
   2   3  10 246.506 11.8044   4
  -2   3 -10 258.187 8.38554   2
   2   3  10 253.626 8.15187   2
   2   3  10 254.016 10.2837   3
   3   3 -10 262.922 8.53018   1
   3   3 -10 261.644 8.80031   2
  -3  -3 -10 266.299 10.6316   3
  -3   3  10 264.237 8.35509   2
  -3   3  10 279.816 12.0842   4
  -3   3  10 268.788 9.11823   5
  -3   3  10 256.185 7.80149   1
   3   3  10 262.043 8.41836   2
  -3   3 -10 263.380 9.39155   5
   3   3  10 253.585 11.9894   4
  -3   3 -10 261.015 8.67905   2
  -3   3 -10 261.505 8.54437   1
   4   3 -10 181.781 7.11890   2
  -4   3  10 180.301 6.57282   2
  -4   3  10 174.568 7.30444   5
  -4   3  10 178.061 6.09230   1
   4   3 -10 189.364 6.81749   1
  -4   3  10 181.248 9.47374   4
  -4   3 -10 176.753 6.69448   1
   4   3  10 171.185 6.06212   1
  -4   3 -10 190.181 6.93909   2
   4   3  10 182.243 6.65613   2
  -4   3 -10 180.842 7.50831   5
   4   3  10 179.831 9.50358   4
   5   3 -10 221.941 8.21200   2
   5   3 -10 222.314 7.78581   1
  -5   3  10 203.559 8.43450   5
  -5   3  10 219.571 7.20427   1
  -5   3  10 220.740 7.64810   2
  -5   3  10 223.771 10.6990   4
   5   3  10 211.576 10.6503   4
  -5   3 -10 226.455 7.89066   1
   5   3  10 213.594 7.74375   2
   5   3  10 212.792 7.25921   1
  -5   3 -10 215.516 7.99513   2
  -5   3 -10 213.731 8.52276   5
   6   3 -10 3.53073 2.38904   2
  -6   3  10 3.62835 2.63960   5
  -6   3  10 0.55366 2.85264   4
  -6   3  10 0.13562 2.03148   2
   6   3 -10 2.83112 2.12133   1
  -6   3  10 -0.5241 1.77022   1
   6   3  10 2.61951 1.99366   2
  -6   3 -10 0.04366 1.95338   1
  -6   3 -10 2.02591 2.17950   2
   6   3  10 -0.1401 1.93870   1
  -6   3 -10 1.66857 2.54018   5
   6   3  10 0.98238 2.42939   4
  -7   3  10 8.44862 2.27966   1
   7   3 -10 11.8719 2.62205   1
  -7   3  10 5.62042 2.52147   2
   7   3 -10 11.2068 2.84059   2
  -7   3  10 13.8150 3.23931   5
  -7   3  10 8.98375 3.38971   4
   7   3  10 5.71657 2.37512   1
  -7   3 -10 8.48849 3.01049   5
   7   3  10 7.83265 2.39717   2
  -7   3 -10 10.2374 2.45975   1
  -7   3 -10 6.30263 2.55179   2
   8   3 -10 154.121 7.02052   1
   8   3 -10 152.220 7.43366   2
  -8   3  10 146.991 8.03432   5
  -8   3  10 157.432 7.11206   2
  -8   3  10 164.480 8.90340   4
  -8   3  10 151.409 6.60454   1
   8   3  10 166.001 7.22603   2
  -8   3 -10 151.976 6.98742   1
   8   3  10 153.179 6.59513   1
  -8   3 -10 149.765 7.19714   2
  -8   3 -10 147.138 7.62928   5
   9   3 -10 127.717 6.94002   2
   9   3 -10 109.666 6.80172   2
  -9   3  10 122.616 6.50278   2
  -9   3  10 114.918 7.69829   5
   9   3 -10 103.044 6.27125   1
  -9   3  10 119.521 8.72074   4
  -9   3  10 108.936 5.96064   1
   9   3  10 120.023 6.08774   1
  -9   3 -10 109.588 6.32882   1
   9   3  10 108.726 6.61970   2
  -9   3 -10 117.889 6.61698   2
  -9   3 -10 115.689 7.11293   5
  10   3 -10 62.3722 5.42594   2
  10   3 -10 52.0378 4.99065   2
 -10   3  10 56.7657 5.52478   5
  10   3 -10 55.9579 4.72498   1
 -10   3  10 58.0479 4.28526   1
 -10   3  10 62.5672 4.94095   2
  10   3  10 66.3757 5.27717   1
 -10   3 -10 61.5358 5.12697   2
 -10   3 -10 67.7194 4.97527   1
  10   3  10 54.2776 4.89441   2
 -10   3 -10 55.1092 5.24777   5
  11   3 -10 40.2803 4.35287   1
 -11   3  10 36.9028 4.48461   2
 -11   3  10 36.4636 3.85071   1
 -11   3  10 26.2189 4.89706   5
  11   3  10 44.3611 4.74839   2
 -11   3 -10 35.9881 4.35439   2
  11   3  10 39.8601 4.19054   1
 -11   3 -10 42.1873 4.30521   1
 -11   3 -10 43.8107 4.81430   5
 -12   3  10 10.4661 3.29217   1
 -12   3  10 15.9160 3.83912   2
  12   3 -10 17.9121 3.74628   1
 -12   3  10 18.6467 4.39522   5
  12   3  10 21.3843 3.76093   1
 -12   3 -10 15.5130 3.79447   1
 -12   3 -10 13.2940 4.03114   5
 -13   3  10 42.0692 4.46224   1
  13   3 -10 48.2671 5.07248   1
 -13   3  10 31.2480 5.24218   5
 -13   3 -10 39.6605 5.17853   5
  13   3  10 39.3227 4.71939   1
 -13   3 -10 41.8448 4.71371   1
 -14   3  10 0.10121 3.34487   1
  14   3 -10 4.84309 3.74531   1
 -14   3  10 7.42008 4.26148   5
 -14   3 -10 3.70731 3.43401   1
  14   3  10 7.27816 3.63518   1
 -14   3 -10 7.03985 4.08346   5
 -15   3  10 32.5830 4.48739   1
 -15   3  10 30.2055 5.65394   5
  15   3 -10 36.8197 4.84587   1
  15   3  10 34.8301 4.76034   1
 -15   3 -10 34.3371 5.88517   5
 -15   3 -10 39.3697 4.88165   1
   0   4  10 47.2272 3.19467   2
   0   4  10 47.0540 5.27201   4
   0   4 -10 38.5580 2.99501   2
   1   4 -10 93.4960 4.74045   2
  -1   4  10 96.7879 4.37253   2
  -1   4  10 89.5839 6.96258   4
   1   4  10 89.4479 4.24868   2
  -1   4 -10 92.8028 4.65464   2
   1   4  10 93.3072 6.96495   4
   2   4 -10 597.610 17.0447   2
  -2  -4 -10 651.394 21.3985   3
  -2   4  10 606.976 16.5970   2
  -2   4  10 597.724 23.0030   4
   2   4  10 581.080 22.8662   4
  -2   4 -10 610.370 16.9819   2
   2   4  10 602.508 16.6413   2
  -3   4  10 278.937 8.74055   2
  -3   4  10 279.438 12.7444   4
  -3   4  10 282.366 9.46128   5
   3   4 -10 272.871 8.38031   1
   3   4 -10 281.679 9.32841   2
  -3   4 -10 272.360 8.21829   1
   3   4  10 269.939 12.6720   4
   3   4  10 277.429 8.86168   2
  -3   4 -10 280.287 10.2205   5
  -3   4 -10 292.198 9.22159   2
  -4   4  10 5.53882 1.83382   2
  -4   4  10 6.86504 2.37784   5
   4   4 -10 0.95744 1.95196   2
  -4   4  10 5.23779 3.13943   4
   4   4 -10 4.18883 1.68009   1
  -4   4 -10 -1.4946 1.92929   2
   4   4  10 0.35356 2.66157   4
  -4   4 -10 0.98768 1.45435   1
   4   4  10 1.08070 1.80618   2
  -4   4 -10 5.85487 2.76338   5
   5   4 -10 2.13016 2.17430   2
  -5   4  10 0.86584 1.98540   2
   5   4 -10 2.94107 1.81155   1
  -5   4  10 5.87999 2.50659   5
  -5   4  10 4.38733 3.29021   4
  -5   4 -10 -0.4460 2.08616   2
   5   4  10 1.95207 1.94841   2
   5   4  10 -2.6168 2.52501   4
  -5   4 -10 -0.2646 2.54578   5
  -6   4  10 584.382 17.6179   5
  -6   4  10 559.413 16.3248   2
   6   4 -10 573.370 16.1135   1
   6   4 -10 581.081 16.9922   2
  -6   4  10 549.932 21.8306   4
  -6   4 -10 574.234 16.7771   2
   6   4  10 564.909 21.5317   4
  -6   4 -10 571.599 15.9450   1
   6   4  10 562.442 16.4871   2
  -6   4 -10 557.014 17.7090   5
  -7   4  10 281.204 9.78259   2
  -7   4  10 279.112 13.2530   4
   7   4 -10 272.342 9.36833   1
  -7   4  10 298.256 11.0911   5
   7   4 -10 284.289 10.3053   2
   7   4  10 272.960 9.84052   2
  -7   4 -10 290.752 10.0938   2
  -7   4 -10 276.094 10.9371   5
  -7   4 -10 285.805 9.19768   1
  -8   4  10 71.2712 5.79049   5
  -8   4  10 95.5245 5.73082   2
  -8   4  10 97.3632 7.48424   4
   8   4 -10 82.1146 5.03876   1
   8   4 -10 74.1497 5.88189   2
   8   4  10 77.1048 4.23369   1
  -8   4 -10 72.2068 5.04508   1
  -8   4 -10 84.2308 5.76937   2
   8   4  10 76.9411 5.68352   2
  -8   4 -10 79.5583 6.11831   5
  -9   4  10 87.1317 7.54811   4
   9   4 -10 86.3009 5.48631   1
  -9   4  10 92.1665 6.76008   5
   9   4 -10 86.0863 6.43464   2
  -9   4  10 70.7892 5.78943   2
   9   4  10 97.6808 4.84788   1
  -9   4 -10 87.8358 6.20253   2
   9   4  10 98.6621 6.26419   2
  -9   4 -10 89.7415 5.64436   1
  -9   4 -10 93.7182 7.06552   5
  10   4 -10 8.86748 3.46800   2
 -10   4  10 6.75737 3.14201   2
  10   4 -10 11.2965 3.33831   2
 -10   4  10 9.30251 2.47518   1
 -10   4  10 6.59955 4.06779   5
  10   4 -10 1.35918 2.69206   1
 -10   4 -10 4.23204 2.71323   1
  10   4  10 6.21357 2.53893   1
  10   4  10 6.95098 2.99150   2
 -10   4 -10 8.51956 3.86544   5
 -10   4 -10 5.66376 3.09369   2
  11   4 -10 27.5760 3.66524   1
  11   4 -10 33.3798 4.53914   2
 -11   4  10 31.2016 4.16621   2
 -11   4  10 22.6720 4.57897   5
 -11   4  10 29.6939 3.36426   1
  11   4  10 32.0783 3.52434   1
 -11   4 -10 30.4631 4.89600   5
 -11   4 -10 33.7179 3.86376   1
 -11   4 -10 27.0142 4.27002   2
  11   4  10 29.0597 4.18925   2
 -12   4  10 1.83275 3.89730   5
  12   4 -10 6.51900 3.14890   1
 -12   4  10 3.23400 3.21360   2
 -12   4  10 -0.7822 2.57522   1
 -12   4 -10 6.07456 4.07994   5
 -12   4 -10 -1.8640 3.17292   2
  12   4  10 -0.5182 2.87756   1
 -12   4 -10 8.07416 3.27072   1
  12   4  10 6.02195 3.47405   2
 -13   4  10 3.01930 2.80533   1
  13   4 -10 8.92478 3.45341   1
 -13   4  10 13.5508 4.06589   2
 -13   4  10 7.78641 4.16706   5
  13   4  10 12.4603 3.42055   1
 -13   4 -10 2.82207 4.17782   5
  13   4  10 7.67926 3.78038   2
 -13   4 -10 6.06670 3.39039   1
  14   4 -10 403.549 13.8434   1
 -14   4  10 374.181 12.9630   1
 -14   4  10 368.737 15.5016   5
 -14   4 -10 413.269 15.5625   5
 -14   4 -10 393.981 13.8345   1
  14   4  10 396.841 13.4121   1
   0   5 -10 1.58173 1.71335   2
   0   5  10 1.58504 1.67493   2
   0   5  10 -1.3514 2.84011   4
  -1   5  10 33.1181 4.90300   4
   1   5 -10 30.8354 2.83597   2
  -1   5  10 31.0053 2.56180   2
   1   5  10 33.7709 4.92223   4
   1   5  10 35.1320 2.62317   2
  -1   5 -10 31.9282 2.90111   2
  -2   5  10 201.542 6.87789   2
   2   5 -10 191.858 7.28141   2
  -2   5  10 196.659 10.7474   4
   2   5  10 199.171 6.85319   2
  -2   5 -10 203.373 7.32440   2
   2   5  10 200.565 10.7773   4
   3   5 -10 137.395 6.12680   2
  -3   5  10 130.549 8.99994   4
  -3   5  10 135.337 5.56437   2
   3   5  10 137.486 8.74656   4
  -3   5 -10 139.416 6.03068   2
   3   5  10 142.268 5.56811   2
   4   5 -10 103.139 5.60673   2
  -4   5  10 123.524 8.29744   4
  -4   5  10 109.627 5.10245   2
   4   5  10 104.899 5.13001   2
   4   5  10 115.269 8.02504   4
  -4   5 -10 106.182 6.81599   5
  -4   5 -10 116.039 5.63303   2
  -5   5  10 116.938 8.46916   4
  -5   5  10 117.162 5.49502   2
  -5   5  10 132.687 6.67247   5
   5   5 -10 123.917 6.12630   2
  -5   5 -10 113.912 5.95768   2
   5   5  10 121.287 8.22262   4
   5   5  10 114.280 5.61762   2
  -5   5 -10 126.077 7.38657   5
  -6   5  10 -3.3087 3.21805   4
   6   5 -10 3.40713 2.46927   2
  -6   5  10 1.81803 2.81815   5
  -6   5  10 2.64006 2.27712   2
  -6   5 -10 2.73426 2.50775   2
  -6   5 -10 -1.0275 2.79384   5
   6   5  10 0.07674 2.70041   4
   6   5  10 -0.0607 2.12670   2
  -7   5  10 3.13208 3.13072   5
  -7   5  10 4.20532 3.69899   4
   7   5 -10 1.54873 2.43759   2
  -7   5  10 1.78748 2.33410   2
   7   5  10 4.23955 2.52552   2
  -7   5 -10 4.79886 2.74119   2
  -7   5 -10 7.44095 3.42373   5
  -8   5  10 90.0390 7.10230   5
   8   5 -10 83.8969 6.01762   2
  -8   5  10 84.5543 5.66173   2
  -8   5  10 94.1908 7.79994   4
  -8   5 -10 77.3603 5.80990   2
   8   5  10 78.6441 5.69902   2
  -8   5 -10 77.6646 6.37336   5
  -9   5  10 92.3950 7.54044   5
   9   5 -10 84.0469 6.31727   2
  -9   5  10 75.7420 7.91725   4
  -9   5  10 89.5353 5.85827   2
   9   5 -10 86.7047 6.43337   2
  -9   5 -10 78.8195 6.41955   5
  -9   5 -10 86.7485 6.25313   2
   9   5  10 72.8230 5.49306   2
  10   5 -10 59.7962 5.36264   2
 -10   5  10 46.3648 4.57857   2
  10   5 -10 57.9226 5.17130   2
 -10   5  10 51.0474 5.72212   5
 -10   5 -10 57.7741 6.09256   5
 -10   5 -10 58.8265 5.11466   2
  10   5  10 67.0156 5.30378   2
  11   5 -10 53.8173 3.91082   1
 -11   5  10 39.5555 4.49071   2
 -11   5  10 43.4134 5.79054   5
  11   5 -10 42.6330 4.81629   2
 -11   5 -10 43.7989 4.96645   2
 -11   5 -10 47.3314 5.65039   5
  11   5  10 42.4726 4.85128   2
 -12   5  10 18.7607 4.04282   2
 -12   5  10 12.2278 4.60889   5
  12   5 -10 19.3419 4.04327   2
  12   5 -10 14.4528 3.21300   1
  12   5  10 18.6397 4.00715   2
 -12   5 -10 20.3362 4.84169   5
 -12   5 -10 19.1553 4.17907   2
   0   6  10 159.383 5.94861   2
   0   6  10 166.260 10.2053   4
   0   6 -10 166.738 6.48835   2
  -1   6  10 119.559 5.00225   2
   1   6 -10 121.178 5.45023   2
  -1   6  10 122.799 8.92640   4
   1   6  10 125.770 8.85346   4
  -1   6 -10 114.165 5.48965   2
   1   6  10 121.250 4.98984   2
  -2   6  10 21.3701 4.88078   4
  -2   6  10 16.4615 2.33914   2
   2   6 -10 17.4495 2.54648   2
  -2   6 -10 15.9406 2.40528   2
   2   6  10 19.8685 2.31821   2
   2   6  10 13.2877 4.30377   4
   3   6 -10 589.902 17.2926   2
  -3   6  10 580.445 23.9042   4
  -3   6  10 579.577 16.6622   2
  -3   6 -10 631.264 17.2462   2
   3   6  10 617.484 16.7522   2
   3   6  10 600.904 23.7968   4
  -4   6  10 20.7885 2.59059   2
   4   6 -10 12.9768 2.63125   2
  -4   6  10 18.5605 4.58942   4
  -4   6 -10 21.6434 3.93567   5
  -4   6 -10 12.1481 2.59933   2
   4   6  10 22.0954 4.67948   4
   4   6  10 13.9042 2.49297   2
  -5   6  10 52.8745 4.21808   2
   5   6 -10 48.5252 4.15858   2
  -5   6  10 56.3269 6.59161   4
   5   6  10 56.7402 4.37690   2
  -5   6 -10 66.3738 5.68320   5
   5   6  10 55.6023 6.28769   4
  -5   6 -10 43.5780 3.85007   2
  -6   6  10 1.85426 3.71429   4
   6   6 -10 -3.2110 2.36731   2
  -6   6  10 4.28167 2.38511   2
  -6   6 -10 0.69497 2.40649   2
  -6   6 -10 8.25207 3.49878   5
   6   6  10 0.93503 2.27889   2
  -7   6  10 7.20068 4.32023   4
   7   6 -10 10.9285 2.95231   2
  -7   6  10 9.04196 2.77887   2
  -7   6 -10 4.38378 2.75260   2
  -7   6 -10 12.4969 3.77166   5
   7   6  10 9.59441 2.71958   2
  -8   6  10 78.2624 7.71808   4
  -8   6  10 68.7763 5.37549   2
  -8   6  10 84.2574 7.23149   5
   8   6 -10 85.4533 6.06095   2
   8   6  10 73.7763 5.70930   2
  -8   6 -10 68.3783 6.26601   5
  -8   6 -10 77.2233 5.87616   2
  -9   6  10 505.942 18.0383   5
   9   6 -10 504.475 16.6290   2
  -9   6  10 516.747 21.6944   4
  -9   6  10 500.499 15.8676   2
   9   6 -10 505.189 16.6247   2
  -9   6 -10 524.835 18.1195   5
  -9   6 -10 510.968 16.4297   2
   9   6  10 533.483 16.2502   2
 -10   6  10 15.4823 4.75952   5
  10   6 -10 17.4604 3.58452   2
 -10   6  10 15.6341 3.41881   2
 -10   6 -10 12.6935 4.52345   5
  10   6  10 14.2854 3.66597   2
 -10   6 -10 12.1357 3.43702   2
   0   7  10 2.08427 3.65033   4
   0   7 -10 0.08256 1.81408   2
   0   7  10 -3.5853 1.74871   2
  -1   7  10 33.7956 2.77931   2
  -1   7  10 26.4966 5.26235   4
   1   7 -10 32.0455 3.15236   2
  -1   7 -10 37.5362 3.22913   2
   1   7  10 28.6092 5.39736   4
   1   7  10 34.6290 2.79944   2
  -2   7  10 77.6551 8.02132   4
   2   7 -10 87.6372 4.99596   2
  -2   7  10 88.7685 4.42674   2
   2   7  10 75.6705 4.43952   2
  -2   7 -10 71.5162 4.65565   2
   2   7  10 77.5873 8.02971   4
   3   7 -10 112.058 5.55142   2
  -3   7  10 91.8990 8.69004   4
  -3   7  10 95.0421 4.95645   2
  -3   7 -10 102.816 5.39388   2
   3   7  10 104.251 8.78948   4
   3   7  10 113.534 5.10199   2
  -4   7  10 67.8507 7.50755   4
   4   7 -10 65.3719 4.87308   2
  -4   7  10 70.9470 4.44695   2
  -4   7 -10 59.2943 4.67537   2
   4   7  10 80.6805 7.98531   4
   4   7  10 62.0906 4.45648   2
  -5   7  10 86.2888 8.58326   4
   5   7 -10 82.4298 5.54225   2
  -5   7  10 88.0411 5.12045   2
   5   7  10 90.2605 5.27524   2
  -5   7 -10 96.7823 5.59658   2
  -6   7  10 -2.6255 2.33028   2
   6   7 -10 1.84200 2.34237   2
  -6   7  10 4.68227 4.14886   4
   6   7  10 -0.4463 2.33588   2
  -6   7 -10 -1.2003 3.43731   5
  -6   7 -10 -3.0506 2.12479   2
  -7   7  10 7.67466 2.67622   2
   7   7 -10 10.0094 2.97635   2
  -7   7 -10 4.47513 2.66235   2
  -7   7 -10 0.15124 3.76860   5
   7   7  10 3.54032 2.58608   2
   0   8  10 9.42843 2.13186   2
   0   8 -10 9.13111 2.39859   2
   1   8 -10 22.2020 3.01973   2
  -1   8  10 22.4612 2.56128   2
   1   8  10 26.8525 2.59978   2
  -1   8 -10 27.2183 3.02491   2
   0   0 -11 1.39714 1.67972   2
   0   0 -11 1.07441 1.89672   1
   0   0  11 1.19915 1.83906   1
   0   0  11 -1.5533 1.73369   2
   0   0  11 -0.4173 2.06069   3
  -1   0  11 220.208 7.37687   2
  -1   0  11 213.440 7.50530   1
   1   0 -11 220.906 7.31566   2
   1   0 -11 209.534 7.46510   1
   1   0  11 210.886 9.04220   3
   1   0  11 208.625 7.47487   1
  -1   0 -11 196.415 8.78750   3
   1   0  11 213.747 7.42423   2
  -1   0 -11 206.871 7.52947   1
  -1   0  11 223.480 8.87144   3
  -1   0 -11 215.440 7.34801   2
  -2   0  11 876.916 26.3766   3
   2   0  11 818.004 22.6543   1
   2   0  11 773.683 26.6218   3
   2   0  11 839.878 22.3888   2
  -2   0  11 834.378 22.6142   1
  -2   0  11 849.632 22.3403   2
  -2   0 -11 819.352 22.3525   2
   2   0 -11 847.863 22.7717   1
  -2   0 -11 799.439 26.6385   3
   2   0 -11 839.437 22.3188   2
  -2   0 -11 812.524 22.6202   1
   3   0  11 405.211 12.1028   2
   3   0 -11 403.123 12.1446   1
  -3   0  11 397.556 12.1811   1
  -3   0  11 431.975 13.9875   3
  -3   0 -11 381.383 12.1539   1
  -3   0 -11 392.590 12.0123   2
   3   0 -11 427.676 12.0688   2
   3   0  11 386.685 12.1480   1
  -3   0  11 399.142 11.9607   2
  -3   0 -11 380.327 14.4898   3
  -4   0  11 274.890 9.86413   3
   4   0  11 247.118 8.78575   1
   4   0 -11 257.946 8.75913   1
  -4   0  11 266.097 9.46451   3
  -4   0  11 262.293 8.81051   1
  -4   0  11 256.165 8.50631   2
  -4   0 -11 221.740 10.4185   3
   4   0  11 262.535 8.80658   2
  -4   0 -11 236.195 8.68537   1
   5   0  11 316.218 10.4306   1
  -5   0 -11 312.533 10.4804   1
   5   0 -11 329.598 10.4921   1
  -5   0  11 317.451 11.1986   3
  -5   0  11 323.846 10.4691   1
  -5   0  11 313.159 10.2025   2
   5   0  11 321.440 10.4258   2
   6   0  11 16.9421 2.88495   1
  -6   0 -11 22.5809 2.66181   5
  -6   0  11 19.3813 2.91613   2
  -6   0  11 22.8808 2.76503   3
  -6   0 -11 16.8228 2.80845   1
  -6   0  11 25.7801 3.23397   1
   6   0 -11 20.7988 3.07249   1
  -7   0  11 779.801 21.9527   1
  -7   0 -11 757.673 21.9070   1
   7   0 -11 779.874 21.8669   1
   7   0  11 759.201 21.8814   1
  -7   0 -11 750.352 21.2266   5
  -8   0  11 181.869 8.06250   1
  -8   0 -11 183.460 8.03125   1
   8   0  11 184.459 7.98108   1
   8   0 -11 190.454 8.02612   1
   9   0  11 121.902 6.91506   1
  -9   0 -11 133.840 7.23197   1
   9   0 -11 122.536 6.95469   1
  -9   0  11 131.324 7.01693   1
 -10   0 -11 327.383 12.0267   1
 -10   0  11 320.623 11.7354   1
  10   0  11 304.432 11.6635   1
  10   0 -11 312.957 11.6853   1
 -10   0  11 315.079 12.4501   5
 -11   0  11 49.4727 5.38920   5
 -11   0  11 60.5833 5.41446   1
 -11   0 -11 52.1047 5.21644   1
  11   0  11 65.3109 5.53086   1
  11   0 -11 64.7442 5.40118   1
  12   0  11 -4.4214 3.17017   1
  12   0 -11 -1.5358 3.18175   1
 -12   0  11 2.31662 3.72594   5
 -12   0 -11 -3.7196 3.41043   1
 -12   0  11 4.80983 3.33937   1
  13   0 -11 91.7353 7.44585   1
 -13   0  11 74.3919 6.67500   5
 -13   0 -11 102.774 8.18289   1
  13   0  11 84.7676 6.56492   1
 -13   0  11 106.469 7.52667   1
 -14   0  11 2.79116 3.76873   1
 -14   0 -11 6.79671 4.28861   1
 -14   0  11 4.21634 3.91544   5
  14   0 -11 6.58425 3.96405   1
  14   0  11 6.85579 4.02609   1
 -15   0 -11 45.2075 5.80630   1
 -15   0  11 56.9636 6.21030   5
  15   0  11 54.5723 5.90154   1
 -15   0  11 42.8712 5.68551   1
  15   0 -11 47.1749 5.83352   1
   0  -1 -11 169.853 7.23494   3
   0   1  11 164.532 6.15881   2
   0  -1  11 174.535 7.94350   3
   0  -1  11 161.414 6.28053   2
   0   1  11 166.488 6.30130   1
   0   1 -11 161.476 6.40962   1
   0  -1 -11 161.501 6.31340   1
   0   1  11 175.210 7.43944   3
   0   1 -11 172.422 6.36482   2
   0  -1  11 165.620 6.45780   1
  -1  -1 -11 438.430 13.0282   1
  -1   1  11 445.180 12.9514   1
  -1   1  11 442.306 15.0279   3
   1  -1  11 443.635 13.1454   1
   1  -1  11 436.350 13.0988   2
  -1  -1 -11 449.009 15.2670   3
   1  -1  11 437.149 15.7280   3
  -1   1  11 441.526 12.7977   2
   1   1 -11 435.432 12.8480   2
   1   1  11 439.194 15.3110   3
   1  -1 -11 445.649 14.7852   3
  -1   1 -11 419.764 13.0349   1
  -1  -1  11 432.870 12.9170   2
   1   1  11 430.920 12.7829   2
  -1  -1  11 455.190 13.1407   1
   1  -1 -11 467.824 13.1161   1
   1   1  11 437.687 12.9395   1
  -1  -1  11 464.475 15.5675   3
  -1   1 -11 452.923 12.9381   2
  -2  -1 -11 1.22743 2.14598   3
  -2   1  11 2.20889 1.76926   2
   2   1 -11 2.00421 1.88692   1
  -2   1  11 5.06335 2.02251   3
  -2  -1 -11 -0.0894 1.92237   1
   2  -1  11 1.06306 1.90697   1
   2   1 -11 1.86382 1.75210   2
  -2   1  11 -0.6120 1.74385   1
   2   1  11 1.78024 2.21415   3
  -2   1 -11 1.79676 1.83795   2
  -2   1 -11 4.72012 1.98432   1
   2   1  11 1.05896 1.75309   2
  -2  -1  11 -1.3681 1.75894   1
   2  -1 -11 0.90686 1.86594   1
   2   1  11 1.96212 1.89248   1
  -2  -1  11 4.95140 2.28178   3
  -3  -1 -11 7.94279 2.18699   1
  -3  -1 -11 12.9026 2.76141   3
   3   1 -11 10.3698 2.13076   2
  -3   1  11 11.5281 2.19984   3
  -3   1  11 10.8382 2.26696   1
  -3   1  11 6.94788 2.01864   2
   3  -1  11 12.4252 2.31681   1
   3   1 -11 7.15863 2.20220   1
  -3   1 -11 7.57109 2.22252   1
  -3  -1  11 9.76362 2.26740   1
  -3   1 -11 6.76318 2.53847   3
  -3   1 -11 4.73444 2.05712   2
   3   1  11 7.90147 2.10662   2
   3  -1 -11 10.3997 2.18287   1
   3   1  11 9.54847 2.21177   1
  -4   1  11 60.9928 4.31839   1
  -4  -1 -11 55.4638 5.23335   3
   4  -1  11 62.9566 4.35425   1
  -4  -1 -11 62.5437 4.33677   1
   4   1 -11 65.3318 4.30290   2
  -4   1  11 64.8753 4.21384   3
   4   1 -11 67.5175 4.48192   1
  -4   1  11 62.9839 4.09035   2
  -4  -1  11 66.1494 4.47136   1
  -4  -1  11 62.7652 4.64667   3
  -4   1 -11 65.2428 4.26995   2
   4  -1 -11 64.9419 4.38060   1
  -4   1 -11 56.1651 4.40388   1
   4   1  11 66.4804 4.53083   1
   4   1  11 66.5946 4.24620   2
  -5   1  11 7.38423 2.17901   2
   5   1 -11 8.13974 2.47966   1
  -5   1  11 4.00608 2.19775   1
   5   1 -11 6.78647 2.27820   2
  -5  -1 -11 5.80017 2.26346   1
   5  -1  11 -1.8175 1.99630   1
  -5   1  11 6.78716 3.49404   4
  -5  -1  11 6.63258 2.42960   1
   5   1  11 3.45309 2.18034   1
  -5  -1  11 3.52178 2.22784   3
  -5   1 -11 8.04613 2.39297   2
  -5   1 -11 8.25494 2.37443   1
  -5   1 -11 6.01498 2.16578   5
   5  -1 -11 1.91618 2.21696   1
   5   1  11 1.56328 1.99202   2
  -6   1  11 25.1980 3.04401   1
   6   1 -11 24.5165 3.03260   2
  -6   1  11 30.1617 3.21061   2
   6   1 -11 27.8517 3.20247   1
   6  -1  11 26.0013 3.27745   1
  -6   1  11 29.1083 4.22184   4
  -6  -1 -11 26.7156 3.16247   1
   6   1  11 27.2952 3.14895   2
  -6   1 -11 29.7641 3.16044   5
  -6   1 -11 24.1292 2.98158   2
   6   1  11 26.7878 3.18601   1
  -6  -1  11 26.0410 3.31663   3
   6  -1 -11 23.1177 3.25373   1
  -6   1 -11 24.3820 3.17563   1
  -6  -1  11 31.0620 3.49421   1
   7   1 -11 29.5782 3.53472   1
  -7  -1 -11 26.5953 3.43324   1
  -7   1  11 34.7579 4.32088   4
  -7   1  11 29.9103 3.36898   2
   7  -1  11 35.6518 3.72018   1
  -7   1  11 30.5009 3.40599   1
  -7  -1  11 32.9750 3.78839   1
  -7   1 -11 31.2731 3.32651   5
  -7   1 -11 35.5898 3.67301   1
  -7  -1  11 30.7346 3.53501   3
   7   1  11 32.8333 3.47563   2
  -7   1 -11 30.2870 3.61440   2
   7  -1 -11 31.4810 3.72475   1
   7   1  11 24.4556 3.29048   1
   8   1 -11 14.1343 3.03086   1
  -8   1  11 11.7851 2.90538   2
  -8   1  11 10.0774 3.47844   5
  -8   1  11 7.61055 3.20324   4
   8  -1  11 15.5214 3.25258   1
  -8   1  11 14.8194 3.00610   1
  -8  -1 -11 8.22519 2.96185   1
  -8  -1  11 18.7258 3.42402   1
   8   1  11 9.33678 2.98805   1
   8   1  11 11.4783 2.88473   2
  -8   1 -11 10.1844 3.00470   1
  -8   1 -11 11.7512 2.79748   5
   9   1 -11 4.65221 2.91156   1
  -9   1  11 2.58331 3.07418   5
  -9   1  11 -0.3142 2.59606   1
   9  -1  11 1.88222 2.92379   1
  -9   1 -11 -1.2848 2.55351   5
   9   1  11 0.51880 2.74529   1
  -9  -1  11 -0.0897 2.84371   1
  -9   1 -11 2.35185 2.91869   1
  10   1 -11 3.98845 3.08916   1
  10  -1  11 4.89809 3.31932   1
 -10   1  11 7.47475 3.19577   1
 -10   1  11 5.22907 3.52081   5
  10   1  11 9.21538 3.14418   1
 -10  -1  11 7.54265 3.34840   1
 -10   1 -11 7.82270 3.29032   1
 -10   1 -11 8.02397 3.24791   5
 -11   1  11 1.33651 3.39715   5
  11   1 -11 0.86311 3.09352   1
  11  -1  11 1.27004 3.49933   1
 -11   1  11 0.81028 3.02892   1
 -11   1 -11 0.17213 3.22741   1
  11   1  11 1.62732 3.07319   1
 -11  -1  11 4.06061 3.34697   1
 -12   1  11 360.577 12.9534   1
 -12   1  11 357.296 13.7191   5
  12   1 -11 343.087 12.9795   1
 -12   1 -11 344.508 13.2841   1
  12   1  11 339.147 12.8025   1
 -12  -1  11 352.239 13.7056   5
 -12  -1  11 334.872 13.1609   1
 -13   1  11 209.410 10.5365   5
  13   1 -11 198.427 9.73986   1
 -13   1  11 184.167 9.40309   1
 -13  -1  11 187.453 10.1628   5
 -13  -1  11 206.624 10.2805   1
 -13   1 -11 206.072 10.2503   1
  13   1  11 190.418 9.57897   1
  14   1 -11 84.5409 6.80895   1
 -14   1  11 93.5476 7.55682   1
 -14   1  11 81.7596 7.04093   5
  14   1  11 83.8536 6.80017   1
 -14  -1  11 83.1087 7.08733   5
 -14  -1  11 90.2488 7.58006   1
 -14   1 -11 91.6161 7.15719   1
 -15   1  11 -0.6204 3.64889   1
 -15   1  11 2.59263 4.10761   5
  15   1 -11 0.85390 3.84121   1
 -15  -1  11 -3.7857 3.73646   5
  15   1  11 -1.1769 3.92575   1
 -15   1 -11 2.71752 4.14787   1
   0   2 -11 2.46226 1.76699   1
   0   2  11 0.98395 3.31909   4
   0   2  11 0.02263 1.62777   1
   0   2  11 1.08103 1.62339   2
   0   2 -11 0.25459 1.64897   2
   0  -2  11 1.70636 1.91418   1
   0  -2 -11 -2.6679 1.62515   3
   0   2  11 2.68765 2.14214   3
  -1   2  11 94.8493 7.45167   4
  -1   2  11 104.079 4.63071   1
   1   2 -11 99.2166 4.95844   1
   1   2 -11 103.384 4.89383   2
  -1   2  11 96.0494 4.59922   2
   1  -2  11 98.9303 5.11734   1
  -1  -2 -11 109.692 5.66195   3
  -1   2  11 114.840 5.79023   3
   1   2  11 80.6662 7.94310   4
  -1   2 -11 98.2614 4.85211   2
   1   2  11 107.566 4.68684   1
   1   2  11 99.6739 4.72563   2
  -1   2 -11 103.738 5.01995   1
   1   2  11 106.946 6.06885   3
  -1  -2  11 104.030 5.07143   1
   1  -2 -11 105.602 5.12062   3
   2   2 -11 2.32022 1.88428   2
  -2   2  11 1.52937 2.12289   3
   2  -2  11 -0.9886 1.82017   1
   2   2 -11 1.46745 1.96086   1
  -2   2  11 -1.6201 1.61986   2
  -2  -2 -11 1.61928 2.17127   3
  -2   2  11 4.20776 1.77269   1
  -2   2  11 6.38994 3.25704   4
  -2   2 -11 3.96082 1.88110   2
   2   2  11 4.91604 3.68762   4
   2   2  11 6.93875 1.92005   1
   2  -2 -11 3.57552 1.69653   3
   2   2  11 2.18238 1.80150   2
   2   2  11 3.83578 2.30043   3
  -2  -2  11 4.46926 2.19189   1
  -2   2 -11 4.04485 1.88854   1
  -3   2  11 55.3523 5.50901   4
  -3   2  11 56.3248 3.78732   1
  -3  -2 -11 61.7090 5.18606   3
   3   2 -11 56.7297 4.30336   1
  -3   2  11 57.2414 3.90347   2
   3   2 -11 62.5326 4.27728   2
  -3  -2  11 61.2959 4.44339   1
  -3   2 -11 64.5543 4.38632   1
   3   2  11 60.3681 6.55148   4
   3   2  11 54.7572 3.93731   2
  -3  -2  11 51.8991 4.48311   3
  -3   2 -11 55.3206 4.03518   2
   3   2  11 54.6598 3.96001   1
  -4   2  11 9.53402 2.10222   1
  -4   2  11 13.4237 3.69146   4
   4   2 -11 11.3977 2.48144   1
  -4   2  11 14.6316 2.39506   2
   4   2 -11 6.14846 2.22762   2
  -4   2  11 5.62194 2.43075   5
  -4   2 -11 8.26127 2.26147   1
   4   2  11 8.36564 3.83988   4
   4   2  11 11.1436 2.22834   2
  -4   2 -11 7.89848 2.47504   5
  -4   2 -11 7.58836 2.22318   2
   4   2  11 6.67488 2.19827   1
  -5   2  11 1720.07 45.1338   1
  -5   2  11 1827.81 57.8929   4
  -5   2  11 1756.44 46.0613   5
  -5   2  11 1748.13 44.7346   2
   5   2 -11 1738.06 45.5415   1
   5   2 -11 1638.53 44.9987   2
   5   2  11 1761.23 45.3269   1
  -5   2 -11 1713.53 45.5112   1
  -5   2 -11 1711.30 44.9508   2
  -5   2 -11 1702.35 45.6161   5
   5   2  11 1744.94 44.8869   2
   5   2  11 1715.37 58.7256   4
  -6   2  11 54.6182 3.92197   2
   6   2 -11 51.9083 4.25047   2
  -6   2  11 54.1958 5.32239   4
  -6   2  11 52.3764 4.41039   5
  -6   2  11 59.0660 4.37306   1
   6   2 -11 58.1528 4.26705   1
   6   2  11 46.8118 5.53556   4
  -6   2 -11 56.1743 4.51438   2
   6   2  11 54.6155 4.08754   2
  -6   2 -11 51.4199 4.04624   1
  -6   2 -11 51.3247 4.05561   5
   6   2  11 56.4062 4.56242   1
  -7   2  11 232.429 8.66177   2
  -7   2  11 227.352 9.61501   5
   7   2 -11 232.555 8.98876   2
   7   2 -11 229.518 8.89335   1
  -7   2  11 248.530 11.2339   4
  -7   2  11 218.716 8.43424   1
  -7   2 -11 227.140 8.98717   5
   7   2  11 246.770 8.76656   1
  -7   2 -11 231.737 8.92764   1
   7   2  11 234.380 8.82105   2
  -7   2 -11 243.172 8.93954   2
   7   2  11 226.281 11.4102   4
  -8   2  11 887.245 24.7318   2
  -8   2  11 893.395 24.7711   1
   8   2 -11 897.646 25.2244   2
   8   2 -11 872.630 25.1344   1
  -8   2  11 871.362 25.8852   5
  -8   2  11 931.612 31.3581   4
   8   2  11 904.786 24.9597   2
  -8   2 -11 886.378 25.1369   1
  -8   2 -11 876.513 25.0002   2
   8   2  11 890.649 24.9029   1
  -8   2 -11 872.480 25.1851   5
  -9   2  11 11.2390 3.58850   5
  -9   2  11 11.9275 3.05318   1
   9   2 -11 13.9462 3.36443   1
  -9   2  11 13.4840 3.26916   2
  -9   2 -11 20.9761 3.79537   2
   9   2  11 9.69443 3.12777   2
  -9   2 -11 11.8261 3.15937   1
  -9   2 -11 17.6658 3.43036   5
   9   2  11 12.7683 3.13652   1
  10   2 -11 14.7618 3.48154   1
 -10   2  11 18.6611 4.04964   5
 -10   2  11 17.2588 3.24944   1
 -10   2  11 22.0419 3.63956   2
  10   2  11 17.5946 3.69427   2
  10   2  11 20.3407 3.48087   1
 -10   2 -11 18.3974 3.56920   5
 -10   2 -11 21.8924 3.71766   1
 -11   2  11 12.9602 3.96347   5
 -11   2  11 9.56733 3.23871   1
  11   2 -11 10.4812 3.60566   1
  11   2  11 6.98929 3.40075   1
 -11   2 -11 8.32552 3.43595   5
 -11   2 -11 12.6411 3.50690   1
 -12   2  11 -0.3544 3.59065   5
 -12   2  11 1.04656 3.07061   1
  12   2 -11 -0.7231 3.11353   1
 -12   2 -11 0.05434 3.29872   5
  12   2  11 -5.8003 3.07830   1
 -12   2 -11 -0.8706 3.35944   1
  13   2 -11 529.018 17.5006   1
 -13   2  11 498.979 16.7449   1
 -13   2  11 516.878 18.2225   5
 -13  -2  11 493.924 17.8979   5
  13   2  11 536.080 17.2286   1
 -13   2 -11 535.257 17.4972   1
  14   2 -11 0.19019 3.70613   1
 -14   2  11 3.25876 4.14726   5
 -14   2  11 1.18220 3.36028   1
 -14  -2  11 0.94932 3.85074   5
 -14   2 -11 4.70815 3.69228   1
  14   2  11 -5.0784 3.38883   1
 -15   2  11 16.7963 5.08436   5
 -15   2  11 23.5189 4.24045   1
  15   2 -11 28.4827 5.11322   1
 -15  -2  11 16.3337 4.71806   5
 -15   2 -11 28.7985 4.84347   1
  15   2  11 25.9510 4.62058   1
   0   3 -11 109.928 5.22599   2
   0   3 -11 114.471 5.18552   1
   0   3  11 120.481 7.84776   4
   0   3  11 111.930 6.20417   3
   0   3  11 121.786 5.02456   2
  -1   3  11 366.501 10.7893   2
  -1   3  11 390.330 11.1822   5
  -1   3  11 352.983 15.3760   4
  -1  -3 -11 380.711 13.1080   3
   1   3 -11 362.253 11.0945   2
  -1   3  11 343.990 10.2375   1
   1   3 -11 358.487 10.9562   1
  -1   3 -11 369.427 11.1073   2
  -1   3 -11 354.492 10.9719   1
   1   3  11 360.992 15.5056   4
   1   3  11 357.239 13.2396   3
   1   3  11 348.335 10.7408   2
  -2   3  11 5.31257 2.21820   5
  -2  -3 -11 2.85399 2.24328   3
   2   3 -11 1.84166 1.87737   2
  -2   3  11 2.50195 1.45809   1
   2   3 -11 0.51588 1.88866   1
  -2   3  11 2.12962 1.74746   2
  -2   3  11 2.30692 3.19945   4
   2   3  11 1.26238 1.52910   1
   2   3  11 2.23702 3.02764   4
   2   3  11 2.20584 1.77795   2
  -2   3 -11 8.83500 2.10299   1
  -2   3 -11 7.22722 2.04204   2
  -3   3  11 5.17183 1.90299   2
  -3   3  11 3.21063 2.27449   5
   3   3 -11 5.40135 2.08141   1
  -3   3  11 5.55576 1.68347   1
  -3  -3 -11 7.34994 2.55416   3
   3   3 -11 5.10613 2.12908   2
  -3   3  11 10.2698 3.46903   4
  -3   3 -11 3.85355 2.04797   2
   3   3  11 7.57019 2.04779   2
   3   3  11 5.90560 1.74744   1
  -3   3 -11 5.31688 2.02751   1
   3   3  11 6.16158 3.20282   4
   4   3 -11 50.2772 3.93922   2
   4   3 -11 56.4338 4.25703   1
  -4   3  11 50.7521 4.16340   5
  -4   3  11 51.4381 5.47901   4
  -4   3  11 47.8124 3.86804   2
  -4   3  11 48.6635 3.52939   1
   4   3  11 58.7710 4.12384   2
   4   3  11 53.6181 3.57223   1
  -4   3 -11 54.4258 4.32548   5
  -4   3 -11 55.1905 4.09773   1
  -4   3 -11 57.7345 4.32536   2
   4   3  11 55.5021 5.75515   4
  -5   3  11 5.16530 3.23979   4
   5   3 -11 -0.5489 2.25415   2
   5   3 -11 3.82657 2.26343   1
  -5   3  11 5.69089 2.25609   2
  -5   3  11 7.99664 2.79522   5
  -5   3  11 3.55931 1.93244   1
  -5   3 -11 5.08740 2.19720   1
   5   3  11 3.75210 2.94106   4
   5   3  11 2.54784 2.01709   1
  -5   3 -11 8.41775 2.38730   2
  -5   3 -11 6.81349 2.73776   5
   5   3  11 5.04439 2.11260   2
   6   3 -11 15.5537 2.88226   2
  -6   3  11 16.5846 3.87878   4
   6   3 -11 11.4928 2.69661   1
  -6   3  11 14.6557 2.43877   1
  -6   3  11 7.83703 2.48495   2
  -6   3  11 11.0130 3.14092   5
  -6   3 -11 16.0368 2.71469   1
   6   3  11 16.7600 3.62579   4
  -6   3 -11 16.5488 2.88784   2
  -6   3 -11 11.1645 3.02886   5
   6   3  11 13.9065 2.51640   1
   6   3  11 10.5776 2.61192   2
  -7   3  11 25.8476 3.31126   2
   7   3 -11 27.1386 3.25407   1
  -7   3  11 24.9353 3.84822   5
   7   3 -11 24.4303 3.43583   2
  -7   3  11 24.8720 4.40457   4
  -7   3  11 31.8331 2.94937   1
  -7   3 -11 29.0805 3.24317   1
  -7   3 -11 24.1511 3.71435   5
   7   3  11 31.5758 3.20872   1
  -7   3 -11 27.8906 3.52376   2
   7   3  11 31.9134 3.42407   2
   8   3 -11 14.7784 3.24344   2
  -8   3  11 5.01940 2.43926   1
  -8   3  11 11.5602 3.64745   5
  -8   3  11 13.9660 3.05021   2
   8   3 -11 7.68895 2.75568   1
  -8   3  11 10.9745 3.61890   4
  -8   3 -11 11.5973 2.87953   1
   8   3  11 9.32127 2.83898   2
  -8   3 -11 13.0072 3.01797   2
   8   3  11 10.6159 2.72692   1
  -8   3 -11 9.89689 3.29971   5
  -9   3  11 3.92369 2.69091   1
   9   3 -11 4.91187 2.79057   1
  -9   3  11 1.99934 2.87764   2
   9   3 -11 -1.0803 2.86981   2
  -9   3  11 3.32896 3.51940   5
  -9   3 -11 10.3429 2.95450   1
   9   3  11 8.56839 2.79753   2
  -9   3 -11 4.35490 2.96464   2
   9   3  11 5.81414 2.79370   1
  -9   3 -11 6.07496 3.25533   5
  10   3 -11 5.81142 3.07143   2
 -10   3  11 4.89305 2.83378   1
  10   3 -11 3.05891 3.22210   2
 -10   3  11 2.37723 2.97484   2
  10   3 -11 3.18553 3.05844   1
 -10   3  11 7.71811 3.96444   5
 -10   3 -11 2.59203 3.19548   2
  10   3  11 2.24254 2.80756   1
 -10   3 -11 5.10696 3.02323   1
  10   3  11 5.98780 3.11152   2
 -10   3 -11 6.93795 3.45452   5
 -11   3  11 -0.2823 2.85979   1
 -11   3  11 -3.5012 3.59169   5
  11   3 -11 -3.3316 2.89301   1
 -11   3  11 4.04587 3.31718   2
 -11   3 -11 2.74945 3.42861   5
  11   3  11 0.82287 3.05378   2
  11   3  11 3.24525 3.00720   1
 -11   3 -11 0.72522 2.96526   1
 -12   3  11 313.344 11.2148   1
 -12   3  11 312.603 12.0872   2
 -12   3  11 291.157 13.1306   5
  12   3 -11 305.330 11.9070   1
  12   3  11 330.598 11.6306   1
 -12   3 -11 317.269 12.0135   1
 -12   3 -11 314.493 12.5794   5
 -13   3  11 152.492 7.81344   1
 -13   3  11 156.258 9.86999   5
  13   3 -11 174.151 8.75070   1
 -13   3 -11 162.502 9.36599   5
  13   3  11 150.633 8.30613   1
 -13   3 -11 155.102 8.43254   1
 -14   3  11 59.2519 5.18955   1
  14   3 -11 69.2495 6.08055   1
 -14   3  11 67.5846 6.55785   5
 -14   3 -11 67.8353 6.41611   5
  14   3  11 62.1957 5.57310   1
 -14  -3  11 68.1769 6.72780   5
 -14   3 -11 65.7783 5.74552   1
   0   4 -11 -0.1849 1.70692   2
   0   4  11 1.06694 2.94887   4
   0   4 -11 0.13258 1.39471   1
   0   4  11 2.47454 1.71393   2
  -1   4  11 120.054 8.04052   4
   1   4 -11 124.711 5.45107   2
  -1   4  11 111.702 4.89937   2
   1   4 -11 111.438 4.57314   1
  -1   4 -11 113.864 4.47613   1
   1   4  11 117.915 8.07370   4
   1   4  11 100.550 4.83530   2
  -1   4 -11 110.389 5.29780   2
  -2   4  11 419.265 17.5590   4
   2   4 -11 432.090 12.8360   2
   2   4 -11 420.206 12.0296   1
  -2   4  11 424.412 12.3133   2
   2   4  11 421.449 17.6769   4
  -2   4 -11 422.984 12.6945   2
   2   4  11 435.457 12.3857   2
  -2   4 -11 408.874 11.9093   1
   3   4 -11 208.910 7.86517   2
  -3   4  11 189.425 10.6680   4
  -3   4  11 214.717 7.26670   2
   3   4 -11 206.046 6.92743   1
  -3   4  11 225.253 8.28581   5
   3   4  11 207.274 7.37429   2
  -3   4 -11 200.927 6.81343   1
   3   4  11 206.078 10.9055   4
  -3   4 -11 208.579 7.69342   2
   4   4 -11 137.298 5.64626   1
  -4   4  11 147.385 8.89399   4
   4   4 -11 146.123 6.48102   2
  -4   4  11 139.972 5.88651   2
  -4   4  11 152.053 6.83291   5
   4   4  11 136.420 5.98235   2
  -4   4 -11 149.741 7.33975   5
  -4   4 -11 137.728 6.32085   2
   4   4  11 138.215 8.78406   4
  -4   4 -11 137.394 5.49686   1
  -5   4  11 164.409 6.57444   2
  -5   4  11 156.107 9.32017   4
   5   4 -11 161.198 6.20702   1
   5   4 -11 146.807 7.04476   2
  -5   4  11 175.512 7.65861   5
  -5   4 -11 159.438 6.92763   2
  -5   4 -11 144.453 7.72559   5
   5   4  11 157.352 9.18297   4
   5   4  11 149.234 6.60500   2
   6   4 -11 8.69695 2.34529   1
  -6   4  11 19.0643 4.27272   4
  -6   4  11 9.86423 2.49453   2
  -6   4  11 7.52015 3.09548   5
   6   4 -11 15.8937 3.06341   2
   6   4  11 7.52000 3.32612   4
   6   4  11 12.7569 2.67809   2
  -6   4 -11 9.72536 3.19826   5
  -6   4 -11 12.9991 2.93906   2
  -6   4 -11 14.7198 2.41270   1
   7   4 -11 470.051 14.0801   1
  -7   4  11 468.686 19.0669   4
  -7   4  11 480.820 15.7029   5
  -7   4  11 457.603 14.2779   2
   7   4 -11 471.355 15.0178   2
  -7   4 -11 467.931 13.9513   1
   7   4  11 458.360 14.4813   2
  -7   4 -11 468.400 14.7057   2
  -7   4 -11 465.452 15.5839   5
  -8   4  11 147.047 9.18370   4
  -8   4  11 136.474 7.89703   5
   8   4 -11 118.210 6.20063   1
  -8   4  11 125.505 6.65631   2
   8   4 -11 124.500 7.18529   2
   8   4  11 127.585 5.37225   1
  -8   4 -11 127.532 6.35233   1
   8   4  11 130.124 6.84501   2
  -8   4 -11 136.736 7.91564   5
  -8   4 -11 121.428 6.89945   2
   9   4 -11 84.0401 6.53098   2
  -9   4  11 75.6719 7.51436   4
  -9   4  11 81.5869 6.01409   2
   9   4 -11 78.9226 5.47123   1
  -9   4  11 81.5056 4.78208   1
  -9   4  11 88.7738 7.22306   5
   9   4  11 81.2348 6.12865   2
   9   4  11 78.7911 4.73144   1
  -9   4 -11 78.9956 6.19776   5
  -9   4 -11 83.7405 5.69246   1
  -9   4 -11 84.9901 6.13969   2
  10   4 -11 197.294 8.29991   1
  10   4 -11 192.064 9.37915   2
 -10   4  11 180.993 9.89915   5
  10   4 -11 205.285 9.37382   2
 -10   4  11 192.697 7.53295   1
 -10   4  11 204.033 8.82780   2
 -10   4 -11 184.549 9.78108   5
 -10   4 -11 183.216 8.98252   2
  10   4  11 201.568 8.93495   2
  10   4  11 195.393 7.53769   1
 -10   4 -11 202.232 8.54760   1
 -11   4  11 34.9375 5.29784   5
 -11   4  11 39.2482 4.59896   2
  11   4 -11 32.2849 4.56029   2
 -11   4  11 40.4603 3.78399   1
  11   4 -11 40.7013 4.24094   1
 -11   4 -11 43.9514 4.28657   1
 -11   4 -11 44.9504 4.97730   2
 -11   4 -11 42.3040 5.26310   5
  11   4  11 41.3004 4.65243   2
  11   4  11 42.0685 3.92197   1
 -12   4  11 0.04714 2.65177   1
 -12   4  11 2.28964 3.28555   2
 -12   4  11 -3.4484 3.86746   5
  12   4 -11 2.23036 3.11755   1
  12   4  11 -3.6824 3.06800   2
 -12   4 -11 0.13227 3.81613   5
 -12   4 -11 -0.5088 2.99763   1
  12   4  11 0.98062 2.96401   1
  13   4 -11 58.0985 5.19349   1
 -13   4  11 50.5442 5.56035   2
 -13   4  11 51.5550 4.51399   1
 -13   4  11 54.2374 6.04056   5
 -13   4 -11 69.3525 5.53513   1
  13   4  11 61.6435 4.97250   1
 -13   4 -11 56.7953 6.17966   5
   0   5  11 80.7894 7.36627   4
   0   5  11 83.6631 4.31231   2
   0   5 -11 79.6628 4.66250   2
  -1   5  11 168.273 6.33756   2
  -1   5  11 183.118 10.3305   4
   1   5 -11 172.949 6.90631   2
  -1   5 -11 183.993 6.89100   2
   1   5  11 154.094 9.97701   4
   1   5  11 178.351 6.36176   2
   2   5 -11 3.98254 2.05350   2
  -2   5  11 1.23252 3.36211   4
  -2   5  11 2.49987 1.84461   2
  -2   5 -11 3.88118 2.10481   2
   2   5  11 2.22510 3.18249   4
   2   5  11 3.04336 1.85046   2
   3   5 -11 2.20098 2.16236   2
  -3   5  11 11.0753 3.87781   4
  -3   5  11 2.74394 2.05889   2
   3   5  11 4.08966 2.10695   2
   3   5  11 2.10694 3.18202   4
  -3   5 -11 4.80091 2.19627   2
  -4   5  11 23.9751 4.75861   4
  -4   5  11 21.5864 2.81665   2
   4   5 -11 28.2394 3.21200   2
  -4   5 -11 22.1246 3.78033   5
  -4   5 -11 24.2397 3.08374   2
   4   5  11 28.6292 4.93687   4
   4   5  11 23.0094 2.75444   2
  -5   5  11 1.00154 3.47846   4
   5   5 -11 2.37068 2.39002   2
  -5   5  11 2.54104 2.18694   2
  -5   5 -11 1.28217 2.39436   2
  -5   5 -11 2.49589 3.10768   5
   5   5  11 -3.0121 3.03770   4
   5   5  11 0.36636 2.11899   2
  -6   5  11 20.2378 2.99261   2
  -6   5  11 21.6932 3.70920   5
  -6   5  11 22.6233 4.75746   4
   6   5 -11 17.6332 3.15051   2
  -6   5 -11 27.4890 4.19003   5
   6   5  11 16.5940 4.08119   4
  -6   5 -11 16.7142 3.15391   2
   6   5  11 22.8984 3.12763   2
  -7   5  11 17.3708 3.80830   5
   7   5 -11 12.6352 3.07550   2
  -7   5  11 7.48135 2.75479   2
  -7   5  11 15.3763 4.46321   4
  -7   5 -11 17.4904 3.85074   5
  -7   5 -11 10.8597 3.03219   2
   7   5  11 9.41102 2.83482   2
  -8   5  11 6.60597 3.87542   4
  -8   5  11 5.02766 2.86464   2
  -8   5  11 2.93892 3.63864   5
   8   5 -11 4.03466 3.05525   2
   8   5  11 7.53789 2.95553   2
  -8   5 -11 5.87879 2.98858   2
  -8   5 -11 11.2262 3.63639   5
   9   5 -11 -2.7973 2.82469   2
  -9   5  11 4.56508 3.80045   5
  -9   5  11 0.07089 3.78474   4
  -9   5  11 -1.6434 2.67721   2
  -9   5 -11 0.12066 3.67767   5
   9   5  11 -1.8685 2.65252   2
  -9   5 -11 2.39989 2.99831   2
 -10   5  11 3.89553 3.09159   2
  10   5 -11 8.32981 3.32561   2
  10   5 -11 4.89475 3.34530   2
 -10   5  11 4.93078 4.18484   5
  10   5 -11 -0.2226 2.34850   1
 -10   5 -11 3.66428 3.02232   2
  10   5  11 3.12304 3.05143   2
 -10   5 -11 8.20854 4.09138   5
  11   5 -11 1.13755 2.72468   1
  11   5 -11 0.63761 3.01016   2
 -11   5  11 -3.8410 2.99374   2
 -11   5  11 -5.7511 3.83283   5
 -11   5 -11 1.30541 3.17857   2
  11   5  11 5.07263 3.28052   2
 -11   5 -11 0.38152 3.93158   5
  12   5 -11 191.161 8.03749   1
 -12   5  11 186.318 11.0664   5
  12   5 -11 207.123 10.0608   2
 -12   5  11 210.646 9.44347   2
 -12   5 -11 187.901 10.9421   5
  12   5  11 211.939 9.84229   2
 -12   5 -11 208.082 9.89694   2
   0   6  11 0.31763 3.54692   4
   0   6  11 -3.2991 1.76946   2
   0   6 -11 -5.0523 1.71373   2
   1   6 -11 34.5523 3.34228   2
  -1   6  11 40.9100 5.98053   4
  -1   6  11 41.7996 3.10323   2
   1   6  11 41.8183 5.93596   4
  -1   6 -11 35.6756 3.27952   2
   1   6  11 38.4666 2.98215   2
   2   6 -11 3.35763 2.04171   2
  -2   6  11 5.69176 2.04907   2
  -2   6  11 2.69733 3.73322   4
  -2   6 -11 -1.3772 1.92862   2
   2   6  11 1.38086 1.99933   2
   2   6  11 -0.5822 3.26931   4
   3   6 -11 20.6992 2.86114   2
  -3   6  11 22.4121 2.61410   2
  -3   6  11 13.1478 4.46561   4
  -3   6 -11 18.1048 2.68404   2
   3   6  11 17.3035 2.66487   2
   3   6  11 16.8694 4.36945   4
   4   6 -11 7.19208 2.45345   2
  -4   6  11 7.65219 4.20148   4
  -4   6  11 5.89408 2.25116   2
   4   6  11 0.50631 3.44572   4
  -4   6 -11 7.10759 2.59684   2
   4   6  11 3.51267 2.16421   2
   5   6 -11 646.322 19.3053   2
  -5   6  11 623.465 18.4884   2
  -5   6  11 649.552 25.9558   4
  -5   6 -11 667.843 20.8565   5
  -5   6 -11 671.427 19.0727   2
   5   6  11 666.294 18.7118   2
   5   6  11 668.052 25.7262   4
  -6   6  11 17.1067 4.66960   4
  -6   6  11 24.1487 3.10248   2
   6   6 -11 21.9104 3.42019   2
   6   6  11 25.1102 3.21183   2
  -6   6 -11 21.2283 3.35004   2
  -6   6 -11 27.0534 4.55641   5
  -7   6  11 110.819 9.30844   4
  -7   6  11 115.700 6.15290   2
   7   6 -11 117.938 6.79179   2
  -7   6 -11 106.973 7.91959   5
   7   6  11 109.748 6.32777   2
  -7   6 -11 122.679 6.70786   2
  -8   6  11 396.757 18.2424   4
   8   6 -11 384.329 13.8220   2
  -8   6  11 406.063 13.0479   2
  -8   6 -11 423.012 15.3685   5
   8   6  11 404.333 13.3881   2
  -8   6 -11 408.445 13.6730   2
   9   6 -11 4.99745 3.18958   2
  -9   6  11 14.3726 4.65233   5
  -9   6  11 11.2675 3.26272   2
   9   6 -11 9.02328 3.21312   2
  -9   6  11 4.95992 4.36880   4
  -9   6 -11 5.07531 3.15993   2
   9   6  11 7.93250 3.20830   2
  -9   6 -11 6.41842 3.75002   5
 -10   6  11 5.01793 4.40756   5
  10   6 -11 13.2496 3.67154   2
  10   6 -11 4.01216 3.20991   2
 -10   6  11 1.39057 2.99959   2
  10   6  11 9.11788 3.57715   2
 -10   6 -11 11.4109 3.54111   2
 -10   6 -11 5.94978 4.14707   5
   0   7 -11 40.7060 3.44899   2
   0   7  11 36.6634 6.09133   4
   0   7  11 41.9156 3.09275   2
  -1   7  11 148.897 5.96930   2
   1   7 -11 146.956 6.62395   2
  -1   7  11 152.043 10.6470   4
   1   7  11 154.461 10.6772   4
  -1   7 -11 150.801 6.50055   2
   1   7  11 148.660 5.97093   2
  -2   7  11 -0.9558 1.97139   2
   2   7 -11 6.84764 2.22762   2
  -2   7  11 -2.2756 3.51756   4
   2   7  11 4.49780 2.13560   2
  -2   7 -11 2.20300 2.05489   2
   2   7  11 -0.7443 3.69419   4
  -3   7  11 3.57163 2.12286   2
  -3   7  11 5.38550 4.12770   4
   3   7 -11 1.80983 2.33142   2
   3   7  11 -1.1168 2.16795   2
  -3   7 -11 2.90967 2.14002   2
   3   7  11 5.25399 3.91488   4
  -4   7  11 17.2400 5.07514   4
   4   7 -11 19.6088 2.99956   2
  -4   7  11 22.2146 2.76777   2
  -4   7 -11 21.3543 3.09896   2
   4   7  11 16.4984 4.96156   4
   4   7  11 25.9344 3.09661   2
  -5   7  11 0.32199 3.95069   4
   5   7 -11 5.24744 2.54472   2
  -5   7  11 3.18422 2.42089   2
  -5   7 -11 -2.5556 2.13142   2
   5   7  11 -1.7844 2.28741   2
  -6   7  11 -2.1930 2.39159   2
   6   7 -11 -1.7212 2.33888   2
   6   7  11 4.86918 2.56956   2
  -6   7 -11 1.83042 2.57730   2
  -7   7  11 15.1873 2.96680   2
   7   7 -11 7.97447 3.19750   2
  -7   7 -11 13.6577 3.29267   2
  -7   7 -11 8.89710 4.13129   5
   7   7  11 13.0159 2.89425   2
   0   0  12 523.028 17.5858   3
   0   0 -12 516.332 14.9627   1
   0   0  12 512.463 14.8942   1
   0   0 -12 503.319 14.6308   2
   0   0  12 507.450 14.7376   2
  -1   0 -12 1590.75 42.5221   1
   1   0  12 1601.00 49.8452   3
  -1   0 -12 1604.26 41.9009   2
  -1   0  12 1667.30 49.6174   3
  -1   0 -12 1643.92 49.7765   3
   1   0  12 1646.00 41.9641   2
   1   0 -12 1629.50 42.5254   1
   1   0  12 1615.75 42.5317   1
   1   0 -12 1637.65 41.8866   2
  -1   0  12 1597.81 41.8809   2
  -1   0  12 1618.50 42.5198   1
  -2   0 -12 135.582 7.18281   3
  -2   0  12 150.061 6.13742   1
   2   0  12 138.374 6.03625   2
  -2   0 -12 141.688 6.01251   2
  -2   0  12 151.435 5.97451   2
  -2   0  12 153.442 7.13969   3
   2   0  12 133.959 6.13843   1
   2   0 -12 133.680 6.16789   1
  -2   0 -12 150.180 6.20516   1
   2   0 -12 145.813 5.99897   2
  -3   0  12 153.707 6.37959   1
  -3   0  12 138.821 6.07941   2
   3   0 -12 162.286 6.44168   1
   3   0  12 152.378 6.33517   2
  -3   0  12 158.986 7.21422   3
   3   0  12 145.050 6.38056   1
  -3   0 -12 148.998 6.49698   1
  -3   0 -12 145.765 7.69636   3
   4   0 -12 206.673 7.88866   1
  -4   0  12 208.686 7.68722   2
  -4   0 -12 206.753 8.00723   1
   4   0  12 222.130 8.06132   2
  -4   0  12 215.286 8.37691   3
   4   0  12 200.869 7.90217   1
  -4   0  12 210.219 7.93613   1
  -4   0  12 226.250 8.97394   3
  -5   0  12 36.7168 3.44658   2
  -5   0  12 46.3407 3.94759   3
   5   0  12 42.9805 3.75739   1
  -5   0 -12 50.1420 4.05348   1
  -5   0  12 47.2486 4.06662   3
   5   0 -12 46.5082 3.91464   1
  -5   0  12 40.4172 3.75847   1
   6   0 -12 17.1053 3.06337   1
  -6   0 -12 12.5197 2.78026   1
  -6   0  12 10.5815 2.87462   1
   6   0  12 21.4466 3.01564   1
   7   0 -12 374.105 12.1023   1
  -7   0 -12 336.671 11.8674   1
   7   0  12 352.194 11.9845   1
  -7   0  12 366.346 12.0986   1
  -8   0 -12 714.020 21.7858   1
   8   0  12 739.625 21.7874   1
  -8   0  12 777.834 21.8794   1
   8   0 -12 757.071 21.8151   1
  -9   0 -12 1160.88 32.2591   1
   9   0  12 1104.59 31.9912   1
   9   0 -12 1185.66 32.2112   1
  -9   0  12 1156.12 32.0296   1
 -10   0  12 5.36096 3.33115   1
  10   0  12 3.80801 3.13651   1
 -10   0 -12 2.08116 3.22475   1
  10   0 -12 -0.3794 3.03314   1
  11   0 -12 28.0983 4.35972   1
  11   0  12 39.7496 4.75829   1
 -11   0  12 30.8519 4.47291   1
 -11   0 -12 38.9625 4.88900   1
 -11   0  12 36.6018 5.13593   5
 -12   0 -12 120.059 8.51925   1
  12   0  12 116.857 7.75954   1
 -12   0  12 124.219 8.65296   5
  12   0 -12 128.625 7.96548   1
 -12   0  12 116.409 8.01621   1
 -13   0  12 8.03203 4.17083   5
  13   0  12 -4.1341 3.55108   1
  13   0 -12 0.80574 3.67042   1
 -13   0  12 4.84606 3.68882   1
 -13   0 -12 8.60030 4.20309   1
 -14   0 -12 144.928 9.83466   1
 -14   0  12 137.951 9.31271   5
 -14   0  12 140.332 9.00548   1
  14   0 -12 144.654 8.97896   1
  14   0  12 137.083 8.82081   1
 -15   0 -12 16.9861 5.03101   1
  15   0  12 13.8277 4.58715   1
 -15   0  12 8.80569 4.44713   5
 -15   0  12 22.7486 4.85867   1
   0   1 -12 0.13520 1.80827   2
   0   1  12 3.26702 1.95736   1
   0  -1 -12 -1.4816 1.89825   1
   0  -1 -12 -0.0583 2.04067   3
   0   1  12 -2.6785 1.80970   2
   0   1 -12 -4.5963 1.76147   1
   0   1  12 0.96508 2.09372   3
   0  -1  12 -0.5124 1.92008   1
  -1  -1 -12 261.617 10.3251   3
  -1   1  12 263.656 10.1155   3
  -1   1  12 258.241 8.55904   2
   1  -1  12 260.256 8.89896   1
   1   1 -12 250.290 8.59752   2
  -1   1  12 256.727 8.69349   1
  -1  -1 -12 271.745 8.85646   1
  -1  -1  12 267.444 8.88628   1
   1   1  12 244.350 8.68731   1
   1   1  12 260.897 10.3671   3
  -1   1 -12 254.453 8.83038   1
  -1   1 -12 258.455 8.72646   2
   1   1  12 272.640 8.72665   2
   1  -1 -12 270.904 8.91137   1
   2   1 -12 683.974 18.9583   2
  -2  -1 -12 657.433 22.4587   3
  -2   1  12 663.858 18.7985   2
   2  -1  12 694.340 19.3064   1
   2   1 -12 671.772 19.2070   1
  -2  -1 -12 674.339 19.1444   1
  -2   1  12 680.730 19.0697   1
  -2   1  12 684.916 21.8798   3
  -2   1 -12 656.274 19.2241   1
   2   1  12 649.565 22.7132   3
  -2  -1  12 699.511 19.2504   1
   2   1  12 710.938 18.9772   2
   2  -1 -12 720.451 19.3013   1
   2   1  12 690.364 19.1584   1
  -2   1 -12 673.426 18.9430   2
  -3   1  12 12.3931 2.31838   2
  -3   1  12 10.0042 2.38360   1
  -3  -1 -12 13.9483 2.88327   3
   3  -1  12 8.39058 2.35417   1
   3   1 -12 14.8477 2.50654   1
   3   1 -12 11.2070 2.32615   2
  -3   1  12 15.7889 2.59785   3
  -3  -1 -12 12.9921 2.47728   1
   3   1  12 8.64607 2.38773   1
  -3  -1  12 11.1034 2.50192   1
   3   1  12 12.2006 2.48471   2
   3  -1 -12 11.6986 2.44032   1
  -3   1 -12 10.6310 2.46068   1
  -3   1 -12 13.0994 2.43515   2
  -4   1  12 961.921 25.6458   2
  -4  -1 -12 941.938 26.0213   1
   4  -1  12 911.397 26.1130   1
   4   1 -12 978.883 25.9083   2
  -4   1  12 966.543 25.9756   1
   4   1 -12 958.526 26.1510   1
  -4  -1  12 968.892 26.2198   1
  -4   1 -12 918.260 25.7018   2
   4   1  12 961.210 26.1170   1
   4   1  12 929.699 25.7062   2
  -4   1 -12 930.809 26.1605   1
   4  -1 -12 996.901 26.1861   1
  -4  -1  12 943.246 30.0840   3
   5  -1  12 74.4358 5.04442   1
   5   1 -12 71.8248 5.13093   1
   5   1 -12 75.3102 4.89552   2
  -5   1  12 76.4537 4.64355   2
  -5  -1 -12 59.5719 4.85242   1
  -5   1  12 85.6981 7.57196   4
  -5   1  12 70.6948 4.79132   1
  -5   1 -12 66.2696 4.78791   2
   5   1  12 72.7609 5.00631   1
  -5  -1  12 68.5171 5.05639   3
  -5  -1  12 71.9257 5.06077   1
   5   1  12 77.5106 4.92867   2
  -5   1 -12 60.5130 4.96583   1
   5  -1 -12 71.1597 4.86288   1
  -6   1  12 26.6031 3.26169   1
  -6  -1 -12 28.8852 3.40960   1
  -6   1  12 35.3300 3.47736   2
  -6   1  12 33.5260 4.77113   4
   6  -1  12 32.0682 3.60756   1
   6   1 -12 30.2515 3.52388   1
  -6  -1  12 36.6614 3.70836   1
  -6   1 -12 22.9334 3.22959   2
  -6   1 -12 23.8105 3.09410   5
   6   1  12 35.3020 3.54174   1
  -6  -1  12 27.6531 3.49936   3
  -6   1 -12 35.8088 3.71333   1
   6  -1 -12 29.2734 3.41857   1
   6   1  12 33.9367 3.52655   2
  -7   1  12 51.4819 4.20755   2
   7  -1  12 55.0267 4.66852   1
  -7  -1 -12 51.1898 4.48363   1
   7   1 -12 58.6186 4.64489   1
  -7   1  12 55.2290 4.28147   1
  -7   1  12 72.8290 6.30404   4
   7   1  12 54.5550 4.47725   2
  -7   1 -12 61.2478 4.66122   1
  -7   1 -12 55.4148 4.19163   5
  -7  -1  12 62.8607 4.86542   1
   7   1  12 52.7550 4.40699   1
  -7  -1  12 59.7500 5.06431   3
   8   1 -12 18.5267 3.50161   1
  -8   1  12 18.0141 3.78203   5
  -8   1  12 18.1573 3.21813   1
  -8   1  12 28.3174 3.64201   2
  -8   1  12 34.2256 4.66282   4
   8  -1  12 27.8676 3.84762   1
  -8   1 -12 22.1284 3.60417   1
  -8   1 -12 23.4920 3.29571   5
   8   1  12 20.9137 3.41571   1
  -8  -1  12 24.5402 3.84178   1
  -9   1  12 178.674 8.31305   1
  -9   1  12 182.072 9.24648   5
   9   1 -12 194.430 8.52714   1
   9  -1  12 180.870 8.58825   1
  -9   1 -12 172.346 7.88409   5
   9   1  12 197.554 8.44286   1
  -9  -1  12 187.549 8.65446   1
  -9   1 -12 176.331 8.58068   1
 -10   1  12 18.5033 4.10434   5
  10   1 -12 15.5187 3.58545   1
 -10   1  12 10.3669 3.45111   1
  10  -1  12 18.2485 4.01194   1
  10   1  12 10.5725 3.45231   1
 -10   1 -12 13.2152 3.53341   1
 -10  -1  12 15.4291 3.86817   1
  11   1 -12 2.28375 3.20248   1
 -11   1  12 4.95269 3.72562   5
 -11   1  12 3.58697 3.12015   1
  11  -1  12 3.39497 3.59814   1
  11   1  12 3.51569 3.34998   1
 -11   1 -12 1.97386 3.51837   1
 -11  -1  12 -1.1699 3.26236   1
 -12   1  12 3.66129 3.51738   1
 -12   1  12 4.41515 3.86705   5
  12   1 -12 2.39032 3.39687   1
 -12  -1  12 7.15586 3.85105   1
 -12   1 -12 7.74138 3.93151   1
  12   1  12 4.03763 3.56780   1
 -12  -1  12 1.03404 3.72260   5
  13   1 -12 29.1550 4.62863   1
 -13   1  12 26.1511 4.39379   1
 -13   1  12 36.4240 5.22989   5
  13   1  12 36.2827 4.92328   1
 -13   1 -12 27.3489 4.78631   1
 -13  -1  12 27.4013 5.13410   1
 -13  -1  12 34.3648 5.17070   5
  14   1 -12 25.8319 4.71699   1
 -14   1  12 34.2773 4.75579   1
 -14   1  12 27.4673 5.17729   5
 -14  -1  12 24.0177 5.06939   1
 -14   1 -12 33.9571 5.30443   1
  14   1  12 26.5925 4.86095   1
 -14  -1  12 26.2502 5.15585   5
 -15   1  12 0.52901 3.84417   1
 -15   1  12 -1.1050 4.17107   5
  15   1 -12 1.55775 3.88769   1
 -15  -1  12 2.98036 4.01424   5
  15   1  12 2.80297 4.11587   1
 -15   1 -12 1.29893 4.28531   1
   0   2 -12 1593.93 42.2294   1
   0   2  12 1628.64 41.4717   2
   0  -2  12 1656.16 42.5979   1
   0   2  12 1593.26 41.8281   1
   0   2 -12 1606.31 41.6510   2
   0  -2 -12 1683.93 48.8971   3
   0   2  12 1480.89 55.0826   4
   0   2  12 1623.38 49.3156   3
  -1   2  12 166.479 6.30659   1
  -1   2  12 164.492 6.34202   2
   1   2 -12 159.045 6.66569   1
   1   2 -12 176.382 6.61551   2
  -1  -2 -12 172.031 7.67317   3
  -1   2  12 174.220 7.84716   3
  -1   2  12 152.867 9.93281   4
   1  -2 -12 170.672 7.01572   3
   1   2  12 162.443 6.42778   2
  -1   2 -12 177.165 6.71165   2
   1   2  12 169.889 6.37331   1
   1   2  12 173.482 8.05361   3
  -1  -2  12 172.311 6.99782   1
  -1   2 -12 172.149 6.78388   1
   1   2  12 148.126 10.5862   4
  -2  -2 -12 25.3605 3.20464   3
  -2   2  12 30.5306 2.74889   1
   2   2 -12 22.6461 2.93196   1
   2   2 -12 25.8140 2.97521   2
  -2   2  12 22.8662 2.66396   2
  -2   2  12 24.4451 4.43265   4
   2   2  12 24.0707 2.72812   2
   2   2  12 23.0567 5.52343   4
  -2   2 -12 19.7720 2.70609   2
  -2   2 -12 23.6405 2.77887   1
   2   2  12 25.8540 2.70130   1
  -3   2  12 39.9634 3.28945   2
   3   2 -12 41.2132 3.53294   1
  -3   2  12 46.9714 3.64688   1
   3   2 -12 38.4999 3.42272   2
  -3  -2 -12 40.1299 4.06940   3
  -3   2  12 44.6132 5.34932   4
  -3   2 -12 41.4865 3.52442   1
   3   2  12 43.3343 3.23837   1
  -3   2 -12 41.1568 3.46765   2
   3   2  12 51.0688 7.03394   4
   3   2  12 43.4596 3.40431   2
   4   2 -12 344.872 11.2123   2
  -4   2  12 348.415 10.8864   2
   4   2 -12 351.266 11.3271   1
  -4   2  12 352.996 15.0112   4
  -4   2  12 347.121 10.8553   1
  -4   2  12 341.603 11.6558   5
  -4   2 -12 365.257 11.4213   1
  -4   2 -12 336.396 11.0539   2
   4   2  12 349.556 10.9741   1
   4   2  12 321.608 16.4878   4
   4   2  12 340.943 10.9716   2
  -5   2  12 28.2717 3.62916   5
   5   2 -12 30.5491 3.27801   2
  -5   2  12 39.7035 5.08738   4
  -5   2  12 29.4578 2.99708   1
   5   2 -12 34.0407 3.48056   1
  -5   2  12 28.2718 3.10180   2
  -5   2 -12 28.5336 3.19709   1
   5   2  12 26.6447 5.42567   4
   5   2  12 30.4138 3.25078   1
   5   2  12 31.9615 3.30739   2
  -5   2 -12 29.3498 3.37805   5
  -5   2 -12 31.2526 3.33800   2
  -6   2  12 66.5660 4.96849   5
  -6   2  12 57.1396 4.48883   1
  -6   2  12 66.6137 5.96445   4
   6   2 -12 63.4998 5.08685   2
   6   2 -12 53.4540 4.33074   1
  -6   2  12 57.7147 4.65862   2
   6   2  12 58.9058 6.41081   4
  -6   2 -12 53.4307 4.40742   5
   6   2  12 52.2112 4.22815   2
  -6   2 -12 53.8384 4.31417   2
  -6   2 -12 56.8973 4.39646   1
   6   2  12 66.4337 4.90051   1
  -7   2  12 5.65823 3.20473   5
   7   2 -12 7.98310 2.86343   1
  -7   2  12 5.37484 2.52375   1
  -7   2  12 6.65392 3.60699   4
   7   2 -12 6.10730 2.74514   2
  -7   2  12 9.18078 2.72415   2
  -7   2 -12 6.93179 2.64378   1
   7   2  12 9.67043 2.81411   1
   7   2  12 0.53748 3.18537   4
  -7   2 -12 9.71921 2.86029   2
   7   2  12 4.36345 2.64559   2
  -7   2 -12 12.5040 2.99899   5
  -8   2  12 829.468 28.5825   4
   8   2 -12 781.212 22.9340   1
  -8   2  12 775.076 22.4686   2
  -8   2  12 778.229 22.4644   1
  -8   2  12 813.539 23.7384   5
   8   2  12 797.267 22.7390   2
   8   2  12 805.213 22.6868   1
  -8   2 -12 776.862 22.7873   2
  -8   2 -12 758.743 22.8119   1
  -8   2 -12 801.003 22.9529   5
   9   2 -12 419.493 13.9333   1
  -9   2  12 422.437 13.7022   2
  -9   2  12 414.948 13.5574   1
  -9   2  12 407.175 14.7257   5
  -9   2 -12 423.150 13.9973   1
   9   2  12 420.772 13.6770   1
   9   2  12 407.280 13.8429   2
  -9   2 -12 407.807 13.9075   5
  10   2 -12 130.332 7.62711   1
 -10   2  12 134.639 7.35866   2
 -10   2  12 131.409 8.49193   5
 -10   2  12 130.354 7.26004   1
 -10   2 -12 139.570 7.62018   5
  10   2  12 132.849 7.32651   1
 -10   2 -12 129.318 7.65072   1
  11   2 -12 14.1883 3.81059   1
 -11   2  12 9.62313 4.03308   5
 -11   2  12 6.92133 3.19490   1
 -11   2 -12 16.8478 3.94673   5
  11   2  12 19.2852 3.81505   1
 -11   2 -12 18.9377 3.81219   1
 -12   2  12 15.1252 3.72347   1
 -12   2  12 18.6350 4.54925   5
  12   2 -12 20.8234 4.17688   1
  12   2  12 14.5453 3.94537   1
 -12   2 -12 25.8908 4.40906   1
 -13   2  12 6.27576 4.19466   5
  13   2 -12 9.78145 4.06971   1
 -13   2  12 17.7482 3.99310   1
  13   2  12 6.12887 3.72336   1
 -13   2 -12 4.78679 3.90292   1
 -14   2  12 31.0864 5.35413   5
  14   2 -12 37.1434 5.32258   1
 -14   2  12 33.7481 4.53770   1
 -14  -2  12 25.4476 5.19762   5
 -14   2 -12 33.1302 5.09238   1
  14   2  12 36.0340 5.02465   1
  15   2 -12 76.0528 6.85383   1
 -15   2  12 78.7425 6.38949   1
 -15   2  12 93.0711 7.99711   5
 -15  -2  12 72.7165 6.99746   5
 -15   2 -12 68.2320 6.39775   1
  15   2  12 97.1603 7.65229   1
   0   3 -12 0.47837 1.83380   1
   0   3  12 1.04579 1.54870   1
   0   3  12 3.61062 3.44914   4
   0   3  12 0.35873 1.87137   2
   0   3 -12 -0.1051 1.78566   2
   1   3 -12 208.173 7.40587   1
   1   3 -12 205.273 7.56212   2
  -1   3  12 201.688 7.19239   2
  -1   3  12 197.401 10.8398   4
  -1   3  12 191.416 6.53889   1
  -1  -3 -12 203.731 8.77744   3
   1   3  12 195.962 9.06689   3
  -1   3 -12 200.096 7.39097   2
   1   3  12 197.106 11.0862   4
  -1   3 -12 211.310 7.39596   1
   1   3  12 196.977 7.14248   2
  -2  -3 -12 553.621 18.3226   3
  -2   3  12 523.274 15.0940   2
  -2   3  12 532.880 15.8505   5
   2   3 -12 534.487 15.5300   2
   2   3 -12 521.805 15.3665   1
  -2   3  12 512.409 14.6340   1
  -2   3  12 528.555 20.9427   4
   2   3  12 521.956 15.1522   2
  -2   3 -12 526.581 15.3536   1
  -2   3 -12 542.468 15.4207   2
   2   3  12 525.992 21.4335   4
  -3   3  12 6.33829 1.74274   1
  -3   3  12 9.74398 3.74619   4
  -3   3  12 5.45965 2.49887   5
  -3   3  12 6.21670 2.12611   2
   3   3 -12 3.77948 2.17334   2
   3   3 -12 6.00880 2.31156   1
   3   3  12 7.62261 2.20678   2
  -3   3 -12 2.07931 2.11431   1
   3   3  12 3.12280 3.55053   4
   3   3  12 5.82259 1.88107   1
  -3   3 -12 4.59818 2.19791   2
  -4   3  12 736.597 21.2475   5
   4   3 -12 726.473 20.5827   2
  -4   3  12 715.491 19.7431   1
  -4   3  12 742.168 27.0718   4
   4   3 -12 711.177 20.3715   1
  -4   3  12 730.327 20.1423   2
   4   3  12 740.427 27.4963   4
  -4   3 -12 718.248 20.4498   2
   4   3  12 723.834 20.2100   2
  -4   3 -12 733.176 20.3823   1
   4   3  12 705.319 19.8012   1
   5   3 -12 24.4867 3.15630   1
  -5   3  12 33.2370 4.83513   4
  -5   3  12 27.9214 3.05726   2
  -5   3  12 44.6946 4.20195   5
  -5   3  12 32.2003 2.84871   1
   5   3 -12 31.9016 3.64587   2
   5   3  12 41.6233 5.45314   4
   5   3  12 33.4553 2.98958   1
  -5   3 -12 34.5973 3.90514   5
   5   3  12 33.2881 3.37562   2
  -5   3 -12 41.9035 3.72453   2
  -5   3 -12 31.4722 3.34591   1
  -6   3  12 28.3208 4.02973   5
  -6   3  12 31.3720 4.71755   4
  -6   3  12 27.5960 3.33895   2
   6   3 -12 32.2622 3.69795   2
   6   3 -12 27.3901 3.36772   1
  -6   3  12 29.9567 2.99834   1
   6   3  12 27.6939 3.28790   2
   6   3  12 28.3426 4.57068   4
  -6   3 -12 24.0067 3.35365   2
  -6   3 -12 30.5786 3.44416   1
   6   3  12 26.7637 3.07830   1
  -6   3 -12 31.9622 3.92296   5
  -7   3  12 43.7622 3.97131   2
   7   3 -12 44.7647 4.39107   2
  -7   3  12 46.9815 3.61994   1
   7   3 -12 41.5241 3.96179   1
  -7   3  12 53.8812 5.63265   4
  -7   3  12 41.6367 4.58437   5
   7   3  12 44.0027 4.04788   2
  -7   3 -12 47.6167 3.99742   1
  -7   3 -12 44.4023 4.20199   2
   7   3  12 48.0401 3.76749   1
  -7   3 -12 51.3552 4.72941   5
   8   3 -12 15.9087 3.23586   1
  -8   3  12 19.0477 3.24486   2
   8   3 -12 15.0185 3.57182   2
  -8   3  12 17.2943 4.16838   4
  -8   3  12 13.5880 3.87322   5
  -8   3  12 13.7142 2.79221   1
   8   3  12 19.5677 3.21355   1
  -8   3 -12 19.1182 3.72145   5
  -8   3 -12 18.3646 3.25614   1
   8   3  12 25.3013 3.54299   2
  -8   3 -12 17.9777 3.45212   2
   9   3 -12 138.953 7.30753   1
  -9   3  12 136.250 6.88998   1
  -9   3  12 146.518 7.44811   2
  -9   3  12 155.200 8.81152   5
   9   3 -12 150.875 7.90249   2
  -9   3 -12 137.351 7.37325   1
   9   3  12 134.236 7.44708   2
  -9   3 -12 151.726 7.80011   2
   9   3  12 142.635 7.03664   1
  -9   3 -12 141.589 8.04252   5
  10   3 -12 13.8766 3.42115   1
 -10   3  12 6.23076 3.31225   2
 -10   3  12 18.0690 4.42411   5
 -10   3  12 15.6426 3.22584   1
  10   3  12 19.2662 3.35843   1
  10   3  12 7.35890 3.20589   2
 -10   3 -12 20.0003 4.13429   5
 -10   3 -12 8.52406 3.18314   1
 -11   3  12 0.90016 2.97611   1
 -11   3  12 -2.6946 3.12180   2
 -11   3  12 -3.1756 3.87464   5
  11   3 -12 6.01653 3.22894   1
 -11   3 -12 -6.6829 3.25065   5
  11   3  12 8.64050 3.25793   1
  11   3  12 3.22185 3.34078   2
 -11   3 -12 0.58912 3.10390   1
 -12   3  12 2.61243 3.14728   1
  12   3 -12 7.57688 3.62257   1
 -12   3  12 5.06470 4.26358   5
  12   3  12 4.81290 3.33890   1
 -12   3 -12 2.67439 3.69475   5
 -12   3 -12 8.47542 3.54165   1
 -13   3  12 14.3921 3.56860   1
  13   3 -12 16.5472 4.11434   1
 -13   3  12 14.5421 4.79390   5
  13   3  12 16.4616 4.01773   1
 -13   3 -12 12.9528 4.28076   5
 -13   3 -12 15.0635 3.86086   1
  14   3 -12 34.3939 4.94484   1
 -14   3  12 21.0863 3.88408   1
 -14   3  12 20.2958 5.04876   5
 -14  -3  12 30.5531 5.55628   5
 -14   3 -12 19.9399 4.22208   1
  14   3  12 25.9096 4.56570   1
   0   4  12 304.084 14.3061   4
   0   4  12 309.774 9.57770   2
   0   4 -12 305.381 9.96930   2
   0   4 -12 293.540 9.20557   1
  -1   4  12 846.685 31.1604   4
  -1   4  12 846.575 22.6778   2
   1   4 -12 831.049 22.5019   1
   1   4 -12 848.422 23.1956   2
  -1   4 -12 864.161 23.1099   2
  -1   4 -12 835.579 22.5049   1
   1   4  12 837.006 31.1161   4
   1   4  12 824.235 22.6518   2
  -2   4  12 82.0534 4.53916   2
   2   4 -12 82.7270 4.26795   1
  -2   4  12 76.5070 7.24478   4
   2   4 -12 84.2519 5.06608   2
  -2   4 -12 74.9990 4.21681   1
   2   4  12 81.3622 7.29915   4
   2   4  12 77.9571 4.52856   2
  -2   4 -12 83.2605 4.91008   2
   3   4 -12 81.8605 5.07617   2
  -3   4  12 79.2956 4.49620   2
   3   4 -12 81.6511 4.45512   1
  -3   4  12 77.8341 7.17356   4
  -3   4 -12 75.5309 4.94388   2
   3   4  12 77.9907 4.69768   2
   3   4  12 79.1357 7.36353   4
  -3   4 -12 72.1800 4.22179   1
  -4   4  12 122.090 8.61770   4
  -4   4  12 131.590 6.80722   5
   4   4 -12 126.940 5.52495   1
   4   4 -12 122.312 6.29745   2
  -4   4  12 123.637 5.68063   2
  -4   4 -12 133.666 5.51305   1
   4   4  12 123.216 8.75078   4
  -4   4 -12 121.163 6.17992   2
   4   4  12 121.111 5.80736   2
  -5   4  12 21.0091 3.61634   5
  -5   4  12 26.0703 3.07660   2
   5   4 -12 22.4522 2.81168   1
  -5   4  12 23.4029 4.52421   4
   5   4 -12 22.7679 3.37922   2
   5   4  12 24.6894 4.61097   4
   5   4  12 21.1998 2.98391   2
  -5   4 -12 20.3379 3.25220   2
  -5   4 -12 25.5468 3.86811   5
   6   4 -12 9.10847 2.94680   2
   6   4 -12 10.9732 2.55148   1
  -6   4  12 13.4681 2.74316   2
  -6   4  12 15.0748 4.25210   4
  -6   4  12 11.6396 3.45845   5
   6   4  12 7.19367 3.51360   4
  -6   4 -12 12.0388 3.03409   2
  -6   4 -12 13.2570 3.59255   5
   6   4  12 12.0253 2.81264   2
  -6   4 -12 11.9582 2.54554   1
  -7   4  12 217.125 8.57457   2
  -7   4  12 213.038 9.83500   5
  -7   4  12 213.153 11.5220   4
   7   4 -12 208.211 8.15906   1
   7   4 -12 209.396 9.10233   2
  -7   4 -12 222.992 8.97023   2
   7   4  12 213.702 7.19202   1
  -7   4 -12 221.428 8.10598   1
   7   4  12 218.404 8.78363   2
  -7   4 -12 229.221 9.86619   5
   8   4 -12 477.293 14.7469   1
   8   4 -12 498.360 15.7880   2
  -8   4  12 474.676 15.0505   2
  -8   4  12 500.019 19.8388   4
  -8   4  12 473.957 16.4766   5
  -8   4 -12 486.687 14.7527   1
   8   4  12 468.133 13.7813   1
  -8   4 -12 457.515 16.0961   5
  -8   4 -12 492.267 15.5666   2
   8   4  12 474.268 15.2153   2
  -9   4  12 700.209 26.5586   4
   9   4 -12 723.029 21.5584   2
  -9   4  12 725.523 20.8507   2
   9   4 -12 704.867 20.5070   1
  -9   4  12 679.115 19.5527   1
  -9   4  12 699.841 22.2868   5
   9   4  12 713.921 21.0121   2
   9   4  12 700.138 19.6466   1
  -9   4 -12 675.966 21.8900   5
  -9   4 -12 735.779 21.2431   2
  -9   4 -12 703.712 20.5408   1
  10   4 -12 4.23375 3.38674   2
 -10   4  12 5.44855 2.61102   1
  10   4 -12 6.56246 2.94718   1
  10   4 -12 5.21312 3.37659   2
 -10   4  12 1.16284 3.12038   2
 -10   4  12 7.16504 3.82844   5
  10   4  12 2.23330 3.03621   2
 -10   4 -12 10.3032 4.05500   5
  10   4  12 3.86846 2.60840   1
 -10   4 -12 4.92666 3.31066   2
 -10   4 -12 5.41581 3.01112   1
 -11   4  12 26.6993 4.95948   5
 -11   4  12 21.5456 3.29758   1
 -11   4  12 24.3781 4.18506   2
  11   4 -12 23.8820 3.85792   1
 -11   4 -12 29.4064 4.05518   1
 -11   4 -12 16.8471 3.97179   2
  11   4  12 21.9767 3.36799   1
 -11   4 -12 20.1141 4.53462   5
  11   4  12 21.4344 4.07487   2
 -12   4  12 78.2284 6.99959   5
  12   4 -12 72.1725 5.59811   1
 -12   4  12 72.4635 5.71883   1
 -12   4  12 80.1982 6.19282   2
 -12   4 -12 91.3522 6.64272   1
 -12   4 -12 88.3732 7.17148   5
  12   4  12 87.9661 6.00031   1
  12   4  12 76.3439 6.33194   2
 -13   4  12 0.16146 4.09755   5
 -13   4  12 10.1626 3.85818   2
  13   4 -12 -0.0215 3.07738   1
 -13   4  12 -2.4069 2.99078   1
  13   4  12 -0.0363 3.23468   1
 -13   4 -12 4.37985 3.47128   1
 -13   4 -12 -2.2362 3.75689   5
   0   5  12 -0.6931 1.87567   2
   0   5  12 -0.0140 3.57171   4
   0   5 -12 1.23793 2.05674   2
  -1   5  12 111.162 5.20530   2
  -1   5  12 122.448 8.90978   4
   1   5 -12 122.671 5.74457   2
   1   5  12 118.173 5.25657   2
  -1   5 -12 109.685 5.71622   2
   1   5  12 111.454 8.70658   4
  -2   5  12 308.038 9.72259   2
  -2   5  12 296.516 14.5817   4
   2   5 -12 305.090 10.2995   2
   2   5  12 300.215 9.75329   2
  -2   5 -12 316.114 10.4001   2
   2   5  12 301.928 14.6356   4
   3   5 -12 8.74564 2.50916   2
  -3   5  12 8.44989 3.87427   4
  -3   5  12 9.62405 2.30606   2
   3   5  12 6.10879 3.72614   4
   3   5  12 8.09280 2.23796   2
  -3   5 -12 11.6992 2.58468   2
  -4   5  12 450.881 19.3001   4
   4   5 -12 443.570 14.2359   2
  -4   5  12 452.769 13.6832   2
   4   5  12 482.278 19.4806   4
  -4   5 -12 452.008 14.0853   2
   4   5  12 450.802 13.6885   2
   5   5 -12 48.3741 4.40774   2
  -5   5  12 47.8704 3.75692   2
  -5   5  12 57.8635 6.57590   4
   5   5  12 56.9571 6.38219   4
   5   5  12 49.8018 3.97244   2
  -5   5 -12 48.0755 4.06500   2
  -5   5 -12 50.2824 5.03205   5
  -6   5  12 17.0924 4.55096   4
   6   5 -12 18.8337 3.35784   2
  -6   5  12 14.0206 2.84209   2
  -6   5 -12 13.7097 3.15469   2
   6   5  12 9.78333 2.69609   2
   6   5  12 12.5321 4.18149   4
  -6   5 -12 9.72146 3.60365   5
  -7   5  12 28.4494 5.09989   4
   7   5 -12 23.3660 3.64132   2
  -7   5  12 35.5090 4.72052   5
  -7   5  12 29.5624 3.57026   2
  -7   5 -12 34.1675 4.77578   5
  -7   5 -12 32.5705 3.84857   2
   7   5  12 30.5577 3.70330   2
  -8   5  12 13.3809 4.52488   4
  -8   5  12 13.9074 4.18646   5
   8   5 -12 13.6854 3.39154   2
  -8   5  12 11.8343 3.13545   2
  -8   5 -12 13.0562 3.95712   5
  -8   5 -12 14.0574 3.33294   2
   8   5  12 11.4589 3.24811   2
  -9   5  12 101.639 6.42602   2
   9   5 -12 109.225 7.09541   2
   9   5 -12 103.593 5.49424   1
  -9   5  12 108.256 8.29099   5
  -9   5  12 96.5017 8.60756   4
  -9   5 -12 89.1418 6.99589   5
   9   5  12 94.8614 6.76817   2
  -9   5 -12 100.936 7.03674   2
 -10   5  12 7.93353 4.14606   5
  10   5 -12 10.5313 3.60981   2
  10   5 -12 5.25411 3.22810   2
  10   5 -12 5.12421 2.69460   1
 -10   5  12 15.4161 3.66794   2
  10   5  12 4.30135 3.18094   2
 -10   5 -12 4.80418 3.42095   2
 -10   5 -12 15.7195 4.53840   5
  11   5 -12 2.94663 2.61810   1
  11   5 -12 -2.0050 3.02710   2
 -11   5  12 7.37578 4.42174   5
 -11   5  12 0.34277 3.26673   2
 -11   5 -12 5.90095 3.56941   2
  11   5  12 -3.0177 3.18600   2
 -11   5 -12 -0.0808 4.00990   5
   0   6 -12 607.620 17.7645   2
   0   6  12 609.017 24.8834   4
   0   6  12 631.030 17.2218   2
  -1   6  12 38.8032 5.78369   4
   1   6 -12 40.5448 3.49099   2
  -1   6  12 44.6781 3.30455   2
   1   6  12 44.2415 6.04117   4
   1   6  12 50.6813 3.96097   2
  -1   6 -12 41.8135 3.60447   2
  -2   6  12 8.84664 2.32731   2
  -2   6  12 8.10988 4.31104   4
   2   6 -12 13.2460 2.63063   2
   2   6  12 15.5768 4.48994   4
   2   6  12 7.62093 2.33953   2
  -2   6 -12 10.7009 2.56351   2
  -3   6  12 15.6361 2.62173   2
   3   6 -12 11.0513 2.64691   2
  -3   6  12 17.4629 4.64796   4
   3   6  12 14.6131 4.42639   4
   3   6  12 12.7333 2.57492   2
  -3   6 -12 14.0060 2.70828   2
  -4   6  12 137.105 6.36462   2
  -4   6  12 145.219 10.2212   4
   4   6 -12 139.847 7.09551   2
   4   6  12 141.874 9.87828   4
  -4   6 -12 147.854 6.88615   2
   4   6  12 155.002 6.52182   2
  -5   6  12 10.9058 4.42664   4
  -5   6  12 11.3847 2.56967   2
   5   6 -12 8.55424 2.81077   2
  -5   6 -12 14.6809 2.90886   2
   5   6  12 15.3798 2.76782   2
   5   6  12 4.36048 3.71749   4
  -6   6  12 24.0363 5.22447   4
  -6   6  12 29.0375 3.42721   2
   6   6 -12 27.5918 3.76758   2
  -6   6 -12 23.5327 4.42283   5
   6   6  12 24.4961 3.45224   2
  -6   6 -12 31.7568 3.77692   2
  -7   6  12 -0.5232 4.02993   4
   7   6 -12 5.74007 2.97052   2
  -7   6  12 -0.4129 2.60973   2
   7   6  12 4.12736 2.76521   2
  -7   6 -12 1.73429 3.55106   5
  -7   6 -12 7.45689 2.99100   2
  -8   6  12 386.753 17.9541   4
   8   6 -12 377.817 13.6167   2
  -8   6  12 366.401 12.7067   2
  -8   6 -12 396.734 13.4881   2
   8   6  12 394.088 13.1254   2
  -8   6 -12 393.594 14.9249   5
  -9   6  12 162.979 11.2575   4
   9   6 -12 173.256 8.83799   2
  -9   6  12 172.800 7.92284   2
  -9   6 -12 173.523 8.70642   2
   9   6  12 172.307 8.39206   2
  -9   6 -12 160.992 9.84548   5
   0   7  12 2.17224 4.11725   4
   0   7  12 0.82275 2.07868   2
   0   7 -12 0.12522 2.00273   2
  -1   7  12 71.5761 4.59042   2
   1   7 -12 74.4549 5.12472   2
  -1   7  12 81.3448 8.32628   4
  -1   7 -12 66.0672 4.87274   2
   1   7  12 68.9648 7.77541   4
   1   7  12 68.4227 4.54487   2
  -2   7  12 216.364 12.8929   4
   2   7 -12 205.839 8.34313   2
  -2   7  12 207.362 7.72931   2
   2   7  12 212.050 12.6407   4
  -2   7 -12 216.144 8.34191   2
   2   7  12 220.251 7.80651   2
  -3   7  12 -0.6928 2.11653   2
   3   7 -12 2.30846 2.30773   2
  -3   7  12 0.19219 3.98549   4
   3   7  12 1.06467 3.86020   4
   3   7  12 0.09389 2.29278   2
  -3   7 -12 -0.5454 2.17378   2
   4   7 -12 300.230 10.7346   2
  -4   7  12 290.897 9.90509   2
   4   7  12 302.153 10.1372   2
  -4   7 -12 303.057 10.4974   2
   4   7  12 287.824 15.2433   4
   5   7 -12 8.84009 2.86769   2
  -5   7  12 5.54229 2.59532   2
   5   7  12 10.8631 2.79482   2
  -5   7 -12 4.12719 2.61389   2
   6   7 -12 14.8604 3.25419   2
  -6   7  12 10.5874 2.87802   2
   6   7  12 13.6041 3.02987   2
  -6   7 -12 4.54355 2.83630   2
   0   0  13 -0.9606 1.91649   2
   0   0 -13 3.40776 2.18994   1
   0   0  13 1.27428 2.08664   1
  -1   0  13 4.92076 2.49682   3
   1   0  13 6.72029 2.29817   1
   1   0 -13 4.38370 2.10794   1
  -1   0 -13 0.92716 2.11569   1
  -1   0  13 4.79171 2.21145   1
  -1   0  13 3.13806 2.11529   2
  -1   0 -13 3.23394 2.43154   3
   1   0  13 0.36140 2.05286   2
   2   0  13 208.217 7.67225   2
  -2   0  13 210.075 8.85100   3
  -2   0  13 205.430 7.60461   1
   2   0  13 189.467 7.62200   1
  -2   0  13 187.614 7.36023   2
  -2   0 -13 199.122 9.21325   3
  -2   0 -13 196.450 7.66811   1
   3   0 -13 912.350 25.0249   1
  -3   0  13 919.717 25.0158   1
  -3   0 -13 895.186 25.0795   1
   3   0  13 870.338 25.0246   1
   3   0  13 880.835 24.7298   2
  -3   0  13 970.127 29.0090   3
  -3   0  13 887.407 24.6223   2
   4   0  13 46.6864 3.94595   1
  -4   0  13 55.6064 4.39742   3
  -4   0 -13 54.0708 4.29316   1
  -4   0  13 61.5069 4.98991   3
   4   0 -13 50.9590 4.00308   1
  -4   0  13 44.7135 3.80966   1
  -4   0  13 51.2342 3.91306   2
  -5   0 -13 1733.45 46.9107   1
   5   0  13 1726.53 46.8750   1
   5   0 -13 1810.52 46.9310   1
  -5   0  13 1828.22 53.6720   3
  -5   0  13 1772.98 46.8391   1
  -6   0  13 73.8387 5.44770   1
  -6   0 -13 73.8330 5.38937   1
   6   0 -13 78.9770 5.46322   1
   6   0  13 76.6907 5.47759   1
  -7   0 -13 316.538 11.1308   1
   7   0 -13 315.945 11.1062   1
   7   0  13 304.804 11.0103   1
  -7   0  13 298.589 10.9557   1
  -8   0 -13 378.500 13.0905   1
   8   0 -13 391.569 13.0878   1
  -8   0  13 372.022 12.9829   1
   8   0  13 382.572 12.9632   1
  -9   0 -13 -0.7837 3.08081   1
   9   0 -13 3.29800 3.15965   1
  -9   0  13 1.67970 3.18765   1
   9   0  13 1.52715 3.11026   1
 -10   0 -13 283.997 11.4386   1
  10   0 -13 276.594 11.1743   1
  10   0  13 290.857 11.2188   1
 -10   0  13 273.732 11.1238   1
  11   0  13 150.486 8.40355   1
 -11   0  13 136.983 9.16806   5
 -11   0 -13 149.463 8.98659   1
 -11   0  13 155.805 8.57228   1
  11   0 -13 146.578 8.18255   1
 -12   0  13 40.0913 5.47002   5
 -12   0 -13 32.7034 5.03261   1
  12   0 -13 33.6798 4.73489   1
  12   0  13 28.4113 4.72586   1
 -12   0  13 39.4724 4.98426   1
  13   0 -13 667.180 21.8509   1
 -13   0  13 692.679 22.4331   5
 -13   0  13 691.620 21.7681   1
 -13   0 -13 691.665 22.3259   1
  13   0  13 691.108 21.8562   1
  14   0  13 71.0998 6.65993   1
 -14   0  13 63.1515 6.25231   1
 -14   0  13 84.8622 7.15458   5
  14   0 -13 74.6323 6.63970   1
 -14   0 -13 79.6252 7.27768   1
 -15   0 -13 21.5460 5.41032   1
 -15   0  13 8.28797 4.52534   5
  15   0  13 16.4668 5.04873   1
 -15   0  13 16.1199 4.40668   1
   0   1  13 394.299 11.9644   2
   0   1 -13 393.371 12.0398   2
   0   1 -13 379.164 12.2014   1
   0   1  13 389.273 14.1218   3
   0  -1 -13 386.775 12.2508   1
   0   1  13 390.787 12.0548   1
   0  -1  13 404.949 12.2913   1
   0  -1 -13 392.003 13.9389   3
   1   1 -13 445.001 13.4983   2
   1  -1  13 458.147 13.8391   1
  -1   1  13 452.619 13.6297   1
  -1  -1 -13 464.659 15.9876   3
  -1   1  13 458.087 13.4554   2
  -1   1  13 449.951 15.7992   3
  -1  -1 -13 442.838 13.7193   1
   1   1  13 460.081 13.6502   1
   1   1  13 461.844 13.5533   2
  -1   1 -13 447.372 13.5296   2
  -1  -1  13 460.109 13.7593   1
  -1   1 -13 451.218 13.8202   1
   1  -1 -13 468.987 13.7221   1
   1   1  13 440.008 16.3105   3
  -2   1  13 211.045 7.67223   2
  -2  -1 -13 210.625 7.99727   1
  -2   1  13 207.696 8.64070   3
   2   1 -13 205.296 7.91182   1
  -2   1  13 194.404 7.68126   1
  -2  -1 -13 205.189 9.26396   3
   2  -1  13 213.648 7.98260   1
   2   1 -13 215.716 7.74654   2
  -2   1 -13 209.347 7.86968   2
  -2  -1  13 207.540 7.90916   1
   2  -1 -13 227.686 8.00039   1
   2   1  13 204.350 7.72738   2
  -2   1 -13 208.619 8.09644   1
   2   1  13 204.926 7.85195   1
  -3   1  13 321.921 10.5257   1
  -3  -1 -13 307.804 10.6645   1
   3  -1  13 322.182 10.7791   1
  -3   1  13 330.889 12.0120   3
  -3   1  13 335.890 10.4308   2
   3   1 -13 318.554 10.6407   1
   3   1 -13 315.664 10.4555   2
   3   1  13 320.235 10.6061   1
  -3  -1  13 318.738 10.7178   1
   3  -1 -13 327.592 10.6142   1
  -3   1 -13 315.391 10.7537   1
  -3   1 -13 307.101 10.4986   2
   3   1  13 316.639 10.4439   2
   4  -1  13 2.97115 2.45666   1
   4   1 -13 3.98453 2.27356   2
  -4  -1 -13 3.68220 2.33106   1
  -4   1  13 0.36573 2.26663   1
   4   1 -13 1.64558 2.29964   1
  -4   1  13 2.81675 2.15272   2
   4  -1 -13 2.36186 2.44713   1
  -4   1 -13 3.68218 2.28813   2
  -4  -1  13 5.88855 2.51605   3
  -4   1 -13 2.50538 2.42605   1
   4   1  13 0.58650 2.25975   2
   4   1  13 2.50640 2.36768   1
  -4  -1  13 1.16009 2.35607   1
   5   1 -13 633.510 18.4479   1
  -5   1  13 636.985 18.2496   1
  -5  -1 -13 599.771 18.3368   1
  -5   1  13 634.172 17.9979   2
   5  -1  13 619.651 18.4098   1
   5   1  13 623.776 18.3985   1
  -5  -1  13 633.794 20.8722   3
   5   1  13 604.544 18.0643   2
   5  -1 -13 654.325 18.6539   1
  -5  -1  13 626.704 18.4912   1
  -5   1 -13 617.882 18.4793   1
  -6   1  13 130.964 6.48814   1
  -6   1  13 141.010 8.78415   4
  -6   1  13 127.559 6.28802   2
   6  -1  13 121.420 6.62807   1
   6   1 -13 121.840 6.68672   1
  -6  -1 -13 126.641 6.74564   1
  -6   1 -13 131.078 6.81324   1
   6   1  13 135.876 6.67141   1
   6   1  13 122.872 6.55873   2
  -6  -1  13 141.647 6.85075   1
   7   1 -13 3.37108 2.78098   1
  -7   1  13 -0.6836 2.61530   2
  -7   1  13 2.48102 2.56022   1
   7  -1  13 3.87650 2.78719   1
  -7   1  13 5.50800 3.48232   4
  -7  -1  13 2.03040 2.82359   1
  -7   1 -13 1.51258 2.43966   5
  -7   1 -13 1.98259 2.55799   1
   7   1  13 3.87127 2.83667   1
  -8   1  13 17.6229 4.14776   4
   8  -1  13 17.5073 3.52366   1
  -8   1  13 13.1765 3.17314   1
   8   1 -13 13.8373 3.51013   1
  -8   1 -13 13.4101 3.17326   5
  -8   1 -13 17.3543 3.38453   1
   8   1  13 18.8182 3.47229   1
  -8  -1  13 14.4348 3.53108   1
  -9   1  13 98.7894 6.65062   1
  -9   1  13 88.3933 6.53319   5
   9   1 -13 87.7833 6.62570   1
   9  -1  13 90.5768 6.64800   1
  -9  -1  13 91.3183 6.72890   1
  -9   1 -13 89.5149 6.78274   1
   9   1  13 85.3553 6.38560   1
  10   1 -13 40.4164 4.65711   1
  10  -1  13 38.3876 4.77856   1
 -10   1  13 39.7858 4.59183   1
 -10   1  13 37.0600 5.06497   5
 -10   1 -13 42.5371 4.73309   1
  10   1  13 42.1741 4.67594   1
 -10  -1  13 33.1837 4.67504   1
 -11   1  13 29.6744 4.87978   5
 -11   1  13 42.3865 4.74448   1
  11   1 -13 40.7790 4.83501   1
  11  -1  13 41.1662 5.06811   1
 -11  -1  13 31.2897 4.75036   1
 -11   1 -13 36.7188 4.80620   1
  11   1  13 36.2661 4.67918   1
  12   1 -13 22.1667 4.39054   1
 -12   1  13 15.7318 4.47727   5
 -12   1  13 24.9401 4.30472   1
 -12   1 -13 22.7226 4.41762   1
  12   1  13 24.1956 4.41819   1
 -12  -1  13 18.0332 4.57197   5
 -12  -1  13 34.4257 5.13294   1
 -13   1  13 -3.3428 3.83556   5
  13   1 -13 1.98823 3.81892   1
 -13   1  13 8.87700 3.76148   1
  13   1  13 8.77433 4.04540   1
 -13   1 -13 4.66214 3.77215   1
 -13  -1  13 -3.6146 3.85972   1
 -13  -1  13 3.55852 4.12139   5
 -14   1  13 0.51690 4.10075   5
  14   1 -13 0.35880 3.63123   1
 -14   1  13 4.84750 3.83254   1
 -14  -1  13 5.40061 4.20812   5
  14   1  13 10.8823 4.04091   1
 -14   1 -13 4.83728 3.89113   1
 -14  -1  13 4.88653 4.28844   1
 -15   1  13 79.3992 6.76916   1
 -15   1  13 72.7714 7.26074   5
  15   1 -13 88.3286 7.22593   1
 -15   1 -13 92.6249 7.43386   1
 -15  -1  13 88.7111 7.64031   5
  15   1  13 82.5970 7.02288   1
   0   2  13 -1.4435 1.93474   2
   0   2  13 1.22884 1.92433   1
   0   2 -13 2.52971 1.99864   1
   0   2  13 3.56886 4.05177   4
   0   2  13 -1.7524 2.33607   3
   0   2 -13 -1.3964 1.94188   2
   0  -2 -13 1.95626 2.08543   3
   1   2 -13 40.7594 3.52831   1
  -1   2  13 45.2937 6.11262   4
  -1   2  13 43.2072 3.43577   2
  -1  -2 -13 37.1572 3.63063   3
  -1   2  13 42.1169 3.18439   1
   1   2 -13 47.8224 3.64491   2
  -1   2 -13 48.6417 3.82098   1
  -1   2 -13 43.1968 3.62796   2
   1   2  13 40.4255 6.82656   4
   1   2  13 43.9044 4.33624   3
   1   2  13 47.5686 3.36252   1
   1   2  13 47.0656 3.65107   2
  -2   2  13 116.765 5.49483   1
  -2  -2 -13 128.980 7.03999   3
   2   2 -13 118.471 5.99022   1
  -2   2  13 126.674 9.13548   4
   2   2 -13 129.593 5.93529   2
  -2   2  13 121.919 5.64344   2
   2   2  13 111.821 10.7321   4
  -2   2 -13 124.192 5.96899   1
   2   2  13 124.934 5.65885   1
  -2   2 -13 123.463 5.83675   2
   2   2  13 117.479 5.68511   2
  -3   2  13 94.6122 8.01027   4
   3   2 -13 105.877 5.73598   1
   3   2 -13 103.541 5.55804   2
  -3   2  13 114.040 5.48544   2
  -3   2  13 107.430 5.25117   1
   3   2  13 92.7304 9.77687   4
   3   2  13 107.973 5.42178   1
   3   2  13 104.292 5.46039   2
  -3   2 -13 107.651 5.72694   1
  -3   2 -13 111.035 5.61556   2
  -4   2  13 1200.54 32.1326   1
   4   2 -13 1219.12 32.6941   1
  -4   2  13 1214.40 31.9463   2
  -4   2  13 1265.97 42.0789   4
   4   2 -13 1254.93 32.3781   2
  -4   2 -13 1195.58 32.6497   1
  -4   2 -13 1175.86 32.1143   2
   4   2  13 1194.05 32.0172   2
   4   2  13 1207.74 32.3058   1
   4   2  13 1079.87 43.7813   4
   5   2 -13 18.8299 3.13002   1
  -5   2  13 17.8959 2.92550   2
  -5   2  13 21.3087 3.49685   5
  -5   2  13 20.6872 2.78431   1
  -5   2  13 11.1032 4.11876   4
   5   2 -13 17.9406 3.08456   2
   5   2  13 16.8160 2.90064   2
  -5   2 -13 14.6591 2.86620   1
   5   2  13 15.3347 2.88912   1
  -5   2 -13 12.2622 2.84613   2
   5   2  13 17.6188 5.59354   4
  -6   2  13 23.4114 3.77504   5
  -6   2  13 35.6488 4.99865   4
   6   2 -13 30.5432 3.63412   1
   6   2 -13 25.0344 3.53239   2
  -6   2  13 34.0052 3.33939   1
  -6   2  13 24.0061 3.22702   2
  -6   2 -13 26.3571 3.55030   5
   6   2  13 36.4600 6.05663   4
   6   2  13 25.9585 3.37320   2
  -6   2 -13 26.8136 3.47001   2
   6   2  13 27.3494 3.52453   1
  -6   2 -13 26.8073 3.40623   1
  -7   2  13 43.2897 4.60439   5
  -7   2  13 38.2524 4.00857   2
   7   2 -13 34.4825 4.05063   1
   7   2 -13 42.9064 4.48057   2
  -7   2  13 46.8291 5.47577   4
  -7   2  13 38.6481 3.75345   1
   7   2  13 39.0104 3.98228   1
  -7   2 -13 41.1600 4.21091   5
  -7   2 -13 46.1023 4.26351   1
  -7   2 -13 34.8211 3.97951   2
   7   2  13 33.6518 3.97684   2
   7   2  13 40.2544 5.89216   4
  -8   2  13 7.24542 3.74334   4
  -8   2  13 3.21300 2.90115   2
   8   2 -13 3.09433 2.88735   1
  -8   2  13 4.02214 3.34335   5
  -8   2  13 2.78614 2.77458   1
   8   2  13 0.08248 2.67404   2
  -8   2 -13 -0.6712 2.74127   5
   8   2  13 -3.6243 2.68060   1
  -8   2 -13 -4.3618 2.66576   1
   9   2 -13 23.2739 3.82719   1
  -9   2  13 15.0780 4.07023   5
  -9   2  13 26.0016 3.88273   2
  -9   2  13 19.5075 3.47986   1
  -9   2 -13 20.4967 3.62650   5
   9   2  13 12.0731 3.41079   1
   9   2  13 21.3683 3.79598   2
  -9   2 -13 21.5600 3.75471   1
 -10   2  13 26.3564 3.89333   1
  10   2 -13 37.5332 4.40630   1
 -10   2  13 29.4933 4.71812   5
 -10   2 -13 20.5824 4.17297   5
  10   2  13 22.6041 4.00169   1
 -10   2 -13 28.9119 4.22559   1
 -11   2  13 34.8403 5.25636   5
 -11   2  13 25.3305 4.06067   1
  11   2 -13 29.2619 4.42606   1
 -11   2 -13 32.2396 4.67233   1
  11   2  13 32.5663 4.38033   1
 -11   2 -13 29.8180 4.73191   5
 -12   2  13 153.921 8.49189   1
 -12   2  13 154.719 9.74410   5
  12   2 -13 170.797 9.07127   1
 -12   2 -13 173.170 9.23634   1
  12   2  13 172.759 8.78153   1
  13   2 -13 75.9675 6.48999   1
 -13   2  13 94.2956 7.50341   5
 -13   2  13 83.3359 6.28784   1
 -13   2 -13 72.0528 6.18532   1
  13   2  13 91.5352 7.23349   1
 -14   2  13 10.2538 3.96935   1
 -14   2  13 19.3051 4.82378   5
  14   2 -13 9.71261 4.29487   1
  14   2  13 11.1295 4.18612   1
 -14   2 -13 10.7712 4.31227   1
 -14  -2  13 15.1966 4.68513   5
   0   3  13 312.478 9.96186   2
   0   3  13 297.843 14.8112   4
   0   3 -13 314.135 10.2109   1
   0   3 -13 318.426 10.2806   2
   0   3  13 304.459 9.39824   1
  -1   3  13 297.387 9.67954   2
  -1   3  13 291.689 14.2437   4
   1   3 -13 302.887 9.98967   2
   1   3 -13 296.778 9.92978   1
   1   3  13 266.041 14.4719   4
  -1   3 -13 296.032 9.87171   1
  -1   3 -13 320.878 10.1301   2
   1   3  13 305.574 9.75889   2
   2   3 -13 156.583 6.71029   1
  -2   3  13 150.743 6.35258   2
  -2   3  13 160.128 9.84792   4
   2   3 -13 163.014 6.83492   2
  -2   3  13 147.699 5.83174   1
  -2   3  13 161.182 7.26999   5
  -2   3 -13 149.000 6.66658   2
   2   3  13 154.758 5.86168   1
   2   3  13 141.816 10.2943   4
   2   3  13 166.016 6.58861   2
  -2   3 -13 156.088 6.58676   1
   3   3 -13 239.947 9.01266   2
  -3   3  13 233.705 8.47292   2
   3   3 -13 246.032 8.83567   1
  -3   3  13 254.192 12.5045   4
  -3   3  13 228.062 7.96860   1
  -3   3  13 249.171 9.54772   5
  -3   3 -13 240.597 8.78754   2
   3   3  13 267.538 13.6471   4
   3   3  13 238.931 8.06665   1
   3   3  13 256.376 8.78987   2
  -3   3 -13 253.059 8.84553   1
  -4   3  13 -2.8531 3.38725   4
   4   3 -13 1.70911 2.31404   1
  -4   3  13 2.67903 1.93824   1
   4   3 -13 4.82580 2.50262   2
  -4   3  13 4.93326 2.97343   5
  -4   3  13 1.97941 2.20689   2
   4   3  13 2.04585 2.32312   2
  -4   3 -13 1.94517 2.19916   1
   4   3  13 4.48379 2.15474   1
  -4   3 -13 0.19986 2.25421   2
   4   3  13 3.07794 3.97828   4
   5   3 -13 490.641 15.3425   2
  -5   3  13 494.891 15.8544   5
  -5   3  13 494.713 19.9207   4
  -5   3  13 500.174 14.8137   2
   5   3 -13 497.250 15.0734   1
  -5   3  13 470.550 14.2298   1
  -5   3 -13 488.106 15.0824   2
   5   3  13 486.708 20.4767   4
  -5   3 -13 488.398 14.9386   1
   5   3  13 486.428 14.3287   1
   5   3  13 485.467 14.8209   2
   6   3 -13 87.9325 5.85069   1
  -6   3  13 94.1455 6.75432   5
  -6   3  13 98.5444 5.67272   2
   6   3 -13 97.9850 6.25326   2
  -6   3  13 92.6353 5.17948   1
  -6   3  13 94.7201 7.77945   4
  -6   3 -13 105.168 5.95033   1
  -6   3 -13 97.3328 6.44615   5
   6   3  13 90.8461 5.29544   1
  -6   3 -13 94.2624 5.99133   2
   6   3  13 85.6697 7.87298   4
   6   3  13 93.6043 5.84102   2
  -7   3  13 7.14461 2.58911   1
  -7   3  13 8.05478 4.04692   4
   7   3 -13 3.81947 2.76423   1
  -7   3  13 0.99210 2.74429   2
  -7   3  13 7.68159 3.40865   5
   7   3 -13 7.35684 2.99709   2
   7   3  13 4.71331 2.61580   1
  -7   3 -13 4.85650 3.11276   5
   7   3  13 -1.3140 2.47414   2
  -7   3 -13 3.93209 2.69605   1
  -7   3 -13 5.59625 2.94599   2
  -8   3  13 14.7635 2.95811   1
  -8   3  13 18.8281 4.39135   4
  -8   3  13 16.5887 3.32239   2
   8   3 -13 13.0355 3.16070   1
   8   3 -13 20.4780 3.67765   2
  -8   3  13 22.5299 4.21629   5
   8   3  13 16.1955 3.16052   1
  -8   3 -13 8.10087 3.44331   5
   8   3  13 8.70344 3.12051   2
  -8   3 -13 8.58270 2.88733   1
  -8   3 -13 14.0875 3.36033   2
  -9   3  13 46.7979 4.13171   1
   9   3 -13 52.0060 4.75942   1
  -9   3  13 63.8121 5.15549   2
  -9   3  13 57.0726 5.71145   5
   9   3  13 63.9523 5.23341   2
   9   3  13 52.3276 4.47571   1
  -9   3 -13 53.3453 5.17593   5
  -9   3 -13 55.4955 5.06708   2
  -9   3 -13 52.5113 4.69556   1
  10   3 -13 32.8883 4.29323   1
 -10   3  13 24.4219 3.99146   2
 -10   3  13 29.3576 4.92761   5
 -10   3  13 27.8505 3.70654   1
 -10   3 -13 40.6778 4.89341   5
 -10   3 -13 37.9511 4.50298   1
  10   3  13 33.7007 4.14002   1
  10   3  13 41.4927 4.70452   2
 -11   3  13 29.0252 4.41109   2
 -11   3  13 29.5083 3.85337   1
 -11   3  13 34.6255 5.42545   5
  11   3 -13 34.5701 4.52066   1
  11   3  13 33.1283 4.22026   1
 -11   3 -13 41.1408 5.21844   5
 -11   3 -13 28.5433 4.27452   1
  12   3 -13 14.5345 3.88552   1
 -12   3  13 18.5274 3.67604   1
 -12   3  13 13.8729 4.45778   5
 -12   3 -13 15.7857 4.42905   5
  12   3  13 19.0867 3.98767   1
 -12   3 -13 13.9441 3.97363   1
 -13   3  13 -13.171 3.94319   5
 -13   3  13 -2.5524 3.05201   1
  13   3 -13 3.60500 3.73530   1
 -13   3 -13 8.07289 3.75846   1
  13   3  13 7.28285 3.83626   1
 -13   3 -13 -3.6722 3.69091   5
  14   3 -13 -5.5528 3.54522   1
   0   4 -13 0.73408 2.02515   2
   0   4  13 -2.0704 3.32719   4
   0   4  13 -1.7811 1.94728   2
   0   4 -13 0.57381 1.80961   1
   1   4 -13 0.08662 1.94161   2
  -1   4  13 4.25370 3.72300   4
  -1   4  13 -0.0086 1.97877   2
   1   4 -13 0.99709 1.79423   1
  -1   4 -13 -2.0555 1.96530   2
   1   4  13 -0.6272 3.42061   4
   1   4  13 1.96229 2.08253   2
  -1   4 -13 1.93036 1.77707   1
   2   4 -13 100.699 5.74663   2
  -2   4  13 103.816 8.39737   4
  -2   4  13 105.189 5.22543   2
   2   4 -13 102.714 5.06872   1
  -2   4 -13 108.091 5.73123   2
   2   4  13 103.970 8.67016   4
  -2   4 -13 103.458 5.02362   1
   2   4  13 109.461 5.39162   2
  -3   4  13 489.266 20.1390   4
   3   4 -13 485.355 14.8300   2
   3   4 -13 477.219 14.1389   1
  -3   4  13 487.699 14.2790   2
   3   4  13 474.684 20.2309   4
  -3   4 -13 475.493 14.6594   2
   3   4  13 482.541 14.3683   2
  -3   4 -13 484.373 14.0257   1
  -4   4  13 36.3620 5.36432   4
  -4   4  13 35.5507 3.35781   2
   4   4 -13 39.9274 3.28880   1
   4   4 -13 31.8663 3.61423   2
  -4   4 -13 39.7909 3.23814   1
   4   4  13 40.2315 5.76635   4
  -4   4 -13 37.8647 3.68044   2
   4   4  13 33.3706 3.36921   2
  -5   4  13 1047.28 28.3404   2
  -5   4  13 1090.86 29.9612   5
   5   4 -13 1033.45 28.3282   1
   5   4 -13 1039.43 29.0141   2
  -5   4  13 1049.45 37.5636   4
   5   4  13 1042.99 37.7234   4
  -5   4 -13 1055.28 28.8357   2
   5   4  13 1010.72 28.3483   2
  -6   4  13 53.2402 6.05056   4
   6   4 -13 37.9382 4.35431   2
   6   4 -13 51.3328 3.96209   1
  -6   4  13 54.1793 5.26626   5
  -6   4  13 46.5140 4.02599   2
  -6   4 -13 43.3826 4.32795   2
  -6   4 -13 53.0144 3.98486   1
  -6   4 -13 51.2307 5.03000   5
   6   4  13 46.4845 4.22911   2
   6   4  13 49.9096 6.04448   4
   7   4 -13 163.232 7.57296   1
   7   4 -13 191.113 8.78173   2
  -7   4  13 197.375 11.0851   4
  -7   4  13 194.390 9.64995   5
  -7   4  13 194.018 8.21051   2
   7   4  13 197.069 8.29633   2
  -7   4 -13 190.974 8.53405   2
  -7   4 -13 190.311 9.25735   5
  -7   4 -13 193.160 7.71561   1
   7   4  13 188.663 6.74977   1
  -8   4  13 263.136 12.7869   4
  -8   4  13 240.131 9.51508   2
   8   4 -13 220.720 9.06879   1
   8   4 -13 252.083 10.2903   2
  -8   4  13 244.076 11.1307   5
  -8   4 -13 233.888 9.83455   2
   8   4  13 227.999 9.64338   2
  -8   4 -13 244.557 9.19733   1
  -8   4 -13 239.043 10.6667   5
   8   4  13 235.696 8.17210   1
  -9   4  13 -4.8119 2.90092   2
   9   4 -13 4.37930 2.73139   1
  -9   4  13 -3.0601 3.54194   5
  -9   4  13 4.83258 4.14010   4
   9   4 -13 4.72500 3.22555   2
  -9   4  13 4.85467 2.36605   1
   9   4  13 3.11273 3.13687   2
  -9   4 -13 3.71163 2.91717   1
  -9   4 -13 -0.3515 3.03360   2
   9   4  13 3.61611 2.50601   1
  -9   4 -13 0.49043 3.43064   5
 -10   4  13 177.080 7.40655   1
 -10   4  13 188.088 8.79637   2
  10   4 -13 186.060 9.34291   2
  10   4 -13 163.505 7.94877   1
 -10   4  13 177.529 10.0427   5
  10   4 -13 194.936 9.59009   2
 -10   4 -13 179.909 9.60637   5
  10   4  13 164.414 8.74634   2
  10   4  13 184.849 7.47221   1
 -10   4 -13 171.309 8.27174   1
 -10   4 -13 173.593 9.11197   2
 -11   4  13 104.822 8.46411   5
 -11   4  13 93.4731 6.06949   1
  11   4 -13 82.0719 6.43838   1
 -11   4  13 100.805 7.10324   2
  11   4  13 108.442 6.17680   1
 -11   4 -13 105.159 6.87314   1
 -11   4 -13 98.6435 8.11883   5
  11   4  13 105.699 7.56823   2
 -12   4  13 23.1683 3.39975   1
 -12   4  13 24.8728 5.16380   5
  12   4 -13 23.0729 4.09601   1
 -12   4  13 21.6117 4.43728   2
 -12   4 -13 25.2554 4.17784   1
 -12   4 -13 22.5579 5.09914   5
  12   4  13 28.8535 3.99798   1
  12   4  13 24.6443 4.64264   2
   0   5  13 180.795 11.0767   4
   0   5  13 171.646 6.85497   2
   0   5 -13 181.391 7.43430   2
   1   5 -13 256.528 9.12503   2
  -1   5  13 251.827 13.3114   4
  -1   5  13 253.653 8.57145   2
   1   5  13 249.213 8.55027   2
   1   5  13 246.427 13.2747   4
  -1   5 -13 243.020 9.09115   2
   2   5 -13 92.4200 5.78140   2
  -2   5  13 101.252 8.66916   4
  -2   5  13 95.7547 5.13224   2
   2   5  13 100.941 5.25882   2
   2   5  13 91.7342 8.39149   4
  -2   5 -13 103.733 5.77031   2
  -3   5  13 142.825 6.33337   2
   3   5 -13 147.788 7.10294   2
  -3   5  13 156.065 10.1803   4
  -3   5 -13 148.760 6.86600   2
   3   5  13 147.170 10.0687   4
   3   5  13 151.216 6.50044   2
  -4   5  13 -0.4432 2.27743   2
  -4   5  13 -3.1347 3.32354   4
   4   5 -13 0.51991 2.39056   2
   4   5  13 -0.8590 3.42574   4
   4   5  13 0.93858 2.31671   2
  -4   5 -13 1.74505 2.45739   2
  -5   5  13 307.895 10.5059   2
  -5   5  13 304.519 15.0436   4
   5   5 -13 296.093 11.2574   2
  -5   5 -13 318.047 10.9668   2
   5   5  13 308.663 14.9725   4
   5   5  13 316.204 10.6557   2
  -6   5  13 68.3145 7.26216   4
   6   5 -13 75.3370 5.59758   2
  -6   5  13 66.1561 5.18866   2
   6   5  13 71.5978 7.32114   4
   6   5  13 75.9580 5.57763   2
  -6   5 -13 67.9038 5.08484   2
  -6   5 -13 64.9401 5.78577   5
   7   5 -13 -1.5329 2.59787   2
  -7   5  13 -0.0477 3.57928   4
  -7   5  13 -3.9542 2.56648   2
   7   5  13 -3.1573 2.61692   2
  -7   5 -13 2.31433 2.96814   2
  -7   5 -13 -3.3272 3.30108   5
  -8   5  13 4.67250 2.91275   2
   8   5 -13 1.20731 2.21886   1
  -8   5  13 10.2904 4.11106   5
   8   5 -13 1.09864 3.06367   2
  -8   5  13 8.40153 4.27414   4
  -8   5 -13 8.52100 3.24137   2
  -8   5 -13 6.66937 3.80131   5
   8   5  13 10.0119 3.16429   2
  -9   5  13 67.4119 5.25941   2
   9   5 -13 59.5137 5.59270   2
  -9   5  13 67.1000 7.11971   4
   9   5 -13 71.0855 4.93943   1
  -9   5  13 73.9582 6.75093   5
  -9   5 -13 66.1133 6.41658   5
   9   5  13 66.6929 5.49892   2
  -9   5 -13 66.3699 5.68478   2
  10   5 -13 17.2754 4.16081   2
  10   5 -13 18.4449 4.08625   2
 -10   5  13 19.9265 4.91371   5
  10   5 -13 14.6521 3.05485   1
 -10   5  13 17.5052 3.77568   2
  10   5  13 20.4554 4.08979   2
 -10   5 -13 25.6384 4.23163   2
 -10   5 -13 11.0330 4.38952   5
  11   5 -13 24.8853 4.59698   2
 -11   5  13 22.7781 5.14782   5
 -11   5  13 22.0221 4.15802   2
  11   5 -13 32.0334 3.68116   1
  11   5  13 23.4431 4.26439   2
 -11   5 -13 21.5304 4.74077   5
 -11   5 -13 19.3487 4.25995   2
   0   6  13 4.96510 2.19165   2
   0   6 -13 -2.3831 2.08244   2
   0   6  13 -5.3608 3.40173   4
  -1   6  13 19.2829 2.62580   2
  -1   6  13 11.0006 4.56866   4
   1   6 -13 17.2783 2.92854   2
  -1   6 -13 10.7737 2.55524   2
   1   6  13 19.1448 2.67501   2
   1   6  13 18.3479 5.12119   4
  -2   6  13 43.2559 3.42946   2
   2   6 -13 37.2696 3.76238   2
  -2   6  13 39.5892 6.13050   4
   2   6  13 42.7617 6.30419   4
  -2   6 -13 37.1074 3.74232   2
   2   6  13 44.0848 3.45938   2
  -3   6  13 29.9501 3.19735   2
  -3   6  13 44.5255 6.28253   4
   3   6 -13 38.2034 3.78448   2
   3   6  13 41.5909 6.14294   4
  -3   6 -13 34.8502 3.69880   2
   3   6  13 35.1474 3.42912   2
   4   6 -13 474.804 14.9588   2
  -4   6  13 456.885 14.1591   2
  -4   6  13 460.998 20.4765   4
   4   6  13 465.617 14.1996   2
   4   6  13 475.665 20.3151   4
  -4   6 -13 462.400 14.7025   2
   5   6 -13 11.5827 3.00283   2
  -5   6  13 17.9351 2.85967   2
  -5   6  13 9.45831 4.56231   4
  -5   6 -13 13.8608 3.06247   2
   5   6  13 15.1210 3.03453   2
   5   6  13 18.2711 4.74727   4
  -6   6  13 15.7160 5.00433   4
   6   6 -13 18.3364 3.43683   2
  -6   6  13 12.3558 2.98443   2
  -6   6 -13 16.2897 3.21734   2
   6   6  13 14.1673 3.05616   2
   7   6 -13 15.8677 3.56072   2
  -7   6  13 17.4340 3.29788   2
  -7   6  13 18.2025 5.13723   4
  -7   6 -13 19.1397 4.48896   5
   7   6  13 27.3594 3.75921   2
  -7   6 -13 24.1607 3.83260   2
  -8   6  13 5.81865 3.15735   2
  -8   6  13 0.45282 4.00523   4
   8   6 -13 2.49737 3.07806   2
  -8   6 -13 -0.1495 3.54659   5
  -8   6 -13 0.74172 2.84080   2
   8   6  13 1.46344 2.95441   2
  -9   6  13 10.1673 4.83145   4
  -9   6  13 10.5448 3.22366   2
   9   6 -13 8.27553 3.48204   2
  -9   6 -13 6.88059 3.56887   2
  -9   6 -13 8.07238 4.28569   5
   9   6  13 8.66020 3.52529   2
   0   7 -13 144.245 6.56729   2
   0   7  13 129.458 6.07197   2
   0   7  13 132.118 10.4882   4
  -1   7  13 99.2430 9.52974   4
   1   7 -13 107.715 5.94913   2
  -1   7  13 114.449 5.52725   2
   1   7  13 101.278 9.53640   4
   1   7  13 106.747 5.52678   2
  -1   7 -13 109.356 5.84955   2
  -2   7  13 59.0125 4.65088   2
   2   7 -13 70.0915 5.25968   2
  -2   7 -13 62.7788 4.93525   2
   2   7  13 59.5859 4.62679   2
   2   7  13 57.3507 7.45168   4
  -3   7  13 98.2947 5.43572   2
   3   7 -13 101.899 6.10784   2
   3   7  13 102.766 9.21539   4
   3   7  13 92.9862 5.51900   2
  -3   7 -13 90.4387 5.94247   2
   4   7 -13 -1.2872 2.37981   2
  -4   7  13 0.92368 2.27867   2
   4   7  13 2.15286 3.96593   4
  -4   7 -13 1.15271 2.44479   2
   4   7  13 6.92466 2.76091   2
  -5   7  13 201.057 8.08408   2
   5   7 -13 205.191 9.01820   2
  -5   7 -13 202.338 8.65863   2
   5   7  13 199.061 8.21127   2
   0   0  14 92.5059 5.29473   1
   0   0  14 91.9978 5.11632   2
   0   0 -14 94.7876 5.29116   1
   1   0  14 104.412 5.61365   1
   1   0  14 97.9258 5.34914   2
  -1   0 -14 105.152 5.74531   1
   1   0 -14 94.8253 5.51611   1
  -1   0  14 105.530 5.58826   1
  -1   0  14 94.1110 5.33015   2
  -2   0 -14 2.29656 2.39219   1
  -2   0  14 -0.9012 2.16969   1
  -2   0  14 0.09723 2.24248   2
   2   0  14 3.85914 2.34518   1
   2   0  14 0.25612 2.62329   2
  -3   0  14 824.081 25.5662   3
   3   0 -14 769.883 22.0317   1
  -3   0 -14 773.952 22.1098   1
  -3   0  14 789.788 22.0512   1
   3   0  14 731.604 22.0275   1
  -4   0 -14 43.3927 4.05754   1
  -4   0  14 39.5170 3.82740   1
   4   0  14 36.1574 3.82127   1
   4   0 -14 32.9070 3.64038   1
  -4   0  14 35.4553 3.98521   3
  -5   0  14 73.2169 5.31931   1
   5   0  14 58.5968 4.66123   1
   5   0 -14 68.9175 5.30051   1
  -5   0 -14 73.4287 5.66726   1
   6   0  14 160.554 7.63709   1
  -6   0 -14 170.590 7.74545   1
  -6   0  14 173.800 7.76392   1
   6   0 -14 164.164 7.63784   1
  -7   0  14 48.2703 4.65259   1
   7   0 -14 43.8628 4.56176   1
   7   0  14 44.3691 4.40991   1
  -7   0 -14 48.9697 4.51688   1
  -8   0  14 169.694 8.20573   1
   8   0  14 162.161 8.05474   1
  -8   0 -14 150.491 8.16594   1
   8   0 -14 174.248 8.08727   1
  -9   0 -14 467.451 15.6758   1
   9   0  14 450.445 15.4074   1
  -9   0  14 470.508 15.5122   1
   9   0 -14 475.852 15.5416   1
 -10   0  14 26.7373 4.44185   1
  10   0  14 22.9478 4.24736   1
 -10   0 -14 32.4414 4.50634   1
  10   0 -14 22.6245 4.22802   1
  11   0 -14 473.348 16.4499   1
 -11   0 -14 495.099 16.7080   1
  11   0  14 467.048 16.4821   1
 -11   0  14 495.636 16.5825   1
 -11   0  14 489.870 17.3356   5
  12   0 -14 116.834 8.10865   1
 -12   0  14 131.377 8.46356   1
 -12   0  14 121.325 9.11267   5
 -12   0 -14 142.260 8.93568   1
  12   0  14 129.431 8.27957   1
  13   0 -14 217.782 10.6757   1
  13   0  14 224.274 10.7886   1
 -13   0 -14 230.161 11.4576   1
 -13   0  14 200.261 11.2176   5
 -13   0  14 221.436 10.7530   1
  14   0  14 -1.7955 4.02326   1
 -14   0  14 1.67289 4.25256   5
 -14   0  14 -0.1789 3.76956   1
 -14   0 -14 -0.9670 4.14914   1
   0  -1 -14 4.21381 2.48920   3
   0   1 -14 0.20797 1.95196   2
   0   1  14 3.19946 2.18121   2
   0   1 -14 2.62050 2.29774   1
   0  -1 -14 0.15555 2.22440   1
   0  -1  14 3.68106 2.32644   1
   0   1  14 0.33734 2.17322   1
  -1  -1 -14 286.095 11.5919   3
   1  -1  14 317.609 10.4221   1
   1   1 -14 308.880 10.1202   2
  -1   1  14 299.331 10.0591   1
  -1  -1 -14 295.752 10.2770   1
  -1   1  14 293.666 11.5507   3
  -1   1  14 304.230 9.99172   2
  -1   1 -14 294.399 10.0291   2
   1  -1 -14 303.837 10.1911   1
   1   1  14 298.691 10.0732   1
  -1  -1  14 305.470 10.2454   1
  -1   1 -14 289.430 10.1565   1
   1   1  14 293.027 10.0183   2
   2   1 -14 10.1200 2.48565   2
   2  -1  14 6.79079 2.53078   1
   2   1 -14 10.9696 2.74086   1
  -2  -1 -14 7.05434 2.54847   1
  -2   1  14 9.41349 2.60258   3
  -2   1  14 5.26286 2.41544   1
  -2   1  14 11.4001 2.50885   2
  -2  -1  14 9.18558 2.52618   1
   2   1  14 7.10368 2.44373   2
  -2   1 -14 6.35465 2.46987   2
   2   1  14 7.80255 2.51797   1
  -2   1 -14 8.36405 2.71139   1
   2  -1 -14 9.53999 2.71816   1
  -3   1  14 21.8885 2.96587   2
   3   1 -14 19.0744 3.07599   1
  -3   1  14 17.5505 2.99046   1
  -3  -1 -14 23.8220 3.31821   1
   3  -1  14 23.8590 3.21071   1
  -3   1 -14 20.9239 3.22217   1
  -3   1 -14 14.0318 2.84817   2
   3   1  14 20.8744 3.13778   1
   3   1  14 25.8058 3.20467   2
  -3  -1  14 22.9665 3.26775   1
   3  -1 -14 18.8638 3.00136   1
  -4   1  14 249.581 9.18920   1
  -4  -1 -14 257.232 9.50817   1
   4   1 -14 253.560 9.46680   1
  -4   1  14 262.644 9.11898   2
   4  -1  14 258.002 9.52348   1
   4   1  14 253.751 9.37766   2
  -4   1 -14 235.021 9.35983   1
  -4  -1  14 261.122 9.53085   1
   4   1  14 255.691 9.48459   1
   5  -1  14 20.7372 3.35445   1
  -5   1  14 14.2786 2.96958   1
   5   1 -14 11.7086 3.01300   1
  -5   1  14 21.5565 2.95755   2
  -5   1 -14 16.1566 3.21558   1
   5   1  14 10.4814 2.97557   1
  -5  -1  14 9.02786 2.97388   1
   5   1  14 13.4183 3.05621   2
  -6   1  14 84.5783 5.67532   1
  -6   1  14 93.9031 7.92618   4
  -6   1  14 86.4607 5.58702   2
   6  -1  14 78.8170 5.89873   1
   6   1 -14 89.9433 6.02760   1
   6   1  14 80.0961 5.78084   1
  -6   1 -14 79.1082 5.86703   1
   6   1  14 78.4230 5.72267   2
  -6  -1  14 90.0045 6.09161   1
   7   1 -14 159.032 7.75073   1
   7  -1  14 149.459 7.76233   1
  -7   1  14 162.431 7.58506   1
  -7   1  14 174.886 9.79007   4
  -7  -1  14 157.427 7.88005   1
  -7   1 -14 157.451 7.96867   1
   7   1  14 157.472 7.69110   1
  -8   1  14 -1.6490 2.81051   1
  -8   1  14 1.10595 3.42751   4
   8  -1  14 2.92191 3.11994   1
   8   1 -14 3.80259 3.02097   1
  -8   1 -14 5.32344 3.03269   1
  -8  -1  14 3.04628 3.14799   1
   8   1  14 -0.0421 2.88094   1
  -9   1  14 37.7397 5.04258   5
  -9   1  14 38.7065 4.40599   1
   9  -1  14 42.8761 4.91126   1
   9   1 -14 49.4698 4.88455   1
   9   1  14 43.9655 4.60411   1
  -9   1 -14 38.1590 4.62061   1
  -9  -1  14 40.3143 4.86434   1
 -10   1  14 3.69871 3.72500   5
  10  -1  14 0.83211 3.48306   1
  10   1 -14 -3.0772 3.11938   1
 -10   1  14 2.84300 3.27296   1
 -10  -1  14 3.94157 3.41229   1
  10   1  14 2.39590 3.34203   1
 -10   1 -14 0.74033 3.19351   1
  11  -1  14 580.599 19.1615   1
  11   1 -14 559.226 18.0764   1
 -11   1  14 539.313 18.7471   5
 -11   1  14 550.281 17.7990   1
 -11   1 -14 573.499 18.4097   1
 -11  -1  14 532.764 18.1231   1
  11   1  14 525.423 17.9184   1
 -12   1  14 7.46093 3.85686   1
  12   1 -14 -0.0275 3.59294   1
 -12   1  14 4.90662 4.15408   5
 -12  -1  14 2.31438 4.07791   1
 -12   1 -14 15.1992 4.27291   1
  12   1  14 6.54228 3.84375   1
  13   1 -14 51.3615 5.55485   1
 -13   1  14 33.1964 5.57554   5
 -13   1  14 40.4308 5.13575   1
 -13  -1  14 45.9823 5.91745   5
 -13  -1  14 44.2583 5.78045   1
 -13   1 -14 41.1790 5.69192   1
  13   1  14 42.8848 5.35347   1
  14   1 -14 13.1947 4.21971   1
 -14   1  14 11.6256 4.70399   5
 -14   1  14 19.8780 4.54515   1
 -14  -1  14 20.0686 4.87242   5
 -14  -1  14 18.1954 5.36180   1
  14   1  14 22.6008 4.84994   1
 -14   1 -14 9.59041 4.41021   1
   0  -2 -14 126.459 6.64959   3
   0   2  14 109.230 10.1897   4
   0   2  14 127.079 7.63098   3
   0   2  14 123.196 5.69353   1
   0   2 -14 115.082 6.03587   1
   0   2 -14 118.678 5.87186   2
   0   2  14 117.069 5.80170   2
  -1   2  14 231.352 8.23765   2
   1   2 -14 231.542 8.36700   2
  -1  -2 -14 237.192 9.66537   3
  -1   2  14 206.368 12.7925   4
   1   2 -14 226.191 8.51976   1
  -1   2  14 219.240 7.99610   1
   1   2  14 223.479 8.06386   1
  -1   2 -14 233.222 8.65120   1
  -1   2 -14 222.591 8.28254   2
   1   2  14 234.817 8.29752   2
   1   2  14 168.897 13.5368   4
  -2   2  14 117.672 5.61411   2
   2   2 -14 110.085 5.73764   2
   2   2 -14 106.348 5.93606   1
  -2   2  14 105.938 5.41903   1
  -2   2  14 95.9964 8.83399   4
   2   2  14 117.712 5.83229   2
   2   2  14 110.726 5.58631   1
  -2   2 -14 112.033 5.92944   1
  -2   2 -14 103.660 5.71533   2
   3   2 -14 15.8473 2.88689   2
  -3   2  14 13.6439 4.36176   4
  -3   2  14 15.8387 2.76221   2
  -3   2  14 14.1695 2.55056   1
   3   2 -14 12.4250 2.90000   1
   3   2  14 16.3437 2.91311   2
  -3   2 -14 20.2811 3.13768   1
   3   2  14 13.2932 2.73431   1
  -3   2 -14 13.9849 2.93348   2
  -4   2  14 149.843 6.65654   2
  -4   2  14 156.625 9.79895   4
   4   2 -14 143.091 6.86529   2
   4   2 -14 158.220 7.21358   1
  -4   2  14 140.002 6.46785   1
  -4   2 -14 153.653 7.21828   1
   4   2  14 149.629 6.77333   1
   4   2  14 128.006 12.3245   4
  -4   2 -14 149.056 6.80022   2
   4   2  14 152.726 6.84036   2
   5   2 -14 565.900 17.1402   1
   5   2 -14 582.292 17.1643   2
  -5   2  14 537.573 16.5508   1
  -5   2  14 600.110 22.4696   4
  -5   2  14 560.202 16.6407   2
  -5   2  14 571.191 17.6533   5
  -5   2 -14 544.163 17.1454   1
   5   2  14 558.123 16.7865   1
   5   2  14 554.230 16.7129   2
   5   2  14 569.182 24.9622   4
  -5   2 -14 552.309 16.8937   2
   6   2 -14 426.687 14.0761   1
  -6   2  14 432.735 13.6109   1
  -6   2  14 427.771 13.6826   2
   6   2 -14 460.311 14.8066   2
  -6   2  14 432.279 14.6515   5
  -6   2  14 469.681 18.3923   4
   6   2  14 422.967 19.9758   4
  -6   2 -14 420.556 14.0208   1
  -6   2 -14 417.498 13.9857   2
   6   2  14 419.249 13.8057   2
   6   2  14 434.041 13.8923   1
   7   2 -14 466.570 14.9475   1
  -7   2  14 454.388 14.3665   1
  -7   2  14 486.761 18.8497   4
  -7   2  14 458.144 14.6201   2
  -7   2  14 458.538 15.4871   5
   7   2  14 455.190 14.6769   1
   7   2  14 443.447 20.1023   4
  -7   2 -14 450.968 14.9410   1
   7   2  14 452.956 14.6339   2
  -7   2 -14 445.663 14.7697   5
  -8   2  14 48.2405 4.44922   1
   8   2 -14 49.5070 4.90361   1
  -8   2  14 67.0517 5.06803   2
  -8   2  14 52.7387 5.23624   5
  -8   2  14 56.0649 6.34364   4
  -8   2 -14 62.0278 5.11079   5
   8   2  14 63.9683 5.25269   2
   8   2  14 58.0170 4.86033   1
  -8   2 -14 47.0584 4.70282   1
   9   2 -14 38.1415 4.53380   1
  -9   2  14 33.2993 4.81232   5
  -9   2  14 35.0041 4.06723   1
  -9   2 -14 40.6937 4.49106   5
  -9   2 -14 39.1115 4.55345   1
   9   2  14 40.1945 4.41198   1
 -10   2  14 30.7102 4.77596   5
  10   2 -14 30.8902 4.33000   1
 -10   2  14 24.4415 3.91177   1
 -10   2 -14 29.4973 4.45462   1
  10   2  14 37.7191 4.43081   1
 -10   2 -14 28.4149 4.32326   5
 -11   2  14 1.52908 3.88497   5
 -11   2  14 4.61210 3.35394   1
  11   2 -14 0.76237 3.59695   1
 -11   2 -14 11.9151 3.87273   1
  11   2  14 13.2560 3.88911   1
 -12   2  14 15.2797 3.80984   1
  12   2 -14 18.3247 4.25924   1
 -12   2  14 7.66893 4.36393   5
  12   2  14 8.36354 3.97568   1
 -12   2 -14 19.3099 4.17652   1
  13   2 -14 166.401 9.38618   1
 -13   2  14 163.875 10.3531   5
 -13   2  14 178.890 9.02911   1
  13   2  14 159.186 8.92748   1
 -13   2 -14 155.754 9.36913   1
 -14   2  14 103.637 8.37282   5
 -14   2  14 115.772 7.93144   1
  14   2 -14 120.870 8.53504   1
 -14  -2  14 111.295 8.42384   5
 -14   2 -14 120.247 8.68481   1
  14   2  14 95.4019 7.95389   1
   0   3  14 -0.7793 1.81371   1
   0   3 -14 -1.3209 1.96717   2
   0   3 -14 -0.3387 2.10883   1
   0   3  14 -3.8729 3.72403   4
   0   3  14 -1.1868 2.03358   2
  -1   3  14 194.117 11.9072   4
   1   3 -14 220.756 8.20213   1
  -1   3  14 214.266 7.91192   2
   1   3 -14 212.545 8.02845   2
   1   3  14 212.014 7.93576   2
  -1   3 -14 217.118 8.05699   1
   1   3  14 196.097 12.6036   4
   1   3  14 204.432 7.27257   1
  -1   3 -14 208.964 8.10032   2
  -2   3  14 15.4093 4.33847   4
  -2   3  14 11.1297 2.50329   2
   2   3 -14 10.8530 2.69218   2
  -2   3  14 10.3504 2.17293   1
   2   3 -14 5.99879 2.51467   1
  -2   3 -14 9.79826 2.54245   1
   2   3  14 9.09779 2.53002   2
  -2   3 -14 6.90533 2.54206   2
   2   3  14 7.51812 2.08186   1
   2   3  14 11.5430 5.15892   4
  -3   3  14 20.1523 4.63541   4
   3   3 -14 20.9278 3.18668   2
  -3   3  14 28.5627 3.13467   2
   3   3 -14 19.7801 3.05536   1
  -3   3  14 22.1486 3.59544   5
  -3   3  14 19.5566 2.57304   1
   3   3  14 31.6232 6.20792   4
  -3   3 -14 20.8570 3.03510   2
   3   3  14 17.8832 2.94498   2
  -3   3 -14 17.3269 2.98392   1
   3   3  14 24.4328 2.73516   1
  -4   3  14 170.166 6.64227   1
   4   3 -14 168.559 7.40076   1
  -4   3  14 194.568 8.61413   5
  -4   3  14 182.452 10.6943   4
  -4   3  14 169.763 7.19534   2
   4   3 -14 181.779 7.81044   2
   4   3  14 162.173 7.32421   2
  -4   3 -14 167.789 7.49257   2
   4   3  14 158.231 6.76760   1
   4   3  14 179.743 11.7894   4
  -4   3 -14 172.340 7.36584   1
  -5   3  14 6.90421 2.38916   1
  -5   3  14 13.2694 3.55963   5
  -5   3  14 5.65015 3.94204   4
   5   3 -14 6.92431 2.95305   2
  -5   3  14 10.6459 2.71338   2
   5   3 -14 4.44389 2.69752   1
   5   3  14 4.82211 4.24688   4
   5   3  14 10.9385 2.84745   2
   5   3  14 10.7761 2.61382   1
  -5   3 -14 3.64667 2.72952   2
  -5   3 -14 11.3068 2.86398   1
  -6   3  14 68.8137 6.78192   4
   6   3 -14 67.6654 5.50716   1
   6   3 -14 80.3970 5.99761   2
  -6   3  14 63.0949 4.85026   1
  -6   3  14 69.3871 5.25465   2
  -6   3  14 70.0466 5.86532   5
   6   3  14 59.0579 4.26450   1
  -6   3 -14 65.8971 4.95510   1
   6   3  14 65.4305 4.89318   2
   6   3  14 66.0110 7.35308   4
  -6   3 -14 79.7975 5.74036   2
   7   3 -14 120.536 6.83033   1
  -7   3  14 114.659 7.69299   5
  -7   3  14 114.575 6.70108   2
  -7   3  14 124.997 8.86795   4
  -7   3  14 115.372 6.15629   1
   7   3 -14 121.872 7.18787   2
  -7   3 -14 125.605 6.92193   1
  -7   3 -14 124.248 7.31421   5
  -7   3 -14 114.538 6.89699   2
   7   3  14 113.727 6.76567   2
   7   3  14 113.700 6.23540   1
   8   3 -14 4.51589 3.43234   2
  -8   3  14 0.18830 3.44433   5
   8   3 -14 4.85887 2.94912   1
  -8   3  14 -0.1908 2.60909   1
  -8   3  14 1.45234 3.76389   4
  -8   3  14 2.31052 3.11280   2
  -8   3 -14 -3.6991 3.06577   5
  -8   3 -14 -1.1330 2.89975   2
   8   3  14 -3.2516 2.75876   2
   8   3  14 8.52348 2.92976   1
  -8   3 -14 -1.3783 2.80867   1
   9   3 -14 38.3181 4.41161   1
  -9   3  14 34.4636 4.26155   2
  -9   3  14 35.3595 3.71566   1
  -9   3  14 31.3784 4.90186   5
  -9   3 -14 41.0658 4.40725   1
   9   3  14 38.0786 4.48670   2
  -9   3 -14 34.2935 4.66822   5
   9   3  14 28.6878 3.85050   1
 -10   3  14 -1.7803 2.78439   1
 -10   3  14 2.14884 3.80889   5
 -10   3  14 -0.4254 3.13089   2
  10   3 -14 1.92593 3.19877   1
 -10   3 -14 -0.9663 3.06736   1
 -10   3 -14 4.56783 3.57456   5
  10   3  14 5.73065 3.23730   1
  10   3  14 -0.1520 3.13763   2
 -11   3  14 456.419 15.3739   1
  11   3 -14 493.073 16.2884   1
 -11   3  14 488.346 17.5446   5
 -11   3 -14 476.591 16.2492   1
 -11   3 -14 499.232 16.7986   5
  11   3  14 486.691 15.7689   1
 -12   3  14 1.16079 4.19822   5
  12   3 -14 5.87072 3.58968   1
 -12   3  14 2.01522 3.17829   1
  12   3  14 2.19564 3.56984   1
 -12   3 -14 6.96546 3.93100   5
 -12   3 -14 6.04946 3.72330   1
 -13   3  14 31.6279 5.69305   5
  13   3 -14 27.6567 4.70170   1
 -13   3  14 36.6873 4.44734   1
  13   3  14 27.0204 4.42756   1
 -13   3 -14 37.6370 5.02331   1
   0   4 -14 53.5398 3.68707   1
   0   4  14 62.3689 4.51887   2
   0   4 -14 59.8783 4.82689   2
   0   4  14 48.7153 6.64220   4
   1   4 -14 53.4862 4.11448   2
  -1   4  14 61.4485 6.93355   4
  -1   4  14 48.1190 3.67784   2
   1   4 -14 53.8635 3.72458   1
   1   4  14 51.3838 3.84857   2
  -1   4 -14 59.2796 4.26513   1
   1   4  14 49.4702 6.60202   4
  -1   4 -14 49.0447 4.10167   2
  -2   4  14 -2.7135 3.54212   4
   2   4 -14 4.68930 2.46666   2
   2   4 -14 -3.8435 1.80870   1
  -2   4  14 -4.1291 1.99259   2
   2   4  14 0.00875 3.78072   4
   2   4  14 1.52931 2.19557   2
  -2   4 -14 2.32215 2.03486   1
  -2   4 -14 4.45310 2.42905   2
  -3   4  14 416.159 18.5753   4
   3   4 -14 429.145 13.6932   2
   3   4 -14 419.204 12.8997   1
  -3   4  14 414.042 13.0494   2
   3   4  14 420.737 19.0057   4
  -3   4 -14 437.298 13.5224   2
   3   4  14 428.667 13.1790   2
  -3   4 -14 413.266 12.7831   1
   4   4 -14 15.4506 3.23324   2
   4   4 -14 16.4114 2.76811   1
  -4   4  14 21.5979 4.86413   4
  -4   4  14 16.6774 2.87656   2
  -4   4 -14 18.8416 3.16027   2
   4   4  14 14.8025 4.84404   4
  -4   4 -14 15.6204 2.67344   1
   4   4  14 11.4785 2.83122   2
  -5   4  14 47.7413 6.03816   4
   5   4 -14 42.0862 4.34888   2
   5   4 -14 43.7281 3.73299   1
  -5   4  14 44.0156 3.91569   2
   5   4  14 42.6435 4.02070   2
  -5   4 -14 43.9729 4.32140   2
   5   4  14 55.6782 6.69633   4
  -6   4  14 91.2546 7.40666   5
  -6   4  14 97.3925 8.43459   4
  -6   4  14 95.1954 5.89198   2
   6   4 -14 94.4405 6.62862   2
   6   4 -14 83.7672 5.56487   1
   6   4  14 95.0357 6.07090   2
  -6   4 -14 93.7782 5.75950   1
   6   4  14 96.9867 8.55491   4
  -6   4 -14 94.3233 6.34232   2
  -7   4  14 21.0747 4.42155   5
  -7   4  14 19.7871 4.73812   4
   7   4 -14 14.0632 3.01714   1
  -7   4  14 23.6067 3.62296   2
   7   4 -14 18.0817 3.68512   2
   7   4  14 29.0189 3.76598   2
  -7   4 -14 19.9792 3.60180   2
  -7   4 -14 23.4038 4.29240   5
  -7   4 -14 22.3207 3.31721   1
   7   4  14 27.7118 2.91832   1
   8   4 -14 102.064 6.16539   1
  -8   4  14 84.6378 7.02053   5
  -8   4  14 96.9218 5.31876   1
  -8   4  14 106.683 6.72497   2
   8   4 -14 102.370 7.18769   2
  -8   4  14 101.036 8.59636   4
  -8   4 -14 94.7114 7.55622   5
  -8   4 -14 95.6030 6.30145   1
   8   4  14 97.4732 5.17540   1
  -8   4 -14 92.9089 6.92069   2
   8   4  14 94.5129 6.75490   2
  -9   4  14 316.012 15.2704   4
  -9   4  14 310.597 13.2245   5
   9   4 -14 281.448 10.8970   1
   9   4 -14 325.492 12.4381   2
  -9   4  14 293.602 10.0390   1
  -9   4  14 302.537 11.5072   2
  -9   4 -14 304.079 11.9185   2
   9   4  14 301.157 11.6304   2
  -9   4 -14 290.483 11.0374   1
  -9   4 -14 309.585 12.5300   5
   9   4  14 303.462 10.1544   1
  10   4 -14 11.6320 3.36777   1
 -10   4  14 13.7564 3.83951   2
 -10   4  14 15.0600 2.97493   1
 -10   4  14 16.1527 4.76175   5
 -10   4 -14 25.6565 4.73182   5
 -10   4 -14 19.1140 4.26884   2
  10   4  14 18.1145 4.03881   2
 -10   4 -14 15.3542 3.72138   1
  10   4  14 21.9407 3.33080   1
 -11   4  14 314.182 12.1782   2
 -11   4  14 307.548 13.4632   5
 -11   4  14 309.144 10.8223   1
  11   4 -14 296.957 11.5760   1
  11   4  14 319.182 12.6735   2
 -11   4 -14 315.353 13.1526   5
  11   4  14 318.672 11.0114   1
 -11   4 -14 333.285 12.0268   1
 -12   4  14 67.7591 6.05643   2
 -12   4  14 79.8392 5.89878   1
  12   4 -14 74.9913 5.77159   1
 -12   4  14 78.0322 7.09744   5
  12   4  14 67.5340 5.12324   1
 -12   4 -14 83.0755 6.92837   5
 -12   4 -14 75.0988 5.96530   1
   0   5  14 -1.9555 2.10426   2
   0   5 -14 3.05425 2.18825   2
   0   5  14 6.83027 4.28947   4
   1   5 -14 139.814 6.91600   2
  -1   5  14 155.237 10.5560   4
  -1   5  14 152.783 6.52680   2
   1   5  14 146.171 6.46107   2
  -1   5 -14 149.149 6.86296   2
   1   5  14 154.693 10.8488   4
  -2   5  14 2.24366 2.35011   2
  -2   5  14 4.16954 4.01427   4
   2   5 -14 -0.6935 2.19205   2
   2   5  14 3.02934 2.29480   2
  -2   5 -14 0.16351 2.39088   2
   2   5  14 0.05220 4.16095   4
  -3   5  14 4.28341 4.20678   4
  -3   5  14 4.87502 2.50298   2
   3   5 -14 5.60261 2.60342   2
  -3   5 -14 0.95073 2.58091   2
   3   5  14 4.81514 2.65050   2
   3   5  14 8.33240 4.28917   4
   4   5 -14 129.631 7.08965   2
  -4   5  14 141.863 6.60969   2
  -4   5  14 126.857 10.0097   4
  -4   5 -14 144.379 7.04998   2
   4   5  14 142.566 6.74303   2
   4   5  14 145.138 10.2014   4
   5   5 -14 15.2917 3.31212   2
  -5   5  14 12.7236 3.00540   2
  -5   5  14 12.3887 4.62623   4
   5   5  14 8.95160 4.32425   4
   5   5  14 10.5597 2.93422   2
  -5   5 -14 10.3151 2.99092   2
  -6   5  14 44.6040 4.08575   2
  -6   5  14 39.9484 6.01930   4
   6   5 -14 47.6428 4.69345   2
   6   5  14 38.6583 4.04697   2
   6   5  14 41.9628 6.46058   4
  -6   5 -14 43.3052 4.31299   2
  -7   5  14 73.1410 5.87512   2
   7   5 -14 104.146 6.81274   2
  -7   5  14 97.8382 8.88745   4
   7   5 -14 91.3179 5.07687   1
   7   5  14 90.7220 6.42181   2
  -7   5 -14 78.4867 6.62604   5
  -7   5 -14 91.0596 6.49262   2
  -8   5  14 0.67964 2.97134   2
  -8   5  14 6.03443 4.21772   4
   8   5 -14 -0.7275 3.05199   2
   8   5 -14 -1.7974 2.33168   1
  -8   5 -14 1.38117 3.66487   5
  -8   5 -14 3.45125 3.19500   2
   8   5  14 0.15685 2.98983   2
   9   5 -14 21.7078 4.41811   2
  -9   5  14 26.7098 4.24750   2
   9   5 -14 29.7002 3.39314   1
  -9   5  14 22.2747 4.92657   5
  -9   5  14 21.5066 5.25817   4
  -9   5 -14 25.4085 4.83203   5
  -9   5 -14 23.9525 4.39002   2
   9   5  14 22.5123 4.02274   2
  10   5 -14 -5.3597 2.44185   1
 -10   5  14 -0.1974 3.30838   2
  10   5 -14 -0.5268 3.40441   2
 -10   5  14 -2.3324 3.94999   5
  10   5 -14 4.91582 3.54961   2
 -10   5 -14 -2.5218 3.90069   5
  10   5  14 2.04320 3.40206   2
 -10   5 -14 -0.8752 3.34317   2
   0   6  14 49.3141 6.99687   4
   0   6  14 44.6532 3.56138   2
   0   6 -14 51.1910 4.19405   2
  -1   6  14 76.8691 4.92283   2
   1   6 -14 81.5812 5.51991   2
  -1   6  14 82.1937 8.42455   4
   1   6  14 90.8522 9.23376   4
   1   6  14 75.5252 4.90400   2
  -1   6 -14 82.4816 5.55173   2
   2   6 -14 42.9005 4.18360   2
  -2   6  14 42.0884 3.51080   2
  -2   6  14 34.6856 6.19957   4
   2   6  14 37.2737 3.50233   2
  -2   6 -14 45.7055 4.12580   2
   2   6  14 39.9715 6.42020   4
  -3   6  14 3.68391 4.05123   4
   3   6 -14 1.91788 2.53108   2
  -3   6  14 4.44264 2.40307   2
   3   6  14 1.50252 2.53812   2
  -3   6 -14 7.03478 2.57492   2
   3   6  14 2.79072 4.31006   4
   4   6 -14 59.3745 4.94318   2
  -4   6  14 56.1268 7.18121   4
  -4   6  14 51.6248 4.09288   2
   4   6  14 46.9906 6.74291   4
  -4   6 -14 55.7283 4.60784   2
   4   6  14 58.4966 4.43593   2
  -5   6  14 224.350 8.80250   2
  -5   6  14 218.820 13.3251   4
   5   6 -14 226.885 9.59465   2
   5   6  14 229.700 13.1703   4
   5   6  14 239.511 9.06798   2
  -5   6 -14 246.739 9.49917   2
   6   6 -14 182.347 8.55779   2
  -6   6  14 155.043 11.2371   4
  -6   6  14 169.613 7.65605   2
  -6   6 -14 166.678 8.18666   2
   6   6  14 176.750 7.97425   2
  -7   6  14 187.841 8.37936   2
  -7   6  14 187.420 12.1851   4
   7   6 -14 199.427 9.28036   2
  -7   6 -14 205.202 9.05440   2
   7   6  14 192.546 8.63468   2
  -8   6  14 19.2984 3.61945   2
   8   6 -14 19.1392 4.19431   2
   8   6  14 23.4774 3.90314   2
  -8   6 -14 21.6653 4.12142   2
   0   7  14 0.43942 2.20811   2
   0   7 -14 -2.9798 2.19222   2
  -1   7  14 91.0059 5.31312   2
   1   7 -14 90.6241 5.83532   2
   1   7  14 87.2503 5.32591   2
  -1   7 -14 81.9764 5.72559   2
   2   7 -14 7.71315 2.66321   2
  -2   7  14 4.85051 2.51525   2
  -2   7 -14 5.31498 2.53373   2
   2   7  14 5.00039 2.59027   2
   3   7 -14 11.9761 2.89342   2
  -3   7  14 7.11473 2.60381   2
  -3   7 -14 13.6905 3.04962   2
   3   7  14 14.2041 2.87317   2
  -4   7  14 63.7469 4.91938   2
   4   7 -14 63.9866 5.26219   2
  -4   7 -14 60.0254 4.78072   2
   4   7  14 66.7395 5.25547   2
   0   0 -15 -1.8013 2.27414   1
   0   0  15 -0.4693 2.36304   1
   1   0  15 329.347 11.3043   1
  -1   0  15 340.720 11.3696   1
  -1   0 -15 343.394 11.4593   1
   1   0 -15 336.878 11.3611   1
  -2   0  15 31.5815 3.55729   1
  -2   0 -15 33.6723 3.70609   1
   2   0  15 31.4492 3.58763   1
   2   0 -15 31.0420 3.63399   1
  -3   0  15 25.1657 3.42703   1
  -3   0 -15 18.6533 3.32349   1
   3   0 -15 19.9181 3.24153   1
   3   0  15 18.1075 3.27353   1
  -4   0 -15 44.8059 4.35859   1
   4   0 -15 51.2370 4.40322   1
   4   0  15 54.0317 4.50763   1
  -4   0  15 54.5619 4.43172   1
   5   0  15 43.6822 4.37749   1
  -5   0 -15 54.8912 4.72593   1
   5   0 -15 47.7259 4.34038   1
  -5   0  15 52.0435 4.42929   1
  -6   0  15 203.213 8.72732   1
   6   0  15 202.271 8.79408   1
  -6   0 -15 196.994 8.93097   1
   6   0 -15 212.885 8.82673   1
   7   0 -15 593.854 18.0920   1
  -7   0  15 589.873 18.0683   1
  -7   0 -15 559.907 18.0083   1
   7   0  15 584.141 18.1175   1
  -8   0 -15 177.777 8.62341   1
   8   0 -15 177.653 8.53233   1
   8   0  15 175.325 8.59491   1
  -8   0  15 178.586 8.67458   1
  -9   0  15 152.805 8.49139   1
   9   0  15 158.325 8.39625   1
  -9   0 -15 153.905 8.65234   1
   9   0 -15 169.260 8.39915   1
 -10   0 -15 6.94755 3.80199   1
  10   0  15 13.5821 3.98927   1
  10   0 -15 10.8340 3.84126   1
 -10   0  15 5.74731 3.53150   1
  11   0  15 137.915 8.41261   1
 -11   0 -15 147.210 8.88363   1
  11   0 -15 136.264 8.34608   1
 -11   0  15 132.878 8.50712   1
 -11   0  15 124.078 9.33913   5
 -12   0 -15 -2.6280 3.85182   1
  12   0 -15 -2.1842 3.66054   1
 -12   0  15 -5.5142 4.01659   5
 -12   0  15 5.27523 3.94743   1
  12   0  15 -0.7227 3.69917   1
 -13   0 -15 -1.5501 3.82778   1
 -13   0  15 8.15725 4.38636   5
 -13   0  15 -5.8727 3.70063   1
  13   0  15 -4.7341 3.84116   1
 -14   0 -15 21.0944 5.21840   1
  14   0  15 11.8280 4.70736   1
 -14   0  15 15.4259 4.64792   1
 -14   0  15 23.0754 5.27292   5
   0   1 -15 1286.12 35.3063   1
   0  -1  15 1327.10 35.3661   1
   0  -1 -15 1302.78 40.7926   3
   0   1  15 1297.68 35.1868   1
   0   1  15 1327.47 34.8093   2
   1  -1  15 29.0900 3.53719   1
  -1  -1 -15 29.7188 3.78672   1
  -1   1  15 24.0173 3.17018   2
  -1   1  15 26.1747 3.28191   1
   1   1 -15 30.7326 3.51835   1
  -1   1 -15 28.2971 3.43278   1
   1   1  15 30.3615 3.58267   1
  -1  -1  15 28.2507 3.45093   1
   1   1  15 30.8949 3.41516   2
  -2   1  15 3.23065 2.26783   2
   2  -1  15 3.98134 2.56098   1
  -2   1  15 -0.7236 2.38206   1
   2   1 -15 2.52167 2.51984   1
  -2  -1  15 1.82966 2.51126   1
   2   1  15 1.60369 2.43848   2
  -2   1 -15 1.11350 2.45180   1
   2   1  15 0.43429 2.49241   1
   3   1 -15 103.813 5.98061   1
   3  -1  15 96.5195 6.14679   1
  -3   1  15 90.0816 5.71923   1
  -3   1  15 105.077 5.72038   2
  -3   1 -15 89.0529 6.07244   1
  -3  -1  15 100.684 6.06371   1
   3   1  15 99.3959 5.91890   2
   3   1  15 97.1544 5.98873   1
  -4   1  15 6.37653 2.79679   1
   4  -1  15 2.26648 2.67649   1
  -4   1  15 3.93700 2.54043   2
   4   1 -15 7.27352 2.81759   1
  -4   1 -15 5.33743 2.82382   1
   4   1  15 1.46661 2.62380   2
   4   1  15 5.51439 2.83057   1
  -4  -1  15 5.89235 2.82452   1
   5   1 -15 4.13044 2.76477   1
   5  -1  15 6.62659 2.99294   1
  -5   1  15 5.18067 2.57575   2
  -5   1  15 2.52486 2.69218   1
   5   1  15 6.42252 2.95357   2
  -5  -1  15 2.67844 2.77990   1
   5   1  15 4.62853 2.84335   1
  -5   1 -15 5.59734 2.83373   1
  -6   1  15 4.27863 2.86630   1
  -6   1  15 7.66652 4.21108   4
   6   1 -15 2.15899 3.08711   1
   6  -1  15 2.85036 2.88829   1
   6   1  15 4.31441 2.97454   1
  -6   1 -15 1.05220 2.86027   1
  -6  -1  15 2.22136 2.83281   1
  -7   1  15 206.309 10.8893   4
   7   1 -15 172.972 8.42366   1
  -7   1  15 175.372 8.23026   1
   7  -1  15 177.083 8.51412   1
  -7   1 -15 185.563 8.72500   1
   7   1  15 180.404 8.39779   1
  -7  -1  15 174.568 8.45484   1
  -8   1  15 106.225 7.96211   4
   8  -1  15 85.8366 6.66215   1
  -8   1  15 86.1463 6.50918   1
   8   1 -15 92.9257 6.52160   1
  -8  -1  15 82.0364 6.69325   1
   8   1  15 85.3579 6.50368   1
  -8   1 -15 77.2428 6.02961   1
  -9   1  15 -2.3358 3.73738   5
   9  -1  15 12.6174 3.75408   1
   9   1 -15 13.4627 3.77783   1
  -9   1  15 5.16825 3.13552   1
  -9  -1  15 4.71140 3.57578   1
  -9   1 -15 2.41117 3.46562   1
   9   1  15 5.20611 3.46096   1
  10   1 -15 40.0855 4.94458   1
  10  -1  15 38.7998 4.94619   1
 -10   1  15 44.2725 4.89842   1
 -10   1  15 52.4864 5.81214   5
  10   1  15 39.2866 4.75354   1
 -10   1 -15 29.5617 4.74426   1
 -10  -1  15 43.3178 5.21944   1
 -11   1  15 135.800 9.09760   5
  11   1 -15 122.352 7.84218   1
 -11   1  15 124.214 8.12704   1
 -11   1 -15 109.414 8.28447   1
 -11  -1  15 120.987 8.29261   1
  11   1  15 103.742 7.74248   1
 -12   1  15 324.748 13.0044   1
  12   1 -15 336.926 13.2358   1
 -12   1  15 336.420 14.0957   5
 -12  -1  15 344.158 13.8177   1
 -12   1 -15 351.848 13.5524   1
  12   1  15 324.452 13.1465   1
 -13   1  15 82.1501 6.54692   1
 -13   1  15 57.5246 6.53332   5
  13   1 -15 71.1337 6.45536   1
 -13   1 -15 78.1097 6.79305   1
 -13  -1  15 79.1902 6.99373   1
  13   1  15 86.9799 6.80738   1
 -13  -1  15 79.4893 7.25494   5
  14   1 -15 31.1844 5.20938   1
 -14   1  15 34.8400 5.60322   5
 -14   1  15 29.3259 4.64905   1
 -14  -1  15 24.3965 5.44249   5
 -14   1 -15 22.9767 5.19383   1
  14   1  15 35.6613 5.44363   1
   0   2 -15 -1.4442 2.25307   1
   0   2  15 4.27062 2.41884   1
   0   2  15 5.29590 5.27332   4
   0   2 -15 3.68897 2.40344   2
   0   2  15 1.67547 2.28259   2
  -1   2  15 735.854 20.0601   2
   1   2 -15 726.792 20.5514   1
  -1   2  15 738.415 20.0678   1
  -1   2  15 705.667 28.4503   4
   1   2 -15 699.041 20.1476   2
   1   2  15 732.936 20.1369   2
  -1   2 -15 702.437 20.1840   2
   1   2  15 718.969 20.0261   1
  -1   2 -15 703.421 20.4758   1
   1   2  15 570.621 28.9621   4
   2   2 -15 7.19073 2.65617   2
  -2   2  15 9.15755 4.79232   4
   2   2 -15 9.59493 2.70109   1
  -2   2  15 10.5953 2.64778   2
  -2   2  15 8.18244 2.56096   1
   2   2  15 11.1603 2.68084   1
   2   2  15 10.2323 2.77883   2
  -2   2 -15 12.6036 2.86323   1
  -2   2 -15 10.3591 2.65140   2
   3   2 -15 220.508 8.70386   1
  -3   2  15 221.433 8.26560   2
   3   2 -15 223.039 8.53472   2
  -3   2  15 195.517 7.97776   1
  -3   2  15 218.369 12.3077   4
   3   2  15 205.690 8.34817   2
  -3   2 -15 199.075 8.55711   1
   3   2  15 215.107 8.23545   1
  -3   2 -15 212.355 8.47195   2
   4   2 -15 48.5464 4.38399   2
  -4   2  15 54.7965 4.08537   1
  -4   2  15 62.4345 6.81387   4
   4   2 -15 66.6210 4.85516   1
  -4   2  15 61.7264 4.90794   2
  -4   2 -15 57.2279 4.64528   1
   4   2  15 58.4505 4.33378   1
   4   2  15 52.4163 4.38508   2
  -4   2 -15 49.3831 4.31538   2
   5   2 -15 25.9678 3.81305   1
  -5   2  15 24.4014 3.38212   2
  -5   2  15 26.2014 4.98052   4
  -5   2  15 26.9580 3.33180   1
   5   2  15 28.5498 3.61868   1
   5   2  15 27.8198 3.55752   2
  -5   2 -15 20.4901 3.39161   2
   5   2  15 27.0031 6.95690   4
  -5   2 -15 22.1646 3.55438   1
  -6   2  15 325.175 15.3468   4
   6   2 -15 336.908 11.8186   1
  -6   2  15 333.944 12.4054   5
  -6   2  15 318.509 11.3364   2
  -6   2  15 321.009 11.2572   1
   6   2  15 341.758 17.7104   4
   6   2  15 318.498 11.4580   2
   6   2  15 341.383 11.6095   1
  -6   2 -15 324.015 11.7753   1
  -7   2  15 157.292 9.66743   4
  -7   2  15 147.915 7.54945   2
   7   2 -15 151.524 7.77570   1
  -7   2  15 146.470 8.24337   5
  -7   2  15 143.702 7.21637   1
   7   2  15 144.034 7.62499   2
  -7   2 -15 141.980 7.71488   1
   7   2  15 149.235 7.54232   1
   7   2  15 156.540 11.4326   4
  -8   2  15 286.057 10.7378   1
  -8   2  15 316.150 14.1096   4
  -8   2  15 275.992 10.8941   2
  -8   2  15 270.690 11.7028   5
   8   2 -15 280.456 11.1472   1
  -8   2 -15 302.765 11.4667   1
   8   2  15 277.424 10.8578   1
  -9   2  15 259.019 11.6075   5
   9   2 -15 272.635 11.0170   1
  -9   2  15 256.393 10.3832   1
  -9   2 -15 274.203 11.0180   1
  -9   2 -15 266.901 10.7148   5
   9   2  15 264.620 10.6311   1
  10   2 -15 78.4873 6.17067   1
 -10   2  15 80.1573 6.71592   5
 -10   2  15 75.9269 5.69310   1
  10   2  15 77.7991 5.85666   1
 -10   2 -15 68.0566 5.95672   1
 -11   2  15 589.179 18.9451   1
 -11   2  15 589.752 20.1812   5
  11   2 -15 630.135 19.7408   1
  11   2  15 619.907 19.2506   1
 -11   2 -15 592.131 19.5791   1
 -12   2  15 13.7924 3.84310   1
 -12   2  15 12.3586 4.51627   5
  12   2 -15 13.4037 4.16476   1
  12   2  15 9.31733 3.99365   1
 -12   2 -15 1.24955 3.75605   1
 -13   2  15 9.78088 3.80422   1
 -13   2  15 10.8138 4.52063   5
  13   2 -15 11.6118 4.42523   1
  13   2  15 5.16299 4.04610   1
 -13   2 -15 10.1677 4.37448   1
   0   3  15 909.826 24.5096   2
   0   3  15 782.511 33.7881   4
   0   3  15 903.246 24.0979   1
   0   3 -15 914.599 24.9013   1
   0   3 -15 918.526 24.7783   2
  -1   3  15 25.6313 5.65754   4
  -1   3  15 24.0294 2.76331   1
  -1   3  15 25.3920 3.28244   2
   1   3 -15 25.5199 3.27420   2
   1   3 -15 27.1933 3.42719   1
  -1   3 -15 31.9646 3.45907   2
   1   3  15 26.1096 2.80604   1
   1   3  15 19.7515 5.76556   4
   1   3  15 28.3219 3.34306   2
  -1   3 -15 22.4894 3.15050   1
  -2   3  15 10.4162 4.64471   4
  -2   3  15 0.24545 2.04395   1
   2   3 -15 0.63512 2.44916   1
  -2   3  15 2.46423 2.47369   2
   2   3 -15 -0.6525 2.24895   2
   2   3  15 2.23747 4.86308   4
  -2   3 -15 -0.2700 2.28268   1
  -2   3 -15 -0.7939 2.37790   2
   2   3  15 3.31840 2.22771   1
   2   3  15 1.53346 2.39973   2
  -3   3  15 61.7753 6.83134   4
   3   3 -15 57.5809 4.45941   1
  -3   3  15 47.3266 3.57754   1
   3   3 -15 60.8249 4.75185   2
  -3   3  15 59.7393 4.42162   2
   3   3  15 61.6039 4.44685   1
  -3   3 -15 62.4514 4.62077   1
  -3   3 -15 65.7166 5.24492   2
   3   3  15 63.3005 5.07496   2
   3   3  15 53.0961 7.83865   4
  -4   3  15 8.39105 2.78015   2
  -4   3  15 7.99996 2.41818   1
   4   3 -15 4.65907 2.75316   2
   4   3 -15 11.3075 2.90201   1
  -4   3  15 3.67144 3.29698   5
  -4   3  15 4.42684 4.01382   4
  -4   3 -15 3.00445 2.60830   2
  -4   3 -15 9.63975 2.77570   1
   4   3  15 1.68688 2.39795   1
   4   3  15 6.22970 4.99181   4
   4   3  15 7.92687 2.81071   2
   5   3 -15 7.07183 2.80307   1
  -5   3  15 2.97548 4.25366   4
  -5   3  15 4.47200 2.41406   1
  -5   3  15 4.96406 3.68258   5
   5   3 -15 2.30818 2.88996   2
  -5   3  15 -0.9847 2.52726   2
  -5   3 -15 -2.4757 2.38873   2
   5   3  15 2.46147 2.57002   1
   5   3  15 3.65077 4.73611   4
   5   3  15 2.53936 2.66612   2
  -5   3 -15 3.47464 2.73141   1
  -6   3  15 2.54539 4.03301   4
  -6   3  15 6.10494 3.60245   5
  -6   3  15 5.35720 2.64455   1
   6   3 -15 1.18346 2.87822   2
   6   3 -15 8.04084 3.03528   1
  -6   3  15 2.73596 2.86781   2
  -6   3 -15 0.63091 2.80497   2
   6   3  15 5.36519 2.71506   1
  -6   3 -15 2.61885 2.75824   1
   6   3  15 3.70032 2.88158   2
   6   3  15 7.65432 4.63079   4
   7   3 -15 168.789 8.12715   1
   7   3 -15 167.125 8.44738   2
  -7   3  15 165.074 7.29642   1
  -7   3  15 166.860 10.4253   4
  -7   3  15 160.781 9.09378   5
  -7   3  15 157.943 7.86858   2
   7   3  15 176.955 7.57907   1
  -7   3 -15 175.818 8.24615   1
  -7   3 -15 165.261 8.37026   2
   7   3  15 158.194 8.05311   2
  -8   3  15 72.9142 6.35701   5
  -8   3  15 59.5645 5.09170   2
   8   3 -15 56.5530 5.07205   1
  -8   3  15 67.3819 5.48521   1
  -8   3  15 65.5777 6.82327   4
  -8   3 -15 59.0679 5.57406   5
   8   3  15 63.9051 5.35892   2
   8   3  15 66.2939 4.91151   1
  -8   3 -15 60.1305 5.13351   1
  -9   3  15 8.19332 3.12289   1
  -9   3  15 10.4432 3.48060   2
   9   3 -15 3.58276 3.14069   1
  -9   3  15 4.85814 3.94721   5
  -9   3 -15 6.88550 3.49506   5
  -9   3 -15 5.81209 3.32650   1
   9   3  15 0.86348 3.19234   2
   9   3  15 2.03255 3.08674   1
 -10   3  15 34.5855 5.38426   5
 -10   3  15 38.5675 4.81411   2
 -10   3  15 35.6610 4.07116   1
  10   3 -15 36.9862 4.71761   1
  10   3  15 35.0877 4.29048   1
 -10   3 -15 40.1536 5.29208   5
 -10   3 -15 39.5838 4.69597   1
 -11   3  15 70.2838 5.32331   1
 -11   3  15 74.4576 6.90149   5
  11   3 -15 80.9202 6.28786   1
 -11   3 -15 84.4076 6.75052   5
  11   3  15 88.9581 6.80538   1
 -11   3 -15 88.0975 7.16958   1
  12   3 -15 315.774 12.3072   1
 -12   3  15 272.955 13.2569   5
 -12   3  15 265.610 11.0035   1
 -12   3 -15 325.746 12.2827   1
  12   3  15 292.781 11.6090   1
  13   3 -15 52.4802 5.81901   1
 -13   3  15 69.4074 5.42684   1
 -13   3  15 66.8907 6.90238   5
  13   3  15 64.8055 5.80902   1
 -13   3 -15 55.7145 5.70555   1
   0   4 -15 0.76607 2.19830   1
   0   4  15 -0.0132 4.25633   4
   0   4 -15 -2.2884 2.23897   2
   0   4  15 -3.3691 2.11343   2
  -1   4  15 162.761 11.3927   4
  -1   4  15 172.426 7.27380   2
   1   4 -15 172.606 7.06888   1
   1   4 -15 177.857 7.64223   2
  -1   4 -15 180.111 7.64340   2
   1   4  15 176.079 7.29018   2
   1   4  15 161.978 11.8472   4
  -1   4 -15 166.753 6.99108   1
  -2   4  15 20.3885 3.01501   2
   2   4 -15 21.5918 3.30237   2
   2   4 -15 16.7835 2.72657   1
  -2   4  15 20.7156 5.17480   4
   2   4  15 11.9702 5.06196   4
   2   4  15 23.3296 3.18210   2
  -2   4 -15 13.0144 3.05415   2
  -2   4 -15 16.5010 2.69580   1
   3   4 -15 11.8834 2.61007   1
   3   4 -15 10.4565 2.87872   2
  -3   4  15 8.36477 2.81273   2
  -3   4  15 10.8601 4.67143   4
  -3   4 -15 13.8771 2.99390   2
   3   4  15 18.3748 3.11009   2
  -3   4 -15 13.7341 2.60897   1
   3   4  15 6.77107 4.88057   4
  -4   4  15 34.8267 5.92346   4
  -4   4  15 31.7341 3.51849   2
   4   4 -15 34.6161 3.97618   2
   4   4 -15 32.1266 3.46247   1
  -4   4 -15 31.0410 3.77683   2
   4   4  15 28.4843 5.91595   4
  -4   4 -15 30.7540 3.30889   1
   4   4  15 25.9745 3.47003   2
   5   4 -15 27.5765 3.84205   2
  -5   4  15 25.7349 3.57029   2
  -5   4  15 36.7097 5.80453   4
   5   4 -15 30.3693 3.37075   1
   5   4  15 25.5304 3.70452   2
  -5   4 -15 29.3008 3.81181   2
   5   4  15 31.9620 5.82674   4
  -6   4  15 129.155 9.61521   4
   6   4 -15 125.490 6.57602   1
  -6   4  15 125.679 8.68942   5
  -6   4  15 133.413 6.86665   2
   6   4 -15 133.956 7.71450   2
  -6   4 -15 137.273 7.32979   2
   6   4  15 141.938 7.29035   2
  -6   4 -15 124.254 6.76619   1
   6   4  15 121.042 9.78320   4
   7   4 -15 368.877 13.3045   2
   7   4 -15 331.521 12.0042   1
  -7   4  15 367.169 12.5428   2
  -7   4  15 370.969 16.6415   4
  -7   4  15 364.163 14.2730   5
   7   4  15 338.986 10.9484   1
   7   4  15 355.482 12.6641   2
  -7   4 -15 356.030 12.9429   2
  -7   4 -15 368.791 12.1867   1
   8   4 -15 110.200 6.56958   1
  -8   4  15 111.501 9.09636   4
   8   4 -15 130.059 8.03435   2
  -8   4  15 125.970 7.27680   2
  -8   4  15 119.866 8.85780   5
  -8   4  15 116.834 5.88226   1
   8   4  15 103.911 5.74375   1
  -8   4 -15 116.152 7.49093   2
   8   4  15 117.727 7.31066   2
  -8   4 -15 125.024 8.29012   5
  -8   4 -15 114.693 6.70853   1
  -9   4  15 118.895 8.65024   5
   9   4 -15 108.379 6.66372   1
  -9   4  15 114.818 6.02850   1
  -9   4  15 118.834 7.42296   2
  -9   4 -15 108.374 8.26453   5
  -9   4 -15 118.441 7.86599   2
   9   4  15 114.014 7.59758   2
   9   4  15 110.341 6.00845   1
  -9   4 -15 113.923 6.93961   1
  10   4 -15 5.17925 3.09465   1
 -10   4  15 3.63429 2.77580   1
 -10   4  15 2.46263 4.28115   5
 -10   4  15 12.3144 3.73172   2
  10   4  15 1.65908 3.45033   2
 -10   4 -15 5.47045 3.98200   5
 -10   4 -15 4.76874 3.38142   1
  10   4  15 5.85979 2.91089   1
 -11   4  15 78.9563 7.15213   5
  11   4 -15 72.4146 5.58022   1
 -11   4  15 77.8563 5.74910   1
 -11   4  15 84.0683 6.33052   2
 -11   4 -15 79.9361 7.02396   5
  11   4  15 84.7213 6.05437   1
  11   4  15 71.9396 6.31548   2
 -11   4 -15 72.2547 5.83720   1
   0   5 -15 667.578 19.3778   2
   0   5  15 633.218 18.6254   2
   0   5  15 657.861 26.9383   4
   1   5 -15 10.1299 2.86545   2
  -1   5  15 11.6201 2.79875   2
  -1   5  15 2.76525 4.24874   4
  -1   5 -15 10.1418 2.82895   2
   1   5  15 5.45785 4.62100   4
   1   5  15 6.18848 2.72029   2
  -2   5  15 1.19960 2.39639   2
  -2   5  15 0.68331 4.04414   4
   2   5 -15 0.61456 2.41617   2
   2   5  15 4.39648 2.51447   2
   2   5  15 2.90734 4.36471   4
  -2   5 -15 1.33076 2.47893   2
   3   5 -15 67.9084 5.06099   2
  -3   5  15 57.4944 4.33258   2
  -3   5  15 68.7200 7.69863   4
   3   5  15 59.9797 7.60846   4
   3   5  15 58.0397 4.38434   2
  -3   5 -15 64.1745 4.85346   2
  -4   5  15 11.4042 4.73728   4
   4   5 -15 -1.8606 2.49218   2
  -4   5  15 2.14109 2.59454   2
  -4   5 -15 3.05944 2.69157   2
   4   5  15 1.96006 4.30546   4
   4   5  15 0.61968 2.74238   2
   5   5 -15 3.50170 2.86485   2
  -5   5  15 -5.0454 2.54876   2
  -5   5  15 6.06867 4.43720   4
   5   5  15 1.97937 4.32624   4
  -5   5 -15 0.08824 2.72492   2
   5   5  15 0.85356 2.71407   2
  -6   5  15 5.34999 2.88600   2
   6   5 -15 1.82376 3.13064   2
  -6   5  15 -0.7237 3.99356   4
   6   5 -15 -3.1530 2.10062   1
   6   5  15 6.10970 3.03475   2
  -6   5 -15 6.14604 2.95302   2
  -7   5  15 81.1174 8.22005   4
   7   5 -15 86.4103 5.22219   1
   7   5 -15 91.3233 6.87793   2
  -7   5  15 86.9826 6.23708   2
   7   5  15 84.4523 6.51229   2
  -7   5 -15 88.4222 6.60823   2
   8   5 -15 52.0260 4.05151   1
  -8   5  15 51.0557 6.58129   4
  -8   5  15 51.2052 4.86472   2
   8   5 -15 60.4344 5.59934   2
  -8   5 -15 51.4017 5.14857   2
   8   5  15 47.6013 5.01830   2
  -9   5  15 6.75210 4.47127   4
  -9   5  15 -1.8340 3.35926   2
   9   5 -15 12.6589 3.89055   2
   9   5 -15 3.99305 2.75370   1
  -9   5 -15 3.13545 3.40748   2
  -9   5 -15 -2.2324 3.76039   5
   9   5  15 -1.8427 3.18482   2
  10   5 -15 19.5824 4.69346   2
  10   5 -15 23.7153 3.45448   1
 -10   5  15 27.2883 4.25760   2
 -10   5  15 34.0539 5.71444   5
  10   5 -15 21.2252 5.10381   2
 -10   5 -15 16.0554 4.73111   5
 -10   5 -15 16.8037 4.22350   2
  10   5  15 25.5254 4.64587   2
   0   6  15 -0.6054 4.51969   4
   0   6 -15 -1.6574 2.24052   2
   0   6  15 1.33812 2.39321   2
   1   6 -15 287.399 10.4541   2
  -1   6  15 274.545 15.4404   4
  -1   6  15 281.586 9.73072   2
   1   6  15 277.017 9.71848   2
  -1   6 -15 279.142 10.3902   2
   1   6  15 278.599 15.5835   4
  -2   6  15 5.93753 2.49226   2
   2   6 -15 -0.6827 2.44618   2
  -2   6  15 4.69351 4.54954   4
  -2   6 -15 3.64833 2.56433   2
   2   6  15 -0.9078 4.28645   4
   2   6  15 4.31227 2.48935   2
  -3   6  15 92.3556 5.47163   2
  -3   6  15 81.3314 8.53959   4
   3   6 -15 85.7014 6.00043   2
   3   6  15 84.8707 5.55273   2
  -3   6 -15 73.7513 6.00447   2
   3   6  15 72.5235 8.22898   4
   4   6 -15 27.2932 3.77096   2
  -4   6  15 23.7256 3.36012   2
  -4   6  15 28.0010 5.72366   4
   4   6  15 22.0826 3.56161   2
  -4   6 -15 30.8846 3.88927   2
   4   6  15 29.0754 5.85363   4
   5   6 -15 9.55806 3.08625   2
  -5   6  15 11.3868 2.96101   2
  -5   6  15 10.1369 4.85281   4
   5   6  15 15.8561 5.06217   4
   5   6  15 7.18728 3.04221   2
  -5   6 -15 7.07506 3.09394   2
   6   6 -15 158.275 8.24386   2
  -6   6  15 144.355 7.23321   2
  -6   6  15 136.958 10.7713   4
  -6   6 -15 152.566 7.81524   2
   6   6  15 149.344 7.53411   2
  -7   6  15 46.6723 4.46603   2
   7   6 -15 62.1571 5.69466   2
   7   6  15 52.8853 4.89186   2
  -7   6 -15 55.8301 5.22019   2
   0   7 -15 348.789 12.1979   2
   0   7  15 355.513 11.5758   2
  -1   7  15 12.5947 2.82559   2
   1   7 -15 14.1022 3.21283   2
   1   7  15 12.5389 2.95233   2
  -1   7 -15 15.3326 3.08649   2
  -2   7  15 0.64042 2.51388   2
   2   7 -15 2.98461 2.61909   2
   2   7  15 1.65718 2.53355   2
  -2   7 -15 1.88030 2.61628   2
   0   0  16 4.57874 2.71616   1
   0   0 -16 5.56870 2.69985   1
   1   0  16 585.719 17.5392   1
  -1   0  16 578.608 17.5471   1
  -1   0 -16 590.979 17.5872   1
   1   0 -16 573.768 17.5660   1
  -2   0  16 144.813 7.07934   1
   2   0 -16 157.972 7.27032   1
   2   0  16 136.799 7.21889   1
  -2   0 -16 153.094 7.44102   1
   3   0  16 88.6135 5.98451   1
  -3   0  16 73.0686 5.64256   1
  -3   0 -16 92.7148 6.27084   1
   3   0 -16 88.9966 5.87868   1
  -4   0 -16 341.166 11.9917   1
   4   0 -16 330.222 11.7141   1
   4   0  16 324.707 11.9155   1
  -4   0  16 350.902 11.8098   1
   5   0  16 279.282 10.8929   1
  -5   0  16 288.832 10.7060   1
   5   0 -16 297.942 10.8267   1
  -5   0 -16 283.671 10.9507   1
  -6   0  16 229.175 9.53274   1
   6   0  16 221.309 9.57694   1
  -6   0 -16 231.948 9.76976   1
   6   0 -16 226.254 9.40442   1
   7   0  16 713.202 21.5166   1
   7   0 -16 720.081 21.4778   1
  -7   0  16 712.363 21.3671   1
  -7   0 -16 701.681 21.5886   1
  -8   0  16 20.1910 4.13172   1
   8   0 -16 14.6369 3.87267   1
  -8   0 -16 10.1434 3.79864   1
   8   0  16 21.1118 4.02518   1
  -9   0  16 7.27356 3.59049   1
   9   0 -16 2.10486 3.43294   1
  -9   0 -16 -0.3133 3.47753   1
   9   0  16 5.72575 3.57640   1
  10   0  16 120.795 7.92425   1
 -10   0  16 109.087 7.90395   1
  10   0 -16 111.454 7.88577   1
 -10   0 -16 131.155 8.26855   1
  11   0 -16 41.6866 5.19482   1
  11   0  16 41.4030 5.28828   1
 -11   0  16 52.1308 6.33533   5
 -11   0  16 47.1976 5.52869   1
 -11   0 -16 37.7070 5.53046   1
 -12   0  16 143.835 9.14948   1
  12   0  16 142.663 8.97409   1
 -12   0  16 141.049 9.91728   5
  12   0 -16 149.199 9.28257   1
 -12   0 -16 127.619 9.40678   1
 -13   0 -16 -2.5390 4.04381   1
 -13   0  16 6.10797 4.12429   1
  13   0  16 -3.6355 3.98424   1
 -13   0  16 0.99581 4.32119   5
   0   1  16 0.09396 2.46620   1
   0   1  16 3.25613 2.56011   2
   0   1 -16 -2.0141 2.55873   1
   0  -1  16 3.58153 2.54417   1
  -1   1  16 0.37702 2.49664   2
  -1   1  16 2.54948 2.64639   1
   1   1 -16 0.50341 2.48861   1
   1  -1  16 -0.5732 2.46090   1
  -1  -1  16 0.62752 2.56614   1
   1   1  16 -2.3237 2.42618   1
   1   1  16 -2.7876 2.40870   2
  -1   1 -16 2.93610 2.59763   1
  -2   1  16 26.7844 3.40530   2
   2  -1  16 30.0409 3.72211   1
   2   1 -16 28.4841 3.73041   1
  -2   1  16 26.6403 3.42443   1
   2   1  16 31.5629 3.72047   1
  -2   1 -16 31.0049 3.74163   1
   2   1  16 26.8173 3.64428   2
  -2  -1  16 28.4159 3.71922   1
   3   1 -16 12.7626 3.14234   1
   3  -1  16 17.6227 3.41375   1
  -3   1  16 15.0101 3.00017   2
  -3   1  16 10.2208 2.99604   1
   3   1  16 13.3522 3.22784   2
  -3  -1  16 9.92736 3.07578   1
   3   1  16 16.1762 3.29335   1
  -3   1 -16 8.97768 3.07955   1
  -4   1  16 836.939 23.2643   2
  -4   1  16 809.526 23.3859   1
   4  -1  16 825.367 23.8776   1
   4   1 -16 802.691 23.6513   1
  -4  -1  16 834.650 23.7663   1
  -4   1 -16 812.922 23.8152   1
   4   1  16 822.068 23.6700   1
   5   1 -16 32.0612 4.06398   1
   5  -1  16 30.8335 4.16529   1
  -5   1  16 30.8172 3.85636   1
   5   1  16 41.3491 4.32594   1
  -5   1 -16 35.7060 4.19867   1
  -5  -1  16 35.0666 4.15858   1
   6   1 -16 6.97447 3.30020   1
  -6   1  16 6.68187 4.62713   4
   6  -1  16 11.5127 3.40784   1
  -6   1  16 13.9342 3.24602   1
  -6  -1  16 9.81323 3.25187   1
   6   1  16 11.0309 3.50539   1
  -6   1 -16 11.1317 3.36038   1
   7   1 -16 24.0068 3.92499   1
  -7   1  16 18.5227 4.84142   4
  -7   1  16 21.0561 3.80110   1
   7  -1  16 21.9742 4.07418   1
   7   1  16 18.7045 3.80726   1
  -7   1 -16 21.0834 3.96783   1
  -7  -1  16 24.7659 3.98330   1
  -8   1  16 207.868 11.5132   4
  -8   1  16 195.935 9.07744   1
   8   1 -16 186.526 9.07961   1
   8  -1  16 194.097 9.29562   1
   8   1  16 190.040 9.12362   1
  -8  -1  16 187.670 9.33302   1
  -8   1 -16 190.356 9.43797   1
  -9   1  16 120.968 7.35430   1
   9   1 -16 102.991 7.37453   1
  -9   1  16 98.0120 7.50684   5
   9  -1  16 111.509 7.60145   1
  -9  -1  16 94.4052 7.69392   1
  -9   1 -16 97.3448 7.64823   1
   9   1  16 90.0484 7.10867   1
 -10   1  16 1.27660 4.06630   5
 -10   1  16 7.87908 3.73055   1
  10  -1  16 12.1022 4.19585   1
  10   1 -16 9.85581 3.83914   1
  10   1  16 15.8874 4.05971   1
 -10   1 -16 12.2957 4.13995   1
 -10  -1  16 7.62912 3.99057   1
 -11   1  16 155.316 9.85954   5
 -11   1  16 156.347 8.91486   1
  11   1 -16 151.009 8.69414   1
 -11  -1  16 146.997 9.16928   1
 -11   1 -16 149.910 9.26187   1
  11   1  16 155.507 8.95408   1
  12   1 -16 25.4826 4.68633   1
 -12   1  16 11.2044 4.15179   1
 -12   1  16 18.9266 4.86697   5
 -12   1 -16 28.6300 5.25946   1
 -12  -1  16 21.0271 4.96175   1
  12   1  16 22.4644 4.78956   1
 -13   1  16 1.04177 4.17071   5
 -13   1  16 0.84845 3.69824   1
  13   1 -16 0.73221 4.01874   1
  13   1  16 1.97689 4.12535   1
 -13  -1  16 -4.4726 4.25951   5
 -13  -1  16 3.23536 4.41769   1
 -13   1 -16 -3.9921 3.89075   1
   0   2 -16 531.489 16.0059   1
   0   2 -16 512.912 15.5851   2
   0   2  16 515.022 15.4805   2
   0   2  16 503.110 15.3319   1
   0   2  16 480.322 23.5562   4
  -1   2  16 35.7845 6.59852   4
   1   2 -16 31.9429 3.68466   2
  -1   2  16 26.3566 3.29046   1
   1   2 -16 33.4675 3.79636   1
  -1   2  16 29.5921 3.55177   2
   1   2  16 30.2003 3.32423   1
  -1   2 -16 30.6258 3.72465   1
  -1   2 -16 35.0993 3.69973   2
   1   2  16 33.1991 3.63300   2
   1   2  16 14.9722 7.08813   4
   2   2 -16 160.758 7.44223   2
  -2   2  16 164.102 7.13656   1
  -2   2  16 160.038 7.25493   2
  -2   2  16 175.769 11.8070   4
   2   2 -16 163.932 7.61612   1
   2   2  16 167.382 7.37207   2
   2   2  16 159.445 7.20480   1
  -2   2 -16 158.925 7.44763   2
  -2   2 -16 167.059 7.68560   1
  -3   2  16 640.483 18.3453   2
  -3   2  16 629.500 18.2090   1
  -3   2  16 626.116 25.1902   4
   3   2 -16 594.539 18.6820   1
  -3   2 -16 616.663 18.6153   1
  -3   2 -16 640.518 18.7044   2
   3   2  16 613.997 18.3043   1
   3   2  16 609.507 18.3656   2
  -4   2  16 17.0331 3.05205   1
  -4   2  16 21.5847 5.16105   4
   4   2 -16 15.3097 3.47962   1
  -4   2  16 15.6267 3.32069   2
  -4   2 -16 18.0077 3.47019   1
   4   2  16 20.2526 3.44786   2
   4   2  16 20.2175 3.36991   1
  -5   2  16 8.97238 4.35629   4
   5   2 -16 10.2189 3.29071   1
  -5   2  16 9.39274 2.92123   2
  -5   2  16 11.1999 2.92688   1
   5   2  16 14.2388 6.97547   4
   5   2  16 11.9774 3.26962   2
  -5   2 -16 11.4393 3.26793   1
   5   2  16 2.90060 2.98247   1
  -6   2  16 23.0348 3.48225   1
  -6   2  16 29.7249 4.40785   5
   6   2 -16 25.2092 3.91407   1
  -6   2  16 18.2968 5.11222   4
  -6   2  16 23.7768 3.57612   2
   6   2  16 26.9226 7.12477   4
   6   2  16 23.0808 3.88202   2
  -6   2 -16 15.4608 3.58054   1
   6   2  16 19.8899 3.61604   1
  -7   2  16 4.45332 4.19673   4
   7   2 -16 -0.9010 2.90045   1
  -7   2  16 3.86394 2.88189   1
  -7   2  16 0.54820 3.48432   5
  -7   2  16 2.82616 3.02918   2
   7   2  16 0.72943 3.11686   1
   7   2  16 -1.8397 4.84052   4
  -7   2 -16 4.50052 3.18460   1
  -8   2  16 399.269 13.9145   1
  -8   2  16 449.869 18.2675   4
   8   2 -16 433.033 14.6937   1
  -8   2  16 410.672 15.0215   5
  -8   2 -16 413.241 14.5803   1
   8   2  16 402.624 14.1761   1
  -9   2  16 63.9099 5.32827   1
  -9   2  16 68.6279 6.30721   5
   9   2 -16 79.9926 6.20068   1
   9   2  16 71.7189 5.75651   1
  -9   2 -16 69.0192 5.96536   1
  10   2 -16 234.201 10.6326   1
 -10   2  16 222.514 11.3081   5
 -10   2  16 245.132 10.2676   1
 -10   2 -16 255.026 10.9073   1
  10   2  16 238.232 10.4460   1
 -11   2  16 330.104 12.7665   1
  11   2 -16 363.737 13.5070   1
 -11   2  16 346.970 14.0993   5
 -11   2 -16 339.041 13.4651   1
  11   2  16 346.363 13.0477   1
 -12   2  16 18.3681 4.94437   5
 -12   2  16 16.0360 4.11470   1
  12   2 -16 13.5281 4.37098   1
  12   2  16 22.5009 4.46845   1
 -12   2 -16 24.4211 4.69375   1
  13   2 -16 6.24927 4.08905   1
 -13   2  16 2.36933 3.49054   1
 -13   2  16 10.6492 4.66286   5
 -13   2 -16 2.05762 4.03602   1
  13   2  16 11.0309 4.29688   1
   0   3 -16 -3.4406 2.31662   1
   0   3  16 1.85636 2.22868   1
   0   3  16 -2.8033 2.29881   2
   0   3 -16 -0.9982 2.43426   2
   0   3  16 -9.7778 4.31300   4
  -1   3  16 1.05529 2.46420   2
  -1   3  16 2.44881 2.20971   1
  -1   3  16 -1.6321 4.50736   4
   1   3 -16 -4.3023 2.38497   1
   1   3 -16 3.03089 2.55569   2
   1   3  16 0.10643 2.20524   1
  -1   3 -16 -0.8989 2.46508   2
  -1   3 -16 1.02111 2.41271   1
   1   3  16 7.15590 5.41411   4
   1   3  16 -2.3861 2.38965   2
  -2   3  16 24.4118 3.28562   2
   2   3 -16 25.5673 3.36986   1
   2   3 -16 31.2500 3.72231   2
  -2   3  16 18.0220 5.43170   4
  -2   3  16 17.6195 2.77432   1
   2   3  16 25.8728 3.52441   2
   2   3  16 19.9092 2.91030   1
  -2   3 -16 19.7859 3.32631   2
  -2   3 -16 24.9102 3.32396   1
   2   3  16 27.2293 6.60302   4
  -3   3  16 1.23055 2.64460   2
   3   3 -16 8.84568 2.94574   1
   3   3 -16 5.10595 2.85524   2
  -3   3  16 3.50914 4.25813   4
  -3   3  16 10.5220 2.55944   1
   3   3  16 5.14154 2.44279   1
   3   3  16 7.51278 5.63792   4
  -3   3 -16 3.89305 2.68990   2
  -3   3 -16 1.17211 2.65566   1
   3   3  16 2.34931 2.73257   2
   4   3 -16 635.729 19.3538   2
   4   3 -16 653.428 19.2363   1
  -4   3  16 650.958 18.3711   1
  -4   3  16 645.035 25.5397   4
  -4   3  16 618.823 20.1284   5
  -4   3  16 647.488 18.8983   2
   4   3  16 562.807 26.8817   4
   4   3  16 656.537 18.4993   1
  -4   3 -16 645.217 19.3544   2
  -4   3 -16 649.920 19.2252   1
   4   3  16 654.358 19.1058   2
  -5   3  16 32.0672 4.67426   5
   5   3 -16 20.8854 3.82265   2
  -5   3  16 29.5500 3.84569   2
  -5   3  16 25.3867 3.21662   1
  -5   3  16 24.0374 5.29225   4
   5   3 -16 30.3754 3.85349   1
  -5   3 -16 24.6346 3.60408   1
   5   3  16 30.6554 6.77875   4
   5   3  16 28.7003 3.91141   2
  -5   3 -16 34.5695 4.04782   2
   5   3  16 19.1033 3.32290   1
  -6   3  16 1.97602 2.86405   2
   6   3 -16 6.42964 3.08668   1
  -6   3  16 9.64296 2.69729   1
  -6   3  16 6.74037 3.70638   5
  -6   3  16 8.48754 4.55164   4
   6   3  16 3.89774 4.87233   4
   6   3  16 4.83535 2.87612   1
  -6   3 -16 7.90149 3.07428   1
  -6   3 -16 8.64644 3.29256   2
   6   3  16 9.07034 3.25843   2
  -7   3  16 8.84717 4.64790   4
   7   3 -16 5.71212 3.18636   1
  -7   3  16 9.66694 2.93652   1
  -7   3  16 -1.5166 2.89453   2
  -7   3  16 2.58990 3.71127   5
  -7   3 -16 12.3454 3.52195   1
   7   3  16 6.34796 3.40987   2
   7   3  16 8.05280 3.04576   1
  -8   3  16 152.305 8.08431   2
  -8   3  16 163.259 9.27838   5
  -8   3  16 167.954 10.5214   4
   8   3 -16 144.949 7.95378   1
  -8   3  16 141.159 7.31889   1
  -8   3 -16 145.575 8.22312   1
   8   3  16 144.816 7.51287   1
   8   3  16 152.150 8.33161   2
  -9   3  16 78.6722 5.92200   2
  -9   3  16 75.5600 5.96371   1
   9   3 -16 77.2526 5.92282   1
  -9   3  16 63.4259 6.30131   5
  -9   3 -16 73.5936 5.89902   1
   9   3  16 65.9104 6.44609   2
   9   3  16 78.0581 6.15705   1
  10   3 -16 9.65218 3.62145   1
 -10   3  16 8.78683 4.27953   5
 -10   3  16 4.08137 3.03991   1
 -10   3 -16 9.86857 3.76031   1
  10   3  16 11.6863 3.68595   1
 -10   3 -16 5.52568 3.93776   5
 -11   3  16 90.8496 6.71497   1
  11   3 -16 101.576 7.49699   1
 -11   3  16 84.2738 7.39426   5
 -11   3 -16 84.6696 7.12890   5
  11   3  16 106.997 7.28679   1
 -11   3 -16 105.122 7.48020   1
 -12   3  16 19.5046 4.96626   5
 -12   3  16 24.6240 4.03088   1
  12   3 -16 17.2075 4.36023   1
 -12   3 -16 13.2362 3.99633   1
  12   3  16 9.39160 4.00254   1
   0   4 -16 0.90163 2.33230   1
   0   4  16 -0.3579 2.40103   2
   0   4  16 0.25409 4.79657   4
   0   4 -16 5.97740 2.69295   2
  -1   4  16 319.845 17.0256   4
  -1   4  16 336.473 11.2222   2
   1   4 -16 352.594 11.7174   2
   1   4 -16 327.214 11.0333   1
  -1   4 -16 336.745 11.0385   1
  -1   4 -16 341.727 11.6844   2
   1   4  16 316.321 17.5464   4
   1   4  16 332.049 11.2800   2
  -2   4  16 95.7520 5.65321   2
   2   4 -16 85.8184 5.41822   1
  -2   4  16 78.5673 8.37995   4
   2   4 -16 91.2437 6.00828   2
   2   4  16 90.8021 5.82277   2
   2   4  16 86.5416 9.37505   4
  -2   4 -16 85.0828 5.99270   2
  -2   4 -16 86.7234 5.39711   1
  -3   4  16 38.6470 6.31542   4
   3   4 -16 40.8023 3.74666   1
  -3   4  16 42.0722 4.03362   2
   3   4 -16 43.5858 4.37723   2
   3   4  16 37.0781 7.09707   4
   3   4  16 41.4628 4.03434   2
  -3   4 -16 40.2710 3.61610   1
  -3   4 -16 40.3885 4.14330   2
  -4   4  16 188.724 8.24352   2
  -4   4  16 201.012 12.1415   4
   4   4 -16 192.616 8.00218   1
   4   4 -16 196.862 8.80625   2
  -4   4 -16 192.330 8.76575   2
   4   4  16 189.370 13.0278   4
  -4   4 -16 200.434 8.02144   1
   4   4  16 204.641 8.59820   2
  -5   4  16 165.940 7.89396   2
   5   4 -16 176.526 8.64981   2
  -5   4  16 175.471 11.4446   4
   5   4 -16 174.428 7.71619   1
   5   4  16 170.420 8.16759   2
  -5   4 -16 178.729 8.39774   2
   5   4  16 185.060 12.3513   4
  -6   4  16 144.832 7.31400   2
   6   4 -16 151.659 8.23222   2
  -6   4  16 148.271 10.2750   4
   6   4 -16 122.933 6.79428   1
   6   4  16 136.456 10.6781   4
   6   4  16 130.680 7.39003   2
  -6   4 -16 135.022 7.71299   2
  -6   4 -16 132.703 7.17826   1
  -7   4  16 445.099 16.6484   5
   7   4 -16 412.611 14.2470   1
   7   4 -16 470.167 15.7136   2
  -7   4  16 452.377 13.4264   1
  -7   4  16 468.617 14.8793   2
  -7   4  16 456.181 19.6644   4
  -7   4 -16 443.818 14.5128   1
   7   4  16 446.257 14.9577   2
   7   4  16 427.175 13.3090   1
  -7   4 -16 448.159 15.2315   2
  -8   4  16 6.40542 3.52604   2
  -8   4  16 8.50799 4.62094   5
  -8   4  16 12.4163 4.72447   4
   8   4 -16 12.2221 3.21444   1
  -8   4  16 5.88129 2.62315   1
   8   4  16 11.8385 3.69509   2
  -8   4 -16 6.06188 3.18168   1
   8   4  16 8.62644 2.77773   1
  -8   4 -16 5.04098 3.51030   2
  -9   4  16 2.71441 2.71396   1
  -9   4  16 5.60418 4.34275   5
  -9   4  16 8.48912 3.54357   2
   9   4 -16 -1.0972 2.89717   1
  -9   4 -16 2.54790 3.16355   1
   9   4  16 3.49571 2.79597   1
   9   4  16 1.98153 3.47348   2
 -10   4  16 78.0439 5.49661   1
 -10   4  16 65.7915 7.08026   5
 -10   4  16 83.0406 6.32124   2
  10   4 -16 78.8342 5.90593   1
 -10   4 -16 85.1780 6.09507   1
  10   4  16 85.1288 6.52901   2
  10   4  16 83.0727 5.81899   1
 -10   4 -16 77.2267 6.95298   5
 -11   4  16 25.0969 3.39548   1
 -11   4  16 30.3938 4.68822   2
  11   4 -16 30.1655 4.35154   1
 -11   4  16 22.0642 5.19621   5
 -11   4 -16 30.2892 5.18402   5
  11   4  16 21.3993 3.68129   1
 -11   4 -16 22.3078 4.36274   1
   0   5 -16 5.48019 2.73298   2
   0   5  16 -1.9025 4.40735   4
   0   5  16 6.15511 2.67683   2
   1   5 -16 0.66833 2.54870   2
  -1   5  16 1.59364 4.68925   4
  -1   5  16 3.14723 2.51279   2
  -1   5 -16 -3.4836 2.42571   2
   1   5  16 6.52714 4.91318   4
   1   5  16 2.41277 2.61440   2
  -2   5  16 12.2040 5.11476   4
  -2   5  16 20.9504 3.13716   2
   2   5 -16 12.8055 3.13618   2
   2   5  16 15.1866 5.49862   4
  -2   5 -16 10.9191 3.12519   2
   2   5  16 15.7740 3.12148   2
  -3   5  16 9.79972 2.86193   2
  -3   5  16 13.7736 5.11277   4
   3   5 -16 14.1757 3.11029   2
   3   5  16 10.4332 2.99883   2
  -3   5 -16 5.84936 2.93923   2
   3   5  16 8.07609 5.18582   4
   4   5 -16 409.692 12.4272   1
   4   5 -16 435.295 14.2794   2
  -4   5  16 394.306 19.0718   4
  -4   5  16 418.336 13.5474   2
  -4   5 -16 423.848 14.0258   2
   4   5  16 423.376 13.6547   2
   4   5  16 395.671 19.5347   4
  -5   5  16 22.7488 5.71288   4
   5   5 -16 23.5370 2.93504   1
  -5   5  16 19.6066 3.39653   2
   5   5 -16 20.3351 3.91787   2
  -5   5 -16 26.8654 3.87869   2
   5   5  16 18.6185 3.45899   2
   5   5  16 20.2688 5.62400   4
  -6   5  16 3.90862 2.91085   2
   6   5 -16 6.89388 3.41539   2
   6   5 -16 1.75664 2.46439   1
  -6   5  16 8.05240 4.47357   4
  -6   5 -16 4.11569 2.91489   2
   6   5  16 9.55405 3.07655   2
  -7   5  16 19.8511 3.74077   2
  -7   5  16 17.5696 5.24927   4
   7   5 -16 19.1477 4.03583   2
   7   5 -16 18.1169 2.94657   1
   7   5  16 18.2668 3.95590   2
  -7   5 -16 15.0558 2.78688   1
  -7   5 -16 23.5182 4.01973   2
   8   5 -16 103.704 6.00831   1
  -8   5  16 101.660 7.08511   2
  -8   5  16 110.751 9.95033   4
   8   5 -16 107.032 7.86755   2
  -8   5 -16 123.954 7.72210   2
   8   5  16 118.818 7.61784   2
  -8   5 -16 108.206 6.05118   1
   9   5 -16 62.7247 6.08222   2
   9   5 -16 58.7347 4.54969   1
  -9   5  16 49.5543 5.13330   2
   9   5  16 62.1973 5.72462   2
  -9   5 -16 53.4080 4.34639   1
  -9   5 -16 53.9404 5.71748   2
   0   6  16 201.903 13.7713   4
   0   6 -16 211.397 8.98739   2
   0   6  16 234.212 8.63842   2
   1   6 -16 18.3903 3.39606   2
  -1   6  16 13.5087 2.90208   2
  -1   6  16 15.0517 5.63970   4
   1   6  16 18.0329 5.68691   4
  -1   6 -16 12.9675 3.11452   2
   1   6  16 11.1327 2.97829   2
  -2   6  16 74.0406 5.30965   2
  -2   6  16 67.7535 8.31858   4
   2   6 -16 74.7652 5.82481   2
   2   6  16 70.2430 5.39095   2
   2   6  16 72.3495 8.62491   4
  -2   6 -16 64.1905 4.99154   2
  -3   6  16 235.812 14.5484   4
   3   6 -16 258.687 10.2221   2
  -3   6  16 264.967 9.54715   2
  -3   6 -16 237.413 10.0673   2
   3   6  16 243.166 14.9427   4
   3   6  16 264.624 9.61576   2
  -4   6  16 11.2986 3.04437   2
  -4   6  16 10.2163 4.99610   4
   4   6 -16 13.7172 3.42136   2
  -4   6 -16 7.07174 2.99355   2
   4   6  16 9.04321 3.04761   2
   4   6  16 14.6895 5.36594   4
   5   6 -16 0.97866 2.77268   2
  -5   6  16 7.50598 2.92296   2
   5   6  16 2.78290 3.05055   2
   5   6  16 1.15695 4.60978   4
  -5   6 -16 7.32400 3.21556   2
   6   6 -16 7.81936 3.49090   2
  -6   6  16 7.84446 3.07400   2
   6   6  16 5.94434 3.20136   2
  -6   6 -16 7.20148 3.20939   2
   0   0  17 0.70653 2.73831   1
   0   0 -17 6.10784 2.91976   1
  -1   0  17 15.3828 3.28838   1
  -1   0 -17 5.27530 2.98458   1
   1   0 -17 7.00934 3.05208   1
   1   0  17 14.4654 3.19662   1
  -2   0 -17 640.327 19.2499   1
   2   0  17 622.774 18.9793   1
  -2   0  17 626.838 18.8918   1
   2   0 -17 629.042 18.9419   1
  -3   0 -17 903.684 25.6740   1
  -3   0  17 877.562 25.3819   1
   3   0 -17 903.762 25.4295   1
   3   0  17 873.038 25.5264   1
  -4   0 -17 132.076 7.43692   1
   4   0  17 121.207 7.26401   1
  -4   0  17 136.243 7.14251   1
   4   0 -17 121.049 7.04634   1
   5   0  17 30.5863 4.12028   1
  -5   0 -17 24.0737 4.04622   1
   5   0 -17 30.9532 4.25736   1
  -5   0  17 27.1140 3.94356   1
   6   0 -17 51.6063 4.94463   1
  -6   0 -17 66.4146 5.53464   1
   6   0  17 59.7186 5.33423   1
  -6   0  17 52.2812 5.03995   1
  -7   0  17 123.054 7.48164   1
   7   0 -17 108.513 7.25913   1
   7   0  17 113.260 7.43879   1
  -7   0 -17 116.388 7.86365   1
   8   0 -17 55.8532 5.44967   1
  -8   0 -17 41.8214 5.20521   1
   8   0  17 53.6437 5.35769   1
  -8   0  17 47.0832 5.01809   1
  -9   0 -17 88.1790 6.84167   1
   9   0 -17 96.0775 7.28398   1
   9   0  17 103.272 7.55371   1
  -9   0  17 86.0474 6.54855   1
 -10   0 -17 140.202 9.00959   1
 -10   0  17 149.779 8.73662   1
  10   0  17 138.391 8.75212   1
  10   0 -17 139.462 8.65326   1
 -11   0  17 210.278 11.5619   5
 -11   0 -17 206.691 10.9159   1
  11   0  17 201.275 10.4279   1
 -11   0  17 212.874 10.4391   1
  11   0 -17 198.722 10.6321   1
 -12   0  17 117.292 8.81170   1
 -12   0 -17 139.559 9.35499   1
  12   0  17 129.686 8.82083   1
 -12   0  17 125.061 9.86515   5
 -13   0  17 25.9992 5.70129   5
 -13   0 -17 17.7432 5.06078   1
 -13   0  17 26.7701 4.97320   1
  13   0  17 23.0412 5.15549   1
   0   1 -17 398.446 13.3782   1
   0  -1  17 413.961 13.4168   1
   0   1  17 396.743 13.0405   2
   0   1  17 392.715 13.1627   1
  -1   1  17 26.7363 3.60825   2
   1   1 -17 19.3614 3.45754   1
  -1   1  17 19.6998 3.34600   1
   1  -1  17 24.7255 3.67885   1
   1   1  17 19.5475 3.46756   2
  -1   1 -17 25.9480 3.73999   1
   1   1  17 25.6512 3.63791   1
  -1  -1  17 26.0754 3.83668   1
   2  -1  17 3.31074 2.95711   1
   2   1 -17 4.95442 2.84002   1
  -2   1  17 7.27142 2.97825   1
  -2  -1  17 5.85589 3.03962   1
  -2   1 -17 1.05647 2.86758   1
   2   1  17 5.29597 2.94118   1
  -3   1  17 22.9716 3.61333   1
   3  -1  17 27.7770 3.90110   1
   3   1 -17 16.8281 3.48542   1
   3   1  17 26.8128 3.88988   1
  -3  -1  17 27.0339 3.84219   1
  -3   1 -17 28.9709 3.96596   1
   4   1 -17 55.7830 4.96117   1
  -4   1  17 56.9397 4.67368   1
   4  -1  17 47.7418 4.83761   1
   4   1  17 58.1161 4.86015   1
  -4   1 -17 50.8795 5.05893   1
  -4  -1  17 48.9106 4.81753   1
   5  -1  17 3.46069 3.30262   1
  -5   1  17 -0.5623 2.90959   1
   5   1 -17 0.26453 2.94551   1
   5   1  17 1.36621 3.10822   1
  -5  -1  17 1.81940 2.87402   1
  -5   1 -17 0.87978 3.16173   1
   6  -1  17 1.39914 3.20236   1
  -6   1  17 6.26745 4.79116   4
   6   1 -17 2.40762 3.14080   1
  -6   1  17 4.45141 3.17462   1
  -6   1 -17 -0.2578 3.16313   1
   6   1  17 5.02061 3.42915   1
  -6  -1  17 7.38399 3.18765   1
  -7   1  17 166.689 10.6770   4
   7   1 -17 151.497 8.18767   1
   7  -1  17 156.728 8.43065   1
  -7   1  17 150.191 8.10111   1
  -7   1 -17 144.205 8.45013   1
   7   1  17 132.326 8.21926   1
  -7  -1  17 155.115 8.40062   1
  -8   1  17 306.630 11.4907   1
   8   1 -17 293.487 11.5380   1
   8  -1  17 272.561 11.6026   1
  -8  -1  17 300.398 11.8388   1
   8   1  17 276.732 11.5411   1
  -8   1 -17 279.209 11.7783   1
   9  -1  17 3.55696 3.79142   1
   9   1 -17 5.14676 3.57023   1
  -9   1  17 0.29482 3.38127   1
  -9   1  17 -3.4092 3.89910   5
  -9  -1  17 -3.2991 3.54971   1
   9   1  17 -0.6032 3.50541   1
  -9   1 -17 1.64277 3.68513   1
 -10   1  17 -6.2895 4.03584   5
  10   1 -17 -7.4356 3.22655   1
 -10   1  17 0.65028 3.57653   1
  10  -1  17 -2.3514 3.77066   1
  10   1  17 -0.7616 3.59185   1
 -10   1 -17 1.30923 3.60721   1
 -10  -1  17 10.8855 4.07210   1
  11   1 -17 56.9839 5.83621   1
 -11   1  17 50.8578 5.59821   1
 -11   1  17 48.1042 6.04643   5
 -11  -1  17 53.2048 6.18135   1
  11   1  17 52.0136 5.75176   1
 -11   1 -17 58.8638 6.15167   1
 -12   1  17 18.0815 5.07832   5
 -12   1  17 17.6816 4.41087   1
  12   1 -17 28.8351 4.85941   1
  12   1  17 24.4149 4.97295   1
 -12  -1  17 30.5744 5.35180   1
 -12   1 -17 17.2139 4.78122   1
 -13   1  17 304.193 12.5998   1
 -13   1  17 308.458 13.8813   5
  13   1 -17 280.481 12.7282   1
 -13  -1  17 296.988 13.2964   1
 -13   1 -17 307.588 13.4925   1
 -13  -1  17 281.672 13.8090   5
  13   1  17 292.202 12.8147   1
   0   2  17 -0.2766 2.62993   2
   0   2  17 -1.8863 2.46010   1
   0   2  17 5.20315 6.09689   4
   0   2 -17 2.53690 2.71416   1
  -1   2  17 12.9310 2.96427   1
   1   2 -17 6.10594 3.00249   1
  -1   2  17 10.8629 3.08717   2
  -1   2  17 11.5998 5.77572   4
   1   2  17 3.41583 2.78518   2
  -1   2 -17 15.4371 3.39912   1
   1   2  17 11.0320 7.07688   4
   1   2  17 6.95687 2.88866   1
  -2   2  17 61.3769 7.88387   4
  -2   2  17 58.0891 4.58234   2
  -2   2  17 56.3745 4.37498   1
   2   2 -17 61.4909 4.95320   1
   2   2  17 72.4104 5.57770   2
  -2   2 -17 60.4055 4.89409   1
   2   2  17 54.0184 4.44456   1
  -3   2  17 0.14538 2.76600   2
  -3   2  17 4.16808 2.72821   1
  -3   2  17 -4.7972 4.35364   4
   3   2 -17 2.46462 2.76665   1
   3   2  17 1.44313 2.82727   1
   3   2  17 4.04154 2.84624   2
  -3   2 -17 -3.2357 2.60301   1
  -4   2  17 647.111 25.5851   4
   4   2 -17 642.556 19.3387   1
  -4   2  17 624.739 18.6865   1
  -4   2  17 628.193 18.8946   2
   4   2  17 627.069 18.9298   1
  -4   2 -17 625.939 19.2024   1
   4   2  17 623.684 18.9646   2
  -5   2  17 282.168 10.3731   1
   5   2 -17 294.247 11.0242   1
  -5   2  17 273.341 10.4588   2
  -5   2  17 294.187 14.5006   4
   5   2  17 273.458 10.5377   1
  -5   2 -17 277.674 11.0866   1
   5   2  17 270.283 10.6868   2
   5   2  17 266.769 18.0117   4
   6   2 -17 142.114 7.83881   1
  -6   2  17 145.786 10.3447   4
  -6   2  17 130.440 8.28888   5
  -6   2  17 139.845 7.19296   1
  -6   2  17 141.000 7.34778   2
  -6   2 -17 145.945 8.06602   1
   6   2  17 130.292 7.48746   1
   6   2  17 125.925 12.8961   4
  -7   2  17 633.769 19.2828   1
  -7   2  17 687.282 25.5336   4
  -7   2  17 655.697 20.5016   5
   7   2 -17 641.396 19.9236   1
  -7   2 -17 605.954 19.9246   1
   7   2  17 616.920 19.4991   1
   7   2  17 626.120 27.3553   4
  -8   2  17 87.7585 8.30764   4
  -8   2  17 78.5244 6.39902   1
  -8   2  17 72.9295 6.32553   5
   8   2 -17 78.0927 6.29591   1
  -8   2 -17 75.9854 5.88500   1
   8   2  17 64.7268 5.52212   1
  -9   2  17 8.35414 4.03325   5
  -9   2  17 12.8684 3.69029   1
   9   2 -17 4.02382 3.68567   1
  -9   2 -17 11.9946 3.89681   1
   9   2  17 13.9863 3.83865   1
  10   2 -17 23.1973 4.57627   1
 -10   2  17 15.1506 3.95726   1
 -10   2  17 20.5417 4.72940   5
 -10   2 -17 21.8518 4.47432   1
  10   2  17 22.8241 4.44316   1
  11   2 -17 29.9602 4.88796   1
 -11   2  17 24.0329 4.24224   1
 -11   2  17 25.6241 5.09637   5
  11   2  17 22.4952 4.52403   1
 -11   2 -17 23.3760 4.61424   1
 -12   2  17 9.41603 4.40338   5
  12   2 -17 11.8704 4.63270   1
 -12   2  17 12.2547 3.91259   1
  12   2  17 14.7026 4.44663   1
 -12   2 -17 3.94169 4.02551   1
   0   3  17 281.127 17.5589   4
   0   3  17 334.695 10.8285   1
   0   3 -17 322.919 11.5450   2
   0   3 -17 348.429 11.6938   1
   0   3  17 346.779 11.4936   2
   1   3 -17 21.4224 3.62568   2
  -1   3  17 23.5365 6.49451   4
   1   3 -17 17.8663 3.31417   1
  -1   3  17 18.9764 2.95658   1
  -1   3  17 25.9611 3.65073   2
   1   3  17 31.1438 3.76751   2
  -1   3 -17 29.0485 3.60782   1
   1   3  17 24.9567 3.15808   1
   1   3  17 19.2912 6.79700   4
  -1   3 -17 19.0524 3.48451   2
   2   3 -17 1.65881 2.70846   2
  -2   3  17 3.26126 4.87066   4
  -2   3  17 -0.0122 2.39247   1
  -2   3  17 0.17994 2.65264   2
   2   3 -17 5.89442 2.75104   1
   2   3  17 2.85789 5.48268   4
   2   3  17 4.05864 2.58112   1
  -2   3 -17 3.44468 2.66795   2
  -2   3 -17 3.73384 2.69868   1
   2   3  17 -0.0435 2.79316   2
   3   3 -17 22.6507 3.58098   1
  -3   3  17 24.1716 3.20051   1
  -3   3  17 27.7483 6.08600   4
   3   3 -17 23.0734 3.59137   2
  -3   3  17 24.3288 3.61861   2
  -3   3 -17 24.6472 3.78803   2
   3   3  17 24.5896 3.64930   2
   3   3  17 19.8751 3.21465   1
  -3   3 -17 21.4411 3.63517   1
   3   3  17 23.6002 6.92949   4
  -4   3  17 35.9500 6.13967   4
   4   3 -17 38.8619 4.43043   2
  -4   3  17 40.8599 4.03851   2
  -4   3  17 34.5888 3.53335   1
   4   3 -17 44.1073 4.52018   1
   4   3  17 36.1410 7.57520   4
  -4   3 -17 39.3677 4.23600   1
   4   3  17 43.7747 4.48659   2
  -4   3 -17 39.0383 4.39321   2
   4   3  17 43.1441 3.94611   1
  -5   3  17 6.65254 2.74291   1
  -5   3  17 2.87308 4.21590   4
  -5   3  17 1.80020 2.91759   2
  -5   3  17 4.76147 3.84233   5
   5   3 -17 5.62838 3.01458   1
   5   3  17 6.82284 3.27684   2
   5   3  17 0.95624 2.75709   1
  -5   3 -17 2.32461 2.87718   1
   5   3  17 0.72835 5.35885   4
   6   3 -17 -0.7878 2.90046   1
  -6   3  17 -3.0302 2.78985   2
  -6   3  17 3.23370 2.75622   1
  -6   3  17 0.40084 4.18795   4
  -6   3  17 -0.3075 3.60370   5
   6   3  17 1.87089 3.16068   2
   6   3  17 2.15656 5.47063   4
  -6   3 -17 4.21124 3.12797   1
   6   3  17 6.45475 2.99732   1
  -7   3  17 112.065 8.14719   5
  -7   3  17 110.692 9.54674   4
  -7   3  17 116.725 6.42305   1
  -7   3  17 115.563 7.01507   2
   7   3 -17 98.6697 7.10847   1
   7   3  17 99.1316 6.50013   1
  -7   3 -17 85.6668 6.95327   1
   7   3  17 95.3354 7.09617   2
  -8   3  17 269.671 13.6051   4
  -8   3  17 255.735 10.4931   2
  -8   3  17 269.050 11.9952   5
   8   3 -17 258.104 10.6029   1
  -8   3  17 231.044 9.59763   1
   8   3  17 234.364 9.93367   1
   8   3  17 259.034 10.7779   2
  -8   3 -17 237.955 10.6243   1
  -9   3  17 2.23962 3.02484   1
  -9   3  17 2.68960 3.93288   5
   9   3 -17 3.89285 3.35803   1
  -9   3 -17 7.52481 3.68173   1
   9   3  17 -3.8104 3.13233   1
 -10   3  17 -1.1422 2.95224   1
  10   3 -17 5.23736 3.48130   1
 -10   3  17 -1.3238 4.09356   5
  10   3  17 0.91123 3.40102   1
 -10   3 -17 -3.3335 3.27521   1
  11   3 -17 50.4307 5.44502   1
 -11   3  17 55.4578 6.24785   5
 -11   3  17 48.3367 4.64387   1
 -11   3 -17 52.8294 5.52078   1
  11   3  17 54.5696 5.30294   1
   0   4 -17 1.54921 2.48246   1
   0   4  17 0.32040 4.92721   4
   0   4 -17 -0.2715 2.42665   2
   0   4  17 -2.2955 2.49946   2
   1   4 -17 1.83540 2.76013   2
  -1   4  17 4.20565 2.81341   2
  -1   4  17 5.44366 5.32720   4
   1   4 -17 2.39826 2.54171   1
  -1   4 -17 9.59763 2.75118   1
   1   4  17 3.31203 5.57203   4
  -1   4 -17 3.96645 2.85509   2
   1   4  17 5.49138 2.88373   2
  -2   4  17 380.545 18.5187   4
  -2   4  17 365.601 12.3513   2
   2   4 -17 346.424 12.6425   2
   2   4 -17 369.493 12.1168   1
   2   4  17 370.394 12.4226   2
   2   4  17 328.240 19.1966   4
  -2   4 -17 386.402 12.7800   2
  -2   4 -17 373.863 12.1223   1
   3   4 -17 537.232 16.2535   1
   3   4 -17 572.434 17.1341   2
  -3   4  17 550.847 16.5214   2
  -3   4  17 517.071 23.0967   4
  -3   4 -17 538.031 16.2628   1
   3   4  17 525.271 24.7290   4
  -3   4 -17 520.743 16.8732   2
   3   4  17 522.672 16.5138   2
  -4   4  17 64.1462 4.88588   2
   4   4 -17 65.4485 5.36532   2
  -4   4  17 59.9950 7.43482   4
   4   4 -17 60.2741 4.59346   1
   4   4  17 54.3503 4.14480   1
   4   4  17 64.1329 8.60102   4
  -4   4 -17 68.0518 5.48302   1
   4   4  17 58.3880 4.98982   2
  -4   4 -17 64.6934 5.32326   2
   5   4 -17 13.5847 3.52888   2
   5   4 -17 12.4109 3.07914   1
  -5   4  17 17.3205 3.31533   2
  -5   4  17 15.5018 5.29745   4
   5   4  17 13.0024 2.54952   1
  -5   4 -17 8.13148 3.40664   2
  -5   4 -17 19.6356 3.23344   1
   5   4  17 12.5963 3.53592   2
   5   4  17 16.3138 5.78870   4
  -6   4  17 35.8635 4.19159   2
   6   4 -17 30.1616 3.82510   1
  -6   4  17 42.3052 6.37310   4
  -6   4  17 37.8771 3.33411   1
   6   4 -17 38.8561 4.83873   2
   6   4  17 43.3430 3.45770   1
   6   4  17 35.5093 4.38461   2
  -6   4 -17 36.2142 4.52929   2
  -6   4 -17 44.7309 4.39884   1
   6   4  17 50.3370 7.33417   4
  -7   4  17 84.8211 5.23496   1
  -7   4  17 86.6958 8.78923   4
   7   4 -17 76.1855 5.95056   1
  -7   4  17 86.7256 6.59592   2
  -7   4 -17 74.6972 5.59201   1
   7   4  17 82.2418 5.20937   1
  -7   4 -17 65.5780 5.78890   2
   7   4  17 93.6175 6.76915   2
  -8   4  17 31.6112 5.96994   4
  -8   4  17 31.6098 5.76709   5
  -8   4  17 29.3774 3.35937   1
   8   4 -17 22.2553 3.78994   1
  -8   4  17 34.5742 4.40934   2
   8   4  17 34.4240 4.53729   2
   8   4  17 37.1352 3.61222   1
  -8   4 -17 31.0736 4.22413   1
  -9   4  17 60.6560 6.87910   5
  -9   4  17 70.4550 5.78212   2
   9   4 -17 64.4109 5.35106   1
  -9   4  17 65.7161 4.57019   1
   9   4  17 77.4954 5.54926   1
  -9   4 -17 67.1336 5.55418   1
   9   4  17 74.5599 6.23131   2
 -10   4  17 86.6677 7.62944   5
 -10   4  17 104.083 6.14384   1
  10   4 -17 88.0064 6.70060   1
 -10   4  17 89.9748 6.68539   2
  10   4  17 84.0696 6.01858   1
 -10   4 -17 91.3951 7.03364   1
   0   5  17 188.706 8.06113   2
   0   5 -17 179.344 8.31884   2
   0   5 -17 191.422 7.00446   1
   0   5  17 176.528 13.1337   4
   1   5 -17 10.4009 3.14585   2
   1   5 -17 12.1622 2.37561   1
  -1   5  17 9.03071 2.97263   2
  -1   5  17 12.0871 5.70700   4
   1   5  17 6.47366 5.46420   4
  -1   5 -17 7.85681 2.90112   2
   1   5  17 0.53476 2.68788   2
  -2   5  17 0.96368 4.96035   4
   2   5 -17 1.08511 2.07952   1
   2   5 -17 0.35848 2.90830   2
  -2   5  17 3.27483 2.69164   2
  -2   5 -17 1.68621 2.69557   2
   2   5  17 1.28993 5.18484   4
   2   5  17 1.75174 2.81714   2
  -3   5  17 4.84985 2.99333   2
   3   5 -17 7.43034 3.07735   2
   3   5 -17 7.51291 2.36596   1
  -3   5  17 2.10083 4.72305   4
  -3   5 -17 8.71184 2.35892   1
  -3   5 -17 11.3275 3.30614   2
   3   5  17 4.37750 5.25814   4
   3   5  17 4.02218 2.90182   2
   4   5 -17 33.3775 4.30312   2
  -4   5  17 20.9857 5.66060   4
  -4   5  17 34.2688 3.97806   2
   4   5 -17 27.9551 3.11873   1
  -4   5 -17 30.6837 3.02746   1
   4   5  17 32.3361 6.90710   4
  -4   5 -17 33.9732 4.14250   2
   4   5  17 35.7926 4.13396   2
  -5   5  17 10.6448 4.94761   4
   5   5 -17 -0.1977 2.86650   2
  -5   5  17 5.95612 3.05332   2
   5   5 -17 -0.3253 2.24991   1
  -5   5 -17 -1.7183 2.22471   1
   5   5  17 4.78578 3.09023   2
  -5   5 -17 3.01748 3.18945   2
   5   5  17 -5.2052 4.52473   4
  -6   5  17 -0.8714 4.27829   4
   6   5 -17 -2.7725 2.31761   1
  -6   5  17 2.64274 3.01608   2
   6   5 -17 1.38783 3.26481   2
  -6   5 -17 2.64119 2.38125   1
  -6   5 -17 5.20639 3.03006   2
   6   5  17 3.32551 3.34895   2
   7   5 -17 97.9566 7.59664   2
   7   5 -17 72.2357 5.50504   1
  -7   5  17 101.503 6.88143   2
  -7   5  17 101.838 9.44213   4
  -7   5 -17 109.458 7.29769   2
  -7   5 -17 86.1985 5.61767   1
   7   5  17 110.460 7.23626   2
  -8   5  17 194.539 11.9343   4
   8   5 -17 156.777 9.37893   2
  -8   5  17 160.242 8.51142   2
   8   5 -17 144.786 7.33056   1
  -8   5 -17 157.510 7.32948   1
  -8   5 -17 175.305 9.17692   2
   8   5  17 183.197 8.89806   2
   0   6 -17 3.32774 2.69377   2
   0   6  17 2.73005 5.02512   4
   0   6  17 -0.4043 2.64738   2
   1   6 -17 7.04599 3.06208   2
  -1   6  17 5.50182 5.42911   4
  -1   6  17 2.07316 2.69033   2
   1   6  17 5.18995 5.40150   4
   1   6  17 3.07661 2.73977   2
  -1   6 -17 1.39831 2.63779   2
  -2   6  17 34.1447 3.77240   2
   2   6 -17 37.5033 4.34837   2
   2   6  17 32.8734 7.08984   4
  -2   6 -17 45.0748 4.60466   2
   2   6  17 29.7422 3.71552   2
  -3   6  17 2.86561 2.75685   2
   3   6 -17 -0.3769 2.45514   2
   3   6  17 1.31296 4.92245   4
   3   6  17 2.83855 2.86199   2
  -3   6 -17 4.52739 2.79093   2
   4   6 -17 257.438 11.0429   2
  -4   6  17 262.467 10.2066   2
  -4   6 -17 290.757 11.1309   2
   4   6  17 268.120 15.8994   4
   4   6  17 277.718 10.4255   2
  -5   6  17 128.329 6.93400   2
   5   6 -17 105.521 7.50027   2
   5   6  17 137.704 7.26108   2
  -5   6 -17 118.040 7.61343   2
   5   6  17 106.080 10.6534   4
   0   0 -18 936.395 26.3685   1
   0   0  18 902.339 26.2128   1
  -1   0 -18 15.6013 3.47338   1
  -1   0  18 14.7467 3.52752   1
   1   0 -18 18.9050 3.56162   1
   1   0  18 18.0616 3.59457   1
  -2   0 -18 32.6285 4.23530   1
   2   0 -18 25.4187 4.03009   1
   2   0  18 28.9378 4.04737   1
  -2   0  18 29.8032 4.03973   1
   3   0  18 418.954 14.1675   1
  -3   0  18 417.838 13.8990   1
   3   0 -18 392.287 13.7642   1
  -3   0 -18 415.630 14.2079   1
   4   0  18 102.640 6.99231   1
  -4   0  18 108.277 6.86914   1
   4   0 -18 96.4479 6.70333   1
  -4   0 -18 105.874 7.41781   1
   5   0  18 138.882 7.99355   1
  -5   0 -18 149.515 8.17963   1
   5   0 -18 131.719 7.66576   1
  -5   0  18 146.567 7.80496   1
   6   0  18 -2.2856 3.25615   1
  -6   0  18 1.16009 3.38150   1
   6   0 -18 -0.0245 3.11589   1
  -6   0 -18 -4.7098 3.09893   1
   7   0 -18 10.5615 3.80004   1
  -7   0  18 15.7636 3.75734   1
   7   0  18 12.1291 3.90730   1
  -7   0 -18 16.9402 4.15090   1
   8   0 -18 675.884 21.3572   1
   8   0  18 680.494 21.5969   1
  -8   0  18 696.756 21.3935   1
  -8   0 -18 697.996 21.8603   1
   9   0  18 58.2915 5.92222   1
  -9   0  18 48.4761 5.38256   1
  -9   0 -18 48.1003 5.81367   1
   9   0 -18 60.0091 5.83859   1
 -10   0 -18 40.5496 5.60880   1
  10   0  18 47.7972 5.64414   1
  10   0 -18 51.7967 5.92470   1
 -10   0  18 43.3862 5.35541   1
 -11   0  18 50.2886 5.80707   1
  11   0  18 31.6556 5.22388   1
 -11   0 -18 27.9580 5.33762   1
 -11   0  18 46.6917 6.17680   5
 -12   0  18 15.2598 5.23654   5
 -12   0  18 17.0401 4.99318   1
  12   0  18 16.0494 4.85133   1
 -12   0 -18 12.3716 4.80981   1
   0   1 -18 0.05172 2.80944   1
   0  -1  18 4.22044 3.03261   1
   0   1  18 -1.3797 2.71871   1
   1   1 -18 111.047 6.94050   1
  -1   1  18 120.618 6.94747   1
   1  -1  18 122.742 7.02841   1
   1   1  18 107.074 6.76478   1
  -1  -1  18 123.275 6.97355   1
  -1   1 -18 122.190 7.12072   1
   2   1 -18 286.846 10.7546   1
   2  -1  18 272.179 10.9239   1
  -2   1  18 279.996 10.5487   1
   2   1  18 295.858 10.8452   1
  -2  -1  18 276.893 10.6573   1
  -2   1 -18 267.741 10.7382   1
   3   1 -18 88.4803 6.57749   1
  -3   1  18 98.5617 6.48342   1
   3  -1  18 101.007 6.83088   1
   3   1  18 87.9979 6.60263   1
  -3  -1  18 90.5746 6.48844   1
  -3   1 -18 86.5442 6.64345   1
   4  -1  18 44.6814 4.92071   1
   4   1 -18 49.6644 4.88162   1
  -4   1  18 37.5299 4.22749   1
  -4  -1  18 37.2773 4.45005   1
   4   1  18 44.7645 4.79952   1
  -4   1 -18 41.3403 4.69956   1
   5   1 -18 243.386 10.0377   1
   5  -1  18 237.591 10.4545   1
  -5   1  18 243.287 9.90723   1
  -5  -1  18 243.305 10.2077   1
   5   1  18 232.019 10.2447   1
  -5   1 -18 246.274 10.3781   1
   6   1 -18 1.29289 3.31558   1
  -6   1  18 7.75866 4.87776   4
   6  -1  18 3.05293 3.53371   1
  -6   1  18 3.58430 3.36051   1
  -6   1 -18 5.08346 3.34882   1
   6   1  18 0.77623 3.40875   1
  -6  -1  18 9.89329 3.56849   1
   7  -1  18 88.6053 7.19710   1
   7   1 -18 88.3373 6.97043   1
  -7   1  18 88.0925 6.91149   1
  -7   1  18 101.742 9.38421   4
  -7  -1  18 107.145 7.41689   1
  -7   1 -18 83.3655 6.46354   1
   7   1  18 84.3333 6.45461   1
   8  -1  18 33.1737 4.85696   1
  -8   1  18 28.0559 4.43935   1
   8   1 -18 26.1006 4.39306   1
  -8   1 -18 25.3074 4.52447   1
   8   1  18 30.6717 4.80557   1
  -8  -1  18 38.7631 4.95440   1
  -9   1  18 5.18888 3.76133   1
  -9   1  18 6.61250 4.14009   5
   9  -1  18 -1.9524 3.62909   1
   9   1 -18 -3.9312 3.33349   1
   9   1  18 2.83973 3.71546   1
  -9  -1  18 3.40580 3.76914   1
  -9   1 -18 5.10133 3.82092   1
 -10   1  18 19.9573 4.90468   5
 -10   1  18 17.5917 4.20472   1
  10   1 -18 4.54160 4.04858   1
 -10   1 -18 12.2309 4.27309   1
  10   1  18 17.3683 4.34480   1
 -10  -1  18 9.01692 4.31293   1
 -11   1  18 -1.3068 4.16760   5
  11   1 -18 9.02734 4.15500   1
 -11   1  18 12.7797 4.16117   1
 -11  -1  18 3.39704 4.16414   1
  11   1  18 6.72713 4.08111   1
 -11   1 -18 11.7083 4.44021   1
 -12   1  18 19.9500 4.49926   1
  12   1 -18 35.0498 5.16896   1
 -12   1  18 33.1862 5.69502   5
 -12   1 -18 26.5212 5.21830   1
 -12  -1  18 22.0334 5.30025   1
  12   1  18 34.8721 5.29583   1
   0   2  18 15.2113 3.25021   1
   0   2  18 18.3972 3.56288   2
   0   2 -18 15.1839 3.49915   1
   0   2  18 16.0582 6.82436   4
  -1   2  18 871.537 34.5835   4
   1   2 -18 836.353 24.8118   1
  -1   2  18 876.674 24.3724   1
  -1   2  18 876.628 24.4768   2
   1   2  18 875.449 24.5085   2
   1   2  18 803.167 35.9349   4
   1   2  18 852.615 24.3904   1
   2   2 -18 12.8759 3.39165   1
  -2   2  18 9.45221 3.02921   1
  -2   2  18 9.84520 5.66122   4
  -2   2  18 4.67834 2.91454   2
  -2   2 -18 6.83817 3.07183   1
   2   2  18 8.55680 3.22036   2
   2   2  18 4.19912 2.99524   1
  -3   2  18 47.3699 4.52544   2
  -3   2  18 61.3510 7.66642   4
   3   2 -18 50.0196 4.97935   1
  -3   2  18 50.9782 4.39407   1
   3   2  18 48.2443 4.67131   1
  -3   2 -18 60.3695 5.21936   1
   3   2  18 58.5497 5.04489   2
  -4   2  18 65.3162 7.74644   4
  -4   2  18 58.1144 4.73219   1
   4   2 -18 59.8343 5.19691   1
  -4   2  18 63.1607 5.11886   2
   4   2  18 65.1777 5.05282   1
   4   2  18 56.0398 5.12535   2
  -4   2 -18 63.4558 5.32442   1
  -5   2  18 18.5448 3.59895   2
   5   2 -18 13.7273 3.72651   1
  -5   2  18 7.03819 4.68065   4
  -5   2  18 7.95479 3.20471   1
   5   2  18 7.05558 6.90834   4
  -5   2 -18 11.4675 3.48323   1
   5   2  18 5.42290 3.35221   1
   6   2 -18 3.25221 3.40947   1
  -6   2  18 3.20887 4.43895   4
  -6   2  18 2.39052 3.04699   1
  -6   2  18 -6.6836 3.46562   5
  -6   2 -18 -2.3795 3.05257   1
   6   2  18 4.80412 3.41856   1
   6   2  18 -1.8885 5.92408   4
  -7   2  18 59.2079 6.99256   4
  -7   2  18 57.7043 4.99965   1
   7   2 -18 51.7206 5.34834   1
  -7   2  18 62.3433 5.88049   5
   7   2  18 55.3237 5.14674   1
  -7   2 -18 48.5016 5.20995   1
   7   2  18 57.8250 8.76855   4
   8   2 -18 114.564 7.87735   1
  -8   2  18 113.340 9.49059   4
  -8   2  18 117.034 8.27008   5
  -8   2  18 106.996 7.25148   1
   8   2  18 110.869 7.51036   1
  -8   2 -18 108.608 7.88906   1
  -9   2  18 980.236 27.8774   1
  -9   2  18 989.149 29.1393   5
   9   2 -18 958.091 28.5554   1
  -9   2 -18 931.497 28.4054   1
   9   2  18 963.003 28.1711   1
  10   2 -18 100.621 7.69193   1
 -10   2  18 94.3333 7.42702   5
 -10   2  18 95.4444 7.30635   1
  10   2  18 103.411 7.60430   1
 -10   2 -18 96.9465 7.29762   1
 -11   2  18 23.1766 4.29156   1
  11   2 -18 21.5480 4.75746   1
 -11   2  18 24.4607 5.48159   5
 -11   2 -18 21.1322 4.80690   1
  11   2  18 22.3186 4.60859   1
  12   2 -18 29.0864 5.07758   1
 -12   2  18 16.3405 4.25484   1
 -12   2  18 27.2412 5.30648   5
 -12   2 -18 24.1036 5.18716   1
  12   2  18 24.6346 5.04482   1
   0   3 -18 -1.4030 2.52258   2
   0   3 -18 -2.3246 2.68977   1
   0   3  18 4.19523 5.72889   4
   0   3  18 2.26069 2.86903   2
   0   3  18 -4.4640 2.40882   1
  -1   3  18 104.739 6.25599   2
  -1   3  18 84.2511 5.49704   1
  -1   3  18 82.6886 9.70448   4
   1   3 -18 98.5604 6.45380   2
   1   3 -18 89.5068 6.46174   1
   1   3  18 97.4532 5.70153   1
  -1   3 -18 90.2543 6.44484   1
  -1   3 -18 104.548 6.43596   2
   1   3  18 83.6265 6.20102   2
   1   3  18 51.2038 8.99831   4
  -2   3  18 224.986 8.70447   1
  -2   3  18 229.843 14.6471   4
  -2   3  18 242.304 9.47482   2
   2   3 -18 238.249 9.64744   1
   2   3  18 234.503 8.91553   1
  -2   3 -18 253.203 9.84513   1
   2   3  18 227.172 9.52142   2
  -2   3 -18 237.233 9.84578   2
  -3   3  18 86.9982 5.57559   1
  -3   3  18 86.4669 8.87859   4
   3   3 -18 87.3681 6.52855   1
  -3   3  18 94.8271 6.29750   2
   3   3  18 83.3109 5.68815   1
   3   3  18 85.5509 6.29484   2
  -4   3  18 26.2992 3.83314   2
  -4   3  18 26.1012 3.44688   1
   4   3 -18 21.4666 3.83140   1
  -4   3  18 23.4333 5.62456   4
   4   3  18 33.0166 4.19682   2
   4   3  18 21.7189 3.42625   1
   4   3  18 16.6387 6.73302   4
  -4   3 -18 19.8382 3.79839   1
  -5   3  18 223.675 13.0779   4
   5   3 -18 220.856 9.59550   1
  -5   3  18 233.563 9.52939   2
  -5   3  18 208.900 8.50275   1
   5   3  18 236.952 9.77466   2
   5   3  18 220.820 8.83438   1
  -5   3 -18 220.763 9.52666   1
   5   3  18 185.997 14.9557   4
   6   3 -18 3.80186 3.21621   1
  -6   3  18 0.44202 2.84559   1
  -6   3  18 -3.2229 3.84600   5
  -6   3  18 4.93942 4.76359   4
  -6   3  18 8.43893 3.40823   2
   6   3  18 3.54645 5.74285   4
  -6   3 -18 -0.2865 3.06892   1
   6   3  18 1.79664 3.02160   1
   6   3  18 2.99455 3.32159   2
   7   3 -18 85.1686 6.72031   1
  -7   3  18 85.3480 6.61430   2
  -7   3  18 70.8535 5.79334   1
  -7   3  18 73.0276 6.85916   5
  -7   3  18 82.4270 8.29890   4
  -7   3 -18 77.1061 5.99029   1
   7   3  18 73.5293 6.07777   2
   7   3  18 73.5331 5.49858   1
  -8   3  18 16.8813 3.46690   1
   8   3 -18 16.0587 3.99515   1
  -8   3  18 19.1490 5.19934   4
  -8   3  18 17.5916 4.76601   5
   8   3  18 13.4903 3.70960   1
  -8   3 -18 15.5198 4.00934   1
  -9   3  18 1.15613 3.13741   1
   9   3 -18 2.15145 3.34060   1
  -9   3  18 1.81717 4.21085   5
  -9   3 -18 4.09996 3.46708   1
   9   3  18 13.0978 3.85708   1
  10   3 -18 19.9666 4.17202   1
 -10   3  18 16.5119 4.77739   5
 -10   3  18 9.30133 3.51156   1
  10   3  18 8.17296 3.84673   1
 -10   3 -18 10.2178 4.11746   1
 -11   3  18 3.49287 3.27471   1
 -11   3  18 0.39700 4.51258   5
  11   3 -18 2.96572 3.85521   1
  11   3  18 -1.7040 3.44847   1
 -11   3 -18 2.35736 3.59164   1
   0   4  18 561.896 16.7771   2
   0   4  18 463.457 24.5487   4
   0   4 -18 563.303 16.6234   1
   0   4 -18 553.635 17.0840   2
   1   4 -18 5.20319 2.72587   1
  -1   4  18 7.79030 5.84453   4
   1   4 -18 11.1560 3.31485   2
  -1   4  18 10.3760 3.07852   2
   1   4  18 -1.1207 5.61936   4
  -1   4 -18 2.44975 2.82957   2
   1   4  18 4.40066 2.93010   2
  -1   4 -18 6.04332 2.81926   1
   2   4 -18 17.0810 3.21763   1
  -2   4  18 18.8725 3.40820   2
   2   4 -18 21.6267 3.70504   2
  -2   4  18 16.1601 6.06696   4
  -2   4 -18 18.5423 3.33773   1
   2   4  18 20.4905 3.59803   2
  -2   4 -18 15.4873 3.39451   2
   2   4  18 3.57326 6.15886   4
  -3   4  18 241.146 14.7350   4
   3   4 -18 241.865 9.50662   1
  -3   4  18 261.330 9.96886   2
   3   4 -18 243.956 10.3420   2
  -3   4 -18 257.136 9.63219   1
   3   4  18 215.304 16.0185   4
   3   4  18 252.212 10.0386   2
  -3   4 -18 262.981 10.3817   2
  -4   4  18 64.6976 7.92936   4
   4   4 -18 66.0505 4.93599   1
  -4   4  18 63.3021 5.05748   2
   4   4 -18 62.4221 5.53865   2
   4   4  18 63.5108 9.29410   4
  -4   4 -18 60.3099 4.77117   1
  -4   4 -18 56.6097 5.25922   2
   4   4  18 61.6912 4.51691   1
   4   4  18 68.3464 5.36482   2
   5   4 -18 83.5745 6.17667   1
  -5   4  18 87.7233 5.21657   1
  -5   4  18 89.7805 8.80548   4
   5   4 -18 89.9198 6.68655   2
  -5   4  18 91.3287 6.50286   2
   5   4  18 80.4325 9.68138   4
  -5   4 -18 103.598 7.07449   2
  -5   4 -18 89.3425 6.18037   1
   5   4  18 95.4399 6.83442   2
   6   4 -18 4.55578 2.83329   1
  -6   4  18 -0.3913 3.04213   2
  -6   4  18 -4.9002 4.26140   4
  -6   4  18 2.04992 2.38198   1
   6   4  18 0.05336 3.28077   2
   6   4  18 0.09192 2.49679   1
   6   4  18 -0.4675 4.92748   4
  -7   4  18 5.25139 4.70012   4
  -7   4  18 10.7352 2.66907   1
  -7   4  18 10.3391 3.47915   2
   7   4 -18 6.37707 3.06302   1
   7   4  18 9.00096 3.61578   2
   7   4  18 7.60775 2.74608   1
  -7   4 -18 11.0560 3.52426   1
  -8   4  18 445.784 13.8847   1
  -8   4  18 479.353 15.6089   2
  -8   4  18 478.147 20.4393   4
   8   4 -18 437.033 15.0380   1
  -8   4 -18 446.516 15.1672   1
   8   4  18 446.740 15.7078   2
   8   4  18 435.364 13.9733   1
  -9   4  18 22.7768 5.75515   5
  -9   4  18 21.7537 3.37437   1
   9   4 -18 27.5846 4.07497   1
  -9   4  18 23.5669 4.43350   2
  -9   4 -18 17.9478 3.95986   1
   9   4  18 29.9112 4.72570   2
   9   4  18 26.7149 3.76968   1
   0   5  18 -3.4687 2.74077   2
   0   5 -18 2.58088 2.20216   1
   0   5 -18 -2.1020 2.61709   2
   0   5  18 7.80330 5.92612   4
   1   5 -18 64.1644 4.50284   1
   1   5 -18 57.8144 5.14228   2
  -1   5  18 51.8237 8.26733   4
  -1   5  18 59.3283 4.80759   2
   1   5  18 60.3681 4.83806   2
  -1   5 -18 69.3340 5.38990   2
  -1   5 -18 54.3016 4.40816   1
   1   5  18 55.4346 8.63222   4
   2   5 -18 132.450 6.12381   1
  -2   5  18 113.281 11.3041   4
   2   5 -18 151.365 7.83207   2
  -2   5  18 145.292 7.14739   2
  -2   5 -18 151.062 7.94442   2
  -2   5 -18 140.856 6.25271   1
   2   5  18 135.118 7.36414   2
   2   5  18 142.808 12.8443   4
   3   5 -18 52.7900 4.84428   2
   3   5 -18 53.5371 3.79003   1
  -3   5  18 40.6422 4.35044   2
  -3   5  18 37.1756 7.16022   4
  -3   5 -18 39.2502 3.46590   1
   3   5  18 47.6122 4.54893   2
   3   5  18 43.0508 7.74690   4
  -3   5 -18 40.9943 4.56368   2
  -4   5  18 32.5856 4.06687   2
   4   5 -18 31.1288 3.31341   1
   4   5 -18 27.4687 4.04823   2
  -4   5  18 30.4172 6.48572   4
  -4   5 -18 32.1021 4.30729   2
   4   5  18 33.5030 4.19550   2
  -4   5 -18 28.5710 3.13621   1
   4   5  18 25.4705 6.85778   4
   5   5 -18 115.885 6.04521   1
  -5   5  18 112.638 10.3561   4
  -5   5  18 112.151 6.90832   2
   5   5 -18 111.677 7.72914   2
   5   5  18 129.056 7.53747   2
  -5   5 -18 118.151 6.15793   1
  -5   5 -18 128.229 7.73440   2
   5   5  18 131.561 11.5008   4
  -6   5  18 -1.0874 4.57396   4
   6   5 -18 -5.5839 3.15832   2
   6   5 -18 6.05409 2.64021   1
  -6   5  18 4.97001 3.13749   2
   6   5  18 0.17374 3.33215   2
  -6   5 -18 1.98152 3.34082   2
  -6   5 -18 -0.6391 2.48382   1
   7   5 -18 44.7680 5.52243   2
  -7   5  18 45.8828 4.92065   2
   7   5 -18 44.4166 4.18385   1
   7   5  18 48.6592 5.22871   2
  -7   5 -18 42.8555 5.03878   2
  -7   5 -18 48.4590 4.05907   1
   0   6 -18 4.44199 3.01063   2
   0   6  18 10.9832 3.09863   2
   1   6 -18 400.244 13.8298   2
  -1   6  18 390.612 13.0842   2
  -1   6 -18 387.914 13.6413   2
   1   6  18 390.588 13.1258   2
  -2   6  18 -1.9040 2.71075   2
   2   6 -18 1.07424 3.03435   2
  -2   6 -18 0.81879 2.87204   2
   2   6  18 8.69540 3.18910   2
  -3   6  18 28.8869 3.84835   2
   3   6 -18 32.6362 4.40254   2
  -3   6 -18 29.3514 4.18057   2
   3   6  18 29.3681 3.88934   2
   0   0 -19 2.73749 3.19983   1
   0   0  19 3.90422 3.13665   1
  -1   0  19 182.949 8.40458   1
   1   0 -19 178.673 8.75186   1
   1   0  19 166.919 8.49467   1
  -1   0 -19 178.234 8.69559   1
  -2   0 -19 149.186 8.24019   1
   2   0  19 163.907 8.24964   1
   2   0 -19 160.720 8.26411   1
  -2   0  19 158.518 8.09769   1
   3   0  19 28.9925 4.33923   1
  -3   0 -19 30.2848 4.50855   1
   3   0 -19 27.6447 4.31477   1
  -3   0  19 22.1395 3.97237   1
  -4   0  19 1096.12 31.2154   1
   4   0 -19 1097.48 31.2103   1
   4   0  19 1122.15 31.5385   1
  -4   0 -19 1101.84 31.5541   1
  -5   0 -19 196.862 9.85484   1
  -5   0  19 208.555 9.31273   1
   5   0 -19 198.491 9.37134   1
   5   0  19 198.732 9.64199   1
   6   0 -19 105.954 7.29646   1
  -6   0  19 118.052 7.53253   1
  -6   0 -19 106.538 7.83947   1
   6   0  19 102.272 7.68622   1
   7   0  19 53.5493 5.66223   1
  -7   0  19 50.5539 5.34065   1
  -7   0 -19 47.5048 5.56641   1
   7   0 -19 43.3365 5.23649   1
  -8   0 -19 244.783 11.5109   1
  -8   0  19 251.515 11.0526   1
   8   0 -19 263.661 11.3141   1
   8   0  19 270.314 11.4913   1
   9   0  19 17.1249 4.60231   1
   9   0 -19 17.0452 4.41200   1
  -9   0  19 17.5613 4.19362   1
  -9   0 -19 16.0764 4.45293   1
  10   0  19 246.202 11.5001   1
 -10   0  19 253.128 11.4931   1
 -10   0 -19 245.459 12.0699   1
 -11   0 -19 30.5359 5.46538   1
  11   0  19 27.0693 5.04535   1
 -11   0  19 28.1417 4.90147   1
 -11   0  19 12.9274 5.37824   5
  12   0  19 286.795 12.6866   1
 -12   0  19 246.871 13.3646   5
 -12   0  19 262.026 12.2645   1
 -12   0 -19 284.825 13.2360   1
   0  -1  19 588.970 18.3138   1
   0   1 -19 561.959 18.2549   1
   0   1  19 587.722 18.0335   1
  -1   1  19 25.8347 3.94623   1
   1  -1  19 27.4748 4.11307   1
   1   1 -19 30.5391 4.26465   1
  -1   1 -19 18.0512 3.78633   1
  -1  -1  19 26.7704 4.12362   1
   1   1  19 27.0323 4.20228   1
  -2   1  19 239.455 9.80050   1
   2   1 -19 235.950 9.93456   1
   2  -1  19 249.769 10.2291   1
  -2  -1  19 227.087 9.79271   1
   2   1  19 247.207 10.1686   1
  -2   1 -19 227.988 10.0398   1
  -3   1  19 96.4386 6.81757   1
   3  -1  19 93.0586 7.16542   1
   3   1 -19 104.903 6.89936   1
  -3   1 -19 94.5908 6.97327   1
   3   1  19 88.5953 6.92670   1
  -3  -1  19 93.8968 6.74832   1
   4   1 -19 0.80131 3.33135   1
  -4   1  19 -1.6389 3.19221   1
   4  -1  19 -0.9393 3.45006   1
   4   1  19 -5.7951 3.08470   1
  -4   1 -19 -3.3167 3.19312   1
  -4  -1  19 4.68980 3.28442   1
   5   1 -19 4.36522 3.12090   1
   5  -1  19 2.78957 3.68026   1
  -5   1  19 9.51634 3.50928   1
  -5  -1  19 11.5481 3.63772   1
  -5   1 -19 3.92710 3.47006   1
   5   1  19 -0.3384 3.44827   1
  -6   1  19 210.394 9.65893   1
   6   1 -19 219.858 10.0039   1
   6  -1  19 212.944 10.3613   1
  -6   1  19 248.143 13.8602   4
  -6   1 -19 203.193 10.2560   1
  -6  -1  19 227.217 9.98553   1
   6   1  19 196.909 9.86309   1
   7   1 -19 33.2655 4.75377   1
  -7   1  19 24.6891 5.83606   4
  -7   1  19 31.6874 4.50970   1
   7  -1  19 27.6845 4.69525   1
   7   1  19 32.9977 4.81680   1
  -7   1 -19 18.2409 4.29531   1
  -7  -1  19 16.8179 4.41399   1
   8   1 -19 59.0693 5.69220   1
  -8   1  19 49.8852 5.40682   1
   8  -1  19 50.4134 5.85433   1
   8   1  19 57.9774 5.75450   1
  -8  -1  19 40.1469 5.30243   1
  -8   1 -19 39.1580 5.25282   1
   9   1 -19 140.649 8.51796   1
  -9   1  19 134.944 8.58689   1
   9  -1  19 141.924 9.10345   1
  -9   1  19 140.480 9.72647   5
  -9  -1  19 144.448 9.02743   1
   9   1  19 134.202 8.78761   1
  -9   1 -19 137.213 8.91659   1
 -10   1  19 36.5913 5.71576   5
  10   1 -19 41.3892 5.48892   1
 -10   1  19 26.7239 4.98826   1
 -10   1 -19 48.8491 5.85310   1
 -10  -1  19 45.1589 5.76235   1
  10   1  19 40.6270 5.55480   1
  11   1 -19 13.6847 4.50766   1
 -11   1  19 12.2123 4.46971   1
 -11   1  19 18.9454 5.10440   5
  11   1  19 25.6999 4.79049   1
 -11  -1  19 24.2888 5.12889   1
 -11   1 -19 14.1137 4.61224   1
   0   2  19 5.33875 3.14885   1
   0   2  19 -1.5637 2.96624   2
   0   2 -19 0.82293 3.02788   1
   0   2  19 4.98950 6.51457   4
  -1   2  19 18.6605 6.59177   4
  -1   2  19 15.2946 3.58976   2
   1   2 -19 22.1042 3.92101   1
  -1   2  19 18.6025 3.45722   1
   1   2  19 19.4152 3.85665   2
   1   2  19 19.1748 3.60411   1
   1   2  19 18.7145 7.64562   4
  -1   2 -19 15.5318 3.71885   1
  -2   2  19 50.2305 7.96300   4
  -2   2  19 43.2393 4.60227   2
  -2   2  19 47.9607 4.52960   1
   2   2 -19 49.5705 4.96991   1
  -2   2 -19 44.8165 4.87129   1
   2   2  19 46.8153 10.0934   4
   2   2  19 54.5531 4.69985   1
   2   2  19 47.9930 4.80592   2
   3   2 -19 391.269 13.6561   1
  -3   2  19 386.242 13.0042   1
  -3   2  19 394.179 13.3993   2
  -3   2  19 381.217 18.7475   4
   3   2  19 371.279 13.0125   1
  -3   2 -19 378.952 13.5500   1
   3   2  19 324.703 21.8195   4
   4   2 -19 632.589 19.4781   1
  -4   2  19 634.973 18.8755   1
  -4   2  19 663.088 26.0661   4
   4   2  19 528.746 29.0698   4
  -4   2 -19 610.779 19.3704   1
   4   2  19 625.224 19.1007   1
   5   2 -19 806.035 23.3817   1
  -5   2  19 773.936 22.5684   1
  -5   2  19 795.518 30.1656   4
   5   2  19 698.440 33.4790   4
  -5   2 -19 771.063 23.1368   1
   5   2  19 741.633 22.7001   1
  -6   2  19 16.4880 4.36297   5
  -6   2  19 18.0250 5.52120   4
  -6   2  19 11.9843 3.45507   1
   6   2 -19 18.2614 3.99549   1
   6   2  19 9.13656 7.07570   4
   6   2  19 15.6462 3.90202   1
  -6   2 -19 15.4798 4.18374   1
  -7   2  19 47.5445 5.74910   5
  -7   2  19 49.9997 6.85123   4
  -7   2  19 44.6330 4.77738   1
   7   2 -19 46.6526 5.30925   1
  -7   2 -19 44.6527 5.36882   1
   7   2  19 49.7605 8.44873   4
   7   2  19 42.3996 4.99394   1
  -8   2  19 35.4372 5.24380   5
   8   2 -19 32.9414 4.96941   1
  -8   2  19 39.3896 4.47206   1
  -8   2  19 30.6042 5.89336   4
   8   2  19 38.2162 4.99264   1
  -8   2 -19 30.0387 4.82844   1
   9   2 -19 13.8550 4.15542   1
  -9   2  19 8.73468 3.79106   1
  -9   2  19 3.21252 4.12784   5
  -9   2 -19 11.7906 4.17399   1
   9   2  19 11.9057 4.11664   1
 -10   2  19 2.06126 3.63269   1
 -10   2  19 16.8776 4.60455   5
  10   2 -19 -2.5320 3.68409   1
 -10   2 -19 -0.0793 3.62215   1
  10   2  19 -2.8983 3.75019   1
 -11   2  19 -0.3328 4.14758   5
 -11   2  19 8.02518 3.63539   1
  11   2 -19 -4.3875 3.52878   1
  11   2  19 3.67789 3.88622   1
 -11   2 -19 2.75452 3.96765   1
   0   3  19 429.175 14.0537   2
   0   3 -19 456.757 14.4143   1
   0   3  19 430.633 13.4098   1
   0   3  19 342.702 20.9395   4
  -1   3  19 24.3902 3.81489   2
   1   3 -19 33.1768 4.17253   1
  -1   3  19 36.2316 7.87526   4
  -1   3  19 35.5357 3.77758   1
  -1   3 -19 30.9671 3.91955   1
   1   3  19 18.0552 7.20689   4
   1   3  19 26.2274 3.87741   2
   1   3  19 27.2603 3.65323   1
  -2   3  19 187.858 7.90817   1
  -2   3  19 194.070 8.52667   2
  -2   3  19 182.297 13.6895   4
   2   3 -19 193.927 8.77335   1
  -2   3 -19 191.599 8.78489   1
   2   3  19 187.931 8.03332   1
   2   3  19 180.818 8.64841   2
   3   3 -19 72.4491 5.64874   1
  -3   3  19 64.8958 5.31026   2
  -3   3  19 72.8845 8.68152   4
  -3   3  19 68.4969 5.46238   1
   3   3  19 70.6509 5.61232   2
   3   3  19 71.0944 5.69484   1
  -3   3 -19 69.7307 5.55013   1
  -4   3  19 -3.2223 2.74233   1
   4   3 -19 -2.5265 3.08932   1
  -4   3  19 0.13648 3.07196   2
  -4   3  19 -5.8257 4.28792   4
   4   3  19 -0.5039 6.10219   4
   4   3  19 4.02217 2.88136   1
  -4   3 -19 1.95541 3.21762   1
   4   3  19 3.24918 3.21049   2
  -5   3  19 -1.2301 2.92088   2
  -5   3  19 3.67791 2.88245   1
   5   3 -19 7.28024 3.43054   1
  -5   3  19 2.90916 4.64151   4
   5   3  19 0.11103 3.16503   1
   5   3  19 5.53422 3.49074   2
   5   3  19 1.93731 6.07827   4
  -5   3 -19 2.24932 3.24196   1
  -6   3  19 178.129 7.99498   1
   6   3 -19 176.095 8.85491   1
  -6   3  19 194.864 12.4768   4
  -6   3  19 179.457 8.88435   2
   6   3  19 174.857 8.29807   1
   6   3  19 188.976 9.22688   2
   6   3  19 160.346 13.9279   4
  -6   3 -19 174.321 8.96338   1
   7   3 -19 23.0213 4.35111   1
  -7   3  19 32.7766 3.93916   1
  -7   3  19 31.8007 6.19640   4
  -7   3  19 33.8884 5.44185   5
  -7   3 -19 33.0627 4.80696   1
   7   3  19 24.2209 4.10270   1
   8   3 -19 41.2102 4.97151   1
  -8   3  19 43.0297 5.81517   5
  -8   3  19 40.0762 4.25696   1
  -8   3  19 41.7286 6.29402   4
  -8   3 -19 30.2666 4.48362   1
   8   3  19 38.3377 4.52671   1
  -9   3  19 143.070 9.50946   5
   9   3 -19 129.173 8.39483   1
  -9   3  19 148.122 7.68041   1
  -9   3 -19 141.270 8.73181   1
   9   3  19 126.623 7.80629   1
 -10   3  19 40.4352 5.82736   5
  10   3 -19 32.9145 4.88043   1
 -10   3  19 25.0260 4.08573   1
  10   3  19 32.9860 4.79243   1
 -10   3 -19 36.9438 5.04193   1
   0   4 -19 2.56389 2.77781   1
   0   4  19 -3.7455 2.66961   2
   0   4 -19 -1.1772 2.79796   2
   0   4  19 0.84582 6.25387   4
  -1   4  19 110.791 5.30793   1
  -1   4  19 101.093 6.61591   2
  -1   4  19 76.8269 9.68589   4
   1   4 -19 102.217 6.29990   1
   1   4 -19 91.1802 6.93159   2
   1   4  19 104.354 5.15268   1
   1   4  19 113.660 6.78458   2
  -1   4 -19 98.8405 6.31873   1
  -1   4 -19 99.4972 6.88587   2
   1   4  19 56.2805 9.95749   4
   2   4 -19 98.0317 6.27252   1
  -2   4  19 96.7135 10.3216   4
  -2   4  19 109.451 6.54198   2
   2   4 -19 90.9471 6.86674   2
   2   4  19 63.0272 10.1349   4
   2   4  19 96.5343 6.66619   2
  -2   4 -19 97.5160 6.98112   2
  -2   4 -19 97.1913 6.36002   1
  -3   4  19 21.1641 3.84133   2
   3   4 -19 13.9416 3.37092   1
   3   4 -19 19.1517 3.91417   2
  -3   4  19 14.0660 5.89462   4
  -3   4 -19 18.4739 3.41879   1
   3   4  19 17.7184 2.74516   1
   3   4  19 19.5422 3.85905   2
  -3   4 -19 14.2080 3.67929   2
   3   4  19 21.5090 7.38427   4
   4   4 -19 701.365 21.1801   1
  -4   4  19 735.810 29.3563   4
  -4   4  19 737.217 21.5616   2
   4   4  19 610.879 30.5565   4
   4   4  19 745.549 21.6315   2
  -4   4 -19 748.891 21.2819   1
  -5   4  19 125.198 7.28075   2
  -5   4  19 119.373 10.4428   4
   5   4 -19 107.802 6.83468   1
   5   4  19 100.778 11.2861   4
   5   4  19 131.136 7.69150   2
  -5   4 -19 113.211 6.98098   1
   6   4 -19 65.5290 5.26814   1
  -6   4  19 84.4211 6.44954   2
  -6   4  19 67.1635 5.08462   1
  -6   4  19 63.0759 7.98807   4
   6   4  19 63.2915 8.66817   4
   6   4  19 71.8905 5.11374   1
   6   4  19 77.5573 5.94104   2
  -7   4  19 29.6964 3.49165   1
  -7   4  19 20.3228 4.12283   2
   7   4 -19 26.3967 4.04375   1
  -7   4  19 25.3762 5.90362   4
  -7   4 -19 38.5446 4.70272   1
   7   4  19 29.3412 3.59087   1
   7   4  19 31.2463 4.85816   2
  -8   4  19 175.495 7.47930   1
  -8   4  19 182.569 9.23350   2
  -8   4  19 168.702 11.7059   4
   8   4 -19 156.511 8.36322   1
   8   4  19 178.099 9.60101   2
   8   4  19 164.027 7.57640   1
  -8   4 -19 177.603 8.89216   1
   0   5  19 347.715 11.8543   2
   0   5 -19 342.127 12.3345   2
   0   5 -19 320.355 10.6619   1
   0   5  19 287.293 18.3836   4
   1   5 -19 9.53381 2.61039   1
   1   5 -19 5.63603 3.14385   2
  -1   5  19 10.2443 5.95562   4
  -1   5  19 16.5578 3.49224   2
   1   5  19 11.3069 3.31600   2
  -1   5 -19 12.0783 2.62599   1
   1   5  19 8.26021 6.25280   4
  -1   5 -19 6.32614 3.06715   2
   2   5 -19 126.355 7.77984   2
  -2   5  19 121.363 7.16939   2
   2   5 -19 126.153 6.12798   1
  -2   5  19 129.428 11.8642   4
  -2   5 -19 145.065 7.83846   2
   2   5  19 96.8538 11.3836   4
  -2   5 -19 123.742 6.16941   1
   2   5  19 138.712 7.37000   2
  -3   5  19 37.6531 7.36326   4
  -3   5  19 61.1144 4.85520   2
   3   5 -19 48.9837 5.01429   2
   3   5 -19 49.3330 3.97603   1
   3   5  19 59.2126 5.09070   2
  -3   5 -19 58.7060 5.31228   2
   3   5  19 49.1089 8.78888   4
  -3   5 -19 53.8024 4.08347   1
  -4   5  19 6.96488 5.36815   4
  -4   5  19 -2.5027 2.92341   2
   4   5 -19 -2.8714 2.92415   2
   4   5 -19 4.14116 2.44389   1
  -4   5 -19 -0.6243 3.14694   2
   4   5  19 -3.2758 5.20395   4
  -4   5 -19 4.89426 2.55570   1
   4   5  19 5.72822 3.37808   2
  -5   5  19 2.73715 3.04968   2
   5   5 -19 -5.9996 2.98900   2
   5   5 -19 0.97642 2.54886   1
  -5   5 -19 3.11875 2.65970   1
   5   5  19 5.64840 3.48929   2
  -5   5 -19 0.61137 3.21892   2
   5   5  19 -1.5063 5.09982   4
  -6   5  19 114.675 7.34654   2
   6   5 -19 118.431 6.42536   1
  -6   5 -19 133.057 6.68260   1
   6   5  19 128.754 7.97490   2
  -6   5 -19 131.404 8.24084   2
   0   0  20 193.013 9.34136   1
   0   0 -20 205.531 9.50942   1
  -1   0 -20 49.8052 5.10817   1
  -1   0  20 30.4802 4.39122   1
   1   0  20 42.1708 4.80730   1
   2   0 -20 147.297 8.12721   1
  -2   0 -20 141.919 8.30848   1
   2   0  20 158.368 8.22978   1
  -2   0  20 129.158 7.84189   1
  -3   0 -20 89.9067 6.68307   1
  -3   0  20 105.832 7.06321   1
   3   0  20 98.1593 7.22073   1
   3   0 -20 84.6735 6.98650   1
   4   0  20 135.433 8.34484   1
   4   0 -20 133.402 7.91564   1
  -4   0 -20 145.675 8.69114   1
  -4   0  20 136.977 8.04507   1
  -5   0  20 -3.1983 3.43612   1
  -5   0 -20 -0.5525 3.53544   1
   5   0 -20 -0.0097 3.66628   1
   5   0  20 1.50999 3.55187   1
   6   0  20 55.9374 5.75560   1
   6   0 -20 56.9796 5.45968   1
  -6   0 -20 39.5590 5.29571   1
  -6   0  20 50.0461 5.33725   1
   7   0 -20 8.02534 4.02795   1
   7   0  20 18.5198 4.54775   1
  -7   0 -20 15.2739 4.49664   1
  -7   0  20 18.7477 4.26889   1
   8   0  20 80.8112 6.91588   1
  -8   0  20 77.4759 6.51552   1
  -8   0 -20 104.099 8.31147   1
  -9   0 -20 324.861 13.7247   1
   9   0  20 304.895 13.3753   1
  -9   0  20 342.086 13.1799   1
  10   0  20 4.14601 4.28674   1
 -10   0  20 -5.3026 3.72999   1
 -10   0 -20 1.32960 4.24435   1
 -11   0  20 16.0075 4.71344   1
 -11   0  20 21.4179 5.62675   5
 -11   0 -20 24.6800 5.78762   1
  11   0  20 16.2976 5.10873   1
   0   1  20 -3.4295 3.18913   1
   0  -1  20 1.62272 3.34469   1
   1  -1  20 41.6743 4.85080   1
   1   1 -20 31.8330 4.45901   1
  -1   1  20 43.5701 4.74754   1
  -1   1 -20 39.8629 4.80711   1
   1   1  20 34.1585 4.41925   1
  -1  -1  20 37.9840 4.78246   1
   2   1 -20 2.85949 3.35496   1
  -2   1  20 3.74323 3.29802   1
   2  -1  20 1.79335 3.43449   1
  -2  -1  20 9.57968 3.55608   1
  -2   1 -20 4.26118 3.23043   1
   2   1  20 8.23619 3.43944   1
  -3   1  20 22.4832 4.13580   1
   3   1 -20 29.9201 4.44010   1
   3  -1  20 26.0795 4.59776   1
   3   1  20 23.8040 4.21002   1
  -3  -1  20 27.2104 4.27596   1
  -3   1 -20 21.3102 3.95702   1
   4   1 -20 -0.1765 3.33268   1
   4  -1  20 -3.1801 3.44697   1
  -4   1  20 3.39627 3.46446   1
  -4  -1  20 4.84024 3.39393   1
   4   1  20 3.11204 3.51733   1
  -4   1 -20 -2.0351 3.35642   1
   5  -1  20 5.78619 3.78905   1
  -5   1  20 5.06580 3.56168   1
   5   1 -20 11.5375 3.64100   1
   5   1  20 -0.0704 3.52736   1
  -5  -1  20 -4.5752 3.22344   1
  -5   1 -20 9.78717 3.76945   1
   6   1 -20 132.521 8.22267   1
  -6   1  20 124.188 7.99324   1
   6  -1  20 145.128 8.79320   1
  -6   1  20 148.285 11.3976   4
  -6   1 -20 124.982 8.56111   1
  -6  -1  20 133.602 8.18904   1
   6   1  20 120.940 8.36010   1
  -7   1  20 25.2435 5.99204   4
   7   1 -20 17.4200 4.39611   1
   7  -1  20 14.7349 4.63620   1
  -7   1  20 17.5089 4.16402   1
  -7  -1  20 15.5579 4.31778   1
   7   1  20 14.3135 4.30152   1
  -7   1 -20 23.8381 4.80798   1
   8   1 -20 213.648 10.1911   1
  -8   1  20 211.446 10.1045   1
   8  -1  20 201.819 10.6773   1
  -8   1 -20 215.768 10.5763   1
   8   1  20 201.105 10.2841   1
  -8  -1  20 219.400 10.5187   1
  -9   1  20 -2.2743 3.80521   1
   9   1 -20 4.76592 3.76390   1
  -9   1  20 1.57260 4.36680   5
  -9  -1  20 -3.3098 3.82099   1
  -9   1 -20 -0.0417 3.86231   1
   9   1  20 3.72932 4.02687   1
  10   1 -20 17.5971 4.58840   1
 -10   1  20 8.40434 4.87885   5
 -10   1  20 13.9353 4.45590   1
 -10   1 -20 10.2413 4.41795   1
  10   1  20 15.5632 4.51983   1
 -10  -1  20 5.11657 4.15526   1
 -11   1  20 44.7769 5.50780   1
 -11   1  20 50.6021 6.37137   5
  11   1 -20 38.7987 5.40127   1
 -11  -1  20 41.9263 5.91306   1
  11   1  20 41.8602 5.77702   1
 -11   1 -20 49.4173 6.30101   1
   0   2  20 536.143 17.3565   1
   0   2 -20 551.315 17.9480   1
   0   2  20 598.795 27.1188   4
   1   2 -20 181.535 8.98573   1
  -1   2  20 180.141 8.49546   1
  -1   2  20 189.446 14.5685   4
  -1   2 -20 178.522 8.88723   1
   1   2  20 157.367 15.6732   4
   1   2  20 181.711 8.56164   1
  -2   2  20 353.676 18.7857   4
   2   2 -20 343.506 12.9984   1
  -2   2  20 355.926 12.5979   1
   2   2  20 339.665 21.7925   4
  -2   2 -20 365.837 13.2329   1
   2   2  20 362.591 12.6671   1
   3   2 -20 32.9054 4.56614   1
  -3   2  20 31.5362 4.16185   1
  -3   2  20 35.2852 6.77707   4
   3   2  20 30.3392 4.21298   1
  -3   2 -20 21.4440 4.19871   1
   3   2  20 38.4751 9.74231   4
  -4   2  20 20.9357 3.79724   1
  -4   2  20 20.0468 5.98665   4
   4   2 -20 21.6467 4.19422   1
   4   2  20 17.9067 4.02914   1
  -4   2 -20 23.7900 4.32559   1
   4   2  20 37.2736 9.69683   4
  -5   2  20 2.15925 3.14849   1
   5   2 -20 0.64405 3.42642   1
  -5   2  20 3.65547 4.77114   4
   5   2  20 4.72471 3.47875   1
   5   2  20 11.0580 7.66870   4
  -5   2 -20 8.09862 3.80491   1
   6   2 -20 381.114 13.9475   1
  -6   2  20 394.910 18.2457   4
  -6   2  20 381.633 13.3213   1
  -6   2  20 375.625 14.4882   5
   6   2  20 332.169 20.7143   4
  -6   2 -20 366.266 13.9616   1
   6   2  20 378.027 13.6309   1
  -7   2  20 76.3600 6.78063   5
  -7   2  20 63.4177 5.37166   1
   7   2 -20 61.8095 5.99243   1
  -7   2  20 72.6162 7.99095   4
   7   2  20 69.4607 9.78922   4
  -7   2 -20 57.7574 5.82327   1
   7   2  20 61.2745 5.55991   1
  -8   2  20 13.0841 5.68322   4
   8   2 -20 14.3403 4.26873   1
  -8   2  20 21.2804 4.82585   5
  -8   2  20 11.1550 3.71757   1
   8   2  20 13.3616 4.17403   1
  -8   2 -20 5.78078 4.03545   1
  -9   2  20 1.16751 3.49816   1
  -9   2  20 5.60909 4.12766   5
   9   2 -20 7.47073 4.12095   1
   9   2  20 4.26215 4.01868   1
  -9   2 -20 7.48969 4.30845   1
  10   2 -20 16.3644 4.72509   1
 -10   2  20 19.4873 4.92665   5
 -10   2  20 21.4638 4.39036   1
  10   2  20 16.7925 4.46995   1
 -10   2 -20 24.4005 5.20110   1
   0   3 -20 -2.6376 2.97539   1
   0   3  20 -5.3006 2.97775   2
   0   3  20 3.64069 2.85611   1
   0   3  20 2.25465 6.27027   4
  -1   3  20 31.8752 8.15524   4
  -1   3  20 34.1570 4.33598   2
  -1   3  20 29.9566 3.79322   1
   1   3 -20 32.8871 4.44239   1
  -1   3 -20 36.5566 4.49042   1
   1   3  20 30.0484 3.86267   1
   1   3  20 36.4871 4.58360   2
   1   3  20 17.8155 7.35914   4
  -2   3  20 -1.2899 2.75136   1
   2   3 -20 2.40232 3.12910   1
  -2   3  20 -3.9524 5.30328   4
  -2   3  20 5.30061 3.28600   2
   2   3  20 3.01181 3.30058   2
  -2   3 -20 7.03345 3.39533   1
   2   3  20 6.84344 6.94289   4
   2   3  20 5.99754 2.94868   1
  -3   3  20 15.2850 3.28032   1
  -3   3  20 18.1831 6.29619   4
  -3   3  20 13.2074 3.48086   2
   3   3 -20 15.5596 3.93734   1
   3   3  20 21.0776 3.56475   1
   3   3  20 11.2647 7.26526   4
  -3   3 -20 18.4421 3.71372   1
   3   3  20 16.9368 4.01549   2
  -4   3  20 0.26251 3.28478   2
  -4   3  20 3.44032 2.95119   1
  -4   3  20 3.23796 4.95092   4
   4   3 -20 2.74208 3.41028   1
   4   3  20 2.92089 3.07991   1
  -4   3 -20 7.77439 3.57149   1
   4   3  20 -0.4400 3.34599   2
   4   3  20 -5.5095 6.03497   4
  -5   3  20 -5.5211 4.33944   4
  -5   3  20 -3.1137 3.16498   2
  -5   3  20 -1.5145 2.84680   1
   5   3 -20 5.41071 3.30669   1
   5   3  20 5.03026 3.80924   2
  -5   3 -20 2.60368 3.35568   1
   5   3  20 0.95398 3.06887   1
   5   3  20 1.33449 6.33199   4
  -6   3  20 102.271 6.45320   1
  -6   3  20 120.784 10.6568   4
   6   3 -20 107.275 7.37178   1
  -6   3 -20 111.747 7.61048   1
   6   3  20 81.6532 10.7853   4
   6   3  20 102.465 6.82926   1
  -7   3  20 10.7793 3.37423   1
   7   3 -20 19.6842 4.37429   1
  -7   3  20 19.7691 5.63221   4
   7   3  20 11.7359 3.74932   1
  -7   3 -20 10.6863 3.81809   1
  -8   3  20 186.634 10.3929   5
  -8   3  20 180.372 11.9680   4
  -8   3  20 153.443 8.02112   1
   8   3 -20 162.098 9.11224   1
  -8   3 -20 162.203 9.11452   1
   8   3  20 161.374 8.44274   1
  -9   3  20 -3.1191 3.06293   1
  -9   3  20 -4.2293 3.84438   5
   9   3 -20 1.33651 3.35509   1
  -9   3 -20 0.30737 3.46606   1
   9   3  20 -0.4966 3.57440   1
   0   4 -20 125.822 7.23083   1
   0   4  20 139.815 7.69814   2
   0   4  20 93.3168 11.5282   4
   0   4  20 139.865 6.12776   1
  -1   4  20 21.3813 2.99999   1
   1   4 -20 27.9180 3.88067   1
  -1   4  20 17.7141 3.72586   2
  -1   4  20 25.6428 7.31662   4
   1   4  20 19.6064 3.83661   2
   1   4  20 20.2338 2.90829   1
   1   4  20 11.1229 7.17927   4
  -1   4 -20 24.7995 3.77599   1
  -2   4  20 83.6098 5.17239   1
  -2   4  20 90.4010 6.61751   2
   2   4 -20 88.9420 6.31706   1
  -2   4  20 82.6800 9.77544   4
   2   4  20 82.9892 6.17439   2
  -2   4 -20 89.1185 6.45825   1
  -3   4  20 67.6395 4.89603   1
  -3   4  20 60.2037 5.13498   2
   3   4 -20 59.4883 4.87781   1
  -3   4  20 69.1269 8.96967   4
   3   4  20 67.1893 5.51919   2
  -3   4 -20 59.8587 5.06975   1
   3   4  20 60.5925 4.82919   1
   3   4  20 42.7623 9.32454   4
  -4   4  20 88.0152 5.18616   1
  -4   4  20 77.4709 9.02966   4
  -4   4  20 88.6364 6.81381   2
   4   4 -20 79.4260 6.16541   1
   4   4  20 79.6533 6.12447   2
   4   4  20 51.4613 9.81631   4
  -4   4 -20 83.2939 6.41532   1
  -5   4  20 5.04182 4.85636   4
  -5   4  20 1.53112 2.58176   1
   5   4 -20 -0.4293 2.88605   1
  -5   4  20 7.52062 3.35230   2
  -5   4 -20 3.02412 3.11376   1
   5   4  20 -1.3036 2.55341   1
   5   4  20 4.03705 6.43151   4
   5   4  20 6.96791 3.56121   2
  -6   4  20 29.9753 4.40937   2
  -6   4  20 32.2469 6.60205   4
   6   4 -20 24.4255 4.05740   1
  -6   4  20 24.2294 3.28392   1
  -6   4 -20 38.0144 4.41781   1
   6   4  20 29.8297 7.37420   4
   6   4  20 15.5194 4.23006   2
   6   4  20 30.4642 3.57588   1
  -7   4  20 9.93027 3.91751   2
  -7   4  20 12.6364 5.29309   4
   7   4 -20 8.87361 3.43323   1
  -7   4  20 6.52802 2.83807   1
  -7   4 -20 9.19838 3.78063   1
   7   4  20 9.20333 3.15061   1
   7   4  20 9.48525 4.06347   2
   0   5 -20 3.79736 3.27042   2
   0   5  20 1.34795 3.19523   2
   0   5 -20 5.48072 2.45779   1
  -1   5  20 16.8023 3.59714   2
   1   5 -20 22.3949 3.19997   1
   1   5 -20 25.0720 4.12770   2
   1   5  20 23.4608 3.83136   2
  -1   5 -20 21.8081 3.11628   1
  -1   5 -20 19.4498 3.81392   2
  -2   5  20 9.73110 3.43662   2
   2   5 -20 0.61336 2.42637   1
   2   5 -20 -0.0140 3.08541   2
  -2   5 -20 3.80757 2.58544   1
  -2   5 -20 6.28216 3.46160   2
   2   5  20 -2.7500 3.02999   2
   3   5 -20 13.3574 2.83346   1
  -3   5  20 24.1782 3.87945   2
   3   5 -20 17.2070 3.89178   2
   3   5  20 16.8602 3.88547   2
  -3   5 -20 15.1462 3.93188   2
  -3   5 -20 19.1319 3.23941   1
  -4   5  20 2.20552 3.23013   2
   4   5 -20 -1.6362 3.55598   2
   4   5 -20 0.65807 2.46446   1
  -4   5 -20 0.52232 3.11412   2
  -4   5 -20 3.71121 2.55813   1
   4   5  20 -4.8202 3.10445   2
   5   5 -20 8.74951 2.86287   1
  -5   5  20 0.08192 3.23532   2
   5   5  20 3.24094 3.45746   2
  -5   5 -20 3.82325 2.77785   1
   0   0 -21 1.34909 3.54283   1
   0   0  21 4.74532 3.56806   1
  -1   0 -21 264.444 11.2996   1
  -1   0  21 263.780 11.0135   1
   1   0  21 257.958 11.0483   1
   1   0 -21 281.382 11.3453   1
   2   0  21 80.5346 6.32625   1
  -2   0 -21 92.2600 7.31635   1
  -2   0  21 90.3988 6.52807   1
   2   0 -21 84.4397 6.48811   1
  -3   0 -21 46.4734 5.30389   1
   3   0 -21 36.3975 4.83275   1
   3   0  21 47.0930 5.23225   1
  -3   0  21 36.2702 4.89196   1
  -4   0 -21 20.2773 4.65065   1
  -4   0  21 21.5995 4.47237   1
   4   0  21 21.4074 4.45545   1
   4   0 -21 19.1610 4.33579   1
   5   0  21 52.2719 5.73748   1
   5   0 -21 60.1478 5.83196   1
  -5   0  21 50.0549 5.37622   1
  -5   0 -21 54.7701 5.91539   1
   6   0 -21 0.35205 3.65378   1
  -6   0 -21 2.60270 4.05077   1
  -6   0  21 6.45442 3.91054   1
   6   0  21 0.66146 3.98723   1
  -7   0  21 582.015 18.9564   1
   7   0  21 582.698 19.4582   1
  -7   0 -21 563.922 19.3850   1
  -8   0  21 289.301 12.1593   1
   8   0  21 277.513 12.5954   1
  -8   0 -21 282.174 12.5991   1
   9   0  21 13.5797 4.72949   1
  -9   0  21 8.74357 4.11062   1
  -9   0 -21 19.1147 5.10703   1
 -10   0  21 13.9940 4.74957   1
  10   0  21 30.3191 5.42456   1
   0   1  21 270.519 11.1822   1
   0  -1  21 282.318 11.3905   1
   0   1 -21 273.906 11.3747   1
   1  -1  21 38.1853 4.80526   1
  -1   1  21 28.0375 4.46196   1
   1   1 -21 33.9467 4.62528   1
   1   1  21 39.0305 4.81785   1
  -1  -1  21 34.4009 4.75178   1
  -1   1 -21 34.4848 4.73392   1
   2   1 -21 2.15601 3.23183   1
  -2   1  21 -2.3059 3.28244   1
   2  -1  21 2.05024 3.44710   1
  -2  -1  21 3.40618 3.45338   1
  -2   1 -21 0.84581 3.24840   1
   2   1  21 4.58658 3.65241   1
   3   1 -21 53.8297 5.38773   1
  -3   1  21 65.2618 5.72293   1
   3  -1  21 59.8700 6.04638   1
  -3   1 -21 59.3978 5.71879   1
   3   1  21 63.1374 5.63955   1
  -3  -1  21 67.9236 6.00521   1
   4   1 -21 114.987 7.91342   1
   4  -1  21 111.848 8.11352   1
  -4   1  21 109.048 7.61736   1
  -4   1 -21 116.310 8.04960   1
  -4  -1  21 126.286 7.92664   1
   4   1  21 126.474 7.95025   1
   5  -1  21 -3.8307 3.65271   1
  -5   1  21 -1.7918 3.39642   1
   5   1 -21 0.52788 3.36525   1
  -5   1  21 3.83247 5.85138   4
  -5  -1  21 0.89839 3.58541   1
   5   1  21 -2.8141 3.69259   1
  -5   1 -21 -2.1822 3.66267   1
  -6   1  21 104.578 9.97635   4
   6  -1  21 87.9758 7.26581   1
  -6   1  21 80.5586 6.38216   1
   6   1 -21 70.9076 6.42259   1
  -6  -1  21 86.8286 6.86203   1
  -6   1 -21 102.297 8.13300   1
   6   1  21 90.8934 7.00962   1
   7   1 -21 13.8609 4.35489   1
  -7   1  21 20.3853 4.37857   1
  -7   1  21 12.3677 5.56268   4
   7  -1  21 15.6258 4.62154   1
  -7  -1  21 10.5803 4.33460   1
  -7   1 -21 5.58413 4.02482   1
   7   1  21 13.5543 4.35260   1
  -8   1  21 24.4146 4.73714   1
   8   1 -21 25.8500 4.69107   1
   8  -1  21 21.2665 5.09907   1
  -8   1 -21 31.2178 5.34666   1
   8   1  21 26.8685 4.93026   1
  -8  -1  21 31.1595 5.05467   1
   9   1 -21 63.9623 6.21671   1
  -9   1  21 68.7956 6.38087   1
  -9   1  21 72.6273 7.09715   5
   9   1  21 60.4589 6.29517   1
  -9   1 -21 57.4294 6.27443   1
  -9  -1  21 67.2359 6.56799   1
 -10   1  21 118.015 9.78401   5
  10   1 -21 131.211 9.00765   1
 -10   1  21 130.273 8.79009   1
 -10  -1  21 130.345 9.34400   1
  10   1  21 140.685 9.27242   1
 -10   1 -21 129.750 9.29803   1
   0   2 -21 1.50472 3.35107   1
   0   2  21 -4.7000 3.00371   1
   0   2  21 -5.4306 6.05810   4
  -1   2  21 7.14207 3.46812   1
   1   2 -21 2.73017 3.29445   1
  -1   2  21 9.79934 6.34156   4
  -1   2 -21 5.43328 3.52262   1
   1   2  21 5.81339 3.45286   1
   1   2  21 6.36894 7.27233   4
  -2   2  21 298.689 11.4838   1
  -2   2  21 319.820 17.6334   4
   2   2 -21 308.045 12.1725   1
   2   2  21 297.188 11.6042   1
  -2   2 -21 290.960 12.2873   1
   2   2  21 310.911 20.4631   4
   3   2 -21 101.631 7.62925   1
  -3   2  21 113.631 7.18299   1
  -3   2  21 93.2050 9.80357   4
   3   2  21 112.621 13.4435   4
  -3   2 -21 99.7380 7.68959   1
   3   2  21 104.296 7.23097   1
  -4   2  21 7.41446 5.31454   4
   4   2 -21 1.65527 3.67065   1
  -4   2  21 3.91698 3.32301   1
  -4   2 -21 6.65496 3.76196   1
   4   2  21 -1.5775 7.24970   4
   4   2  21 3.49601 3.56324   1
  -5   2  21 69.0829 8.19728   4
   5   2 -21 75.6388 6.35566   1
  -5   2  21 67.9137 5.53659   1
  -5   2 -21 64.0737 5.94811   1
   5   2  21 76.6746 11.0597   4
   5   2  21 63.4286 5.64908   1
   6   2 -21 298.613 12.3324   1
  -6   2  21 295.510 12.9289   5
  -6   2  21 327.721 16.4812   4
  -6   2  21 297.739 11.7424   1
  -6   2 -21 295.997 12.4178   1
   6   2  21 298.181 19.1631   4
   6   2  21 295.681 11.9739   1
  -7   2  21 3.97175 4.22191   5
   7   2 -21 4.12846 3.54662   1
  -7   2  21 11.2520 3.65036   1
  -7   2  21 4.57202 4.99100   4
   7   2  21 -0.0042 3.73481   1
  -7   2 -21 5.99190 4.13573   1
   7   2  21 4.72052 6.55992   4
  -8   2  21 -2.8808 3.27198   1
  -8   2  21 2.13431 4.09975   5
   8   2 -21 -5.3972 3.55867   1
   8   2  21 2.55320 3.93494   1
  -8   2 -21 3.46729 4.09099   1
  -9   2  21 21.3864 4.99928   5
  -9   2  21 33.5547 4.76710   1
   9   2 -21 27.9009 5.11687   1
  -9   2 -21 33.0374 5.34276   1
   9   2  21 23.7621 4.74264   1
   0   3  21 197.435 15.8872   4
   0   3  21 236.992 9.25088   1
   0   3 -21 235.939 10.2118   1
   0   3  21 222.774 10.0462   2
   1   3 -21 24.8355 4.24368   1
  -1   3  21 22.3237 3.53251   1
  -1   3  21 11.3920 6.86005   4
  -1   3  21 19.1231 4.10240   2
   1   3  21 22.7803 3.69588   1
   1   3  21 17.1052 4.11401   2
   1   3  21 11.6733 7.24579   4
  -1   3 -21 21.6349 4.04401   1
  -2   3  21 -1.2790 2.77896   1
  -2   3  21 5.99608 6.09007   4
   2   3 -21 -0.2129 2.96257   1
  -2   3  21 -2.8073 3.34110   2
   2   3  21 -0.0119 6.46821   4
   2   3  21 -3.6916 2.80556   1
  -2   3 -21 7.85979 3.43472   1
   2   3  21 -1.7946 3.15531   2
  -3   3  21 40.9631 4.26255   1
  -3   3  21 37.6141 4.83568   2
  -3   3  21 45.7279 7.92279   4
   3   3 -21 37.6045 4.90846   1
   3   3  21 49.4579 4.56692   1
   3   3  21 42.4575 5.38997   2
   3   3  21 18.9537 7.99705   4
  -3   3 -21 55.0664 5.21458   1
  -4   3  21 92.2566 6.12440   1
   4   3 -21 97.5810 7.34584   1
  -4   3  21 73.9472 8.79027   4
   4   3  21 83.9869 6.48059   1
   4   3  21 47.1327 9.79516   4
  -5   3  21 -2.8801 4.51135   4
  -5   3  21 -3.5538 2.90044   1
   5   3 -21 0.14137 3.34380   1
  -5   3 -21 -3.1463 3.36282   1
   5   3  21 2.58714 3.21502   1
   5   3  21 8.58662 6.91083   4
   6   3 -21 91.7105 7.17816   1
  -6   3  21 88.4337 9.15520   4
  -6   3  21 85.3371 6.28856   1
   6   3  21 84.5499 5.95197   1
  -6   3 -21 81.3221 6.38377   1
   6   3  21 61.1352 9.89878   4
  -7   3  21 15.2996 3.69588   1
  -7   3  21 20.9183 5.90026   4
   7   3 -21 17.1654 4.29153   1
  -7   3 -21 14.8976 4.25561   1
   7   3  21 18.3274 4.09936   1
   8   3 -21 17.9074 4.41090   1
  -8   3  21 19.2048 3.72296   1
  -8   3  21 22.1447 5.89363   4
   8   3  21 16.6227 4.16384   1
  -8   3 -21 26.9279 4.62283   1
   0   4  21 0.41492 2.52607   1
   0   4  21 3.18764 6.82130   4
   0   4 -21 -0.3142 3.01478   1
   0   4  21 -7.4297 2.97078   2
   1   4 -21 175.505 8.31169   1
  -1   4  21 159.393 7.05054   1
  -1   4  21 176.774 8.77600   2
  -1   4  21 154.815 14.3755   4
   1   4  21 159.563 8.71656   2
   1   4  21 184.580 7.12033   1
  -1   4 -21 178.987 8.40215   1
  -2   4  21 58.6501 8.97003   4
  -2   4  21 57.4427 4.07529   1
   2   4 -21 56.7648 4.99716   1
  -2   4  21 62.8662 5.42222   2
  -2   4 -21 58.0068 5.06609   1
   2   4  21 54.1509 5.27860   2
   3   4 -21 33.9073 4.14169   1
  -3   4  21 25.5662 6.80889   4
  -3   4  21 27.1691 4.20270   2
  -3   4  21 29.5490 3.40998   1
   3   4  21 29.3740 3.36615   1
   3   4  21 8.67930 7.17273   4
   3   4  21 27.8603 4.36386   2
  -3   4 -21 35.9255 4.27875   1
  -4   4  21 12.5999 3.82063   2
  -4   4  21 15.4849 2.97742   1
  -4   4  21 14.4075 5.86207   4
   4   4 -21 15.5310 3.54653   1
   4   4  21 13.8581 7.49172   4
   4   4  21 7.68835 3.77728   2
  -4   4 -21 12.6132 3.51086   1
   4   4  21 16.0982 3.12485   1
  -5   4  21 34.1995 4.59518   2
   5   4 -21 40.6909 4.66023   1
  -5   4  21 42.9247 3.73967   1
  -5   4 -21 29.3621 4.23857   1
   5   4  21 34.1594 3.71648   1
   5   4  21 20.8751 7.95331   4
   5   4  21 36.1201 4.97630   2
  -6   4  21 3.16256 3.53787   2
  -6   4  21 -0.4548 2.65724   1
   6   4 -21 4.53758 3.22497   1
   6   4  21 6.65786 6.31919   4
   6   4  21 -1.2799 2.77735   1
   6   4  21 -0.4373 3.50240   2
  -6   4 -21 0.49092 3.29243   1
   0   5 -21 166.410 7.35045   1
   0   5  21 170.403 8.62151   2
   1   5 -21 18.2572 3.15219   1
  -1   5  21 17.8613 3.67503   2
  -1   5 -21 21.8124 3.22994   1
   1   5  21 17.9557 3.89318   2
  -2   5  21 1.30198 3.16847   2
   2   5 -21 2.61693 2.66321   1
   2   5  21 1.44062 3.25700   2
  -2   5 -21 3.26321 2.72196   1
   0   0 -22 382.893 14.1658   1
   0   0  22 377.967 13.9254   1
   1   0  22 203.574 9.95208   1
  -1   0  22 205.386 9.85675   1
   1   0 -22 219.428 10.0474   1
  -1   0 -22 192.000 10.0366   1
   2   0  22 25.6609 4.49633   1
  -2   0 -22 25.9600 4.62093   1
   2   0 -22 26.0403 4.59512   1
  -2   0  22 28.7030 4.51777   1
   3   0  22 611.133 19.6144   1
   3   0 -22 602.895 19.4836   1
  -3   0 -22 603.749 19.8057   1
  -3   0  22 594.565 19.3506   1
  -4   0  22 10.6181 4.01361   1
   4   0 -22 10.5744 4.25734   1
   4   0  22 13.6837 4.26213   1
  -4   0 -22 6.83780 4.14467   1
  -5   0 -22 373.395 14.7622   1
  -5   0  22 362.616 14.0066   1
   5   0  22 392.992 14.6181   1
  -6   0 -22 87.8100 7.20051   1
  -6   0  22 84.7209 6.81723   1
   6   0  22 92.8582 7.43823   1
  -7   0  22 46.2024 5.56453   1
  -7   0 -22 49.4688 6.28044   1
   7   0  22 52.5947 6.00944   1
   8   0  22 69.4303 6.76141   1
  -8   0  22 81.2519 6.78816   1
   9   0  22 9.03944 4.60262   1
  -9   0  22 15.2327 4.51044   1
   0   1 -22 -3.7705 3.13616   1
   0  -1  22 4.64115 3.84498   1
   0   1  22 0.87433 3.51411   1
   1  -1  22 -1.0573 3.65061   1
   1   1 -22 6.15808 3.72565   1
  -1   1  22 6.32767 3.68923   1
  -1   1 -22 10.6109 3.87126   1
   1   1  22 1.25963 3.52904   1
  -1  -1  22 6.52295 3.78810   1
   2  -1  22 25.4763 4.69483   1
  -2   1  22 13.2474 4.01628   1
   2   1 -22 11.2304 3.92304   1
  -2  -1  22 16.5472 4.19002   1
   2   1  22 17.3816 4.36825   1
  -2   1 -22 10.4712 3.89676   1
  -3   1  22 16.0746 4.31799   1
   3  -1  22 22.3043 4.61502   1
   3   1 -22 14.4564 4.22704   1
   3   1  22 20.2497 4.50776   1
  -3  -1  22 13.4258 4.27206   1
  -3   1 -22 13.1334 4.14689   1
  -4   1  22 58.3266 5.68708   1
   4  -1  22 63.8252 6.45479   1
   4   1 -22 51.7132 5.66163   1
  -4   1 -22 47.8173 5.57926   1
  -4  -1  22 49.9289 5.77003   1
   4   1  22 62.2803 5.98816   1
   5  -1  22 219.606 11.0452   1
  -5   1  22 244.986 15.4491   4
  -5   1  22 224.284 10.3396   1
   5   1 -22 215.393 10.3919   1
  -5   1 -22 201.163 10.5138   1
  -5  -1  22 210.841 10.5657   1
   5   1  22 232.141 10.7079   1
  -6   1  22 98.9284 9.87731   4
   6  -1  22 94.5080 7.56108   1
   6   1 -22 70.9731 6.66748   1
  -6   1  22 78.4509 6.47024   1
  -6  -1  22 78.1739 6.67141   1
  -6   1 -22 80.2152 6.82201   1
   6   1  22 86.2541 7.00283   1
   7  -1  22 140.663 9.59803   1
   7   1 -22 154.987 9.15296   1
  -7   1  22 153.514 8.99314   1
  -7   1  22 138.023 11.6125   4
   7   1  22 144.177 9.34518   1
  -7  -1  22 154.832 9.26842   1
  -7   1 -22 145.224 9.51343   1
  -8   1  22 52.3616 5.77144   1
   8   1 -22 48.4368 5.64713   1
  -8   1 -22 45.0527 5.89032   1
  -8  -1  22 53.1282 6.20117   1
   8   1  22 45.2078 5.85728   1
   9   1 -22 12.7865 4.33593   1
  -9   1  22 10.2896 5.03265   5
  -9   1  22 16.2259 4.35891   1
   9   1  22 14.4376 4.62776   1
  -9   1 -22 19.2153 5.05915   1
  -9  -1  22 16.1004 4.85379   1
   0   2 -22 42.0350 5.07875   1
   0   2  22 43.6794 9.13335   4
   0   2  22 45.1495 4.87187   1
  -1   2  22 154.233 14.0065   4
  -1   2  22 169.500 8.75736   1
   1   2 -22 172.237 9.29430   1
   1   2  22 165.729 8.68759   1
   1   2  22 165.727 15.3903   4
  -1   2 -22 163.463 9.12898   1
   2   2 -22 31.5937 4.90840   1
  -2   2  22 21.4902 6.90923   4
  -2   2  22 25.0564 4.25210   1
   2   2  22 25.2699 8.64525   4
   2   2  22 24.9835 4.35418   1
  -2   2 -22 27.0421 4.63312   1
   3   2 -22 6.88803 4.02242   1
  -3   2  22 1.09461 3.51900   1
  -3   2  22 10.4036 5.79196   4
  -3   2 -22 12.7832 4.30448   1
   3   2  22 10.6885 8.05018   4
   3   2  22 12.4666 3.94398   1
  -4   2  22 77.0256 8.86594   4
  -4   2  22 72.5690 5.75140   1
   4   2 -22 75.4998 6.55162   1
   4   2  22 73.5706 11.4241   4
  -4   2 -22 61.3372 6.05305   1
   4   2  22 73.8409 6.14478   1
   5   2 -22 13.6114 4.18033   1
  -5   2  22 17.5461 5.79606   4
  -5   2  22 12.9806 3.90061   1
   5   2  22 16.3759 4.21501   1
  -5   2 -22 12.2851 4.09380   1
   5   2  22 19.1334 7.97773   4
  -6   2  22 16.6835 5.20459   5
   6   2 -22 17.2044 4.43708   1
  -6   2  22 7.88392 5.35829   4
  -6   2  22 11.0868 3.81891   1
  -6   2 -22 13.2411 4.24696   1
   6   2  22 16.4098 7.90350   4
   6   2  22 10.9891 4.03440   1
   7   2 -22 94.7884 7.76178   1
  -7   2  22 75.6014 8.56492   4
  -7   2  22 88.9471 7.49835   5
  -7   2  22 87.3981 7.19845   1
  -7   2 -22 82.2081 6.80865   1
   7   2  22 92.2453 7.53313   1
  -8   2  22 23.4463 4.36018   1
  -8   2  22 16.2058 4.69782   5
   8   2 -22 18.9448 4.68543   1
  -8   2 -22 19.7855 4.60534   1
   8   2  22 29.2029 4.86186   1
   0   3  22 -5.8572 6.14404   4
   0   3  22 -3.9223 3.08092   1
   0   3 -22 -2.5060 3.21835   1
  -1   3  22 1.60719 3.13094   1
   1   3 -22 9.93355 3.89671   1
  -1   3  22 -4.3950 5.92877   4
   1   3  22 -2.4730 6.66951   4
  -1   3 -22 3.61782 3.51719   1
   1   3  22 1.60099 3.31264   1
  -2   3  22 11.9046 3.46995   1
   2   3 -22 11.3415 3.67038   1
  -2   3  22 5.77139 6.18615   4
   2   3  22 13.4405 3.60951   1
  -2   3 -22 19.4055 4.04305   1
   2   3  22 6.61884 7.43657   4
   3   3 -22 8.40754 3.84943   1
  -3   3  22 12.1557 3.46280   1
  -3   3  22 8.52151 5.92916   4
   3   3  22 23.5062 4.01603   1
   3   3  22 8.89400 7.48605   4
  -3   3 -22 10.0789 3.58276   1
   4   3 -22 45.7572 5.29384   1
  -4   3  22 38.2292 7.28105   4
  -4   3  22 35.3992 4.17136   1
   4   3  22 25.5537 8.54270   4
   4   3  22 48.0131 4.78473   1
  -4   3 -22 37.3363 4.91884   1
   5   3 -22 170.409 9.15203   1
  -5   3  22 178.680 12.6288   4
  -5   3  22 161.279 8.11995   1
  -5   3 -22 185.253 9.46611   1
   5   3  22 179.727 8.55284   1
   5   3  22 153.016 15.0737   4
   6   3 -22 56.5641 5.54418   1
  -6   3  22 64.8406 5.03835   1
  -6   3  22 59.9064 7.90136   4
   6   3  22 49.1690 9.54796   4
  -6   3 -22 57.8009 5.85560   1
   6   3  22 52.1403 5.16717   1
   7   3 -22 110.535 8.05374   1
  -7   3  22 108.934 6.86321   1
   7   3  22 87.3527 7.14550   1
  -7   3 -22 94.8282 7.17254   1
   0   4  22 252.890 10.9986   2
   0   4 -22 266.653 10.6148   1
   0   4  22 253.705 9.23154   1
  -1   4  22 127.440 8.04856   2
  -1   4  22 149.028 6.73621   1
   1   4 -22 145.176 7.89307   1
  -1   4 -22 151.277 7.96228   1
   1   4  22 135.838 8.26061   2
   1   4  22 142.266 6.71479   1
   2   4 -22 16.1066 3.65039   1
  -2   4  22 19.0419 4.19230   2
  -2   4  22 9.39081 2.84548   1
   2   4  22 11.9476 3.98149   2
  -2   4 -22 8.60904 3.53584   1
   2   4  22 9.53417 2.87569   1
  -3   4  22 444.359 15.0037   2
   3   4 -22 407.859 14.2984   1
  -3   4  22 398.070 12.9795   1
   3   4  22 423.433 15.0575   2
  -3   4 -22 428.366 14.3998   1
  -4   4  22 7.01260 2.88104   1
   4   4 -22 9.30070 3.38408   1
  -4   4  22 0.10175 3.58545   2
   4   4  22 11.8003 3.11103   1
   4   4  22 8.55024 3.94576   2
  -4   4 -22 5.70777 3.40000   1
   5   4 -22 252.121 10.7654   1
  -5   4 -22 270.142 10.8183   1
   0   0 -23 6.31505 4.10763   1
   0   0  23 3.78490 3.76467   1
   1   0  23 515.274 17.2039   1
  -1   0 -23 475.476 17.4345   1
  -1   0  23 474.948 16.7705   1
  -2   0 -23 9.83384 4.25209   1
  -2   0  23 2.82618 3.78475   1
   2   0  23 1.87005 3.93401   1
   3   0  23 261.386 11.6095   1
  -3   0  23 235.515 11.1549   1
  -3   0 -23 274.988 12.5530   1
   4   0  23 262.258 11.8776   1
  -4   0  23 254.022 11.4439   1
  -5   0  23 121.068 8.52326   1
   5   0  23 133.996 9.02321   1
  -6   0  23 28.0296 5.02875   1
   6   0  23 30.7356 5.20292   1
  -7   0  23 51.5824 5.78568   1
   7   0  23 47.7060 6.14206   1
  -8   0  23 213.176 10.8082   1
   8   0  23 202.673 11.0145   1
   0   1  23 71.7662 6.17302   1
   0  -1  23 63.3919 6.29226   1
   0   1 -23 70.7115 6.44534   1
   1   1 -23 82.3781 6.58642   1
  -1   1  23 97.0671 6.96678   1
   1  -1  23 107.185 7.74738   1
   1   1  23 110.355 7.89670   1
  -1  -1  23 93.0378 7.69477   1
   2  -1  23 34.6518 5.40601   1
   2   1 -23 34.6083 5.35698   1
  -2   1  23 35.3935 4.97962   1
  -2  -1  23 29.0962 4.99623   1
  -2   1 -23 46.9707 5.40316   1
   2   1  23 37.5224 5.18648   1
   3  -1  23 12.2043 4.51228   1
   3   1 -23 24.1526 4.78264   1
  -3   1  23 18.4688 4.43574   1
  -3  -1  23 24.9040 4.85652   1
  -3   1 -23 21.8836 4.68769   1
   3   1  23 23.4374 4.70492   1
   4  -1  23 136.314 9.21974   1
   4   1 -23 152.960 8.93160   1
  -4   1  23 146.896 8.61320   1
   4   1  23 133.150 8.87996   1
  -4  -1  23 131.837 8.74299   1
  -4   1 -23 142.240 8.87658   1
   5  -1  23 2.79972 4.27265   1
  -5   1  23 12.2761 6.25223   4
   5   1 -23 9.37058 4.19971   1
  -5   1  23 8.58921 4.16775   1
   5   1  23 4.71085 4.15815   1
  -5   1 -23 10.9154 4.32813   1
  -5  -1  23 10.5695 4.38165   1
   6  -1  23 69.5119 6.87599   1
   6   1 -23 83.5461 7.03358   1
  -6   1  23 68.4126 6.34482   1
  -6   1  23 88.3763 9.56895   4
  -6  -1  23 73.6451 6.76540   1
  -6   1 -23 80.1969 6.87039   1
   6   1  23 72.6301 6.57321   1
   7   1 -23 144.860 9.15738   1
  -7   1  23 140.036 9.04146   1
  -7   1  23 143.781 12.0303   4
   7  -1  23 146.185 9.92471   1
  -7  -1  23 157.933 9.51213   1
  -7   1 -23 158.851 9.86980   1
   7   1  23 145.275 9.43858   1
  -8   1  23 36.6337 5.22483   1
   8   1 -23 40.3976 5.41256   1
  -8  -1  23 46.9147 6.15117   1
  -8   1 -23 35.7454 5.59546   1
   8   1  23 53.1036 6.17377   1
   0   2  23 -3.3521 6.33421   4
   0   2 -23 3.90426 3.61029   1
   0   2  23 0.02817 3.55809   1
  -1   2  23 11.7163 3.99342   1
   1   2 -23 19.2656 4.47652   1
  -1   2  23 10.8012 6.68234   4
  -1   2 -23 9.70344 4.06495   1
   1   2  23 13.1095 4.11571   1
   1   2  23 12.7046 7.64504   4
   2   2 -23 -1.1432 3.71424   1
  -2   2  23 6.29079 5.99426   4
  -2   2  23 -1.5447 3.46127   1
  -2   2 -23 -1.3847 3.42570   1
   2   2  23 -7.6373 3.36348   1
   2   2  23 -8.4884 6.71453   4
  -3   2  23 136.604 12.1452   4
   3   2 -23 134.472 8.70911   1
   3   2  23 125.076 8.09336   1
   3   2  23 139.452 14.3394   4
  -3   2 -23 122.482 8.67953   1
  -4   2  23 327.238 18.1834   4
   4   2 -23 358.322 13.8504   1
  -4   2  23 352.458 13.0735   1
   4   2  23 346.681 21.5693   4
   4   2  23 351.729 13.3075   1
  -4   2 -23 350.879 13.8521   1
   5   2 -23 28.9910 5.00103   1
  -5   2  23 36.0496 7.04560   4
  -5   2  23 29.2475 4.59680   1
   5   2  23 40.1855 5.18598   1
  -5   2 -23 35.7353 5.16576   1
   5   2  23 37.5793 9.36173   4
  -6   2  23 65.0015 5.64878   1
  -6   2  23 68.1151 8.46985   4
   6   2 -23 69.5479 6.49729   1
   6   2  23 56.4203 9.97556   4
  -6   2 -23 70.5597 6.53155   1
   6   2  23 50.6636 5.72327   1
  -7   2  23 11.0454 5.92229   4
  -7   2  23 14.2051 4.10046   1
   7   2 -23 16.7115 4.51627   1
  -7   2 -23 21.6587 4.66595   1
   7   2  23 11.5573 4.41070   1
   0   3  23 62.4749 10.3812   4
   0   3  23 72.4923 5.37403   1
   0   3 -23 62.9411 6.04273   1
   1   3 -23 81.8556 6.47865   1
  -1   3  23 64.1342 9.93830   4
  -1   3  23 64.1023 5.14318   1
   1   3  23 58.8989 10.4943   4
  -1   3 -23 64.5967 5.93572   1
   1   3  23 75.1512 5.62363   1
  -2   3  23 22.3743 7.38509   4
   2   3 -23 25.5732 4.52510   1
  -2   3  23 29.2778 4.12175   1
  -2   3 -23 21.8174 4.55604   1
   2   3  23 25.2192 4.19518   1
   2   3  23 27.2552 8.64285   4
   3   3 -23 6.38998 3.79635   1
  -3   3  23 9.68982 3.49020   1
  -3   3 -23 8.70802 3.73616   1
   3   3  23 9.97381 7.93762   4
   3   3  23 11.2800 3.73188   1
   4   3 -23 122.509 8.22886   1
  -4   3  23 105.478 6.85731   1
   4   3  23 113.253 7.28138   1
  -4   3 -23 111.572 7.94718   1
   4   3  23 76.2085 12.2838   4
   5   3 -23 6.08483 3.80963   1
  -5   3  23 13.3944 3.60647   1
   5   3  23 14.1826 4.01252   1
   0   4  23 -0.0855 2.78811   1
   0   4  23 0.21995 3.40448   2
   0   4 -23 -5.1731 2.91064   1
  -1   4  23 325.164 10.8208   1
   1   4 -23 330.558 12.2434   1
  -1   4  23 330.313 12.6692   2
  -1   4 -23 312.875 12.0869   1
   1   4  23 314.954 12.7022   2
   1   4  23 305.832 10.8236   1
   2   4 -23 5.79662 3.36176   1
  -2   4  23 6.16683 2.94031   1
  -2   4  23 -5.6191 3.41058   2
   2   4  23 -1.2537 3.56122   2
  -2   4 -23 3.38080 3.37665   1
   2   4  23 5.79147 2.93111   1
   0   0  24 3.05877 4.10932   1
  -1   0  24 1.73905 3.99419   1
   1   0  24 2.41516 3.94856   1
  -2   0  24 9.18205 4.32421   1
   2   0  24 10.7092 4.22404   1
   3   0  24 11.9849 4.48227   1
  -3   0  24 13.8111 4.29595   1
   4   0  24 26.2756 5.06235   1
  -4   0  24 21.1030 4.87804   1
  -5   0  24 0.61365 4.01483   1
   5   0  24 -0.1908 4.03070   1
   6   0  24 134.254 9.30232   1
  -6   0  24 122.832 8.77660   1
   0  -1  24 -2.1828 3.84631   1
   0   1  24 2.07081 3.94105   1
   0   1 -24 2.12349 3.63424   1
   1  -1  24 100.444 7.65157   1
  -1   1  24 89.2207 6.98148   1
   1   1 -24 99.4033 7.87368   1
  -1  -1  24 91.2360 7.21915   1
  -1   1 -24 112.343 8.15700   1
   1   1  24 89.6595 6.98490   1
   2   1 -24 15.5975 4.38840   1
   2  -1  24 18.1667 4.83271   1
  -2   1  24 14.2066 4.39106   1
  -2   1 -24 14.7996 4.57169   1
   2   1  24 17.8171 4.58143   1
  -2  -1  24 18.3918 4.69080   1
  -3   1  24 2.44814 4.00748   1
   3  -1  24 4.52485 4.11738   1
   3   1 -24 -1.2857 3.80739   1
  -3  -1  24 -6.2193 3.47278   1
  -3   1 -24 -4.3200 3.70619   1
   3   1  24 -3.2218 4.01403   1
  -4   1  24 173.886 9.56134   1
   4   1 -24 158.362 9.50465   1
  -4   1  24 228.977 15.5604   4
   4  -1  24 179.650 10.3468   1
   4   1  24 178.900 9.96666   1
  -4  -1  24 156.135 9.69980   1
  -4   1 -24 168.927 9.82509   1
   5  -1  24 24.8245 5.19430   1
  -5   1  24 14.1918 6.63736   4
   5   1 -24 13.9738 4.45184   1
  -5   1  24 20.1323 4.63281   1
  -5   1 -24 19.3301 4.60884   1
   5   1  24 17.3712 4.91227   1
  -5  -1  24 20.3344 4.83201   1
  -6   1  24 35.6922 5.21878   1
   6   1 -24 47.4009 5.78967   1
   6  -1  24 41.2764 6.01894   1
  -6   1  24 27.2031 7.55528   4
   6   1  24 41.0988 5.58149   1
  -6  -1  24 42.4156 5.68115   1
  -6   1 -24 26.8897 5.30472   1
   0   2 -24 1019.82 29.5870   1
   0   2  24 967.249 28.8611   1
   1   2 -24 82.4937 6.87293   1
  -1   2  24 101.711 11.3426   4
  -1   2  24 108.992 7.87560   1
   1   2  24 99.4902 7.66452   1
  -1   2 -24 101.772 7.56269   1
   1   2  24 98.7549 12.2456   4
  -2   2  24 139.868 8.42359   1
  -2   2  24 136.464 12.8973   4
   2   2 -24 147.570 9.19526   1
   2   2  24 127.764 14.2545   4
   2   2  24 140.524 8.59914   1
  -2   2 -24 149.482 9.31207   1
   3   2 -24 2.01023 4.06328   1
  -3   2  24 -1.4171 3.55690   1
   3   2  24 -4.2541 7.62045   4
   3   2  24 6.71316 3.97753   1
  -4   2  24 23.9619 4.41191   1
   4   2 -24 24.0574 4.92628   1
   4   2  24 27.1245 4.66001   1
  -4   2 -24 20.5707 4.69246   1
  -5   2  24 5.07342 3.81145   1
   5   2 -24 9.00332 4.16604   1
   5   2  24 1.91707 4.01454   1
  -5   2 -24 -1.9958 3.93618   1
   0   3 -24 2.51334 3.64785   1
   0   3  24 0.72131 3.39206   1
   1   3 -24 81.3663 6.52738   1
   1   3  24 74.2119 5.66400   1
  -1   3 -24 80.1164 6.45322   1
  -2   3  24 11.5229 3.62090   1
   2   3 -24 15.0746 4.39441   1
   2   3  24 21.1098 4.15419   1
  -2   3 -24 17.4331 4.31581   1
   3   3 -24 5.78386 3.88190   1
  -3   3  24 -2.3559 3.16949   1
  -3   3 -24 -1.7929 3.57514   1
   3   3  24 -3.0076 3.31936   1
   0   0  25 2.69783 4.10688   1
   1   0  25 365.867 14.2631   1
  -1   0  25 356.760 14.2831   1
  -2   0  25 7.11145 4.40577   1
   2   0  25 3.95039 4.41408   1
  -3   0  25 174.242 9.99817   1
   3   0  25 174.205 10.1928   1
  -4   0  25 67.2915 6.59085   1
   4   0  25 96.6160 7.58802   1
  -5   0  25 51.4452 6.03882   1
   5   0  25 49.5990 6.13352   1
   0   1 -25 15.8318 4.66689   1
   0  -1  25 22.8430 4.86072   1
   0   1  25 30.1299 5.14742   1
   1   1 -25 92.0554 7.23829   1
   1  -1  25 98.5612 7.74958   1
  -1   1  25 108.426 8.18917   1
  -1  -1  25 92.6068 7.35689   1
   1   1  25 81.0862 6.94970   1
  -1   1 -25 87.4487 7.21391   1
   2   1 -25 -0.7605 3.85545   1
   2  -1  25 1.98595 4.18672   1
  -2   1  25 1.04781 4.13942   1
  -2   1 -25 6.22231 4.38032   1
  -2  -1  25 5.15449 4.18035   1
   2   1  25 7.70669 4.22838   1
   3   1 -25 260.239 11.9635   1
   3  -1  25 268.486 12.3720   1
   3   1  25 255.154 11.7817   1
  -3   1 -25 257.522 11.9886   1
  -3  -1  25 244.211 11.7714   1
   4   1 -25 25.2196 5.02936   1
  -4   1  25 29.8562 5.14954   1
   4  -1  25 28.4758 5.51437   1
  -4   1 -25 30.5831 5.22032   1
  -4  -1  25 29.1229 5.25946   1
   4   1  25 31.6675 5.38977   1
   0   2 -25 -1.1691 3.81162   1
   0   2  25 11.7550 4.12272   1
  -1   2  25 5.57667 3.94257   1
   1   2 -25 3.35631 4.09606   1
   1   2  25 0.74634 3.72543   1
  -1   2 -25 4.13495 3.86243   1
  -2   2  25 119.202 8.17317   1
   2   2 -25 129.325 9.05482   1
  -2   2 -25 136.486 8.96405   1
   2   2  25 131.608 8.51816   1
   3   2 -25 457.548 16.4692   1
  -3   2 -25 447.860 16.5049   1
   0   0  26 192.025 10.5608   1
   1   0  26 25.3832 5.15956   1
  -1   0  26 43.8984 5.98036   1
   0   0   0    0.00    0.00   0
;
_shelx_hkl_checksum              43822
loop_
_space_group_symop_operation_xyz
'x, y, z'
'-x+1/2, -y, z+1/2'
'x+1/2, -y+1/2, -z+1/2'
'-x, y+1/2, -z'
'-x, -y, -z'
'x-1/2, y, -z-1/2'
'-x-1/2, y-1/2, z-1/2'
'x, -y-1/2, z'
loop_
_atom_site_label
_atom_site_type_symbol
_atom_site_fract_x
_atom_site_fract_y
_atom_site_fract_z
_atom_site_U_iso_or_equiv
_atom_site_adp_type
_atom_site_occupancy
_atom_site_site_symmetry_order
_atom_site_calc_flag
_atom_site_refinement_flags_posn
_atom_site_refinement_flags_adp
_atom_site_refinement_flags_occupancy
U1 U 0.29325(2) 0.2500 0.37661(2) 0.00810(6) Uani 1 2 d S T P
Ba1 Ba 0.32317(3) 0.2500 0.05803(2) 0.00896(8) Uani 1 2 d S T P
Ba2 Ba 0.44568(3) 0.2500 0.72325(2) 0.00857(7) Uani 1 2 d S T P
Te1 Te 0.07906(2) 0.00186(4) 0.39822(2) 0.00939(7) Uani 1 1 d . . .
Te2 Te 0.30783(2) 0.00254(4) 0.23142(2) 0.00886(6) Uani 1 1 d . . .
Te3 Te 0.04110(3) 0.2500 0.12046(2) 0.00741(8) Uani 1 2 d S T P
Te4 Te 0.32575(3) 0.2500 0.54118(2) 0.00734(8) Uani 1 2 d S T P
Te5 Te 0.63801(3) 0.2500 0.58358(2) 0.00647(8) Uani 1 2 d S T P
Cr1 Cr 0.0000 0.0000 0.0000 0.00848(18) Uani 1 2 d S . P
loop_
_atom_site_aniso_label
_atom_site_aniso_U_11
_atom_site_aniso_U_22
_atom_site_aniso_U_33
_atom_site_aniso_U_23
_atom_site_aniso_U_13
_atom_site_aniso_U_12
U1 0.00828(11) 0.00924(11) 0.00679(11) 0.000 -0.00040(8) 0.000
Ba1 0.00982(16) 0.01006(16) 0.00702(16) 0.000 -0.00132(12) 0.000
Ba2 0.00764(16) 0.01057(16) 0.00750(17) 0.000 0.00042(12) 0.000
Te1 0.00683(12) 0.01377(14) 0.00756(13) -0.00157(10) -0.00020(10) 0.00087(10)
Te2 0.00796(12) 0.01304(13) 0.00557(13) 0.00083(10) -0.00032(9) -0.00017(9)
Te3 0.00743(17) 0.00819(17) 0.00662(18) 0.000 -0.00011(13) 0.000
Te4 0.00804(17) 0.00814(17) 0.00582(17) 0.000 -0.00009(13) 0.000
Te5 0.00656(17) 0.00726(17) 0.00558(17) 0.000 -0.00052(13) 0.000
Cr1 0.0083(4) 0.0110(4) 0.0062(4) -0.0003(3) 0.0002(3) -0.0007(3)
loop_
_atom_type_symbol
_atom_type_description
_atom_type_scat_dispersion_real
_atom_type_scat_dispersion_imag
_atom_type_scat_source
Cr Cr 0.3209 0.6236 'International Tables Vol C Tables 4.2.6.8 and 6.1.1.4'
Te Te -0.5308 1.6751 'International Tables Vol C Tables 4.2.6.8 and 6.1.1.4'
Ba Ba -0.3244 2.2819 'International Tables Vol C Tables 4.2.6.8 and 6.1.1.4'
U U -9.6767 9.6646 'International Tables Vol C Tables 4.2.6.8 and 6.1.1.4'
loop_
_geom_angle_atom_site_label_1
_geom_angle_atom_site_label_2
_geom_angle_atom_site_label_3
_geom_angle
_geom_angle_site_symmetry_1
_geom_angle_site_symmetry_3
Te4 U1 Te3 81.435(11) . 6_656
Te4 U1 Te2 148.596(6) . .
Te3 U1 Te2 87.517(9) 6_656 .
Te4 U1 Te2 148.595(7) . 8_565
Te3 U1 Te2 87.517(10) 6_656 8_565
Te2 U1 Te2 58.910(11) . 8_565
Te4 U1 Te1 89.147(10) . 8_565
Te3 U1 Te1 149.101(6) 6_656 8_565
Te2 U1 Te1 113.892(10) . 8_565
Te2 U1 Te1 85.430(8) 8_565 8_565
Te4 U1 Te1 89.147(10) . .
Te3 U1 Te1 149.101(6) 6_656 .
Te2 U1 Te1 85.430(8) . .
Te2 U1 Te1 113.892(10) 8_565 .
Te1 U1 Te1 59.054(11) 8_565 .
Te4 U1 Te5 75.083(8) . 5_666
Te3 U1 Te5 74.634(7) 6_656 5_666
Te2 U1 Te5 129.927(10) . 5_666
Te2 U1 Te5 73.656(8) 8_565 5_666
Te1 U1 Te5 74.510(8) 8_565 5_666
Te1 U1 Te5 131.164(10) . 5_666
Te4 U1 Te5 75.083(8) . 5_656
Te3 U1 Te5 74.634(7) 6_656 5_656
Te2 U1 Te5 73.656(8) . 5_656
Te2 U1 Te5 129.927(10) 8_565 5_656
Te1 U1 Te5 131.163(10) 8_565 5_656
Te1 U1 Te5 74.510(8) . 5_656
Te5 U1 Te5 139.677(14) 5_666 5_656
Te5 Ba1 Te1 66.441(9) 6_556 2_554
Te5 Ba1 Te1 66.441(9) 6_556 7_665
Te1 Ba1 Te1 51.664(10) 2_554 7_665
Te5 Ba1 Te2 129.982(11) 6_556 .
Te1 Ba1 Te2 125.677(7) 2_554 .
Te1 Ba1 Te2 162.924(13) 7_665 .
Te5 Ba1 Te2 129.982(11) 6_556 8_565
Te1 Ba1 Te2 162.924(13) 2_554 8_565
Te1 Ba1 Te2 125.677(7) 7_665 8_565
Te2 Ba1 Te2 50.639(10) . 8_565
Te5 Ba1 Te4 66.149(8) 6_556 2_554
Te1 Ba1 Te4 74.453(8) 2_554 2_554
Te1 Ba1 Te4 118.400(12) 7_665 2_554
Te2 Ba1 Te4 71.677(8) . 2_554
Te2 Ba1 Te4 114.552(12) 8_565 2_554
Te5 Ba1 Te4 66.149(8) 6_556 2_564
Te1 Ba1 Te4 118.400(12) 2_554 2_564
Te1 Ba1 Te4 74.453(8) 7_665 2_564
Te2 Ba1 Te4 114.551(12) . 2_564
Te2 Ba1 Te4 71.677(8) 8_565 2_564
Te4 Ba1 Te4 117.152(15) 2_554 2_564
Te5 Ba1 Te1 138.426(11) 6_556 3
Te1 Ba1 Te1 93.965(10) 2_554 3
Te1 Ba1 Te1 72.661(9) 7_665 3
Te2 Ba1 Te1 91.459(10) . 3
Te2 Ba1 Te1 70.433(8) 8_565 3
Te4 Ba1 Te1 146.177(10) 2_554 3
Te4 Ba1 Te1 96.414(8) 2_564 3
Te5 Ba1 Te1 138.426(11) 6_556 6_656
Te1 Ba1 Te1 72.661(9) 2_554 6_656
Te1 Ba1 Te1 93.965(10) 7_665 6_656
Te2 Ba1 Te1 70.433(8) . 6_656
Te2 Ba1 Te1 91.459(10) 8_565 6_656
Te4 Ba1 Te1 96.414(8) 2_554 6_656
Te4 Ba1 Te1 146.177(10) 2_564 6_656
Te1 Ba1 Te1 49.836(10) 3 6_656
Te5 Ba1 Te3 66.940(11) 6_556 .
Te1 Ba1 Te3 125.836(11) 2_554 .
Te1 Ba1 Te3 125.836(11) 7_665 .
Te2 Ba1 Te3 70.530(9) . .
Te2 Ba1 Te3 70.530(9) 8_565 .
Te4 Ba1 Te3 62.535(8) 2_554 .
Te4 Ba1 Te3 62.535(8) 2_564 .
Te1 Ba1 Te3 139.884(10) 3 .
Te1 Ba1 Te3 139.884(10) 6_656 .
Te2 Ba2 Te2 52.387(10) 2 7_666
Te2 Ba2 Te5 129.809(11) 2 .
Te2 Ba2 Te5 129.809(11) 7_666 .
Te2 Ba2 Te2 163.797(11) 2 4_656
Te2 Ba2 Te2 124.944(8) 7_666 4_656
Te5 Ba2 Te2 65.522(9) . 4_656
Te2 Ba2 Te2 124.944(8) 2 5_656
Te2 Ba2 Te2 163.797(11) 7_666 5_656
Te5 Ba2 Te2 65.522(9) . 5_656
Te2 Ba2 Te2 52.073(10) 4_656 5_656
Te2 Ba2 Te1 94.270(10) 2 7_666
Te2 Ba2 Te1 72.248(8) 7_666 7_666
Te5 Ba2 Te1 135.878(11) . 7_666
Te2 Ba2 Te1 70.860(8) 4_656 7_666
Te2 Ba2 Te1 92.830(10) 5_656 7_666
Te2 Ba2 Te1 72.248(8) 2 2
Te2 Ba2 Te1 94.270(10) 7_666 2
Te5 Ba2 Te1 135.878(11) . 2
Te2 Ba2 Te1 92.830(10) 4_656 2
Te2 Ba2 Te1 70.860(8) 5_656 2
Te1 Ba2 Te1 50.900(10) 7_666 2
Te2 Ba2 Te3 71.846(8) 2 2
Te2 Ba2 Te3 115.995(12) 7_666 2
Te5 Ba2 Te3 65.366(8) . 2
Te2 Ba2 Te3 117.270(11) 4_656 2
Te2 Ba2 Te3 73.292(8) 5_656 2
Te1 Ba2 Te3 147.301(10) 7_666 2
Te1 Ba2 Te3 96.402(7) 2 2
Te2 Ba2 Te3 115.995(12) 2 2_565
Te2 Ba2 Te3 71.846(8) 7_666 2_565
Te5 Ba2 Te3 65.366(8) . 2_565
Te2 Ba2 Te3 73.292(8) 4_656 2_565
Te2 Ba2 Te3 117.270(11) 5_656 2_565
Te1 Ba2 Te3 96.402(7) 7_666 2_565
Te1 Ba2 Te3 147.301(10) 2 2_565
Te3 Ba2 Te3 116.294(14) 2 2_565
Te2 Ba2 Te4 71.136(9) 2 .
Te2 Ba2 Te4 71.136(9) 7_666 .
Te5 Ba2 Te4 66.640(10) . .
Te2 Ba2 Te4 124.585(11) 4_656 .
Te2 Ba2 Te4 124.585(11) 5_656 .
Te1 Ba2 Te4 141.951(10) 7_666 .
Te1 Ba2 Te4 141.951(10) 2 .
Te3 Ba2 Te4 62.456(8) 2 .
Te3 Ba2 Te4 62.456(8) 2_565 .
Te1 Te1 U1 60.472(6) 8_565 .
Te1 Te1 Te1 180.0 8_565 8
U1 Te1 Te1 119.526(5) . 8
Te1 Te1 Ba1 115.830(5) 8_565 2
U1 Te1 Ba1 91.598(9) . 2
Te1 Te1 Ba1 64.168(5) 8 2
Te1 Te1 Ba2 115.450(5) 8_565 2_554
U1 Te1 Ba2 99.736(10) . 2_554
Te1 Te1 Ba2 64.551(5) 8 2_554
Ba1 Te1 Ba2 126.182(9) 2 2_554
Te1 Te1 Ba1 65.082(5) 8_565 6_556
U1 Te1 Ba1 125.276(9) . 6_556
Te1 Te1 Ba1 114.919(5) 8 6_556
Ba1 Te1 Ba1 107.340(9) 2 6_556
Ba2 Te1 Ba1 107.885(10) 2_554 6_556
Te2 Te2 U1 60.545(5) 8_565 .
Te2 Te2 Te2 180.0 8_565 8
U1 Te2 Te2 119.455(5) . 8
Te2 Te2 Ba2 116.194(5) 8_565 2_554
U1 Te2 Ba2 101.650(10) . 2_554
Te2 Te2 Ba2 63.806(5) 8 2_554
Te2 Te2 Ba2 116.036(5) 8_565 5_656
U1 Te2 Ba2 93.469(9) . 5_656
Te2 Te2 Ba2 63.964(5) 8 5_656
Ba2 Te2 Ba2 126.384(8) 2_554 5_656
Te2 Te2 Ba1 64.681(5) 8_565 .
U1 Te2 Ba1 125.224(9) . .
Te2 Te2 Ba1 115.320(5) 8 .
Ba2 Te2 Ba1 101.421(10) 2_554 .
Ba2 Te2 Ba1 110.813(10) 5_656 .
Cr1 Te3 Cr1 67.788(9) . 4
Cr1 Te3 U1 80.144(10) . 6_556
Cr1 Te3 U1 80.144(10) 4 6_556
Cr1 Te3 Ba2 155.164(11) . 2_564
Cr1 Te3 Ba2 87.716(5) 4 2_564
U1 Te3 Ba2 92.074(9) 6_556 2_564
Cr1 Te3 Ba2 87.716(5) . 2_554
Cr1 Te3 Ba2 155.164(11) 4 2_554
U1 Te3 Ba2 92.074(9) 6_556 2_554
Ba2 Te3 Ba2 116.294(14) 2_564 2_554
Cr1 Te3 Ba1 85.580(10) . .
Cr1 Te3 Ba1 85.580(10) 4 .
U1 Te3 Ba1 162.772(15) 6_556 .
Ba2 Te3 Ba1 96.971(9) 2_564 .
Ba2 Te3 Ba1 96.971(9) 2_554 .
Cr1 Te4 Cr1 67.573(9) 3 2
Cr1 Te4 U1 80.197(10) 3 .
Cr1 Te4 U1 80.197(10) 2 .
Cr1 Te4 Ba1 154.357(11) 3 2
Cr1 Te4 Ba1 87.273(5) 2 2
U1 Te4 Ba1 91.045(9) . 2
Cr1 Te4 Ba1 87.273(5) 3 2_565
Cr1 Te4 Ba1 154.357(11) 2 2_565
U1 Te4 Ba1 91.045(9) . 2_565
Ba1 Te4 Ba1 117.153(15) 2 2_565
Cr1 Te4 Ba2 86.271(10) 3 .
Cr1 Te4 Ba2 86.271(10) 2 .
U1 Te4 Ba2 163.690(14) . .
Ba1 Te4 Ba2 97.402(9) 2 .
Ba1 Te4 Ba2 97.402(9) 2_565 .
Cr1 Te5 Cr1 67.259(8) 2 3
Cr1 Te5 U1 143.785(11) 2 5_666
Cr1 Te5 U1 76.529(4) 3 5_666
Cr1 Te5 U1 76.529(4) 2 5_656
Cr1 Te5 U1 143.785(11) 3 5_656
U1 Te5 U1 139.675(14) 5_666 5_656
Cr1 Te5 Ba1 89.383(10) 2 6_656
Cr1 Te5 Ba1 89.383(10) 3 6_656
U1 Te5 Ba1 89.816(8) 5_666 6_656
U1 Te5 Ba1 89.816(8) 5_656 6_656
Cr1 Te5 Ba2 89.388(10) 2 .
Cr1 Te5 Ba2 89.388(10) 3 .
U1 Te5 Ba2 90.693(8) 5_666 .
U1 Te5 Ba2 90.693(8) 5_656 .
Ba1 Te5 Ba2 178.523(14) 6_656 .
Te3 Cr1 Te3 180.0 . 5
Te3 Cr1 Te4 93.349(9) . 6_556
Te3 Cr1 Te4 86.652(9) 5 6_556
Te3 Cr1 Te4 86.651(9) . 2_554
Te3 Cr1 Te4 93.348(9) 5 2_554
Te4 Cr1 Te4 180.000(18) 6_556 2_554
Te3 Cr1 Te5 91.580(9) . 6_556
Te3 Cr1 Te5 88.420(9) 5 6_556
Te4 Cr1 Te5 91.324(9) 6_556 6_556
Te4 Cr1 Te5 88.676(9) 2_554 6_556
Te3 Cr1 Te5 88.420(9) . 2_554
Te3 Cr1 Te5 91.580(9) 5 2_554
Te4 Cr1 Te5 88.676(9) 6_556 2_554
Te4 Cr1 Te5 91.324(9) 2_554 2_554
Te5 Cr1 Te5 180.000(17) 6_556 2_554
loop_
_geom_bond_atom_site_label_1
_geom_bond_atom_site_label_2
_geom_bond_distance
_geom_bond_site_symmetry_2
U1 Te4 3.0818(4) .
U1 Te3 3.0914(4) 6_656
U1 Te2 3.1026(3) .
U1 Te2 3.1026(3) 8_565
U1 Te1 3.1042(3) 8_565
U1 Te1 3.1042(3) .
U1 Te5 3.28387(16) 5_666
U1 Te5 3.28387(15) 5_656
Ba1 Te5 3.4990(5) 6_556
Ba1 Te1 3.5636(4) 2_554
Ba1 Te1 3.5636(4) 7_665
Ba1 Te2 3.5674(4) .
Ba1 Te2 3.5674(4) 8_565
Ba1 Te4 3.6125(3) 2_554
Ba1 Te4 3.6125(3) 2_564
Ba1 Te1 3.6311(4) 3
Ba1 Te1 3.6311(4) 6_656
Ba1 Te3 3.7038(5) .
Ba2 Te2 3.5274(4) 2
Ba2 Te2 3.5274(4) 7_666
Ba2 Te5 3.5321(5) .
Ba2 Te2 3.5471(4) 4_656
Ba2 Te2 3.5471(4) 5_656
Ba2 Te1 3.6135(4) 7_666
Ba2 Te1 3.6135(4) 2
Ba2 Te3 3.6292(3) 2
Ba2 Te3 3.6292(3) 2_565
Ba2 Te4 3.6962(5) .
Te1 Te1 3.0597(6) 8_565
Te1 Te1 3.1056(6) 8
Te1 Ba1 3.5637(4) 2
Te1 Ba2 3.6135(4) 2_554
Te1 Ba1 3.6311(4) 6_556
Te2 Te2 3.0513(6) 8_565
Te2 Te2 3.1140(6) 8
Te2 Ba2 3.5273(4) 2_554
Te2 Ba2 3.5472(4) 5_656
Te3 Cr1 2.7639(3) .
Te3 Cr1 2.7639(3) 4
Te3 U1 3.0915(4) 6_556
Te3 Ba2 3.6292(3) 2_564
Te3 Ba2 3.6292(3) 2_554
Te4 Cr1 2.7717(3) 3
Te4 Cr1 2.7717(3) 2
Te4 Ba1 3.6125(3) 2
Te4 Ba1 3.6125(3) 2_565
Te5 Cr1 2.7831(3) 2
Te5 Cr1 2.7831(3) 3
Te5 U1 3.28389(15) 5_666
Te5 U1 3.28389(15) 5_656
Te5 Ba1 3.4991(5) 6_656
Cr1 Te3 2.7639(3) 5
Cr1 Te4 2.7716(3) 6_556
Cr1 Te4 2.7716(3) 2_554
Cr1 Te5 2.7831(3) 6_556
Cr1 Te5 2.7831(3) 2_554
