#------------------------------------------------------------------------------
#$Date: 2016-02-13 21:28:24 +0200 (Sat, 13 Feb 2016) $
#$Revision: 176429 $
#$URL: svn://www.crystallography.net/cod/cif/4/34/30/4343089.cif $
#------------------------------------------------------------------------------
#
# This file is available in the Crystallography Open Database (COD),
# http://www.crystallography.net/
#
# All data on this site have been placed in the public domain by the
# contributors.
#
data_4343089
loop_
_publ_author_name
'Poupon, Morgane'
'Barrier, Nicolas'
'Petit, Sebastien'
'Clevers, Simon'
'Dupray, Valerie'
_publ_section_title
;
 Hydrothermal Synthesis and Dehydration of CaTeO3(H2O): An Original Route
 to Generate New CaTeO3 Polymorphs.
;
_journal_issue                   12
_journal_name_full               'Inorganic chemistry'
_journal_page_first              5660
_journal_page_last               5670
_journal_paper_doi               10.1021/acs.inorgchem.5b00037
_journal_volume                  54
_journal_year                    2015
_chemical_formula_sum            'Ca O3 Te'
_chemical_formula_weight         215.7
_chemical_name_systematic        ' ?'
_space_group_IT_number           29
_symmetry_cell_setting           orthorhombic
_symmetry_Int_Tables_number      29
_symmetry_space_group_name_Hall  'P -2ac 2a'
_symmetry_space_group_name_H-M   'P 21 c a'
_cell_angle_alpha                90
_cell_angle_beta                 90
_cell_angle_gamma                90
_cell_formula_units_Z            8
_cell_length_a                   13.3647(6)
_cell_length_b                   6.5330(3)
_cell_length_c                   8.1896(3)
_cell_measurement_temperature    673
_cell_volume                     715.05(5)
_diffrn_ambient_temperature      673
_diffrn_detector                 'Bruker LynxEye'
_diffrn_detector_type            PSD
_diffrn_measurement_device_type  'Bruker D8 advance vario 1'
_diffrn_radiation_monochromator  1.5406
_diffrn_radiation_probe          x-ray
_diffrn_radiation_type           'Cu Kalpha1'
_diffrn_radiation_wavelength     1.5406
_diffrn_source                   'sealed X-ray tube'
_diffrn_source_target            Cu
_diffrn_source_type              X-ray
_exptl_absorpt_coefficient_mu    76.875
_exptl_crystal_density_diffrn    4.0069
_exptl_crystal_F_000             768
_pd_char_colour                  white
_pd_char_particle_morphology     plate-like
_pd_instr_location               ' ?'
_pd_meas_2theta_range_inc        0.012
_pd_meas_2theta_range_max        126.181
_pd_meas_2theta_range_min        10.000
_pd_meas_number_of_points        9831
_pd_meas_scan_method             cont
_pd_prep_temperature             673
_pd_proc_2theta_range_inc        0.012
_pd_proc_2theta_range_max        126.181
_pd_proc_2theta_range_min        10
_pd_proc_ls_background_function  '11 Legendre polynoms'
_pd_proc_ls_pref_orient_corr     'March & Dollase'
_pd_proc_ls_profile_function     Pseudo-Voigt
_pd_proc_ls_prof_R_factor        0.0730
_pd_proc_ls_prof_wR_expected     0.0875
_pd_proc_ls_prof_wR_factor       0.0987
_pd_spec_mounting                ' packed powder pellet'
_pd_spec_mount_mode              reflection
_pd_spec_shape                   flat_sheet
_pd_spec_size_axial              16
_pd_spec_size_equat              16
_pd_spec_size_thick              1
_refine_diff_density_max         0.84
_refine_diff_density_min         -3.30
_refine_ls_goodness_of_fit_all   1.13
_refine_ls_number_constraints    0
_refine_ls_number_parameters     61
_refine_ls_number_restraints     0
_refine_ls_R_factor_all          0.0405
_refine_ls_R_factor_gt           0.0405
_refine_ls_shift/su_max          0.0516
_refine_ls_shift/su_mean         0.0086
_refine_ls_weighting_scheme      sigma
_refine_ls_wR_factor_all         0.0473
_refine_ls_wR_factor_gt          0.0473
_cod_data_source_file            ic5b00037_si_003.cif
_cod_data_source_block           I
_cod_depositor_comments
;
The following automatic conversions were performed:

'_diffrn_radiation_probe' value 'X-ray' changed to 'x-ray' according
to
/usr/data/users/saulius/crontab/automatic-downloads/rss-feeds/ACS/lib/dictionaries/cif_core.dic
dictionary named 'cif_core.dic' version 2.4.2 from 2011-04-26.

Automatic conversion script
Id: cif_fix_values 3271 2015-04-21 07:52:19Z andrius 

 Adding full bibliography for 4343088--4343089.cif.
;
_cod_original_cell_volume        715.04(5)
_cod_original_formula_sum        'Ca1 O3 Te1'
_cod_database_code               4343089
loop_
_space_group_symop_id
_space_group_symop_operation_xyz
1 x,y,z
2 x+1/2,-y,-z
3 x+1/2,y,-z+1/2
4 x,-y,z+1/2
loop_
_atom_site_label
_atom_site_type_symbol
_atom_site_fract_x
_atom_site_fract_y
_atom_site_fract_z
_atom_site_adp_type
_atom_site_U_iso_or_equiv
_atom_site_site_symmetry_multiplicity
_atom_site_occupancy
_atom_site_calc_flag
Ca1 Ca 0.0646(8) 0.5998(18) 0.9197(11) Uiso 0.037(4) 4 1 d
Ca2 Ca 0.1373(7) 0.1031(16) 0.8060(11) Uiso 0.026(4) 4 1 d
Te1 Te 0.2666(3) 0.5875(6) 0.6663(3) Uiso 0.0319(19) 4 1 d
Te2 Te 0.436207 0.0843(7) 0.4467(3) Uiso 0.041(2) 4 1 d
O1 O 0.2069(18) 0.801(4) 0.811(3) Uiso 0.035(4) 4 1 d
O2 O 0.150(3) 0.439(5) 0.678(3) Uiso 0.035(4) 4 1 d
O3 O 0.242(2) 0.718(4) 0.472(3) Uiso 0.035(4) 4 1 d
O4 O 0.5016(19) 0.269(4) 0.586(3) Uiso 0.035(4) 4 1 d
O5 O 0.562(3) 0.907(6) 0.464(3) Uiso 0.035(4) 4 1 d
O6 O 0.4732(17) 0.178(3) 0.217(3) Uiso 0.035(4) 4 1 d
loop_
_atom_type_symbol
_atom_type_scat_dispersion_real
_atom_type_scat_dispersion_imag
_atom_type_scat_source
Ca 0.3662 1.2919 'International Tables Vol C tables 4.2.6.8 and 6.1.1.1'
O 0.0516 0.0335 'International Tables Vol C tables 4.2.6.8 and 6.1.1.1'
Te -0.1505 6.4074 'International Tables Vol C tables 4.2.6.8 and 6.1.1.1'
loop_
_geom_angle_atom_site_label_1
_geom_angle_atom_site_label_2
_geom_angle_atom_site_label_3
_geom_angle_site_symmetry_1
_geom_angle_site_symmetry_3
_geom_angle
O1 Ca1 O2 . . 65.8(10)
O1 Ca1 O2 . 4_565 90.4(11)
O1 Ca1 O3 . 4_565 79.7(8)
O1 Ca1 O4 . 3_456 140.0(10)
O1 Ca1 O5 . 3_456 71.9(11)
O1 Ca1 O6 . 2_466 83.9(9)
O2 Ca1 O2 . 4_565 115.4(12)
O2 Ca1 O3 . 4_565 59.6(9)
O2 Ca1 O4 . 3_456 76.2(11)
O2 Ca1 O5 . 3_456 136.4(12)
O2 Ca1 O6 . 2_466 97.2(10)
O2 Ca1 O3 4_565 4_565 57.5(9)
O2 Ca1 O4 4_565 3_456 95.3(11)
O2 Ca1 O5 4_565 3_456 74.1(12)
O2 Ca1 O6 4_565 2_466 141.0(12)
O3 Ca1 O4 4_565 3_456 70.5(9)
O3 Ca1 O5 4_565 3_456 123.0(11)
O3 Ca1 O6 4_565 2_466 155.6(9)
O4 Ca1 O5 3_456 3_456 147.4(12)
O4 Ca1 O6 3_456 2_466 113.7(10)
O5 Ca1 O6 3_456 2_466 67.4(11)
Te2 Ca2 O1 3_456 1_545 107.2(7)
Te2 Ca2 O2 3_456 . 110.4(9)
Te2 Ca2 O3 3_456 4_565 98.7(8)
Te2 Ca2 O4 3_456 3_456 32.2(7)
Te2 Ca2 O5 3_456 2_466 102.3(9)
Te2 Ca2 O5 3_456 3_446 37.1(9)
Te2 Ca2 O6 3_456 2_456 53.6(5)
O1 Ca2 O2 1_545 . 142.3(11)
O1 Ca2 O3 1_545 4_565 101.0(10)
O1 Ca2 O4 1_545 3_456 139.3(10)
O1 Ca2 O5 1_545 2_466 99.7(11)
O1 Ca2 O5 1_545 3_446 72.2(11)
O1 Ca2 O6 1_545 2_456 75.3(8)
O2 Ca2 O3 . 4_565 75.5(10)
O2 Ca2 O4 . 3_456 78.2(11)
O2 Ca2 O5 . 2_466 70.3(11)
O2 Ca2 O5 . 3_446 144.7(12)
O2 Ca2 O6 . 2_456 127.0(11)
O3 Ca2 O4 4_565 3_456 90.8(11)
O3 Ca2 O5 4_565 2_466 144.4(11)
O3 Ca2 O5 4_565 3_446 93.6(10)
O3 Ca2 O6 4_565 2_456 147.2(9)
O4 Ca2 O5 3_456 2_466 92.0(11)
O4 Ca2 O5 3_456 3_446 68.3(11)
O4 Ca2 O6 3_456 2_456 74.1(9)
O5 Ca2 O5 2_466 3_446 120.3(12)
O5 Ca2 O6 2_466 2_456 66.6(10)
O5 Ca2 O6 3_446 2_456 54.0(9)
O1 Te1 O2 . . 90.0(12)
O1 Te1 O3 . . 96.9(11)
O1 Te1 O3 . 4_565 86.0(9)
O1 Te1 O6 . 4_565 86.2(8)
O2 Te1 O3 . . 98.1(13)
O2 Te1 O3 . 4_565 63.0(10)
O2 Te1 O6 . 4_565 169.0(9)
O3 Te1 O3 . 4_565 160.9(11)
O3 Te1 O6 . 4_565 92.6(11)
O3 Te1 O6 4_565 4_565 106.5(7)
Ca2 Te2 O1 3_556 4_564 157.3(5)
Ca2 Te2 O4 3_556 . 40.6(8)
Ca2 Te2 O5 3_556 1_545 47.5(9)
Ca2 Te2 O6 3_556 . 110.5(7)
Ca2 Te2 O6 3_556 4_555 54.2(5)
O1 Te2 O4 4_564 . 118.9(9)
O1 Te2 O5 4_564 1_545 154.4(10)
O1 Te2 O6 4_564 . 81.3(8)
O1 Te2 O6 4_564 4_555 123.6(6)
O4 Te2 O5 . 1_545 86.7(12)
O4 Te2 O6 . . 104.5(11)
O4 Te2 O6 . 4_555 80.5(10)
O5 Te2 O6 1_545 . 92.0(10)
O5 Te2 O6 1_545 4_555 57.5(9)
O6 Te2 O6 . 4_555 149.1(8)
Ca1 O1 Ca2 . 1_565 99.2(10)
Ca1 O1 Te1 . . 98.7(10)
Ca1 O1 Te2 . 4_565 134.7(9)
Ca1 O1 O2 . . 57.8(9)
Ca1 O1 O3 . . 112.0(11)
Ca1 O1 O5 . 3_456 49.8(9)
Ca1 O1 O6 . 2_466 44.3(6)
Ca2 O1 Te1 1_565 . 142.3(13)
Ca2 O1 Te2 1_565 4_565 101.1(9)
Ca2 O1 O2 1_565 . 131.5(13)
Ca2 O1 O3 1_565 . 102.9(11)
Ca2 O1 O5 1_565 3_456 59.1(9)
Ca2 O1 O6 1_565 2_466 62.3(7)
Te1 O1 Te2 . 4_565 89.3(8)
Te1 O1 O2 . . 42.6(9)
Te1 O1 O3 . . 39.4(7)
Te1 O1 O5 . 3_456 148.5(14)
Te1 O1 O6 . 2_466 112.6(11)
Te2 O1 O2 4_565 . 125.8(12)
Te2 O1 O3 4_565 . 102.3(10)
Te2 O1 O5 4_565 3_456 111.4(10)
Te2 O1 O6 4_565 2_466 158.1(10)
O2 O1 O3 . . 59.5(9)
O2 O1 O5 . 3_456 106.9(13)
O2 O1 O6 . 2_466 74.3(11)
O3 O1 O5 . 3_456 144.0(13)
O3 O1 O6 . 2_466 95.8(11)
O5 O1 O6 3_456 2_466 48.7(9)
Ca1 O2 Ca1 . 4_564 121.1(16)
Ca1 O2 Ca2 . . 90.3(10)
Ca1 O2 Te1 . . 101.8(13)
Ca1 O2 O1 . . 56.4(9)
Ca1 O2 O3 . . 113.9(14)
Ca1 O2 O3 . 4_565 71.7(8)
Ca1 O2 O4 . 3_456 48.9(8)
Ca1 O2 O5 . 2_466 118.1(15)
Ca1 O2 Ca2 4_564 . 104.5(13)
Ca1 O2 Te1 4_564 . 114.2(12)
Ca1 O2 O1 4_564 . 125.0(14)
Ca1 O2 O3 4_564 . 75.2(9)
Ca1 O2 O3 4_564 4_565 153.3(16)
Ca1 O2 O4 4_564 3_456 102.4(14)
Ca1 O2 O5 4_564 2_466 49.8(9)
Ca2 O2 Te1 . . 124.0(17)
Ca2 O2 O1 . . 129.2(11)
Ca2 O2 O3 . . 152.3(17)
Ca2 O2 O3 . 4_565 49.7(8)
Ca2 O2 O4 . 3_456 48.7(8)
Ca2 O2 O5 . 2_466 54.7(10)
Te1 O2 O1 . . 47.4(9)
Te1 O2 O3 . . 41.0(9)
Te1 O2 O3 . 4_565 82.5(13)
Te1 O2 O4 . 3_456 142.5(13)
Te1 O2 O5 . 2_466 139.8(17)
O1 O2 O3 . . 63.1(11)
O1 O2 O3 . 4_565 81.7(11)
O1 O2 O4 . 3_456 104.4(11)
O1 O2 O5 . 2_466 170.9(18)
O3 O2 O3 . 4_565 123.4(16)
O3 O2 O4 . 3_456 159.0(16)
O3 O2 O5 . 2_466 117.8(11)
O3 O2 O4 4_565 3_456 67.2(10)
O3 O2 O5 4_565 2_466 103.8(13)
O4 O2 O5 3_456 2_466 71.8(12)
Ca1 O3 Ca2 4_564 4_564 78.2(9)
Ca1 O3 Te1 4_564 . 86.9(10)
Ca1 O3 Te1 4_564 4_564 64.3(5)
Ca1 O3 O1 4_564 . 97.5(10)
Ca1 O3 O2 4_564 . 47.3(8)
Ca1 O3 O2 4_564 4_564 48.7(8)
Ca1 O3 O4 4_564 2_466 42.2(7)
Ca2 O3 Te1 4_564 . 149.9(17)
Ca2 O3 Te1 4_564 4_564 85.3(7)
Ca2 O3 O1 4_564 . 112.3(12)
Ca2 O3 O2 4_564 . 115.3(15)
Ca2 O3 O2 4_564 4_564 54.7(9)
Ca2 O3 O4 4_564 2_466 44.8(8)
Te1 O3 Te1 . 4_564 111.7(11)
Te1 O3 O1 . . 43.6(7)
Te1 O3 O2 . . 41.0(9)
Te1 O3 O2 . 4_564 129.4(14)
Te1 O3 O4 . 2_466 108.2(13)
Te1 O3 O1 4_564 . 152.5(11)
Te1 O3 O2 4_564 . 96.4(10)
Te1 O3 O2 4_564 4_564 34.5(8)
Te1 O3 O4 4_564 2_466 90.2(8)
O1 O3 O2 . . 57.4(9)
O1 O3 O2 . 4_564 143.4(15)
O1 O3 O4 . 2_466 88.4(10)
O2 O3 O2 . 4_564 94.9(12)
O2 O3 O4 . 2_466 70.5(11)
O2 O3 O4 4_564 2_466 57.8(10)
Ca1 O4 Ca2 3_556 3_556 99.3(11)
Ca1 O4 Te2 3_556 . 139.3(14)
Ca1 O4 O2 3_556 3_556 54.9(9)
Ca1 O4 O3 3_556 2_566 67.3(8)
Ca1 O4 O5 3_556 1_545 134.7(14)
Ca1 O4 O5 3_556 4_565 104.3(11)
Ca1 O4 O6 3_556 . 101.8(10)
Ca1 O4 O6 3_556 4_555 156.6(12)
Ca2 O4 Te2 3_556 . 107.3(12)
Ca2 O4 O2 3_556 3_556 53.0(9)
Ca2 O4 O3 3_556 2_566 44.4(7)
Ca2 O4 O5 3_556 1_545 59.4(9)
Ca2 O4 O5 3_556 4_565 45.6(8)
Ca2 O4 O6 3_556 . 112.5(11)
Ca2 O4 O6 3_556 4_555 61.4(8)
Te2 O4 O2 . 3_556 160.3(15)
Te2 O4 O3 . 2_566 112.9(12)
Te2 O4 O5 . 1_545 49.2(10)
Te2 O4 O5 . 4_565 116.3(13)
Te2 O4 O6 . . 39.5(7)
Te2 O4 O6 . 4_555 63.4(9)
O2 O4 O3 3_556 2_566 55.0(9)
O2 O4 O5 3_556 1_545 111.6(13)
O2 O4 O5 3_556 4_565 51.6(10)
O2 O4 O6 3_556 . 141.6(12)
O2 O4 O6 3_556 4_555 101.7(11)
O3 O4 O5 2_566 1_545 71.0(11)
O3 O4 O5 2_566 4_565 84.7(10)
O3 O4 O6 2_566 . 89.2(9)
O3 O4 O6 2_566 4_555 101.1(10)
O5 O4 O5 1_545 4_565 88.2(11)
O5 O4 O6 1_545 . 60.4(9)
O5 O4 O6 1_545 4_555 49.1(9)
O5 O4 O6 4_565 . 148.2(12)
O5 O4 O6 4_565 4_555 53.1(9)
O6 O4 O6 . 4_555 98.1(10)
Ca1 O5 Ca2 3_556 2_566 111.0(14)
Ca1 O5 Ca2 3_556 3_566 97.5(10)
Ca1 O5 Te2 3_556 1_565 123.8(17)
Ca1 O5 O1 3_556 3_556 58.2(9)
Ca1 O5 O2 3_556 2_566 56.1(10)
Ca1 O5 O4 3_556 1_565 129.8(13)
Ca1 O5 O4 3_556 4_564 95.1(12)
Ca1 O5 O6 3_556 1_565 148.0(16)
Ca1 O5 O6 3_556 4_565 55.9(9)
Ca2 O5 Ca2 2_566 3_566 122.2(15)
Ca2 O5 Te2 2_566 1_565 107.2(12)
Ca2 O5 O1 2_566 3_556 107.9(14)
Ca2 O5 O2 2_566 2_566 54.9(9)
Ca2 O5 O4 2_566 1_565 119.1(14)
Ca2 O5 O4 2_566 4_564 42.4(7)
Ca2 O5 O6 2_566 1_565 63.9(8)
Ca2 O5 O6 2_566 4_565 164.4(18)
Ca2 O5 Te2 3_566 1_565 95.4(13)
Ca2 O5 O1 3_566 3_556 48.7(8)
Ca2 O5 O2 3_566 2_566 123.7(15)
Ca2 O5 O4 3_566 1_565 52.3(9)
Ca2 O5 O4 3_566 4_564 163.5(14)
Ca2 O5 O6 3_566 1_565 111.9(14)
Ca2 O5 O6 3_566 4_565 70.8(9)
Te2 O5 O1 1_565 3_556 139.8(13)
Te2 O5 O2 1_565 2_566 140.9(16)
Te2 O5 O4 1_565 1_565 44.1(9)
Te2 O5 O4 1_565 4_564 86.4(10)
Te2 O5 O6 1_565 1_565 44.0(8)
Te2 O5 O6 1_565 4_565 78.0(12)
O1 O5 O2 3_556 2_566 77.1(12)
O1 O5 O4 3_556 1_565 100.5(12)
O1 O5 O4 3_556 4_564 133.4(14)
O1 O5 O6 3_556 1_565 153.2(16)
O1 O5 O6 3_556 4_565 73.4(10)
O2 O5 O4 2_566 1_565 171.4(18)
O2 O5 O4 2_566 4_564 56.6(9)
O2 O5 O6 2_566 1_565 111.9(11)
O2 O5 O6 2_566 4_565 111.7(15)
O4 O5 O4 1_565 4_564 124.5(13)
O4 O5 O6 1_565 1_565 66.7(11)
O4 O5 O6 1_565 4_565 75.1(11)
O4 O5 O6 4_564 1_565 59.0(8)
O4 O5 O6 4_564 4_565 125.5(15)
O6 O5 O6 1_565 4_565 121.8(16)
Ca1 O6 Ca2 2_566 2_556 87.9(8)
Ca1 O6 Te1 2_566 4_564 95.6(8)
Ca1 O6 Te2 2_566 . 143.5(13)
Ca1 O6 Te2 2_566 4_554 95.5(10)
Ca1 O6 O1 2_566 2_566 51.8(7)
Ca1 O6 O4 2_566 . 107.6(10)
Ca1 O6 O4 2_566 4_554 111.7(11)
Ca1 O6 O5 2_566 1_545 121.7(12)
Ca1 O6 O5 2_566 4_564 56.8(11)
Ca2 O6 Te1 2_556 4_564 164.1(10)
Ca2 O6 Te2 2_556 . 93.1(9)
Ca2 O6 Te2 2_556 4_554 72.2(6)
Ca2 O6 O1 2_556 2_566 42.4(6)
Ca2 O6 O4 2_556 . 95.5(9)
Ca2 O6 O4 2_556 4_554 44.6(6)
Ca2 O6 O5 2_556 1_545 49.5(7)
Ca2 O6 O5 2_556 4_564 55.2(9)
Te1 O6 Te2 4_564 . 93.2(8)
Te1 O6 Te2 4_564 4_554 92.1(7)
Te1 O6 O1 4_564 2_566 146.4(9)
Te1 O6 O4 4_564 . 98.2(8)
Te1 O6 O4 4_564 4_554 120.4(9)
Te1 O6 O5 4_564 1_545 136.9(11)
Te1 O6 O5 4_564 4_564 114.5(12)
Te2 O6 Te2 . 4_554 119.6(9)
Te2 O6 O1 . 2_566 108.9(10)
Te2 O6 O4 . . 35.9(7)
Te2 O6 O4 . 4_554 93.7(9)
Te2 O6 O5 . 1_545 44.1(8)
Te2 O6 O5 . 4_564 145.9(14)
Te2 O6 O1 4_554 2_566 98.1(8)
Te2 O6 O4 4_554 . 153.6(10)
Te2 O6 O4 4_554 4_554 36.1(6)
Te2 O6 O5 4_554 1_545 104.0(9)
Te2 O6 O5 4_554 4_564 44.5(9)
O1 O6 O4 2_566 . 86.7(9)
O1 O6 O4 2_566 4_554 84.0(9)
O1 O6 O5 2_566 1_545 71.1(10)
O1 O6 O5 2_566 4_564 57.9(10)
O4 O6 O4 . 4_554 119.9(10)
O4 O6 O5 . 1_545 52.9(9)
O4 O6 O5 . 4_564 144.0(13)
O4 O6 O5 4_554 1_545 68.0(9)
O4 O6 O5 4_554 4_564 55.9(11)
O5 O6 O5 1_545 4_564 104.5(13)
loop_
_geom_bond_atom_site_label_1
_geom_bond_atom_site_label_2
_geom_bond_site_symmetry_2
_geom_bond_distance
Ca1 O1 . 2.48(3)
Ca1 O2 . 2.52(3)
Ca1 O2 4_565 2.42(3)
Ca1 O3 4_565 3.18(3)
Ca1 O4 3_456 2.32(3)
Ca1 O5 3_456 2.23(4)
Ca1 O6 2_466 2.20(3)
Ca2 Te2 3_456 3.367(9)
Ca2 O1 1_545 2.18(3)
Ca2 O2 . 2.44(3)
Ca2 O3 4_565 2.28(3)
Ca2 O4 3_456 2.29(3)
Ca2 O5 2_466 2.43(3)
Ca2 O5 3_446 2.49(3)
Ca2 O6 2_456 2.87(2)
Te1 O1 . 1.99(2)
Te1 O2 . 1.84(4)
Te1 O3 . 1.84(2)
Te1 O3 4_565 3.22(2)
Te1 O6 4_565 3.18(2)
Te2 O1 4_564 3.35(2)
Te2 O4 . 1.88(3)
Te2 O5 1_545 2.04(4)
Te2 O6 . 2.04(3)
Te2 O6 4_555 2.85(3)
O1 O2 . 2.71(4)
O1 O3 . 2.87(3)
O1 O5 3_456 2.77(4)
O1 O6 2_466 3.13(3)
O2 O3 . 2.77(4)
O2 O3 4_565 2.89(4)
O2 O4 3_456 2.99(4)
O2 O5 2_466 2.80(5)
O3 O4 2_466 3.25(4)
O4 O5 1_545 2.69(4)
O4 O5 4_565 3.40(4)
O4 O6 . 3.10(4)
O4 O6 4_555 3.14(4)
O5 O6 1_565 2.93(4)
O5 O6 4_565 2.46(4)
loop_
_pd_proc_point_id
_pd_proc_2theta_corrected
_pd_proc_intensity_net
_pd_calc_intensity_net
_pd_proc_ls_weight
1 9.8890 335.00 368.51 18.30
2 9.9008 377.00 367.75 19.42
3 9.9126 381.00 367.00 19.52
4 9.9245 388.00 366.24 19.70
5 9.9363 356.00 365.49 18.87
6 9.9481 313.00 364.74 17.69
7 9.9599 363.00 363.99 19.05
8 9.9717 338.00 363.25 18.38
9 9.9836 384.00 362.50 19.60
10 9.9954 372.00 361.76 19.29
11 10.0072 345.00 361.02 18.57
12 10.0190 341.00 360.29 18.47
13 10.0308 313.00 359.55 17.69
14 10.0425 368.00 358.82 19.18
15 10.0544 344.00 358.08 18.55
16 10.0662 331.00 357.35 18.19
17 10.0780 359.00 356.63 18.95
18 10.0898 366.00 355.90 19.13
19 10.1016 384.00 355.18 19.60
20 10.1135 383.00 354.45 19.57
21 10.1253 358.00 353.73 18.92
22 10.1371 360.00 353.02 18.97
23 10.1489 381.00 352.30 19.52
24 10.1607 327.00 351.59 18.08
25 10.1726 349.00 350.87 18.68
26 10.1844 363.00 350.16 19.05
27 10.1962 369.00 349.45 19.21
28 10.2080 342.00 348.75 18.49
29 10.2198 349.00 348.04 18.68
30 10.2317 357.00 347.34 18.89
31 10.2435 354.00 346.64 18.81
32 10.2553 359.00 345.94 18.95
33 10.2671 357.00 345.24 18.89
34 10.2789 327.00 344.55 18.08
35 10.2907 313.00 343.86 17.69
36 10.3026 332.00 343.16 18.22
37 10.3144 326.00 342.47 18.06
38 10.3262 335.00 341.78 18.30
39 10.3380 353.00 341.10 18.79
40 10.3498 324.00 340.41 18.00
41 10.3617 305.00 339.73 17.46
42 10.3735 364.00 339.05 19.08
43 10.3853 342.00 338.37 18.49
44 10.3971 336.00 337.69 18.33
45 10.4089 312.00 337.02 17.66
46 10.4208 334.00 336.34 18.28
47 10.4325 366.00 335.67 19.13
48 10.4443 344.00 335.00 18.55
49 10.4561 324.00 334.33 18.00
50 10.4679 361.00 333.67 19.00
51 10.4798 312.00 333.00 17.66
52 10.4916 320.00 332.33 17.89
53 10.5034 337.00 331.67 18.36
54 10.5152 308.00 331.02 17.55
55 10.5270 327.00 330.36 18.08
56 10.5388 329.00 329.70 18.14
57 10.5507 354.00 329.05 18.81
58 10.5625 331.00 328.39 18.19
59 10.5743 353.00 327.74 18.79
60 10.5861 351.00 327.10 18.74
61 10.5979 330.00 326.45 18.17
62 10.6098 333.00 325.80 18.25
63 10.6216 333.00 325.16 18.25
64 10.6334 344.00 324.51 18.55
65 10.6452 325.00 323.88 18.03
66 10.6570 336.00 323.24 18.33
67 10.6689 344.00 322.60 18.55
68 10.6807 313.00 321.96 17.69
69 10.6925 351.00 321.33 18.74
70 10.7043 320.00 320.70 17.89
71 10.7161 324.00 320.07 18.00
72 10.7279 311.00 319.44 17.64
73 10.7398 291.00 318.81 17.06
74 10.7516 345.00 318.18 18.57
75 10.7634 381.00 317.56 19.52
76 10.7752 343.00 316.94 18.52
77 10.7870 337.00 316.32 18.36
78 10.7988 326.00 315.69 18.06
79 10.8106 302.00 315.08 17.38
80 10.8224 304.00 314.46 17.44
81 10.8342 299.00 313.85 17.29
82 10.8460 324.00 313.24 18.00
83 10.8579 332.00 312.62 18.22
84 10.8697 307.00 312.01 17.52
85 10.8815 308.00 311.41 17.55
86 10.8933 291.00 310.80 17.06
87 10.9051 338.00 310.20 18.38
88 10.9170 302.00 309.59 17.38
89 10.9288 297.00 308.99 17.23
90 10.9406 278.00 308.39 16.67
91 10.9524 320.00 307.79 17.89
92 10.9642 295.00 307.20 17.18
93 10.9760 318.00 306.60 17.83
94 10.9879 301.00 306.00 17.35
95 10.9997 257.00 305.41 16.03
96 11.0115 309.00 304.82 17.58
97 11.0233 285.00 304.23 16.88
98 11.0351 308.00 303.65 17.55
99 11.0470 316.00 303.06 17.78
100 11.0588 302.00 302.47 17.38
101 11.0706 312.00 301.89 17.66
102 11.0824 311.00 301.31 17.64
103 11.0942 313.00 300.73 17.69
104 11.1061 289.00 300.15 17.00
105 11.1179 318.00 299.57 17.83
106 11.1297 311.00 299.00 17.64
107 11.1415 309.00 298.43 17.58
108 11.1532 282.00 297.85 16.79
109 11.1651 304.00 297.28 17.44
110 11.1769 295.00 296.71 17.18
111 11.1887 283.00 296.14 16.82
112 11.2005 298.00 295.58 17.26
113 11.2123 312.00 295.01 17.66
114 11.2241 301.00 294.45 17.35
115 11.2360 289.00 293.88 17.00
116 11.2478 253.00 293.32 15.91
117 11.2596 269.00 292.77 16.40
118 11.2714 266.00 292.21 16.31
119 11.2832 320.00 291.65 17.89
120 11.2951 283.00 291.09 16.82
121 11.3069 311.00 290.54 17.64
122 11.3187 260.00 289.99 16.12
123 11.3305 273.00 289.44 16.52
124 11.3423 276.00 288.89 16.61
125 11.3542 300.00 288.34 17.32
126 11.3660 268.00 287.80 16.37
127 11.3778 294.00 287.25 17.15
128 11.3896 300.00 286.71 17.32
129 11.4014 266.00 286.17 16.31
130 11.4133 274.00 285.62 16.55
131 11.4251 273.00 285.08 16.52
132 11.4369 300.00 284.55 17.32
133 11.4487 289.00 284.01 17.00
134 11.4605 272.00 283.48 16.49
135 11.4723 270.00 282.94 16.43
136 11.4842 257.00 282.41 16.03
137 11.4959 279.00 281.88 16.70
138 11.5077 274.00 281.35 16.55
139 11.5195 311.00 280.82 17.64
140 11.5313 274.00 280.29 16.55
141 11.5432 295.00 279.76 17.18
142 11.5550 250.00 279.24 15.81
143 11.5668 262.00 278.72 16.19
144 11.5786 267.00 278.20 16.34
145 11.5904 273.00 277.68 16.52
146 11.6023 299.00 277.16 17.29
147 11.6141 256.00 276.64 16.00
148 11.6259 250.00 276.12 15.81
149 11.6377 280.00 275.61 16.73
150 11.6495 243.00 275.10 15.59
151 11.6614 261.00 274.58 16.16
152 11.6732 255.00 274.07 15.97
153 11.6850 277.00 273.56 16.64
154 11.6968 269.00 273.05 16.40
155 11.7086 268.00 272.55 16.37
156 11.7204 251.00 272.04 15.84
157 11.7323 265.00 271.56 16.28
158 11.7441 275.00 271.05 16.58
159 11.7559 231.00 270.55 15.20
160 11.7677 238.00 270.05 15.43
161 11.7795 254.00 269.56 15.94
162 11.7914 248.00 269.05 15.75
163 11.8032 255.00 268.56 15.97
164 11.8150 249.00 268.07 15.78
165 11.8268 278.00 267.57 16.67
166 11.8385 285.00 267.08 16.88
167 11.8504 254.00 266.58 15.94
168 11.8622 247.00 266.10 15.72
169 11.8740 284.00 265.61 16.85
170 11.8858 260.00 265.12 16.12
171 11.8976 264.00 264.64 16.25
172 11.9094 244.00 264.15 15.62
173 11.9213 257.00 263.66 16.03
174 11.9331 260.00 263.18 16.12
175 11.9449 255.00 262.70 15.97
176 11.9567 223.00 262.22 14.93
177 11.9685 258.00 261.74 16.06
178 11.9804 245.00 261.26 15.65
179 11.9922 241.00 260.79 15.52
180 12.0040 264.00 260.31 16.25
181 12.0158 226.00 259.84 15.03
182 12.0276 258.00 259.37 16.06
183 12.0395 238.00 258.89 15.43
184 12.0513 255.00 258.42 15.97
185 12.0631 272.00 257.96 16.49
186 12.0749 263.00 257.49 16.22
187 12.0867 241.00 257.02 15.52
188 12.0986 277.00 256.56 16.64
189 12.1104 240.00 256.09 15.49
190 12.1222 241.00 255.63 15.52
191 12.1340 278.00 255.17 16.67
192 12.1458 259.00 254.71 16.09
193 12.1576 247.00 254.25 15.72
194 12.1694 244.00 253.79 15.62
195 12.1812 257.00 253.33 16.03
196 12.1930 236.00 252.88 15.36
197 12.2048 248.00 252.43 15.75
198 12.2166 266.00 251.98 16.31
199 12.2285 253.00 251.53 15.91
200 12.2403 271.00 251.08 16.46
201 12.2521 244.00 250.63 15.62
202 12.2639 257.00 250.18 16.03
203 12.2757 254.00 249.73 15.94
204 12.2876 259.00 249.29 16.09
205 12.2994 226.00 248.84 15.03
206 12.3112 239.00 248.40 15.46
207 12.3230 252.00 247.96 15.87
208 12.3348 269.00 247.51 16.40
209 12.3467 228.00 247.07 15.10
210 12.3585 240.00 246.63 15.49
211 12.3703 234.00 246.20 15.30
212 12.3821 254.00 245.76 15.94
213 12.3939 224.00 245.33 14.97
214 12.4057 251.00 244.89 15.84
215 12.4176 216.00 244.46 14.70
216 12.4294 239.00 244.03 15.46
217 12.4412 236.00 243.60 15.36
218 12.4530 218.00 243.17 14.76
219 12.4648 231.00 242.74 15.20
220 12.4767 242.00 242.31 15.56
221 12.4884 234.00 241.89 15.30
222 12.5002 252.00 241.46 15.87
223 12.5120 253.00 241.04 15.91
224 12.5238 232.00 240.62 15.23
225 12.5357 224.00 240.20 14.97
226 12.5475 235.00 239.78 15.33
227 12.5593 187.00 239.36 13.67
228 12.5711 218.00 238.94 14.76
229 12.5829 259.00 238.53 16.09
230 12.5948 271.00 238.11 16.46
231 12.6066 261.00 237.70 16.16
232 12.6184 224.00 237.29 14.97
233 12.6302 235.00 236.88 15.33
234 12.6420 245.00 236.47 15.65
235 12.6538 241.00 236.06 15.52
236 12.6657 190.00 235.65 13.78
237 12.6775 233.00 235.25 15.26
238 12.6893 224.00 234.85 14.97
239 12.7011 225.00 234.45 15.00
240 12.7129 240.00 234.05 15.49
241 12.7248 255.00 233.65 15.97
242 12.7366 238.00 233.25 15.43
243 12.7484 227.00 232.86 15.07
244 12.7602 244.00 232.46 15.62
245 12.7720 235.00 232.07 15.33
246 12.7839 229.00 231.68 15.13
247 12.7956 215.00 231.29 14.66
248 12.8074 227.00 230.91 15.07
249 12.8192 197.00 230.53 14.04
250 12.8310 219.00 230.15 14.80
251 12.8429 237.00 229.77 15.39
252 12.8547 212.00 229.40 14.56
253 12.8665 232.00 229.02 15.23
254 12.8783 203.00 228.66 14.25
255 12.8901 234.00 228.29 15.30
256 12.9019 211.00 227.93 14.53
257 12.9138 235.00 227.58 15.33
258 12.9256 227.00 227.23 15.07
259 12.9374 220.00 226.89 14.83
260 12.9492 225.00 226.55 15.00
261 12.9610 218.00 226.22 14.76
262 12.9729 249.00 225.90 15.78
263 12.9847 223.00 225.60 14.93
264 12.9965 215.00 225.30 14.66
265 13.0083 232.00 225.03 15.23
266 13.0201 216.00 224.78 14.70
267 13.0320 209.00 224.56 14.46
268 13.0438 201.00 224.39 14.18
269 13.0556 216.00 224.27 14.70
270 13.0674 181.00 224.24 13.45
271 13.0792 236.00 224.31 15.36
272 13.0910 200.00 224.53 14.14
273 13.1028 213.00 224.93 14.59
274 13.1146 224.00 225.56 14.97
275 13.1264 246.00 226.46 15.68
276 13.1382 225.00 227.64 15.00
277 13.1500 224.00 229.12 14.97
278 13.1619 216.00 230.88 14.70
279 13.1737 188.00 232.83 13.71
280 13.1855 230.00 234.84 15.17
281 13.1973 184.00 236.68 13.56
282 13.2091 240.00 238.03 15.49
283 13.2210 261.00 238.51 16.16
284 13.2328 243.00 237.78 15.59
285 13.2446 215.00 235.81 14.66
286 13.2564 209.00 232.94 14.46
287 13.2682 239.00 229.72 15.46
288 13.2801 225.00 226.59 15.00
289 13.2919 236.00 223.84 15.36
290 13.3037 234.00 221.55 15.30
291 13.3155 203.00 219.70 14.25
292 13.3273 186.00 218.25 13.64
293 13.3391 217.00 217.11 14.73
294 13.3510 209.00 216.22 14.46
295 13.3628 223.00 215.53 14.93
296 13.3746 228.00 214.97 15.10
297 13.3864 212.00 214.53 14.56
298 13.3981 211.00 214.20 14.53
299 13.4100 203.00 213.96 14.25
300 13.4218 212.00 213.84 14.56
301 13.4336 225.00 213.84 15.00
302 13.4454 223.00 213.98 14.93
303 13.4572 200.00 214.25 14.14
304 13.4691 231.00 214.66 15.20
305 13.4809 213.00 215.18 14.59
306 13.4927 206.00 215.76 14.35
307 13.5045 224.00 216.30 14.97
308 13.5163 220.00 216.65 14.83
309 13.5282 193.00 216.58 13.89
310 13.5400 240.00 215.92 15.49
311 13.5518 191.00 214.68 13.82
312 13.5636 226.00 213.12 15.03
313 13.5754 231.00 211.53 15.20
314 13.5872 215.00 210.10 14.66
315 13.5991 222.00 208.87 14.90
316 13.6109 224.00 207.87 14.97
317 13.6227 186.00 207.05 13.64
318 13.6345 198.00 206.37 14.07
319 13.6463 204.00 205.79 14.28
320 13.6582 226.00 205.27 15.03
321 13.6700 215.00 204.81 14.66
322 13.6817 203.00 204.37 14.25
323 13.6935 207.00 203.96 14.39
324 13.7053 222.00 203.56 14.90
325 13.7172 214.00 203.17 14.63
326 13.7290 189.00 202.79 13.75
327 13.7408 227.00 202.42 15.07
328 13.7526 221.00 202.05 14.87
329 13.7644 212.00 201.70 14.56
330 13.7763 244.00 201.34 15.62
331 13.7881 202.00 200.99 14.21
332 13.7999 221.00 200.64 14.87
333 13.8117 223.00 200.30 14.93
334 13.8235 222.00 199.96 14.90
335 13.8353 228.00 199.62 15.10
336 13.8472 260.00 199.28 16.12
337 13.8590 250.00 198.95 15.81
338 13.8708 242.00 198.62 15.56
339 13.8826 242.00 198.29 15.56
340 13.8944 220.00 197.96 14.83
341 13.9063 210.00 197.63 14.49
342 13.9181 234.00 197.31 15.30
343 13.9299 214.00 196.98 14.63
344 13.9417 212.00 196.66 14.56
345 13.9535 232.00 196.34 15.23
346 13.9653 230.00 196.02 15.17
347 13.9771 246.00 195.70 15.68
348 13.9889 227.00 195.38 15.07
349 14.0007 201.00 195.07 14.18
350 14.0125 251.00 194.75 15.84
351 14.0244 223.00 194.44 14.93
352 14.0362 230.00 194.12 15.17
353 14.0480 224.00 193.81 14.97
354 14.0598 207.00 193.50 14.39
355 14.0716 230.00 193.19 15.17
356 14.0834 240.00 192.88 15.49
357 14.0953 240.00 192.57 15.49
358 14.1071 250.00 192.26 15.81
359 14.1189 232.00 191.96 15.23
360 14.1307 239.00 191.65 15.46
361 14.1425 241.00 191.35 15.52
362 14.1544 236.00 191.04 15.36
363 14.1662 215.00 190.74 14.66
364 14.1780 260.00 190.44 16.12
365 14.1898 240.00 190.14 15.49
366 14.2016 253.00 189.84 15.91
367 14.2135 229.00 189.54 15.13
368 14.2253 252.00 189.24 15.87
369 14.2371 225.00 188.94 15.00
370 14.2488 279.00 188.64 16.70
371 14.2606 234.00 188.35 15.30
372 14.2724 231.00 188.05 15.20
373 14.2843 236.00 187.76 15.36
374 14.2961 256.00 187.46 16.00
375 14.3079 209.00 187.17 14.46
376 14.3197 254.00 186.88 15.94
377 14.3315 234.00 186.59 15.30
378 14.3434 212.00 186.29 14.56
379 14.3552 249.00 186.00 15.78
380 14.3670 234.00 185.71 15.30
381 14.3788 232.00 185.43 15.23
382 14.3906 202.00 185.14 14.21
383 14.4025 231.00 184.85 15.20
384 14.4143 233.00 184.56 15.26
385 14.4261 202.00 184.28 14.21
386 14.4379 217.00 183.99 14.73
387 14.4497 215.00 183.71 14.66
388 14.4616 228.00 183.43 15.10
389 14.4734 197.00 183.14 14.04
390 14.4852 214.00 182.86 14.63
391 14.4970 204.00 182.58 14.28
392 14.5088 228.00 182.30 15.10
393 14.5205 215.00 182.02 14.66
394 14.5324 236.00 181.74 15.36
395 14.5442 224.00 181.46 14.97
396 14.5560 192.00 181.18 13.86
397 14.5678 217.00 180.91 14.73
398 14.5796 223.00 180.63 14.93
399 14.5915 223.00 180.35 14.93
400 14.6033 197.00 180.08 14.04
401 14.6151 227.00 179.81 15.07
402 14.6269 210.00 179.53 14.49
403 14.6387 194.00 179.26 13.93
404 14.6506 172.00 178.99 13.11
405 14.6624 213.00 178.72 14.59
406 14.6742 224.00 178.45 14.97
407 14.6860 202.00 178.18 14.21
408 14.6978 213.00 177.91 14.59
409 14.7097 198.00 177.64 14.07
410 14.7215 190.00 177.37 13.78
411 14.7333 219.00 177.10 14.80
412 14.7451 202.00 176.84 14.21
413 14.7569 195.00 176.55 13.96
414 14.7687 194.00 176.29 13.93
415 14.7806 178.00 176.02 13.34
416 14.7923 192.00 175.76 13.86
417 14.8041 184.00 175.49 13.56
418 14.8159 204.00 175.23 14.28
419 14.8277 191.00 174.97 13.82
420 14.8396 198.00 174.71 14.07
421 14.8514 181.00 174.45 13.45
422 14.8632 183.00 174.19 13.53
423 14.8750 187.00 173.92 13.67
424 14.8868 195.00 173.66 13.96
425 14.8987 172.00 173.40 13.11
426 14.9105 171.00 173.15 13.08
427 14.9223 180.00 172.89 13.42
428 14.9341 202.00 172.63 14.21
429 14.9459 194.00 172.38 13.93
430 14.9578 176.00 172.12 13.27
431 14.9696 183.00 171.87 13.53
432 14.9814 174.00 171.62 13.19
433 14.9932 175.00 171.36 13.23
434 15.0050 188.00 171.11 13.71
435 15.0168 173.00 170.86 13.15
436 15.0287 168.00 170.61 12.96
437 15.0405 174.00 170.36 13.19
438 15.0522 178.00 170.11 13.34
439 15.0640 151.00 169.86 12.29
440 15.0758 185.00 169.61 13.60
441 15.0877 163.00 169.36 12.77
442 15.0995 180.00 169.11 13.42
443 15.1113 176.00 168.87 13.27
444 15.1231 169.00 168.62 13.00
445 15.1349 173.00 168.38 13.15
446 15.1468 186.00 168.13 13.64
447 15.1586 154.00 167.88 12.41
448 15.1704 166.00 167.64 12.88
449 15.1822 178.00 167.40 13.34
450 15.1940 172.00 167.16 13.11
451 15.2059 162.00 166.91 12.73
452 15.2177 168.00 166.67 12.96
453 15.2295 170.00 166.43 13.04
454 15.2413 202.00 166.19 14.21
455 15.2531 174.00 165.95 13.19
456 15.2649 179.00 165.71 13.38
457 15.2768 190.00 165.47 13.78
458 15.2886 173.00 165.24 13.15
459 15.3004 163.00 165.00 12.77
460 15.3121 165.00 164.76 12.85
461 15.3239 171.00 164.53 13.08
462 15.3358 144.00 164.29 12.00
463 15.3476 172.00 164.05 13.11
464 15.3594 159.00 163.82 12.61
465 15.3712 174.00 163.59 13.19
466 15.3830 170.00 163.35 13.04
467 15.3949 161.00 163.12 12.69
468 15.4067 174.00 162.89 13.19
469 15.4185 169.00 162.66 13.00
470 15.4303 159.00 162.43 12.61
471 15.4421 155.00 162.20 12.45
472 15.4539 169.00 161.97 13.00
473 15.4658 174.00 162.50 13.19
474 15.4776 161.00 162.28 12.69
475 15.4894 176.00 162.06 13.27
476 15.5012 137.00 161.84 11.70
477 15.5130 159.00 161.62 12.61
478 15.5249 153.00 161.41 12.37
479 15.5367 148.00 161.19 12.17
480 15.5485 173.00 160.98 13.15
481 15.5603 164.00 160.76 12.81
482 15.5720 166.00 160.55 12.88
483 15.5839 157.00 160.34 12.53
484 15.5957 170.00 160.12 13.04
485 15.6075 167.00 159.91 12.92
486 15.6193 182.00 159.70 13.49
487 15.6311 155.00 159.49 12.45
488 15.6430 172.00 159.28 13.11
489 15.6548 159.00 159.08 12.61
490 15.6666 155.00 158.87 12.45
491 15.6784 183.00 158.66 13.53
492 15.6902 184.00 158.46 13.56
493 15.7020 152.00 158.25 12.33
494 15.7139 151.00 158.05 12.29
495 15.7257 178.00 157.85 13.34
496 15.7375 158.00 157.64 12.57
497 15.7493 157.00 157.44 12.53
498 15.7611 147.00 157.24 12.12
499 15.7730 149.00 157.04 12.21
500 15.7848 147.00 156.84 12.12
501 15.7966 171.00 156.65 13.08
502 15.8084 163.00 156.45 12.77
503 15.8201 182.00 156.25 13.49
504 15.8320 154.00 156.06 12.41
505 15.8438 145.00 155.86 12.04
506 15.8556 141.00 155.67 11.87
507 15.8674 151.00 155.48 12.29
508 15.8792 155.00 155.29 12.45
509 15.8911 141.00 155.10 11.87
510 15.9029 151.00 154.91 12.29
511 15.9147 136.00 154.72 11.66
512 15.9265 161.00 154.53 12.69
513 15.9383 174.00 154.35 13.19
514 15.9501 148.00 154.16 12.17
515 15.9620 151.00 153.98 12.29
516 15.9738 160.00 153.79 12.65
517 15.9856 153.00 153.61 12.37
518 15.9974 144.00 153.43 12.00
519 16.0092 148.00 153.25 12.17
520 16.0211 158.00 153.07 12.57
521 16.0329 169.00 152.90 13.00
522 16.0447 153.00 152.72 12.37
523 16.0565 136.00 152.55 11.66
524 16.0682 149.00 152.38 12.21
525 16.0801 152.00 152.20 12.33
526 16.0919 150.00 152.03 12.25
527 16.1037 152.00 151.86 12.33
528 16.1155 164.00 151.70 12.81
529 16.1273 153.00 151.53 12.37
530 16.1392 155.00 151.36 12.45
531 16.1510 149.00 151.20 12.21
532 16.1628 156.00 151.04 12.49
533 16.1746 158.00 150.88 12.57
534 16.1864 142.00 150.72 11.92
535 16.1982 143.00 150.57 11.96
536 16.2101 138.00 150.41 11.75
537 16.2219 128.00 150.26 11.31
538 16.2337 149.00 150.10 12.21
539 16.2455 141.00 149.96 11.87
540 16.2573 168.00 149.81 12.96
541 16.2692 152.00 149.66 12.33
542 16.2810 140.00 149.52 11.83
543 16.2928 137.00 149.38 11.70
544 16.3046 142.00 149.24 11.92
545 16.3163 146.00 149.10 12.08
546 16.3282 139.00 148.97 11.79
547 16.3400 165.00 148.84 12.85
548 16.3518 147.00 148.98 12.12
549 16.3636 167.00 148.86 12.92
550 16.3754 135.00 148.74 11.62
551 16.3873 152.00 148.62 12.33
552 16.3991 136.00 148.51 11.66
553 16.4109 149.00 148.40 12.21
554 16.4227 141.00 148.29 11.87
555 16.4345 129.00 148.19 11.36
556 16.4463 164.00 150.41 12.81
557 16.4582 146.00 150.34 12.08
558 16.4700 142.00 150.27 11.92
559 16.4818 150.00 150.21 12.25
560 16.4936 137.00 150.14 11.70
561 16.5054 145.00 150.09 12.04
562 16.5173 134.00 150.04 11.58
563 16.5291 150.00 149.99 12.25
564 16.5409 154.00 149.96 12.41
565 16.5526 161.00 149.92 12.69
566 16.5644 137.00 149.90 11.70
567 16.5763 150.00 149.88 12.25
568 16.5881 145.00 149.87 12.04
569 16.5999 150.00 149.86 12.25
570 16.6117 151.00 149.86 12.29
571 16.6235 129.00 149.88 11.36
572 16.6353 136.00 149.90 11.66
573 16.6472 153.00 149.93 12.37
574 16.6590 168.00 149.97 12.96
575 16.6708 126.00 150.02 11.23
576 16.6826 143.00 150.09 11.96
577 16.6944 139.00 150.17 11.79
578 16.7063 143.00 150.26 11.96
579 16.7181 145.00 150.36 12.04
580 16.7299 149.00 150.49 12.21
581 16.7417 145.00 150.62 12.04
582 16.7535 145.00 150.78 12.04
583 16.7654 148.00 150.95 12.17
584 16.7772 140.00 151.15 11.83
585 16.7889 125.00 151.37 11.18
586 16.8007 142.00 151.61 11.92
587 16.8125 146.00 151.88 12.08
588 16.8244 157.00 152.18 12.53
589 16.8362 150.00 152.51 12.25
590 16.8480 136.00 152.87 11.66
591 16.8598 147.00 153.28 12.12
592 16.8716 142.00 153.72 11.92
593 16.8834 156.00 154.21 12.49
594 16.8953 150.00 154.76 12.25
595 16.9071 128.00 155.35 11.31
596 16.9189 148.00 156.01 12.17
597 16.9307 119.00 156.74 10.91
598 16.9425 152.00 157.54 12.33
599 16.9544 149.00 158.44 12.21
600 16.9662 144.00 159.43 12.00
601 16.9780 152.00 160.53 12.33
602 16.9898 137.00 161.75 11.70
603 17.0016 154.00 163.12 12.41
604 17.0135 146.00 164.66 12.08
605 17.0252 148.00 166.37 12.17
606 17.0370 142.00 168.29 11.92
607 17.0488 146.00 170.46 12.08
608 17.0606 162.00 172.92 12.73
609 17.0725 156.00 175.76 12.49
610 17.0843 153.00 178.99 12.37
611 17.0961 162.00 182.72 12.73
612 17.1079 165.00 187.10 12.85
613 17.1197 184.00 192.30 13.56
614 17.1315 181.00 198.56 13.45
615 17.1434 197.00 206.30 14.04
616 17.1552 197.00 215.88 14.04
617 17.1670 234.00 227.97 15.30
618 17.1788 216.00 243.40 14.70
619 17.1906 262.00 263.21 16.19
620 17.2025 265.00 288.85 16.28
621 17.2143 308.00 321.25 17.55
622 17.2261 379.00 361.91 19.47
623 17.2379 398.00 411.97 19.95
624 17.2496 417.00 471.96 20.42
625 17.2615 545.00 542.14 23.35
626 17.2733 602.00 619.63 24.54
627 17.2851 726.00 701.56 26.94
628 17.2969 787.00 782.55 28.05
629 17.3087 848.00 855.17 29.12
630 17.3206 921.00 910.47 30.35
631 17.3324 1006.00 937.83 31.72
632 17.3442 1021.00 930.93 31.95
633 17.3560 937.00 889.36 30.61
634 17.3678 830.00 820.39 28.81
635 17.3796 743.00 735.76 27.26
636 17.3915 630.00 646.26 25.10
637 17.4033 615.00 561.69 24.80
638 17.4151 474.00 485.96 21.77
639 17.4269 458.00 421.08 21.40
640 17.4387 356.00 367.34 18.87
641 17.4506 375.00 323.66 19.36
642 17.4624 288.00 289.48 16.97
643 17.4741 273.00 262.89 16.52
644 17.4859 239.00 242.37 15.46
645 17.4977 246.00 226.53 15.68
646 17.5096 189.00 214.15 13.75
647 17.5214 210.00 204.48 14.49
648 17.5332 187.00 196.72 13.67
649 17.5450 208.00 190.38 14.42
650 17.5568 166.00 185.09 12.88
651 17.5687 176.00 180.57 13.27
652 17.5805 181.00 176.72 13.45
653 17.5923 165.00 173.37 12.85
654 17.6041 156.00 170.45 12.49
655 17.6159 166.00 167.87 12.88
656 17.6277 152.00 165.59 12.33
657 17.6396 168.00 163.54 12.96
658 17.6514 154.00 161.74 12.41
659 17.6632 156.00 160.12 12.49
660 17.6750 157.00 158.68 12.53
661 17.6868 150.00 157.38 12.25
662 17.6987 140.00 156.20 11.83
663 17.7104 137.00 155.15 11.70
664 17.7222 152.00 154.21 12.33
665 17.7340 161.00 153.35 12.69
666 17.7458 161.00 152.58 12.69
667 17.7577 130.00 151.89 11.40
668 17.7695 131.00 151.27 11.45
669 17.7813 130.00 150.71 11.40
670 17.7931 153.00 150.21 12.37
671 17.8049 149.00 149.77 12.21
672 17.8167 144.00 149.38 12.00
673 17.8286 154.00 149.03 12.41
674 17.8404 147.00 148.73 12.12
675 17.8522 133.00 148.47 11.53
676 17.8640 135.00 148.25 11.62
677 17.8758 136.00 148.07 11.66
678 17.8877 135.00 147.93 11.62
679 17.8995 128.00 147.82 11.31
680 17.9113 134.00 147.75 11.58
681 17.9230 129.00 147.71 11.36
682 17.9348 145.00 147.70 12.04
683 17.9467 134.00 147.73 11.58
684 17.9585 149.00 147.79 12.21
685 17.9703 133.00 147.88 11.53
686 17.9821 133.00 148.01 11.53
687 17.9939 115.00 148.17 10.72
688 18.0058 130.00 148.36 11.40
689 18.0176 142.00 148.59 11.92
690 18.0294 160.00 148.85 12.65
691 18.0412 118.00 149.15 10.86
692 18.0530 131.00 149.49 11.45
693 18.0648 166.00 149.86 12.88
694 18.0767 131.00 150.28 11.45
695 18.0885 130.00 150.74 11.40
696 18.1003 149.00 151.24 12.21
697 18.1121 159.00 151.79 12.61
698 18.1239 158.00 152.39 12.57
699 18.1358 161.00 153.05 12.69
700 18.1475 140.00 153.77 11.83
701 18.1593 170.00 154.54 13.04
702 18.1711 113.00 155.38 10.63
703 18.1829 143.00 156.30 11.96
704 18.1948 155.00 157.30 12.45
705 18.2066 147.00 158.38 12.12
706 18.2184 143.00 159.55 11.96
707 18.2302 159.00 160.82 12.61
708 18.2420 163.00 162.21 12.77
709 18.2539 173.00 163.74 13.15
710 18.2657 168.00 165.39 12.96
711 18.2775 149.00 167.21 12.21
712 18.2893 153.00 169.22 12.37
713 18.3011 173.00 171.45 13.15
714 18.3129 168.00 173.94 12.96
715 18.3248 187.00 176.77 13.67
716 18.3366 174.00 179.98 13.19
717 18.3484 181.00 183.68 13.45
718 18.3601 212.00 188.01 14.56
719 18.3719 221.00 193.13 14.87
720 18.3838 202.00 199.34 14.21
721 18.3956 236.00 206.78 15.36
722 18.4074 217.00 215.82 14.73
723 18.4192 246.00 226.81 15.68
724 18.4310 252.00 240.13 15.87
725 18.4429 278.00 256.29 16.67
726 18.4547 257.00 275.33 16.03
727 18.4665 316.00 297.58 17.78
728 18.4783 303.00 323.04 17.41
729 18.4901 340.00 351.47 18.44
730 18.5020 373.00 382.51 19.31
731 18.5138 428.00 414.56 20.69
732 18.5256 421.00 446.31 20.52
733 18.5374 486.00 475.68 22.05
734 18.5492 490.00 500.21 22.14
735 18.5610 568.00 517.37 23.83
736 18.5728 488.00 525.20 22.09
737 18.5846 542.00 522.83 23.28
738 18.5964 478.00 511.33 21.86
739 18.6082 493.00 493.09 22.20
740 18.6200 484.00 471.20 22.00
741 18.6319 442.00 448.34 21.02
742 18.6437 436.00 427.17 20.88
743 18.6555 420.00 409.04 20.49
744 18.6673 382.00 394.94 19.54
745 18.6791 416.00 385.47 20.40
746 18.6910 405.00 381.00 20.12
747 18.7028 356.00 381.91 18.87
748 18.7146 392.00 388.45 19.80
749 18.7264 426.00 401.05 20.64
750 18.7382 442.00 420.37 21.02
751 18.7501 451.00 447.58 21.24
752 18.7619 507.00 483.49 22.52
753 18.7737 545.00 529.89 23.35
754 18.7854 645.00 588.73 25.40
755 18.7972 682.00 662.20 26.12
756 18.8090 798.00 752.64 28.25
757 18.8209 879.00 863.39 29.65
758 18.8327 1034.00 994.69 32.16
759 18.8445 1144.00 1148.81 33.82
760 18.8563 1288.00 1326.43 35.89
761 18.8681 1504.00 1526.77 38.78
762 18.8800 1745.00 1749.20 41.77
763 18.8918 1892.00 1985.14 43.50
764 18.9036 2184.00 2228.84 46.73
765 18.9154 2399.00 2469.58 48.98
766 18.9272 2725.00 2693.71 52.20
767 18.9391 2952.00 2886.36 54.33
768 18.9509 3211.00 3026.94 56.67
769 18.9627 3339.00 3101.74 57.78
770 18.9745 3221.00 3100.73 56.75
771 18.9862 3154.00 3022.55 56.16
772 18.9980 2898.00 2875.47 53.83
773 19.0099 2687.00 2673.52 51.84
774 19.0217 2483.00 2439.33 49.83
775 19.0335 2209.00 2189.71 47.00
776 19.0453 1947.00 1939.52 44.12
777 19.0571 1631.00 1699.69 40.39
778 19.0690 1406.00 1475.58 37.50
779 19.0808 1206.00 1275.17 34.73
780 19.0926 1024.00 1098.46 32.00
781 19.1044 1001.00 945.73 31.64
782 19.1162 794.00 815.97 28.18
783 19.1281 724.00 706.58 26.91
784 19.1399 602.00 617.07 24.54
785 19.1517 510.00 543.87 22.58
786 19.1635 500.00 484.40 22.36
787 19.1753 427.00 436.25 20.66
788 19.1872 406.00 396.93 20.15
789 19.1989 373.00 365.20 19.31
790 19.2107 356.00 339.14 18.87
791 19.2225 304.00 317.49 17.44
792 19.2343 316.00 299.27 17.78
793 19.2461 272.00 283.04 16.49
794 19.2580 271.00 269.49 16.46
795 19.2698 226.00 257.73 15.03
796 19.2816 232.00 247.32 15.23
797 19.2934 236.00 238.02 15.36
798 19.3052 203.00 229.65 14.25
799 19.3171 187.00 222.02 13.67
800 19.3289 172.00 215.14 13.11
801 19.3407 184.00 208.85 13.56
802 19.3525 178.00 203.09 13.34
803 19.3643 192.00 197.80 13.86
804 19.3762 157.00 192.88 12.53
805 19.3880 163.00 188.38 12.77
806 19.3997 162.00 184.22 12.73
807 19.4115 139.00 180.36 11.79
808 19.4233 139.00 176.77 11.79
809 19.4352 158.00 173.40 12.57
810 19.4470 147.00 170.28 12.12
811 19.4588 137.00 167.37 11.70
812 19.4706 126.00 164.65 11.23
813 19.4824 143.00 162.09 11.96
814 19.4942 143.00 159.69 11.96
815 19.5061 128.00 157.42 11.31
816 19.5179 131.00 155.30 11.45
817 19.5297 128.00 153.30 11.31
818 19.5415 136.00 151.41 11.66
819 19.5533 134.00 149.62 11.58
820 19.5652 112.00 147.92 10.58
821 19.5770 106.00 146.32 10.30
822 19.5888 135.00 144.80 11.62
823 19.6006 119.00 143.36 10.91
824 19.6123 126.00 141.99 11.23
825 19.6242 122.00 140.67 11.05
826 19.6360 130.00 139.43 11.40
827 19.6478 116.00 138.24 10.77
828 19.6596 102.00 137.11 10.10
829 19.6714 137.00 136.03 11.70
830 19.6833 119.00 134.99 10.91
831 19.6951 105.00 134.00 10.25
832 19.7069 92.00 133.05 9.59
833 19.7187 123.00 132.14 11.09
834 19.7305 100.00 131.26 10.00
835 19.7423 99.00 130.43 9.95
836 19.7542 111.00 129.61 10.54
837 19.7660 110.00 128.84 10.49
838 19.7778 129.00 128.09 11.36
839 19.7896 129.00 127.37 11.36
840 19.8013 101.00 126.68 10.05
841 19.8132 115.00 126.01 10.72
842 19.8250 120.00 125.36 10.95
843 19.8368 97.00 124.74 9.85
844 19.8486 107.00 124.14 10.34
845 19.8604 102.00 123.55 10.10
846 19.8723 111.00 122.98 10.54
847 19.8841 102.00 122.44 10.10
848 19.8959 108.00 121.91 10.39
849 19.9077 102.00 121.39 10.10
850 19.9195 119.00 120.90 10.91
851 19.9314 126.00 120.41 11.23
852 19.9432 110.00 119.94 10.49
853 19.9550 123.00 119.49 11.09
854 19.9668 104.00 119.04 10.20
855 19.9786 94.00 118.61 9.70
856 19.9904 113.00 118.19 10.63
857 20.0022 118.00 117.78 10.86
858 20.0140 121.00 117.38 11.00
859 20.0258 105.00 117.00 10.25
860 20.0376 115.00 116.62 10.72
861 20.0494 109.00 116.25 10.44
862 20.0613 115.00 115.89 10.72
863 20.0731 104.00 116.31 10.20
864 20.0849 103.00 115.98 10.15
865 20.0967 90.00 115.65 9.49
866 20.1085 102.00 115.33 10.10
867 20.1204 117.00 115.02 10.82
868 20.1322 110.00 114.72 10.49
869 20.1440 104.00 114.43 10.20
870 20.1558 112.00 114.14 10.58
871 20.1676 101.00 113.86 10.05
872 20.1794 116.00 113.58 10.77
873 20.1913 101.00 113.31 10.05
874 20.2030 117.00 113.05 10.82
875 20.2148 111.00 112.79 10.54
876 20.2266 118.00 112.54 10.86
877 20.2384 113.00 112.29 10.63
878 20.2503 93.00 112.04 9.64
879 20.2621 93.00 111.81 9.64
880 20.2739 99.00 111.57 9.95
881 20.2857 113.00 111.35 10.63
882 20.2975 99.00 111.12 9.95
883 20.3094 106.00 110.90 10.30
884 20.3212 107.00 110.69 10.34
885 20.3330 108.00 110.48 10.39
886 20.3448 110.00 110.27 10.49
887 20.3566 92.00 110.07 9.59
888 20.3685 82.00 109.87 9.06
889 20.3803 101.00 109.68 10.05
890 20.3920 94.00 109.49 9.70
891 20.4038 108.00 109.30 10.39
892 20.4156 95.00 109.11 9.75
893 20.4274 102.00 108.93 10.10
894 20.4393 112.00 108.75 10.58
895 20.4511 105.00 108.58 10.25
896 20.4629 102.00 108.41 10.10
897 20.4747 135.00 108.24 11.62
898 20.4865 100.00 108.08 10.00
899 20.4984 98.00 107.92 9.90
900 20.5102 98.00 107.76 9.90
901 20.5220 109.00 107.60 10.44
902 20.5338 92.00 107.45 9.59
903 20.5456 87.00 107.30 9.33
904 20.5575 94.00 107.15 9.70
905 20.5693 113.00 107.01 10.63
906 20.5811 90.00 106.87 9.49
907 20.5928 86.00 106.73 9.27
908 20.6046 95.00 106.59 9.75
909 20.6165 118.00 106.46 10.86
910 20.6283 115.00 106.33 10.72
911 20.6401 106.00 106.20 10.30
912 20.6519 102.00 106.07 10.10
913 20.6637 100.00 105.95 10.00
914 20.6755 101.00 105.83 10.05
915 20.6874 95.00 105.71 9.75
916 20.6992 102.00 105.60 10.10
917 20.7110 96.00 105.49 9.80
918 20.7228 100.00 105.38 10.00
919 20.7346 101.00 105.27 10.05
920 20.7465 102.00 105.17 10.10
921 20.7583 89.00 105.07 9.43
922 20.7701 90.00 104.97 9.49
923 20.7818 107.00 104.87 10.34
924 20.7936 101.00 104.78 10.05
925 20.8055 116.00 104.69 10.77
926 20.8173 78.00 104.60 8.83
927 20.8291 117.00 104.27 10.82
928 20.8409 81.00 104.19 9.00
929 20.8527 123.00 104.11 11.09
930 20.8646 109.00 104.04 10.44
931 20.8764 98.00 103.97 9.90
932 20.8882 112.00 103.90 10.58
933 20.9000 93.00 103.84 9.64
934 20.9118 97.00 103.78 9.85
935 20.9236 93.00 103.72 9.64
936 20.9355 73.00 103.67 8.54
937 20.9473 72.00 103.62 8.49
938 20.9591 106.00 103.57 10.30
939 20.9708 113.00 103.53 10.63
940 20.9826 90.00 103.49 9.49
941 20.9945 115.00 103.46 10.72
942 21.0063 113.00 103.43 10.63
943 21.0181 111.00 103.54 10.54
944 21.0299 89.00 103.53 9.43
945 21.0417 102.00 103.51 10.10
946 21.0536 94.00 103.50 9.70
947 21.0654 109.00 103.50 10.44
948 21.0772 122.00 103.51 11.05
949 21.0890 118.00 103.52 10.86
950 21.1008 91.00 103.53 9.54
951 21.1127 101.00 103.56 10.05
952 21.1245 85.00 103.59 9.22
953 21.1363 91.00 103.62 9.54
954 21.1481 104.00 103.67 10.20
955 21.1598 100.00 103.72 10.00
956 21.1716 110.00 103.79 10.49
957 21.1835 112.00 103.86 10.58
958 21.1953 95.00 103.94 9.75
959 21.2071 98.00 104.04 9.90
960 21.2189 102.00 104.14 10.10
961 21.2307 103.00 104.26 10.15
962 21.2426 103.00 104.39 10.15
963 21.2544 99.00 104.54 9.95
964 21.2662 105.00 104.69 10.25
965 21.2780 95.00 104.87 9.75
966 21.2898 92.00 105.07 9.59
967 21.3017 98.00 105.28 9.90
968 21.3135 106.00 105.52 10.30
969 21.3253 121.00 105.77 11.00
970 21.3371 90.00 106.06 9.49
971 21.3488 105.00 106.36 10.25
972 21.3606 105.00 106.70 10.25
973 21.3725 112.00 107.08 10.58
974 21.3843 119.00 107.49 10.91
975 21.3961 118.00 107.94 10.86
976 21.4079 97.00 108.43 9.85
977 21.4197 104.00 108.97 10.20
978 21.4316 100.00 109.58 10.00
979 21.4434 101.00 110.24 10.05
980 21.4552 121.00 110.97 11.00
981 21.4670 117.00 111.79 10.82
982 21.4788 111.00 112.70 10.54
983 21.4907 102.00 113.73 10.10
984 21.5025 113.00 114.89 10.63
985 21.5143 128.00 116.20 11.31
986 21.5261 120.00 115.57 10.95
987 21.5378 136.00 117.34 11.66
988 21.5497 131.00 119.45 11.45
989 21.5615 130.00 121.93 11.40
990 21.5733 140.00 124.90 11.83
991 21.5851 129.00 128.48 11.36
992 21.5969 120.00 132.81 10.95
993 21.6087 140.00 137.99 11.83
994 21.6206 111.00 144.18 10.54
995 21.6324 151.00 151.27 12.29
996 21.6442 155.00 159.19 12.45
997 21.6560 185.00 167.68 13.60
998 21.6678 192.00 176.34 13.86
999 21.6797 171.00 184.90 13.08
1000 21.6915 201.00 193.29 14.18
1001 21.7033 201.00 202.24 14.18
1002 21.7150 188.00 212.68 13.71
1003 21.7268 207.00 225.43 14.39
1004 21.7387 246.00 241.11 15.68
1005 21.7505 286.00 259.58 16.91
1006 21.7623 259.00 280.89 16.09
1007 21.7741 282.00 304.75 16.79
1008 21.7859 314.00 330.68 17.72
1009 21.7978 363.00 358.24 19.05
1010 21.8096 354.00 385.98 18.81
1011 21.8214 408.00 412.89 20.20
1012 21.8332 427.00 437.46 20.66
1013 21.8450 483.00 458.00 21.98
1014 21.8568 460.00 472.79 21.45
1015 21.8687 499.00 480.43 22.34
1016 21.8805 453.00 479.91 21.28
1017 21.8922 460.00 471.28 21.45
1018 21.9040 447.00 455.33 21.14
1019 21.9158 412.00 433.51 20.30
1020 21.9277 426.00 407.38 20.64
1021 21.9395 390.00 379.13 19.75
1022 21.9513 348.00 350.12 18.65
1023 21.9631 296.00 321.53 17.20
1024 21.9749 310.00 294.23 17.61
1025 21.9868 297.00 268.60 17.23
1026 21.9986 252.00 245.42 15.87
1027 22.0104 238.00 224.65 15.43
1028 22.0222 232.00 206.34 15.23
1029 22.0340 214.00 190.40 14.63
1030 22.0459 190.00 176.61 13.78
1031 22.0577 163.00 164.99 12.77
1032 22.0695 171.00 155.21 13.08
1033 22.0812 174.00 147.04 13.19
1034 22.0930 147.00 140.23 12.12
1035 22.1048 165.00 134.58 12.85
1036 22.1167 143.00 129.84 11.96
1037 22.1285 156.00 125.94 12.49
1038 22.1403 148.00 122.66 12.17
1039 22.1521 153.00 119.90 12.37
1040 22.1639 135.00 117.54 11.62
1041 22.1758 144.00 115.50 12.00
1042 22.1876 129.00 113.74 11.36
1043 22.1994 134.00 112.19 11.58
1044 22.2112 118.00 110.83 10.86
1045 22.2230 116.00 109.61 10.77
1046 22.2349 125.00 108.52 11.18
1047 22.2467 104.00 107.54 10.20
1048 22.2584 118.00 106.66 10.86
1049 22.2702 117.00 105.87 10.82
1050 22.2820 126.00 105.16 11.23
1051 22.2939 116.00 104.51 10.77
1052 22.3057 102.00 103.94 10.10
1053 22.3175 107.00 103.43 10.34
1054 22.3293 112.00 102.99 10.58
1055 22.3411 120.00 102.60 10.95
1056 22.3529 113.00 102.27 10.63
1057 22.3648 106.00 101.99 10.30
1058 22.3766 113.00 101.78 10.63
1059 22.3884 101.00 101.62 10.05
1060 22.4002 96.00 101.53 9.80
1061 22.4120 110.00 101.51 10.49
1062 22.4239 116.00 101.56 10.77
1063 22.4356 96.00 101.69 9.80
1064 22.4474 107.00 101.92 10.34
1065 22.4592 97.00 102.25 9.85
1066 22.4710 117.00 102.70 10.82
1067 22.4829 126.00 103.31 11.23
1068 22.4947 87.00 104.09 9.33
1069 22.5065 128.00 105.10 11.31
1070 22.5183 108.00 106.38 10.39
1071 22.5301 120.00 108.04 10.95
1072 22.5419 103.00 110.16 10.15
1073 22.5538 140.00 112.94 11.83
1074 22.5656 106.00 116.50 10.30
1075 22.5774 113.00 121.10 10.63
1076 22.5892 121.00 126.99 11.00
1077 22.6009 137.00 134.42 11.70
1078 22.6128 130.00 143.68 11.40
1079 22.6246 163.00 154.61 12.77
1080 22.6364 185.00 166.92 13.60
1081 22.6482 158.00 179.74 12.57
1082 22.6600 194.00 191.49 13.93
1083 22.6719 231.00 200.00 15.20
1084 22.6837 194.00 202.82 13.93
1085 22.6955 186.00 198.80 13.64
1086 22.7073 204.00 188.86 14.28
1087 22.7191 157.00 175.57 12.53
1088 22.7310 149.00 161.50 12.21
1089 22.7428 150.00 148.67 12.25
1090 22.7546 128.00 137.71 11.31
1091 22.7664 149.00 128.73 12.21
1092 22.7781 118.00 121.54 10.86
1093 22.7899 127.00 115.84 11.27
1094 22.8018 109.00 111.32 10.44
1095 22.8136 102.00 107.78 10.10
1096 22.8254 112.00 104.96 10.58
1097 22.8372 110.00 102.69 10.49
1098 22.8490 105.00 100.84 10.25
1099 22.8609 99.00 99.28 9.95
1100 22.8727 98.00 97.99 9.90
1101 22.8845 101.00 96.88 10.05
1102 22.8963 104.00 95.92 10.20
1103 22.9081 115.00 95.09 10.72
1104 22.9200 103.00 94.35 10.15
1105 22.9318 100.00 93.70 10.00
1106 22.9436 94.00 93.11 9.70
1107 22.9553 102.00 92.59 10.10
1108 22.9671 111.00 92.12 10.54
1109 22.9790 87.00 91.68 9.33
1110 22.9908 100.00 91.29 10.00
1111 23.0026 109.00 90.93 10.44
1112 23.0144 99.00 90.60 9.95
1113 23.0262 89.00 90.29 9.43
1114 23.0380 105.00 90.00 10.25
1115 23.0499 113.00 89.73 10.63
1116 23.0617 103.00 89.48 10.15
1117 23.0735 80.00 89.25 8.94
1118 23.0853 114.00 89.02 10.68
1119 23.0971 104.00 88.81 10.20
1120 23.1090 93.00 88.61 9.64
1121 23.1208 101.00 88.42 10.05
1122 23.1325 105.00 88.24 10.25
1123 23.1443 96.00 88.07 9.80
1124 23.1561 103.00 87.90 10.15
1125 23.1680 106.00 87.74 10.30
1126 23.1798 103.00 87.59 10.15
1127 23.1916 84.00 87.45 9.17
1128 23.2034 92.00 87.30 9.59
1129 23.2152 83.00 87.17 9.11
1130 23.2271 83.00 87.03 9.11
1131 23.2389 104.00 86.91 10.20
1132 23.2507 102.00 86.78 10.10
1133 23.2625 93.00 86.66 9.64
1134 23.2743 82.00 86.54 9.06
1135 23.2861 81.00 86.43 9.00
1136 23.2979 93.00 86.32 9.64
1137 23.3097 84.00 86.18 9.17
1138 23.3215 99.00 87.46 9.95
1139 23.3333 110.00 87.38 10.49
1140 23.3451 97.00 87.29 9.85
1141 23.3570 103.00 87.21 10.15
1142 23.3688 105.00 87.12 10.25
1143 23.3806 96.00 87.05 9.80
1144 23.3924 90.00 86.97 9.49
1145 23.4042 100.00 86.89 10.00
1146 23.4161 94.00 86.82 9.70
1147 23.4279 92.00 86.75 9.59
1148 23.4397 98.00 86.68 9.90
1149 23.4515 85.00 86.61 9.22
1150 23.4632 112.00 86.54 10.58
1151 23.4751 87.00 86.48 9.33
1152 23.4869 86.00 86.42 9.27
1153 23.4987 90.00 86.35 9.49
1154 23.5105 94.00 86.29 9.70
1155 23.5223 76.00 86.23 8.72
1156 23.5341 97.00 86.18 9.85
1157 23.5460 104.00 86.12 10.20
1158 23.5578 116.00 86.06 10.77
1159 23.5696 87.00 86.01 9.33
1160 23.5814 77.00 85.96 8.77
1161 23.5932 95.00 85.91 9.75
1162 23.6051 87.00 85.86 9.33
1163 23.6169 101.00 85.81 10.05
1164 23.6287 87.00 85.76 9.33
1165 23.6404 86.00 85.71 9.27
1166 23.6522 111.00 85.67 10.54
1167 23.6641 80.00 85.62 8.94
1168 23.6759 82.00 85.58 9.06
1169 23.6877 79.00 85.53 8.89
1170 23.6995 103.00 85.49 10.15
1171 23.7113 83.00 85.45 9.11
1172 23.7231 95.00 85.41 9.75
1173 23.7350 66.00 85.38 8.12
1174 23.7468 84.00 85.88 9.17
1175 23.7586 101.00 85.85 10.05
1176 23.7704 87.00 85.82 9.33
1177 23.7822 90.00 85.79 9.49
1178 23.7941 104.00 85.77 10.20
1179 23.8058 102.00 85.74 10.10
1180 23.8176 94.00 85.72 9.70
1181 23.8294 85.00 85.70 9.22
1182 23.8412 96.00 85.68 9.80
1183 23.8531 73.00 85.66 8.54
1184 23.8649 86.00 85.64 9.27
1185 23.8767 92.00 85.62 9.59
1186 23.8885 98.00 85.61 9.90
1187 23.9003 69.00 85.60 8.31
1188 23.9122 102.00 85.58 10.10
1189 23.9240 104.00 85.57 10.20
1190 23.9358 93.00 85.56 9.64
1191 23.9476 102.00 85.55 10.10
1192 23.9594 81.00 85.55 9.00
1193 23.9711 100.00 85.54 10.00
1194 23.9830 96.00 85.54 9.80
1195 23.9948 87.00 85.54 9.33
1196 24.0066 88.00 85.54 9.38
1197 24.0184 81.00 85.54 9.00
1198 24.0302 93.00 85.54 9.64
1199 24.0421 83.00 85.55 9.11
1200 24.0539 87.00 85.55 9.33
1201 24.0657 79.00 85.56 8.89
1202 24.0775 98.00 85.57 9.90
1203 24.0893 91.00 85.58 9.54
1204 24.1012 79.00 85.60 8.89
1205 24.1130 97.00 85.61 9.85
1206 24.1248 103.00 85.63 10.15
1207 24.1365 89.00 89.33 9.43
1208 24.1483 85.00 89.39 9.22
1209 24.1602 87.00 89.45 9.33
1210 24.1720 94.00 89.52 9.70
1211 24.1838 83.00 89.58 9.11
1212 24.1956 106.00 89.65 10.30
1213 24.2074 94.00 89.73 9.70
1214 24.2192 98.00 89.80 9.90
1215 24.2311 107.00 89.89 10.34
1216 24.2429 92.00 89.97 9.59
1217 24.2547 96.00 90.06 9.80
1218 24.2665 83.00 90.15 9.11
1219 24.2783 106.00 90.24 10.30
1220 24.2901 81.00 90.34 9.00
1221 24.3019 84.00 90.44 9.17
1222 24.3137 80.00 90.55 8.94
1223 24.3255 80.00 90.66 8.94
1224 24.3373 102.00 90.78 10.10
1225 24.3492 99.00 90.90 9.95
1226 24.3610 93.00 91.02 9.64
1227 24.3728 89.00 91.02 9.43
1228 24.3846 109.00 91.16 10.44
1229 24.3964 96.00 91.30 9.80
1230 24.4083 111.00 91.45 10.54
1231 24.4201 100.00 91.60 10.00
1232 24.4319 100.00 91.76 10.00
1233 24.4437 111.00 91.93 10.54
1234 24.4554 87.00 92.10 9.33
1235 24.4672 93.00 92.28 9.64
1236 24.4791 80.00 92.47 8.94
1237 24.4909 83.00 92.66 9.11
1238 24.5027 84.00 92.86 9.17
1239 24.5145 88.00 93.07 9.38
1240 24.5263 109.00 93.29 10.44
1241 24.5382 91.00 93.51 9.54
1242 24.5500 111.00 93.75 10.54
1243 24.5618 111.00 93.99 10.54
1244 24.5736 92.00 94.25 9.59
1245 24.5854 91.00 94.51 9.54
1246 24.5973 105.00 94.79 10.25
1247 24.6091 85.00 95.08 9.22
1248 24.6208 108.00 95.37 10.39
1249 24.6326 86.00 95.69 9.27
1250 24.6444 105.00 96.01 10.25
1251 24.6563 102.00 96.35 10.10
1252 24.6681 97.00 96.71 9.85
1253 24.6799 94.00 97.07 9.70
1254 24.6917 97.00 97.46 9.85
1255 24.7035 99.00 97.86 9.95
1256 24.7153 107.00 98.28 10.34
1257 24.7272 96.00 98.72 9.80
1258 24.7390 104.00 99.18 10.20
1259 24.7508 97.00 99.67 9.85
1260 24.7626 91.00 99.88 9.54
1261 24.7743 111.00 100.42 10.54
1262 24.7862 126.00 100.98 11.23
1263 24.7980 101.00 101.56 10.05
1264 24.8098 116.00 102.17 10.77
1265 24.8216 94.00 103.00 9.70
1266 24.8334 98.00 103.68 9.90
1267 24.8453 112.00 104.40 10.58
1268 24.8571 86.00 105.15 9.27
1269 24.8689 110.00 105.95 10.49
1270 24.8807 102.00 106.78 10.10
1271 24.8925 114.00 107.67 10.68
1272 24.9043 93.00 108.60 9.64
1273 24.9162 114.00 109.60 10.68
1274 24.9280 122.00 110.65 11.05
1275 24.9397 98.00 111.76 9.90
1276 24.9515 97.00 112.94 9.85
1277 24.9633 115.00 114.20 10.72
1278 24.9752 106.00 115.55 10.30
1279 24.9870 104.00 116.97 10.20
1280 24.9988 109.00 118.50 10.44
1281 25.0106 93.00 120.13 9.64
1282 25.0224 113.00 121.87 10.63
1283 25.0343 104.00 123.76 10.20
1284 25.0461 131.00 125.77 11.45
1285 25.0579 124.00 127.93 11.14
1286 25.0697 104.00 130.27 10.20
1287 25.0815 132.00 132.79 11.49
1288 25.0933 120.00 135.55 10.95
1289 25.1051 138.00 138.52 11.75
1290 25.1169 120.00 141.76 10.95
1291 25.1287 164.00 145.29 12.81
1292 25.1405 134.00 149.15 11.58
1293 25.1523 145.00 153.39 12.04
1294 25.1642 156.00 158.09 12.49
1295 25.1760 147.00 163.25 12.12
1296 25.1878 151.00 168.97 12.29
1297 25.1996 176.00 175.34 13.27
1298 25.2114 166.00 182.46 12.88
1299 25.2233 176.00 190.55 13.27
1300 25.2351 182.00 199.65 13.49
1301 25.2469 183.00 210.03 13.53
1302 25.2586 197.00 221.99 14.04
1303 25.2704 246.00 235.90 15.68
1304 25.2823 254.00 252.39 15.94
1305 25.2941 272.00 271.82 16.49
1306 25.3059 299.00 295.10 17.29
1307 25.3177 347.00 323.21 18.63
1308 25.3295 360.00 357.30 18.97
1309 25.3414 390.00 399.13 19.75
1310 25.3532 433.00 449.48 20.81
1311 25.3650 490.00 510.22 22.14
1312 25.3768 559.00 582.86 23.64
1313 25.3886 684.00 668.59 26.15
1314 25.4004 746.00 767.89 27.31
1315 25.4122 834.00 881.07 28.88
1316 25.4240 1009.00 1003.43 31.76
1317 25.4358 1159.00 1130.10 34.04
1318 25.4476 1290.00 1251.65 35.92
1319 25.4594 1377.00 1355.21 37.11
1320 25.4713 1432.00 1426.80 37.84
1321 25.4831 1540.00 1453.39 39.24
1322 25.4949 1471.00 1431.65 38.35
1323 25.5067 1350.00 1367.60 36.74
1324 25.5185 1317.00 1275.32 36.29
1325 25.5304 1192.00 1170.35 34.53
1326 25.5422 1104.00 1068.66 33.23
1327 25.5540 1045.00 978.99 32.33
1328 25.5657 965.00 906.72 31.06
1329 25.5775 907.00 853.86 30.12
1330 25.5894 826.00 819.66 28.74
1331 25.6012 855.00 801.76 29.24
1332 25.6130 834.00 794.40 28.88
1333 25.6248 816.00 789.84 28.57
1334 25.6366 822.00 779.09 28.67
1335 25.6484 764.00 754.44 27.64
1336 25.6603 706.00 712.37 26.57
1337 25.6721 590.00 656.65 24.29
1338 25.6839 606.00 593.93 24.62
1339 25.6957 541.00 531.36 23.26
1340 25.7075 498.00 473.77 22.32
1341 25.7193 417.00 422.97 20.42
1342 25.7311 352.00 380.26 18.76
1343 25.7429 345.00 344.67 18.57
1344 25.7547 307.00 315.33 17.52
1345 25.7665 261.00 291.27 16.16
1346 25.7784 271.00 271.42 16.46
1347 25.7902 249.00 255.65 15.78
1348 25.8020 209.00 242.40 14.46
1349 25.8138 200.00 231.47 14.14
1350 25.8256 178.00 222.40 13.34
1351 25.8375 226.00 214.80 15.03
1352 25.8493 180.00 208.51 13.42
1353 25.8611 192.00 203.27 13.86
1354 25.8728 196.00 198.91 14.00
1355 25.8846 156.00 195.32 12.49
1356 25.8964 180.00 192.39 13.42
1357 25.9083 184.00 190.04 13.56
1358 25.9201 213.00 188.25 14.59
1359 25.9319 179.00 186.94 13.38
1360 25.9437 191.00 186.08 13.82
1361 25.9555 171.00 185.65 13.08
1362 25.9674 167.00 185.62 12.92
1363 25.9792 149.00 185.97 12.21
1364 25.9910 167.00 186.70 12.92
1365 26.0028 192.00 187.80 13.86
1366 26.0146 175.00 189.27 13.23
1367 26.0264 185.00 191.14 13.60
1368 26.0382 201.00 193.37 14.18
1369 26.0500 174.00 196.00 13.19
1370 26.0618 205.00 199.05 14.32
1371 26.0736 191.00 202.53 13.82
1372 26.0854 195.00 206.49 13.96
1373 26.0973 195.00 210.99 13.96
1374 26.1091 219.00 216.01 14.80
1375 26.1209 206.00 221.64 14.35
1376 26.1327 201.00 227.95 14.18
1377 26.1445 203.00 235.03 14.25
1378 26.1564 227.00 243.04 15.07
1379 26.1682 278.00 251.99 16.67
1380 26.1799 242.00 262.09 15.56
1381 26.1917 266.00 273.51 16.31
1382 26.2035 267.00 286.49 16.34
1383 26.2154 312.00 301.42 17.66
1384 26.2272 337.00 318.37 18.36
1385 26.2390 334.00 337.86 18.28
1386 26.2508 382.00 360.33 19.54
1387 26.2626 390.00 386.34 19.75
1388 26.2745 433.00 416.82 20.81
1389 26.2863 449.00 452.04 21.19
1390 26.2981 526.00 493.14 22.93
1391 26.3099 562.00 541.21 23.71
1392 26.3217 613.00 597.47 24.76
1393 26.3334 714.00 663.30 26.72
1394 26.3453 773.00 740.94 27.80
1395 26.3571 885.00 830.73 29.75
1396 26.3689 939.00 934.93 30.64
1397 26.3807 1112.00 1055.17 33.35
1398 26.3925 1193.00 1192.82 34.54
1399 26.4044 1395.00 1352.00 37.35
1400 26.4162 1530.00 1526.69 39.12
1401 26.4280 1762.00 1718.89 41.98
1402 26.4398 1939.00 1925.57 44.03
1403 26.4516 2143.00 2141.17 46.29
1404 26.4635 2364.00 2358.16 48.62
1405 26.4753 2531.00 2559.48 50.31
1406 26.4870 2667.00 2730.14 51.64
1407 26.4988 2826.00 2852.29 53.16
1408 26.5106 2865.00 2911.22 53.53
1409 26.5225 2757.00 2899.91 52.51
1410 26.5343 2755.00 2822.73 52.49
1411 26.5461 2602.00 2693.34 51.01
1412 26.5579 2487.00 2529.76 49.87
1413 26.5697 2320.00 2349.26 48.17
1414 26.5815 2152.00 2165.50 46.39
1415 26.5934 1955.00 1985.90 44.22
1416 26.6052 1823.00 1818.48 42.70
1417 26.6170 1700.00 1663.62 41.23
1418 26.6287 1560.00 1521.27 39.50
1419 26.6405 1396.00 1390.23 37.36
1420 26.6524 1219.00 1268.04 34.91
1421 26.6642 1152.00 1155.47 33.94
1422 26.6760 1066.00 1050.72 32.65
1423 26.6878 934.00 953.51 30.56
1424 26.6996 915.00 863.91 30.25
1425 26.7115 818.00 781.37 28.60
1426 26.7233 744.00 707.28 27.28
1427 26.7351 651.00 640.75 25.51
1428 26.7469 545.00 581.48 23.35
1429 26.7587 488.00 528.97 22.09
1430 26.7706 473.00 482.36 21.75
1431 26.7823 444.00 441.85 21.07
1432 26.7941 441.00 406.46 21.00
1433 26.8059 374.00 375.64 19.34
1434 26.8177 316.00 348.85 17.78
1435 26.8295 344.00 325.59 18.55
1436 26.8414 306.00 305.23 17.49
1437 26.8532 290.00 287.71 17.03
1438 26.8650 284.00 272.44 16.85
1439 26.8768 277.00 259.11 16.64
1440 26.8886 267.00 248.15 16.34
1441 26.9005 273.00 237.79 16.52
1442 26.9123 220.00 228.71 14.83
1443 26.9240 205.00 220.65 14.32
1444 26.9358 218.00 213.48 14.76
1445 26.9476 212.00 207.08 14.56
1446 26.9595 178.00 201.32 13.34
1447 26.9713 190.00 196.22 13.78
1448 26.9831 194.00 191.69 13.93
1449 26.9949 152.00 187.68 12.33
1450 27.0067 173.00 184.17 13.15
1451 27.0186 188.00 181.13 13.71
1452 27.0304 163.00 178.61 12.77
1453 27.0422 188.00 176.61 13.71
1454 27.0540 182.00 175.14 13.49
1455 27.0658 170.00 174.28 13.04
1456 27.0775 164.00 174.07 12.81
1457 27.0894 167.00 174.62 12.92
1458 27.1012 170.00 176.03 13.04
1459 27.1130 184.00 178.41 13.56
1460 27.1248 170.00 181.90 13.04
1461 27.1366 180.00 186.63 13.42
1462 27.1485 185.00 192.79 13.60
1463 27.1603 193.00 200.39 13.89
1464 27.1721 203.00 209.53 14.25
1465 27.1839 231.00 220.19 15.20
1466 27.1957 213.00 232.21 14.59
1467 27.2076 221.00 245.34 14.87
1468 27.2193 249.00 258.74 15.78
1469 27.2311 286.00 271.54 16.91
1470 27.2429 292.00 282.45 17.09
1471 27.2547 297.00 290.05 17.23
1472 27.2665 301.00 293.05 17.35
1473 27.2784 303.00 290.70 17.41
1474 27.2902 273.00 283.16 16.52
1475 27.3020 290.00 271.39 17.03
1476 27.3138 262.00 256.82 16.19
1477 27.3256 234.00 240.93 15.30
1478 27.3375 242.00 224.77 15.56
1479 27.3493 210.00 209.47 14.49
1480 27.3611 200.00 195.37 14.14
1481 27.3728 200.00 182.71 14.14
1482 27.3846 188.00 171.54 13.71
1483 27.3965 184.00 161.75 13.56
1484 27.4083 165.00 153.41 12.85
1485 27.4201 157.00 146.28 12.53
1486 27.4319 170.00 140.21 13.04
1487 27.4437 153.00 135.07 12.37
1488 27.4556 160.00 130.68 12.65
1489 27.4674 134.00 126.96 11.58
1490 27.4792 137.00 123.79 11.70
1491 27.4910 117.00 121.04 10.82
1492 27.5028 122.00 118.65 11.05
1493 27.5145 133.00 116.56 11.53
1494 27.5264 146.00 114.68 12.08
1495 27.5382 127.00 113.02 11.27
1496 27.5500 144.00 111.52 12.00
1497 27.5618 131.00 110.16 11.45
1498 27.5736 118.00 108.40 10.86
1499 27.5855 135.00 107.26 11.62
1500 27.5973 141.00 106.22 11.87
1501 27.6091 122.00 105.26 11.05
1502 27.6209 133.00 104.37 11.53
1503 27.6327 125.00 103.54 11.18
1504 27.6446 106.00 102.77 10.30
1505 27.6563 121.00 102.06 11.00
1506 27.6681 130.00 101.39 11.40
1507 27.6799 152.00 99.41 12.33
1508 27.6917 120.00 98.84 10.95
1509 27.7036 127.00 98.30 11.27
1510 27.7154 136.00 97.80 11.66
1511 27.7272 136.00 97.34 11.66
1512 27.7390 130.00 96.90 11.40
1513 27.7508 136.00 96.49 11.66
1514 27.7626 150.00 96.10 12.25
1515 27.7745 168.00 95.74 12.96
1516 27.7863 123.00 95.40 11.09
1517 27.7980 167.00 95.08 12.92
1518 27.8098 151.00 94.78 12.29
1519 27.8216 140.00 94.51 11.83
1520 27.8335 146.00 94.42 12.08
1521 27.8453 152.00 94.18 12.33
1522 27.8571 160.00 93.96 12.65
1523 27.8689 123.00 93.75 11.09
1524 27.8807 137.00 93.56 11.70
1525 27.8926 124.00 93.38 11.14
1526 27.9044 128.00 93.22 11.31
1527 27.9162 124.00 93.07 11.14
1528 27.9280 134.00 92.94 11.58
1529 27.9397 122.00 92.82 11.05
1530 27.9516 131.00 92.71 11.45
1531 27.9634 130.00 92.61 11.40
1532 27.9752 132.00 92.53 11.49
1533 27.9870 119.00 92.46 10.91
1534 27.9988 140.00 92.41 11.83
1535 28.0106 117.00 92.36 10.82
1536 28.0225 117.00 92.33 10.82
1537 28.0343 132.00 92.31 11.49
1538 28.0461 120.00 92.30 10.95
1539 28.0579 127.00 92.31 11.27
1540 28.0697 122.00 92.32 11.05
1541 28.0815 116.00 92.35 10.77
1542 28.0933 105.00 92.39 10.25
1543 28.1051 105.00 92.45 10.25
1544 28.1169 105.00 92.51 10.25
1545 28.1287 114.00 92.59 10.68
1546 28.1406 126.00 92.69 11.23
1547 28.1524 99.00 92.79 9.95
1548 28.1642 110.00 92.91 10.49
1549 28.1760 132.00 93.04 11.49
1550 28.1878 117.00 93.19 10.82
1551 28.1997 98.00 93.35 9.90
1552 28.2115 117.00 93.53 10.82
1553 28.2232 109.00 93.72 10.44
1554 28.2350 95.00 93.93 9.75
1555 28.2468 103.00 94.15 10.15
1556 28.2586 121.00 94.40 11.00
1557 28.2705 105.00 94.66 10.25
1558 28.2823 108.00 94.94 10.39
1559 28.2941 100.00 95.24 10.00
1560 28.3059 127.00 95.56 11.27
1561 28.3177 108.00 95.90 10.39
1562 28.3296 121.00 96.26 11.00
1563 28.3414 121.00 96.65 11.00
1564 28.3532 108.00 97.06 10.39
1565 28.3649 120.00 97.50 10.95
1566 28.3767 114.00 97.97 10.68
1567 28.3886 91.00 98.47 9.54
1568 28.4004 100.00 99.00 10.00
1569 28.4122 115.00 99.56 10.72
1570 28.4240 139.00 100.16 11.79
1571 28.4358 120.00 101.13 10.95
1572 28.4476 109.00 101.81 10.44
1573 28.4595 92.00 102.54 9.59
1574 28.4713 114.00 103.32 10.68
1575 28.4831 118.00 104.14 10.86
1576 28.4949 138.00 105.03 11.75
1577 28.5066 118.00 105.97 10.86
1578 28.5185 114.00 106.99 10.68
1579 28.5303 113.00 108.07 10.63
1580 28.5421 105.00 109.23 10.25
1581 28.5539 128.00 110.48 11.31
1582 28.5657 120.00 111.83 10.95
1583 28.5776 115.00 113.30 10.72
1584 28.5894 122.00 114.88 11.05
1585 28.6012 108.00 116.61 10.39
1586 28.6130 122.00 118.49 11.05
1587 28.6248 125.00 120.57 11.18
1588 28.6367 133.00 122.89 11.53
1589 28.6484 122.00 125.45 11.05
1590 28.6602 127.00 128.32 11.27
1591 28.6720 136.00 131.56 11.66
1592 28.6838 153.00 135.25 12.37
1593 28.6956 148.00 139.47 12.17
1594 28.7075 156.00 144.46 12.49
1595 28.7193 151.00 150.07 12.29
1596 28.7311 151.00 156.57 12.29
1597 28.7429 178.00 164.10 13.34
1598 28.7547 185.00 172.84 13.60
1599 28.7666 162.00 183.02 12.73
1600 28.7784 208.00 194.65 14.42
1601 28.7901 209.00 207.98 14.46
1602 28.8019 227.00 223.14 15.07
1603 28.8137 233.00 240.26 15.26
1604 28.8256 230.00 259.59 15.17
1605 28.8374 272.00 280.81 16.49
1606 28.8492 313.00 304.03 17.69
1607 28.8610 326.00 329.05 18.06
1608 28.8728 306.00 355.58 17.49
1609 28.8847 399.00 383.35 19.98
1610 28.8965 401.00 411.14 20.02
1611 28.9083 446.00 436.41 21.12
1612 28.9200 480.00 461.49 21.91
1613 28.9318 480.00 483.13 21.91
1614 28.9436 483.00 499.82 21.98
1615 28.9555 522.00 510.33 22.85
1616 28.9673 490.00 513.61 22.14
1617 28.9791 517.00 509.57 22.74
1618 28.9909 501.00 498.72 22.38
1619 29.0027 478.00 482.17 21.86
1620 29.0146 484.00 461.19 22.00
1621 29.0264 416.00 437.69 20.40
1622 29.0382 387.00 412.91 19.67
1623 29.0500 342.00 388.04 18.49
1624 29.0617 326.00 363.95 18.06
1625 29.0736 335.00 341.09 18.30
1626 29.0854 317.00 320.27 17.80
1627 29.0972 308.00 301.55 17.55
1628 29.1090 277.00 285.07 16.64
1629 29.1208 277.00 270.89 16.64
1630 29.1327 239.00 258.89 15.46
1631 29.1445 267.00 249.25 16.34
1632 29.1563 240.00 241.76 15.49
1633 29.1681 263.00 236.35 16.22
1634 29.1799 259.00 232.93 16.09
1635 29.1917 279.00 231.41 16.70
1636 29.2035 273.00 231.75 16.52
1637 29.2153 289.00 233.91 17.00
1638 29.2271 270.00 237.85 16.43
1639 29.2389 270.00 243.58 16.43
1640 29.2507 285.00 251.13 16.88
1641 29.2626 251.00 260.63 15.84
1642 29.2744 280.00 271.97 16.73
1643 29.2862 276.00 285.27 16.61
1644 29.2980 331.00 300.60 18.19
1645 29.3098 309.00 317.98 17.58
1646 29.3217 386.00 337.57 19.65
1647 29.3334 367.00 358.94 19.16
1648 29.3452 432.00 382.09 20.78
1649 29.3570 388.00 406.71 19.70
1650 29.3688 454.00 432.41 21.31
1651 29.3807 520.00 458.96 22.80
1652 29.3925 513.00 485.48 22.65
1653 29.4043 523.00 511.97 22.87
1654 29.4161 525.00 538.53 22.91
1655 29.4279 631.00 565.59 25.12
1656 29.4397 590.00 593.94 24.29
1657 29.4516 608.00 624.80 24.66
1658 29.4634 605.00 658.54 24.60
1659 29.4751 657.00 696.13 25.63
1660 29.4869 699.00 737.92 26.44
1661 29.4987 757.00 783.85 27.51
1662 29.5106 891.00 833.81 29.85
1663 29.5224 839.00 885.84 28.97
1664 29.5342 921.00 938.64 30.35
1665 29.5460 1031.00 989.58 32.11
1666 29.5578 1011.00 1036.29 31.80
1667 29.5697 1071.00 1075.56 32.73
1668 29.5815 1134.00 1103.47 33.67
1669 29.5933 1147.00 1117.79 33.87
1670 29.6050 1161.00 1117.00 34.07
1671 29.6168 1136.00 1101.07 33.70
1672 29.6286 1088.00 1071.43 32.98
1673 29.6405 1075.00 1030.36 32.79
1674 29.6523 955.00 981.79 30.90
1675 29.6641 968.00 928.74 31.11
1676 29.6759 895.00 874.27 29.92
1677 29.6877 758.00 820.84 27.53
1678 29.6996 780.00 769.96 27.93
1679 29.7114 684.00 723.94 26.15
1680 29.7232 654.00 683.33 25.57
1681 29.7349 595.00 648.86 24.39
1682 29.7467 561.00 620.95 23.69
1683 29.7586 601.00 599.56 24.52
1684 29.7704 549.00 585.55 23.43
1685 29.7822 566.00 578.59 23.79
1686 29.7940 585.00 578.62 24.19
1687 29.8058 596.00 585.55 24.41
1688 29.8177 566.00 599.39 23.79
1689 29.8295 649.00 619.71 25.48
1690 29.8413 651.00 646.34 25.51
1691 29.8531 671.00 679.04 25.90
1692 29.8649 729.00 717.44 27.00
1693 29.8766 705.00 761.13 26.55
1694 29.8885 776.00 810.06 27.86
1695 29.9003 864.00 862.74 29.39
1696 29.9121 904.00 918.80 30.07
1697 29.9239 976.00 977.23 31.24
1698 29.9357 969.00 1036.80 31.13
1699 29.9476 1134.00 1096.56 33.67
1700 29.9594 1125.00 1153.83 33.54
1701 29.9712 1191.00 1207.38 34.51
1702 29.9830 1282.00 1255.49 35.81
1703 29.9948 1338.00 1296.75 36.58
1704 30.0066 1317.00 1330.53 36.29
1705 30.0184 1449.00 1355.99 38.07
1706 30.0302 1398.00 1373.95 37.39
1707 30.0420 1378.00 1385.54 37.12
1708 30.0538 1404.00 1391.54 37.47
1709 30.0657 1416.00 1395.02 37.63
1710 30.0775 1361.00 1396.60 36.89
1711 30.0893 1348.00 1397.28 36.72
1712 30.1011 1368.00 1397.30 36.99
1713 30.1129 1343.00 1396.15 36.65
1714 30.1247 1376.00 1392.54 37.09
1715 30.1365 1357.00 1384.41 36.84
1716 30.1483 1360.00 1369.58 36.88
1717 30.1601 1339.00 1345.76 36.59
1718 30.1719 1287.00 1311.32 35.87
1719 30.1837 1227.00 1265.65 35.03
1720 30.1956 1212.00 1208.84 34.81
1721 30.2074 1072.00 1143.66 32.74
1722 30.2192 1087.00 1072.18 32.97
1723 30.2310 1007.00 997.16 31.73
1724 30.2428 907.00 921.27 30.12
1725 30.2547 865.00 846.03 29.41
1726 30.2664 813.00 774.41 28.51
1727 30.2782 768.00 706.94 27.71
1728 30.2900 661.00 644.30 25.71
1729 30.3018 612.00 586.92 24.74
1730 30.3137 525.00 534.47 22.91
1731 30.3255 481.00 487.77 21.93
1732 30.3373 451.00 446.15 21.24
1733 30.3491 429.00 409.30 20.71
1734 30.3609 404.00 376.87 20.10
1735 30.3727 363.00 348.44 19.05
1736 30.3846 360.00 323.39 18.97
1737 30.3963 285.00 301.73 16.88
1738 30.4081 278.00 282.79 16.67
1739 30.4199 286.00 266.21 16.91
1740 30.4317 264.00 251.63 16.25
1741 30.4436 254.00 238.65 15.94
1742 30.4554 257.00 227.21 16.03
1743 30.4672 239.00 216.98 15.46
1744 30.4790 218.00 207.79 14.76
1745 30.4908 213.00 199.48 14.59
1746 30.5027 201.00 191.87 14.18
1747 30.5145 171.00 185.01 13.08
1748 30.5262 194.00 178.72 13.93
1749 30.5380 159.00 172.93 12.61
1750 30.5498 185.00 167.60 13.60
1751 30.5617 162.00 162.63 12.73
1752 30.5735 153.00 158.08 12.37
1753 30.5853 160.00 153.85 12.65
1754 30.5971 139.00 149.93 11.79
1755 30.6089 148.00 146.28 12.17
1756 30.6207 156.00 142.88 12.49
1757 30.6326 145.00 139.69 12.04
1758 30.6444 130.00 136.74 11.40
1759 30.6561 130.00 133.98 11.40
1760 30.6679 131.00 131.39 11.45
1761 30.6797 125.00 128.97 11.18
1762 30.6916 124.00 126.68 11.14
1763 30.7034 108.00 124.55 10.39
1764 30.7152 140.00 122.55 11.83
1765 30.7270 111.00 120.66 10.54
1766 30.7388 108.00 118.88 10.39
1767 30.7507 114.00 117.19 10.68
1768 30.7625 112.00 115.60 10.58
1769 30.7743 114.00 114.10 10.68
1770 30.7861 116.00 112.68 10.77
1771 30.7978 113.00 111.33 10.63
1772 30.8096 109.00 110.05 10.44
1773 30.8215 111.00 108.82 10.54
1774 30.8333 112.00 107.67 10.58
1775 30.8451 115.00 106.58 10.72
1776 30.8569 122.00 105.54 11.05
1777 30.8687 113.00 104.54 10.63
1778 30.8806 105.00 103.59 10.25
1779 30.8924 110.00 102.69 10.49
1780 30.9042 125.00 101.84 11.18
1781 30.9159 93.00 101.02 9.64
1782 30.9277 115.00 100.25 10.72
1783 30.9396 118.00 99.50 10.86
1784 30.9514 116.00 98.80 10.77
1785 30.9632 103.00 98.13 10.15
1786 30.9750 82.00 97.49 9.06
1787 30.9868 93.00 96.89 9.64
1788 30.9987 101.00 96.31 10.05
1789 31.0105 121.00 95.76 11.00
1790 31.0223 106.00 95.24 10.30
1791 31.0341 94.00 94.74 9.70
1792 31.0458 103.00 94.27 10.15
1793 31.0576 99.00 93.83 9.95
1794 31.0695 112.00 93.41 10.58
1795 31.0813 105.00 93.01 10.25
1796 31.0931 108.00 92.64 10.39
1797 31.1049 85.00 92.29 9.22
1798 31.1167 95.00 91.96 9.75
1799 31.1286 102.00 91.65 10.10
1800 31.1404 99.00 91.36 9.95
1801 31.1522 92.00 91.10 9.59
1802 31.1640 107.00 90.85 10.34
1803 31.1757 91.00 90.63 9.54
1804 31.1876 93.00 90.42 9.64
1805 31.1994 102.00 90.24 10.10
1806 31.2112 107.00 90.07 10.34
1807 31.2230 85.00 89.93 9.22
1808 31.2348 99.00 89.80 9.95
1809 31.2467 97.00 89.70 9.85
1810 31.2585 96.00 89.61 9.80
1811 31.2703 114.00 89.55 10.68
1812 31.2821 110.00 89.51 10.49
1813 31.2939 71.00 89.49 8.43
1814 31.3056 113.00 89.49 10.63
1815 31.3175 105.00 89.51 10.25
1816 31.3293 100.00 89.56 10.00
1817 31.3411 115.00 89.62 10.72
1818 31.3529 91.00 89.72 9.54
1819 31.3647 92.00 89.84 9.59
1820 31.3766 99.00 89.98 9.95
1821 31.3884 81.00 90.15 9.00
1822 31.4002 98.00 90.35 9.90
1823 31.4120 121.00 90.58 11.00
1824 31.4238 110.00 90.84 10.49
1825 31.4356 103.00 91.14 10.15
1826 31.4474 101.00 91.47 10.05
1827 31.4592 95.00 91.84 9.75
1828 31.4710 111.00 92.25 10.54
1829 31.4828 104.00 92.71 10.20
1830 31.4947 109.00 93.22 10.44
1831 31.5065 111.00 93.78 10.54
1832 31.5183 116.00 94.41 10.77
1833 31.5301 99.00 95.10 9.95
1834 31.5419 110.00 95.86 10.49
1835 31.5536 112.00 96.72 10.58
1836 31.5655 129.00 97.68 11.36
1837 31.5773 108.00 98.75 10.39
1838 31.5891 99.00 99.95 9.95
1839 31.6009 136.00 101.30 11.66
1840 31.6127 110.00 102.82 10.49
1841 31.6246 137.00 104.57 11.70
1842 31.6364 115.00 106.52 10.72
1843 31.6482 126.00 108.74 11.23
1844 31.6600 143.00 111.26 11.96
1845 31.6718 103.00 114.13 10.15
1846 31.6836 138.00 117.40 11.75
1847 31.6954 145.00 121.09 12.04
1848 31.7072 152.00 125.24 12.33
1849 31.7190 142.00 129.93 11.92
1850 31.7308 154.00 135.19 12.41
1851 31.7427 154.00 141.11 12.41
1852 31.7545 160.00 147.65 12.65
1853 31.7663 163.00 154.88 12.77
1854 31.7781 179.00 162.83 13.38
1855 31.7899 183.00 171.51 13.53
1856 31.8017 165.00 180.93 12.85
1857 31.8135 197.00 191.17 14.04
1858 31.8253 198.00 202.01 14.07
1859 31.8371 204.00 213.50 14.28
1860 31.8489 212.00 225.54 14.56
1861 31.8607 230.00 238.01 15.17
1862 31.8726 232.00 250.87 15.23
1863 31.8844 260.00 263.70 16.12
1864 31.8962 270.00 276.36 16.43
1865 31.9080 276.00 288.55 16.61
1866 31.9198 263.00 299.92 16.22
1867 31.9316 307.00 310.18 17.52
1868 31.9434 325.00 318.80 18.03
1869 31.9552 321.00 325.52 17.92
1870 31.9670 311.00 330.10 17.64
1871 31.9788 321.00 332.37 17.92
1872 31.9906 302.00 332.33 17.38
1873 32.0025 324.00 330.10 18.00
1874 32.0143 344.00 325.98 18.55
1875 32.0261 300.00 320.33 17.32
1876 32.0379 266.00 313.59 16.31
1877 32.0497 309.00 306.19 17.58
1878 32.0615 302.00 298.52 17.38
1879 32.0733 293.00 291.09 17.12
1880 32.0851 301.00 284.21 17.35
1881 32.0969 271.00 278.21 16.46
1882 32.1087 284.00 273.34 16.85
1883 32.1206 281.00 269.82 16.76
1884 32.1324 305.00 267.90 17.46
1885 32.1442 300.00 267.73 17.32
1886 32.1560 264.00 269.42 16.25
1887 32.1678 293.00 272.74 17.12
1888 32.1796 329.00 278.50 18.14
1889 32.1914 285.00 286.31 16.88
1890 32.2032 298.00 296.20 17.26
1891 32.2150 326.00 308.14 18.06
1892 32.2268 322.00 322.04 17.94
1893 32.2386 344.00 337.77 18.55
1894 32.2505 353.00 355.27 18.79
1895 32.2623 412.00 373.97 20.30
1896 32.2741 417.00 393.66 20.42
1897 32.2859 400.00 413.88 20.00
1898 32.2977 444.00 434.05 21.07
1899 32.3095 431.00 453.65 20.76
1900 32.3213 469.00 471.56 21.66
1901 32.3331 489.00 487.11 22.11
1902 32.3449 493.00 499.46 22.20
1903 32.3567 485.00 507.89 22.02
1904 32.3686 507.00 511.87 22.52
1905 32.3804 505.00 511.05 22.47
1906 32.3922 495.00 505.56 22.25
1907 32.4040 491.00 495.76 22.16
1908 32.4158 482.00 482.28 21.95
1909 32.4277 448.00 465.75 21.17
1910 32.4394 462.00 447.15 21.49
1911 32.4512 374.00 427.49 19.34
1912 32.4630 358.00 407.35 18.92
1913 32.4748 374.00 387.36 19.34
1914 32.4866 348.00 368.03 18.65
1915 32.4985 337.00 349.59 18.36
1916 32.5103 322.00 332.65 17.94
1917 32.5221 319.00 317.24 17.86
1918 32.5339 276.00 303.47 16.61
1919 32.5457 270.00 291.40 16.43
1920 32.5575 264.00 280.94 16.25
1921 32.5693 260.00 272.20 16.12
1922 32.5811 254.00 264.96 15.94
1923 32.5929 283.00 259.06 16.82
1924 32.6047 222.00 254.28 14.90
1925 32.6166 256.00 250.35 16.00
1926 32.6284 236.00 247.03 15.36
1927 32.6402 273.00 243.99 16.52
1928 32.6520 249.00 240.91 15.78
1929 32.6638 229.00 237.51 15.13
1930 32.6756 286.00 233.52 16.91
1931 32.6874 245.00 228.85 15.65
1932 32.6992 228.00 223.39 15.10
1933 32.7110 249.00 217.18 15.78
1934 32.7228 218.00 210.29 14.76
1935 32.7346 185.00 202.88 13.60
1936 32.7465 194.00 195.05 13.93
1937 32.7583 225.00 187.09 15.00
1938 32.7701 197.00 179.11 14.04
1939 32.7819 156.00 171.23 12.49
1940 32.7936 154.00 163.56 12.41
1941 32.8055 155.00 156.12 12.45
1942 32.8173 146.00 149.11 12.08
1943 32.8291 147.00 142.49 12.12
1944 32.8409 125.00 136.30 11.18
1945 32.8527 155.00 130.54 12.45
1946 32.8646 125.00 125.18 11.18
1947 32.8764 115.00 119.49 10.72
1948 32.8882 95.00 115.04 9.75
1949 32.9000 87.00 110.98 9.33
1950 32.9118 88.00 107.30 9.38
1951 32.9236 88.00 103.95 9.38
1952 32.9354 96.00 100.96 9.80
1953 32.9472 108.00 98.27 10.39
1954 32.9590 98.00 95.85 9.90
1955 32.9708 92.00 93.68 9.59
1956 32.9826 84.00 91.72 9.17
1957 32.9945 85.00 89.95 9.22
1958 33.0063 71.00 88.36 8.43
1959 33.0181 79.00 86.93 8.89
1960 33.0299 82.00 85.63 9.06
1961 33.0416 90.00 84.44 9.49
1962 33.0535 75.00 83.34 8.66
1963 33.0653 95.00 82.35 9.75
1964 33.0771 89.00 81.61 9.43
1965 33.0889 82.00 80.75 9.06
1966 33.1007 77.00 79.96 8.77
1967 33.1126 70.00 79.22 8.37
1968 33.1244 75.00 78.52 8.66
1969 33.1362 70.00 77.87 8.37
1970 33.1480 78.00 77.26 8.83
1971 33.1597 61.00 76.68 7.81
1972 33.1715 56.00 76.13 7.48
1973 33.1834 74.00 75.60 8.60
1974 33.1952 71.00 75.11 8.43
1975 33.2070 70.00 74.64 8.37
1976 33.2188 57.00 74.19 7.55
1977 33.2306 69.00 73.76 8.31
1978 33.2425 78.00 73.35 8.83
1979 33.2543 75.00 72.95 8.66
1980 33.2661 75.00 72.58 8.66
1981 33.2778 74.00 72.22 8.60
1982 33.2896 82.00 71.88 9.06
1983 33.3015 66.00 71.54 8.12
1984 33.3133 63.00 71.22 7.94
1985 33.3251 74.00 70.92 8.60
1986 33.3369 70.00 70.63 8.37
1987 33.3487 61.00 70.34 7.81
1988 33.3606 81.00 70.07 9.00
1989 33.3724 60.00 69.81 7.75
1990 33.3842 61.00 69.56 7.81
1991 33.3960 58.00 69.31 7.62
1992 33.4077 75.00 69.08 8.66
1993 33.4195 50.00 68.85 7.07
1994 33.4314 77.00 68.63 8.77
1995 33.4432 57.00 68.42 7.55
1996 33.4550 54.00 68.22 7.35
1997 33.4668 78.00 68.02 8.83
1998 33.4786 61.00 67.83 7.81
1999 33.4905 76.00 66.91 8.72
2000 33.5023 57.00 66.74 7.55
2001 33.5141 74.00 66.57 8.60
2002 33.5258 49.00 66.41 7.00
2003 33.5376 66.00 66.25 8.12
2004 33.5495 57.00 66.10 7.55
2005 33.5613 63.00 65.95 7.94
2006 33.5731 65.00 65.81 8.06
2007 33.5849 64.00 65.67 8.00
2008 33.5967 70.00 65.54 8.37
2009 33.6086 57.00 65.41 7.55
2010 33.6204 58.00 65.28 7.62
2011 33.6322 63.00 65.16 7.94
2012 33.6439 54.00 65.04 7.35
2013 33.6557 61.00 64.93 7.81
2014 33.6675 72.00 64.82 8.49
2015 33.6794 69.00 64.71 8.31
2016 33.6912 68.00 65.07 8.25
2017 33.7030 64.00 64.97 8.00
2018 33.7148 55.00 64.88 7.42
2019 33.7266 69.00 64.78 8.31
2020 33.7385 73.00 64.70 8.54
2021 33.7503 72.00 64.61 8.49
2022 33.7620 80.00 64.53 8.94
2023 33.7738 53.00 64.45 7.28
2024 33.7856 75.00 64.38 8.66
2025 33.7975 87.00 64.30 9.33
2026 33.8093 48.00 64.23 6.93
2027 33.8211 69.00 64.17 8.31
2028 33.8329 61.00 64.10 7.81
2029 33.8447 62.00 63.32 7.87
2030 33.8566 63.00 63.26 7.94
2031 33.8684 65.00 63.21 8.06
2032 33.8801 65.00 63.16 8.06
2033 33.8919 61.00 63.12 7.81
2034 33.9037 54.00 63.08 7.35
2035 33.9155 59.00 63.04 7.68
2036 33.9274 52.00 63.00 7.21
2037 33.9392 55.00 62.96 7.42
2038 33.9510 53.00 62.93 7.28
2039 33.9628 54.00 62.90 7.35
2040 33.9746 56.00 62.88 7.48
2041 33.9865 71.00 62.86 8.43
2042 33.9982 46.00 62.84 6.78
2043 34.0100 58.00 62.82 7.62
2044 34.0218 60.00 62.81 7.75
2045 34.0336 56.00 62.80 7.48
2046 34.0455 57.00 62.79 7.55
2047 34.0573 63.00 62.79 7.94
2048 34.0691 61.00 62.80 7.81
2049 34.0809 69.00 62.81 8.31
2050 34.0927 55.00 62.82 7.42
2051 34.1046 63.00 62.84 7.94
2052 34.1163 62.00 62.86 7.87
2053 34.1281 71.00 62.89 8.43
2054 34.1399 54.00 62.93 7.35
2055 34.1517 57.00 62.98 7.55
2056 34.1635 69.00 63.03 8.31
2057 34.1754 53.00 63.09 7.28
2058 34.1872 61.00 63.16 7.81
2059 34.1990 69.00 63.25 8.31
2060 34.2108 65.00 63.35 8.06
2061 34.2225 67.00 63.46 8.19
2062 34.2344 77.00 63.59 8.77
2063 34.2462 70.00 63.74 8.37
2064 34.2580 66.00 63.91 8.12
2065 34.2698 64.00 64.12 8.00
2066 34.2816 66.00 64.35 8.12
2067 34.2935 78.00 64.62 8.83
2068 34.3053 75.00 64.92 8.66
2069 34.3171 53.00 65.28 7.28
2070 34.3289 55.00 65.68 7.42
2071 34.3407 74.00 66.14 8.60
2072 34.3524 73.00 66.67 8.54
2073 34.3643 52.00 67.27 7.21
2074 34.3761 75.00 67.94 8.66
2075 34.3879 65.00 68.70 8.06
2076 34.3997 68.00 69.54 8.25
2077 34.4115 66.00 70.47 8.12
2078 34.4234 70.00 71.51 8.37
2079 34.4352 69.00 72.64 8.31
2080 34.4470 69.00 73.86 8.31
2081 34.4587 65.00 75.18 8.06
2082 34.4705 72.00 76.59 8.49
2083 34.4824 85.00 78.10 9.22
2084 34.4942 73.00 79.66 8.54
2085 34.5060 90.00 81.27 9.49
2086 34.5178 83.00 82.90 9.11
2087 34.5296 101.00 84.53 10.05
2088 34.5415 87.00 86.12 9.33
2089 34.5533 94.00 87.61 9.70
2090 34.5651 110.00 88.95 10.49
2091 34.5768 96.00 90.09 9.80
2092 34.5886 106.00 90.98 10.30
2093 34.6004 89.00 91.55 9.43
2094 34.6123 101.00 91.79 10.05
2095 34.6241 69.00 91.68 8.31
2096 34.6359 86.00 91.22 9.27
2097 34.6477 82.00 90.44 9.06
2098 34.6595 91.00 89.39 9.54
2099 34.6714 98.00 88.10 9.90
2100 34.6832 105.00 86.66 10.25
2101 34.6949 101.00 85.10 10.05
2102 34.7067 73.00 83.49 8.54
2103 34.7185 75.00 81.86 8.66
2104 34.7304 81.00 80.23 9.00
2105 34.7422 87.00 78.66 9.33
2106 34.7540 85.00 77.15 9.22
2107 34.7658 73.00 75.72 8.54
2108 34.7776 94.00 74.38 9.70
2109 34.7895 78.00 73.13 8.83
2110 34.8013 55.00 71.99 7.42
2111 34.8130 75.00 70.95 8.66
2112 34.8248 65.00 70.00 8.06
2113 34.8366 71.00 69.16 8.43
2114 34.8484 67.00 68.40 8.19
2115 34.8603 56.00 67.73 7.48
2116 34.8721 67.00 67.16 8.19
2117 34.8839 58.00 66.65 7.62
2118 34.8957 69.00 66.22 8.31
2119 34.9075 59.00 65.86 7.68
2120 34.9193 76.00 65.55 8.72
2121 34.9311 56.00 65.31 7.48
2122 34.9429 63.00 65.11 7.94
2123 34.9547 61.00 64.96 7.81
2124 34.9665 62.00 64.84 7.87
2125 34.9784 59.00 64.77 7.68
2126 34.9902 47.00 64.72 6.86
2127 35.0020 58.00 64.71 7.62
2128 35.0138 60.00 64.72 7.75
2129 35.0256 59.00 64.75 7.68
2130 35.0374 64.00 64.79 8.00
2131 35.0492 66.00 64.85 8.12
2132 35.0610 61.00 64.92 7.81
2133 35.0728 47.00 64.98 6.86
2134 35.0846 50.00 65.05 7.07
2135 35.0964 70.00 65.11 8.37
2136 35.1083 66.00 65.16 8.12
2137 35.1201 54.00 65.20 7.35
2138 35.1319 60.00 65.23 7.75
2139 35.1437 47.00 65.25 6.86
2140 35.1554 65.00 65.28 8.06
2141 35.1673 51.00 65.30 7.14
2142 35.1791 74.00 65.50 8.60
2143 35.1909 62.00 65.55 7.87
2144 35.2027 58.00 65.61 7.62
2145 35.2145 69.00 65.68 8.31
2146 35.2264 69.00 65.78 8.31
2147 35.2382 59.00 65.90 7.68
2148 35.2500 58.00 66.05 7.62
2149 35.2617 60.00 66.23 7.75
2150 35.2735 51.00 66.43 7.14
2151 35.2854 62.00 66.67 7.87
2152 35.2972 60.00 66.95 7.75
2153 35.3090 55.00 67.26 7.42
2154 35.3208 54.00 67.62 7.35
2155 35.3326 52.00 68.03 7.21
2156 35.3444 64.00 68.48 8.00
2157 35.3563 61.00 69.01 7.81
2158 35.3681 86.00 69.64 9.27
2159 35.3798 50.00 70.31 7.07
2160 35.3916 58.00 71.06 7.62
2161 35.4034 70.00 71.93 8.37
2162 35.4153 58.00 72.92 7.62
2163 35.4271 76.00 74.06 8.72
2164 35.4389 67.00 75.36 8.19
2165 35.4507 69.00 76.85 8.31
2166 35.4625 71.00 78.57 8.43
2167 35.4744 67.00 80.58 8.19
2168 35.4862 85.00 82.86 9.22
2169 35.4979 72.00 85.48 8.49
2170 35.5097 68.00 88.47 8.25
2171 35.5215 92.00 91.86 9.59
2172 35.5333 105.00 95.66 10.25
2173 35.5452 99.00 99.88 9.95
2174 35.5570 95.00 104.39 9.75
2175 35.5688 88.00 109.07 9.38
2176 35.5806 89.00 113.76 9.43
2177 35.5924 120.00 118.21 10.95
2178 35.6042 111.00 122.24 10.54
2179 35.6160 110.00 125.68 10.49
2180 35.6278 113.00 128.56 10.63
2181 35.6396 127.00 131.02 11.27
2182 35.6514 143.00 133.25 11.96
2183 35.6633 124.00 135.46 11.14
2184 35.6751 140.00 137.70 11.83
2185 35.6869 144.00 140.04 12.00
2186 35.6987 147.00 142.39 12.12
2187 35.7104 152.00 144.66 12.33
2188 35.7223 156.00 146.69 12.49
2189 35.7341 157.00 148.28 12.53
2190 35.7459 167.00 149.26 12.92
2191 35.7577 178.00 149.52 13.34
2192 35.7695 148.00 148.97 12.17
2193 35.7813 149.00 147.58 12.21
2194 35.7932 148.00 145.38 12.17
2195 35.8050 152.00 142.51 12.33
2196 35.8168 162.00 139.08 12.73
2197 35.8285 146.00 135.25 12.08
2198 35.8403 125.00 131.18 11.18
2199 35.8522 128.00 126.96 11.31
2200 35.8640 130.00 122.79 11.40
2201 35.8758 106.00 118.73 10.30
2202 35.8876 106.00 114.86 10.30
2203 35.8994 107.00 111.22 10.34
2204 35.9113 97.00 107.84 9.85
2205 35.9231 101.00 104.80 10.05
2206 35.9349 95.00 102.09 9.75
2207 35.9466 115.00 99.73 10.72
2208 35.9584 92.00 97.72 9.59
2209 35.9703 90.00 96.05 9.49
2210 35.9821 99.00 94.76 9.95
2211 35.9939 96.00 93.84 9.80
2212 36.0057 78.00 93.28 8.83
2213 36.0175 86.00 93.11 9.27
2214 36.0293 77.00 93.33 8.77
2215 36.0412 83.00 93.97 9.11
2216 36.0529 94.00 95.37 9.70
2217 36.0647 97.00 96.94 9.85
2218 36.0765 86.00 99.03 9.27
2219 36.0883 100.00 101.72 10.00
2220 36.1002 100.00 105.11 10.00
2221 36.1120 92.00 109.22 9.59
2222 36.1238 105.00 114.19 10.25
2223 36.1356 131.00 120.12 11.45
2224 36.1474 137.00 126.93 11.70
2225 36.1592 144.00 135.13 12.00
2226 36.1710 139.00 144.45 11.79
2227 36.1828 142.00 154.87 11.92
2228 36.1946 133.00 166.16 11.53
2229 36.2064 165.00 177.82 12.85
2230 36.2183 173.00 189.16 13.15
2231 36.2301 167.00 198.87 12.92
2232 36.2419 214.00 205.82 14.63
2233 36.2537 202.00 208.92 14.21
2234 36.2654 175.00 207.61 13.23
2235 36.2772 202.00 202.07 14.21
2236 36.2891 188.00 193.07 13.71
2237 36.3009 171.00 182.01 13.08
2238 36.3127 152.00 170.01 12.33
2239 36.3245 157.00 158.05 12.53
2240 36.3363 145.00 146.43 12.04
2241 36.3482 126.00 136.07 11.23
2242 36.3600 123.00 126.95 11.09
2243 36.3718 127.00 118.96 11.27
2244 36.3835 112.00 112.04 10.58
2245 36.3953 99.00 106.08 9.95
2246 36.4072 110.00 100.93 10.49
2247 36.4190 90.00 96.55 9.49
2248 36.4308 86.00 92.80 9.27
2249 36.4426 109.00 89.58 10.44
2250 36.4544 88.00 86.82 9.38
2251 36.4663 80.00 84.41 8.94
2252 36.4781 67.00 82.35 8.19
2253 36.4898 61.00 80.55 7.81
2254 36.5016 87.00 78.99 9.33
2255 36.5134 79.00 77.62 8.89
2256 36.5252 67.00 76.42 8.19
2257 36.5371 79.00 75.36 8.89
2258 36.5489 67.00 74.42 8.19
2259 36.5607 76.00 73.60 8.72
2260 36.5725 75.00 72.87 8.66
2261 36.5843 65.00 72.22 8.06
2262 36.5962 70.00 71.65 8.37
2263 36.6079 62.00 71.14 7.87
2264 36.6197 58.00 70.70 7.62
2265 36.6315 49.00 70.31 7.00
2266 36.6433 62.00 69.96 7.87
2267 36.6552 62.00 69.67 7.87
2268 36.6670 62.00 69.41 7.87
2269 36.6788 78.00 69.11 8.83
2270 36.6906 66.00 68.93 8.12
2271 36.7024 57.00 68.79 7.55
2272 36.7142 71.00 68.68 8.43
2273 36.7260 50.00 68.60 7.07
2274 36.7378 65.00 68.55 8.06
2275 36.7496 57.00 68.54 7.55
2276 36.7614 65.00 68.55 8.06
2277 36.7732 49.00 68.59 7.00
2278 36.7851 72.00 68.66 8.49
2279 36.7969 70.00 68.76 8.37
2280 36.8087 75.00 68.90 8.66
2281 36.8204 71.00 69.07 8.43
2282 36.8322 68.00 69.27 8.25
2283 36.8441 67.00 69.51 8.19
2284 36.8559 56.00 69.79 7.48
2285 36.8677 52.00 70.11 7.21
2286 36.8795 69.00 70.48 8.31
2287 36.8913 72.00 70.91 8.49
2288 36.9032 81.00 71.39 9.00
2289 36.9150 65.00 71.94 8.06
2290 36.9267 71.00 72.56 8.43
2291 36.9385 73.00 73.26 8.54
2292 36.9503 56.00 74.06 7.48
2293 36.9621 77.00 74.95 8.77
2294 36.9740 76.00 75.97 8.72
2295 36.9858 74.00 77.10 8.60
2296 36.9976 87.00 78.36 9.33
2297 37.0094 74.00 79.78 8.60
2298 37.0212 76.00 81.36 8.72
2299 37.0330 76.00 83.14 8.72
2300 37.0448 86.00 85.09 9.27
2301 37.0566 85.00 87.25 9.22
2302 37.0684 78.00 89.62 8.83
2303 37.0802 95.00 92.22 9.75
2304 37.0921 89.00 95.08 9.43
2305 37.1039 97.00 98.17 9.85
2306 37.1157 106.00 101.50 10.30
2307 37.1275 85.00 105.09 9.22
2308 37.1393 118.00 108.93 10.86
2309 37.1511 124.00 113.04 11.14
2310 37.1629 124.00 117.35 11.14
2311 37.1747 135.00 121.87 11.62
2312 37.1865 133.00 126.57 11.53
2313 37.1983 144.00 131.42 12.00
2314 37.2101 139.00 136.38 11.79
2315 37.2220 138.00 141.43 11.75
2316 37.2338 167.00 146.40 12.92
2317 37.2456 175.00 151.27 13.23
2318 37.2573 162.00 155.94 12.73
2319 37.2691 175.00 160.31 13.23
2320 37.2810 170.00 164.30 13.04
2321 37.2928 191.00 167.74 13.82
2322 37.3046 175.00 170.57 13.23
2323 37.3164 173.00 172.73 13.15
2324 37.3282 191.00 174.17 13.82
2325 37.3401 162.00 174.90 12.73
2326 37.3519 177.00 174.95 13.30
2327 37.3636 194.00 174.40 13.93
2328 37.3754 164.00 173.35 12.81
2329 37.3872 163.00 171.92 12.77
2330 37.3991 181.00 170.24 13.45
2331 37.4109 153.00 168.46 12.37
2332 37.4227 149.00 166.70 12.21
2333 37.4345 163.00 165.07 12.77
2334 37.4463 158.00 163.68 12.57
2335 37.4581 143.00 162.59 11.96
2336 37.4699 146.00 161.89 12.08
2337 37.4817 171.00 161.62 13.08
2338 37.4935 147.00 161.82 12.12
2339 37.5053 166.00 162.51 12.88
2340 37.5171 146.00 163.70 12.08
2341 37.5290 152.00 165.38 12.33
2342 37.5408 161.00 167.51 12.69
2343 37.5526 163.00 170.04 12.77
2344 37.5644 164.00 172.93 12.81
2345 37.5761 182.00 176.08 13.49
2346 37.5880 203.00 179.41 14.25
2347 37.5998 173.00 182.75 13.15
2348 37.6116 200.00 185.97 14.14
2349 37.6234 209.00 188.92 14.46
2350 37.6352 170.00 191.42 13.04
2351 37.6471 186.00 193.34 13.64
2352 37.6589 204.00 194.50 14.28
2353 37.6707 189.00 194.89 13.75
2354 37.6824 201.00 194.34 14.18
2355 37.6942 182.00 192.90 13.49
2356 37.7060 209.00 190.64 14.46
2357 37.7179 182.00 187.62 13.49
2358 37.7297 198.00 184.03 14.07
2359 37.7415 174.00 179.99 13.19
2360 37.7533 172.00 175.65 13.11
2361 37.7651 195.00 171.14 13.96
2362 37.7770 145.00 166.57 12.04
2363 37.7887 176.00 162.09 13.27
2364 37.8005 145.00 157.77 12.04
2365 37.8123 148.00 153.67 12.17
2366 37.8241 138.00 149.82 11.75
2367 37.8360 126.00 146.24 11.23
2368 37.8478 135.00 142.98 11.62
2369 37.8596 140.00 140.02 11.83
2370 37.8714 115.00 137.34 10.72
2371 37.8832 140.00 134.92 11.83
2372 37.8950 117.00 132.70 10.82
2373 37.9068 147.00 130.70 12.12
2374 37.9186 139.00 128.83 11.79
2375 37.9304 121.00 127.07 11.00
2376 37.9422 123.00 125.38 11.09
2377 37.9540 101.00 123.73 10.05
2378 37.9659 131.00 122.09 11.45
2379 37.9777 115.00 120.48 10.72
2380 37.9895 130.00 118.90 11.40
2381 38.0012 113.00 117.37 10.63
2382 38.0130 123.00 115.91 11.09
2383 38.0249 123.00 114.54 11.09
2384 38.0367 102.00 113.32 10.10
2385 38.0485 128.00 112.25 11.31
2386 38.0603 106.00 111.34 10.30
2387 38.0721 108.00 110.59 10.39
2388 38.0840 103.00 109.97 10.15
2389 38.0958 116.00 109.40 10.77
2390 38.1075 117.00 108.81 10.82
2391 38.1193 112.00 108.07 10.58
2392 38.1311 109.00 107.06 10.44
2393 38.1429 108.00 105.68 10.39
2394 38.1548 105.00 103.83 10.25
2395 38.1666 80.00 101.62 8.94
2396 38.1784 88.00 99.10 9.38
2397 38.1902 98.00 96.37 9.90
2398 38.2020 86.00 93.56 9.27
2399 38.2138 90.00 90.77 9.49
2400 38.2256 94.00 88.11 9.70
2401 38.2374 84.00 85.63 9.17
2402 38.2492 83.00 83.35 9.11
2403 38.2610 72.00 81.28 8.49
2404 38.2729 76.00 79.41 8.72
2405 38.2847 91.00 77.75 9.54
2406 38.2965 88.00 76.29 9.38
2407 38.3083 74.00 75.00 8.60
2408 38.3200 63.00 73.86 7.94
2409 38.3319 66.00 72.86 8.12
2410 38.3437 65.00 71.99 8.06
2411 38.3555 60.00 71.23 7.75
2412 38.3673 59.00 70.57 7.68
2413 38.3791 77.00 69.98 8.77
2414 38.3909 65.00 69.47 8.06
2415 38.4028 60.00 69.02 7.75
2416 38.4146 60.00 68.62 7.75
2417 38.4263 56.00 68.26 7.48
2418 38.4381 62.00 67.93 7.87
2419 38.4499 67.00 67.64 8.19
2420 38.4618 61.00 67.36 7.81
2421 38.4736 61.00 67.09 7.81
2422 38.4854 54.00 66.84 7.35
2423 38.4972 62.00 66.58 7.87
2424 38.5090 71.00 66.34 8.43
2425 38.5208 58.00 66.09 7.62
2426 38.5326 63.00 65.84 7.94
2427 38.5444 61.00 65.58 7.81
2428 38.5562 54.00 65.33 7.35
2429 38.5680 69.00 65.08 8.31
2430 38.5799 47.00 64.83 6.86
2431 38.5917 65.00 64.58 8.06
2432 38.6035 58.00 64.33 7.62
2433 38.6153 55.00 64.09 7.42
2434 38.6270 64.00 63.86 8.00
2435 38.6388 49.00 63.64 7.00
2436 38.6507 61.00 63.42 7.81
2437 38.6625 62.00 63.21 7.87
2438 38.6743 67.00 63.02 8.19
2439 38.6861 66.00 62.83 8.12
2440 38.6979 68.00 62.66 8.25
2441 38.7098 60.00 62.49 7.75
2442 38.7216 51.00 62.40 7.14
2443 38.7333 54.00 62.26 7.35
2444 38.7451 57.00 62.10 7.55
2445 38.7569 57.00 61.98 7.55
2446 38.7688 56.00 61.87 7.48
2447 38.7806 55.00 61.77 7.42
2448 38.7924 61.00 61.69 7.81
2449 38.8042 56.00 61.61 7.48
2450 38.8160 54.00 61.54 7.35
2451 38.8279 56.00 61.48 7.48
2452 38.8396 43.00 61.42 6.56
2453 38.8514 56.00 61.20 7.48
2454 38.8632 69.00 61.17 8.31
2455 38.8750 60.00 61.14 7.75
2456 38.8868 63.00 61.12 7.94
2457 38.8987 69.00 61.11 8.31
2458 38.9105 65.00 61.10 8.06
2459 38.9223 52.00 61.10 7.21
2460 38.9341 59.00 61.11 7.68
2461 38.9458 57.00 61.12 7.55
2462 38.9577 56.00 61.14 7.48
2463 38.9695 65.00 61.17 8.06
2464 38.9813 68.00 61.20 8.25
2465 38.9931 56.00 61.23 7.48
2466 39.0049 59.00 61.27 7.68
2467 39.0168 54.00 61.32 7.35
2468 39.0286 64.00 61.40 8.00
2469 39.0403 60.00 61.46 7.75
2470 39.0521 44.00 61.52 6.63
2471 39.0639 65.00 61.59 8.06
2472 39.0758 49.00 61.66 7.00
2473 39.0876 69.00 61.74 8.31
2474 39.0994 52.00 61.82 7.21
2475 39.1112 59.00 61.91 7.68
2476 39.1230 51.00 62.00 7.14
2477 39.1348 68.00 62.10 8.25
2478 39.1466 60.00 62.21 7.75
2479 39.1584 63.00 62.32 7.94
2480 39.1702 56.00 62.44 7.48
2481 39.1820 57.00 62.56 7.55
2482 39.1938 62.00 62.69 7.87
2483 39.2057 59.00 62.83 7.68
2484 39.2175 70.00 62.97 8.37
2485 39.2293 54.00 63.12 7.35
2486 39.2411 53.00 63.28 7.28
2487 39.2528 59.00 63.45 7.68
2488 39.2647 60.00 63.62 7.75
2489 39.2765 89.00 63.80 9.43
2490 39.2883 67.00 63.99 8.19
2491 39.3001 64.00 64.19 8.00
2492 39.3119 61.00 64.40 7.81
2493 39.3237 77.00 64.62 8.77
2494 39.3356 74.00 64.85 8.60
2495 39.3473 78.00 65.11 8.83
2496 39.3591 69.00 65.36 8.31
2497 39.3709 78.00 65.62 8.83
2498 39.3827 76.00 65.90 8.72
2499 39.3946 50.00 66.19 7.07
2500 39.4064 84.00 66.49 9.17
2501 39.4182 67.00 66.81 8.19
2502 39.4300 57.00 67.14 7.55
2503 39.4418 74.00 67.49 8.60
2504 39.4536 63.00 67.86 7.94
2505 39.4654 55.00 68.24 7.42
2506 39.4772 78.00 68.65 8.83
2507 39.4890 61.00 69.08 7.81
2508 39.5008 82.00 69.54 9.06
2509 39.5127 73.00 70.02 8.54
2510 39.5245 59.00 70.53 7.68
2511 39.5363 62.00 71.08 7.87
2512 39.5480 49.00 71.65 7.00
2513 39.5598 91.00 72.27 9.54
2514 39.5716 79.00 72.93 8.89
2515 39.5835 73.00 73.65 8.54
2516 39.5953 77.00 74.41 8.77
2517 39.6071 74.00 75.23 8.60
2518 39.6189 71.00 76.12 8.43
2519 39.6307 83.00 77.08 9.11
2520 39.6426 83.00 78.14 9.11
2521 39.6543 73.00 79.27 8.54
2522 39.6661 72.00 80.51 8.49
2523 39.6779 91.00 81.86 9.54
2524 39.6897 82.00 83.33 9.06
2525 39.7016 83.00 84.96 9.11
2526 39.7134 88.00 86.72 9.38
2527 39.7252 85.00 88.64 9.22
2528 39.7370 94.00 90.75 9.70
2529 39.7488 111.00 92.98 10.54
2530 39.7606 105.00 95.51 10.25
2531 39.7724 87.00 98.25 9.33
2532 39.7842 99.00 101.23 9.95
2533 39.7960 114.00 104.47 10.68
2534 39.8078 104.00 107.98 10.20
2535 39.8196 98.00 111.78 9.90
2536 39.8315 94.00 115.92 9.70
2537 39.8433 131.00 120.34 11.45
2538 39.8550 127.00 125.08 11.27
2539 39.8668 141.00 130.15 11.87
2540 39.8786 133.00 135.56 11.53
2541 39.8905 113.00 141.36 10.63
2542 39.9023 151.00 147.45 12.29
2543 39.9141 135.00 153.87 11.62
2544 39.9259 157.00 160.61 12.53
2545 39.9377 143.00 167.66 11.96
2546 39.9496 164.00 175.04 12.81
2547 39.9613 167.00 182.62 12.92
2548 39.9731 183.00 190.40 13.53
2549 39.9849 176.00 198.34 13.27
2550 39.9967 189.00 206.37 13.75
2551 40.0086 201.00 214.50 14.18
2552 40.0204 235.00 222.50 15.33
2553 40.0322 205.00 230.36 14.32
2554 40.0440 239.00 237.96 15.46
2555 40.0557 224.00 245.23 14.97
2556 40.0675 245.00 252.06 15.65
2557 40.0794 258.00 258.42 16.06
2558 40.0912 306.00 264.13 17.49
2559 40.1030 259.00 269.23 16.09
2560 40.1148 229.00 273.67 15.13
2561 40.1266 265.00 277.49 16.28
2562 40.1385 268.00 280.75 16.37
2563 40.1503 261.00 283.46 16.16
2564 40.1620 270.00 285.74 16.43
2565 40.1738 303.00 287.68 17.41
2566 40.1856 286.00 289.37 16.91
2567 40.1975 274.00 290.93 16.55
2568 40.2093 315.00 292.41 17.75
2569 40.2211 291.00 293.92 17.06
2570 40.2329 289.00 295.52 17.00
2571 40.2447 302.00 297.30 17.38
2572 40.2565 296.00 299.34 17.20
2573 40.2683 278.00 301.68 16.67
2574 40.2801 322.00 304.42 17.94
2575 40.2919 329.00 307.62 18.14
2576 40.3037 300.00 311.34 17.32
2577 40.3155 327.00 315.64 18.08
2578 40.3274 340.00 320.58 18.44
2579 40.3392 317.00 326.05 17.80
2580 40.3510 357.00 332.05 18.89
2581 40.3627 366.00 338.48 19.13
2582 40.3745 367.00 345.16 19.16
2583 40.3864 364.00 351.94 19.08
2584 40.3982 375.00 358.43 19.36
2585 40.4100 369.00 364.39 19.21
2586 40.4218 383.00 369.50 19.57
2587 40.4336 398.00 373.43 19.95
2588 40.4455 395.00 375.93 19.87
2589 40.4572 401.00 376.79 20.02
2590 40.4690 403.00 375.95 20.07
2591 40.4808 422.00 373.44 20.54
2592 40.4926 369.00 369.43 19.21
2593 40.5044 361.00 364.14 19.00
2594 40.5163 373.00 357.80 19.31
2595 40.5281 379.00 350.82 19.47
2596 40.5399 346.00 343.44 18.60
2597 40.5516 358.00 335.90 18.92
2598 40.5634 364.00 328.40 19.08
2599 40.5753 342.00 321.04 18.49
2600 40.5871 354.00 314.00 18.81
2601 40.5989 322.00 307.26 17.94
2602 40.6107 322.00 300.82 17.94
2603 40.6225 308.00 294.63 17.55
2604 40.6344 299.00 288.54 17.29
2605 40.6462 281.00 282.59 16.76
2606 40.6579 299.00 276.60 17.29
2607 40.6697 270.00 270.49 16.43
2608 40.6815 266.00 264.18 16.31
2609 40.6934 248.00 257.55 15.75
2610 40.7052 275.00 250.69 16.58
2611 40.7170 241.00 243.52 15.52
2612 40.7288 245.00 236.09 15.65
2613 40.7406 237.00 228.42 15.39
2614 40.7523 241.00 220.60 15.52
2615 40.7642 209.00 212.61 14.46
2616 40.7760 208.00 204.67 14.42
2617 40.7878 193.00 196.78 13.89
2618 40.7996 209.00 189.00 14.46
2619 40.8114 172.00 181.39 13.11
2620 40.8233 169.00 173.93 13.00
2621 40.8351 179.00 166.79 13.38
2622 40.8469 151.00 159.93 12.29
2623 40.8586 136.00 153.37 11.66
2624 40.8704 148.00 147.13 12.17
2625 40.8823 127.00 141.17 11.27
2626 40.8941 138.00 135.59 11.75
2627 40.9059 110.00 130.34 10.49
2628 40.9177 129.00 125.43 11.36
2629 40.9295 131.00 120.84 11.45
2630 40.9414 125.00 116.54 11.18
2631 40.9531 116.00 112.58 10.77
2632 40.9649 104.00 108.93 10.20
2633 40.9767 107.00 105.56 10.34
2634 40.9885 99.00 102.46 9.95
2635 41.0003 94.00 99.62 9.70
2636 41.0122 76.00 97.00 8.72
2637 41.0240 79.00 94.63 8.89
2638 41.0358 88.00 92.46 9.38
2639 41.0476 82.00 90.67 9.06
2640 41.0593 82.00 88.87 9.06
2641 41.0712 85.00 87.21 9.22
2642 41.0830 66.00 85.70 8.12
2643 41.0948 98.00 84.31 9.90
2644 41.1066 72.00 83.02 8.49
2645 41.1184 64.00 81.82 8.00
2646 41.1303 71.00 80.68 8.43
2647 41.1421 89.00 79.59 9.43
2648 41.1538 80.00 78.58 8.94
2649 41.1656 67.00 77.62 8.19
2650 41.1774 82.00 76.71 9.06
2651 41.1893 68.00 75.83 8.25
2652 41.2011 69.00 75.00 8.31
2653 41.2129 66.00 74.22 8.12
2654 41.2247 79.00 73.48 8.89
2655 41.2365 70.00 72.79 8.37
2656 41.2482 73.00 72.13 8.54
2657 41.2601 85.00 71.51 9.22
2658 41.2719 84.00 70.93 9.17
2659 41.2837 51.00 70.39 7.14
2660 41.2955 71.00 69.89 8.43
2661 41.3073 55.00 69.42 7.42
2662 41.3192 84.00 68.98 9.17
2663 41.3310 51.00 68.57 7.14
2664 41.3427 76.00 68.19 8.72
2665 41.3545 65.00 67.84 8.06
2666 41.3663 65.00 67.50 8.06
2667 41.3782 63.00 67.18 7.94
2668 41.3900 49.00 66.87 7.00
2669 41.4018 62.00 66.57 7.87
2670 41.4136 65.00 66.28 8.06
2671 41.4254 64.00 65.98 8.00
2672 41.4372 76.00 65.68 8.72
2673 41.4490 75.00 65.39 8.66
2674 41.4608 42.00 65.09 6.48
2675 41.4726 62.00 64.80 7.87
2676 41.4844 49.00 64.51 7.00
2677 41.4962 65.00 64.23 8.06
2678 41.5081 58.00 63.96 7.62
2679 41.5199 87.00 63.70 9.33
2680 41.5317 63.00 63.44 7.94
2681 41.5434 78.00 63.20 8.83
2682 41.5552 69.00 63.79 8.31
2683 41.5671 56.00 63.58 7.48
2684 41.5789 61.00 63.38 7.81
2685 41.5907 72.00 63.19 8.49
2686 41.6025 66.00 63.02 8.12
2687 41.6143 75.00 62.85 8.66
2688 41.6262 61.00 62.70 7.81
2689 41.6379 56.00 62.55 7.48
2690 41.6497 75.00 62.42 8.66
2691 41.6615 69.00 62.30 8.31
2692 41.6733 58.00 62.18 7.62
2693 41.6851 73.00 62.07 8.54
2694 41.6970 58.00 61.97 7.62
2695 41.7088 58.00 61.88 7.62
2696 41.7206 66.00 61.80 8.12
2697 41.7323 65.00 61.72 8.06
2698 41.7441 74.00 61.65 8.60
2699 41.7560 47.00 61.58 6.86
2700 41.7678 64.00 61.53 8.00
2701 41.7796 57.00 61.48 7.55
2702 41.7914 60.00 61.43 7.75
2703 41.8032 62.00 61.39 7.87
2704 41.8151 62.00 61.36 7.87
2705 41.8268 62.00 61.33 7.87
2706 41.8386 70.00 61.31 8.37
2707 41.8504 66.00 61.30 8.12
2708 41.8622 61.00 61.29 7.81
2709 41.8741 65.00 61.29 8.06
2710 41.8859 58.00 61.29 7.62
2711 41.8977 70.00 61.30 8.37
2712 41.9095 69.00 61.31 8.31
2713 41.9212 65.00 61.34 8.06
2714 41.9330 60.00 61.36 7.75
2715 41.9449 68.00 61.40 8.25
2716 41.9567 57.00 61.44 7.55
2717 41.9685 64.00 61.49 8.00
2718 41.9803 70.00 61.55 8.37
2719 41.9921 65.00 61.61 8.06
2720 42.0040 71.00 61.68 8.43
2721 42.0158 53.00 61.76 7.28
2722 42.0275 57.00 61.85 7.55
2723 42.0393 65.00 61.95 8.06
2724 42.0511 69.00 62.06 8.31
2725 42.0630 71.00 62.18 8.43
2726 42.0748 60.00 62.31 7.75
2727 42.0866 56.00 62.38 7.48
2728 42.0984 61.00 62.53 7.81
2729 42.1101 41.00 62.71 6.40
2730 42.1220 66.00 62.90 8.12
2731 42.1338 65.00 63.10 8.06
2732 42.1456 72.00 63.33 8.49
2733 42.1574 56.00 63.58 7.48
2734 42.1692 60.00 63.85 7.75
2735 42.1810 65.00 64.15 8.06
2736 42.1929 84.00 64.48 9.17
2737 42.2047 76.00 64.83 8.72
2738 42.2164 68.00 65.13 8.25
2739 42.2282 72.00 65.57 8.49
2740 42.2400 60.00 66.04 7.75
2741 42.2519 67.00 66.57 8.19
2742 42.2637 72.00 67.14 8.49
2743 42.2755 65.00 67.77 8.06
2744 42.2873 64.00 68.46 8.00
2745 42.2991 78.00 69.22 8.83
2746 42.3109 71.00 70.05 8.43
2747 42.3227 69.00 70.95 8.31
2748 42.3345 74.00 71.93 8.60
2749 42.3463 75.00 73.00 8.66
2750 42.3581 47.00 74.16 6.86
2751 42.3700 72.00 75.43 8.49
2752 42.3818 86.00 76.79 9.27
2753 42.3936 71.00 78.25 8.43
2754 42.4053 100.00 79.82 10.00
2755 42.4171 85.00 81.50 9.22
2756 42.4289 82.00 83.29 9.06
2757 42.4408 97.00 85.21 9.85
2758 42.4526 86.00 87.22 9.27
2759 42.4644 93.00 89.35 9.64
2760 42.4762 85.00 91.59 9.22
2761 42.4880 104.00 93.93 10.20
2762 42.4998 100.00 96.39 10.00
2763 42.5116 114.00 98.91 10.68
2764 42.5234 104.00 101.51 10.20
2765 42.5352 100.00 104.17 10.00
2766 42.5470 98.00 106.86 9.90
2767 42.5589 128.00 109.61 11.31
2768 42.5707 113.00 112.32 10.63
2769 42.5825 108.00 115.00 10.39
2770 42.5942 117.00 117.61 10.82
2771 42.6060 130.00 120.13 11.40
2772 42.6179 131.00 122.55 11.45
2773 42.6297 106.00 124.79 10.30
2774 42.6415 134.00 126.87 11.58
2775 42.6533 118.00 128.76 10.86
2776 42.6651 142.00 130.46 11.92
2777 42.6769 146.00 131.99 12.08
2778 42.6887 153.00 133.37 12.37
2779 42.7005 112.00 134.61 10.58
2780 42.7123 121.00 135.75 11.00
2781 42.7241 135.00 136.84 11.62
2782 42.7359 126.00 137.90 11.23
2783 42.7478 126.00 138.99 11.23
2784 42.7596 144.00 140.12 12.00
2785 42.7714 159.00 141.33 12.61
2786 42.7831 167.00 142.63 12.92
2787 42.7949 140.00 144.00 11.83
2788 42.8068 142.00 145.51 11.92
2789 42.8186 130.00 147.09 11.40
2790 42.8304 129.00 148.71 11.36
2791 42.8422 149.00 150.33 12.21
2792 42.8540 138.00 151.90 11.75
2793 42.8658 161.00 153.33 12.69
2794 42.8776 156.00 154.56 12.49
2795 42.8894 139.00 155.47 11.79
2796 42.9012 145.00 155.96 12.04
2797 42.9130 179.00 155.96 13.38
2798 42.9248 161.00 155.38 12.69
2799 42.9367 156.00 154.19 12.49
2800 42.9485 142.00 152.39 11.92
2801 42.9603 122.00 150.03 11.05
2802 42.9720 128.00 147.18 11.31
2803 42.9838 164.00 143.95 12.81
2804 42.9957 136.00 140.41 11.66
2805 43.0075 150.00 136.75 12.25
2806 43.0193 138.00 133.04 11.75
2807 43.0311 136.00 129.47 11.66
2808 43.0429 135.00 125.92 11.62
2809 43.0548 125.00 122.51 11.18
2810 43.0665 142.00 119.31 11.92
2811 43.0783 122.00 116.33 11.05
2812 43.0901 132.00 113.54 11.49
2813 43.1019 114.00 110.94 10.68
2814 43.1137 123.00 108.51 11.09
2815 43.1256 124.00 106.28 11.14
2816 43.1374 114.00 104.11 10.68
2817 43.1492 111.00 102.04 10.54
2818 43.1609 123.00 100.06 11.09
2819 43.1727 112.00 98.16 10.58
2820 43.1846 98.00 96.34 9.90
2821 43.1964 114.00 94.63 10.68
2822 43.2082 107.00 93.03 10.34
2823 43.2200 89.00 91.57 9.43
2824 43.2318 111.00 90.25 10.54
2825 43.2436 94.00 89.08 9.70
2826 43.2554 93.00 88.09 9.64
2827 43.2672 81.00 87.27 9.00
2828 43.2790 82.00 86.61 9.06
2829 43.2908 86.00 86.13 9.27
2830 43.3027 92.00 85.82 9.59
2831 43.3145 102.00 85.69 10.10
2832 43.3263 96.00 85.71 9.80
2833 43.3381 94.00 85.89 9.70
2834 43.3498 101.00 86.22 10.05
2835 43.3616 107.00 86.69 10.34
2836 43.3735 100.00 87.29 10.00
2837 43.3853 102.00 88.01 10.10
2838 43.3971 98.00 88.82 9.90
2839 43.4089 100.00 89.71 10.00
2840 43.4207 104.00 90.65 10.20
2841 43.4325 102.00 91.62 10.10
2842 43.4443 102.00 92.58 10.10
2843 43.4561 106.00 93.50 10.30
2844 43.4679 85.00 94.35 9.22
2845 43.4797 117.00 95.12 10.82
2846 43.4916 95.00 95.79 9.75
2847 43.5034 99.00 96.34 9.95
2848 43.5152 109.00 96.80 10.44
2849 43.5269 101.00 97.16 10.05
2850 43.5387 103.00 97.47 10.15
2851 43.5506 95.00 97.73 9.75
2852 43.5624 94.00 97.98 9.70
2853 43.5742 102.00 98.24 10.10
2854 43.5860 98.00 98.52 9.90
2855 43.5978 114.00 98.83 10.68
2856 43.6096 74.00 100.29 8.60
2857 43.6214 112.00 100.65 10.58
2858 43.6332 106.00 100.98 10.30
2859 43.6450 106.00 101.28 10.30
2860 43.6568 97.00 101.49 9.85
2861 43.6686 91.00 101.58 9.54
2862 43.6805 81.00 101.51 9.00
2863 43.6923 104.00 101.26 10.20
2864 43.7041 104.00 100.79 10.20
2865 43.7158 80.00 100.11 8.94
2866 43.7276 98.00 99.24 9.90
2867 43.7395 95.00 98.18 9.75
2868 43.7513 107.00 97.00 10.34
2869 43.7631 106.00 95.71 10.30
2870 43.7749 73.00 94.38 8.54
2871 43.7867 99.00 93.03 9.95
2872 43.7986 94.00 91.69 9.70
2873 43.8103 95.00 90.41 9.75
2874 43.8221 100.00 89.21 10.00
2875 43.8339 77.00 88.10 8.77
2876 43.8457 83.00 87.09 9.11
2877 43.8575 81.00 86.21 9.00
2878 43.8694 93.00 85.44 9.64
2879 43.8812 77.00 84.81 8.77
2880 43.8930 83.00 84.32 9.11
2881 43.9047 103.00 83.96 10.15
2882 43.9165 66.00 83.73 8.12
2883 43.9284 79.00 83.65 8.89
2884 43.9402 87.00 83.70 9.33
2885 43.9520 73.00 83.90 8.54
2886 43.9638 83.00 84.24 9.11
2887 43.9756 85.00 84.72 9.22
2888 43.9874 90.00 85.35 9.49
2889 43.9992 80.00 86.13 8.94
2890 44.0110 71.00 87.05 8.43
2891 44.0228 88.00 88.12 9.38
2892 44.0346 93.00 89.34 9.64
2893 44.0464 94.00 90.71 9.70
2894 44.0583 93.00 92.25 9.64
2895 44.0701 103.00 93.93 10.15
2896 44.0818 107.00 95.77 10.34
2897 44.0936 109.00 97.76 10.44
2898 44.1054 96.00 99.90 9.80
2899 44.1173 104.00 102.21 10.20
2900 44.1291 127.00 104.64 11.27
2901 44.1409 128.00 107.19 11.31
2902 44.1527 117.00 109.85 10.82
2903 44.1645 115.00 112.60 10.72
2904 44.1763 118.00 115.44 10.86
2905 44.1881 138.00 118.29 11.75
2906 44.1999 117.00 121.16 10.82
2907 44.2117 115.00 124.02 10.72
2908 44.2235 148.00 126.83 12.17
2909 44.2354 142.00 129.62 11.92
2910 44.2472 160.00 132.29 12.65
2911 44.2589 119.00 134.85 10.91
2912 44.2707 129.00 137.26 11.36
2913 44.2825 132.00 139.50 11.49
2914 44.2943 120.00 141.53 10.95
2915 44.3062 151.00 143.34 12.29
2916 44.3180 145.00 144.89 12.04
2917 44.3298 147.00 146.17 12.12
2918 44.3416 143.00 147.20 11.96
2919 44.3533 161.00 147.99 12.69
2920 44.3652 159.00 148.57 12.61
2921 44.3770 126.00 148.98 11.23
2922 44.3888 149.00 149.25 12.21
2923 44.4006 152.00 149.45 12.33
2924 44.4124 153.00 149.63 12.37
2925 44.4243 138.00 149.84 11.75
2926 44.4361 159.00 150.14 12.61
2927 44.4478 157.00 150.58 12.53
2928 44.4596 151.00 151.21 12.29
2929 44.4714 152.00 152.07 12.33
2930 44.4833 158.00 153.24 12.57
2931 44.4951 140.00 154.73 11.83
2932 44.5069 150.00 156.60 12.25
2933 44.5187 176.00 158.91 13.27
2934 44.5305 146.00 161.70 12.08
2935 44.5422 170.00 165.04 13.04
2936 44.5541 154.00 169.01 12.41
2937 44.5659 178.00 173.63 13.34
2938 44.5777 171.00 178.99 13.08
2939 44.5895 179.00 185.16 13.38
2940 44.6013 205.00 192.23 14.32
2941 44.6132 188.00 200.33 13.71
2942 44.6250 231.00 209.37 15.20
2943 44.6367 222.00 219.43 14.90
2944 44.6485 224.00 230.48 14.97
2945 44.6603 233.00 242.36 15.26
2946 44.6722 253.00 254.90 15.91
2947 44.6840 275.00 267.45 16.58
2948 44.6958 290.00 279.47 17.03
2949 44.7076 294.00 290.18 17.15
2950 44.7193 306.00 298.73 17.49
2951 44.7312 354.00 304.40 18.81
2952 44.7430 303.00 306.63 17.41
2953 44.7548 329.00 305.42 18.14
2954 44.7666 289.00 301.13 17.00
2955 44.7784 332.00 294.48 18.22
2956 44.7902 316.00 286.35 17.78
2957 44.8021 317.00 277.53 17.80
2958 44.8138 291.00 268.93 17.06
2959 44.8256 249.00 261.03 15.78
2960 44.8374 268.00 254.19 16.37
2961 44.8492 255.00 248.65 15.97
2962 44.8611 249.00 244.45 15.78
2963 44.8729 273.00 241.70 16.52
2964 44.8847 231.00 240.12 15.20
2965 44.8965 229.00 240.04 15.13
2966 44.9082 234.00 241.18 15.30
2967 44.9201 275.00 243.48 16.58
2968 44.9319 255.00 246.80 15.97
2969 44.9437 244.00 251.04 15.62
2970 44.9555 226.00 256.11 15.03
2971 44.9673 276.00 261.89 16.61
2972 44.9792 240.00 268.32 15.49
2973 44.9909 277.00 275.19 16.64
2974 45.0027 275.00 282.42 16.58
2975 45.0145 273.00 289.88 16.52
2976 45.0263 267.00 297.66 16.34
2977 45.0381 280.00 305.18 16.73
2978 45.0500 303.00 312.59 17.41
2979 45.0618 307.00 319.59 17.52
2980 45.0736 321.00 326.12 17.92
2981 45.0853 311.00 332.01 17.64
2982 45.0971 328.00 337.14 18.11
2983 45.1090 326.00 341.39 18.06
2984 45.1208 312.00 344.59 17.66
2985 45.1326 303.00 346.71 17.41
2986 45.1444 340.00 347.70 18.44
2987 45.1562 344.00 347.49 18.55
2988 45.1680 336.00 346.20 18.33
2989 45.1798 357.00 343.84 18.89
2990 45.1916 333.00 340.50 18.25
2991 45.2034 306.00 336.27 17.49
2992 45.2152 339.00 331.24 18.41
2993 45.2270 302.00 325.54 17.38
2994 45.2389 325.00 319.21 18.03
2995 45.2507 323.00 312.44 17.97
2996 45.2624 287.00 305.27 16.94
2997 45.2742 281.00 297.74 16.76
2998 45.2860 290.00 289.92 17.03
2999 45.2979 264.00 281.77 16.25
3000 45.3097 294.00 273.46 17.15
3001 45.3215 254.00 264.95 15.94
3002 45.3333 263.00 256.27 16.22
3003 45.3450 229.00 247.47 15.13
3004 45.3569 248.00 238.51 15.75
3005 45.3687 258.00 229.61 16.06
3006 45.3805 234.00 220.74 15.30
3007 45.3923 187.00 211.98 13.67
3008 45.4041 193.00 203.58 13.89
3009 45.4160 185.00 195.13 13.60
3010 45.4278 174.00 187.02 13.19
3011 45.4395 179.00 179.22 13.38
3012 45.4513 163.00 171.76 12.77
3013 45.4631 191.00 164.67 13.82
3014 45.4749 150.00 157.95 12.25
3015 45.4868 178.00 151.57 13.34
3016 45.4986 152.00 145.64 12.33
3017 45.5104 144.00 140.09 12.00
3018 45.5221 139.00 134.92 11.79
3019 45.5339 147.00 130.11 12.12
3020 45.5458 152.00 125.63 12.33
3021 45.5576 125.00 121.40 11.18
3022 45.5694 130.00 117.62 11.40
3023 45.5812 137.00 114.14 11.70
3024 45.5930 122.00 110.95 11.05
3025 45.6049 119.00 108.00 10.91
3026 45.6166 121.00 105.33 11.00
3027 45.6284 105.00 102.90 10.25
3028 45.6402 100.00 100.68 10.00
3029 45.6520 128.00 98.67 11.31
3030 45.6639 101.00 96.82 10.05
3031 45.6757 128.00 95.17 11.31
3032 45.6875 91.00 93.67 9.54
3033 45.6992 95.00 92.31 9.75
3034 45.7110 114.00 91.08 10.68
3035 45.7228 115.00 89.98 10.72
3036 45.7347 101.00 88.98 10.05
3037 45.7465 96.00 88.08 9.80
3038 45.7583 105.00 87.28 10.25
3039 45.7701 92.00 86.57 9.59
3040 45.7819 96.00 85.93 9.80
3041 45.7937 85.00 85.37 9.22
3042 45.8055 88.00 84.88 9.38
3043 45.8173 95.00 84.45 9.75
3044 45.8291 64.00 84.09 8.00
3045 45.8409 87.00 83.78 9.33
3046 45.8528 99.00 83.53 9.95
3047 45.8646 97.00 83.34 9.85
3048 45.8763 107.00 83.21 10.34
3049 45.8881 93.00 83.13 9.64
3050 45.8999 100.00 83.11 10.00
3051 45.9118 89.00 83.14 9.43
3052 45.9236 85.00 83.23 9.22
3053 45.9354 98.00 83.28 9.90
3054 45.9472 88.00 83.49 9.38
3055 45.9590 99.00 83.77 9.95
3056 45.9707 101.00 84.11 10.05
3057 45.9826 82.00 84.53 9.06
3058 45.9944 89.00 85.01 9.43
3059 46.0062 77.00 85.58 8.77
3060 46.0180 110.00 86.22 10.49
3061 46.0298 107.00 86.96 10.34
3062 46.0417 90.00 87.79 9.49
3063 46.0534 108.00 88.72 10.39
3064 46.0652 102.00 89.76 10.10
3065 46.0770 110.00 90.90 10.49
3066 46.0888 94.00 92.17 9.70
3067 46.1007 88.00 93.58 9.38
3068 46.1125 90.00 95.12 9.49
3069 46.1243 100.00 96.80 10.00
3070 46.1361 122.00 98.65 11.05
3071 46.1478 113.00 100.67 10.63
3072 46.1597 121.00 102.89 11.00
3073 46.1715 126.00 105.29 11.23
3074 46.1833 113.00 107.90 10.63
3075 46.1951 139.00 110.73 11.79
3076 46.2069 130.00 113.81 11.40
3077 46.2187 143.00 117.14 11.96
3078 46.2305 117.00 120.76 10.82
3079 46.2423 144.00 124.61 12.00
3080 46.2541 151.00 128.72 12.29
3081 46.2659 160.00 133.07 12.65
3082 46.2777 140.00 137.62 11.83
3083 46.2896 147.00 142.35 12.12
3084 46.3014 179.00 147.11 13.38
3085 46.3131 154.00 151.84 12.41
3086 46.3249 180.00 156.45 13.42
3087 46.3367 178.00 160.85 13.34
3088 46.3486 161.00 164.99 12.69
3089 46.3604 185.00 168.76 13.60
3090 46.3722 177.00 172.12 13.30
3091 46.3840 173.00 175.00 13.15
3092 46.3958 194.00 177.29 13.93
3093 46.4075 164.00 178.85 12.81
3094 46.4194 182.00 179.52 13.49
3095 46.4312 180.00 179.15 13.42
3096 46.4430 172.00 177.69 13.11
3097 46.4548 168.00 175.18 12.96
3098 46.4666 156.00 171.78 12.49
3099 46.4785 166.00 167.68 12.88
3100 46.4902 145.00 163.23 12.04
3101 46.5020 140.00 158.65 11.83
3102 46.5138 145.00 154.15 12.04
3103 46.5256 152.00 149.91 12.33
3104 46.5375 142.00 146.01 11.92
3105 46.5493 157.00 142.58 12.53
3106 46.5611 133.00 139.62 11.53
3107 46.5729 150.00 137.16 12.25
3108 46.5846 128.00 135.19 11.31
3109 46.5965 143.00 133.70 11.96
3110 46.6083 131.00 132.70 11.45
3111 46.6201 115.00 132.18 10.72
3112 46.6319 124.00 132.13 11.14
3113 46.6437 138.00 132.56 11.75
3114 46.6555 109.00 133.47 10.44
3115 46.6673 120.00 134.88 10.95
3116 46.6791 145.00 136.80 12.04
3117 46.6909 126.00 139.27 11.23
3118 46.7027 140.00 142.31 11.83
3119 46.7145 125.00 145.98 11.18
3120 46.7264 149.00 150.37 12.21
3121 46.7382 152.00 155.48 12.33
3122 46.7500 159.00 161.41 12.61
3123 46.7617 145.00 168.25 12.04
3124 46.7735 191.00 176.12 13.82
3125 46.7854 190.00 185.18 13.78
3126 46.7972 222.00 195.41 14.90
3127 46.8090 202.00 207.00 14.21
3128 46.8208 220.00 220.05 14.83
3129 46.8326 251.00 234.66 15.84
3130 46.8444 244.00 251.03 15.62
3131 46.8562 262.00 268.85 16.19
3132 46.8680 304.00 288.12 17.44
3133 46.8798 291.00 308.55 17.06
3134 46.8916 350.00 329.60 18.71
3135 46.9034 416.00 350.48 20.40
3136 46.9153 380.00 370.29 19.49
3137 46.9270 380.00 387.39 19.49
3138 46.9388 386.00 400.59 19.65
3139 46.9506 396.00 408.66 19.90
3140 46.9624 365.00 410.79 19.10
3141 46.9743 394.00 406.73 19.85
3142 46.9861 411.00 397.02 20.27
3143 46.9979 374.00 382.65 19.34
3144 47.0096 347.00 364.94 18.63
3145 47.0214 376.00 345.25 19.39
3146 47.0333 346.00 324.64 18.60
3147 47.0451 347.00 304.41 18.63
3148 47.0569 306.00 285.05 17.49
3149 47.0687 276.00 266.99 16.61
3150 47.0805 268.00 250.46 16.37
3151 47.0924 240.00 235.40 15.49
3152 47.1041 262.00 222.07 16.19
3153 47.1159 220.00 210.24 14.83
3154 47.1277 209.00 199.82 14.46
3155 47.1395 155.00 190.67 12.45
3156 47.1513 176.00 182.68 13.27
3157 47.1632 175.00 175.67 13.23
3158 47.1750 188.00 169.58 13.71
3159 47.1867 173.00 164.86 13.15
3160 47.1985 179.00 160.37 13.38
3161 47.2103 135.00 156.51 11.62
3162 47.2222 152.00 153.19 12.33
3163 47.2340 162.00 150.41 12.73
3164 47.2458 161.00 148.09 12.69
3165 47.2576 139.00 146.20 11.79
3166 47.2693 122.00 144.69 11.05
3167 47.2812 153.00 143.55 12.37
3168 47.2930 145.00 142.76 12.04
3169 47.3048 137.00 142.34 11.70
3170 47.3166 119.00 142.26 10.91
3171 47.3284 147.00 142.54 12.12
3172 47.3403 119.00 143.17 10.91
3173 47.3520 132.00 144.16 11.49
3174 47.3638 142.00 145.52 11.92
3175 47.3756 128.00 147.27 11.31
3176 47.3874 157.00 149.40 12.53
3177 47.3992 131.00 151.94 11.45
3178 47.4111 158.00 154.93 12.57
3179 47.4229 158.00 158.33 12.57
3180 47.4347 151.00 162.18 12.29
3181 47.4464 176.00 166.50 13.27
3182 47.4582 179.00 171.29 13.38
3183 47.4701 186.00 176.63 13.64
3184 47.4819 184.00 182.44 13.56
3185 47.4937 181.00 188.76 13.45
3186 47.5055 208.00 195.62 14.42
3187 47.5173 195.00 203.02 13.96
3188 47.5291 186.00 211.03 13.64
3189 47.5409 232.00 219.52 15.23
3190 47.5527 225.00 228.55 15.00
3191 47.5645 249.00 238.12 15.78
3192 47.5763 250.00 248.21 15.81
3193 47.5881 243.00 258.78 15.59
3194 47.6000 298.00 269.91 17.26
3195 47.6117 296.00 281.37 17.20
3196 47.6235 280.00 293.18 16.73
3197 47.6353 290.00 305.27 17.03
3198 47.6471 329.00 317.57 18.14
3199 47.6590 310.00 330.07 17.61
3200 47.6708 322.00 342.46 17.94
3201 47.6826 357.00 354.72 18.89
3202 47.6943 442.00 366.71 21.02
3203 47.7061 388.00 378.32 19.70
3204 47.7180 402.00 389.49 20.05
3205 47.7298 413.00 399.94 20.32
3206 47.7416 411.00 409.65 20.27
3207 47.7534 414.00 418.57 20.35
3208 47.7652 437.00 426.63 20.90
3209 47.7771 421.00 433.89 20.52
3210 47.7888 430.00 440.20 20.74
3211 47.8006 449.00 445.68 21.19
3212 47.8124 408.00 450.33 20.20
3213 47.8242 462.00 454.19 21.49
3214 47.8360 454.00 457.29 21.31
3215 47.8479 438.00 459.62 20.93
3216 47.8597 445.00 461.14 21.09
3217 47.8714 471.00 461.83 21.70
3218 47.8832 498.00 461.63 22.32
3219 47.8950 481.00 460.46 21.93
3220 47.9069 462.00 458.22 21.49
3221 47.9187 486.00 454.86 22.05
3222 47.9305 440.00 450.30 20.98
3223 47.9423 467.00 444.49 21.61
3224 47.9540 469.00 437.20 21.66
3225 47.9659 415.00 428.85 20.37
3226 47.9777 426.00 419.40 20.64
3227 47.9895 401.00 408.93 20.02
3228 48.0013 395.00 397.58 19.87
3229 48.0131 428.00 385.50 20.69
3230 48.0250 400.00 372.77 20.00
3231 48.0367 358.00 359.78 18.92
3232 48.0485 384.00 346.60 19.60
3233 48.0603 335.00 333.38 18.30
3234 48.0721 308.00 320.26 17.55
3235 48.0839 300.00 307.39 17.32
3236 48.0958 331.00 294.78 18.19
3237 48.1076 282.00 282.72 16.79
3238 48.1193 284.00 271.16 16.85
3239 48.1311 274.00 260.17 16.55
3240 48.1429 240.00 249.78 15.49
3241 48.1548 227.00 239.95 15.07
3242 48.1666 229.00 230.82 15.13
3243 48.1784 220.00 222.41 14.83
3244 48.1902 223.00 214.66 14.93
3245 48.2020 219.00 207.58 14.80
3246 48.2138 185.00 201.12 13.60
3247 48.2256 185.00 195.36 13.60
3248 48.2374 189.00 190.24 13.75
3249 48.2492 202.00 185.73 14.21
3250 48.2610 173.00 181.82 13.15
3251 48.2729 176.00 178.45 13.27
3252 48.2846 158.00 175.65 12.57
3253 48.2964 174.00 173.37 13.19
3254 48.3082 179.00 171.57 13.38
3255 48.3200 153.00 170.23 12.37
3256 48.3318 170.00 169.30 13.04
3257 48.3437 182.00 168.75 13.49
3258 48.3555 168.00 168.55 12.96
3259 48.3673 164.00 168.65 12.81
3260 48.3790 149.00 169.02 12.21
3261 48.3908 142.00 169.60 11.92
3262 48.4027 168.00 170.35 12.96
3263 48.4145 167.00 171.21 12.92
3264 48.4263 165.00 172.12 12.85
3265 48.4381 178.00 173.04 13.34
3266 48.4499 155.00 173.89 12.45
3267 48.4617 179.00 174.62 13.38
3268 48.4735 190.00 175.15 13.78
3269 48.4853 171.00 175.44 13.08
3270 48.4971 176.00 175.43 13.27
3271 48.5089 162.00 175.08 12.73
3272 48.5208 173.00 174.35 13.15
3273 48.5326 182.00 173.25 13.49
3274 48.5443 162.00 171.78 12.73
3275 48.5561 167.00 169.95 12.92
3276 48.5679 159.00 167.79 12.61
3277 48.5797 153.00 165.32 12.37
3278 48.5916 149.00 162.58 12.21
3279 48.6034 137.00 159.64 11.70
3280 48.6152 126.00 156.53 11.23
3281 48.6269 148.00 153.28 12.17
3282 48.6387 133.00 149.95 11.53
3283 48.6506 139.00 146.53 11.79
3284 48.6624 152.00 143.13 12.33
3285 48.6742 133.00 139.74 11.53
3286 48.6860 135.00 136.39 11.62
3287 48.6978 115.00 133.10 10.72
3288 48.7096 137.00 129.88 11.70
3289 48.7214 135.00 126.78 11.62
3290 48.7332 125.00 123.81 11.18
3291 48.7450 133.00 120.96 11.53
3292 48.7568 124.00 118.25 11.14
3293 48.7686 110.00 115.69 10.49
3294 48.7805 99.00 113.27 9.95
3295 48.7922 106.00 111.03 10.30
3296 48.8040 104.00 108.99 10.20
3297 48.8158 119.00 107.08 10.91
3298 48.8276 80.00 105.31 8.94
3299 48.8395 109.00 103.69 10.44
3300 48.8513 97.00 102.22 9.85
3301 48.8631 98.00 100.86 9.90
3302 48.8748 104.00 99.61 10.20
3303 48.8866 108.00 98.44 10.39
3304 48.8985 94.00 97.30 9.70
3305 48.9103 102.00 96.21 10.10
3306 48.9221 95.00 95.38 9.75
3307 48.9339 107.00 94.32 10.34
3308 48.9457 113.00 93.27 10.63
3309 48.9575 109.00 92.25 10.44
3310 48.9693 85.00 91.29 9.22
3311 48.9811 84.00 90.40 9.17
3312 48.9929 75.00 89.60 8.66
3313 49.0047 89.00 88.89 9.43
3314 49.0165 86.00 88.28 9.27
3315 49.0284 97.00 87.77 9.85
3316 49.0401 88.00 87.39 9.38
3317 49.0519 86.00 87.11 9.27
3318 49.0637 102.00 86.93 10.10
3319 49.0755 85.00 86.87 9.22
3320 49.0874 103.00 86.91 10.15
3321 49.0992 70.00 87.05 8.37
3322 49.1110 90.00 87.29 9.49
3323 49.1227 98.00 87.62 9.90
3324 49.1345 89.00 88.05 9.43
3325 49.1464 97.00 88.57 9.85
3326 49.1582 94.00 89.18 9.70
3327 49.1700 86.00 89.87 9.27
3328 49.1818 93.00 90.64 9.64
3329 49.1936 101.00 91.50 10.05
3330 49.2054 112.00 92.44 10.58
3331 49.2172 103.00 93.45 10.15
3332 49.2290 80.00 94.53 8.94
3333 49.2408 108.00 95.68 10.39
3334 49.2526 88.00 96.90 9.38
3335 49.2644 93.00 98.18 9.64
3336 49.2763 109.00 99.52 10.44
3337 49.2880 104.00 100.92 10.20
3338 49.2998 119.00 102.36 10.91
3339 49.3116 105.00 103.85 10.25
3340 49.3234 91.00 105.37 9.54
3341 49.3353 133.00 106.95 11.53
3342 49.3471 109.00 108.54 10.44
3343 49.3589 102.00 110.15 10.10
3344 49.3706 124.00 111.76 11.14
3345 49.3824 116.00 113.38 10.77
3346 49.3943 122.00 114.99 11.05
3347 49.4061 128.00 116.56 11.31
3348 49.4179 116.00 118.09 10.77
3349 49.4297 127.00 119.55 11.27
3350 49.4415 118.00 120.95 10.86
3351 49.4533 120.00 122.28 10.95
3352 49.4651 111.00 123.50 10.54
3353 49.4769 129.00 124.61 11.36
3354 49.4887 104.00 125.61 10.20
3355 49.5005 120.00 126.50 10.95
3356 49.5123 126.00 127.27 11.23
3357 49.5242 112.00 127.93 10.58
3358 49.5359 113.00 128.47 10.63
3359 49.5477 131.00 128.90 11.45
3360 49.5595 140.00 129.53 11.83
3361 49.5713 126.00 129.74 11.23
3362 49.5832 117.00 129.85 10.82
3363 49.5950 130.00 129.86 11.40
3364 49.6068 120.00 129.75 10.95
3365 49.6185 115.00 129.53 10.72
3366 49.6303 142.00 129.19 11.92
3367 49.6422 131.00 128.72 11.45
3368 49.6540 127.00 128.12 11.27
3369 49.6658 139.00 127.35 11.79
3370 49.6776 110.00 126.46 10.49
3371 49.6894 132.00 125.43 11.49
3372 49.7012 149.00 124.24 12.21
3373 49.7130 120.00 122.92 10.95
3374 49.7248 129.00 121.48 11.36
3375 49.7366 111.00 119.92 10.54
3376 49.7484 117.00 118.26 10.82
3377 49.7602 152.00 116.53 12.33
3378 49.7721 131.00 114.65 11.45
3379 49.7838 120.00 112.82 10.95
3380 49.7956 104.00 110.97 10.20
3381 49.8074 106.00 109.12 10.30
3382 49.8192 119.00 107.28 10.91
3383 49.8311 115.00 105.45 10.72
3384 49.8429 105.00 103.67 10.25
3385 49.8547 115.00 101.93 10.72
3386 49.8664 103.00 100.25 10.15
3387 49.8782 99.00 98.57 9.95
3388 49.8901 110.00 96.99 10.49
3389 49.9019 98.00 95.48 9.90
3390 49.9137 82.00 94.03 9.06
3391 49.9255 99.00 92.64 9.95
3392 49.9373 106.00 91.32 10.30
3393 49.9490 103.00 90.05 10.15
3394 49.9609 85.00 88.83 9.22
3395 49.9727 99.00 87.68 9.95
3396 49.9845 100.00 86.59 10.00
3397 49.9963 115.00 85.55 10.72
3398 50.0081 111.00 84.57 10.54
3399 50.0200 84.00 83.64 9.17
3400 50.0317 104.00 82.77 10.20
3401 50.0435 86.00 81.96 9.27
3402 50.0553 91.00 81.20 9.54
3403 50.0671 85.00 80.49 9.22
3404 50.0790 86.00 79.83 9.27
3405 50.0908 85.00 79.24 9.22
3406 50.1025 97.00 78.69 9.85
3407 50.1143 88.00 78.19 9.38
3408 50.1261 72.00 77.74 8.49
3409 50.1380 76.00 77.34 8.72
3410 50.1498 98.00 76.99 9.90
3411 50.1616 83.00 76.68 9.11
3412 50.1734 83.00 76.42 9.11
3413 50.1852 82.00 76.20 9.06
3414 50.1969 81.00 76.03 9.00
3415 50.2088 80.00 75.90 8.94
3416 50.2206 85.00 75.81 9.22
3417 50.2324 81.00 75.67 9.00
3418 50.2442 84.00 75.67 9.17
3419 50.2560 91.00 75.71 9.54
3420 50.2678 87.00 75.79 9.33
3421 50.2796 72.00 75.91 8.49
3422 50.2914 72.00 76.03 8.49
3423 50.3032 85.00 76.24 9.22
3424 50.3150 98.00 76.49 9.90
3425 50.3269 86.00 76.79 9.27
3426 50.3387 96.00 76.73 9.80
3427 50.3504 83.00 77.12 9.11
3428 50.3622 75.00 77.57 8.66
3429 50.3740 80.00 78.06 8.94
3430 50.3859 82.00 78.61 9.06
3431 50.3977 87.00 79.21 9.33
3432 50.4095 82.00 79.87 9.06
3433 50.4213 92.00 80.58 9.59
3434 50.4330 91.00 81.35 9.54
3435 50.4448 99.00 82.19 9.95
3436 50.4567 91.00 83.09 9.54
3437 50.4685 101.00 84.06 10.05
3438 50.4803 87.00 85.09 9.33
3439 50.4921 92.00 86.19 9.59
3440 50.5039 91.00 87.37 9.54
3441 50.5157 101.00 88.64 10.05
3442 50.5275 96.00 89.97 9.80
3443 50.5393 109.00 91.39 10.44
3444 50.5511 112.00 92.89 10.58
3445 50.5629 117.00 94.48 10.82
3446 50.5748 94.00 96.18 9.70
3447 50.5865 104.00 97.96 10.20
3448 50.5983 98.00 99.83 9.90
3449 50.6101 107.00 101.81 10.34
3450 50.6219 99.00 103.87 9.95
3451 50.6338 126.00 106.08 11.23
3452 50.6456 130.00 108.38 11.40
3453 50.6574 114.00 110.80 10.68
3454 50.6691 119.00 113.35 10.91
3455 50.6809 128.00 116.02 11.31
3456 50.6927 119.00 118.82 10.91
3457 50.7046 125.00 121.79 11.18
3458 50.7164 115.00 124.89 10.72
3459 50.7282 116.00 128.14 10.77
3460 50.7400 134.00 131.56 11.58
3461 50.7517 132.00 135.16 11.49
3462 50.7636 160.00 139.00 12.65
3463 50.7754 135.00 143.03 11.62
3464 50.7872 161.00 147.29 12.69
3465 50.7990 147.00 151.83 12.12
3466 50.8108 172.00 156.66 13.11
3467 50.8227 186.00 161.86 13.64
3468 50.8344 172.00 167.38 13.11
3469 50.8462 200.00 173.29 14.14
3470 50.8580 167.00 179.61 12.92
3471 50.8698 179.00 186.35 13.38
3472 50.8817 202.00 193.58 14.21
3473 50.8935 198.00 201.15 14.07
3474 50.9053 224.00 209.05 14.97
3475 50.9170 215.00 217.18 14.66
3476 50.9288 230.00 225.36 15.17
3477 50.9406 211.00 233.38 14.53
3478 50.9525 217.00 241.02 14.73
3479 50.9643 233.00 247.84 15.26
3480 50.9761 217.00 253.61 14.73
3481 50.9879 246.00 258.05 15.68
3482 50.9996 232.00 261.00 15.23
3483 51.0115 237.00 262.64 15.39
3484 51.0233 262.00 262.58 16.19
3485 51.0351 232.00 261.27 15.23
3486 51.0469 261.00 259.00 16.16
3487 51.0587 256.00 256.07 16.00
3488 51.0705 251.00 252.77 15.84
3489 51.0823 228.00 249.40 15.10
3490 51.0941 248.00 246.15 15.75
3491 51.1059 262.00 243.15 16.19
3492 51.1177 238.00 240.51 15.43
3493 51.1295 230.00 238.24 15.17
3494 51.1414 227.00 236.37 15.07
3495 51.1531 202.00 234.90 14.21
3496 51.1649 247.00 233.78 15.72
3497 51.1767 238.00 232.95 15.43
3498 51.1885 226.00 232.37 15.03
3499 51.2004 236.00 231.97 15.36
3500 51.2122 238.00 231.70 15.43
3501 51.2240 230.00 231.48 15.17
3502 51.2357 198.00 231.28 14.07
3503 51.2475 263.00 231.03 16.22
3504 51.2594 231.00 230.69 15.20
3505 51.2712 217.00 230.24 14.73
3506 51.2830 241.00 229.63 15.52
3507 51.2948 226.00 228.86 15.03
3508 51.3065 214.00 227.91 14.63
3509 51.3184 202.00 226.75 14.21
3510 51.3302 211.00 225.40 14.53
3511 51.3420 235.00 223.85 15.33
3512 51.3538 214.00 222.09 14.63
3513 51.3656 227.00 220.12 15.07
3514 51.3774 229.00 217.82 15.13
3515 51.3892 212.00 215.39 14.56
3516 51.4010 212.00 212.75 14.56
3517 51.4128 200.00 209.88 14.14
3518 51.4246 200.00 206.78 14.14
3519 51.4364 197.00 203.45 14.04
3520 51.4483 180.00 199.86 13.42
3521 51.4601 196.00 196.09 14.00
3522 51.4718 191.00 192.12 13.82
3523 51.4836 179.00 187.98 13.38
3524 51.4954 198.00 183.68 14.07
3525 51.5073 181.00 179.24 13.45
3526 51.5191 177.00 174.74 13.30
3527 51.5309 180.00 170.18 13.42
3528 51.5427 142.00 165.61 11.92
3529 51.5544 174.00 161.04 13.19
3530 51.5663 136.00 156.48 11.66
3531 51.5781 148.00 152.01 12.17
3532 51.5899 157.00 147.63 12.53
3533 51.6017 157.00 143.35 12.53
3534 51.6135 151.00 139.20 12.29
3535 51.6252 120.00 135.18 10.95
3536 51.6371 131.00 131.27 11.45
3537 51.6489 121.00 127.54 11.00
3538 51.6607 122.00 123.97 11.05
3539 51.6725 123.00 120.56 11.09
3540 51.6843 133.00 117.31 11.53
3541 51.6962 112.00 114.19 10.58
3542 51.7079 108.00 111.25 10.39
3543 51.7197 130.00 108.47 11.40
3544 51.7315 99.00 105.85 9.95
3545 51.7433 114.00 103.36 10.68
3546 51.7552 105.00 101.01 10.25
3547 51.7670 99.00 98.81 9.95
3548 51.7788 99.00 96.75 9.95
3549 51.7905 84.00 94.82 9.17
3550 51.8023 103.00 93.01 10.15
3551 51.8142 113.00 91.31 10.63
3552 51.8260 72.00 89.74 8.49
3553 51.8378 82.00 88.27 9.06
3554 51.8496 95.00 86.90 9.75
3555 51.8613 85.00 85.63 9.22
3556 51.8731 96.00 84.46 9.80
3557 51.8850 91.00 83.36 9.54
3558 51.8968 77.00 82.36 8.77
3559 51.9086 70.00 81.44 8.37
3560 51.9204 84.00 80.59 9.17
3561 51.9322 90.00 79.82 9.49
3562 51.9440 80.00 79.10 8.94
3563 51.9558 93.00 78.46 9.64
3564 51.9676 96.00 77.88 9.80
3565 51.9794 68.00 77.36 8.25
3566 51.9912 85.00 76.90 9.22
3567 52.0031 85.00 76.48 9.22
3568 52.0149 99.00 76.13 9.95
3569 52.0266 83.00 75.83 9.11
3570 52.0384 72.00 75.63 8.49
3571 52.0502 91.00 75.44 9.54
3572 52.0621 72.00 75.27 8.49
3573 52.0739 77.00 75.17 8.77
3574 52.0857 67.00 75.14 8.19
3575 52.0974 87.00 75.15 9.33
3576 52.1092 79.00 75.22 8.89
3577 52.1210 66.00 75.35 8.12
3578 52.1329 83.00 75.53 9.11
3579 52.1447 69.00 75.78 8.31
3580 52.1565 74.00 76.08 8.60
3581 52.1683 75.00 76.45 8.66
3582 52.1800 63.00 76.88 7.94
3583 52.1919 75.00 77.38 8.66
3584 52.2037 78.00 77.93 8.83
3585 52.2155 57.00 78.55 7.55
3586 52.2273 71.00 79.23 8.43
3587 52.2391 82.00 79.95 9.06
3588 52.2509 83.00 80.73 9.11
3589 52.2627 85.00 81.53 9.22
3590 52.2745 87.00 82.35 9.33
3591 52.2863 87.00 83.17 9.33
3592 52.2981 85.00 83.96 9.22
3593 52.3099 90.00 84.70 9.49
3594 52.3218 80.00 85.35 8.94
3595 52.3335 78.00 85.89 8.83
3596 52.3453 93.00 86.28 9.64
3597 52.3571 78.00 86.52 8.83
3598 52.3689 99.00 86.58 9.95
3599 52.3808 81.00 86.48 9.00
3600 52.3926 96.00 86.21 9.80
3601 52.4044 99.00 85.81 9.95
3602 52.4161 88.00 85.30 9.38
3603 52.4279 79.00 84.71 8.89
3604 52.4398 92.00 84.05 9.59
3605 52.4516 104.00 83.39 10.20
3606 52.4634 92.00 82.73 9.59
3607 52.4752 84.00 82.10 9.17
3608 52.4869 77.00 81.52 8.77
3609 52.4988 73.00 80.99 8.54
3610 52.5106 87.00 80.53 9.33
3611 52.5224 81.00 80.15 9.00
3612 52.5342 82.00 79.84 9.06
3613 52.5460 84.00 79.62 9.17
3614 52.5578 77.00 79.48 8.77
3615 52.5696 79.00 79.43 8.89
3616 52.5814 87.00 79.46 9.33
3617 52.5932 60.00 79.56 7.75
3618 52.6050 81.00 79.75 9.00
3619 52.6168 90.00 80.00 9.49
3620 52.6287 83.00 80.33 9.11
3621 52.6405 80.00 80.73 8.94
3622 52.6522 71.00 81.17 8.43
3623 52.6640 99.00 81.67 9.95
3624 52.6758 71.00 82.21 8.43
3625 52.6877 82.00 82.78 9.06
3626 52.6995 89.00 83.37 9.43
3627 52.7113 86.00 83.97 9.27
3628 52.7230 88.00 84.57 9.38
3629 52.7348 87.00 85.17 9.33
3630 52.7467 84.00 85.76 9.17
3631 52.7585 68.00 86.33 8.25
3632 52.7703 82.00 86.89 9.06
3633 52.7821 88.00 87.43 9.38
3634 52.7939 78.00 87.94 8.83
3635 52.8056 84.00 88.43 9.17
3636 52.8175 101.00 88.89 10.05
3637 52.8293 91.00 89.32 9.54
3638 52.8411 92.00 89.70 9.59
3639 52.8529 90.00 90.05 9.49
3640 52.8647 94.00 90.37 9.70
3641 52.8765 93.00 90.65 9.64
3642 52.8883 89.00 90.90 9.43
3643 52.9001 90.00 91.12 9.49
3644 52.9119 84.00 91.34 9.17
3645 52.9237 79.00 91.55 8.89
3646 52.9356 91.00 91.78 9.54
3647 52.9474 90.00 92.03 9.49
3648 52.9591 103.00 92.33 10.15
3649 52.9709 107.00 92.68 10.34
3650 52.9827 91.00 93.09 9.54
3651 52.9946 92.00 93.60 9.59
3652 53.0064 101.00 94.20 10.05
3653 53.0182 99.00 94.91 9.95
3654 53.0299 110.00 95.74 10.49
3655 53.0417 82.00 96.69 9.06
3656 53.0535 113.00 97.77 10.63
3657 53.0654 91.00 98.98 9.54
3658 53.0772 103.00 100.31 10.15
3659 53.0890 101.00 101.74 10.05
3660 53.1008 104.00 103.25 10.20
3661 53.1125 112.00 104.80 10.58
3662 53.1244 108.00 106.36 10.39
3663 53.1362 95.00 107.83 9.75
3664 53.1480 113.00 109.16 10.63
3665 53.1598 128.00 110.28 11.31
3666 53.1716 104.00 111.10 10.20
3667 53.1834 128.00 111.57 11.31
3668 53.1952 114.00 111.65 10.68
3669 53.2070 129.00 111.31 11.36
3670 53.2188 127.00 110.57 11.27
3671 53.2306 123.00 109.48 11.09
3672 53.2425 114.00 108.09 10.68
3673 53.2543 119.00 106.49 10.91
3674 53.2660 115.00 104.75 10.72
3675 53.2778 107.00 102.95 10.34
3676 53.2896 106.00 101.14 10.30
3677 53.3014 113.00 99.39 10.63
3678 53.3133 98.00 97.71 9.90
3679 53.3251 101.00 96.16 10.05
3680 53.3368 84.00 94.76 9.17
3681 53.3486 77.00 93.51 8.77
3682 53.3604 112.00 92.42 10.58
3683 53.3723 93.00 91.49 9.64
3684 53.3841 98.00 90.72 9.90
3685 53.3959 88.00 90.12 9.38
3686 53.4077 87.00 89.68 9.33
3687 53.4194 79.00 89.39 8.89
3688 53.4313 87.00 89.26 9.33
3689 53.4431 97.00 89.28 9.85
3690 53.4549 91.00 89.44 9.54
3691 53.4667 81.00 89.75 9.00
3692 53.4785 80.00 90.19 8.94
3693 53.4902 104.00 90.77 10.20
3694 53.5021 94.00 91.50 9.70
3695 53.5139 80.00 92.35 8.94
3696 53.5257 82.00 93.33 9.06
3697 53.5375 94.00 94.43 9.70
3698 53.5493 77.00 95.67 8.77
3699 53.5612 91.00 97.03 9.54
3700 53.5729 86.00 98.51 9.27
3701 53.5847 91.00 100.10 9.54
3702 53.5965 95.00 101.80 9.75
3703 53.6083 91.00 103.61 9.54
3704 53.6202 103.00 105.53 10.15
3705 53.6320 93.00 107.52 9.64
3706 53.6437 118.00 109.60 10.86
3707 53.6555 106.00 111.74 10.30
3708 53.6673 129.00 113.76 11.36
3709 53.6792 125.00 115.79 11.18
3710 53.6910 95.00 118.03 9.75
3711 53.7028 120.00 120.26 10.95
3712 53.7146 125.00 122.45 11.18
3713 53.7263 121.00 124.57 11.00
3714 53.7381 144.00 126.58 12.00
3715 53.7500 141.00 128.48 11.87
3716 53.7618 127.00 130.21 11.27
3717 53.7736 151.00 131.75 12.29
3718 53.7854 134.00 133.08 11.58
3719 53.7971 125.00 134.20 11.18
3720 53.8090 130.00 135.10 11.40
3721 53.8208 136.00 135.78 11.66
3722 53.8326 144.00 136.25 12.00
3723 53.8444 160.00 136.55 12.65
3724 53.8562 159.00 136.70 12.61
3725 53.8680 125.00 136.75 11.18
3726 53.8798 123.00 136.72 11.09
3727 53.8916 129.00 136.67 11.36
3728 53.9034 142.00 136.63 11.92
3729 53.9152 131.00 136.65 11.45
3730 53.9271 133.00 136.75 11.53
3731 53.9389 142.00 136.98 11.92
3732 53.9506 139.00 137.36 11.79
3733 53.9624 135.00 137.91 11.62
3734 53.9742 132.00 138.67 11.49
3735 53.9860 138.00 139.65 11.75
3736 53.9979 144.00 140.86 12.00
3737 54.0097 125.00 142.31 11.18
3738 54.0214 141.00 144.02 11.87
3739 54.0332 142.00 145.98 11.92
3740 54.0450 154.00 148.19 12.41
3741 54.0569 124.00 150.68 11.14
3742 54.0687 170.00 153.40 13.04
3743 54.0805 160.00 156.36 12.65
3744 54.0923 171.00 159.54 13.08
3745 54.1040 175.00 162.93 13.23
3746 54.1159 187.00 166.52 13.67
3747 54.1277 154.00 170.24 12.41
3748 54.1395 182.00 174.07 13.49
3749 54.1513 180.00 177.96 13.42
3750 54.1631 191.00 182.04 13.82
3751 54.1749 187.00 185.95 13.67
3752 54.1867 194.00 189.73 13.93
3753 54.1985 227.00 193.33 15.07
3754 54.2103 196.00 196.69 14.00
3755 54.2221 182.00 199.74 13.49
3756 54.2339 209.00 202.42 14.46
3757 54.2458 213.00 204.67 14.59
3758 54.2575 210.00 206.41 14.49
3759 54.2693 180.00 207.63 13.42
3760 54.2811 223.00 208.30 14.93
3761 54.2929 214.00 208.43 14.63
3762 54.3048 228.00 208.02 15.10
3763 54.3166 227.00 207.12 15.07
3764 54.3283 228.00 205.76 15.10
3765 54.3401 213.00 204.02 14.59
3766 54.3519 181.00 201.95 13.45
3767 54.3638 222.00 199.61 14.90
3768 54.3756 220.00 197.11 14.83
3769 54.3874 214.00 194.51 14.63
3770 54.3991 214.00 191.87 14.63
3771 54.4109 203.00 189.26 14.25
3772 54.4228 163.00 186.71 12.77
3773 54.4346 196.00 184.32 14.00
3774 54.4464 173.00 182.12 13.15
3775 54.4582 186.00 180.13 13.64
3776 54.4700 180.00 178.39 13.42
3777 54.4817 177.00 176.93 13.30
3778 54.4936 175.00 175.74 13.23
3779 54.5054 179.00 174.86 13.38
3780 54.5172 183.00 174.29 13.53
3781 54.5290 163.00 174.02 12.77
3782 54.5408 168.00 174.04 12.96
3783 54.5526 166.00 174.37 12.88
3784 54.5644 170.00 174.97 13.04
3785 54.5762 166.00 175.83 12.88
3786 54.5880 173.00 176.94 13.15
3787 54.5998 185.00 178.28 13.60
3788 54.6117 192.00 179.84 13.86
3789 54.6235 177.00 181.59 13.30
3790 54.6352 190.00 183.52 13.78
3791 54.6470 195.00 185.61 13.96
3792 54.6588 207.00 187.84 14.39
3793 54.6706 219.00 190.20 14.80
3794 54.6825 168.00 192.68 12.96
3795 54.6943 228.00 195.22 15.10
3796 54.7060 212.00 197.81 14.56
3797 54.7178 200.00 200.42 14.14
3798 54.7296 211.00 203.00 14.53
3799 54.7415 186.00 205.53 13.64
3800 54.7533 192.00 207.93 13.86
3801 54.7651 173.00 210.18 13.15
3802 54.7768 231.00 212.22 15.20
3803 54.7886 199.00 214.01 14.11
3804 54.8005 214.00 215.51 14.63
3805 54.8123 213.00 216.60 14.59
3806 54.8241 220.00 217.26 14.83
3807 54.8359 219.00 217.65 14.80
3808 54.8476 199.00 217.64 14.11
3809 54.8595 184.00 217.20 13.56
3810 54.8713 234.00 216.34 15.30
3811 54.8831 208.00 215.07 14.42
3812 54.8949 237.00 213.40 15.39
3813 54.9067 232.00 211.36 15.23
3814 54.9185 197.00 208.99 14.04
3815 54.9303 215.00 206.28 14.66
3816 54.9421 219.00 203.32 14.80
3817 54.9539 218.00 200.14 14.76
3818 54.9657 178.00 196.76 13.34
3819 54.9775 187.00 193.23 13.67
3820 54.9894 200.00 189.56 14.14
3821 55.0011 225.00 185.84 15.00
3822 55.0129 190.00 182.08 13.78
3823 55.0247 163.00 178.32 12.77
3824 55.0365 190.00 174.58 13.78
3825 55.0484 195.00 170.86 13.96
3826 55.0602 184.00 167.25 13.56
3827 55.0719 162.00 163.73 12.73
3828 55.0837 162.00 160.34 12.73
3829 55.0955 168.00 157.09 12.96
3830 55.1074 169.00 153.97 13.00
3831 55.1192 170.00 151.04 13.04
3832 55.1310 164.00 148.30 12.81
3833 55.1428 159.00 145.74 12.61
3834 55.1545 135.00 143.39 11.62
3835 55.1663 129.00 141.23 11.36
3836 55.1782 151.00 139.27 12.29
3837 55.1900 142.00 137.55 11.92
3838 55.2018 132.00 136.03 11.49
3839 55.2136 124.00 134.73 11.14
3840 55.2253 154.00 133.64 12.41
3841 55.2372 140.00 132.76 11.83
3842 55.2490 133.00 132.10 11.53
3843 55.2608 138.00 131.64 11.75
3844 55.2726 120.00 131.38 10.95
3845 55.2844 146.00 131.32 12.08
3846 55.2962 126.00 131.45 11.23
3847 55.3080 136.00 131.76 11.66
3848 55.3198 139.00 132.25 11.79
3849 55.3316 151.00 132.89 12.29
3850 55.3434 152.00 133.69 12.33
3851 55.3553 115.00 134.64 10.72
3852 55.3671 124.00 135.71 11.14
3853 55.3788 149.00 137.15 12.21
3854 55.3906 144.00 138.44 12.00
3855 55.4024 141.00 139.81 11.87
3856 55.4142 135.00 141.25 11.62
3857 55.4261 145.00 142.76 12.04
3858 55.4379 140.00 144.28 11.83
3859 55.4496 146.00 145.82 12.08
3860 55.4614 162.00 147.35 12.73
3861 55.4732 147.00 148.86 12.12
3862 55.4851 163.00 150.33 12.77
3863 55.4969 155.00 151.73 12.45
3864 55.5087 153.00 153.05 12.37
3865 55.5204 149.00 154.28 12.21
3866 55.5322 149.00 155.39 12.21
3867 55.5441 158.00 156.38 12.57
3868 55.5559 151.00 157.23 12.29
3869 55.5677 172.00 157.92 13.11
3870 55.5795 160.00 158.45 12.65
3871 55.5912 187.00 158.80 13.67
3872 55.6031 175.00 158.98 13.23
3873 55.6149 179.00 158.96 13.38
3874 55.6267 171.00 158.74 13.08
3875 55.6385 157.00 158.33 12.53
3876 55.6503 143.00 157.71 11.96
3877 55.6620 153.00 156.89 12.37
3878 55.6739 138.00 155.86 11.75
3879 55.6857 157.00 154.64 12.53
3880 55.6975 181.00 153.24 13.45
3881 55.7093 168.00 151.67 12.96
3882 55.7211 139.00 149.94 11.79
3883 55.7330 143.00 148.06 11.96
3884 55.7447 158.00 146.07 12.57
3885 55.7565 136.00 143.99 11.66
3886 55.7683 150.00 141.83 12.25
3887 55.7801 169.00 139.62 13.00
3888 55.7920 131.00 137.36 11.45
3889 55.8038 116.00 135.11 10.77
3890 55.8155 141.00 132.86 11.87
3891 55.8273 127.00 130.65 11.27
3892 55.8391 115.00 128.44 10.72
3893 55.8509 140.00 126.32 11.83
3894 55.8628 125.00 124.25 11.18
3895 55.8746 107.00 122.29 10.34
3896 55.8863 139.00 120.41 11.79
3897 55.8981 114.00 118.64 10.68
3898 55.9099 99.00 116.99 9.95
3899 55.9218 114.00 115.43 10.68
3900 55.9336 124.00 114.02 11.14
3901 55.9454 111.00 112.74 10.54
3902 55.9571 111.00 111.59 10.54
3903 55.9689 116.00 110.58 10.77
3904 55.9808 118.00 109.72 10.86
3905 55.9926 107.00 109.01 10.34
3906 56.0044 125.00 108.45 11.18
3907 56.0162 114.00 108.05 10.68
3908 56.0280 138.00 107.81 11.75
3909 56.0398 91.00 107.73 9.54
3910 56.0516 107.00 107.81 10.34
3911 56.0634 139.00 108.06 11.79
3912 56.0752 124.00 108.48 11.14
3913 56.0870 113.00 109.07 10.63
3914 56.0988 110.00 109.82 10.49
3915 56.1106 118.00 110.75 10.86
3916 56.1224 123.00 111.84 11.09
3917 56.1342 111.00 113.09 10.54
3918 56.1460 129.00 114.50 11.36
3919 56.1578 136.00 116.06 11.66
3920 56.1697 146.00 117.76 12.08
3921 56.1814 117.00 119.58 10.82
3922 56.1932 135.00 121.50 11.62
3923 56.2050 135.00 123.51 11.62
3924 56.2168 125.00 125.58 11.18
3925 56.2287 143.00 127.71 11.96
3926 56.2405 140.00 129.80 11.83
3927 56.2522 139.00 131.93 11.79
3928 56.2640 145.00 134.03 12.04
3929 56.2758 161.00 136.11 12.69
3930 56.2877 163.00 138.18 12.77
3931 56.2995 144.00 140.21 12.00
3932 56.3113 141.00 142.23 11.87
3933 56.3231 190.00 144.27 13.78
3934 56.3348 171.00 146.36 13.08
3935 56.3466 164.00 148.51 12.81
3936 56.3585 144.00 150.78 12.00
3937 56.3703 129.00 153.15 11.36
3938 56.3821 175.00 155.66 13.23
3939 56.3939 149.00 158.32 12.21
3940 56.4056 181.00 161.14 13.45
3941 56.4175 159.00 164.14 12.61
3942 56.4293 158.00 167.27 12.57
3943 56.4411 159.00 170.52 12.61
3944 56.4529 198.00 173.87 14.07
3945 56.4647 189.00 177.28 13.75
3946 56.4765 193.00 180.73 13.89
3947 56.4883 197.00 184.12 14.04
3948 56.5001 193.00 187.41 13.89
3949 56.5119 187.00 190.54 13.67
3950 56.5237 203.00 193.45 14.25
3951 56.5356 213.00 196.09 14.59
3952 56.5473 198.00 198.37 14.07
3953 56.5591 198.00 200.25 14.07
3954 56.5709 224.00 201.71 14.97
3955 56.5827 209.00 202.73 14.46
3956 56.5945 199.00 203.31 14.11
3957 56.6064 220.00 203.46 14.83
3958 56.6181 223.00 203.21 14.93
3959 56.6299 182.00 202.61 13.49
3960 56.6417 194.00 201.70 13.93
3961 56.6535 222.00 200.54 14.90
3962 56.6654 186.00 199.18 13.64
3963 56.6772 194.00 197.69 13.93
3964 56.6889 197.00 196.10 14.04
3965 56.7007 171.00 194.46 13.08
3966 56.7125 221.00 192.80 14.87
3967 56.7244 208.00 191.13 14.42
3968 56.7362 191.00 189.49 13.82
3969 56.7480 202.00 187.89 14.21
3970 56.7597 186.00 186.32 13.64
3971 56.7715 172.00 184.79 13.11
3972 56.7834 170.00 183.26 13.04
3973 56.7952 198.00 181.75 14.07
3974 56.8070 173.00 180.24 13.15
3975 56.8188 184.00 178.71 13.56
3976 56.8305 170.00 177.15 13.04
3977 56.8423 189.00 175.54 13.75
3978 56.8542 183.00 173.86 13.53
3979 56.8660 182.00 172.11 13.49
3980 56.8778 172.00 170.29 13.11
3981 56.8896 185.00 168.37 13.60
3982 56.9014 185.00 166.37 13.60
3983 56.9132 144.00 164.23 12.00
3984 56.9250 157.00 162.04 12.53
3985 56.9368 170.00 159.77 13.04
3986 56.9486 149.00 157.42 12.21
3987 56.9604 127.00 154.99 11.27
3988 56.9723 138.00 152.49 11.75
3989 56.9840 129.00 149.95 11.36
3990 56.9958 140.00 147.37 11.83
3991 57.0076 140.00 144.77 11.83
3992 57.0194 138.00 142.15 11.75
3993 57.0312 121.00 139.53 11.00
3994 57.0431 124.00 136.91 11.14
3995 57.0548 140.00 134.32 11.83
3996 57.0666 123.00 131.78 11.09
3997 57.0784 106.00 129.28 10.30
3998 57.0902 121.00 126.83 11.00
3999 57.1021 118.00 124.43 10.86
4000 57.1139 114.00 122.12 10.68
4001 57.1256 104.00 119.89 10.20
4002 57.1374 110.00 117.75 10.49
4003 57.1492 109.00 115.70 10.44
4004 57.1611 123.00 113.72 11.09
4005 57.1729 112.00 111.87 10.58
4006 57.1847 107.00 110.11 10.34
4007 57.1964 99.00 108.46 9.95
4008 57.2082 103.00 106.92 10.15
4009 57.2201 105.00 105.47 10.25
4010 57.2319 115.00 104.14 10.72
4011 57.2437 113.00 102.93 10.63
4012 57.2555 89.00 101.82 9.43
4013 57.2672 102.00 100.82 10.10
4014 57.2790 98.00 99.93 9.90
4015 57.2909 114.00 99.13 10.68
4016 57.3027 104.00 98.45 10.20
4017 57.3145 99.00 97.86 9.95
4018 57.3263 103.00 97.38 10.15
4019 57.3380 89.00 96.98 9.43
4020 57.3499 95.00 96.66 9.75
4021 57.3617 116.00 96.43 10.77
4022 57.3735 119.00 96.30 10.91
4023 57.3853 109.00 96.20 10.44
4024 57.3971 89.00 96.14 9.43
4025 57.4089 124.00 96.13 11.14
4026 57.4207 95.00 96.13 9.75
4027 57.4325 111.00 96.15 10.54
4028 57.4443 88.00 96.17 9.38
4029 57.4561 105.00 96.18 10.25
4030 57.4680 101.00 96.16 10.05
4031 57.4797 125.00 96.07 11.18
4032 57.4915 100.00 95.99 10.00
4033 57.5033 95.00 95.88 9.75
4034 57.5151 91.00 95.74 9.54
4035 57.5269 104.00 95.57 10.20
4036 57.5388 97.00 95.40 9.85
4037 57.5505 117.00 95.22 10.82
4038 57.5623 86.00 95.06 9.27
4039 57.5741 103.00 94.92 10.15
4040 57.5859 124.00 94.82 11.14
4041 57.5978 86.00 94.78 9.27
4042 57.6096 111.00 94.80 10.54
4043 57.6213 117.00 94.90 10.82
4044 57.6331 122.00 95.08 11.05
4045 57.6449 88.00 95.36 9.38
4046 57.6568 102.00 95.73 10.10
4047 57.6686 96.00 96.21 9.80
4048 57.6804 92.00 96.80 9.59
4049 57.6922 80.00 97.49 8.94
4050 57.7039 115.00 98.30 10.72
4051 57.7158 103.00 99.22 10.15
4052 57.7276 94.00 100.25 9.70
4053 57.7394 89.00 101.38 9.43
4054 57.7512 121.00 102.61 11.00
4055 57.7630 112.00 103.93 10.58
4056 57.7747 122.00 105.34 11.05
4057 57.7866 105.00 106.82 10.25
4058 57.7984 124.00 108.36 11.14
4059 57.8102 118.00 109.91 10.86
4060 57.8220 102.00 111.50 10.10
4061 57.8338 120.00 113.08 10.95
4062 57.8456 130.00 114.64 11.40
4063 57.8574 107.00 116.13 10.34
4064 57.8692 118.00 117.51 10.86
4065 57.8810 113.00 118.76 10.63
4066 57.8928 116.00 119.84 10.77
4067 57.9046 119.00 120.73 10.91
4068 57.9164 134.00 121.39 11.58
4069 57.9282 136.00 121.80 11.66
4070 57.9400 125.00 121.96 11.18
4071 57.9518 113.00 121.85 10.63
4072 57.9637 117.00 121.49 10.82
4073 57.9754 134.00 120.88 11.58
4074 57.9872 104.00 120.06 10.20
4075 57.9990 126.00 119.04 11.23
4076 58.0108 127.00 117.80 11.27
4077 58.0226 125.00 116.50 11.18
4078 58.0345 116.00 115.08 10.77
4079 58.0462 123.00 113.55 11.09
4080 58.0580 112.00 112.06 10.58
4081 58.0698 103.00 110.56 10.15
4082 58.0816 108.00 109.08 10.39
4083 58.0935 101.00 107.64 10.05
4084 58.1053 102.00 106.26 10.10
4085 58.1171 109.00 104.97 10.44
4086 58.1288 94.00 103.76 9.70
4087 58.1406 116.00 102.65 10.77
4088 58.1525 79.00 101.64 8.89
4089 58.1643 91.00 100.75 9.54
4090 58.1761 95.00 99.99 9.75
4091 58.1879 86.00 99.34 9.27
4092 58.1996 116.00 98.81 10.77
4093 58.2114 76.00 98.42 8.72
4094 58.2233 107.00 98.14 10.34
4095 58.2351 98.00 98.00 9.90
4096 58.2469 98.00 97.98 9.90
4097 58.2586 101.00 98.07 10.05
4098 58.2704 107.00 98.29 10.34
4099 58.2823 90.00 98.62 9.49
4100 58.2941 81.00 99.05 9.00
4101 58.3059 101.00 99.59 10.05
4102 58.3177 95.00 100.20 9.75
4103 58.3294 98.00 100.90 9.90
4104 58.3413 87.00 101.65 9.33
4105 58.3531 106.00 102.44 10.30
4106 58.3649 119.00 103.24 10.91
4107 58.3767 94.00 104.03 9.70
4108 58.3885 113.00 104.77 10.63
4109 58.4004 111.00 105.44 10.54
4110 58.4121 102.00 105.99 10.10
4111 58.4239 109.00 106.39 10.44
4112 58.4357 93.00 106.60 9.64
4113 58.4475 110.00 106.62 10.49
4114 58.4593 95.00 106.42 9.75
4115 58.4711 124.00 105.99 11.14
4116 58.4829 102.00 105.36 10.10
4117 58.4947 126.00 104.54 11.23
4118 58.5065 84.00 103.56 9.17
4119 58.5183 118.00 102.43 10.86
4120 58.5302 104.00 101.19 10.20
4121 58.5420 118.00 99.87 10.86
4122 58.5537 109.00 98.50 10.44
4123 58.5655 82.00 97.10 9.06
4124 58.5773 105.00 95.69 10.25
4125 58.5892 92.00 94.27 9.59
4126 58.6010 93.00 92.88 9.64
4127 58.6128 106.00 91.52 10.30
4128 58.6245 106.00 90.20 10.30
4129 58.6363 94.00 88.92 9.70
4130 58.6482 74.00 87.69 8.60
4131 58.6600 78.00 86.52 8.83
4132 58.6718 82.00 85.40 9.06
4133 58.6835 78.00 84.34 8.83
4134 58.6953 90.00 83.35 9.49
4135 58.7071 81.00 82.42 9.00
4136 58.7190 72.00 81.54 8.49
4137 58.7308 69.00 80.73 8.31
4138 58.7426 107.00 79.98 10.34
4139 58.7543 79.00 79.29 8.89
4140 58.7661 76.00 78.79 8.72
4141 58.7780 76.00 78.22 8.72
4142 58.7898 73.00 77.72 8.54
4143 58.8016 76.00 77.27 8.72
4144 58.8134 83.00 76.88 9.11
4145 58.8251 82.00 76.55 9.06
4146 58.8370 86.00 76.28 9.27
4147 58.8488 80.00 76.06 8.94
4148 58.8606 74.00 75.90 8.60
4149 58.8724 75.00 75.80 8.66
4150 58.8842 61.00 75.74 7.81
4151 58.8960 80.00 75.75 8.94
4152 58.9078 83.00 75.80 9.11
4153 58.9196 79.00 75.91 8.89
4154 58.9314 73.00 76.07 8.54
4155 58.9432 87.00 76.29 9.33
4156 58.9550 71.00 76.55 8.43
4157 58.9668 71.00 76.87 8.43
4158 58.9786 78.00 77.24 8.83
4159 58.9904 80.00 77.65 8.94
4160 59.0022 75.00 78.12 8.66
4161 59.0140 90.00 78.64 9.49
4162 59.0259 92.00 79.20 9.59
4163 59.0376 82.00 79.81 9.06
4164 59.0494 107.00 80.47 10.34
4165 59.0612 79.00 81.17 8.89
4166 59.0730 92.00 81.91 9.59
4167 59.0849 86.00 82.70 9.27
4168 59.0967 89.00 83.52 9.43
4169 59.1084 94.00 84.37 9.70
4170 59.1202 94.00 85.25 9.70
4171 59.1320 79.00 86.15 8.89
4172 59.1439 96.00 87.25 9.80
4173 59.1557 82.00 88.18 9.06
4174 59.1675 85.00 89.12 9.22
4175 59.1792 107.00 90.05 10.34
4176 59.1910 105.00 90.97 10.25
4177 59.2028 93.00 91.87 9.64
4178 59.2147 78.00 92.73 8.83
4179 59.2265 90.00 93.55 9.49
4180 59.2383 111.00 94.32 10.54
4181 59.2500 107.00 95.03 10.34
4182 59.2618 80.00 95.68 8.94
4183 59.2737 105.00 96.26 10.25
4184 59.2855 99.00 96.78 9.95
4185 59.2973 103.00 97.23 10.15
4186 59.3091 101.00 97.62 10.05
4187 59.3208 92.00 97.97 9.59
4188 59.3327 109.00 98.27 10.44
4189 59.3445 108.00 98.55 10.39
4190 59.3563 97.00 98.81 9.85
4191 59.3681 102.00 99.06 10.10
4192 59.3799 106.00 99.33 10.30
4193 59.3916 100.00 99.61 10.00
4194 59.4035 79.00 99.92 8.89
4195 59.4153 90.00 100.29 9.49
4196 59.4271 111.00 100.71 10.54
4197 59.4389 92.00 101.20 9.59
4198 59.4506 121.00 101.76 11.00
4199 59.4625 97.00 102.41 9.85
4200 59.4743 101.00 103.14 10.05
4201 59.4861 93.00 103.97 9.64
4202 59.4979 107.00 104.89 10.34
4203 59.5097 91.00 105.92 9.54
4204 59.5215 106.00 107.07 10.30
4205 59.5333 102.00 108.31 10.10
4206 59.5451 112.00 109.67 10.58
4207 59.5569 100.00 111.14 10.00
4208 59.5687 115.00 112.72 10.72
4209 59.5806 119.00 114.42 10.91
4210 59.5923 116.00 116.23 10.77
4211 59.6041 113.00 118.14 10.63
4212 59.6159 115.00 120.15 10.72
4213 59.6277 124.00 122.25 11.14
4214 59.6395 119.00 124.43 10.91
4215 59.6514 132.00 126.69 11.49
4216 59.6631 127.00 128.98 11.27
4217 59.6749 139.00 131.26 11.79
4218 59.6867 139.00 133.53 11.79
4219 59.6985 131.00 135.73 11.45
4220 59.7104 144.00 137.81 12.00
4221 59.7222 137.00 139.66 11.70
4222 59.7339 191.00 141.25 13.82
4223 59.7457 132.00 142.50 11.49
4224 59.7575 144.00 143.33 12.00
4225 59.7694 123.00 143.65 11.09
4226 59.7812 143.00 143.52 11.96
4227 59.7930 126.00 142.88 11.23
4228 59.8047 131.00 141.77 11.45
4229 59.8165 140.00 140.24 11.83
4230 59.8284 140.00 138.33 11.83
4231 59.8402 151.00 136.17 12.29
4232 59.8520 126.00 133.82 11.23
4233 59.8638 131.00 131.36 11.45
4234 59.8755 144.00 128.86 12.00
4235 59.8873 126.00 126.38 11.23
4236 59.8992 123.00 123.95 11.09
4237 59.9110 116.00 121.64 10.77
4238 59.9228 127.00 119.45 11.27
4239 59.9345 117.00 117.40 10.82
4240 59.9463 145.00 115.51 12.04
4241 59.9582 129.00 113.75 11.36
4242 59.9700 106.00 112.19 10.30
4243 59.9818 121.00 110.76 11.00
4244 59.9936 110.00 109.48 10.49
4245 60.0053 106.00 108.35 10.30
4246 60.0172 107.00 107.35 10.34
4247 60.0290 117.00 106.50 10.82
4248 60.0408 93.00 105.78 9.64
4249 60.0526 87.00 105.19 9.33
4250 60.0644 109.00 104.73 10.44
4251 60.0762 104.00 104.39 10.20
4252 60.0880 125.00 104.17 11.18
4253 60.0998 110.00 104.06 10.49
4254 60.1116 99.00 104.06 9.95
4255 60.1234 105.00 104.17 10.25
4256 60.1352 111.00 104.39 10.54
4257 60.1470 113.00 104.72 10.63
4258 60.1588 99.00 105.14 9.95
4259 60.1706 96.00 105.66 9.80
4260 60.1824 92.00 106.27 9.59
4261 60.1942 125.00 106.97 11.18
4262 60.2061 118.00 107.77 10.86
4263 60.2178 112.00 108.64 10.58
4264 60.2296 87.00 109.58 9.33
4265 60.2414 127.00 110.60 11.27
4266 60.2532 100.00 111.69 10.00
4267 60.2651 111.00 112.84 10.54
4268 60.2769 117.00 114.04 10.82
4269 60.2886 123.00 115.29 11.09
4270 60.3004 122.00 116.75 11.05
4271 60.3122 119.00 118.07 10.91
4272 60.3241 114.00 119.41 10.68
4273 60.3359 126.00 120.76 11.23
4274 60.3476 119.00 122.11 10.91
4275 60.3594 107.00 123.45 10.34
4276 60.3712 113.00 124.77 10.63
4277 60.3830 148.00 126.06 12.17
4278 60.3949 123.00 127.31 11.09
4279 60.4067 133.00 128.51 11.53
4280 60.4184 111.00 129.54 10.54
4281 60.4302 135.00 130.61 11.62
4282 60.4420 136.00 131.59 11.66
4283 60.4539 156.00 132.50 12.49
4284 60.4657 146.00 133.31 12.08
4285 60.4775 120.00 134.02 10.95
4286 60.4892 119.00 134.62 10.91
4287 60.5010 145.00 135.13 12.04
4288 60.5129 134.00 135.54 11.58
4289 60.5247 138.00 135.83 11.75
4290 60.5365 144.00 136.03 12.00
4291 60.5483 132.00 136.12 11.49
4292 60.5600 135.00 136.12 11.62
4293 60.5718 143.00 136.03 11.96
4294 60.5837 149.00 135.85 12.21
4295 60.5955 140.00 135.58 11.83
4296 60.6073 133.00 135.24 11.53
4297 60.6190 130.00 134.82 11.40
4298 60.6308 159.00 134.33 12.61
4299 60.6427 150.00 133.77 12.25
4300 60.6545 122.00 133.16 11.05
4301 60.6663 130.00 132.49 11.40
4302 60.6781 114.00 131.77 10.68
4303 60.6898 140.00 131.01 11.83
4304 60.7017 116.00 130.20 10.77
4305 60.7135 130.00 129.35 11.40
4306 60.7253 121.00 128.47 11.00
4307 60.7371 120.00 127.56 10.95
4308 60.7489 137.00 126.61 11.70
4309 60.7607 133.00 125.63 11.53
4310 60.7725 128.00 124.62 11.31
4311 60.7843 130.00 123.60 11.40
4312 60.7961 142.00 122.54 11.92
4313 60.8079 114.00 121.46 10.68
4314 60.8197 127.00 120.36 11.27
4315 60.8315 115.00 119.23 10.72
4316 60.8433 131.00 118.08 11.45
4317 60.8551 113.00 116.93 10.63
4318 60.8669 119.00 115.75 10.91
4319 60.8787 124.00 114.57 11.14
4320 60.8905 138.00 113.36 11.75
4321 60.9023 131.00 112.16 11.45
4322 60.9141 119.00 110.96 10.91
4323 60.9259 117.00 109.76 10.82
4324 60.9377 115.00 108.56 10.72
4325 60.9496 121.00 107.36 11.00
4326 60.9613 99.00 106.17 9.95
4327 60.9731 116.00 105.00 10.77
4328 60.9849 109.00 103.83 10.44
4329 60.9967 115.00 102.68 10.72
4330 61.0086 113.00 101.53 10.63
4331 61.0204 98.00 100.41 9.90
4332 61.0321 108.00 99.31 10.39
4333 61.0439 113.00 98.22 10.63
4334 61.0557 110.00 97.16 10.49
4335 61.0675 103.00 96.11 10.15
4336 61.0794 109.00 95.09 10.44
4337 61.0912 114.00 94.09 10.68
4338 61.1029 98.00 93.13 9.90
4339 61.1147 94.00 92.18 9.70
4340 61.1265 105.00 91.28 10.25
4341 61.1384 98.00 90.40 9.90
4342 61.1502 99.00 89.57 9.95
4343 61.1619 81.00 88.78 9.00
4344 61.1737 80.00 88.02 8.94
4345 61.1855 88.00 87.31 9.38
4346 61.1974 115.00 86.63 10.72
4347 61.2092 100.00 86.01 10.00
4348 61.2210 107.00 85.42 10.34
4349 61.2327 77.00 84.88 8.77
4350 61.2445 66.00 84.39 8.12
4351 61.2564 93.00 83.93 9.64
4352 61.2682 87.00 83.52 9.33
4353 61.2800 75.00 83.15 8.66
4354 61.2918 75.00 82.82 8.66
4355 61.3035 86.00 82.57 9.27
4356 61.3153 80.00 82.31 8.94
4357 61.3272 95.00 82.09 9.75
4358 61.3390 85.00 81.90 9.22
4359 61.3508 88.00 81.73 9.38
4360 61.3626 72.00 81.59 8.49
4361 61.3743 77.00 81.46 8.77
4362 61.3862 76.00 81.35 8.72
4363 61.3980 71.00 81.26 8.43
4364 61.4098 89.00 81.17 9.43
4365 61.4216 85.00 81.09 9.22
4366 61.4333 99.00 81.00 9.95
4367 61.4452 72.00 80.90 8.49
4368 61.4570 73.00 80.80 8.54
4369 61.4688 85.00 80.69 9.22
4370 61.4806 84.00 80.55 9.17
4371 61.4924 75.00 80.40 8.66
4372 61.5042 77.00 80.22 8.77
4373 61.5160 89.00 80.02 9.43
4374 61.5278 71.00 79.80 8.43
4375 61.5396 59.00 79.55 7.68
4376 61.5514 88.00 79.28 9.38
4377 61.5632 88.00 78.95 9.38
4378 61.5750 81.00 78.62 9.00
4379 61.5868 76.00 78.27 8.72
4380 61.5986 70.00 77.90 8.37
4381 61.6104 76.00 77.52 8.72
4382 61.6222 66.00 77.12 8.12
4383 61.6340 85.00 76.70 9.22
4384 61.6458 71.00 76.27 8.43
4385 61.6576 96.00 75.84 9.80
4386 61.6694 84.00 75.40 9.17
4387 61.6812 71.00 74.97 8.43
4388 61.6931 77.00 74.53 8.77
4389 61.7048 60.00 74.09 7.75
4390 61.7166 84.00 73.67 9.17
4391 61.7284 59.00 73.25 7.68
4392 61.7402 67.00 72.85 8.19
4393 61.7520 70.00 72.46 8.37
4394 61.7639 83.00 72.08 9.11
4395 61.7756 87.00 71.72 9.33
4396 61.7874 54.00 71.38 7.35
4397 61.7992 64.00 71.05 8.00
4398 61.8110 68.00 70.75 8.25
4399 61.8229 80.00 70.49 8.94
4400 61.8346 78.00 70.22 8.83
4401 61.8464 73.00 69.98 8.54
4402 61.8582 76.00 69.76 8.72
4403 61.8700 83.00 69.56 9.11
4404 61.8819 56.00 69.38 7.48
4405 61.8937 81.00 69.22 9.00
4406 61.9054 48.00 69.07 6.93
4407 61.9172 82.00 68.94 9.06
4408 61.9290 68.00 68.82 8.25
4409 61.9409 72.00 68.72 8.49
4410 61.9527 72.00 68.54 8.49
4411 61.9645 53.00 68.46 7.28
4412 61.9762 84.00 68.39 9.17
4413 61.9880 70.00 68.33 8.37
4414 61.9998 53.00 68.28 7.28
4415 62.0117 55.00 68.25 7.42
4416 62.0235 66.00 68.22 8.12
4417 62.0352 69.00 68.22 8.31
4418 62.0470 75.00 68.23 8.66
4419 62.0588 74.00 68.25 8.60
4420 62.0707 74.00 68.29 8.60
4421 62.0825 87.00 68.36 9.33
4422 62.0943 65.00 68.44 8.06
4423 62.1060 84.00 68.54 9.17
4424 62.1178 61.00 68.66 7.81
4425 62.1297 67.00 68.80 8.19
4426 62.1415 73.00 68.96 8.54
4427 62.1533 70.00 69.13 8.37
4428 62.1651 77.00 69.31 8.77
4429 62.1768 74.00 69.51 8.60
4430 62.1887 80.00 69.73 8.94
4431 62.2005 72.00 69.96 8.49
4432 62.2123 73.00 70.20 8.54
4433 62.2241 73.00 70.46 8.54
4434 62.2358 59.00 70.73 7.68
4435 62.2476 66.00 71.00 8.12
4436 62.2595 64.00 71.29 8.00
4437 62.2713 71.00 71.59 8.43
4438 62.2831 63.00 71.89 7.94
4439 62.2949 99.00 72.18 9.95
4440 62.3066 81.00 72.50 9.00
4441 62.3185 79.00 72.82 8.89
4442 62.3303 78.00 73.15 8.83
4443 62.3421 73.00 73.48 8.54
4444 62.3539 83.00 73.82 9.11
4445 62.3657 67.00 74.16 8.19
4446 62.3775 71.00 74.50 8.43
4447 62.3893 82.00 74.85 9.06
4448 62.4011 78.00 75.20 8.83
4449 62.4129 76.00 75.55 8.72
4450 62.4247 85.00 75.90 9.22
4451 62.4365 77.00 76.26 8.77
4452 62.4483 82.00 76.63 9.06
4453 62.4601 77.00 77.00 8.77
4454 62.4719 80.00 77.37 8.94
4455 62.4837 91.00 77.75 9.54
4456 62.4955 85.00 78.13 9.22
4457 62.5073 87.00 78.51 9.33
4458 62.5191 91.00 78.90 9.54
4459 62.5309 92.00 79.29 9.59
4460 62.5427 76.00 79.68 8.72
4461 62.5545 90.00 80.07 9.49
4462 62.5663 94.00 80.36 9.70
4463 62.5781 82.00 80.73 9.06
4464 62.5899 84.00 81.10 9.17
4465 62.6017 97.00 81.46 9.85
4466 62.6135 85.00 81.80 9.22
4467 62.6254 93.00 82.12 9.64
4468 62.6371 88.00 82.43 9.38
4469 62.6489 108.00 82.71 10.39
4470 62.6607 86.00 82.97 9.27
4471 62.6725 79.00 83.20 8.89
4472 62.6844 98.00 83.40 9.90
4473 62.6962 98.00 83.57 9.90
4474 62.7079 84.00 83.70 9.17
4475 62.7197 90.00 83.81 9.49
4476 62.7315 95.00 83.87 9.75
4477 62.7433 84.00 83.90 9.17
4478 62.7552 88.00 83.89 9.38
4479 62.7669 98.00 83.85 9.90
4480 62.7787 84.00 83.78 9.17
4481 62.7905 79.00 83.69 8.89
4482 62.8023 81.00 83.58 9.00
4483 62.8142 97.00 83.44 9.85
4484 62.8260 74.00 83.30 8.60
4485 62.8377 79.00 83.15 8.89
4486 62.8495 88.00 82.99 9.38
4487 62.8613 90.00 82.85 9.49
4488 62.8732 80.00 82.71 8.94
4489 62.8850 81.00 82.59 9.00
4490 62.8967 90.00 82.50 9.49
4491 62.9085 86.00 82.43 9.27
4492 62.9203 70.00 82.39 8.37
4493 62.9322 105.00 82.39 10.25
4494 62.9440 89.00 82.42 9.43
4495 62.9558 71.00 82.50 8.43
4496 62.9675 92.00 82.63 9.59
4497 62.9793 74.00 82.80 8.60
4498 62.9911 73.00 83.03 8.54
4499 63.0030 86.00 83.30 9.27
4500 63.0148 84.00 83.63 9.17
4501 63.0266 92.00 84.01 9.59
4502 63.0383 88.00 84.45 9.38
4503 63.0501 81.00 84.95 9.00
4504 63.0620 99.00 85.50 9.95
4505 63.0738 74.00 86.11 8.60
4506 63.0856 80.00 86.78 8.94
4507 63.0973 92.00 87.50 9.59
4508 63.1091 89.00 88.28 9.43
4509 63.1210 86.00 89.12 9.27
4510 63.1328 113.00 90.01 10.63
4511 63.1446 89.00 90.94 9.43
4512 63.1564 95.00 91.95 9.75
4513 63.1681 88.00 93.00 9.38
4514 63.1799 100.00 94.10 10.00
4515 63.1918 79.00 95.27 8.89
4516 63.2036 99.00 96.48 9.95
4517 63.2154 97.00 97.75 9.85
4518 63.2271 84.00 99.03 9.17
4519 63.2389 97.00 100.40 9.85
4520 63.2508 105.00 101.84 10.25
4521 63.2626 92.00 103.32 9.59
4522 63.2744 112.00 104.86 10.58
4523 63.2862 109.00 106.46 10.44
4524 63.2979 106.00 108.12 10.30
4525 63.3098 100.00 109.86 10.00
4526 63.3216 108.00 111.65 10.39
4527 63.3334 82.00 113.50 9.06
4528 63.3452 122.00 115.39 11.05
4529 63.3569 116.00 117.34 10.77
4530 63.3688 99.00 119.33 9.95
4531 63.3806 120.00 121.31 10.95
4532 63.3924 112.00 123.27 10.58
4533 63.4042 98.00 125.17 9.90
4534 63.4160 135.00 126.98 11.62
4535 63.4277 121.00 128.64 11.00
4536 63.4396 111.00 130.11 10.54
4537 63.4514 125.00 131.31 11.18
4538 63.4632 115.00 132.21 10.72
4539 63.4750 118.00 132.77 10.86
4540 63.4868 145.00 132.97 12.04
4541 63.4986 119.00 132.80 10.91
4542 63.5104 129.00 132.29 11.36
4543 63.5222 139.00 131.45 11.79
4544 63.5340 125.00 130.34 11.18
4545 63.5458 126.00 128.99 11.23
4546 63.5576 121.00 127.47 11.00
4547 63.5694 126.00 125.82 11.23
4548 63.5812 114.00 124.11 10.68
4549 63.5930 120.00 122.35 10.95
4550 63.6048 113.00 120.58 10.63
4551 63.6167 115.00 118.82 10.72
4552 63.6284 113.00 117.12 10.63
4553 63.6402 117.00 115.47 10.82
4554 63.6520 115.00 113.89 10.72
4555 63.6638 113.00 112.37 10.63
4556 63.6756 102.00 110.94 10.10
4557 63.6874 106.00 109.57 10.30
4558 63.6992 100.00 108.29 10.00
4559 63.7110 112.00 107.10 10.58
4560 63.7228 106.00 105.98 10.30
4561 63.7346 115.00 104.93 10.72
4562 63.7465 97.00 103.93 9.85
4563 63.7582 97.00 103.03 9.85
4564 63.7700 108.00 102.20 10.39
4565 63.7818 87.00 101.43 9.33
4566 63.7936 102.00 100.72 10.10
4567 63.8055 89.00 100.06 9.43
4568 63.8172 115.00 99.44 10.72
4569 63.8290 103.00 98.86 10.15
4570 63.8408 93.00 98.31 9.64
4571 63.8526 102.00 97.78 10.10
4572 63.8645 96.00 97.21 9.80
4573 63.8763 108.00 96.75 10.39
4574 63.8880 88.00 96.23 9.38
4575 63.8998 82.00 95.70 9.06
4576 63.9116 89.00 95.16 9.43
4577 63.9234 113.00 94.61 10.63
4578 63.9353 95.00 94.03 9.75
4579 63.9470 92.00 93.45 9.59
4580 63.9588 90.00 92.86 9.49
4581 63.9706 97.00 92.27 9.85
4582 63.9824 78.00 91.68 8.83
4583 63.9943 78.00 91.10 8.83
4584 64.0061 88.00 90.54 9.38
4585 64.0178 80.00 90.00 8.94
4586 64.0296 78.00 89.49 8.83
4587 64.0414 92.00 89.01 9.59
4588 64.0533 101.00 88.57 10.05
4589 64.0651 85.00 88.16 9.22
4590 64.0768 80.00 87.80 8.94
4591 64.0886 89.00 87.48 9.43
4592 64.1004 75.00 87.21 8.66
4593 64.1123 86.00 86.98 9.27
4594 64.1241 71.00 86.81 8.43
4595 64.1359 81.00 86.68 9.00
4596 64.1476 82.00 86.61 9.06
4597 64.1594 74.00 86.59 8.60
4598 64.1712 72.00 86.61 8.49
4599 64.1831 102.00 86.69 10.10
4600 64.1949 96.00 86.78 9.80
4601 64.2066 102.00 86.96 10.10
4602 64.2184 87.00 87.19 9.33
4603 64.2302 83.00 87.47 9.11
4604 64.2421 102.00 87.81 10.10
4605 64.2539 85.00 88.19 9.22
4606 64.2656 82.00 88.62 9.06
4607 64.2774 80.00 89.09 8.94
4608 64.2892 92.00 89.61 9.59
4609 64.3011 106.00 90.18 10.30
4610 64.3129 82.00 90.78 9.06
4611 64.3247 88.00 91.42 9.38
4612 64.3364 90.00 92.10 9.49
4613 64.3482 87.00 92.81 9.33
4614 64.3600 110.00 93.55 10.49
4615 64.3719 102.00 94.33 10.10
4616 64.3837 113.00 95.13 10.63
4617 64.3955 80.00 95.95 8.94
4618 64.4072 98.00 96.80 9.90
4619 64.4190 85.00 97.66 9.22
4620 64.4309 97.00 98.55 9.85
4621 64.4427 110.00 99.45 10.49
4622 64.4545 100.00 100.37 10.00
4623 64.4662 95.00 101.30 9.75
4624 64.4780 111.00 102.26 10.54
4625 64.4899 78.00 103.24 8.83
4626 64.5017 115.00 104.23 10.72
4627 64.5135 110.00 105.25 10.49
4628 64.5253 116.00 106.30 10.77
4629 64.5370 99.00 107.37 9.95
4630 64.5489 116.00 108.49 10.77
4631 64.5607 95.00 109.64 9.75
4632 64.5725 111.00 110.82 10.54
4633 64.5843 118.00 112.05 10.86
4634 64.5960 116.00 113.33 10.77
4635 64.6078 129.00 114.65 11.36
4636 64.6197 117.00 116.04 10.82
4637 64.6315 127.00 117.46 11.27
4638 64.6433 134.00 118.94 11.58
4639 64.6550 132.00 120.47 11.49
4640 64.6668 127.00 122.05 11.27
4641 64.6787 128.00 123.70 11.31
4642 64.6905 120.00 125.38 10.95
4643 64.7023 134.00 127.11 11.58
4644 64.7141 152.00 128.87 12.33
4645 64.7258 143.00 130.67 11.96
4646 64.7377 125.00 132.52 11.18
4647 64.7495 143.00 134.37 11.96
4648 64.7613 116.00 136.23 10.77
4649 64.7731 142.00 138.10 11.92
4650 64.7849 151.00 139.93 12.29
4651 64.7967 143.00 141.78 11.96
4652 64.8085 145.00 143.58 12.04
4653 64.8203 162.00 145.33 12.73
4654 64.8321 188.00 147.01 13.71
4655 64.8439 156.00 148.59 12.49
4656 64.8556 172.00 150.06 13.11
4657 64.8675 167.00 151.39 12.92
4658 64.8793 165.00 152.55 12.85
4659 64.8911 171.00 153.51 13.08
4660 64.9029 148.00 154.25 12.17
4661 64.9146 171.00 154.76 13.08
4662 64.9265 156.00 155.01 12.49
4663 64.9383 154.00 155.01 12.41
4664 64.9501 146.00 154.77 12.08
4665 64.9619 154.00 154.29 12.41
4666 64.9736 186.00 153.74 13.64
4667 64.9855 156.00 152.88 12.49
4668 64.9973 149.00 151.91 12.21
4669 65.0091 164.00 150.85 12.81
4670 65.0209 143.00 149.74 11.96
4671 65.0327 171.00 148.62 13.08
4672 65.0445 141.00 147.51 11.87
4673 65.0563 150.00 146.43 12.25
4674 65.0681 132.00 145.38 11.49
4675 65.0799 151.00 144.35 12.29
4676 65.0917 152.00 143.37 12.33
4677 65.1034 143.00 142.40 11.96
4678 65.1153 139.00 141.39 11.79
4679 65.1271 143.00 140.35 11.96
4680 65.1389 125.00 139.21 11.18
4681 65.1507 136.00 137.96 11.66
4682 65.1625 137.00 136.55 11.70
4683 65.1743 131.00 134.97 11.45
4684 65.1861 125.00 133.23 11.18
4685 65.1979 122.00 131.33 11.05
4686 65.2097 144.00 129.29 12.00
4687 65.2215 136.00 127.13 11.66
4688 65.2333 128.00 124.87 11.31
4689 65.2451 132.00 122.58 11.49
4690 65.2569 99.00 120.28 9.95
4691 65.2687 130.00 118.00 11.40
4692 65.2805 125.00 115.77 11.18
4693 65.2924 111.00 113.59 10.54
4694 65.3041 103.00 111.50 10.15
4695 65.3159 112.00 109.50 10.58
4696 65.3277 106.00 107.60 10.30
4697 65.3395 91.00 105.79 9.54
4698 65.3513 96.00 104.07 9.80
4699 65.3631 98.00 102.43 9.90
4700 65.3749 117.00 100.90 10.82
4701 65.3867 114.00 99.44 10.68
4702 65.3985 114.00 98.05 10.68
4703 65.4103 91.00 96.77 9.54
4704 65.4221 77.00 95.52 8.77
4705 65.4339 107.00 94.33 10.34
4706 65.4457 97.00 93.21 9.85
4707 65.4575 96.00 92.14 9.80
4708 65.4693 82.00 91.13 9.06
4709 65.4812 90.00 90.15 9.49
4710 65.4929 87.00 89.24 9.33
4711 65.5047 89.00 88.37 9.43
4712 65.5165 71.00 87.55 8.43
4713 65.5283 90.00 86.78 9.49
4714 65.5401 91.00 86.05 9.54
4715 65.5519 75.00 85.36 8.66
4716 65.5637 76.00 84.72 8.72
4717 65.5755 78.00 84.13 8.83
4718 65.5873 82.00 83.58 9.06
4719 65.5991 67.00 83.07 8.19
4720 65.6110 84.00 82.60 9.17
4721 65.6227 79.00 82.18 8.89
4722 65.6345 94.00 81.80 9.70
4723 65.6463 63.00 81.46 7.94
4724 65.6581 83.00 81.16 9.11
4725 65.6700 89.00 80.89 9.43
4726 65.6817 77.00 80.67 8.77
4727 65.6935 81.00 80.48 9.00
4728 65.7053 87.00 80.33 9.33
4729 65.7171 69.00 80.21 8.31
4730 65.7290 88.00 80.13 9.38
4731 65.7407 74.00 80.08 8.60
4732 65.7525 73.00 80.06 8.54
4733 65.7643 71.00 80.07 8.43
4734 65.7761 91.00 80.11 9.54
4735 65.7879 88.00 80.17 9.38
4736 65.7998 89.00 80.25 9.43
4737 65.8115 89.00 80.36 9.43
4738 65.8233 71.00 80.50 8.43
4739 65.8351 70.00 80.66 8.37
4740 65.8469 93.00 80.83 9.64
4741 65.8588 87.00 81.03 9.33
4742 65.8705 83.00 81.23 9.11
4743 65.8823 82.00 81.45 9.06
4744 65.8941 77.00 81.67 8.77
4745 65.9059 89.00 81.90 9.43
4746 65.9178 89.00 82.14 9.43
4747 65.9296 85.00 82.37 9.22
4748 65.9413 84.00 82.61 9.17
4749 65.9531 94.00 82.84 9.70
4750 65.9649 87.00 83.06 9.33
4751 65.9768 83.00 83.28 9.11
4752 65.9886 85.00 83.49 9.22
4753 66.0003 80.00 83.68 8.94
4754 66.0121 85.00 83.86 9.22
4755 66.0239 79.00 84.02 8.89
4756 66.0357 93.00 84.16 9.64
4757 66.0476 100.00 84.28 10.00
4758 66.0593 75.00 84.39 8.66
4759 66.0711 70.00 84.47 8.37
4760 66.0829 97.00 84.52 9.85
4761 66.0947 84.00 84.56 9.17
4762 66.1066 94.00 84.57 9.70
4763 66.1183 90.00 84.56 9.49
4764 66.1301 77.00 84.53 8.77
4765 66.1419 93.00 84.47 9.64
4766 66.1537 92.00 84.40 9.59
4767 66.1656 73.00 84.30 8.54
4768 66.1774 109.00 84.19 10.44
4769 66.1891 97.00 84.06 9.85
4770 66.2009 83.00 83.91 9.11
4771 66.2127 75.00 83.76 8.66
4772 66.2246 84.00 83.59 9.17
4773 66.2364 78.00 83.41 8.83
4774 66.2481 75.00 83.24 8.66
4775 66.2599 99.00 83.06 9.95
4776 66.2717 71.00 82.88 8.43
4777 66.2835 91.00 82.71 9.54
4778 66.2954 87.00 82.54 9.33
4779 66.3072 95.00 82.39 9.75
4780 66.3189 92.00 82.25 9.59
4781 66.3307 79.00 82.13 8.89
4782 66.3425 81.00 82.02 9.00
4783 66.3544 92.00 81.94 9.59
4784 66.3661 85.00 81.89 9.22
4785 66.3779 103.00 81.86 10.15
4786 66.3897 77.00 81.87 8.77
4787 66.4015 93.00 81.90 9.64
4788 66.4134 74.00 81.98 8.60
4789 66.4252 88.00 82.08 9.38
4790 66.4369 86.00 82.23 9.27
4791 66.4487 72.00 82.41 8.49
4792 66.4605 82.00 82.64 9.06
4793 66.4724 93.00 82.91 9.64
4794 66.4842 87.00 83.22 9.33
4795 66.4959 99.00 83.64 9.95
4796 66.5077 88.00 84.04 9.38
4797 66.5195 74.00 84.49 8.60
4798 66.5313 81.00 84.97 9.00
4799 66.5432 84.00 85.51 9.17
4800 66.5550 88.00 86.09 9.38
4801 66.5667 82.00 86.71 9.06
4802 66.5785 93.00 87.38 9.64
4803 66.5903 87.00 88.09 9.33
4804 66.6022 81.00 88.85 9.00
4805 66.6140 72.00 89.64 8.49
4806 66.6257 111.00 90.47 10.54
4807 66.6375 94.00 91.34 9.70
4808 66.6493 66.00 92.24 8.12
4809 66.6612 112.00 93.19 10.58
4810 66.6730 105.00 94.16 10.25
4811 66.6848 96.00 95.16 9.80
4812 66.6965 106.00 96.18 10.30
4813 66.7083 87.00 97.22 9.33
4814 66.7201 102.00 98.29 10.10
4815 66.7320 112.00 99.38 10.58
4816 66.7438 94.00 100.48 9.70
4817 66.7555 104.00 101.58 10.20
4818 66.7673 110.00 102.69 10.49
4819 66.7791 86.00 103.79 9.27
4820 66.7910 108.00 105.04 10.39
4821 66.8028 96.00 106.12 9.80
4822 66.8145 105.00 107.20 10.25
4823 66.8263 107.00 108.25 10.34
4824 66.8381 110.00 109.26 10.49
4825 66.8500 124.00 110.25 11.14
4826 66.8618 125.00 111.18 11.18
4827 66.8735 119.00 112.06 10.91
4828 66.8853 105.00 112.88 10.25
4829 66.8971 125.00 113.64 11.18
4830 66.9090 105.00 114.33 10.25
4831 66.9208 97.00 114.94 9.85
4832 66.9326 123.00 115.46 11.09
4833 66.9443 111.00 115.91 10.54
4834 66.9561 115.00 116.26 10.72
4835 66.9679 136.00 116.53 11.66
4836 66.9798 118.00 116.71 10.86
4837 66.9916 107.00 116.80 10.34
4838 67.0033 96.00 116.81 9.80
4839 67.0151 114.00 116.73 10.68
4840 67.0269 112.00 116.58 10.58
4841 67.0388 127.00 116.36 11.27
4842 67.0506 124.00 116.06 11.14
4843 67.0623 122.00 115.71 11.05
4844 67.0741 105.00 115.30 10.25
4845 67.0859 114.00 114.85 10.68
4846 67.0978 110.00 114.34 10.49
4847 67.1096 99.00 113.79 9.95
4848 67.1213 108.00 113.21 10.39
4849 67.1331 94.00 112.59 9.70
4850 67.1449 112.00 111.93 10.58
4851 67.1568 103.00 111.23 10.15
4852 67.1686 90.00 110.49 9.49
4853 67.1804 125.00 109.68 11.18
4854 67.1921 121.00 108.85 11.00
4855 67.2039 114.00 107.97 10.68
4856 67.2157 114.00 107.03 10.68
4857 67.2276 102.00 106.03 10.10
4858 67.2394 91.00 104.96 9.54
4859 67.2511 97.00 103.83 9.85
4860 67.2629 99.00 102.64 9.95
4861 67.2747 94.00 101.40 9.70
4862 67.2866 104.00 100.09 10.20
4863 67.2984 105.00 98.75 10.25
4864 67.3101 92.00 97.37 9.59
4865 67.3219 91.00 95.98 9.54
4866 67.3337 95.00 94.57 9.75
4867 67.3456 93.00 93.15 9.64
4868 67.3574 82.00 91.76 9.06
4869 67.3691 94.00 90.39 9.70
4870 67.3809 73.00 89.04 8.54
4871 67.3927 90.00 87.73 9.49
4872 67.4046 76.00 86.46 8.72
4873 67.4164 88.00 85.24 9.38
4874 67.4282 95.00 84.07 9.75
4875 67.4399 76.00 82.95 8.72
4876 67.4517 108.00 81.89 10.39
4877 67.4635 78.00 80.89 8.83
4878 67.4754 80.00 79.93 8.94
4879 67.4872 89.00 79.03 9.43
4880 67.4989 97.00 78.19 9.85
4881 67.5107 78.00 77.41 8.83
4882 67.5225 93.00 76.68 9.64
4883 67.5344 75.00 75.99 8.66
4884 67.5462 61.00 75.36 7.81
4885 67.5579 96.00 74.79 9.80
4886 67.5697 75.00 74.25 8.66
4887 67.5815 95.00 73.77 9.75
4888 67.5934 74.00 73.32 8.60
4889 67.6052 72.00 72.93 8.49
4890 67.6169 82.00 72.57 9.06
4891 67.6287 77.00 72.25 8.77
4892 67.6405 76.00 71.98 8.72
4893 67.6524 58.00 71.73 7.62
4894 67.6642 76.00 71.53 8.72
4895 67.6760 80.00 71.36 8.94
4896 67.6877 82.00 71.22 9.06
4897 67.6995 81.00 71.11 9.00
4898 67.7113 67.00 71.03 8.19
4899 67.7232 73.00 70.98 8.54
4900 67.7350 73.00 70.96 8.54
4901 67.7467 77.00 70.97 8.77
4902 67.7585 75.00 71.00 8.66
4903 67.7703 76.00 71.06 8.72
4904 67.7822 54.00 71.14 7.35
4905 67.7940 82.00 71.24 9.06
4906 67.8057 66.00 71.37 8.12
4907 67.8175 61.00 71.52 7.81
4908 67.8293 73.00 71.70 8.54
4909 67.8412 84.00 71.90 9.17
4910 67.8530 82.00 72.11 9.06
4911 67.8648 75.00 72.35 8.66
4912 67.8765 85.00 72.61 9.22
4913 67.8883 89.00 72.89 9.43
4914 67.9001 70.00 73.19 8.37
4915 67.9120 79.00 73.51 8.89
4916 67.9238 87.00 73.84 9.33
4917 67.9355 80.00 74.20 8.94
4918 67.9473 76.00 74.57 8.72
4919 67.9591 86.00 74.96 9.27
4920 67.9710 87.00 75.37 9.33
4921 67.9827 74.00 75.79 8.60
4922 67.9945 72.00 76.22 8.49
4923 68.0063 78.00 76.67 8.83
4924 68.0181 77.00 77.13 8.77
4925 68.0300 78.00 77.60 8.83
4926 68.0418 85.00 78.07 9.22
4927 68.0535 77.00 78.55 8.77
4928 68.0653 101.00 79.03 10.05
4929 68.0771 98.00 79.52 9.90
4930 68.0890 85.00 80.01 9.22
4931 68.1008 83.00 80.49 9.11
4932 68.1125 90.00 80.96 9.49
4933 68.1243 84.00 81.43 9.17
4934 68.1361 80.00 81.88 8.94
4935 68.1479 90.00 82.33 9.49
4936 68.1598 74.00 82.76 8.60
4937 68.1715 104.00 83.17 10.20
4938 68.1833 73.00 83.56 8.54
4939 68.1951 98.00 83.93 9.90
4940 68.2069 72.00 84.28 8.49
4941 68.2188 71.00 84.57 8.43
4942 68.2306 72.00 84.87 8.49
4943 68.2423 89.00 85.15 9.43
4944 68.2541 87.00 85.40 9.33
4945 68.2659 81.00 85.63 9.00
4946 68.2778 75.00 85.92 8.66
4947 68.2896 94.00 86.10 9.70
4948 68.3013 98.00 86.26 9.90
4949 68.3131 88.00 86.40 9.38
4950 68.3249 85.00 86.52 9.22
4951 68.3368 87.00 86.63 9.33
4952 68.3486 70.00 86.72 8.37
4953 68.3603 74.00 86.80 8.60
4954 68.3721 78.00 86.87 8.83
4955 68.3839 75.00 86.93 8.66
4956 68.3957 90.00 86.99 9.49
4957 68.4076 90.00 87.05 9.49
4958 68.4193 85.00 87.11 9.22
4959 68.4311 91.00 87.17 9.54
4960 68.4429 87.00 87.23 9.33
4961 68.4547 98.00 87.30 9.90
4962 68.4666 79.00 87.38 8.89
4963 68.4783 96.00 87.47 9.80
4964 68.4901 82.00 87.57 9.06
4965 68.5019 84.00 87.67 9.17
4966 68.5137 91.00 87.78 9.54
4967 68.5256 99.00 87.89 9.95
4968 68.5374 79.00 88.01 8.89
4969 68.5491 88.00 88.12 9.38
4970 68.5609 96.00 88.23 9.80
4971 68.5727 80.00 88.34 8.94
4972 68.5846 86.00 88.43 9.27
4973 68.5964 86.00 88.50 9.27
4974 68.6081 94.00 88.55 9.70
4975 68.6199 86.00 88.58 9.27
4976 68.6317 82.00 88.57 9.06
4977 68.6435 96.00 88.52 9.80
4978 68.6553 91.00 88.43 9.54
4979 68.6671 96.00 88.29 9.80
4980 68.6789 82.00 88.10 9.06
4981 68.6907 74.00 87.86 8.60
4982 68.7025 75.00 87.57 8.66
4983 68.7144 93.00 87.23 9.64
4984 68.7261 98.00 86.84 9.90
4985 68.7379 86.00 86.41 9.27
4986 68.7497 76.00 85.94 8.72
4987 68.7615 75.00 85.44 8.66
4988 68.7734 73.00 84.91 8.54
4989 68.7851 80.00 84.37 8.94
4990 68.7969 68.00 83.81 8.25
4991 68.8087 83.00 83.26 9.11
4992 68.8205 89.00 82.71 9.43
4993 68.8324 70.00 82.16 8.37
4994 68.8441 95.00 81.63 9.75
4995 68.8559 89.00 81.11 9.43
4996 68.8677 75.00 80.63 8.66
4997 68.8795 65.00 80.18 8.06
4998 68.8913 96.00 79.76 9.80
4999 68.9032 75.00 79.37 8.66
5000 68.9149 74.00 79.02 8.60
5001 68.9267 78.00 78.71 8.83
5002 68.9385 88.00 78.44 9.38
5003 68.9503 68.00 78.21 8.25
5004 68.9622 96.00 78.01 9.80
5005 68.9739 84.00 77.86 9.17
5006 68.9857 65.00 77.75 8.06
5007 68.9975 76.00 77.65 8.72
5008 69.0093 77.00 77.61 8.77
5009 69.0212 62.00 77.59 7.87
5010 69.0329 64.00 77.60 8.00
5011 69.0447 80.00 77.61 8.94
5012 69.0565 76.00 77.64 8.72
5013 69.0683 78.00 77.65 8.83
5014 69.0801 84.00 77.66 9.17
5015 69.0919 84.00 77.65 9.17
5016 69.1037 75.00 77.60 8.66
5017 69.1155 65.00 77.49 8.06
5018 69.1273 67.00 77.38 8.19
5019 69.1391 90.00 77.23 9.49
5020 69.1509 83.00 77.03 9.11
5021 69.1627 83.00 76.81 9.11
5022 69.1745 74.00 76.56 8.60
5023 69.1863 68.00 76.29 8.25
5024 69.1981 77.00 76.01 8.77
5025 69.2099 75.00 75.73 8.66
5026 69.2217 79.00 75.45 8.89
5027 69.2335 84.00 75.17 9.17
5028 69.2453 83.00 74.91 9.11
5029 69.2571 82.00 74.67 9.06
5030 69.2689 72.00 74.44 8.49
5031 69.2807 60.00 74.23 7.75
5032 69.2925 76.00 74.04 8.72
5033 69.3043 79.00 73.87 8.89
5034 69.3161 89.00 73.71 9.43
5035 69.3279 75.00 73.58 8.66
5036 69.3397 76.00 73.45 8.72
5037 69.3515 82.00 73.34 9.06
5038 69.3633 85.00 73.24 9.22
5039 69.3751 83.00 73.15 9.11
5040 69.3868 76.00 73.07 8.72
5041 69.3987 81.00 72.99 9.00
5042 69.4105 64.00 72.92 8.00
5043 69.4223 78.00 72.86 8.83
5044 69.4341 63.00 72.80 7.94
5045 69.4459 60.00 72.75 7.75
5046 69.4577 77.00 72.70 8.77
5047 69.4695 78.00 72.65 8.83
5048 69.4813 79.00 72.61 8.89
5049 69.4931 73.00 72.57 8.54
5050 69.5049 74.00 72.54 8.60
5051 69.5167 70.00 72.51 8.37
5052 69.5285 52.00 72.49 7.21
5053 69.5403 70.00 72.49 8.37
5054 69.5521 81.00 72.48 9.00
5055 69.5639 62.00 72.49 7.87
5056 69.5756 71.00 72.51 8.43
5057 69.5875 79.00 72.55 8.89
5058 69.5993 66.00 72.59 8.12
5059 69.6111 69.00 72.66 8.31
5060 69.6229 67.00 72.75 8.19
5061 69.6346 88.00 72.86 9.38
5062 69.6465 77.00 73.00 8.77
5063 69.6583 68.00 73.15 8.25
5064 69.6701 73.00 73.34 8.54
5065 69.6819 72.00 73.55 8.49
5066 69.6936 67.00 73.79 8.19
5067 69.7055 55.00 74.07 7.42
5068 69.7173 67.00 74.38 8.19
5069 69.7291 88.00 74.73 9.38
5070 69.7409 72.00 75.11 8.49
5071 69.7526 69.00 75.53 8.31
5072 69.7645 85.00 76.00 9.22
5073 69.7763 76.00 76.51 8.72
5074 69.7881 81.00 77.06 9.00
5075 69.7999 95.00 77.66 9.75
5076 69.8116 69.00 78.31 8.31
5077 69.8234 67.00 79.01 8.19
5078 69.8353 66.00 79.76 8.12
5079 69.8471 73.00 80.56 8.54
5080 69.8589 79.00 81.42 8.89
5081 69.8706 81.00 82.32 9.00
5082 69.8824 87.00 83.29 9.33
5083 69.8943 64.00 84.35 8.00
5084 69.9061 77.00 85.42 8.77
5085 69.9179 87.00 86.53 9.33
5086 69.9296 69.00 87.72 8.31
5087 69.9414 90.00 88.97 9.49
5088 69.9533 104.00 90.28 10.20
5089 69.9651 88.00 91.64 9.38
5090 69.9769 99.00 93.04 9.95
5091 69.9886 86.00 94.49 9.27
5092 70.0004 94.00 95.99 9.70
5093 70.0123 85.00 97.54 9.22
5094 70.0241 87.00 99.12 9.33
5095 70.0359 91.00 100.73 9.54
5096 70.0477 117.00 102.37 10.82
5097 70.0594 100.00 104.00 10.00
5098 70.0712 81.00 105.69 9.00
5099 70.0831 98.00 107.42 9.90
5100 70.0949 93.00 109.14 9.64
5101 70.1067 111.00 110.87 10.54
5102 70.1184 102.00 112.63 10.10
5103 70.1302 134.00 114.40 11.58
5104 70.1421 129.00 116.21 11.36
5105 70.1539 112.00 118.01 10.58
5106 70.1657 131.00 119.84 11.45
5107 70.1774 122.00 121.68 11.05
5108 70.1892 127.00 123.53 11.27
5109 70.2011 117.00 125.40 10.82
5110 70.2129 133.00 127.27 11.53
5111 70.2247 129.00 129.12 11.36
5112 70.2364 139.00 130.93 11.79
5113 70.2482 136.00 132.70 11.66
5114 70.2600 138.00 134.38 11.75
5115 70.2719 133.00 135.98 11.53
5116 70.2837 148.00 137.40 12.17
5117 70.2954 146.00 138.65 12.08
5118 70.3072 163.00 139.67 12.77
5119 70.3190 176.00 140.44 13.27
5120 70.3309 150.00 140.93 12.25
5121 70.3427 120.00 141.12 10.95
5122 70.3544 149.00 140.99 12.21
5123 70.3662 141.00 140.54 11.87
5124 70.3780 135.00 139.80 11.62
5125 70.3899 139.00 138.76 11.79
5126 70.4017 160.00 137.47 12.65
5127 70.4134 124.00 135.95 11.14
5128 70.4252 121.00 134.23 11.00
5129 70.4370 128.00 132.36 11.31
5130 70.4489 134.00 130.34 11.58
5131 70.4607 137.00 128.24 11.70
5132 70.4724 116.00 126.08 10.77
5133 70.4842 107.00 123.89 10.34
5134 70.4960 120.00 121.69 10.95
5135 70.5078 109.00 119.50 10.44
5136 70.5197 107.00 117.32 10.34
5137 70.5314 115.00 115.20 10.72
5138 70.5432 115.00 113.14 10.72
5139 70.5550 109.00 111.14 10.44
5140 70.5668 101.00 109.22 10.05
5141 70.5787 106.00 107.35 10.30
5142 70.5904 101.00 105.59 10.05
5143 70.6022 111.00 103.90 10.54
5144 70.6140 93.00 102.30 9.64
5145 70.6258 102.00 100.79 10.10
5146 70.6377 110.00 99.34 10.49
5147 70.6494 83.00 98.00 9.11
5148 70.6612 76.00 96.73 8.72
5149 70.6730 94.00 95.54 9.70
5150 70.6848 102.00 94.43 10.10
5151 70.6967 74.00 93.38 8.60
5152 70.7084 80.00 92.40 8.94
5153 70.7202 72.00 91.47 8.49
5154 70.7320 81.00 90.60 9.00
5155 70.7438 97.00 89.76 9.85
5156 70.7556 77.00 89.01 8.77
5157 70.7674 81.00 88.21 9.00
5158 70.7792 87.00 87.43 9.33
5159 70.7910 78.00 86.65 8.83
5160 70.8028 86.00 85.86 9.27
5161 70.8146 93.00 85.05 9.64
5162 70.8264 80.00 84.22 8.94
5163 70.8382 70.00 83.37 8.37
5164 70.8500 68.00 82.51 8.25
5165 70.8618 88.00 81.63 9.38
5166 70.8736 71.00 80.75 8.43
5167 70.8854 75.00 79.87 8.66
5168 70.8972 75.00 79.00 8.66
5169 70.9090 82.00 78.14 9.06
5170 70.9208 61.00 77.31 7.81
5171 70.9326 60.00 76.51 7.75
5172 70.9444 67.00 75.86 8.19
5173 70.9562 57.00 75.13 7.55
5174 70.9680 66.00 74.45 8.12
5175 70.9798 75.00 73.80 8.66
5176 70.9916 65.00 73.20 8.06
5177 71.0033 70.00 72.64 8.37
5178 71.0152 70.00 72.11 8.37
5179 71.0270 68.00 71.64 8.25
5180 71.0388 66.00 71.19 8.12
5181 71.0506 55.00 70.80 7.42
5182 71.0623 72.00 70.44 8.49
5183 71.0742 58.00 70.11 7.62
5184 71.0860 73.00 69.83 8.54
5185 71.0978 58.00 69.57 7.62
5186 71.1096 72.00 69.35 8.49
5187 71.1213 72.00 69.16 8.49
5188 71.1332 66.00 68.99 8.12
5189 71.1450 64.00 68.86 8.00
5190 71.1568 78.00 68.75 8.83
5191 71.1686 70.00 68.67 8.37
5192 71.1804 61.00 68.61 7.81
5193 71.1922 79.00 68.58 8.89
5194 71.2040 73.00 68.57 8.54
5195 71.2158 62.00 68.58 7.87
5196 71.2276 60.00 68.61 7.75
5197 71.2393 57.00 68.66 7.55
5198 71.2511 78.00 68.73 8.83
5199 71.2630 71.00 68.82 8.43
5200 71.2748 65.00 68.92 8.06
5201 71.2866 66.00 69.04 8.12
5202 71.2983 72.00 69.18 8.49
5203 71.3101 62.00 69.33 7.87
5204 71.3220 78.00 69.50 8.83
5205 71.3338 62.00 69.68 7.87
5206 71.3456 68.00 69.87 8.25
5207 71.3574 75.00 70.07 8.66
5208 71.3691 68.00 70.29 8.25
5209 71.3810 65.00 70.52 8.06
5210 71.3928 83.00 70.76 9.11
5211 71.4046 82.00 71.00 9.06
5212 71.4164 65.00 71.26 8.06
5213 71.4281 74.00 71.53 8.60
5214 71.4399 72.00 71.80 8.49
5215 71.4518 65.00 72.08 8.06
5216 71.4636 84.00 72.37 9.17
5217 71.4753 83.00 72.66 9.11
5218 71.4871 74.00 72.96 8.60
5219 71.4989 81.00 73.26 9.00
5220 71.5108 78.00 73.58 8.83
5221 71.5226 59.00 73.89 7.68
5222 71.5343 60.00 74.21 7.75
5223 71.5461 62.00 74.54 7.87
5224 71.5579 70.00 74.87 8.37
5225 71.5698 75.00 75.21 8.66
5226 71.5816 74.00 75.56 8.60
5227 71.5933 53.00 75.92 7.28
5228 71.6051 82.00 76.28 9.06
5229 71.6169 73.00 76.66 8.54
5230 71.6288 71.00 77.05 8.43
5231 71.6406 83.00 77.46 9.11
5232 71.6524 75.00 77.88 8.66
5233 71.6641 66.00 78.32 8.12
5234 71.6759 69.00 78.78 8.31
5235 71.6877 73.00 79.26 8.54
5236 71.6996 72.00 79.77 8.49
5237 71.7113 73.00 80.31 8.54
5238 71.7231 80.00 80.87 8.94
5239 71.7349 84.00 81.47 9.17
5240 71.7467 69.00 82.10 8.31
5241 71.7586 77.00 82.78 8.77
5242 71.7703 69.00 83.49 8.31
5243 71.7821 73.00 84.24 8.54
5244 71.7939 79.00 85.03 8.89
5245 71.8057 56.00 85.87 7.48
5246 71.8176 80.00 86.76 8.94
5247 71.8293 99.00 87.68 9.95
5248 71.8411 86.00 88.66 9.27
5249 71.8529 81.00 89.67 9.00
5250 71.8647 90.00 90.72 9.49
5251 71.8766 77.00 91.82 8.77
5252 71.8883 103.00 92.94 10.15
5253 71.9001 64.00 94.07 8.00
5254 71.9119 76.00 95.22 8.72
5255 71.9237 87.00 96.36 9.33
5256 71.9355 86.00 97.48 9.27
5257 71.9473 85.00 98.56 9.22
5258 71.9591 84.00 99.58 9.17
5259 71.9709 89.00 100.52 9.43
5260 71.9827 78.00 101.35 8.83
5261 71.9945 100.00 102.06 10.00
5262 72.0063 100.00 102.64 10.00
5263 72.0181 109.00 103.07 10.44
5264 72.0299 93.00 103.35 9.64
5265 72.0417 90.00 103.47 9.49
5266 72.0535 101.00 103.43 10.05
5267 72.0653 93.00 103.26 9.64
5268 72.0771 90.00 102.96 9.49
5269 72.0889 100.00 102.56 10.00
5270 72.1007 105.00 102.06 10.25
5271 72.1125 76.00 101.50 8.72
5272 72.1243 97.00 100.87 9.85
5273 72.1361 105.00 100.22 10.25
5274 72.1479 98.00 99.55 9.90
5275 72.1597 100.00 98.88 10.00
5276 72.1715 109.00 98.22 10.44
5277 72.1832 93.00 97.56 9.64
5278 72.1951 84.00 96.93 9.17
5279 72.2069 81.00 96.33 9.00
5280 72.2187 98.00 95.77 9.90
5281 72.2305 91.00 95.23 9.54
5282 72.2422 90.00 94.73 9.49
5283 72.2541 91.00 94.26 9.54
5284 72.2659 78.00 93.82 8.83
5285 72.2777 76.00 93.40 8.72
5286 72.2895 90.00 93.00 9.49
5287 72.3012 94.00 92.59 9.70
5288 72.3131 77.00 92.21 8.77
5289 72.3249 94.00 91.83 9.70
5290 72.3367 93.00 91.44 9.64
5291 72.3485 88.00 91.05 9.38
5292 72.3602 83.00 90.64 9.11
5293 72.3721 84.00 90.21 9.17
5294 72.3839 87.00 89.77 9.33
5295 72.3957 76.00 89.32 8.72
5296 72.4075 91.00 88.85 9.54
5297 72.4192 61.00 88.37 7.81
5298 72.4310 82.00 87.90 9.06
5299 72.4429 80.00 87.40 8.94
5300 72.4547 95.00 86.88 9.75
5301 72.4665 93.00 86.36 9.64
5302 72.4782 62.00 85.84 7.87
5303 72.4900 91.00 85.30 9.54
5304 72.5019 84.00 84.76 9.17
5305 72.5137 72.00 84.22 8.49
5306 72.5255 80.00 83.68 8.94
5307 72.5372 72.00 83.13 8.49
5308 72.5490 79.00 82.59 8.89
5309 72.5609 76.00 82.05 8.72
5310 72.5727 84.00 81.52 9.17
5311 72.5845 79.00 81.00 8.89
5312 72.5962 66.00 80.49 8.12
5313 72.6080 74.00 80.00 8.60
5314 72.6198 82.00 79.53 9.06
5315 72.6317 79.00 79.08 8.89
5316 72.6435 70.00 78.65 8.37
5317 72.6552 75.00 78.24 8.66
5318 72.6670 80.00 77.87 8.94
5319 72.6788 85.00 77.55 9.22
5320 72.6907 90.00 77.23 9.49
5321 72.7024 96.00 76.94 9.80
5322 72.7142 64.00 76.68 8.00
5323 72.7260 84.00 76.45 9.17
5324 72.7378 97.00 76.25 9.85
5325 72.7497 67.00 76.09 8.19
5326 72.7615 66.00 75.95 8.12
5327 72.7732 80.00 75.84 8.94
5328 72.7850 68.00 75.77 8.25
5329 72.7968 71.00 75.71 8.43
5330 72.8087 84.00 75.69 9.17
5331 72.8204 86.00 75.71 9.27
5332 72.8322 68.00 75.75 8.25
5333 72.8440 68.00 75.81 8.25
5334 72.8558 84.00 75.90 9.17
5335 72.8676 75.00 76.02 8.66
5336 72.8794 89.00 76.16 9.43
5337 72.8912 73.00 76.33 8.54
5338 72.9030 64.00 76.51 8.00
5339 72.9148 84.00 76.71 9.17
5340 72.9266 65.00 76.94 8.06
5341 72.9384 70.00 77.18 8.37
5342 72.9502 74.00 77.43 8.60
5343 72.9620 76.00 77.70 8.72
5344 72.9738 80.00 77.98 8.94
5345 72.9856 76.00 78.25 8.72
5346 72.9974 60.00 78.55 7.75
5347 73.0092 85.00 78.85 9.22
5348 73.0210 73.00 79.16 8.54
5349 73.0328 70.00 79.47 8.37
5350 73.0446 72.00 79.78 8.49
5351 73.0564 71.00 80.10 8.43
5352 73.0682 61.00 80.41 7.81
5353 73.0800 81.00 80.72 9.00
5354 73.0918 81.00 81.02 9.00
5355 73.1036 76.00 81.32 8.72
5356 73.1153 71.00 81.61 8.43
5357 73.1272 84.00 81.90 9.17
5358 73.1390 73.00 82.18 8.54
5359 73.1508 67.00 82.46 8.19
5360 73.1626 84.00 82.74 9.17
5361 73.1743 73.00 83.01 8.54
5362 73.1862 67.00 83.28 8.19
5363 73.1980 84.00 83.55 9.17
5364 73.2098 80.00 83.82 8.94
5365 73.2216 75.00 84.09 8.66
5366 73.2333 87.00 84.38 9.33
5367 73.2452 69.00 84.67 8.31
5368 73.2570 83.00 84.98 9.11
5369 73.2688 76.00 85.31 8.72
5370 73.2805 99.00 85.66 9.95
5371 73.2923 76.00 86.02 8.72
5372 73.3042 93.00 86.42 9.64
5373 73.3160 89.00 86.84 9.43
5374 73.3278 80.00 87.29 8.94
5375 73.3395 89.00 87.78 9.43
5376 73.3513 88.00 88.30 9.38
5377 73.3631 86.00 88.85 9.27
5378 73.3750 102.00 89.46 10.10
5379 73.3868 92.00 90.10 9.59
5380 73.3985 79.00 90.78 8.89
5381 73.4103 93.00 91.51 9.64
5382 73.4221 95.00 92.28 9.75
5383 73.4340 91.00 93.10 9.54
5384 73.4458 87.00 93.96 9.33
5385 73.4575 112.00 94.87 10.58
5386 73.4693 90.00 95.81 9.49
5387 73.4811 98.00 96.80 9.90
5388 73.4930 97.00 97.83 9.85
5389 73.5048 94.00 98.88 9.70
5390 73.5165 103.00 99.96 10.15
5391 73.5283 93.00 101.06 9.64
5392 73.5401 99.00 102.18 9.95
5393 73.5520 101.00 103.32 10.05
5394 73.5638 109.00 104.44 10.44
5395 73.5755 99.00 105.56 9.95
5396 73.5873 115.00 106.65 10.72
5397 73.5991 109.00 107.71 10.44
5398 73.6109 132.00 108.73 11.49
5399 73.6228 114.00 109.70 10.68
5400 73.6345 112.00 110.60 10.58
5401 73.6463 101.00 111.42 10.05
5402 73.6581 117.00 112.17 10.82
5403 73.6699 104.00 112.88 10.20
5404 73.6818 118.00 113.43 10.86
5405 73.6935 113.00 113.88 10.63
5406 73.7053 110.00 114.22 10.49
5407 73.7171 108.00 114.44 10.39
5408 73.7289 117.00 114.57 10.82
5409 73.7407 96.00 114.58 9.80
5410 73.7525 127.00 114.50 11.27
5411 73.7643 117.00 114.32 10.82
5412 73.7761 107.00 114.05 10.34
5413 73.7879 114.00 113.71 10.68
5414 73.7996 108.00 113.29 10.39
5415 73.8115 132.00 112.81 11.49
5416 73.8233 132.00 112.28 11.49
5417 73.8351 135.00 111.71 11.62
5418 73.8469 115.00 111.10 10.72
5419 73.8586 98.00 110.46 9.90
5420 73.8705 99.00 109.79 9.95
5421 73.8823 107.00 109.12 10.34
5422 73.8941 94.00 108.42 9.70
5423 73.9059 102.00 107.72 10.10
5424 73.9176 99.00 107.00 9.95
5425 73.9295 94.00 106.26 9.70
5426 73.9413 99.00 105.52 9.95
5427 73.9531 93.00 104.73 9.64
5428 73.9649 120.00 103.94 10.95
5429 73.9766 96.00 103.12 9.80
5430 73.9885 114.00 102.27 10.68
5431 74.0003 108.00 101.38 10.39
5432 74.0121 79.00 100.46 8.89
5433 74.0238 89.00 99.51 9.43
5434 74.0356 88.00 98.52 9.38
5435 74.0474 89.00 97.51 9.43
5436 74.0593 102.00 96.47 10.10
5437 74.0711 75.00 95.43 8.66
5438 74.0829 110.00 94.39 10.49
5439 74.0946 91.00 93.37 9.54
5440 74.1064 79.00 92.36 8.89
5441 74.1183 86.00 91.38 9.27
5442 74.1301 83.00 90.45 9.11
5443 74.1418 94.00 89.56 9.70
5444 74.1536 80.00 88.72 8.94
5445 74.1654 87.00 87.93 9.33
5446 74.1773 79.00 87.20 8.89
5447 74.1891 72.00 86.53 8.49
5448 74.2008 90.00 85.92 9.49
5449 74.2126 108.00 85.37 10.39
5450 74.2244 73.00 84.88 8.54
5451 74.2363 84.00 84.44 9.17
5452 74.2481 63.00 84.06 7.94
5453 74.2598 90.00 83.74 9.49
5454 74.2716 82.00 83.47 9.06
5455 74.2834 98.00 83.26 9.90
5456 74.2952 97.00 83.09 9.85
5457 74.3071 97.00 82.96 9.85
5458 74.3188 90.00 82.88 9.49
5459 74.3306 69.00 82.85 8.31
5460 74.3424 86.00 82.85 9.27
5461 74.3542 92.00 82.88 9.59
5462 74.3661 85.00 82.95 9.22
5463 74.3778 83.00 83.04 9.11
5464 74.3896 80.00 83.19 8.94
5465 74.4014 85.00 83.34 9.22
5466 74.4132 77.00 83.51 8.77
5467 74.4250 76.00 83.70 8.72
5468 74.4368 103.00 83.90 10.15
5469 74.4486 81.00 84.11 9.00
5470 74.4604 88.00 84.33 9.38
5471 74.4722 95.00 84.55 9.75
5472 74.4840 96.00 84.77 9.80
5473 74.4958 99.00 84.98 9.95
5474 74.5076 112.00 85.18 10.58
5475 74.5194 89.00 85.38 9.43
5476 74.5312 73.00 85.55 8.54
5477 74.5429 72.00 85.70 8.49
5478 74.5548 86.00 85.83 9.27
5479 74.5666 86.00 85.93 9.27
5480 74.5784 71.00 86.00 8.43
5481 74.5902 74.00 86.04 8.60
5482 74.6019 87.00 86.04 9.33
5483 74.6138 98.00 86.01 9.90
5484 74.6256 95.00 85.94 9.75
5485 74.6374 97.00 85.82 9.85
5486 74.6492 88.00 85.67 9.38
5487 74.6609 86.00 85.48 9.27
5488 74.6728 85.00 85.26 9.22
5489 74.6846 76.00 84.99 8.72
5490 74.6964 95.00 84.69 9.75
5491 74.7082 72.00 84.36 8.49
5492 74.7199 84.00 84.00 9.17
5493 74.7318 100.00 83.60 10.00
5494 74.7436 77.00 83.19 8.77
5495 74.7554 69.00 82.75 8.31
5496 74.7671 71.00 82.29 8.43
5497 74.7789 88.00 81.81 9.38
5498 74.7907 79.00 81.32 8.89
5499 74.8026 81.00 80.81 9.00
5500 74.8144 77.00 80.31 8.77
5501 74.8261 85.00 79.79 9.22
5502 74.8379 89.00 79.27 9.43
5503 74.8497 88.00 78.74 9.38
5504 74.8616 83.00 78.21 9.11
5505 74.8734 83.00 77.69 9.11
5506 74.8851 88.00 77.18 9.38
5507 74.8969 76.00 76.67 8.72
5508 74.9087 79.00 76.17 8.89
5509 74.9206 79.00 75.67 8.89
5510 74.9324 81.00 75.19 9.00
5511 74.9441 71.00 74.72 8.43
5512 74.9559 73.00 74.26 8.54
5513 74.9677 77.00 73.82 8.77
5514 74.9795 69.00 73.40 8.31
5515 74.9913 67.00 72.98 8.19
5516 75.0031 70.00 72.58 8.37
5517 75.0149 70.00 72.19 8.37
5518 75.0267 71.00 71.81 8.43
5519 75.0385 60.00 71.44 7.75
5520 75.0503 61.00 71.08 7.81
5521 75.0621 64.00 70.72 8.00
5522 75.0739 71.00 70.36 8.43
5523 75.0857 55.00 69.99 7.42
5524 75.0975 81.00 69.63 9.00
5525 75.1093 72.00 69.25 8.49
5526 75.1211 73.00 68.86 8.54
5527 75.1329 65.00 68.47 8.06
5528 75.1447 55.00 68.07 7.42
5529 75.1565 67.00 67.66 8.19
5530 75.1683 50.00 67.24 7.07
5531 75.1801 77.00 66.82 8.77
5532 75.1919 64.00 66.41 8.00
5533 75.2037 69.00 65.99 8.31
5534 75.2155 65.00 65.58 8.06
5535 75.2272 65.00 65.19 8.06
5536 75.2391 65.00 64.80 8.06
5537 75.2509 63.00 64.43 7.94
5538 75.2627 53.00 64.07 7.28
5539 75.2744 48.00 63.73 6.93
5540 75.2862 57.00 63.41 7.55
5541 75.2981 64.00 63.11 8.00
5542 75.3099 71.00 62.83 8.43
5543 75.3217 66.00 62.57 8.12
5544 75.3335 61.00 62.32 7.81
5545 75.3452 71.00 62.10 8.43
5546 75.3571 64.00 61.89 8.00
5547 75.3689 58.00 61.69 7.62
5548 75.3807 63.00 61.51 7.94
5549 75.3924 75.00 61.34 8.66
5550 75.4042 61.00 61.19 7.81
5551 75.4161 76.00 61.05 8.72
5552 75.4279 53.00 60.92 7.28
5553 75.4397 58.00 60.81 7.62
5554 75.4514 53.00 60.71 7.28
5555 75.4632 61.00 60.60 7.81
5556 75.4750 65.00 60.52 8.06
5557 75.4869 54.00 60.45 7.35
5558 75.4986 46.00 60.39 6.78
5559 75.5104 62.00 60.35 7.87
5560 75.5222 54.00 60.31 7.35
5561 75.5340 59.00 60.28 7.68
5562 75.5459 62.00 60.27 7.87
5563 75.5576 57.00 60.27 7.55
5564 75.5694 59.00 60.29 7.68
5565 75.5812 48.00 60.32 6.93
5566 75.5930 51.00 60.35 7.14
5567 75.6049 70.00 60.40 8.37
5568 75.6166 64.00 60.46 8.00
5569 75.6284 62.00 60.53 7.87
5570 75.6402 61.00 60.61 7.81
5571 75.6520 54.00 60.70 7.35
5572 75.6639 68.00 60.80 8.25
5573 75.6756 51.00 60.89 7.14
5574 75.6874 64.00 61.00 8.00
5575 75.6992 55.00 61.11 7.42
5576 75.7110 63.00 61.18 7.94
5577 75.7228 58.00 61.30 7.62
5578 75.7346 55.00 61.41 7.42
5579 75.7464 64.00 61.51 8.00
5580 75.7582 53.00 61.61 7.28
5581 75.7700 51.00 61.70 7.14
5582 75.7817 43.00 61.78 6.56
5583 75.7936 74.00 61.84 8.60
5584 75.8054 57.00 61.90 7.55
5585 75.8172 60.00 61.94 7.75
5586 75.8290 69.00 61.97 8.31
5587 75.8407 60.00 61.99 7.75
5588 75.8526 73.00 62.00 8.54
5589 75.8644 69.00 62.00 8.31
5590 75.8762 67.00 62.00 8.19
5591 75.8880 54.00 61.99 7.35
5592 75.8997 58.00 61.98 7.62
5593 75.9116 68.00 61.97 8.25
5594 75.9234 62.00 61.96 7.87
5595 75.9352 61.00 61.96 7.81
5596 75.9469 70.00 61.96 8.37
5597 75.9587 55.00 61.97 7.42
5598 75.9705 71.00 62.00 8.43
5599 75.9824 65.00 62.03 8.06
5600 75.9942 50.00 62.07 7.07
5601 76.0059 72.00 62.13 8.49
5602 76.0177 63.00 62.20 7.94
5603 76.0295 56.00 62.28 7.48
5604 76.0414 80.00 62.38 8.94
5605 76.0532 69.00 62.48 8.31
5606 76.0649 68.00 62.61 8.25
5607 76.0767 62.00 62.74 7.87
5608 76.0885 82.00 62.90 9.06
5609 76.1004 60.00 63.06 7.75
5610 76.1122 64.00 63.24 8.00
5611 76.1239 84.00 63.44 9.17
5612 76.1357 72.00 63.65 8.49
5613 76.1475 61.00 63.87 7.81
5614 76.1593 80.00 64.11 8.94
5615 76.1712 57.00 64.37 7.55
5616 76.1829 69.00 64.63 8.31
5617 76.1947 80.00 64.92 8.94
5618 76.2065 62.00 65.21 7.87
5619 76.2183 67.00 65.52 8.19
5620 76.2301 75.00 65.85 8.66
5621 76.2419 67.00 66.18 8.19
5622 76.2537 57.00 66.52 7.55
5623 76.2655 70.00 66.89 8.37
5624 76.2773 76.00 67.27 8.72
5625 76.2891 68.00 67.66 8.25
5626 76.3009 82.00 68.06 9.06
5627 76.3127 75.00 68.48 8.66
5628 76.3245 71.00 68.91 8.43
5629 76.3363 91.00 69.35 9.54
5630 76.3481 66.00 69.80 8.12
5631 76.3599 86.00 70.26 9.27
5632 76.3717 84.00 70.74 9.17
5633 76.3835 71.00 71.23 8.43
5634 76.3952 77.00 71.73 8.77
5635 76.4070 61.00 72.24 7.81
5636 76.4189 62.00 72.76 7.87
5637 76.4307 76.00 73.29 8.72
5638 76.4425 64.00 73.84 8.00
5639 76.4542 79.00 74.39 8.89
5640 76.4660 58.00 74.96 7.62
5641 76.4779 75.00 75.55 8.66
5642 76.4897 82.00 76.15 9.06
5643 76.5015 82.00 76.76 9.06
5644 76.5132 73.00 77.38 8.54
5645 76.5250 91.00 78.03 9.54
5646 76.5369 86.00 78.69 9.27
5647 76.5487 97.00 79.37 9.85
5648 76.5604 85.00 80.07 9.22
5649 76.5722 76.00 80.80 8.72
5650 76.5840 83.00 81.53 9.11
5651 76.5959 72.00 82.29 8.49
5652 76.6077 73.00 83.06 8.54
5653 76.6194 82.00 83.85 9.06
5654 76.6312 89.00 84.64 9.43
5655 76.6430 85.00 85.43 9.22
5656 76.6548 79.00 86.22 8.89
5657 76.6667 85.00 87.01 9.22
5658 76.6784 102.00 87.78 10.10
5659 76.6902 99.00 88.51 9.95
5660 76.7020 96.00 89.22 9.80
5661 76.7138 94.00 89.87 9.70
5662 76.7257 90.00 90.48 9.49
5663 76.7374 106.00 91.01 10.30
5664 76.7492 95.00 91.47 9.75
5665 76.7610 97.00 91.85 9.85
5666 76.7728 97.00 92.15 9.85
5667 76.7846 92.00 92.35 9.59
5668 76.7964 120.00 92.47 10.95
5669 76.8082 89.00 92.49 9.43
5670 76.8200 97.00 92.43 9.85
5671 76.8318 94.00 92.29 9.70
5672 76.8436 108.00 92.07 10.39
5673 76.8554 97.00 91.79 9.85
5674 76.8672 101.00 91.44 10.05
5675 76.8790 89.00 91.03 9.43
5676 76.8908 78.00 90.57 8.83
5677 76.9025 77.00 90.07 8.77
5678 76.9144 95.00 89.52 9.75
5679 76.9262 112.00 88.94 10.58
5680 76.9380 92.00 88.32 9.59
5681 76.9497 74.00 87.68 8.60
5682 76.9615 111.00 87.01 10.54
5683 76.9734 86.00 86.31 9.27
5684 76.9852 88.00 85.60 9.38
5685 76.9970 93.00 84.87 9.64
5686 77.0087 83.00 84.13 9.11
5687 77.0205 90.00 83.39 9.49
5688 77.0324 82.00 82.63 9.06
5689 77.0442 87.00 81.88 9.33
5690 77.0560 76.00 81.13 8.72
5691 77.0677 74.00 80.40 8.60
5692 77.0795 70.00 79.67 8.37
5693 77.0914 70.00 78.96 8.37
5694 77.1032 80.00 78.27 8.94
5695 77.1150 84.00 77.60 9.17
5696 77.1267 85.00 76.95 9.22
5697 77.1385 59.00 76.35 7.68
5698 77.1503 79.00 75.76 8.89
5699 77.1622 67.00 75.19 8.19
5700 77.1739 74.00 74.66 8.60
5701 77.1857 78.00 74.15 8.83
5702 77.1975 93.00 73.68 9.64
5703 77.2093 76.00 73.24 8.72
5704 77.2212 72.00 72.83 8.49
5705 77.2329 72.00 72.45 8.49
5706 77.2447 81.00 72.11 9.00
5707 77.2565 69.00 71.80 8.31
5708 77.2683 77.00 71.52 8.77
5709 77.2801 78.00 71.27 8.83
5710 77.2919 78.00 71.06 8.83
5711 77.3037 80.00 70.88 8.94
5712 77.3155 67.00 70.73 8.19
5713 77.3273 76.00 70.61 8.72
5714 77.3390 67.00 70.52 8.19
5715 77.3509 60.00 70.46 7.75
5716 77.3627 79.00 70.44 8.89
5717 77.3745 80.00 70.45 8.94
5718 77.3863 65.00 70.48 8.06
5719 77.3980 66.00 70.55 8.12
5720 77.4099 73.00 70.65 8.54
5721 77.4217 77.00 70.77 8.77
5722 77.4335 77.00 70.92 8.77
5723 77.4453 88.00 71.11 9.38
5724 77.4570 48.00 71.33 6.93
5725 77.4689 53.00 71.58 7.28
5726 77.4807 81.00 71.90 9.00
5727 77.4925 59.00 72.20 7.68
5728 77.5042 72.00 72.54 8.49
5729 77.5160 69.00 72.90 8.31
5730 77.5279 68.00 73.30 8.25
5731 77.5397 81.00 73.71 9.00
5732 77.5515 89.00 74.16 9.43
5733 77.5632 71.00 74.61 8.43
5734 77.5750 86.00 75.11 9.27
5735 77.5868 86.00 75.63 9.27
5736 77.5987 78.00 76.19 8.83
5737 77.6104 73.00 76.75 8.54
5738 77.6222 69.00 77.35 8.31
5739 77.6340 70.00 77.97 8.37
5740 77.6458 77.00 78.61 8.77
5741 77.6577 84.00 79.28 9.17
5742 77.6694 65.00 79.97 8.06
5743 77.6812 87.00 80.68 9.33
5744 77.6930 77.00 81.41 8.77
5745 77.7048 89.00 82.16 9.43
5746 77.7167 76.00 82.93 8.72
5747 77.7284 89.00 83.71 9.43
5748 77.7402 90.00 84.51 9.49
5749 77.7520 92.00 85.32 9.59
5750 77.7638 95.00 86.14 9.75
5751 77.7756 79.00 86.98 8.89
5752 77.7874 89.00 87.83 9.43
5753 77.7992 77.00 88.68 8.77
5754 77.8110 88.00 89.54 9.38
5755 77.8228 93.00 90.41 9.64
5756 77.8345 89.00 91.28 9.43
5757 77.8464 96.00 92.15 9.80
5758 77.8582 88.00 93.02 9.38
5759 77.8700 84.00 93.88 9.17
5760 77.8818 92.00 94.73 9.59
5761 77.8935 95.00 95.57 9.75
5762 77.9054 104.00 96.41 10.20
5763 77.9172 101.00 97.21 10.05
5764 77.9290 96.00 98.00 9.80
5765 77.9407 91.00 98.76 9.54
5766 77.9525 99.00 99.49 9.95
5767 77.9644 101.00 100.20 10.05
5768 77.9762 93.00 100.87 9.64
5769 77.9880 90.00 101.50 9.49
5770 77.9997 115.00 102.10 10.72
5771 78.0115 113.00 102.65 10.63
5772 78.0234 103.00 103.16 10.15
5773 78.0352 118.00 103.62 10.86
5774 78.0470 91.00 104.04 9.54
5775 78.0587 96.00 104.42 9.80
5776 78.0705 101.00 104.76 10.05
5777 78.0823 119.00 105.05 10.91
5778 78.0942 99.00 105.31 9.95
5779 78.1059 125.00 105.53 11.18
5780 78.1177 105.00 105.71 10.25
5781 78.1295 133.00 105.87 11.53
5782 78.1413 100.00 106.00 10.00
5783 78.1532 123.00 106.10 11.09
5784 78.1649 117.00 106.18 10.82
5785 78.1767 108.00 106.24 10.39
5786 78.1885 105.00 106.29 10.25
5787 78.2003 102.00 106.32 10.10
5788 78.2121 112.00 106.34 10.58
5789 78.2239 116.00 106.35 10.77
5790 78.2357 115.00 106.35 10.72
5791 78.2475 106.00 106.35 10.30
5792 78.2593 113.00 106.34 10.63
5793 78.2711 113.00 106.32 10.63
5794 78.2829 109.00 106.30 10.44
5795 78.2947 103.00 106.27 10.15
5796 78.3065 116.00 106.24 10.77
5797 78.3183 115.00 106.19 10.72
5798 78.3300 116.00 106.13 10.77
5799 78.3419 111.00 106.06 10.54
5800 78.3537 105.00 105.98 10.25
5801 78.3655 134.00 105.89 11.58
5802 78.3772 97.00 105.78 9.85
5803 78.3890 116.00 105.65 10.77
5804 78.4009 103.00 105.50 10.15
5805 78.4127 110.00 105.33 10.49
5806 78.4245 135.00 105.15 11.62
5807 78.4362 104.00 104.94 10.20
5808 78.4480 110.00 104.72 10.49
5809 78.4599 122.00 104.47 11.05
5810 78.4717 128.00 104.20 11.31
5811 78.4835 104.00 103.99 10.20
5812 78.4952 107.00 103.68 10.34
5813 78.5070 98.00 103.36 9.90
5814 78.5188 95.00 103.01 9.75
5815 78.5307 127.00 102.65 11.27
5816 78.5424 100.00 102.27 10.00
5817 78.5542 121.00 101.88 11.00
5818 78.5660 107.00 101.47 10.34
5819 78.5778 98.00 101.04 9.90
5820 78.5897 111.00 100.60 10.54
5821 78.6014 106.00 100.14 10.30
5822 78.6132 108.00 99.66 10.39
5823 78.6250 94.00 99.18 9.70
5824 78.6368 97.00 98.68 9.85
5825 78.6486 95.00 98.16 9.75
5826 78.6604 127.00 97.64 11.27
5827 78.6722 100.00 97.11 10.00
5828 78.6840 105.00 96.57 10.25
5829 78.6958 107.00 96.03 10.34
5830 78.7076 97.00 95.47 9.85
5831 78.7194 90.00 94.93 9.49
5832 78.7312 104.00 94.38 10.20
5833 78.7430 108.00 93.83 10.39
5834 78.7547 104.00 93.29 10.20
5835 78.7665 97.00 92.74 9.85
5836 78.7784 79.00 92.20 8.89
5837 78.7902 98.00 91.67 9.90
5838 78.8020 98.00 91.14 9.90
5839 78.8137 81.00 90.61 9.00
5840 78.8255 101.00 90.08 10.05
5841 78.8374 95.00 89.55 9.75
5842 78.8492 74.00 89.01 8.60
5843 78.8610 93.00 88.48 9.64
5844 78.8727 80.00 87.93 8.94
5845 78.8845 84.00 87.37 9.17
5846 78.8964 106.00 86.80 10.30
5847 78.9082 88.00 86.21 9.38
5848 78.9199 90.00 85.62 9.49
5849 78.9317 104.00 85.00 10.20
5850 78.9435 92.00 84.37 9.59
5851 78.9554 91.00 83.71 9.54
5852 78.9672 84.00 83.05 9.17
5853 78.9789 87.00 82.37 9.33
5854 78.9907 92.00 81.68 9.59
5855 79.0025 104.00 80.98 10.20
5856 79.0143 65.00 80.27 8.06
5857 79.0261 74.00 79.56 8.60
5858 79.0379 76.00 78.84 8.72
5859 79.0497 77.00 78.13 8.77
5860 79.0615 82.00 77.42 9.06
5861 79.0733 84.00 76.72 9.17
5862 79.0851 82.00 76.01 9.06
5863 79.0969 82.00 75.33 9.06
5864 79.1087 82.00 74.65 9.06
5865 79.1205 71.00 73.98 8.43
5866 79.1322 83.00 73.32 9.11
5867 79.1441 71.00 72.67 8.43
5868 79.1559 77.00 72.04 8.77
5869 79.1677 76.00 71.42 8.72
5870 79.1795 64.00 70.81 8.00
5871 79.1912 62.00 70.22 7.87
5872 79.2031 90.00 69.64 9.49
5873 79.2149 72.00 69.08 8.49
5874 79.2267 61.00 68.54 7.81
5875 79.2384 63.00 68.00 7.94
5876 79.2502 73.00 67.49 8.54
5877 79.2620 74.00 66.99 8.60
5878 79.2739 67.00 66.50 8.19
5879 79.2857 56.00 66.03 7.48
5880 79.2974 62.00 65.57 7.87
5881 79.3092 71.00 65.13 8.43
5882 79.3210 64.00 64.70 8.00
5883 79.3329 90.00 64.28 9.49
5884 79.3447 71.00 63.89 8.43
5885 79.3564 85.00 63.50 9.22
5886 79.3682 63.00 63.13 7.94
5887 79.3800 68.00 62.77 8.25
5888 79.3919 78.00 62.42 8.83
5889 79.4036 84.00 62.09 9.17
5890 79.4154 65.00 61.78 8.06
5891 79.4272 92.00 61.47 9.59
5892 79.4390 64.00 61.18 8.00
5893 79.4509 63.00 60.87 7.94
5894 79.4626 74.00 60.60 8.60
5895 79.4744 62.00 60.34 7.87
5896 79.4862 51.00 60.09 7.14
5897 79.4980 59.00 59.86 7.68
5898 79.5098 53.00 59.63 7.28
5899 79.5216 65.00 59.41 8.06
5900 79.5334 58.00 59.20 7.62
5901 79.5452 70.00 59.01 8.37
5902 79.5570 63.00 58.82 7.94
5903 79.5687 52.00 58.64 7.21
5904 79.5806 72.00 58.47 8.49
5905 79.5924 65.00 58.31 8.06
5906 79.6042 61.00 58.16 7.81
5907 79.6160 61.00 58.02 7.81
5908 79.6277 45.00 57.88 6.71
5909 79.6396 75.00 57.76 8.66
5910 79.6514 40.00 57.64 6.32
5911 79.6632 57.00 57.53 7.55
5912 79.6749 60.00 57.42 7.75
5913 79.6867 65.00 57.33 8.06
5914 79.6985 63.00 57.24 7.94
5915 79.7104 57.00 57.15 7.55
5916 79.7222 47.00 57.07 6.86
5917 79.7339 42.00 57.00 6.48
5918 79.7457 67.00 56.94 8.19
5919 79.7575 51.00 56.87 7.14
5920 79.7694 47.00 56.82 6.86
5921 79.7811 54.00 56.77 7.35
5922 79.7929 64.00 56.73 8.00
5923 79.8047 68.00 56.70 8.25
5924 79.8165 69.00 56.68 8.31
5925 79.8284 59.00 56.65 7.68
5926 79.8401 59.00 56.64 7.68
5927 79.8519 47.00 56.63 6.86
5928 79.8637 61.00 56.62 7.81
5929 79.8755 66.00 56.62 8.12
5930 79.8873 55.00 56.62 7.42
5931 79.8991 50.00 56.63 7.07
5932 79.9109 64.00 56.64 8.00
5933 79.9227 64.00 56.66 8.00
5934 79.9345 48.00 56.68 6.93
5935 79.9462 47.00 56.71 6.86
5936 79.9581 64.00 56.73 8.00
5937 79.9699 41.00 56.77 6.40
5938 79.9817 61.00 56.80 7.81
5939 79.9934 55.00 56.84 7.42
5940 80.0052 80.00 56.89 8.94
5941 80.0171 65.00 56.94 8.06
5942 80.0289 58.00 56.99 7.62
5943 80.0407 47.00 57.05 6.86
5944 80.0524 64.00 57.11 8.00
5945 80.0642 58.00 57.17 7.62
5946 80.0761 68.00 57.25 8.25
5947 80.0879 67.00 57.32 8.19
5948 80.0996 61.00 57.40 7.81
5949 80.1114 66.00 57.49 8.12
5950 80.1232 53.00 57.58 7.28
5951 80.1351 51.00 57.67 7.14
5952 80.1469 45.00 57.76 6.71
5953 80.1586 77.00 57.88 8.77
5954 80.1704 65.00 57.98 8.06
5955 80.1822 51.00 58.08 7.14
5956 80.1940 65.00 58.18 8.06
5957 80.2058 67.00 58.28 8.19
5958 80.2176 65.00 58.39 8.06
5959 80.2294 50.00 58.49 7.07
5960 80.2412 69.00 58.58 8.31
5961 80.2530 61.00 58.68 7.81
5962 80.2648 62.00 58.77 7.87
5963 80.2766 55.00 58.86 7.42
5964 80.2884 53.00 58.95 7.28
5965 80.3002 70.00 59.03 8.37
5966 80.3120 59.00 59.11 7.68
5967 80.3238 49.00 59.18 7.00
5968 80.3356 75.00 59.26 8.66
5969 80.3474 70.00 59.33 8.37
5970 80.3592 66.00 59.40 8.12
5971 80.3709 52.00 59.47 7.21
5972 80.3828 58.00 59.55 7.62
5973 80.3946 70.00 59.62 8.37
5974 80.4064 55.00 59.69 7.42
5975 80.4182 71.00 59.77 8.43
5976 80.4299 61.00 59.84 7.81
5977 80.4417 57.00 59.92 7.55
5978 80.4536 54.00 60.01 7.35
5979 80.4654 72.00 60.09 8.49
5980 80.4771 66.00 60.18 8.12
5981 80.4889 70.00 60.27 8.37
5982 80.5007 81.00 60.37 9.00
5983 80.5126 55.00 60.47 7.42
5984 80.5244 67.00 60.57 8.19
5985 80.5361 62.00 60.68 7.87
5986 80.5479 64.00 60.79 8.00
5987 80.5597 79.00 60.91 8.89
5988 80.5716 67.00 61.03 8.19
5989 80.5833 65.00 61.15 8.06
5990 80.5951 89.00 61.29 9.43
5991 80.6069 75.00 61.42 8.66
5992 80.6187 61.00 61.57 7.81
5993 80.6306 63.00 61.72 7.94
5994 80.6423 65.00 61.87 8.06
5995 80.6541 64.00 62.04 8.00
5996 80.6659 84.00 62.21 9.17
5997 80.6777 56.00 62.38 7.48
5998 80.6894 77.00 62.57 8.77
5999 80.7013 73.00 62.76 8.54
6000 80.7131 72.00 62.97 8.49
6001 80.7249 70.00 63.18 8.37
6002 80.7366 55.00 63.39 7.42
6003 80.7484 83.00 63.62 9.11
6004 80.7603 58.00 63.85 7.62
6005 80.7721 73.00 64.10 8.54
6006 80.7839 73.00 64.35 8.54
6007 80.7956 72.00 64.61 8.49
6008 80.8074 76.00 64.87 8.72
6009 80.8193 71.00 65.15 8.43
6010 80.8311 70.00 65.43 8.37
6011 80.8429 83.00 65.72 9.11
6012 80.8546 69.00 66.02 8.31
6013 80.8664 72.00 66.32 8.49
6014 80.8782 61.00 66.63 7.81
6015 80.8901 77.00 66.96 8.77
6016 80.9018 69.00 67.28 8.31
6017 80.9136 72.00 67.61 8.49
6018 80.9254 79.00 67.95 8.89
6019 80.9372 85.00 68.29 9.22
6020 80.9491 75.00 68.64 8.66
6021 80.9608 68.00 68.99 8.25
6022 80.9726 77.00 69.34 8.77
6023 80.9844 67.00 69.69 8.19
6024 80.9962 77.00 70.05 8.77
6025 81.0080 67.00 70.42 8.19
6026 81.0198 74.00 70.78 8.60
6027 81.0316 74.00 71.15 8.60
6028 81.0434 79.00 71.51 8.89
6029 81.0552 78.00 71.87 8.83
6030 81.0670 70.00 72.24 8.37
6031 81.0788 73.00 72.60 8.54
6032 81.0906 84.00 72.95 9.17
6033 81.1024 72.00 73.30 8.49
6034 81.1141 89.00 73.65 9.43
6035 81.1259 72.00 73.98 8.49
6036 81.1378 83.00 74.30 9.11
6037 81.1496 70.00 74.62 8.37
6038 81.1614 79.00 74.92 8.89
6039 81.1731 99.00 75.21 9.95
6040 81.1849 87.00 75.49 9.33
6041 81.1968 57.00 75.75 7.55
6042 81.2086 79.00 75.99 8.89
6043 81.2203 68.00 76.22 8.25
6044 81.2321 69.00 76.42 8.31
6045 81.2439 71.00 76.59 8.43
6046 81.2558 86.00 76.75 9.27
6047 81.2676 73.00 76.88 8.54
6048 81.2793 88.00 76.98 9.38
6049 81.2911 84.00 77.05 9.17
6050 81.3029 72.00 77.09 8.49
6051 81.3148 85.00 77.11 9.22
6052 81.3265 75.00 77.10 8.66
6053 81.3383 74.00 77.06 8.60
6054 81.3501 91.00 77.01 9.54
6055 81.3619 71.00 76.92 8.43
6056 81.3736 74.00 76.79 8.60
6057 81.3855 65.00 76.64 8.06
6058 81.3973 75.00 76.47 8.66
6059 81.4091 84.00 76.27 9.17
6060 81.4209 83.00 76.04 9.11
6061 81.4326 93.00 75.80 9.64
6062 81.4445 76.00 75.54 8.72
6063 81.4563 71.00 75.25 8.43
6064 81.4681 83.00 74.96 9.11
6065 81.4799 83.00 74.64 9.11
6066 81.4916 77.00 74.29 8.77
6067 81.5035 74.00 73.95 8.60
6068 81.5153 67.00 73.60 8.19
6069 81.5271 90.00 73.23 9.49
6070 81.5388 68.00 72.86 8.25
6071 81.5506 75.00 72.49 8.66
6072 81.5625 56.00 72.10 7.48
6073 81.5743 68.00 71.71 8.25
6074 81.5861 79.00 71.31 8.89
6075 81.5978 89.00 70.90 9.43
6076 81.6096 63.00 70.50 7.94
6077 81.6214 64.00 70.08 8.00
6078 81.6333 73.00 69.66 8.54
6079 81.6450 62.00 69.24 7.87
6080 81.6568 56.00 68.82 7.48
6081 81.6686 75.00 68.40 8.66
6082 81.6804 52.00 68.02 7.21
6083 81.6922 50.00 67.59 7.07
6084 81.7040 77.00 67.18 8.77
6085 81.7158 101.00 66.76 10.05
6086 81.7276 65.00 66.35 8.06
6087 81.7393 70.00 65.95 8.37
6088 81.7512 60.00 65.55 7.75
6089 81.7630 60.00 65.16 7.75
6090 81.7748 62.00 64.78 7.87
6091 81.7866 64.00 64.40 8.00
6092 81.7983 64.00 64.04 8.00
6093 81.8102 68.00 63.69 8.25
6094 81.8220 76.00 63.35 8.72
6095 81.8338 71.00 63.01 8.43
6096 81.8456 61.00 62.69 7.81
6097 81.8573 70.00 62.38 8.37
6098 81.8691 63.00 62.08 7.94
6099 81.8810 74.00 61.78 8.60
6100 81.8928 59.00 61.50 7.68
6101 81.9045 77.00 61.23 8.77
6102 81.9163 63.00 60.97 7.94
6103 81.9281 60.00 60.72 7.75
6104 81.9400 52.00 60.48 7.21
6105 81.9518 69.00 60.25 8.31
6106 81.9635 72.00 60.04 8.49
6107 81.9753 70.00 59.83 8.37
6108 81.9871 58.00 59.63 7.62
6109 81.9990 71.00 59.44 8.43
6110 82.0107 52.00 59.26 7.21
6111 82.0225 45.00 59.09 6.71
6112 82.0343 69.00 58.93 8.31
6113 82.0461 61.00 58.77 7.81
6114 82.0578 47.00 58.63 6.86
6115 82.0697 76.00 58.50 8.72
6116 82.0815 57.00 58.38 7.55
6117 82.0933 61.00 58.26 7.81
6118 82.1051 72.00 58.16 8.49
6119 82.1168 64.00 58.06 8.00
6120 82.1287 71.00 57.98 8.43
6121 82.1405 62.00 57.90 7.87
6122 82.1523 62.00 57.84 7.87
6123 82.1640 68.00 57.78 8.25
6124 82.1758 57.00 57.73 7.55
6125 82.1877 55.00 57.70 7.42
6126 82.1995 65.00 57.67 8.06
6127 82.2113 64.00 57.65 8.00
6128 82.2230 56.00 57.65 7.48
6129 82.2348 59.00 57.65 7.68
6130 82.2467 48.00 57.66 6.93
6131 82.2585 76.00 57.68 8.72
6132 82.2702 59.00 57.72 7.68
6133 82.2820 67.00 57.76 8.19
6134 82.2938 66.00 57.80 8.12
6135 82.3056 50.00 57.86 7.07
6136 82.3175 73.00 57.93 8.54
6137 82.3292 60.00 58.00 7.75
6138 82.3410 53.00 58.08 7.28
6139 82.3528 73.00 58.17 8.54
6140 82.3646 65.00 58.26 8.06
6141 82.3764 55.00 58.37 7.42
6142 82.3882 61.00 58.48 7.81
6143 82.4000 62.00 58.60 7.87
6144 82.4118 62.00 58.72 7.87
6145 82.4235 64.00 58.85 8.00
6146 82.4354 61.00 58.99 7.81
6147 82.4472 71.00 59.12 8.43
6148 82.4590 62.00 59.27 7.87
6149 82.4708 58.00 59.41 7.62
6150 82.4825 57.00 59.57 7.55
6151 82.4944 59.00 59.72 7.68
6152 82.5062 69.00 59.87 8.31
6153 82.5180 56.00 60.02 7.48
6154 82.5297 64.00 60.17 8.00
6155 82.5415 61.00 60.33 7.81
6156 82.5533 82.00 60.48 9.06
6157 82.5652 70.00 60.63 8.37
6158 82.5770 65.00 60.78 8.06
6159 82.5887 66.00 60.92 8.12
6160 82.6005 71.00 61.06 8.43
6161 82.6123 49.00 61.20 7.00
6162 82.6242 66.00 61.33 8.12
6163 82.6359 68.00 61.46 8.25
6164 82.6477 52.00 61.58 7.21
6165 82.6595 43.00 61.70 6.56
6166 82.6713 63.00 61.84 7.94
6167 82.6832 60.00 61.95 7.75
6168 82.6949 67.00 62.04 8.19
6169 82.7067 76.00 62.13 8.72
6170 82.7185 69.00 62.21 8.31
6171 82.7303 64.00 62.29 8.00
6172 82.7421 67.00 62.35 8.19
6173 82.7539 54.00 62.41 7.35
6174 82.7657 62.00 62.46 7.87
6175 82.7775 57.00 62.51 7.55
6176 82.7892 68.00 62.53 8.25
6177 82.8010 67.00 62.56 8.19
6178 82.8129 57.00 62.58 7.55
6179 82.8247 54.00 62.59 7.35
6180 82.8365 63.00 62.59 7.94
6181 82.8482 62.00 62.58 7.87
6182 82.8600 55.00 62.57 7.42
6183 82.8719 53.00 62.55 7.28
6184 82.8837 70.00 62.52 8.37
6185 82.8954 67.00 62.48 8.19
6186 82.9072 56.00 62.44 7.48
6187 82.9190 57.00 62.39 7.55
6188 82.9309 65.00 62.34 8.06
6189 82.9426 56.00 62.28 7.48
6190 82.9544 73.00 62.22 8.54
6191 82.9662 46.00 62.16 6.78
6192 82.9780 64.00 62.10 8.00
6193 82.9899 68.00 62.03 8.25
6194 83.0016 66.00 61.97 8.12
6195 83.0134 56.00 61.91 7.48
6196 83.0252 56.00 61.85 7.48
6197 83.0370 71.00 61.79 8.43
6198 83.0488 65.00 61.74 8.06
6199 83.0606 62.00 61.69 7.87
6200 83.0724 70.00 61.64 8.37
6201 83.0842 45.00 61.60 6.71
6202 83.0960 56.00 61.57 7.48
6203 83.1077 58.00 61.55 7.62
6204 83.1196 57.00 61.53 7.55
6205 83.1314 57.00 61.51 7.55
6206 83.1432 55.00 61.51 7.42
6207 83.1549 60.00 61.50 7.75
6208 83.1667 94.00 61.51 9.70
6209 83.1786 61.00 61.53 7.81
6210 83.1904 62.00 61.56 7.87
6211 83.2022 74.00 61.60 8.60
6212 83.2139 71.00 61.64 8.43
6213 83.2257 67.00 61.69 8.19
6214 83.2375 54.00 61.76 7.35
6215 83.2494 75.00 61.83 8.66
6216 83.2611 61.00 61.91 7.81
6217 83.2729 53.00 62.00 7.28
6218 83.2847 76.00 62.10 8.72
6219 83.2965 56.00 62.20 7.48
6220 83.3083 66.00 62.32 8.12
6221 83.3201 56.00 62.44 7.48
6222 83.3319 57.00 62.57 7.55
6223 83.3437 75.00 62.71 8.66
6224 83.3555 66.00 62.85 8.12
6225 83.3673 63.00 63.00 7.94
6226 83.3791 70.00 63.15 8.37
6227 83.3909 77.00 63.31 8.77
6228 83.4027 62.00 63.47 7.87
6229 83.4144 50.00 63.64 7.07
6230 83.4263 87.00 63.81 9.33
6231 83.4381 73.00 63.97 8.54
6232 83.4499 59.00 64.14 7.68
6233 83.4616 48.00 64.31 6.93
6234 83.4734 66.00 64.48 8.12
6235 83.4852 83.00 64.65 9.11
6236 83.4971 72.00 64.82 8.49
6237 83.5089 66.00 64.98 8.12
6238 83.5206 59.00 65.14 7.68
6239 83.5324 70.00 65.30 8.37
6240 83.5442 70.00 65.45 8.37
6241 83.5561 62.00 65.60 7.87
6242 83.5678 75.00 65.75 8.66
6243 83.5796 85.00 65.89 9.22
6244 83.5914 62.00 66.04 7.87
6245 83.6032 62.00 66.17 7.87
6246 83.6151 71.00 66.31 8.43
6247 83.6268 78.00 66.44 8.83
6248 83.6386 71.00 66.57 8.43
6249 83.6504 71.00 66.70 8.43
6250 83.6622 62.00 66.83 7.87
6251 83.6740 73.00 66.96 8.54
6252 83.6858 84.00 67.09 9.17
6253 83.6976 65.00 67.22 8.06
6254 83.7094 74.00 67.35 8.60
6255 83.7211 84.00 67.47 9.17
6256 83.7329 82.00 67.60 9.06
6257 83.7448 65.00 67.73 8.06
6258 83.7566 67.00 67.86 8.19
6259 83.7684 66.00 67.98 8.12
6260 83.7801 71.00 68.11 8.43
6261 83.7919 63.00 68.23 7.94
6262 83.8038 69.00 68.36 8.31
6263 83.8156 85.00 68.47 9.22
6264 83.8273 65.00 68.59 8.06
6265 83.8391 53.00 68.70 7.28
6266 83.8509 69.00 68.81 8.31
6267 83.8628 86.00 68.91 9.27
6268 83.8745 80.00 69.00 8.94
6269 83.8863 88.00 69.08 9.38
6270 83.8981 63.00 69.16 7.94
6271 83.9099 77.00 69.23 8.77
6272 83.9218 65.00 69.29 8.06
6273 83.9335 72.00 69.33 8.49
6274 83.9453 70.00 69.37 8.37
6275 83.9571 68.00 69.39 8.25
6276 83.9689 83.00 69.41 9.11
6277 83.9806 69.00 69.41 8.31
6278 83.9925 81.00 69.41 9.00
6279 84.0043 79.00 69.40 8.89
6280 84.0161 59.00 69.38 7.68
6281 84.0278 91.00 69.35 9.54
6282 84.0396 72.00 69.31 8.49
6283 84.0515 74.00 69.28 8.60
6284 84.0633 65.00 69.24 8.06
6285 84.0751 78.00 69.20 8.83
6286 84.0868 90.00 69.15 9.49
6287 84.0986 83.00 69.12 9.11
6288 84.1105 64.00 69.08 8.00
6289 84.1223 73.00 69.04 8.54
6290 84.1340 70.00 69.02 8.37
6291 84.1458 74.00 68.99 8.60
6292 84.1576 69.00 68.97 8.31
6293 84.1695 70.00 68.96 8.37
6294 84.1813 65.00 68.96 8.06
6295 84.1930 65.00 68.96 8.06
6296 84.2048 80.00 68.97 8.94
6297 84.2166 55.00 68.98 7.42
6298 84.2284 67.00 69.00 8.19
6299 84.2402 59.00 69.02 7.68
6300 84.2520 66.00 69.05 8.12
6301 84.2638 61.00 69.07 7.81
6302 84.2756 74.00 69.10 8.60
6303 84.2873 68.00 69.13 8.25
6304 84.2992 68.00 69.15 8.25
6305 84.3110 70.00 69.17 8.37
6306 84.3228 68.00 69.21 8.25
6307 84.3346 67.00 69.22 8.19
6308 84.3463 70.00 69.21 8.37
6309 84.3582 76.00 69.19 8.72
6310 84.3700 68.00 69.16 8.25
6311 84.3818 69.00 69.12 8.31
6312 84.3935 73.00 69.06 8.54
6313 84.4053 86.00 68.98 9.27
6314 84.4171 62.00 68.88 7.87
6315 84.4290 74.00 68.77 8.60
6316 84.4407 74.00 68.63 8.60
6317 84.4525 45.00 68.48 6.71
6318 84.4643 98.00 68.31 9.90
6319 84.4761 70.00 68.11 8.37
6320 84.4880 62.00 67.90 7.87
6321 84.4997 61.00 67.67 7.81
6322 84.5115 69.00 67.42 8.31
6323 84.5233 69.00 67.16 8.31
6324 84.5351 76.00 66.88 8.72
6325 84.5469 62.00 66.59 7.87
6326 84.5587 87.00 66.29 9.33
6327 84.5705 78.00 65.97 8.83
6328 84.5823 55.00 65.65 7.42
6329 84.5940 72.00 65.33 8.49
6330 84.6059 68.00 65.00 8.25
6331 84.6177 77.00 64.66 8.77
6332 84.6295 70.00 64.33 8.37
6333 84.6413 54.00 64.00 7.35
6334 84.6530 79.00 63.68 8.89
6335 84.6648 61.00 63.36 7.81
6336 84.6767 69.00 63.04 8.31
6337 84.6885 82.00 62.73 9.06
6338 84.7002 70.00 62.44 8.37
6339 84.7120 71.00 62.15 8.43
6340 84.7238 57.00 61.87 7.55
6341 84.7357 67.00 61.60 8.19
6342 84.7474 70.00 61.35 8.37
6343 84.7592 54.00 61.11 7.35
6344 84.7710 61.00 60.87 7.81
6345 84.7828 57.00 60.66 7.55
6346 84.7947 55.00 60.45 7.42
6347 84.8064 57.00 60.25 7.55
6348 84.8182 68.00 60.07 8.25
6349 84.8300 59.00 59.90 7.68
6350 84.8418 67.00 59.74 8.19
6351 84.8536 64.00 59.59 8.00
6352 84.8654 60.00 59.45 7.75
6353 84.8772 64.00 59.32 8.00
6354 84.8890 55.00 59.20 7.42
6355 84.9007 66.00 59.09 8.12
6356 84.9125 57.00 58.99 7.55
6357 84.9244 57.00 58.90 7.55
6358 84.9362 61.00 58.81 7.81
6359 84.9480 72.00 58.73 8.49
6360 84.9597 74.00 58.65 8.60
6361 84.9715 59.00 58.58 7.68
6362 84.9834 55.00 58.51 7.42
6363 84.9952 71.00 58.44 8.43
6364 85.0069 73.00 58.38 8.54
6365 85.0187 58.00 58.32 7.62
6366 85.0305 46.00 58.26 6.78
6367 85.0424 53.00 58.20 7.28
6368 85.0541 60.00 58.14 7.75
6369 85.0659 57.00 58.08 7.55
6370 85.0777 61.00 58.02 7.81
6371 85.0895 52.00 57.96 7.21
6372 85.1013 55.00 57.91 7.42
6373 85.1131 71.00 57.85 8.43
6374 85.1249 67.00 57.80 8.19
6375 85.1367 66.00 57.74 8.12
6376 85.1485 71.00 57.69 8.43
6377 85.1602 71.00 57.65 8.43
6378 85.1721 54.00 57.60 7.35
6379 85.1839 64.00 57.56 8.00
6380 85.1957 57.00 57.52 7.55
6381 85.2074 59.00 57.49 7.68
6382 85.2192 68.00 57.47 8.25
6383 85.2311 63.00 57.45 7.94
6384 85.2429 60.00 57.44 7.75
6385 85.2546 72.00 57.44 8.49
6386 85.2664 65.00 57.44 8.06
6387 85.2782 59.00 57.46 7.68
6388 85.2901 76.00 57.48 8.72
6389 85.3019 72.00 57.52 8.49
6390 85.3136 65.00 57.56 8.06
6391 85.3254 60.00 57.61 7.75
6392 85.3372 62.00 57.67 7.87
6393 85.3491 65.00 57.74 8.06
6394 85.3608 73.00 57.81 8.54
6395 85.3726 68.00 57.90 8.25
6396 85.3844 69.00 57.99 8.31
6397 85.3962 61.00 58.08 7.81
6398 85.4080 66.00 58.18 8.12
6399 85.4198 57.00 58.29 7.55
6400 85.4316 51.00 58.39 7.14
6401 85.4434 47.00 58.50 6.86
6402 85.4551 61.00 58.65 7.81
6403 85.4669 50.00 58.76 7.07
6404 85.4788 55.00 58.87 7.42
6405 85.4906 45.00 58.97 6.71
6406 85.5024 58.00 59.08 7.62
6407 85.5141 65.00 59.18 8.06
6408 85.5259 48.00 59.28 6.93
6409 85.5378 49.00 59.39 7.00
6410 85.5496 71.00 59.49 8.43
6411 85.5613 74.00 59.60 8.60
6412 85.5731 76.00 59.70 8.72
6413 85.5849 63.00 59.81 7.94
6414 85.5967 71.00 59.93 8.43
6415 85.6086 62.00 60.05 7.87
6416 85.6203 49.00 60.17 7.00
6417 85.6321 50.00 60.31 7.07
6418 85.6439 72.00 60.45 8.49
6419 85.6557 62.00 60.61 7.87
6420 85.6675 75.00 60.78 8.66
6421 85.6793 64.00 60.95 8.00
6422 85.6911 68.00 61.13 8.25
6423 85.7029 76.00 61.33 8.72
6424 85.7146 68.00 61.53 8.25
6425 85.7265 66.00 61.74 8.12
6426 85.7383 67.00 61.97 8.19
6427 85.7501 60.00 62.20 7.75
6428 85.7618 73.00 62.44 8.54
6429 85.7736 77.00 62.68 8.77
6430 85.7855 63.00 62.94 7.94
6431 85.7973 73.00 63.20 8.54
6432 85.8091 62.00 63.47 7.87
6433 85.8208 65.00 63.74 8.06
6434 85.8326 69.00 64.01 8.31
6435 85.8444 72.00 64.29 8.49
6436 85.8563 68.00 64.58 8.25
6437 85.8680 64.00 64.86 8.00
6438 85.8798 67.00 65.15 8.19
6439 85.8916 75.00 65.44 8.66
6440 85.9034 82.00 65.73 9.06
6441 85.9152 69.00 66.02 8.31
6442 85.9270 74.00 66.30 8.60
6443 85.9388 83.00 66.59 9.11
6444 85.9506 69.00 66.86 8.31
6445 85.9623 75.00 67.14 8.66
6446 85.9742 76.00 67.40 8.72
6447 85.9860 75.00 67.66 8.66
6448 85.9978 73.00 67.91 8.54
6449 86.0096 70.00 68.15 8.37
6450 86.0213 79.00 68.39 8.89
6451 86.0332 66.00 68.61 8.12
6452 86.0450 87.00 68.82 9.33
6453 86.0568 73.00 69.01 8.54
6454 86.0685 59.00 69.19 7.68
6455 86.0803 78.00 69.36 8.83
6456 86.0921 78.00 69.51 8.83
6457 86.1040 77.00 69.65 8.77
6458 86.1157 74.00 69.77 8.60
6459 86.1275 67.00 69.88 8.19
6460 86.1393 83.00 69.96 9.11
6461 86.1511 74.00 70.03 8.60
6462 86.1630 71.00 70.09 8.43
6463 86.1747 67.00 70.13 8.19
6464 86.1865 61.00 70.15 7.81
6465 86.1983 64.00 70.16 8.00
6466 86.2101 74.00 70.15 8.60
6467 86.2219 94.00 70.12 9.70
6468 86.2337 68.00 70.08 8.25
6469 86.2455 70.00 70.02 8.37
6470 86.2573 61.00 69.95 7.81
6471 86.2690 68.00 69.86 8.25
6472 86.2809 68.00 69.77 8.25
6473 86.2927 76.00 69.66 8.72
6474 86.3045 68.00 69.53 8.25
6475 86.3162 82.00 69.40 9.06
6476 86.3280 71.00 69.26 8.43
6477 86.3398 69.00 69.11 8.31
6478 86.3517 72.00 68.95 8.49
6479 86.3634 74.00 68.78 8.60
6480 86.3752 86.00 68.61 9.27
6481 86.3870 83.00 68.43 9.11
6482 86.3988 67.00 68.24 8.19
6483 86.4107 80.00 68.05 8.94
6484 86.4224 71.00 67.86 8.43
6485 86.4342 66.00 67.66 8.12
6486 86.4460 68.00 67.46 8.25
6487 86.4578 60.00 67.26 7.75
6488 86.4696 78.00 67.05 8.83
6489 86.4814 82.00 66.85 9.06
6490 86.4932 76.00 66.64 8.72
6491 86.5050 67.00 66.43 8.19
6492 86.5167 65.00 66.22 8.06
6493 86.5286 57.00 66.01 7.55
6494 86.5404 71.00 65.81 8.43
6495 86.5522 68.00 65.60 8.25
6496 86.5639 66.00 65.39 8.12
6497 86.5757 72.00 65.19 8.49
6498 86.5875 67.00 64.98 8.19
6499 86.5994 72.00 64.78 8.49
6500 86.6112 69.00 64.58 8.31
6501 86.6229 67.00 64.44 8.19
6502 86.6347 68.00 64.25 8.25
6503 86.6465 82.00 64.05 9.06
6504 86.6584 69.00 63.86 8.31
6505 86.6701 58.00 63.67 7.62
6506 86.6819 54.00 63.48 7.35
6507 86.6937 61.00 63.29 7.81
6508 86.7055 72.00 63.11 8.49
6509 86.7173 68.00 62.93 8.25
6510 86.7291 60.00 62.75 7.75
6511 86.7409 64.00 62.58 8.00
6512 86.7527 60.00 62.41 7.75
6513 86.7645 64.00 62.24 8.00
6514 86.7762 59.00 62.07 7.68
6515 86.7881 72.00 61.90 8.49
6516 86.7999 68.00 61.74 8.25
6517 86.8117 62.00 61.58 7.87
6518 86.8234 62.00 61.43 7.87
6519 86.8352 69.00 61.27 8.31
6520 86.8471 61.00 61.12 7.81
6521 86.8589 64.00 60.97 8.00
6522 86.8706 74.00 60.82 8.60
6523 86.8824 52.00 60.67 7.21
6524 86.8942 67.00 60.53 8.19
6525 86.9061 51.00 60.38 7.14
6526 86.9178 56.00 60.24 7.48
6527 86.9296 54.00 60.10 7.35
6528 86.9414 66.00 59.96 8.12
6529 86.9532 69.00 59.82 8.31
6530 86.9650 65.00 59.68 8.06
6531 86.9768 67.00 59.54 8.19
6532 86.9886 65.00 59.40 8.06
6533 87.0004 62.00 59.26 7.87
6534 87.0122 59.00 59.13 7.68
6535 87.0239 56.00 58.99 7.48
6536 87.0358 60.00 58.85 7.75
6537 87.0476 62.00 58.72 7.87
6538 87.0594 42.00 58.58 6.48
6539 87.0711 70.00 58.45 8.37
6540 87.0829 58.00 58.32 7.62
6541 87.0948 58.00 58.19 7.62
6542 87.1066 59.00 58.06 7.68
6543 87.1183 67.00 57.93 8.19
6544 87.1301 68.00 57.80 8.25
6545 87.1419 68.00 57.68 8.25
6546 87.1538 57.00 57.55 7.55
6547 87.1656 55.00 57.43 7.42
6548 87.1773 63.00 57.32 7.94
6549 87.1891 59.00 57.20 7.68
6550 87.2009 63.00 57.09 7.94
6551 87.2128 56.00 56.97 7.48
6552 87.2245 59.00 56.87 7.68
6553 87.2363 47.00 56.76 6.86
6554 87.2481 55.00 56.66 7.42
6555 87.2599 44.00 56.56 6.63
6556 87.2716 52.00 56.46 7.21
6557 87.2835 62.00 56.36 7.87
6558 87.2953 67.00 56.27 8.19
6559 87.3071 64.00 56.19 8.00
6560 87.3188 48.00 56.10 6.93
6561 87.3306 61.00 56.02 7.81
6562 87.3425 62.00 55.93 7.87
6563 87.3543 59.00 55.86 7.68
6564 87.3661 47.00 55.78 6.86
6565 87.3778 49.00 55.71 7.00
6566 87.3896 45.00 55.64 6.71
6567 87.4015 62.00 55.58 7.87
6568 87.4133 59.00 55.51 7.68
6569 87.4250 52.00 55.45 7.21
6570 87.4368 55.00 55.39 7.42
6571 87.4486 56.00 55.34 7.48
6572 87.4605 59.00 55.28 7.68
6573 87.4722 52.00 55.23 7.21
6574 87.4840 57.00 55.18 7.55
6575 87.4958 45.00 55.13 6.71
6576 87.5076 64.00 55.09 8.00
6577 87.5193 64.00 55.05 8.00
6578 87.5312 56.00 55.00 7.48
6579 87.5430 52.00 54.96 7.21
6580 87.5548 58.00 54.93 7.62
6581 87.5665 54.00 54.89 7.35
6582 87.5783 49.00 54.86 7.00
6583 87.5902 63.00 54.83 7.94
6584 87.6020 40.00 54.79 6.32
6585 87.6137 56.00 54.77 7.48
6586 87.6255 64.00 54.74 8.00
6587 87.6373 65.00 54.71 8.06
6588 87.6492 45.00 54.69 6.71
6589 87.6610 55.00 54.66 7.42
6590 87.6727 45.00 54.64 6.71
6591 87.6845 62.00 54.62 7.87
6592 87.6963 39.00 54.60 6.24
6593 87.7082 62.00 54.58 7.87
6594 87.7199 54.00 54.56 7.35
6595 87.7317 50.00 54.54 7.07
6596 87.7435 56.00 54.51 7.48
6597 87.7553 48.00 54.49 6.93
6598 87.7670 55.00 54.46 7.42
6599 87.7789 55.00 54.44 7.42
6600 87.7907 53.00 54.41 7.28
6601 87.8025 57.00 54.39 7.55
6602 87.8142 50.00 54.36 7.07
6603 87.8260 52.00 54.33 7.21
6604 87.8379 51.00 54.29 7.14
6605 87.8497 55.00 54.26 7.42
6606 87.8615 62.00 54.22 7.87
6607 87.8732 52.00 54.18 7.21
6608 87.8850 54.00 54.14 7.35
6609 87.8969 50.00 54.10 7.07
6610 87.9087 69.00 54.05 8.31
6611 87.9204 51.00 54.01 7.14
6612 87.9322 53.00 53.96 7.28
6613 87.9440 63.00 53.92 7.94
6614 87.9558 64.00 53.87 8.00
6615 87.9676 51.00 53.82 7.14
6616 87.9794 52.00 53.78 7.21
6617 87.9912 49.00 53.73 7.00
6618 88.0030 53.00 53.69 7.28
6619 88.0147 40.00 53.63 6.32
6620 88.0266 60.00 53.59 7.75
6621 88.0384 56.00 53.56 7.48
6622 88.0502 54.00 53.52 7.35
6623 88.0620 46.00 53.49 6.78
6624 88.0737 57.00 53.46 7.55
6625 88.0856 42.00 53.44 6.48
6626 88.0974 44.00 53.40 6.63
6627 88.1091 51.00 53.38 7.14
6628 88.1209 46.00 53.37 6.78
6629 88.1327 41.00 53.36 6.40
6630 88.1446 55.00 53.36 7.42
6631 88.1564 60.00 53.36 7.75
6632 88.1681 53.00 53.37 7.28
6633 88.1799 65.00 53.38 8.06
6634 88.1917 51.00 53.39 7.14
6635 88.2035 57.00 53.42 7.55
6636 88.2153 52.00 53.44 7.21
6637 88.2271 48.00 53.49 6.93
6638 88.2389 49.00 53.53 7.00
6639 88.2507 44.00 53.57 6.63
6640 88.2624 51.00 53.62 7.14
6641 88.2743 44.00 53.68 6.63
6642 88.2861 44.00 53.74 6.63
6643 88.2979 52.00 53.80 7.21
6644 88.3096 61.00 53.87 7.81
6645 88.3214 50.00 53.95 7.07
6646 88.3333 48.00 54.03 6.93
6647 88.3451 51.00 54.12 7.14
6648 88.3568 60.00 54.21 7.75
6649 88.3686 57.00 54.31 7.55
6650 88.3804 60.00 54.42 7.75
6651 88.3923 57.00 54.53 7.55
6652 88.4041 49.00 54.65 7.00
6653 88.4158 53.00 54.77 7.28
6654 88.4276 56.00 54.90 7.48
6655 88.4394 52.00 55.03 7.21
6656 88.4512 47.00 55.17 6.86
6657 88.4630 65.00 55.31 8.06
6658 88.4748 56.00 55.46 7.48
6659 88.4866 58.00 55.62 7.62
6660 88.4984 59.00 55.78 7.68
6661 88.5101 66.00 55.94 8.12
6662 88.5220 41.00 56.11 6.40
6663 88.5338 61.00 56.28 7.81
6664 88.5456 56.00 56.46 7.48
6665 88.5573 50.00 56.68 7.07
6666 88.5691 48.00 56.87 6.93
6667 88.5810 61.00 57.06 7.81
6668 88.5928 62.00 57.26 7.87
6669 88.6045 61.00 57.46 7.81
6670 88.6163 51.00 57.66 7.14
6671 88.6281 44.00 57.86 6.63
6672 88.6400 64.00 58.07 8.00
6673 88.6517 57.00 58.29 7.55
6674 88.6635 76.00 58.50 8.72
6675 88.6753 63.00 58.72 7.94
6676 88.6871 58.00 58.95 7.62
6677 88.6989 59.00 59.17 7.68
6678 88.7107 70.00 59.40 8.37
6679 88.7225 61.00 59.63 7.81
6680 88.7343 60.00 59.87 7.75
6681 88.7461 44.00 60.10 6.63
6682 88.7578 56.00 60.34 7.48
6683 88.7697 62.00 60.58 7.87
6684 88.7815 70.00 60.83 8.37
6685 88.7933 54.00 61.07 7.35
6686 88.8050 64.00 61.32 8.00
6687 88.8168 60.00 61.58 7.75
6688 88.8287 67.00 61.84 8.19
6689 88.8405 70.00 62.10 8.37
6690 88.8522 66.00 62.37 8.12
6691 88.8640 54.00 62.64 7.35
6692 88.8758 51.00 62.91 7.14
6693 88.8877 61.00 63.19 7.81
6694 88.8994 70.00 63.48 8.37
6695 88.9112 67.00 63.76 8.19
6696 88.9230 71.00 64.06 8.43
6697 88.9348 56.00 64.35 7.48
6698 88.9466 64.00 64.65 8.00
6699 88.9584 68.00 64.96 8.25
6700 88.9702 60.00 65.27 7.75
6701 88.9820 62.00 65.57 7.87
6702 88.9938 68.00 65.87 8.25
6703 89.0055 61.00 66.16 7.81
6704 89.0174 73.00 66.46 8.54
6705 89.0292 63.00 66.74 7.94
6706 89.0410 64.00 67.01 8.00
6707 89.0527 50.00 67.27 7.07
6708 89.0645 62.00 67.52 7.87
6709 89.0764 69.00 67.75 8.31
6710 89.0882 81.00 67.97 9.00
6711 89.0999 72.00 68.16 8.49
6712 89.1117 61.00 68.33 7.81
6713 89.1235 59.00 68.48 7.68
6714 89.1354 56.00 68.61 7.48
6715 89.1471 68.00 68.71 8.25
6716 89.1589 72.00 68.78 8.49
6717 89.1707 71.00 68.84 8.43
6718 89.1825 56.00 68.87 7.48
6719 89.1942 81.00 68.88 9.00
6720 89.2061 81.00 68.88 9.00
6721 89.2179 54.00 68.85 7.35
6722 89.2297 69.00 68.82 8.31
6723 89.2415 77.00 68.77 8.77
6724 89.2532 70.00 68.70 8.37
6725 89.2651 77.00 68.63 8.77
6726 89.2769 64.00 68.55 8.00
6727 89.2887 77.00 68.46 8.77
6728 89.3004 80.00 68.39 8.94
6729 89.3122 69.00 68.29 8.31
6730 89.3241 70.00 68.19 8.37
6731 89.3359 60.00 68.10 7.75
6732 89.3476 60.00 67.99 7.75
6733 89.3594 73.00 67.89 8.54
6734 89.3712 78.00 67.79 8.83
6735 89.3830 72.00 67.69 8.49
6736 89.3948 49.00 67.58 7.00
6737 89.4066 65.00 67.48 8.06
6738 89.4184 57.00 67.38 7.55
6739 89.4302 56.00 67.28 7.48
6740 89.4419 78.00 67.18 8.83
6741 89.4538 67.00 67.08 8.19
6742 89.4656 67.00 66.98 8.19
6743 89.4774 60.00 66.88 7.75
6744 89.4891 68.00 66.78 8.25
6745 89.5009 72.00 66.68 8.49
6746 89.5128 69.00 66.59 8.31
6747 89.5246 75.00 66.50 8.66
6748 89.5363 85.00 66.43 9.22
6749 89.5481 67.00 66.34 8.19
6750 89.5599 70.00 66.26 8.37
6751 89.5718 60.00 66.18 7.75
6752 89.5835 66.00 66.11 8.12
6753 89.5953 72.00 66.04 8.49
6754 89.6071 62.00 65.98 7.87
6755 89.6189 52.00 65.93 7.21
6756 89.6307 78.00 65.88 8.83
6757 89.6425 54.00 65.84 7.35
6758 89.6543 68.00 65.81 8.25
6759 89.6661 68.00 65.79 8.25
6760 89.6779 65.00 65.78 8.06
6761 89.6896 70.00 65.78 8.37
6762 89.7015 65.00 65.79 8.06
6763 89.7133 52.00 65.81 7.21
6764 89.7251 72.00 65.84 8.49
6765 89.7368 59.00 65.88 7.68
6766 89.7486 59.00 65.94 7.68
6767 89.7605 60.00 66.01 7.75
6768 89.7723 64.00 66.09 8.00
6769 89.7840 71.00 66.19 8.43
6770 89.7958 67.00 66.29 8.19
6771 89.8076 64.00 66.41 8.00
6772 89.8195 70.00 66.55 8.37
6773 89.8312 78.00 66.69 8.83
6774 89.8430 63.00 66.85 7.94
6775 89.8548 65.00 67.02 8.06
6776 89.8666 70.00 67.19 8.37
6777 89.8783 69.00 67.38 8.31
6778 89.8902 60.00 67.58 7.75
6779 89.9020 74.00 67.79 8.60
6780 89.9138 65.00 68.00 8.06
6781 89.9255 63.00 68.21 7.94
6782 89.9373 70.00 68.43 8.37
6783 89.9492 71.00 68.66 8.43
6784 89.9610 76.00 68.88 8.72
6785 89.9727 69.00 69.10 8.31
6786 89.9845 73.00 69.31 8.54
6787 89.9963 68.00 69.52 8.25
6788 90.0082 80.00 69.72 8.94
6789 90.0200 66.00 69.91 8.12
6790 90.0317 83.00 70.09 9.11
6791 90.0435 72.00 70.26 8.49
6792 90.0553 66.00 70.41 8.12
6793 90.0672 81.00 70.55 9.00
6794 90.0789 70.00 70.67 8.37
6795 90.0907 62.00 70.77 7.87
6796 90.1025 67.00 70.86 8.19
6797 90.1143 73.00 70.93 8.54
6798 90.1260 68.00 70.98 8.25
6799 90.1379 56.00 71.01 7.48
6800 90.1497 82.00 71.02 9.06
6801 90.1615 73.00 71.01 8.54
6802 90.1732 60.00 70.98 7.75
6803 90.1850 89.00 70.92 9.43
6804 90.1969 67.00 70.85 8.19
6805 90.2087 66.00 70.75 8.12
6806 90.2204 74.00 70.62 8.60
6807 90.2322 75.00 70.47 8.66
6808 90.2440 82.00 70.29 9.06
6809 90.2559 54.00 70.09 7.35
6810 90.2676 82.00 69.85 9.06
6811 90.2794 59.00 69.59 7.68
6812 90.2912 60.00 69.31 7.75
6813 90.3030 70.00 69.00 8.37
6814 90.3148 70.00 68.66 8.37
6815 90.3266 53.00 68.30 7.28
6816 90.3384 76.00 67.92 8.72
6817 90.3502 62.00 67.53 7.87
6818 90.3619 63.00 67.13 7.94
6819 90.3737 75.00 66.71 8.66
6820 90.3856 72.00 66.28 8.49
6821 90.3974 57.00 65.85 7.55
6822 90.4092 70.00 65.42 8.37
6823 90.4209 55.00 64.99 7.42
6824 90.4327 62.00 64.56 7.87
6825 90.4446 63.00 64.13 7.94
6826 90.4564 57.00 63.71 7.55
6827 90.4681 60.00 63.30 7.75
6828 90.4799 54.00 62.90 7.35
6829 90.4917 63.00 62.51 7.94
6830 90.5036 57.00 62.12 7.55
6831 90.5153 64.00 61.75 8.00
6832 90.5271 75.00 61.39 8.66
6833 90.5389 70.00 61.04 8.37
6834 90.5507 61.00 60.71 7.81
6835 90.5624 60.00 60.38 7.75
6836 90.5743 46.00 60.07 6.78
6837 90.5861 60.00 59.76 7.75
6838 90.5979 53.00 59.47 7.28
6839 90.6096 49.00 59.20 7.00
6840 90.6214 71.00 58.93 8.43
6841 90.6333 44.00 58.67 6.63
6842 90.6451 64.00 58.43 8.00
6843 90.6568 56.00 58.20 7.48
6844 90.6686 60.00 57.98 7.75
6845 90.6804 74.00 57.77 8.60
6846 90.6923 57.00 57.56 7.55
6847 90.7040 51.00 57.37 7.14
6848 90.7158 62.00 57.19 7.87
6849 90.7276 59.00 57.01 7.68
6850 90.7394 64.00 56.85 8.00
6851 90.7512 52.00 56.69 7.21
6852 90.7630 55.00 56.54 7.42
6853 90.7748 56.00 56.40 7.48
6854 90.7866 65.00 56.26 8.06
6855 90.7983 55.00 56.13 7.42
6856 90.8101 51.00 56.01 7.14
6857 90.8220 59.00 55.90 7.68
6858 90.8338 46.00 55.79 6.78
6859 90.8456 53.00 55.68 7.28
6860 90.8573 52.00 55.59 7.21
6861 90.8691 55.00 55.50 7.42
6862 90.8810 53.00 55.41 7.28
6863 90.8927 46.00 55.33 6.78
6864 90.9045 53.00 55.25 7.28
6865 90.9163 47.00 55.18 6.86
6866 90.9281 52.00 55.11 7.21
6867 90.9400 53.00 55.04 7.28
6868 90.9517 51.00 54.98 7.14
6869 90.9635 57.00 54.92 7.55
6870 90.9753 56.00 54.86 7.48
6871 90.9871 55.00 54.80 7.42
6872 90.9989 63.00 54.75 7.94
6873 91.0107 51.00 54.69 7.14
6874 91.0225 55.00 54.64 7.42
6875 91.0343 53.00 54.59 7.28
6876 91.0460 52.00 54.53 7.21
6877 91.0578 58.00 54.48 7.62
6878 91.0697 55.00 54.43 7.42
6879 91.0815 59.00 54.38 7.68
6880 91.0932 58.00 54.33 7.62
6881 91.1050 48.00 54.27 6.93
6882 91.1168 59.00 54.22 7.68
6883 91.1287 60.00 54.17 7.75
6884 91.1404 61.00 54.12 7.81
6885 91.1522 41.00 54.06 6.40
6886 91.1640 60.00 54.01 7.75
6887 91.1758 60.00 53.96 7.75
6888 91.1876 50.00 53.90 7.07
6889 91.1994 69.00 53.85 8.31
6890 91.2112 56.00 53.79 7.48
6891 91.2230 48.00 53.74 6.93
6892 91.2347 62.00 53.69 7.87
6893 91.2466 67.00 53.64 8.19
6894 91.2584 57.00 53.58 7.55
6895 91.2702 62.00 53.53 7.87
6896 91.2819 53.00 53.49 7.28
6897 91.2937 52.00 53.44 7.21
6898 91.3055 63.00 53.39 7.94
6899 91.3174 56.00 53.34 7.48
6900 91.3291 45.00 53.30 6.71
6901 91.3409 59.00 53.26 7.68
6902 91.3527 54.00 53.22 7.35
6903 91.3645 38.00 53.17 6.16
6904 91.3764 39.00 53.14 6.24
6905 91.3881 57.00 53.10 7.55
6906 91.3999 63.00 53.06 7.94
6907 91.4117 51.00 53.03 7.14
6908 91.4234 51.00 52.99 7.14
6909 91.4353 42.00 52.96 6.48
6910 91.4471 45.00 52.93 6.71
6911 91.4589 40.00 52.90 6.32
6912 91.4706 45.00 52.88 6.71
6913 91.4824 47.00 52.85 6.86
6914 91.4943 56.00 52.83 7.48
6915 91.5061 67.00 52.81 8.19
6916 91.5179 58.00 52.79 7.62
6917 91.5296 58.00 52.77 7.62
6918 91.5414 57.00 52.75 7.55
6919 91.5532 53.00 52.73 7.28
6920 91.5651 61.00 52.72 7.81
6921 91.5768 49.00 52.71 7.00
6922 91.5886 58.00 52.69 7.62
6923 91.6004 43.00 52.69 6.56
6924 91.6122 60.00 52.68 7.75
6925 91.6240 55.00 52.67 7.42
6926 91.6358 50.00 52.67 7.07
6927 91.6476 48.00 52.68 6.93
6928 91.6594 65.00 52.68 8.06
6929 91.6711 48.00 52.68 6.93
6930 91.6830 64.00 52.69 8.00
6931 91.6948 52.00 52.70 7.21
6932 91.7066 66.00 52.71 8.12
6933 91.7183 49.00 52.72 7.00
6934 91.7301 44.00 52.74 6.63
6935 91.7419 54.00 52.76 7.35
6936 91.7538 66.00 52.78 8.12
6937 91.7655 39.00 52.80 6.24
6938 91.7773 59.00 52.83 7.68
6939 91.7891 71.00 52.86 8.43
6940 91.8009 57.00 52.90 7.55
6941 91.8127 49.00 52.94 7.00
6942 91.8245 49.00 52.98 7.00
6943 91.8363 67.00 53.02 8.19
6944 91.8481 63.00 53.07 7.94
6945 91.8598 66.00 53.12 8.12
6946 91.8717 42.00 53.17 6.48
6947 91.8835 53.00 53.23 7.28
6948 91.8953 67.00 53.29 8.19
6949 91.9070 46.00 53.38 6.78
6950 91.9188 59.00 53.44 7.68
6951 91.9307 56.00 53.51 7.48
6952 91.9425 51.00 53.58 7.14
6953 91.9542 44.00 53.66 6.63
6954 91.9660 55.00 53.73 7.42
6955 91.9778 70.00 53.81 8.37
6956 91.9896 59.00 53.89 7.68
6957 92.0014 63.00 53.97 7.94
6958 92.0132 51.00 54.06 7.14
6959 92.0250 52.00 54.14 7.21
6960 92.0368 55.00 54.22 7.42
6961 92.0485 70.00 54.31 8.37
6962 92.0604 45.00 54.39 6.71
6963 92.0722 56.00 54.47 7.48
6964 92.0840 63.00 54.55 7.94
6965 92.0957 52.00 54.62 7.21
6966 92.1075 62.00 54.69 7.87
6967 92.1194 61.00 54.76 7.81
6968 92.1312 52.00 54.82 7.21
6969 92.1429 51.00 54.87 7.14
6970 92.1547 70.00 54.92 8.37
6971 92.1665 64.00 54.96 8.00
6972 92.1784 64.00 55.00 8.00
6973 92.1901 47.00 55.03 6.86
6974 92.2019 53.00 55.05 7.28
6975 92.2137 48.00 55.07 6.93
6976 92.2255 56.00 55.08 7.48
6977 92.2373 63.00 55.09 7.94
6978 92.2491 47.00 55.09 6.86
6979 92.2609 45.00 55.08 6.71
6980 92.2727 53.00 55.08 7.28
6981 92.2844 58.00 55.07 7.62
6982 92.2962 57.00 55.06 7.55
6983 92.3081 50.00 55.04 7.07
6984 92.3199 46.00 55.03 6.78
6985 92.3316 53.00 55.02 7.28
6986 92.3434 67.00 55.00 8.19
6987 92.3552 67.00 54.99 8.19
6988 92.3671 67.00 54.98 8.19
6989 92.3789 55.00 54.97 7.42
6990 92.3906 65.00 54.97 8.06
6991 92.4024 70.00 54.97 8.37
6992 92.4142 60.00 54.97 7.75
6993 92.4260 57.00 54.97 7.55
6994 92.4378 55.00 54.98 7.42
6995 92.4496 52.00 54.99 7.21
6996 92.4614 66.00 55.01 8.12
6997 92.4732 57.00 55.03 7.55
6998 92.4849 46.00 55.05 6.78
6999 92.4968 52.00 55.08 7.21
7000 92.5086 45.00 55.11 6.71
7001 92.5204 62.00 55.15 7.87
7002 92.5321 48.00 55.19 6.93
7003 92.5439 57.00 55.24 7.55
7004 92.5558 64.00 55.29 8.00
7005 92.5676 55.00 55.35 7.42
7006 92.5793 52.00 55.41 7.21
7007 92.5911 57.00 55.47 7.55
7008 92.6029 55.00 55.54 7.42
7009 92.6148 50.00 55.61 7.07
7010 92.6265 57.00 55.69 7.55
7011 92.6383 50.00 55.78 7.07
7012 92.6501 48.00 55.86 6.93
7013 92.6619 47.00 55.96 6.86
7014 92.6737 70.00 56.05 8.37
7015 92.6855 55.00 56.15 7.42
7016 92.6973 62.00 56.26 7.87
7017 92.7091 65.00 56.37 8.06
7018 92.7208 55.00 56.48 7.42
7019 92.7326 68.00 56.60 8.25
7020 92.7445 54.00 56.73 7.35
7021 92.7563 72.00 56.85 8.49
7022 92.7680 46.00 56.98 6.78
7023 92.7798 50.00 57.12 7.07
7024 92.7916 60.00 57.26 7.75
7025 92.8035 59.00 57.40 7.68
7026 92.8152 50.00 57.55 7.07
7027 92.8270 67.00 57.70 8.19
7028 92.8388 61.00 57.86 7.81
7029 92.8506 60.00 58.01 7.75
7030 92.8624 53.00 58.18 7.28
7031 92.8742 57.00 58.32 7.55
7032 92.8860 58.00 58.49 7.62
7033 92.8978 63.00 58.66 7.94
7034 92.9095 60.00 58.83 7.75
7035 92.9213 59.00 59.00 7.68
7036 92.9332 70.00 59.17 8.37
7037 92.9450 64.00 59.34 8.00
7038 92.9567 61.00 59.52 7.81
7039 92.9685 67.00 59.70 8.19
7040 92.9803 64.00 59.87 8.00
7041 92.9922 75.00 60.05 8.66
7042 93.0039 58.00 60.22 7.62
7043 93.0157 61.00 60.40 7.81
7044 93.0275 80.00 60.57 8.94
7045 93.0393 62.00 60.74 7.87
7046 93.0511 55.00 60.91 7.42
7047 93.0629 51.00 61.08 7.14
7048 93.0747 68.00 61.25 8.25
7049 93.0865 59.00 61.41 7.68
7050 93.0982 81.00 61.58 9.00
7051 93.1101 74.00 61.74 8.60
7052 93.1219 59.00 61.89 7.68
7053 93.1337 53.00 62.05 7.28
7054 93.1454 54.00 62.20 7.35
7055 93.1572 49.00 62.35 7.00
7056 93.1690 65.00 62.50 8.06
7057 93.1809 65.00 62.64 8.06
7058 93.1926 62.00 62.78 7.87
7059 93.2044 65.00 62.92 8.06
7060 93.2162 45.00 63.06 6.71
7061 93.2280 62.00 63.19 7.87
7062 93.2398 64.00 63.33 8.00
7063 93.2516 60.00 63.46 7.75
7064 93.2634 73.00 63.62 8.54
7065 93.2752 54.00 63.75 7.35
7066 93.2869 61.00 63.87 7.81
7067 93.2988 62.00 64.00 7.87
7068 93.3106 66.00 64.12 8.12
7069 93.3224 69.00 64.24 8.31
7070 93.3341 63.00 64.36 7.94
7071 93.3459 59.00 64.47 7.68
7072 93.3578 73.00 64.59 8.54
7073 93.3696 49.00 64.68 7.00
7074 93.3813 69.00 64.79 8.31
7075 93.3931 58.00 64.88 7.62
7076 93.4049 65.00 64.98 8.06
7077 93.4167 65.00 65.06 8.06
7078 93.4285 60.00 65.14 7.75
7079 93.4403 69.00 65.21 8.31
7080 93.4521 63.00 65.26 7.94
7081 93.4639 69.00 65.31 8.31
7082 93.4756 67.00 65.35 8.19
7083 93.4875 67.00 65.38 8.19
7084 93.4993 64.00 65.39 8.00
7085 93.5111 68.00 65.40 8.25
7086 93.5228 70.00 65.39 8.37
7087 93.5346 52.00 65.37 7.21
7088 93.5465 63.00 65.35 7.94
7089 93.5583 68.00 65.31 8.25
7090 93.5700 62.00 65.27 7.87
7091 93.5818 87.00 65.21 9.33
7092 93.5936 63.00 65.15 7.94
7093 93.6055 75.00 65.09 8.66
7094 93.6172 61.00 65.02 7.81
7095 93.6290 66.00 64.95 8.12
7096 93.6408 57.00 64.87 7.55
7097 93.6526 67.00 64.80 8.19
7098 93.6643 58.00 64.72 7.62
7099 93.6762 71.00 64.64 8.43
7100 93.6880 64.00 64.57 8.00
7101 93.6998 67.00 64.49 8.19
7102 93.7115 59.00 64.42 7.68
7103 93.7233 55.00 64.35 7.42
7104 93.7352 51.00 64.28 7.14
7105 93.7470 58.00 64.22 7.62
7106 93.7587 74.00 64.16 8.60
7107 93.7705 64.00 64.11 8.00
7108 93.7823 53.00 64.06 7.28
7109 93.7942 58.00 64.01 7.62
7110 93.8059 62.00 63.98 7.87
7111 93.8177 63.00 63.94 7.94
7112 93.8295 61.00 63.91 7.81
7113 93.8413 63.00 63.89 7.94
7114 93.8531 72.00 63.87 8.49
7115 93.8649 55.00 63.86 7.42
7116 93.8767 51.00 63.85 7.14
7117 93.8885 65.00 63.85 8.06
7118 93.9002 64.00 63.85 8.00
7119 93.9120 68.00 63.86 8.25
7120 93.9239 69.00 63.87 8.31
7121 93.9357 46.00 63.89 6.78
7122 93.9474 57.00 63.91 7.55
7123 93.9592 68.00 63.94 8.25
7124 93.9710 54.00 63.97 7.35
7125 93.9829 67.00 64.00 8.19
7126 93.9946 53.00 64.04 7.28
7127 94.0064 56.00 64.08 7.48
7128 94.0182 69.00 64.12 8.31
7129 94.0300 76.00 64.17 8.72
7130 94.0418 57.00 64.22 7.55
7131 94.0536 62.00 64.27 7.87
7132 94.0654 72.00 64.32 8.49
7133 94.0772 51.00 64.37 7.14
7134 94.0889 68.00 64.43 8.25
7135 94.1007 59.00 64.48 7.68
7136 94.1126 73.00 64.54 8.54
7137 94.1244 74.00 64.60 8.60
7138 94.1361 76.00 64.66 8.72
7139 94.1479 64.00 64.71 8.00
7140 94.1597 71.00 64.77 8.43
7141 94.1716 50.00 64.83 7.07
7142 94.1833 65.00 64.90 8.06
7143 94.1951 50.00 64.96 7.07
7144 94.2069 57.00 65.01 7.55
7145 94.2187 61.00 65.07 7.81
7146 94.2305 64.00 65.13 8.00
7147 94.2423 60.00 65.19 7.75
7148 94.2541 62.00 65.24 7.87
7149 94.2659 66.00 65.30 8.12
7150 94.2776 58.00 65.36 7.62
7151 94.2895 69.00 65.41 8.31
7152 94.3013 79.00 65.47 8.89
7153 94.3131 64.00 65.53 8.00
7154 94.3248 56.00 65.59 7.48
7155 94.3366 68.00 65.65 8.25
7156 94.3484 55.00 65.71 7.42
7157 94.3603 66.00 65.78 8.12
7158 94.3720 69.00 65.84 8.31
7159 94.3838 71.00 65.91 8.43
7160 94.3956 69.00 65.98 8.31
7161 94.4074 56.00 66.05 7.48
7162 94.4192 58.00 66.13 7.62
7163 94.4310 60.00 66.21 7.75
7164 94.4428 69.00 66.30 8.31
7165 94.4546 80.00 66.38 8.94
7166 94.4663 67.00 66.48 8.19
7167 94.4782 88.00 66.57 9.38
7168 94.4900 61.00 66.68 7.81
7169 94.5018 62.00 66.79 7.87
7170 94.5135 72.00 66.90 8.49
7171 94.5253 67.00 67.02 8.19
7172 94.5372 69.00 67.15 8.31
7173 94.5490 67.00 67.28 8.19
7174 94.5607 79.00 67.42 8.89
7175 94.5725 64.00 67.57 8.00
7176 94.5843 69.00 67.72 8.31
7177 94.5961 85.00 67.88 9.22
7178 94.6079 77.00 68.05 8.77
7179 94.6197 68.00 68.22 8.25
7180 94.6315 71.00 68.40 8.43
7181 94.6432 80.00 68.59 8.94
7182 94.6550 82.00 68.78 9.06
7183 94.6669 74.00 68.98 8.60
7184 94.6787 66.00 69.18 8.12
7185 94.6905 81.00 69.39 9.00
7186 94.7022 78.00 69.60 8.83
7187 94.7140 77.00 69.81 8.77
7188 94.7259 85.00 70.02 9.22
7189 94.7377 70.00 70.24 8.37
7190 94.7494 62.00 70.46 7.87
7191 94.7612 60.00 70.67 7.75
7192 94.7730 71.00 70.87 8.43
7193 94.7849 76.00 71.07 8.72
7194 94.7966 78.00 71.26 8.83
7195 94.8084 68.00 71.44 8.25
7196 94.8202 59.00 71.62 7.68
7197 94.8320 61.00 71.78 7.81
7198 94.8437 90.00 71.93 9.49
7199 94.8556 57.00 72.07 7.55
7200 94.8674 78.00 72.19 8.83
7201 94.8792 73.00 72.31 8.54
7202 94.8909 75.00 72.40 8.66
7203 94.9027 64.00 72.49 8.00
7204 94.9146 79.00 72.57 8.89
7205 94.9263 88.00 72.63 9.38
7206 94.9381 66.00 72.68 8.12
7207 94.9499 69.00 72.72 8.31
7208 94.9617 72.00 72.76 8.49
7209 94.9735 79.00 72.78 8.89
7210 94.9853 86.00 72.79 9.27
7211 94.9971 63.00 72.80 7.94
7212 95.0089 69.00 72.80 8.31
7213 95.0207 81.00 72.79 9.00
7214 95.0325 82.00 72.78 9.06
7215 95.0443 84.00 72.76 9.17
7216 95.0561 75.00 72.73 8.66
7217 95.0678 75.00 72.70 8.66
7218 95.0796 79.00 72.67 8.89
7219 95.0914 60.00 72.63 7.75
7220 95.1033 75.00 72.58 8.66
7221 95.1150 86.00 72.53 9.27
7222 95.1268 68.00 72.47 8.25
7223 95.1386 80.00 72.41 8.94
7224 95.1504 70.00 72.34 8.37
7225 95.1622 81.00 72.27 9.00
7226 95.1740 72.00 72.19 8.49
7227 95.1858 72.00 72.11 8.49
7228 95.1976 76.00 72.02 8.72
7229 95.2093 70.00 71.92 8.37
7230 95.2212 80.00 71.83 8.94
7231 95.2330 84.00 71.72 9.17
7232 95.2448 75.00 71.62 8.66
7233 95.2565 79.00 71.50 8.89
7234 95.2683 69.00 71.39 8.31
7235 95.2801 79.00 71.27 8.89
7236 95.2920 80.00 71.14 8.94
7237 95.3037 88.00 71.01 9.38
7238 95.3155 69.00 70.88 8.31
7239 95.3273 79.00 70.74 8.89
7240 95.3391 66.00 70.61 8.12
7241 95.3509 70.00 70.46 8.37
7242 95.3627 68.00 70.32 8.25
7243 95.3745 78.00 70.17 8.83
7244 95.3863 57.00 70.02 7.55
7245 95.3980 74.00 69.87 8.60
7246 95.4099 71.00 69.72 8.43
7247 95.4217 70.00 69.56 8.37
7248 95.4335 72.00 69.41 8.49
7249 95.4452 73.00 69.25 8.54
7250 95.4570 78.00 69.09 8.83
7251 95.4689 87.00 68.93 9.33
7252 95.4807 72.00 68.77 8.49
7253 95.4924 67.00 68.61 8.19
7254 95.5042 72.00 68.44 8.49
7255 95.5160 72.00 68.28 8.49
7256 95.5278 72.00 68.11 8.49
7257 95.5396 80.00 67.95 8.94
7258 95.5514 76.00 67.79 8.72
7259 95.5632 70.00 67.62 8.37
7260 95.5750 69.00 67.45 8.31
7261 95.5867 68.00 67.28 8.25
7262 95.5986 75.00 67.10 8.66
7263 95.6104 80.00 66.93 8.94
7264 95.6222 72.00 66.76 8.49
7265 95.6339 71.00 66.58 8.43
7266 95.6457 63.00 66.40 7.94
7267 95.6576 77.00 66.23 8.77
7268 95.6694 82.00 66.05 9.06
7269 95.6811 62.00 65.87 7.87
7270 95.6929 73.00 65.69 8.54
7271 95.7047 81.00 65.51 9.00
7272 95.7165 78.00 65.35 8.83
7273 95.7283 60.00 65.17 7.75
7274 95.7401 64.00 65.00 8.00
7275 95.7519 59.00 64.83 7.68
7276 95.7636 86.00 64.65 9.27
7277 95.7754 48.00 64.49 6.93
7278 95.7873 63.00 64.32 7.94
7279 95.7991 69.00 64.16 8.31
7280 95.8109 58.00 64.00 7.62
7281 95.8226 54.00 63.85 7.35
7282 95.8344 87.00 63.70 9.33
7283 95.8463 64.00 63.55 8.00
7284 95.8580 67.00 63.41 8.19
7285 95.8698 57.00 63.28 7.55
7286 95.8816 70.00 63.15 8.37
7287 95.8934 60.00 63.02 7.75
7288 95.9052 67.00 62.90 8.19
7289 95.9170 58.00 62.79 7.62
7290 95.9288 63.00 62.69 7.94
7291 95.9406 77.00 62.59 8.77
7292 95.9523 68.00 62.50 8.25
7293 95.9642 66.00 62.41 8.12
7294 95.9760 65.00 62.33 8.06
7295 95.9878 62.00 62.26 7.87
7296 95.9995 75.00 62.19 8.66
7297 96.0113 76.00 62.13 8.72
7298 96.0231 58.00 62.07 7.62
7299 96.0350 74.00 62.02 8.60
7300 96.0467 49.00 61.98 7.00
7301 96.0585 45.00 61.94 6.71
7302 96.0703 68.00 61.91 8.25
7303 96.0821 70.00 61.88 8.37
7304 96.0939 69.00 61.86 8.31
7305 96.1057 60.00 61.85 7.75
7306 96.1175 57.00 61.83 7.55
7307 96.1293 71.00 61.82 8.43
7308 96.1410 67.00 61.82 8.19
7309 96.1529 53.00 61.82 7.28
7310 96.1647 68.00 61.83 8.25
7311 96.1765 61.00 61.83 7.81
7312 96.1882 71.00 61.84 8.43
7313 96.2000 75.00 61.86 8.66
7314 96.2119 68.00 61.88 8.25
7315 96.2237 53.00 61.90 7.28
7316 96.2354 65.00 61.93 8.06
7317 96.2472 55.00 61.96 7.42
7318 96.2590 77.00 61.99 8.77
7319 96.2708 71.00 62.03 8.43
7320 96.2826 60.00 62.07 7.75
7321 96.2944 82.00 62.12 9.06
7322 96.3062 58.00 62.16 7.62
7323 96.3179 72.00 62.22 8.49
7324 96.3297 51.00 62.27 7.14
7325 96.3416 73.00 62.33 8.54
7326 96.3534 71.00 62.39 8.43
7327 96.3652 73.00 62.46 8.54
7328 96.3769 59.00 62.53 7.68
7329 96.3887 67.00 62.61 8.19
7330 96.4006 82.00 62.69 9.06
7331 96.4123 60.00 62.77 7.75
7332 96.4241 69.00 62.86 8.31
7333 96.4359 53.00 62.96 7.28
7334 96.4477 54.00 63.05 7.35
7335 96.4594 65.00 63.16 8.06
7336 96.4713 64.00 63.27 8.00
7337 96.4831 55.00 63.38 7.42
7338 96.4949 75.00 63.50 8.66
7339 96.5066 68.00 63.62 8.25
7340 96.5184 62.00 63.75 7.87
7341 96.5303 71.00 63.88 8.43
7342 96.5421 70.00 64.01 8.37
7343 96.5538 70.00 64.15 8.37
7344 96.5656 54.00 64.29 7.35
7345 96.5774 71.00 64.44 8.43
7346 96.5893 63.00 64.59 7.94
7347 96.6010 66.00 64.73 8.12
7348 96.6128 47.00 64.88 6.86
7349 96.6246 59.00 65.03 7.68
7350 96.6364 67.00 65.19 8.19
7351 96.6482 80.00 65.34 8.94
7352 96.6600 70.00 65.49 8.37
7353 96.6718 77.00 65.64 8.77
7354 96.6836 77.00 65.79 8.77
7355 96.6953 64.00 65.94 8.00
7356 96.7071 70.00 66.09 8.37
7357 96.7190 53.00 66.23 7.28
7358 96.7308 62.00 66.37 7.87
7359 96.7425 75.00 66.51 8.66
7360 96.7543 57.00 66.64 7.55
7361 96.7661 75.00 66.77 8.66
7362 96.7780 63.00 66.90 7.94
7363 96.7897 68.00 67.02 8.25
7364 96.8015 73.00 67.15 8.54
7365 96.8133 72.00 67.27 8.49
7366 96.8251 69.00 67.39 8.31
7367 96.8369 64.00 67.51 8.00
7368 96.8487 64.00 67.63 8.00
7369 96.8605 70.00 67.76 8.37
7370 96.8722 65.00 67.88 8.06
7371 96.8840 75.00 68.00 8.66
7372 96.8959 59.00 68.13 7.68
7373 96.9077 70.00 68.25 8.37
7374 96.9194 69.00 68.38 8.31
7375 96.9312 66.00 68.51 8.12
7376 96.9430 85.00 68.65 9.22
7377 96.9548 85.00 68.78 9.22
7378 96.9666 57.00 68.92 7.55
7379 96.9784 59.00 69.06 7.68
7380 96.9902 83.00 69.20 9.11
7381 97.0020 77.00 69.34 8.77
7382 97.0137 71.00 69.48 8.43
7383 97.0256 63.00 69.62 7.94
7384 97.0374 62.00 69.76 7.87
7385 97.0492 61.00 69.90 7.81
7386 97.0609 69.00 70.04 8.31
7387 97.0727 72.00 70.17 8.49
7388 97.0846 60.00 70.30 7.75
7389 97.0964 64.00 70.43 8.00
7390 97.1081 78.00 70.56 8.83
7391 97.1199 59.00 70.68 7.68
7392 97.1317 70.00 70.80 8.37
7393 97.1436 70.00 70.91 8.37
7394 97.1553 72.00 71.02 8.49
7395 97.1671 62.00 71.12 7.87
7396 97.1789 55.00 71.23 7.42
7397 97.1907 78.00 71.32 8.83
7398 97.2024 76.00 71.42 8.72
7399 97.2143 66.00 71.52 8.12
7400 97.2261 55.00 71.61 7.42
7401 97.2379 66.00 71.70 8.12
7402 97.2496 60.00 71.79 7.75
7403 97.2614 65.00 71.89 8.06
7404 97.2733 74.00 71.98 8.60
7405 97.2850 76.00 72.08 8.72
7406 97.2968 77.00 72.17 8.77
7407 97.3086 81.00 72.27 9.00
7408 97.3204 73.00 72.37 8.54
7409 97.3322 77.00 72.47 8.77
7410 97.3440 62.00 72.59 7.87
7411 97.3558 61.00 72.70 7.81
7412 97.3676 81.00 72.81 9.00
7413 97.3793 74.00 72.92 8.60
7414 97.3912 72.00 73.03 8.49
7415 97.4030 70.00 73.14 8.37
7416 97.4148 69.00 73.25 8.31
7417 97.4265 81.00 73.36 9.00
7418 97.4383 67.00 73.47 8.19
7419 97.4501 75.00 73.58 8.66
7420 97.4620 58.00 73.69 7.62
7421 97.4737 64.00 73.79 8.00
7422 97.4855 66.00 73.89 8.12
7423 97.4973 66.00 73.98 8.12
7424 97.5091 74.00 74.06 8.60
7425 97.5209 87.00 74.14 9.33
7426 97.5327 67.00 74.21 8.19
7427 97.5445 85.00 74.26 9.22
7428 97.5563 70.00 74.31 8.37
7429 97.5680 85.00 74.35 9.22
7430 97.5799 72.00 74.37 8.49
7431 97.5917 69.00 74.38 8.31
7432 97.6035 83.00 74.37 9.11
7433 97.6152 87.00 74.35 9.33
7434 97.6270 68.00 74.32 8.25
7435 97.6388 65.00 74.28 8.06
7436 97.6507 84.00 74.21 9.17
7437 97.6624 79.00 74.14 8.89
7438 97.6742 76.00 74.06 8.72
7439 97.6860 77.00 73.97 8.77
7440 97.6977 77.00 73.87 8.77
7441 97.7096 78.00 73.76 8.83
7442 97.7214 65.00 73.64 8.06
7443 97.7332 58.00 73.52 7.62
7444 97.7449 71.00 73.40 8.43
7445 97.7567 82.00 73.27 9.06
7446 97.7686 74.00 73.15 8.60
7447 97.7804 82.00 73.02 9.06
7448 97.7921 65.00 72.89 8.06
7449 97.8039 83.00 72.77 9.11
7450 97.8157 66.00 72.65 8.12
7451 97.8276 77.00 72.54 8.77
7452 97.8393 74.00 72.43 8.60
7453 97.8511 66.00 72.32 8.12
7454 97.8629 55.00 72.22 7.42
7455 97.8747 81.00 72.13 9.00
7456 97.8864 68.00 72.03 8.25
7457 97.8983 79.00 71.95 8.89
7458 97.9101 81.00 71.87 9.00
7459 97.9219 56.00 71.80 7.48
7460 97.9336 68.00 71.73 8.25
7461 97.9454 82.00 71.67 9.06
7462 97.9573 54.00 71.61 7.35
7463 97.9690 60.00 71.55 7.75
7464 97.9808 84.00 71.50 9.17
7465 97.9926 73.00 71.45 8.54
7466 98.0044 67.00 71.40 8.19
7467 98.0163 88.00 71.35 9.38
7468 98.0280 80.00 71.30 8.94
7469 98.0398 59.00 71.25 7.68
7470 98.0516 74.00 71.21 8.60
7471 98.0633 62.00 71.16 7.87
7472 98.0752 85.00 71.12 9.22
7473 98.0870 78.00 71.07 8.83
7474 98.0988 67.00 71.03 8.19
7475 98.1105 82.00 70.98 9.06
7476 98.1223 78.00 70.93 8.83
7477 98.1341 89.00 70.87 9.43
7478 98.1460 71.00 70.81 8.43
7479 98.1577 56.00 70.74 7.48
7480 98.1695 56.00 70.67 7.48
7481 98.1813 72.00 70.59 8.49
7482 98.1931 67.00 70.49 8.19
7483 98.2049 72.00 70.39 8.49
7484 98.2167 76.00 70.27 8.72
7485 98.2285 72.00 70.13 8.49
7486 98.2403 81.00 69.98 9.00
7487 98.2520 68.00 69.82 8.25
7488 98.2639 69.00 69.63 8.31
7489 98.2757 66.00 69.43 8.12
7490 98.2874 67.00 69.21 8.19
7491 98.2992 72.00 68.97 8.49
7492 98.3110 68.00 68.72 8.25
7493 98.3229 60.00 68.44 7.75
7494 98.3346 74.00 68.15 8.60
7495 98.3464 72.00 67.85 8.49
7496 98.3582 85.00 67.54 9.22
7497 98.3700 67.00 67.21 8.19
7498 98.3817 56.00 66.87 7.48
7499 98.3936 70.00 66.53 8.37
7500 98.4054 57.00 66.18 7.55
7501 98.4172 64.00 65.82 8.00
7502 98.4289 66.00 65.47 8.12
7503 98.4407 73.00 65.11 8.54
7504 98.4526 58.00 64.75 7.62
7505 98.4644 57.00 64.41 7.55
7506 98.4761 93.00 64.05 9.64
7507 98.4879 64.00 63.70 8.00
7508 98.4997 64.00 63.35 8.00
7509 98.5116 55.00 63.01 7.42
7510 98.5233 66.00 62.67 8.12
7511 98.5351 60.00 62.35 7.75
7512 98.5469 79.00 62.02 8.89
7513 98.5587 69.00 61.71 8.31
7514 98.5705 66.00 61.40 8.12
7515 98.5823 65.00 61.10 8.06
7516 98.5941 49.00 60.81 7.00
7517 98.6059 56.00 60.52 7.48
7518 98.6176 54.00 60.25 7.35
7519 98.6294 52.00 59.98 7.21
7520 98.6413 62.00 59.72 7.87
7521 98.6530 55.00 59.47 7.42
7522 98.6648 56.00 59.22 7.48
7523 98.6766 58.00 58.99 7.62
7524 98.6884 69.00 58.76 8.31
7525 98.7002 63.00 58.54 7.94
7526 98.7120 49.00 58.33 7.00
7527 98.7238 51.00 58.12 7.14
7528 98.7356 46.00 57.92 6.78
7529 98.7473 56.00 57.73 7.48
7530 98.7592 52.00 57.54 7.21
7531 98.7710 63.00 57.37 7.94
7532 98.7828 64.00 57.20 8.00
7533 98.7945 58.00 57.04 7.62
7534 98.8063 74.00 56.88 8.60
7535 98.8181 51.00 56.73 7.14
7536 98.8300 60.00 56.59 7.75
7537 98.8417 56.00 56.45 7.48
7538 98.8535 47.00 56.32 6.86
7539 98.8653 65.00 56.20 8.06
7540 98.8771 60.00 56.08 7.75
7541 98.8889 65.00 55.96 8.06
7542 98.9007 69.00 55.86 8.31
7543 98.9125 55.00 55.76 7.42
7544 98.9242 47.00 55.66 6.86
7545 98.9360 70.00 55.57 8.37
7546 98.9479 59.00 55.49 7.68
7547 98.9597 44.00 55.41 6.63
7548 98.9714 52.00 55.34 7.21
7549 98.9832 49.00 55.27 7.00
7550 98.9950 49.00 55.21 7.00
7551 99.0069 50.00 55.15 7.07
7552 99.0186 53.00 55.10 7.28
7553 99.0304 54.00 55.06 7.35
7554 99.0422 61.00 55.02 7.81
7555 99.0540 48.00 54.98 6.93
7556 99.0657 46.00 54.95 6.78
7557 99.0776 51.00 54.92 7.14
7558 99.0894 56.00 54.90 7.48
7559 99.1012 53.00 54.88 7.28
7560 99.1129 57.00 54.87 7.55
7561 99.1247 58.00 54.86 7.62
7562 99.1366 57.00 54.86 7.55
7563 99.1483 54.00 54.86 7.35
7564 99.1601 58.00 54.87 7.62
7565 99.1719 60.00 54.88 7.75
7566 99.1837 63.00 54.89 7.94
7567 99.1955 61.00 54.91 7.81
7568 99.2073 47.00 54.93 6.86
7569 99.2191 52.00 54.96 7.21
7570 99.2309 54.00 54.99 7.35
7571 99.2426 54.00 55.02 7.35
7572 99.2545 53.00 55.06 7.28
7573 99.2663 62.00 55.11 7.87
7574 99.2781 47.00 55.15 6.86
7575 99.2898 54.00 55.20 7.35
7576 99.3016 49.00 55.26 7.00
7577 99.3134 54.00 55.32 7.35
7578 99.3253 58.00 55.38 7.62
7579 99.3370 51.00 55.44 7.14
7580 99.3488 58.00 55.51 7.62
7581 99.3606 62.00 55.59 7.87
7582 99.3724 40.00 55.66 6.32
7583 99.3842 54.00 55.74 7.35
7584 99.3960 57.00 55.82 7.55
7585 99.4078 56.00 55.91 7.48
7586 99.4196 59.00 55.99 7.68
7587 99.4313 59.00 56.07 7.68
7588 99.4432 53.00 56.16 7.28
7589 99.4550 66.00 56.25 8.12
7590 99.4667 60.00 56.34 7.75
7591 99.4785 67.00 56.43 8.19
7592 99.4903 51.00 56.51 7.14
7593 99.5022 52.00 56.60 7.21
7594 99.5139 58.00 56.68 7.62
7595 99.5257 60.00 56.75 7.75
7596 99.5375 61.00 56.82 7.81
7597 99.5493 54.00 56.89 7.35
7598 99.5610 56.00 56.95 7.48
7599 99.5729 55.00 57.00 7.42
7600 99.5847 38.00 57.05 6.16
7601 99.5965 51.00 57.09 7.14
7602 99.6082 49.00 57.12 7.00
7603 99.6200 62.00 57.18 7.87
7604 99.6319 70.00 57.19 8.37
7605 99.6436 48.00 57.20 6.93
7606 99.6554 52.00 57.21 7.21
7607 99.6672 55.00 57.20 7.42
7608 99.6790 65.00 57.19 8.06
7609 99.6908 51.00 57.18 7.14
7610 99.7026 53.00 57.16 7.28
7611 99.7144 68.00 57.13 8.25
7612 99.7262 65.00 57.11 8.06
7613 99.7379 66.00 57.08 8.12
7614 99.7498 58.00 57.04 7.62
7615 99.7616 62.00 57.01 7.87
7616 99.7734 49.00 56.97 7.00
7617 99.7851 58.00 56.93 7.62
7618 99.7969 51.00 56.90 7.14
7619 99.8087 62.00 56.86 7.87
7620 99.8206 37.00 56.82 6.08
7621 99.8323 38.00 56.78 6.16
7622 99.8441 53.00 56.74 7.28
7623 99.8559 44.00 56.71 6.63
7624 99.8677 60.00 56.67 7.75
7625 99.8795 57.00 56.64 7.55
7626 99.8913 71.00 56.61 8.43
7627 99.9031 54.00 56.58 7.35
7628 99.9148 45.00 56.55 6.71
7629 99.9266 69.00 56.53 8.31
7630 99.9385 58.00 56.50 7.62
7631 99.9503 62.00 56.48 7.87
7632 99.9621 55.00 56.45 7.42
7633 99.9738 71.00 56.43 8.43
7634 99.9856 61.00 56.41 7.81
7635 99.9974 65.00 56.39 8.06
7636 100.0092 64.00 56.37 8.00
7637 100.0210 48.00 56.35 6.93
7638 100.0328 58.00 56.33 7.62
7639 100.0446 66.00 56.31 8.12
7640 100.0563 68.00 56.29 8.25
7641 100.0682 49.00 56.27 7.00
7642 100.0800 63.00 56.26 7.94
7643 100.0918 68.00 56.24 8.25
7644 100.1035 60.00 56.22 7.75
7645 100.1153 50.00 56.20 7.07
7646 100.1272 56.00 56.18 7.48
7647 100.1390 67.00 56.16 8.19
7648 100.1507 47.00 56.14 6.86
7649 100.1625 59.00 56.12 7.68
7650 100.1743 52.00 56.10 7.21
7651 100.1861 55.00 56.08 7.42
7652 100.1979 46.00 56.06 6.78
7653 100.2097 67.00 56.03 8.19
7654 100.2215 57.00 56.01 7.55
7655 100.2332 55.00 55.99 7.42
7656 100.2450 63.00 55.97 7.94
7657 100.2569 50.00 55.94 7.07
7658 100.2687 52.00 55.92 7.21
7659 100.2804 51.00 55.90 7.14
7660 100.2922 66.00 55.87 8.12
7661 100.3040 66.00 55.85 8.12
7662 100.3159 61.00 55.83 7.81
7663 100.3276 49.00 55.82 7.00
7664 100.3394 65.00 55.80 8.06
7665 100.3512 58.00 55.78 7.62
7666 100.3629 48.00 55.77 6.93
7667 100.3748 52.00 55.76 7.21
7668 100.3866 41.00 55.75 6.40
7669 100.3984 53.00 55.75 7.28
7670 100.4101 60.00 55.74 7.75
7671 100.4219 63.00 55.74 7.94
7672 100.4338 63.00 55.74 7.94
7673 100.4456 60.00 55.75 7.75
7674 100.4573 59.00 55.76 7.68
7675 100.4691 50.00 55.77 7.07
7676 100.4809 51.00 55.78 7.14
7677 100.4927 72.00 55.80 8.49
7678 100.5045 55.00 55.82 7.42
7679 100.5163 53.00 55.85 7.28
7680 100.5281 68.00 55.88 8.25
7681 100.5399 61.00 55.91 7.81
7682 100.5516 61.00 55.94 7.81
7683 100.5635 58.00 55.98 7.62
7684 100.5753 77.00 56.02 8.77
7685 100.5871 48.00 56.06 6.93
7686 100.5988 54.00 56.11 7.35
7687 100.6106 58.00 56.16 7.62
7688 100.6225 51.00 56.21 7.14
7689 100.6342 64.00 56.26 8.00
7690 100.6460 56.00 56.31 7.48
7691 100.6578 56.00 56.37 7.48
7692 100.6696 57.00 56.43 7.55
7693 100.6814 54.00 56.49 7.35
7694 100.6932 54.00 56.54 7.35
7695 100.7050 62.00 56.59 7.87
7696 100.7168 61.00 56.64 7.81
7697 100.7285 54.00 56.69 7.35
7698 100.7403 68.00 56.74 8.25
7699 100.7522 61.00 56.79 7.81
7700 100.7640 59.00 56.83 7.68
7701 100.7757 39.00 56.87 6.24
7702 100.7875 47.00 56.91 6.86
7703 100.7993 48.00 56.95 6.93
7704 100.8111 53.00 56.98 7.28
7705 100.8229 55.00 57.01 7.42
7706 100.8347 75.00 57.03 8.66
7707 100.8465 53.00 57.06 7.28
7708 100.8582 56.00 57.09 7.48
7709 100.8701 63.00 57.11 7.94
7710 100.8819 51.00 57.13 7.14
7711 100.8937 61.00 57.15 7.81
7712 100.9054 55.00 57.17 7.42
7713 100.9172 56.00 57.19 7.48
7714 100.9291 58.00 57.21 7.62
7715 100.9409 58.00 57.22 7.62
7716 100.9526 63.00 57.24 7.94
7717 100.9644 54.00 57.26 7.35
7718 100.9762 60.00 57.27 7.75
7719 100.9880 60.00 57.28 7.75
7720 100.9998 63.00 57.29 7.94
7721 101.0116 52.00 57.30 7.21
7722 101.0234 49.00 57.31 7.00
7723 101.0351 63.00 57.31 7.94
7724 101.0469 47.00 57.32 6.86
7725 101.0588 72.00 57.32 8.49
7726 101.0706 47.00 57.31 6.86
7727 101.0823 57.00 57.31 7.55
7728 101.0941 71.00 57.30 8.43
7729 101.1059 46.00 57.28 6.78
7730 101.1178 45.00 57.27 6.71
7731 101.1295 60.00 57.25 7.75
7732 101.1413 57.00 57.23 7.55
7733 101.1531 56.00 57.20 7.48
7734 101.1649 65.00 57.18 8.06
7735 101.1766 63.00 57.15 7.94
7736 101.1885 64.00 57.12 8.00
7737 101.2003 58.00 57.08 7.62
7738 101.2121 53.00 57.05 7.28
7739 101.2238 55.00 57.02 7.42
7740 101.2356 62.00 56.98 7.87
7741 101.2475 58.00 56.94 7.62
7742 101.2592 64.00 56.90 8.00
7743 101.2710 68.00 56.87 8.25
7744 101.2828 59.00 56.83 7.68
7745 101.2946 43.00 56.79 6.56
7746 101.3064 69.00 56.76 8.31
7747 101.3182 63.00 56.72 7.94
7748 101.3300 48.00 56.69 6.93
7749 101.3418 59.00 56.65 7.68
7750 101.3535 61.00 56.62 7.81
7751 101.3654 50.00 56.59 7.07
7752 101.3772 56.00 56.56 7.48
7753 101.3890 64.00 56.53 8.00
7754 101.4007 67.00 56.50 8.19
7755 101.4125 52.00 56.47 7.21
7756 101.4243 57.00 56.45 7.55
7757 101.4361 78.00 56.43 8.83
7758 101.4479 46.00 56.40 6.78
7759 101.4597 62.00 56.38 7.87
7760 101.4715 66.00 56.37 8.12
7761 101.4832 65.00 56.35 8.06
7762 101.4951 61.00 56.33 7.81
7763 101.5069 73.00 56.32 8.54
7764 101.5187 52.00 56.31 7.21
7765 101.5304 66.00 56.30 8.12
7766 101.5422 57.00 56.30 7.55
7767 101.5541 65.00 56.29 8.06
7768 101.5659 44.00 56.29 6.63
7769 101.5776 46.00 56.29 6.78
7770 101.5894 70.00 56.28 8.37
7771 101.6012 58.00 56.28 7.62
7772 101.6130 44.00 56.29 6.63
7773 101.6248 48.00 56.29 6.93
7774 101.6366 58.00 56.29 7.62
7775 101.6484 64.00 56.30 8.00
7776 101.6601 48.00 56.31 6.93
7777 101.6719 49.00 56.32 7.00
7778 101.6838 57.00 56.33 7.55
7779 101.6956 61.00 56.35 7.81
7780 101.7073 54.00 56.36 7.35
7781 101.7191 65.00 56.38 8.06
7782 101.7309 54.00 56.40 7.35
7783 101.7428 53.00 56.42 7.28
7784 101.7545 52.00 56.44 7.21
7785 101.7663 52.00 56.47 7.21
7786 101.7781 65.00 56.50 8.06
7787 101.7898 58.00 56.53 7.62
7788 101.8017 53.00 56.56 7.28
7789 101.8135 49.00 56.59 7.00
7790 101.8253 53.00 56.63 7.28
7791 101.8370 54.00 56.67 7.35
7792 101.8488 45.00 56.71 6.71
7793 101.8607 62.00 56.76 7.87
7794 101.8725 64.00 56.80 8.00
7795 101.8842 58.00 56.85 7.62
7796 101.8960 62.00 56.90 7.87
7797 101.9078 55.00 56.96 7.42
7798 101.9196 59.00 57.02 7.68
7799 101.9314 44.00 57.08 6.63
7800 101.9432 64.00 57.14 8.00
7801 101.9550 65.00 57.20 8.06
7802 101.9667 64.00 57.27 8.00
7803 101.9785 59.00 57.34 7.68
7804 101.9904 54.00 57.41 7.35
7805 102.0022 56.00 57.49 7.48
7806 102.0139 58.00 57.57 7.62
7807 102.0257 67.00 57.65 8.19
7808 102.0375 60.00 57.75 7.75
7809 102.0494 70.00 57.84 8.37
7810 102.0611 47.00 57.93 6.86
7811 102.0729 55.00 58.02 7.42
7812 102.0847 56.00 58.12 7.48
7813 102.0965 49.00 58.21 7.00
7814 102.1083 64.00 58.31 8.00
7815 102.1201 50.00 58.41 7.07
7816 102.1319 69.00 58.52 8.31
7817 102.1436 53.00 58.63 7.28
7818 102.1554 47.00 58.74 6.86
7819 102.1672 51.00 58.85 7.14
7820 102.1791 58.00 58.97 7.62
7821 102.1908 67.00 59.08 8.19
7822 102.2026 66.00 59.20 8.12
7823 102.2144 54.00 59.32 7.35
7824 102.2262 50.00 59.45 7.07
7825 102.2380 62.00 59.57 7.87
7826 102.2498 63.00 59.70 7.94
7827 102.2616 68.00 59.83 8.25
7828 102.2734 75.00 59.96 8.66
7829 102.2851 57.00 60.09 7.55
7830 102.2970 70.00 60.23 8.37
7831 102.3088 61.00 60.36 7.81
7832 102.3205 57.00 60.50 7.55
7833 102.3323 62.00 60.64 7.87
7834 102.3441 62.00 60.78 7.87
7835 102.3559 59.00 60.92 7.68
7836 102.3677 55.00 61.06 7.42
7837 102.3795 62.00 61.20 7.87
7838 102.3913 63.00 61.34 7.94
7839 102.4031 75.00 61.49 8.66
7840 102.4148 65.00 61.63 8.06
7841 102.4267 62.00 61.78 7.87
7842 102.4385 61.00 61.92 7.81
7843 102.4503 58.00 62.07 7.62
7844 102.4620 65.00 62.21 8.06
7845 102.4738 56.00 62.35 7.48
7846 102.4857 54.00 62.50 7.35
7847 102.4975 71.00 62.64 8.43
7848 102.5092 63.00 62.79 7.94
7849 102.5210 58.00 62.93 7.62
7850 102.5328 68.00 63.07 8.25
7851 102.5446 67.00 63.23 8.19
7852 102.5564 68.00 63.37 8.25
7853 102.5682 55.00 63.50 7.42
7854 102.5800 60.00 63.64 7.75
7855 102.5917 55.00 63.77 7.42
7856 102.6035 51.00 63.90 7.14
7857 102.6154 60.00 64.03 7.75
7858 102.6272 58.00 64.15 7.62
7859 102.6389 67.00 64.27 8.19
7860 102.6507 54.00 64.39 7.35
7861 102.6625 71.00 64.50 8.43
7862 102.6743 67.00 64.61 8.19
7863 102.6861 50.00 64.72 7.07
7864 102.6979 60.00 64.82 7.75
7865 102.7097 70.00 64.91 8.37
7866 102.7214 62.00 65.00 7.87
7867 102.7333 52.00 65.09 7.21
7868 102.7451 70.00 65.17 8.37
7869 102.7569 67.00 65.24 8.19
7870 102.7686 74.00 65.31 8.60
7871 102.7804 58.00 65.37 7.62
7872 102.7923 67.00 65.42 8.19
7873 102.8040 63.00 65.47 7.94
7874 102.8158 76.00 65.50 8.72
7875 102.8276 59.00 65.53 7.68
7876 102.8394 65.00 65.56 8.06
7877 102.8511 68.00 65.57 8.25
7878 102.8630 53.00 65.58 7.28
7879 102.8748 59.00 65.57 7.68
7880 102.8866 68.00 65.56 8.25
7881 102.8983 72.00 65.54 8.49
7882 102.9101 56.00 65.52 7.48
7883 102.9220 56.00 65.48 7.48
7884 102.9338 67.00 65.44 8.19
7885 102.9455 54.00 65.38 7.35
7886 102.9573 57.00 65.32 7.55
7887 102.9691 66.00 65.26 8.12
7888 102.9809 58.00 65.18 7.62
7889 102.9927 62.00 65.10 7.87
7890 103.0045 70.00 65.01 8.37
7891 103.0163 72.00 64.91 8.49
7892 103.0280 63.00 64.81 7.94
7893 103.0399 63.00 64.71 7.94
7894 103.0517 57.00 64.60 7.55
7895 103.0635 71.00 64.48 8.43
7896 103.0752 76.00 64.36 8.72
7897 103.0870 71.00 64.23 8.43
7898 103.0988 63.00 64.11 7.94
7899 103.1106 74.00 63.98 8.60
7900 103.1224 72.00 63.85 8.49
7901 103.1342 60.00 63.71 7.75
7902 103.1460 61.00 63.58 7.81
7903 103.1577 65.00 63.44 8.06
7904 103.1696 48.00 63.31 6.93
7905 103.1814 59.00 63.17 7.68
7906 103.1932 64.00 63.03 8.00
7907 103.2049 66.00 62.90 8.12
7908 103.2167 60.00 62.77 7.75
7909 103.2286 58.00 62.63 7.62
7910 103.2404 70.00 62.50 8.37
7911 103.2521 59.00 62.37 7.68
7912 103.2639 56.00 62.24 7.48
7913 103.2757 51.00 62.11 7.14
7914 103.2876 57.00 61.99 7.55
7915 103.2993 57.00 61.87 7.55
7916 103.3111 76.00 61.75 8.72
7917 103.3229 63.00 61.63 7.94
7918 103.3346 60.00 61.51 7.75
7919 103.3464 47.00 61.40 6.86
7920 103.3583 67.00 61.29 8.19
7921 103.3701 63.00 61.19 7.94
7922 103.3818 57.00 61.09 7.55
7923 103.3936 51.00 60.99 7.14
7924 103.4054 60.00 60.89 7.75
7925 103.4173 67.00 60.80 8.19
7926 103.4290 50.00 60.71 7.07
7927 103.4408 72.00 60.63 8.49
7928 103.4526 58.00 60.55 7.62
7929 103.4643 55.00 60.47 7.42
7930 103.4762 65.00 60.40 8.06
7931 103.4880 56.00 60.33 7.48
7932 103.4998 54.00 60.26 7.35
7933 103.5115 65.00 60.20 8.06
7934 103.5233 63.00 60.14 7.94
7935 103.5351 55.00 60.08 7.42
7936 103.5470 61.00 60.03 7.81
7937 103.5587 61.00 59.98 7.81
7938 103.5705 72.00 59.93 8.49
7939 103.5823 52.00 59.88 7.21
7940 103.5940 62.00 59.84 7.87
7941 103.6059 66.00 59.80 8.12
7942 103.6177 58.00 59.77 7.62
7943 103.6295 56.00 59.74 7.48
7944 103.6412 74.00 59.71 8.60
7945 103.6530 56.00 59.68 7.48
7946 103.6649 58.00 59.65 7.62
7947 103.6767 58.00 59.62 7.62
7948 103.6884 70.00 59.60 8.37
7949 103.7002 54.00 59.58 7.35
7950 103.7120 66.00 59.56 8.12
7951 103.7238 61.00 59.54 7.81
7952 103.7356 60.00 59.52 7.75
7953 103.7474 53.00 59.50 7.28
7954 103.7592 55.00 59.48 7.42
7955 103.7709 56.00 59.46 7.48
7956 103.7827 56.00 59.44 7.48
7957 103.7946 62.00 59.42 7.87
7958 103.8064 68.00 59.40 8.25
7959 103.8181 68.00 59.38 8.25
7960 103.8299 56.00 59.36 7.48
7961 103.8417 62.00 59.34 7.87
7962 103.8536 70.00 59.32 8.37
7963 103.8653 50.00 59.29 7.07
7964 103.8771 78.00 59.27 8.83
7965 103.8889 59.00 59.24 7.68
7966 103.9006 59.00 59.22 7.68
7967 103.9125 62.00 59.19 7.87
7968 103.9243 67.00 59.16 8.19
7969 103.9361 67.00 59.13 8.19
7970 103.9478 56.00 59.10 7.48
7971 103.9596 49.00 59.06 7.00
7972 103.9715 70.00 59.03 8.37
7973 103.9833 57.00 58.99 7.55
7974 103.9950 61.00 58.96 7.81
7975 104.0068 64.00 58.92 8.00
7976 104.0186 66.00 58.88 8.12
7977 104.0303 53.00 58.84 7.28
7978 104.0422 52.00 58.80 7.21
7979 104.0540 51.00 58.75 7.14
7980 104.0658 64.00 58.71 8.00
7981 104.0775 54.00 58.66 7.35
7982 104.0893 63.00 58.61 7.94
7983 104.1012 59.00 58.56 7.68
7984 104.1130 56.00 58.51 7.48
7985 104.1247 60.00 58.46 7.75
7986 104.1365 60.00 58.42 7.75
7987 104.1483 40.00 58.37 6.32
7988 104.1601 56.00 58.31 7.48
7989 104.1719 65.00 58.26 8.06
7990 104.1837 77.00 58.20 8.77
7991 104.1955 58.00 58.14 7.62
7992 104.2072 57.00 58.09 7.55
7993 104.2191 50.00 58.03 7.07
7994 104.2309 59.00 57.98 7.68
7995 104.2427 66.00 57.92 8.12
7996 104.2544 69.00 57.87 8.31
7997 104.2662 65.00 57.82 8.06
7998 104.2780 53.00 57.76 7.28
7999 104.2898 54.00 57.71 7.35
8000 104.3016 50.00 57.66 7.07
8001 104.3134 63.00 57.61 7.94
8002 104.3252 55.00 57.56 7.42
8003 104.3369 59.00 57.51 7.68
8004 104.3488 49.00 57.46 7.00
8005 104.3606 49.00 57.41 7.00
8006 104.3724 62.00 57.37 7.87
8007 104.3841 51.00 57.32 7.14
8008 104.3959 59.00 57.28 7.68
8009 104.4078 48.00 57.23 6.93
8010 104.4196 57.00 57.18 7.55
8011 104.4313 58.00 57.14 7.62
8012 104.4431 53.00 57.09 7.28
8013 104.4549 59.00 57.05 7.68
8014 104.4668 63.00 57.00 7.94
8015 104.4785 43.00 56.96 6.56
8016 104.4903 47.00 56.91 6.86
8017 104.5021 57.00 56.86 7.55
8018 104.5138 38.00 56.82 6.16
8019 104.5256 62.00 56.77 7.87
8020 104.5375 52.00 56.72 7.21
8021 104.5493 66.00 56.67 8.12
8022 104.5610 45.00 56.63 6.71
8023 104.5728 61.00 56.58 7.81
8024 104.5846 48.00 56.53 6.93
8025 104.5965 50.00 56.48 7.07
8026 104.6082 56.00 56.43 7.48
8027 104.6200 56.00 56.38 7.48
8028 104.6318 46.00 56.34 6.78
8029 104.6435 63.00 56.29 7.94
8030 104.6554 57.00 56.25 7.55
8031 104.6672 63.00 56.20 7.94
8032 104.6790 69.00 56.16 8.31
8033 104.6907 55.00 56.12 7.42
8034 104.7025 48.00 56.07 6.93
8035 104.7143 59.00 56.04 7.68
8036 104.7262 56.00 56.00 7.48
8037 104.7379 60.00 55.96 7.75
8038 104.7497 62.00 55.93 7.87
8039 104.7615 49.00 55.90 7.00
8040 104.7732 76.00 55.87 8.72
8041 104.7851 65.00 55.84 8.06
8042 104.7969 53.00 55.81 7.28
8043 104.8087 53.00 55.79 7.28
8044 104.8204 74.00 55.77 8.60
8045 104.8322 71.00 55.75 8.43
8046 104.8441 39.00 55.73 6.24
8047 104.8559 50.00 55.72 7.07
8048 104.8676 55.00 55.71 7.42
8049 104.8794 62.00 55.70 7.87
8050 104.8912 55.00 55.70 7.42
8051 104.9030 42.00 55.69 6.48
8052 104.9148 47.00 55.69 6.86
8053 104.9266 57.00 55.70 7.55
8054 104.9384 56.00 55.70 7.48
8055 104.9501 70.00 55.71 8.37
8056 104.9619 67.00 55.73 8.19
8057 104.9738 58.00 55.74 7.62
8058 104.9856 66.00 55.76 8.12
8059 104.9973 63.00 55.78 7.94
8060 105.0091 52.00 55.81 7.21
8061 105.0209 52.00 55.84 7.21
8062 105.0327 73.00 55.87 8.54
8063 105.0445 73.00 55.91 8.54
8064 105.0563 47.00 55.95 6.86
8065 105.0681 57.00 55.99 7.55
8066 105.0798 50.00 56.03 7.07
8067 105.0917 63.00 56.08 7.94
8068 105.1035 58.00 56.13 7.62
8069 105.1152 58.00 56.19 7.62
8070 105.1270 68.00 56.25 8.25
8071 105.1388 46.00 56.31 6.78
8072 105.1507 48.00 56.37 6.93
8073 105.1624 46.00 56.44 6.78
8074 105.1742 47.00 56.51 6.86
8075 105.1860 63.00 56.58 7.94
8076 105.1978 50.00 56.66 7.07
8077 105.2095 44.00 56.74 6.63
8078 105.2214 54.00 56.82 7.35
8079 105.2332 44.00 56.90 6.63
8080 105.2450 62.00 56.98 7.87
8081 105.2567 62.00 57.06 7.87
8082 105.2685 62.00 57.14 7.87
8083 105.2804 54.00 57.23 7.35
8084 105.2921 52.00 57.31 7.21
8085 105.3039 51.00 57.39 7.14
8086 105.3157 71.00 57.47 8.43
8087 105.3275 53.00 57.55 7.28
8088 105.3393 51.00 57.63 7.14
8089 105.3511 45.00 57.70 6.71
8090 105.3629 53.00 57.77 7.28
8091 105.3747 61.00 57.83 7.81
8092 105.3864 57.00 57.89 7.55
8093 105.3983 70.00 57.94 8.37
8094 105.4101 46.00 57.98 6.78
8095 105.4218 53.00 58.02 7.28
8096 105.4336 58.00 58.05 7.62
8097 105.4454 62.00 58.07 7.87
8098 105.4572 72.00 58.08 8.49
8099 105.4690 57.00 58.09 7.55
8100 105.4808 67.00 58.08 8.19
8101 105.4926 51.00 58.07 7.14
8102 105.5043 47.00 58.05 6.86
8103 105.5161 56.00 58.02 7.48
8104 105.5280 65.00 57.99 8.06
8105 105.5398 42.00 57.95 6.48
8106 105.5515 70.00 57.90 8.37
8107 105.5633 55.00 57.85 7.42
8108 105.5751 59.00 57.79 7.68
8109 105.5870 65.00 57.73 8.06
8110 105.5987 54.00 57.67 7.35
8111 105.6105 63.00 57.61 7.94
8112 105.6223 63.00 57.54 7.94
8113 105.6341 57.00 57.47 7.55
8114 105.6459 43.00 57.39 6.56
8115 105.6577 79.00 57.32 8.89
8116 105.6695 73.00 57.25 8.54
8117 105.6812 50.00 57.18 7.07
8118 105.6930 61.00 57.11 7.81
8119 105.7048 64.00 57.04 8.00
8120 105.7167 66.00 56.97 8.12
8121 105.7284 49.00 56.90 7.00
8122 105.7402 53.00 56.84 7.28
8123 105.7520 51.00 56.78 7.14
8124 105.7638 56.00 56.72 7.48
8125 105.7756 60.00 56.66 7.75
8126 105.7874 54.00 56.61 7.35
8127 105.7992 62.00 56.56 7.87
8128 105.8109 64.00 56.51 8.00
8129 105.8227 55.00 56.47 7.42
8130 105.8346 61.00 56.43 7.81
8131 105.8464 74.00 56.39 8.60
8132 105.8581 67.00 56.36 8.19
8133 105.8699 47.00 56.33 6.86
8134 105.8817 56.00 56.30 7.48
8135 105.8934 51.00 56.28 7.14
8136 105.9053 73.00 56.26 8.54
8137 105.9171 59.00 56.25 7.68
8138 105.9289 49.00 56.23 7.00
8139 105.9406 61.00 56.23 7.81
8140 105.9524 58.00 56.22 7.62
8141 105.9643 66.00 56.22 8.12
8142 105.9761 47.00 56.22 6.86
8143 105.9878 60.00 56.23 7.75
8144 105.9996 55.00 56.24 7.42
8145 106.0114 53.00 56.25 7.28
8146 106.0233 62.00 56.26 7.87
8147 106.0350 57.00 56.28 7.55
8148 106.0468 56.00 56.30 7.48
8149 106.0586 76.00 56.33 8.72
8150 106.0703 54.00 56.36 7.35
8151 106.0822 39.00 56.39 6.24
8152 106.0940 55.00 56.42 7.42
8153 106.1058 53.00 56.46 7.28
8154 106.1175 48.00 56.50 6.93
8155 106.1293 62.00 56.54 7.87
8156 106.1411 48.00 56.58 6.93
8157 106.1529 50.00 56.63 7.07
8158 106.1647 61.00 56.68 7.81
8159 106.1765 61.00 56.73 7.81
8160 106.1883 63.00 56.78 7.94
8161 106.2000 51.00 56.83 7.14
8162 106.2119 69.00 56.89 8.31
8163 106.2237 51.00 56.95 7.14
8164 106.2355 61.00 57.00 7.81
8165 106.2472 52.00 57.06 7.21
8166 106.2590 60.00 57.12 7.75
8167 106.2709 68.00 57.18 8.25
8168 106.2827 55.00 57.24 7.42
8169 106.2944 59.00 57.30 7.68
8170 106.3062 60.00 57.35 7.75
8171 106.3180 68.00 57.41 8.25
8172 106.3298 55.00 57.47 7.42
8173 106.3416 55.00 57.53 7.42
8174 106.3534 54.00 57.58 7.35
8175 106.3652 57.00 57.63 7.55
8176 106.3769 57.00 57.69 7.55
8177 106.3887 65.00 57.73 8.06
8178 106.4006 62.00 57.78 7.87
8179 106.4123 61.00 57.86 7.81
8180 106.4241 57.00 57.90 7.55
8181 106.4359 70.00 57.94 8.37
8182 106.4477 47.00 57.98 6.86
8183 106.4595 64.00 58.01 8.00
8184 106.4713 63.00 58.04 7.94
8185 106.4831 60.00 58.07 7.75
8186 106.4949 61.00 58.09 7.81
8187 106.5066 64.00 58.11 8.00
8188 106.5185 53.00 58.13 7.28
8189 106.5303 61.00 58.15 7.81
8190 106.5420 73.00 58.16 8.54
8191 106.5538 51.00 58.17 7.14
8192 106.5656 63.00 58.18 7.94
8193 106.5775 62.00 58.19 7.87
8194 106.5892 49.00 58.19 7.00
8195 106.6010 65.00 58.19 8.06
8196 106.6128 52.00 58.19 7.21
8197 106.6245 52.00 58.19 7.21
8198 106.6363 46.00 58.18 6.78
8199 106.6482 55.00 58.18 7.42
8200 106.6600 69.00 58.17 8.31
8201 106.6717 66.00 58.16 8.12
8202 106.6835 80.00 58.16 8.94
8203 106.6953 58.00 58.14 7.62
8204 106.7072 54.00 58.13 7.35
8205 106.7189 71.00 58.12 8.43
8206 106.7307 61.00 58.11 7.81
8207 106.7425 64.00 58.09 8.00
8208 106.7542 64.00 58.08 8.00
8209 106.7661 60.00 58.07 7.75
8210 106.7779 51.00 58.05 7.14
8211 106.7897 54.00 58.04 7.35
8212 106.8014 78.00 58.03 8.83
8213 106.8132 63.00 58.01 7.94
8214 106.8251 47.00 58.00 6.86
8215 106.8369 66.00 57.99 8.12
8216 106.8486 65.00 57.98 8.06
8217 106.8604 61.00 57.96 7.81
8218 106.8722 73.00 57.95 8.54
8219 106.8839 64.00 57.94 8.00
8220 106.8958 63.00 57.93 7.94
8221 106.9076 59.00 57.91 7.68
8222 106.9194 63.00 57.90 7.94
8223 106.9311 48.00 57.89 6.93
8224 106.9429 58.00 57.88 7.62
8225 106.9548 65.00 57.87 8.06
8226 106.9666 59.00 57.86 7.68
8227 106.9783 44.00 57.85 6.63
8228 106.9901 62.00 57.85 7.87
8229 107.0019 70.00 57.84 8.37
8230 107.0137 64.00 57.83 8.00
8231 107.0255 60.00 57.82 7.75
8232 107.0373 54.00 57.82 7.35
8233 107.0491 55.00 57.82 7.42
8234 107.0608 64.00 57.82 8.00
8235 107.0726 48.00 57.82 6.93
8236 107.0845 73.00 57.82 8.54
8237 107.0963 46.00 57.82 6.78
8238 107.1080 53.00 57.83 7.28
8239 107.1198 68.00 57.83 8.25
8240 107.1316 50.00 57.84 7.07
8241 107.1434 61.00 57.85 7.81
8242 107.1552 79.00 57.86 8.89
8243 107.1670 64.00 57.88 8.00
8244 107.1788 52.00 57.89 7.21
8245 107.1905 39.00 57.91 6.24
8246 107.2024 50.00 57.92 7.07
8247 107.2142 54.00 57.94 7.35
8248 107.2259 48.00 57.96 6.93
8249 107.2377 72.00 57.98 8.49
8250 107.2495 60.00 58.00 7.75
8251 107.2614 67.00 58.03 8.19
8252 107.2731 59.00 58.05 7.68
8253 107.2849 57.00 58.08 7.55
8254 107.2967 63.00 58.10 7.94
8255 107.3085 50.00 58.13 7.07
8256 107.3202 61.00 58.15 7.81
8257 107.3321 53.00 58.18 7.28
8258 107.3439 67.00 58.20 8.19
8259 107.3556 59.00 58.23 7.68
8260 107.3674 59.00 58.25 7.68
8261 107.3792 65.00 58.28 8.06
8262 107.3911 59.00 58.30 7.68
8263 107.4028 63.00 58.32 7.94
8264 107.4146 43.00 58.35 6.56
8265 107.4264 76.00 58.37 8.72
8266 107.4381 57.00 58.39 7.55
8267 107.4500 58.00 58.41 7.62
8268 107.4618 67.00 58.43 8.19
8269 107.4736 65.00 58.45 8.06
8270 107.4853 55.00 58.46 7.42
8271 107.4971 67.00 58.48 8.19
8272 107.5090 57.00 58.49 7.55
8273 107.5208 51.00 58.51 7.14
8274 107.5325 49.00 58.52 7.00
8275 107.5443 60.00 58.53 7.75
8276 107.5561 56.00 58.54 7.48
8277 107.5678 79.00 58.54 8.89
8278 107.5797 69.00 58.55 8.31
8279 107.5915 56.00 58.55 7.48
8280 107.6033 63.00 58.55 7.94
8281 107.6150 49.00 58.55 7.00
8282 107.6268 57.00 58.55 7.55
8283 107.6387 44.00 58.55 6.63
8284 107.6505 53.00 58.54 7.28
8285 107.6622 59.00 58.54 7.68
8286 107.6740 46.00 58.53 6.78
8287 107.6858 67.00 58.52 8.19
8288 107.6976 55.00 58.50 7.42
8289 107.7094 62.00 58.49 7.87
8290 107.7212 77.00 58.47 8.77
8291 107.7330 73.00 58.45 8.54
8292 107.7447 52.00 58.44 7.21
8293 107.7566 63.00 58.41 7.94
8294 107.7684 71.00 58.39 8.43
8295 107.7802 66.00 58.37 8.12
8296 107.7919 64.00 58.34 8.00
8297 107.8037 76.00 58.32 8.72
8298 107.8155 80.00 58.29 8.94
8299 107.8273 52.00 58.26 7.21
8300 107.8391 59.00 58.24 7.68
8301 107.8509 56.00 58.21 7.48
8302 107.8626 57.00 58.18 7.55
8303 107.8744 63.00 58.15 7.94
8304 107.8863 54.00 58.12 7.35
8305 107.8981 65.00 58.09 8.06
8306 107.9098 61.00 58.06 7.81
8307 107.9216 49.00 58.04 7.00
8308 107.9334 50.00 58.01 7.07
8309 107.9453 58.00 57.98 7.62
8310 107.9570 59.00 57.96 7.68
8311 107.9688 54.00 57.94 7.35
8312 107.9806 48.00 57.92 6.93
8313 107.9923 70.00 57.89 8.37
8314 108.0042 49.00 57.87 7.00
8315 108.0160 51.00 57.85 7.14
8316 108.0278 56.00 57.82 7.48
8317 108.0395 62.00 57.80 7.87
8318 108.0513 55.00 57.78 7.42
8319 108.0631 52.00 57.76 7.21
8320 108.0750 65.00 57.74 8.06
8321 108.0867 55.00 57.72 7.42
8322 108.0985 65.00 57.71 8.06
8323 108.1103 47.00 57.69 6.86
8324 108.1220 44.00 57.67 6.63
8325 108.1339 59.00 57.66 7.68
8326 108.1457 41.00 57.65 6.40
8327 108.1575 58.00 57.64 7.62
8328 108.1692 44.00 57.63 6.63
8329 108.1810 54.00 57.62 7.35
8330 108.1929 62.00 57.61 7.87
8331 108.2047 50.00 57.60 7.07
8332 108.2164 57.00 57.59 7.55
8333 108.2282 59.00 57.59 7.68
8334 108.2400 68.00 57.59 8.25
8335 108.2517 47.00 57.58 6.86
8336 108.2636 59.00 57.58 7.68
8337 108.2754 59.00 57.58 7.68
8338 108.2872 52.00 57.59 7.21
8339 108.2989 53.00 57.59 7.28
8340 108.3107 48.00 57.60 6.93
8341 108.3226 62.00 57.60 7.87
8342 108.3343 64.00 57.61 8.00
8343 108.3461 57.00 57.62 7.55
8344 108.3579 54.00 57.63 7.35
8345 108.3697 60.00 57.64 7.75
8346 108.3815 71.00 57.65 8.43
8347 108.3933 58.00 57.67 7.62
8348 108.4051 60.00 57.68 7.75
8349 108.4168 62.00 57.70 7.87
8350 108.4286 60.00 57.72 7.75
8351 108.4405 55.00 57.73 7.42
8352 108.4523 56.00 57.75 7.48
8353 108.4640 42.00 57.77 6.48
8354 108.4758 47.00 57.80 6.86
8355 108.4876 66.00 57.82 8.12
8356 108.4994 55.00 57.84 7.42
8357 108.5112 55.00 57.87 7.42
8358 108.5230 53.00 57.89 7.28
8359 108.5348 66.00 57.92 8.12
8360 108.5465 70.00 57.94 8.37
8361 108.5583 48.00 57.97 6.93
8362 108.5702 64.00 57.99 8.00
8363 108.5820 57.00 58.02 7.55
8364 108.5937 54.00 58.05 7.35
8365 108.6055 69.00 58.08 8.31
8366 108.6173 69.00 58.11 8.31
8367 108.6291 52.00 58.15 7.21
8368 108.6409 58.00 58.18 7.62
8369 108.6527 61.00 58.21 7.81
8370 108.6645 53.00 58.25 7.28
8371 108.6762 78.00 58.29 8.83
8372 108.6881 52.00 58.33 7.21
8373 108.6999 64.00 58.37 8.00
8374 108.7117 55.00 58.41 7.42
8375 108.7234 61.00 58.45 7.81
8376 108.7352 62.00 58.50 7.87
8377 108.7470 62.00 58.54 7.87
8378 108.7588 52.00 58.59 7.21
8379 108.7706 60.00 58.64 7.75
8380 108.7824 63.00 58.69 7.94
8381 108.7942 62.00 58.74 7.87
8382 108.8059 51.00 58.80 7.14
8383 108.8178 61.00 58.85 7.81
8384 108.8296 43.00 58.91 6.56
8385 108.8413 54.00 58.97 7.35
8386 108.8531 66.00 59.03 8.12
8387 108.8649 50.00 59.08 7.07
8388 108.8768 73.00 59.14 8.54
8389 108.8885 56.00 59.20 7.48
8390 108.9003 65.00 59.26 8.06
8391 108.9121 55.00 59.32 7.42
8392 108.9239 71.00 59.37 8.43
8393 108.9357 55.00 59.43 7.42
8394 108.9475 64.00 59.48 8.00
8395 108.9593 67.00 59.53 8.19
8396 108.9710 61.00 59.57 7.81
8397 108.9828 62.00 59.62 7.87
8398 108.9946 69.00 59.66 8.31
8399 109.0064 60.00 59.69 7.75
8400 109.0182 58.00 59.72 7.62
8401 109.0300 65.00 59.75 8.06
8402 109.0418 51.00 59.77 7.14
8403 109.0535 61.00 59.78 7.81
8404 109.0654 50.00 59.79 7.07
8405 109.0772 58.00 59.80 7.62
8406 109.0890 62.00 59.80 7.87
8407 109.1007 63.00 59.80 7.94
8408 109.1125 65.00 59.79 8.06
8409 109.1244 73.00 59.78 8.54
8410 109.1361 49.00 59.76 7.00
8411 109.1479 65.00 59.74 8.06
8412 109.1597 69.00 59.72 8.31
8413 109.1715 49.00 59.69 7.00
8414 109.1833 38.00 59.67 6.16
8415 109.1951 56.00 59.64 7.48
8416 109.2069 56.00 59.60 7.48
8417 109.2187 53.00 59.57 7.28
8418 109.2304 60.00 59.53 7.75
8419 109.2422 48.00 59.50 6.93
8420 109.2541 61.00 59.46 7.81
8421 109.2658 66.00 59.43 8.12
8422 109.2776 69.00 59.39 8.31
8423 109.2894 45.00 59.36 6.71
8424 109.3012 64.00 59.32 8.00
8425 109.3130 65.00 59.29 8.06
8426 109.3248 50.00 59.26 7.07
8427 109.3366 58.00 59.23 7.62
8428 109.3483 49.00 59.20 7.00
8429 109.3601 61.00 59.17 7.81
8430 109.3720 64.00 59.15 8.00
8431 109.3838 62.00 59.12 7.87
8432 109.3955 58.00 59.10 7.62
8433 109.4073 66.00 59.08 8.12
8434 109.4191 69.00 59.06 8.31
8435 109.4308 57.00 59.04 7.55
8436 109.4427 51.00 59.03 7.14
8437 109.4545 58.00 59.01 7.62
8438 109.4663 63.00 59.00 7.94
8439 109.4780 56.00 58.99 7.48
8440 109.4898 52.00 58.98 7.21
8441 109.5017 65.00 58.97 8.06
8442 109.5135 64.00 58.97 8.00
8443 109.5252 56.00 58.96 7.48
8444 109.5370 69.00 58.96 8.31
8445 109.5488 47.00 58.96 6.86
8446 109.5606 63.00 58.96 7.94
8447 109.5724 64.00 58.96 8.00
8448 109.5842 71.00 58.96 8.43
8449 109.5960 64.00 58.96 8.00
8450 109.6077 55.00 58.96 7.42
8451 109.6196 58.00 58.96 7.62
8452 109.6314 52.00 58.96 7.21
8453 109.6431 47.00 58.96 6.86
8454 109.6549 61.00 58.97 7.81
8455 109.6667 67.00 58.97 8.19
8456 109.6785 46.00 58.97 6.78
8457 109.6903 70.00 58.97 8.37
8458 109.7021 69.00 58.97 8.31
8459 109.7139 65.00 58.97 8.06
8460 109.7256 63.00 58.97 7.94
8461 109.7374 75.00 58.97 8.66
8462 109.7493 65.00 58.96 8.06
8463 109.7611 57.00 58.96 7.55
8464 109.7728 71.00 58.96 8.43
8465 109.7846 67.00 58.95 8.19
8466 109.7964 59.00 58.94 7.68
8467 109.8083 55.00 58.93 7.42
8468 109.8200 51.00 58.92 7.14
8469 109.8318 70.00 58.91 8.37
8470 109.8436 70.00 58.90 8.37
8471 109.8553 59.00 58.89 7.68
8472 109.8672 65.00 58.88 8.06
8473 109.8790 53.00 58.86 7.28
8474 109.8908 63.00 58.85 7.94
8475 109.9025 63.00 58.83 7.94
8476 109.9143 60.00 58.82 7.75
8477 109.9261 66.00 58.81 8.12
8478 109.9379 60.00 58.79 7.75
8479 109.9497 53.00 58.78 7.28
8480 109.9615 69.00 58.76 8.31
8481 109.9733 56.00 58.75 7.48
8482 109.9850 48.00 58.74 6.93
8483 109.9969 75.00 58.73 8.66
8484 110.0087 68.00 58.73 8.25
8485 110.0204 44.00 58.72 6.63
8486 110.0322 71.00 58.72 8.43
8487 110.0440 59.00 58.71 7.68
8488 110.0559 75.00 58.71 8.66
8489 110.0676 52.00 58.71 7.21
8490 110.0794 56.00 58.72 7.48
8491 110.0912 60.00 58.73 7.75
8492 110.1030 49.00 58.73 7.00
8493 110.1148 67.00 58.75 8.19
8494 110.1266 67.00 58.76 8.19
8495 110.1384 57.00 58.78 7.55
8496 110.1501 68.00 58.80 8.25
8497 110.1619 62.00 58.82 7.87
8498 110.1737 61.00 58.85 7.81
8499 110.1855 66.00 58.88 8.12
8500 110.1973 52.00 58.91 7.21
8501 110.2091 67.00 58.95 8.19
8502 110.2209 63.00 58.99 7.94
8503 110.2326 49.00 59.03 7.00
8504 110.2445 63.00 59.08 7.94
8505 110.2563 57.00 59.13 7.55
8506 110.2681 60.00 59.18 7.75
8507 110.2798 55.00 59.23 7.42
8508 110.2916 55.00 59.29 7.42
8509 110.3035 64.00 59.35 8.00
8510 110.3152 65.00 59.42 8.06
8511 110.3270 60.00 59.48 7.75
8512 110.3388 63.00 59.55 7.94
8513 110.3506 68.00 59.62 8.25
8514 110.3624 49.00 59.70 7.00
8515 110.3742 81.00 59.78 9.00
8516 110.3860 74.00 59.86 8.60
8517 110.3977 53.00 59.94 7.28
8518 110.4095 51.00 60.04 7.14
8519 110.4213 55.00 60.13 7.42
8520 110.4332 58.00 60.22 7.62
8521 110.4449 46.00 60.31 6.78
8522 110.4567 57.00 60.41 7.55
8523 110.4685 66.00 60.51 8.12
8524 110.4802 63.00 60.60 7.94
8525 110.4921 59.00 60.71 7.68
8526 110.5039 66.00 60.81 8.12
8527 110.5157 68.00 60.91 8.25
8528 110.5274 66.00 61.01 8.12
8529 110.5392 59.00 61.12 7.68
8530 110.5511 52.00 61.23 7.21
8531 110.5629 59.00 61.33 7.68
8532 110.5746 72.00 61.44 8.49
8533 110.5864 67.00 61.55 8.19
8534 110.5982 66.00 61.66 8.12
8535 110.6099 58.00 61.77 7.62
8536 110.6218 53.00 61.88 7.28
8537 110.6336 67.00 61.98 8.19
8538 110.6454 67.00 62.09 8.19
8539 110.6571 53.00 62.20 7.28
8540 110.6689 62.00 62.30 7.87
8541 110.6808 63.00 62.40 7.94
8542 110.6925 45.00 62.51 6.71
8543 110.7043 64.00 62.61 8.00
8544 110.7161 62.00 62.70 7.87
8545 110.7279 52.00 62.80 7.21
8546 110.7397 73.00 62.89 8.54
8547 110.7515 75.00 62.98 8.66
8548 110.7633 46.00 63.07 6.78
8549 110.7750 68.00 63.15 8.25
8550 110.7868 57.00 63.23 7.55
8551 110.7987 53.00 63.30 7.28
8552 110.8105 61.00 63.37 7.81
8553 110.8222 73.00 63.44 8.54
8554 110.8340 62.00 63.49 7.87
8555 110.8458 61.00 63.55 7.81
8556 110.8576 70.00 63.60 8.37
8557 110.8694 77.00 63.65 8.77
8558 110.8812 63.00 63.69 7.94
8559 110.8930 62.00 63.73 7.87
8560 110.9047 73.00 63.76 8.54
8561 110.9165 64.00 63.79 8.00
8562 110.9284 65.00 63.81 8.06
8563 110.9401 69.00 63.83 8.31
8564 110.9519 57.00 63.84 7.55
8565 110.9637 63.00 63.84 7.94
8566 110.9755 76.00 63.84 8.72
8567 110.9873 76.00 63.83 8.72
8568 110.9991 64.00 63.82 8.00
8569 111.0109 75.00 63.80 8.66
8570 111.0227 60.00 63.78 7.75
8571 111.0344 68.00 63.75 8.25
8572 111.0463 72.00 63.72 8.49
8573 111.0581 75.00 63.69 8.66
8574 111.0698 66.00 63.64 8.12
8575 111.0816 67.00 63.60 8.19
8576 111.0934 68.00 63.55 8.25
8577 111.1052 70.00 63.50 8.37
8578 111.1170 76.00 63.44 8.72
8579 111.1288 71.00 63.38 8.43
8580 111.1406 81.00 63.32 9.00
8581 111.1523 78.00 63.25 8.83
8582 111.1641 70.00 63.19 8.37
8583 111.1760 61.00 63.11 7.81
8584 111.1878 77.00 63.04 8.77
8585 111.1995 63.00 62.97 7.94
8586 111.2113 68.00 62.89 8.25
8587 111.2231 77.00 62.81 8.77
8588 111.2349 61.00 62.73 7.81
8589 111.2467 57.00 62.66 7.55
8590 111.2585 73.00 62.58 8.54
8591 111.2703 54.00 62.49 7.35
8592 111.2820 56.00 62.41 7.48
8593 111.2939 76.00 62.33 8.72
8594 111.3057 75.00 62.25 8.66
8595 111.3174 61.00 62.17 7.81
8596 111.3292 70.00 62.09 8.37
8597 111.3410 65.00 62.01 8.06
8598 111.3528 50.00 61.94 7.07
8599 111.3646 67.00 61.86 8.19
8600 111.3764 61.00 61.78 7.81
8601 111.3882 58.00 61.71 7.62
8602 111.3999 63.00 61.64 7.94
8603 111.4117 69.00 61.57 8.31
8604 111.4236 56.00 61.50 7.48
8605 111.4354 70.00 61.43 8.37
8606 111.4471 67.00 61.36 8.19
8607 111.4589 70.00 61.30 8.37
8608 111.4707 67.00 61.24 8.19
8609 111.4825 62.00 61.18 7.87
8610 111.4943 70.00 61.12 8.37
8611 111.5061 64.00 61.06 8.00
8612 111.5179 58.00 61.01 7.62
8613 111.5296 91.00 60.96 9.54
8614 111.5415 58.00 60.91 7.62
8615 111.5533 58.00 60.86 7.62
8616 111.5650 61.00 60.82 7.81
8617 111.5768 61.00 60.77 7.81
8618 111.5886 58.00 60.73 7.62
8619 111.6004 58.00 60.69 7.62
8620 111.6122 63.00 60.65 7.94
8621 111.6240 65.00 60.61 8.06
8622 111.6358 57.00 60.58 7.55
8623 111.6475 59.00 60.54 7.68
8624 111.6593 56.00 60.51 7.48
8625 111.6712 66.00 60.47 8.12
8626 111.6830 62.00 60.44 7.87
8627 111.6947 64.00 60.40 8.00
8628 111.7065 48.00 60.37 6.93
8629 111.7183 72.00 60.33 8.49
8630 111.7301 79.00 60.30 8.89
8631 111.7419 51.00 60.26 7.14
8632 111.7537 64.00 60.22 8.00
8633 111.7655 60.00 60.18 7.75
8634 111.7772 60.00 60.14 7.75
8635 111.7890 54.00 60.10 7.35
8636 111.8009 62.00 60.06 7.87
8637 111.8127 65.00 60.01 8.06
8638 111.8244 60.00 59.96 7.75
8639 111.8362 61.00 59.91 7.81
8640 111.8480 81.00 59.86 9.00
8641 111.8598 62.00 59.81 7.87
8642 111.8716 70.00 59.75 8.37
8643 111.8834 59.00 59.70 7.68
8644 111.8952 63.00 59.64 7.94
8645 111.9069 72.00 59.58 8.49
8646 111.9188 66.00 59.52 8.12
8647 111.9306 67.00 59.46 8.19
8648 111.9423 57.00 59.40 7.55
8649 111.9541 58.00 59.34 7.62
8650 111.9659 48.00 59.27 6.93
8651 111.9778 61.00 59.21 7.81
8652 111.9895 70.00 59.15 8.37
8653 112.0013 59.00 59.09 7.68
8654 112.0131 66.00 59.05 8.12
8655 112.0248 57.00 58.99 7.55
8656 112.0366 64.00 58.93 8.00
8657 112.0485 58.00 58.88 7.62
8658 112.0603 71.00 58.83 8.43
8659 112.0720 56.00 58.78 7.48
8660 112.0838 53.00 58.73 7.28
8661 112.0956 68.00 58.68 8.25
8662 112.1074 56.00 58.64 7.48
8663 112.1192 57.00 58.60 7.55
8664 112.1310 49.00 58.56 7.00
8665 112.1428 66.00 58.52 8.12
8666 112.1545 55.00 58.49 7.42
8667 112.1664 45.00 58.46 6.71
8668 112.1782 60.00 58.43 7.75
8669 112.1899 71.00 58.40 8.43
8670 112.2017 63.00 58.38 7.94
8671 112.2135 55.00 58.36 7.42
8672 112.2254 56.00 58.35 7.48
8673 112.2371 57.00 58.34 7.55
8674 112.2489 67.00 58.33 8.19
8675 112.2607 63.00 58.32 7.94
8676 112.2724 63.00 58.32 7.94
8677 112.2842 60.00 58.32 7.75
8678 112.2961 50.00 58.32 7.07
8679 112.3079 43.00 58.32 6.56
8680 112.3196 54.00 58.33 7.35
8681 112.3314 71.00 58.34 8.43
8682 112.3432 65.00 58.35 8.06
8683 112.3550 47.00 58.37 6.86
8684 112.3668 62.00 58.39 7.87
8685 112.3786 56.00 58.42 7.48
8686 112.3904 49.00 58.44 7.00
8687 112.4021 70.00 58.47 8.37
8688 112.4140 68.00 58.50 8.25
8689 112.4258 72.00 58.54 8.49
8690 112.4375 69.00 58.58 8.31
8691 112.4493 54.00 58.62 7.35
8692 112.4611 55.00 58.66 7.42
8693 112.4730 52.00 58.70 7.21
8694 112.4847 75.00 58.75 8.66
8695 112.4965 70.00 58.80 8.37
8696 112.5083 61.00 58.85 7.81
8697 112.5200 58.00 58.91 7.62
8698 112.5318 62.00 58.97 7.87
8699 112.5437 63.00 59.02 7.94
8700 112.5555 63.00 59.09 7.94
8701 112.5672 62.00 59.14 7.87
8702 112.5790 63.00 59.21 7.94
8703 112.5908 48.00 59.28 6.93
8704 112.6026 60.00 59.34 7.75
8705 112.6144 59.00 59.41 7.68
8706 112.6262 68.00 59.49 8.25
8707 112.6380 69.00 59.56 8.31
8708 112.6497 63.00 59.63 7.94
8709 112.6616 68.00 59.71 8.25
8710 112.6734 64.00 59.79 8.00
8711 112.6851 65.00 59.86 8.06
8712 112.6969 63.00 59.94 7.94
8713 112.7087 74.00 60.02 8.60
8714 112.7206 53.00 60.10 7.28
8715 112.7323 57.00 60.18 7.55
8716 112.7441 76.00 60.26 8.72
8717 112.7559 60.00 60.34 7.75
8718 112.7676 77.00 60.42 8.77
8719 112.7794 68.00 60.50 8.25
8720 112.7913 72.00 60.58 8.49
8721 112.8031 54.00 60.66 7.35
8722 112.8148 56.00 60.74 7.48
8723 112.8266 67.00 60.82 8.19
8724 112.8384 67.00 60.90 8.19
8725 112.8502 73.00 60.98 8.54
8726 112.8620 61.00 61.05 7.81
8727 112.8738 55.00 61.13 7.42
8728 112.8856 73.00 61.20 8.54
8729 112.8973 57.00 61.27 7.55
8730 112.9092 61.00 61.35 7.81
8731 112.9210 66.00 61.42 8.12
8732 112.9327 65.00 61.49 8.06
8733 112.9445 62.00 61.55 7.87
8734 112.9563 64.00 61.62 8.00
8735 112.9681 75.00 61.68 8.66
8736 112.9799 65.00 61.75 8.06
8737 112.9917 62.00 61.81 7.87
8738 113.0035 52.00 61.87 7.21
8739 113.0152 48.00 61.92 6.93
8740 113.0270 47.00 61.98 6.86
8741 113.0389 72.00 62.03 8.49
8742 113.0507 74.00 62.09 8.60
8743 113.0624 60.00 62.14 7.75
8744 113.0742 59.00 62.19 7.68
8745 113.0860 61.00 62.24 7.81
8746 113.0978 64.00 62.28 8.00
8747 113.1096 74.00 62.33 8.60
8748 113.1214 62.00 62.38 7.87
8749 113.1332 57.00 62.42 7.55
8750 113.1449 70.00 62.46 8.37
8751 113.1568 78.00 62.50 8.83
8752 113.1686 83.00 62.54 9.11
8753 113.1804 56.00 62.57 7.48
8754 113.1921 66.00 62.61 8.12
8755 113.2039 60.00 62.64 7.75
8756 113.2157 76.00 62.68 8.72
8757 113.2275 50.00 62.71 7.07
8758 113.2393 66.00 62.74 8.12
8759 113.2511 73.00 62.77 8.54
8760 113.2628 59.00 62.80 7.68
8761 113.2746 63.00 62.83 7.94
8762 113.2865 61.00 62.86 7.81
8763 113.2983 68.00 62.89 8.25
8764 113.3100 50.00 62.91 7.07
8765 113.3218 70.00 62.94 8.37
8766 113.3336 89.00 62.97 9.43
8767 113.3454 64.00 62.99 8.00
8768 113.3572 67.00 63.02 8.19
8769 113.3690 73.00 63.04 8.54
8770 113.3808 69.00 63.06 8.31
8771 113.3925 66.00 63.08 8.12
8772 113.4044 66.00 63.11 8.12
8773 113.4162 71.00 63.13 8.43
8774 113.4279 52.00 63.15 7.21
8775 113.4397 72.00 63.17 8.49
8776 113.4515 67.00 63.19 8.19
8777 113.4633 78.00 63.21 8.83
8778 113.4751 58.00 63.22 7.62
8779 113.4869 63.00 63.24 7.94
8780 113.4987 74.00 63.25 8.60
8781 113.5104 70.00 63.27 8.37
8782 113.5222 63.00 63.28 7.94
8783 113.5341 67.00 63.29 8.19
8784 113.5459 63.00 63.31 7.94
8785 113.5576 67.00 63.32 8.19
8786 113.5694 75.00 63.33 8.66
8787 113.5812 77.00 63.33 8.77
8788 113.5930 59.00 63.34 7.68
8789 113.6048 65.00 63.34 8.06
8790 113.6166 56.00 63.35 7.48
8791 113.6284 69.00 63.35 8.31
8792 113.6401 58.00 63.35 7.62
8793 113.6520 60.00 63.35 7.75
8794 113.6638 67.00 63.35 8.19
8795 113.6755 55.00 63.35 7.42
8796 113.6873 61.00 63.34 7.81
8797 113.6991 58.00 63.34 7.62
8798 113.7109 69.00 63.33 8.31
8799 113.7227 67.00 63.32 8.19
8800 113.7345 76.00 63.31 8.72
8801 113.7463 81.00 63.30 9.00
8802 113.7580 71.00 63.28 8.43
8803 113.7698 61.00 63.27 7.81
8804 113.7817 66.00 63.25 8.12
8805 113.7934 52.00 63.23 7.21
8806 113.8052 67.00 63.21 8.19
8807 113.8170 65.00 63.19 8.06
8808 113.8288 71.00 63.17 8.43
8809 113.8406 67.00 63.14 8.19
8810 113.8524 73.00 63.12 8.54
8811 113.8642 71.00 63.09 8.43
8812 113.8760 73.00 63.06 8.54
8813 113.8877 58.00 63.03 7.62
8814 113.8996 69.00 63.00 8.31
8815 113.9114 68.00 62.97 8.25
8816 113.9231 62.00 62.93 7.87
8817 113.9349 72.00 62.90 8.49
8818 113.9467 61.00 62.86 7.81
8819 113.9585 76.00 62.82 8.72
8820 113.9703 70.00 62.78 8.37
8821 113.9821 75.00 62.74 8.66
8822 113.9939 68.00 62.70 8.25
8823 114.0056 64.00 62.66 8.00
8824 114.0174 60.00 62.61 7.75
8825 114.0293 64.00 62.57 8.00
8826 114.0410 70.00 62.52 8.37
8827 114.0528 71.00 62.47 8.43
8828 114.0646 63.00 62.42 7.94
8829 114.0764 75.00 62.37 8.66
8830 114.0882 52.00 62.32 7.21
8831 114.1000 72.00 62.27 8.49
8832 114.1118 61.00 62.21 7.81
8833 114.1236 66.00 62.16 8.12
8834 114.1353 62.00 62.10 7.87
8835 114.1471 49.00 62.05 7.00
8836 114.1590 71.00 61.99 8.43
8837 114.1707 68.00 61.93 8.25
8838 114.1825 68.00 61.88 8.25
8839 114.1943 64.00 61.82 8.00
8840 114.2060 62.00 61.76 7.87
8841 114.2179 79.00 61.70 8.89
8842 114.2297 70.00 61.64 8.37
8843 114.2415 66.00 61.59 8.12
8844 114.2532 63.00 61.53 7.94
8845 114.2650 61.00 61.47 7.81
8846 114.2769 60.00 61.41 7.75
8847 114.2887 61.00 61.35 7.81
8848 114.3004 53.00 61.29 7.28
8849 114.3122 66.00 61.23 8.12
8850 114.3240 61.00 61.17 7.81
8851 114.3358 56.00 61.11 7.48
8852 114.3476 67.00 61.05 8.19
8853 114.3594 72.00 60.99 8.49
8854 114.3711 63.00 60.93 7.94
8855 114.3829 54.00 60.88 7.35
8856 114.3947 47.00 60.82 6.86
8857 114.4066 66.00 60.77 8.12
8858 114.4183 65.00 60.71 8.06
8859 114.4301 62.00 60.66 7.87
8860 114.4419 60.00 60.61 7.75
8861 114.4536 56.00 60.56 7.48
8862 114.4655 66.00 60.51 8.12
8863 114.4773 61.00 60.47 7.81
8864 114.4891 69.00 60.42 8.31
8865 114.5008 84.00 60.38 9.17
8866 114.5126 49.00 60.34 7.00
8867 114.5245 65.00 60.29 8.06
8868 114.5362 58.00 60.25 7.62
8869 114.5480 62.00 60.21 7.87
8870 114.5598 64.00 60.18 8.00
8871 114.5716 59.00 60.14 7.68
8872 114.5834 64.00 60.11 8.00
8873 114.5952 64.00 60.07 8.00
8874 114.6070 65.00 60.04 8.06
8875 114.6187 61.00 60.01 7.81
8876 114.6305 69.00 59.98 8.31
8877 114.6423 58.00 59.95 7.62
8878 114.6542 60.00 59.93 7.75
8879 114.6659 77.00 59.90 8.77
8880 114.6777 60.00 59.87 7.75
8881 114.6895 70.00 59.85 8.37
8882 114.7012 69.00 59.83 8.31
8883 114.7131 57.00 59.81 7.55
8884 114.7249 61.00 59.79 7.81
8885 114.7366 67.00 59.77 8.19
8886 114.7484 55.00 59.75 7.42
8887 114.7602 58.00 59.73 7.62
8888 114.7721 62.00 59.72 7.87
8889 114.7838 66.00 59.70 8.12
8890 114.7956 57.00 59.69 7.55
8891 114.8074 59.00 59.67 7.68
8892 114.8192 61.00 59.66 7.81
8893 114.8310 61.00 59.65 7.81
8894 114.8428 54.00 59.64 7.35
8895 114.8546 59.00 59.63 7.68
8896 114.8663 57.00 59.63 7.55
8897 114.8781 55.00 59.62 7.42
8898 114.8899 54.00 59.62 7.35
8899 114.9017 54.00 59.61 7.35
8900 114.9135 59.00 59.61 7.68
8901 114.9253 69.00 59.61 8.31
8902 114.9371 65.00 59.61 8.06
8903 114.9488 52.00 59.61 7.21
8904 114.9607 64.00 59.61 8.00
8905 114.9725 62.00 59.62 7.87
8906 114.9842 51.00 59.62 7.14
8907 114.9960 58.00 59.63 7.62
8908 115.0078 48.00 59.64 6.93
8909 115.0197 67.00 59.65 8.19
8910 115.0314 55.00 59.66 7.42
8911 115.0432 58.00 59.67 7.62
8912 115.0550 60.00 59.68 7.75
8913 115.0667 63.00 59.70 7.94
8914 115.0786 57.00 59.72 7.55
8915 115.0904 49.00 59.73 7.00
8916 115.1022 60.00 59.75 7.75
8917 115.1139 59.00 59.77 7.68
8918 115.1257 60.00 59.79 7.75
8919 115.1375 54.00 59.82 7.35
8920 115.1493 63.00 59.84 7.94
8921 115.1611 63.00 59.87 7.94
8922 115.1729 62.00 59.89 7.87
8923 115.1846 63.00 59.92 7.94
8924 115.1964 64.00 59.95 8.00
8925 115.2083 56.00 59.98 7.48
8926 115.2201 56.00 60.01 7.48
8927 115.2318 61.00 60.05 7.81
8928 115.2436 57.00 60.08 7.55
8929 115.2554 53.00 60.11 7.28
8930 115.2673 63.00 60.15 7.94
8931 115.2790 77.00 60.19 8.77
8932 115.2908 54.00 60.22 7.35
8933 115.3026 48.00 60.26 6.93
8934 115.3143 66.00 60.30 8.12
8935 115.3262 63.00 60.34 7.94
8936 115.3380 61.00 60.38 7.81
8937 115.3497 56.00 60.43 7.48
8938 115.3615 66.00 60.47 8.12
8939 115.3733 70.00 60.51 8.37
8940 115.3851 69.00 60.55 8.31
8941 115.3969 55.00 60.60 7.42
8942 115.4087 67.00 60.64 8.19
8943 115.4205 72.00 60.69 8.49
8944 115.4322 59.00 60.74 7.68
8945 115.4440 61.00 60.78 7.81
8946 115.4559 69.00 60.83 8.31
8947 115.4677 72.00 60.88 8.49
8948 115.4794 61.00 60.93 7.81
8949 115.4912 56.00 60.98 7.48
8950 115.5030 48.00 61.03 6.93
8951 115.5148 67.00 61.08 8.19
8952 115.5266 75.00 61.13 8.66
8953 115.5384 83.00 61.17 9.11
8954 115.5501 62.00 61.22 7.87
8955 115.5619 68.00 61.27 8.25
8956 115.5737 57.00 61.32 7.55
8957 115.5856 82.00 61.37 9.06
8958 115.5973 56.00 61.42 7.48
8959 115.6091 74.00 61.47 8.60
8960 115.6209 62.00 61.52 7.87
8961 115.6327 62.00 61.57 7.87
8962 115.6445 66.00 61.62 8.12
8963 115.6563 59.00 61.67 7.68
8964 115.6681 63.00 61.72 7.94
8965 115.6798 58.00 61.77 7.62
8966 115.6916 60.00 61.82 7.75
8967 115.7035 69.00 61.87 8.31
8968 115.7152 55.00 61.91 7.42
8969 115.7270 54.00 61.96 7.35
8970 115.7388 76.00 62.01 8.72
8971 115.7506 66.00 62.05 8.12
8972 115.7624 62.00 62.10 7.87
8973 115.7742 53.00 62.15 7.28
8974 115.7860 55.00 62.19 7.42
8975 115.7977 61.00 62.23 7.81
8976 115.8095 77.00 62.28 8.77
8977 115.8213 56.00 62.32 7.48
8978 115.8332 79.00 62.36 8.89
8979 115.8449 47.00 62.40 6.86
8980 115.8567 58.00 62.44 7.62
8981 115.8685 69.00 62.48 8.31
8982 115.8802 53.00 62.51 7.28
8983 115.8921 52.00 62.55 7.21
8984 115.9039 74.00 62.58 8.60
8985 115.9156 73.00 62.62 8.54
8986 115.9274 72.00 62.65 8.49
8987 115.9392 61.00 62.68 7.81
8988 115.9511 57.00 62.71 7.55
8989 115.9628 65.00 62.73 8.06
8990 115.9746 59.00 62.76 7.68
8991 115.9864 61.00 62.78 7.81
8992 115.9982 72.00 62.80 8.49
8993 116.0100 71.00 62.82 8.43
8994 116.0218 70.00 62.84 8.37
8995 116.0336 65.00 62.85 8.06
8996 116.0453 73.00 62.87 8.54
8997 116.0571 71.00 62.88 8.43
8998 116.0689 66.00 62.89 8.12
8999 116.0807 75.00 62.90 8.66
9000 116.0925 57.00 62.91 7.55
9001 116.1043 75.00 62.91 8.66
9002 116.1161 67.00 62.91 8.19
9003 116.1278 74.00 62.91 8.60
9004 116.1397 70.00 62.91 8.37
9005 116.1515 64.00 62.91 8.00
9006 116.1632 75.00 62.90 8.66
9007 116.1750 59.00 62.89 7.68
9008 116.1868 59.00 62.88 7.68
9009 116.1987 73.00 62.87 8.54
9010 116.2104 77.00 62.85 8.77
9011 116.2222 78.00 62.84 8.83
9012 116.2340 64.00 62.82 8.00
9013 116.2457 49.00 62.80 7.00
9014 116.2576 70.00 62.78 8.37
9015 116.2694 69.00 62.76 8.31
9016 116.2812 69.00 62.74 8.31
9017 116.2929 64.00 62.71 8.00
9018 116.3047 68.00 62.69 8.25
9019 116.3165 71.00 62.66 8.43
9020 116.3283 60.00 62.64 7.75
9021 116.3401 76.00 62.61 8.72
9022 116.3519 69.00 62.58 8.31
9023 116.3636 74.00 62.55 8.60
9024 116.3754 49.00 62.52 7.00
9025 116.3873 74.00 62.49 8.60
9026 116.3991 78.00 62.46 8.83
9027 116.4108 74.00 62.43 8.60
9028 116.4226 67.00 62.39 8.19
9029 116.4344 57.00 62.36 7.55
9030 116.4462 58.00 62.33 7.62
9031 116.4580 64.00 62.29 8.00
9032 116.4698 68.00 62.26 8.25
9033 116.4816 82.00 62.23 9.06
9034 116.4933 77.00 62.19 8.77
9035 116.5052 71.00 62.16 8.43
9036 116.5170 57.00 62.12 7.55
9037 116.5287 66.00 62.10 8.12
9038 116.5405 54.00 62.06 7.35
9039 116.5523 64.00 62.03 8.00
9040 116.5640 73.00 61.99 8.54
9041 116.5759 59.00 61.95 7.68
9042 116.5877 64.00 61.92 8.00
9043 116.5995 75.00 61.88 8.66
9044 116.6112 70.00 61.85 8.37
9045 116.6230 85.00 61.81 9.22
9046 116.6349 68.00 61.78 8.25
9047 116.6467 69.00 61.74 8.31
9048 116.6584 77.00 61.70 8.77
9049 116.6702 56.00 61.67 7.48
9050 116.6820 71.00 61.63 8.43
9051 116.6938 60.00 61.59 7.75
9052 116.7056 74.00 61.56 8.60
9053 116.7174 62.00 61.52 7.87
9054 116.7291 59.00 61.48 7.68
9055 116.7409 71.00 61.45 8.43
9056 116.7527 68.00 61.41 8.25
9057 116.7645 53.00 61.37 7.28
9058 116.7763 72.00 61.33 8.49
9059 116.7881 69.00 61.30 8.31
9060 116.7999 67.00 61.26 8.19
9061 116.8116 54.00 61.22 7.35
9062 116.8235 64.00 61.18 8.00
9063 116.8353 73.00 61.15 8.54
9064 116.8471 49.00 61.11 7.00
9065 116.8588 49.00 61.07 7.00
9066 116.8706 57.00 61.03 7.55
9067 116.8825 57.00 60.99 7.55
9068 116.8942 52.00 60.96 7.21
9069 116.9060 55.00 60.92 7.42
9070 116.9178 54.00 60.88 7.35
9071 116.9296 69.00 60.85 8.31
9072 116.9414 51.00 60.81 7.14
9073 116.9532 64.00 60.77 8.00
9074 116.9650 58.00 60.74 7.62
9075 116.9767 77.00 60.70 8.77
9076 116.9885 60.00 60.68 7.75
9077 117.0003 52.00 60.65 7.21
9078 117.0121 70.00 60.61 8.37
9079 117.0239 66.00 60.58 8.12
9080 117.0357 56.00 60.54 7.48
9081 117.0475 59.00 60.51 7.68
9082 117.0592 65.00 60.48 8.06
9083 117.0711 55.00 60.45 7.42
9084 117.0829 59.00 60.41 7.68
9085 117.0946 77.00 60.38 8.77
9086 117.1064 65.00 60.35 8.06
9087 117.1182 57.00 60.32 7.55
9088 117.1301 64.00 60.29 8.00
9089 117.1418 68.00 60.25 8.25
9090 117.1536 55.00 60.22 7.42
9091 117.1654 49.00 60.19 7.00
9092 117.1771 63.00 60.16 7.94
9093 117.1890 59.00 60.13 7.68
9094 117.2008 57.00 60.10 7.55
9095 117.2125 74.00 60.07 8.60
9096 117.2243 72.00 60.04 8.49
9097 117.2361 52.00 60.01 7.21
9098 117.2479 68.00 59.99 8.25
9099 117.2597 58.00 59.96 7.62
9100 117.2715 67.00 59.93 8.19
9101 117.2833 67.00 59.90 8.19
9102 117.2950 54.00 59.87 7.35
9103 117.3068 56.00 59.84 7.48
9104 117.3187 62.00 59.81 7.87
9105 117.3304 58.00 59.79 7.62
9106 117.3422 45.00 59.76 6.71
9107 117.3540 53.00 59.73 7.28
9108 117.3658 52.00 59.71 7.21
9109 117.3776 62.00 59.68 7.87
9110 117.3894 73.00 59.65 8.54
9111 117.4012 71.00 59.63 8.43
9112 117.4129 81.00 59.61 9.00
9113 117.4247 66.00 59.58 8.12
9114 117.4366 64.00 59.56 8.00
9115 117.4484 64.00 59.54 8.00
9116 117.4601 60.00 59.51 7.75
9117 117.4719 65.00 59.49 8.06
9118 117.4837 63.00 59.47 7.94
9119 117.4954 59.00 59.45 7.68
9120 117.5073 60.00 59.44 7.75
9121 117.5191 63.00 59.42 7.94
9122 117.5309 47.00 59.40 6.86
9123 117.5426 57.00 59.39 7.55
9124 117.5544 46.00 59.37 6.78
9125 117.5663 64.00 59.36 8.00
9126 117.5780 62.00 59.35 7.87
9127 117.5898 53.00 59.33 7.28
9128 117.6016 41.00 59.32 6.40
9129 117.6133 59.00 59.31 7.68
9130 117.6252 70.00 59.30 8.37
9131 117.6370 48.00 59.30 6.93
9132 117.6488 55.00 59.29 7.42
9133 117.6605 57.00 59.28 7.55
9134 117.6723 70.00 59.28 8.37
9135 117.6842 55.00 59.27 7.42
9136 117.6959 55.00 59.27 7.42
9137 117.7077 55.00 59.26 7.42
9138 117.7195 64.00 59.26 8.00
9139 117.7313 68.00 59.25 8.25
9140 117.7430 64.00 59.25 8.00
9141 117.7549 63.00 59.25 7.94
9142 117.7667 57.00 59.25 7.55
9143 117.7784 64.00 59.25 8.00
9144 117.7902 48.00 59.25 6.93
9145 117.8020 67.00 59.24 8.19
9146 117.8139 58.00 59.24 7.62
9147 117.8256 69.00 59.24 8.31
9148 117.8374 48.00 59.24 6.93
9149 117.8492 50.00 59.24 7.07
9150 117.8609 58.00 59.24 7.62
9151 117.8728 52.00 59.24 7.21
9152 117.8846 61.00 59.24 7.81
9153 117.8963 85.00 59.24 9.22
9154 117.9081 57.00 59.24 7.55
9155 117.9199 57.00 59.24 7.55
9156 117.9317 51.00 59.23 7.14
9157 117.9435 40.00 59.23 6.32
9158 117.9553 69.00 59.23 8.31
9159 117.9671 63.00 59.23 7.94
9160 117.9788 66.00 59.23 8.12
9161 117.9906 56.00 59.22 7.48
9162 118.0025 67.00 59.22 8.19
9163 118.0142 56.00 59.22 7.48
9164 118.0260 63.00 59.22 7.94
9165 118.0378 50.00 59.22 7.07
9166 118.0496 57.00 59.22 7.55
9167 118.0614 52.00 59.21 7.21
9168 118.0732 64.00 59.21 8.00
9169 118.0850 67.00 59.21 8.19
9170 118.0967 63.00 59.21 7.94
9171 118.1085 54.00 59.21 7.35
9172 118.1204 71.00 59.21 8.43
9173 118.1322 61.00 59.21 7.81
9174 118.1439 58.00 59.21 7.62
9175 118.1557 54.00 59.22 7.35
9176 118.1675 69.00 59.22 8.31
9177 118.1792 49.00 59.22 7.00
9178 118.1911 66.00 59.23 8.12
9179 118.2029 63.00 59.23 7.94
9180 118.2147 51.00 59.24 7.14
9181 118.2264 60.00 59.24 7.75
9182 118.2382 41.00 59.25 6.40
9183 118.2501 56.00 59.26 7.48
9184 118.2618 68.00 59.27 8.25
9185 118.2736 54.00 59.28 7.35
9186 118.2854 52.00 59.29 7.21
9187 118.2971 52.00 59.30 7.21
9188 118.3090 52.00 59.31 7.21
9189 118.3208 47.00 59.33 6.86
9190 118.3326 63.00 59.34 7.94
9191 118.3443 63.00 59.36 7.94
9192 118.3561 54.00 59.38 7.35
9193 118.3680 57.00 59.40 7.55
9194 118.3797 63.00 59.42 7.94
9195 118.3915 62.00 59.44 7.87
9196 118.4033 71.00 59.46 8.43
9197 118.4150 52.00 59.50 7.21
9198 118.4268 55.00 59.53 7.42
9199 118.4387 59.00 59.56 7.68
9200 118.4505 52.00 59.58 7.21
9201 118.4622 55.00 59.61 7.42
9202 118.4740 65.00 59.64 8.06
9203 118.4858 58.00 59.67 7.62
9204 118.4976 72.00 59.71 8.49
9205 118.5094 45.00 59.74 6.71
9206 118.5212 50.00 59.78 7.07
9207 118.5330 56.00 59.81 7.48
9208 118.5447 63.00 59.85 7.94
9209 118.5566 68.00 59.89 8.25
9210 118.5684 64.00 59.93 8.00
9211 118.5801 66.00 59.97 8.12
9212 118.5919 59.00 60.01 7.68
9213 118.6037 60.00 60.06 7.75
9214 118.6155 65.00 60.10 8.06
9215 118.6273 60.00 60.15 7.75
9216 118.6391 43.00 60.20 6.56
9217 118.6509 63.00 60.24 7.94
9218 118.6626 71.00 60.29 8.43
9219 118.6744 63.00 60.34 7.94
9220 118.6863 77.00 60.39 8.77
9221 118.6980 42.00 60.44 6.48
9222 118.7098 53.00 60.49 7.28
9223 118.7216 46.00 60.54 6.78
9224 118.7334 70.00 60.60 8.37
9225 118.7452 52.00 60.65 7.21
9226 118.7570 60.00 60.70 7.75
9227 118.7688 61.00 60.75 7.81
9228 118.7805 67.00 60.81 8.19
9229 118.7923 59.00 60.86 7.68
9230 118.8042 66.00 60.91 8.12
9231 118.8159 59.00 60.97 7.68
9232 118.8277 56.00 61.02 7.48
9233 118.8395 73.00 61.07 8.54
9234 118.8513 62.00 61.12 7.87
9235 118.8631 50.00 61.18 7.07
9236 118.8749 67.00 61.23 8.19
9237 118.8867 62.00 61.28 7.87
9238 118.8984 53.00 61.33 7.28
9239 118.9102 64.00 61.37 8.00
9240 118.9220 52.00 61.42 7.21
9241 118.9339 79.00 61.47 8.89
9242 118.9456 57.00 61.51 7.55
9243 118.9574 52.00 61.56 7.21
9244 118.9692 51.00 61.60 7.14
9245 118.9809 56.00 61.65 7.48
9246 118.9928 45.00 61.69 6.71
9247 119.0046 44.00 61.73 6.63
9248 119.0163 65.00 61.77 8.06
9249 119.0281 54.00 61.81 7.35
9250 119.0399 68.00 61.84 8.25
9251 119.0518 71.00 61.88 8.43
9252 119.0635 63.00 61.91 7.94
9253 119.0753 51.00 61.95 7.14
9254 119.0871 58.00 61.98 7.62
9255 119.0988 58.00 62.01 7.62
9256 119.1106 69.00 62.05 8.31
9257 119.1225 64.00 62.08 8.00
9258 119.1342 57.00 62.11 7.55
9259 119.1460 61.00 62.14 7.81
9260 119.1578 61.00 62.16 7.81
9261 119.1696 60.00 62.19 7.75
9262 119.1814 70.00 62.22 8.37
9263 119.1932 70.00 62.25 8.37
9264 119.2050 64.00 62.27 8.00
9265 119.2167 62.00 62.30 7.87
9266 119.2285 46.00 62.33 6.78
9267 119.2404 62.00 62.35 7.87
9268 119.2522 63.00 62.38 7.94
9269 119.2639 66.00 62.40 8.12
9270 119.2757 72.00 62.43 8.49
9271 119.2875 59.00 62.46 7.68
9272 119.2993 61.00 62.48 7.81
9273 119.3111 61.00 62.51 7.81
9274 119.3229 68.00 62.54 8.25
9275 119.3346 62.00 62.57 7.87
9276 119.3464 57.00 62.59 7.55
9277 119.3582 68.00 62.62 8.25
9278 119.3701 58.00 62.65 7.62
9279 119.3818 69.00 62.68 8.31
9280 119.3936 56.00 62.71 7.48
9281 119.4054 65.00 62.74 8.06
9282 119.4171 68.00 62.77 8.25
9283 119.4290 63.00 62.81 7.94
9284 119.4408 68.00 62.84 8.25
9285 119.4526 59.00 62.87 7.68
9286 119.4643 64.00 62.91 8.00
9287 119.4761 61.00 62.94 7.81
9288 119.4880 63.00 62.98 7.94
9289 119.4997 75.00 63.02 8.66
9290 119.5115 67.00 63.06 8.19
9291 119.5233 67.00 63.09 8.19
9292 119.5350 60.00 63.13 7.75
9293 119.5469 60.00 63.17 7.75
9294 119.5587 76.00 63.21 8.72
9295 119.5705 62.00 63.25 7.87
9296 119.5822 62.00 63.30 7.87
9297 119.5940 77.00 63.34 8.77
9298 119.6058 58.00 63.38 7.62
9299 119.6176 62.00 63.43 7.87
9300 119.6294 67.00 63.47 8.19
9301 119.6412 61.00 63.52 7.81
9302 119.6529 61.00 63.56 7.81
9303 119.6647 69.00 63.61 8.31
9304 119.6766 62.00 63.66 7.87
9305 119.6884 54.00 63.71 7.35
9306 119.7001 53.00 63.76 7.28
9307 119.7119 59.00 63.81 7.68
9308 119.7237 72.00 63.86 8.49
9309 119.7355 64.00 63.92 8.00
9310 119.7473 72.00 63.97 8.49
9311 119.7591 65.00 64.02 8.06
9312 119.7709 69.00 64.07 8.31
9313 119.7826 57.00 64.13 7.55
9314 119.7945 68.00 64.19 8.25
9315 119.8063 71.00 64.24 8.43
9316 119.8180 66.00 64.30 8.12
9317 119.8298 65.00 64.35 8.06
9318 119.8416 54.00 64.41 7.35
9319 119.8533 61.00 64.47 7.81
9320 119.8652 48.00 64.53 6.93
9321 119.8770 70.00 64.59 8.37
9322 119.8888 68.00 64.65 8.25
9323 119.9005 59.00 64.71 7.68
9324 119.9123 85.00 64.77 9.22
9325 119.9242 82.00 64.83 9.06
9326 119.9359 65.00 64.90 8.06
9327 119.9477 77.00 64.96 8.77
9328 119.9595 70.00 65.02 8.37
9329 119.9712 61.00 65.09 7.81
9330 119.9831 63.00 65.15 7.94
9331 119.9949 70.00 65.21 8.37
9332 120.0067 52.00 65.28 7.21
9333 120.0184 66.00 65.35 8.12
9334 120.0302 61.00 65.41 7.81
9335 120.0421 73.00 65.48 8.54
9336 120.0538 71.00 65.55 8.43
9337 120.0656 61.00 65.62 7.81
9338 120.0774 67.00 65.69 8.19
9339 120.0891 70.00 65.76 8.37
9340 120.1009 53.00 65.83 7.28
9341 120.1128 63.00 65.90 7.94
9342 120.1246 58.00 65.97 7.62
9343 120.1363 64.00 66.04 8.00
9344 120.1481 67.00 66.12 8.19
9345 120.1599 63.00 66.19 7.94
9346 120.1717 62.00 66.26 7.87
9347 120.1835 49.00 66.34 7.00
9348 120.1953 60.00 66.41 7.75
9349 120.2071 72.00 66.48 8.49
9350 120.2188 57.00 66.56 7.55
9351 120.2307 74.00 66.63 8.60
9352 120.2425 63.00 66.71 7.94
9353 120.2542 58.00 66.78 7.62
9354 120.2660 73.00 66.86 8.54
9355 120.2778 76.00 66.93 8.72
9356 120.2896 62.00 67.01 7.87
9357 120.3014 62.00 67.09 7.87
9358 120.3132 71.00 67.16 8.43
9359 120.3250 62.00 67.24 7.87
9360 120.3367 77.00 67.32 8.77
9361 120.3485 58.00 67.39 7.62
9362 120.3604 57.00 67.47 7.55
9363 120.3721 72.00 67.55 8.49
9364 120.3839 59.00 67.62 7.68
9365 120.3957 83.00 67.70 9.11
9366 120.4074 61.00 67.78 7.81
9367 120.4193 64.00 67.86 8.00
9368 120.4311 69.00 67.93 8.31
9369 120.4429 54.00 68.01 7.35
9370 120.4546 63.00 68.08 7.94
9371 120.4664 56.00 68.16 7.48
9372 120.4783 56.00 68.24 7.48
9373 120.4900 72.00 68.31 8.49
9374 120.5018 65.00 68.39 8.06
9375 120.5136 53.00 68.46 7.28
9376 120.5254 74.00 68.54 8.60
9377 120.5371 72.00 68.61 8.49
9378 120.5490 89.00 68.68 9.43
9379 120.5608 72.00 68.75 8.49
9380 120.5725 63.00 68.82 7.94
9381 120.5843 62.00 68.90 7.87
9382 120.5961 74.00 68.97 8.60
9383 120.6079 59.00 69.04 7.68
9384 120.6197 68.00 69.11 8.25
9385 120.6315 95.00 69.18 9.75
9386 120.6432 70.00 69.24 8.37
9387 120.6550 67.00 69.31 8.19
9388 120.6669 51.00 69.38 7.14
9389 120.6787 70.00 69.44 8.37
9390 120.6904 77.00 69.50 8.77
9391 120.7022 72.00 69.58 8.49
9392 120.7140 73.00 69.64 8.54
9393 120.7258 60.00 69.71 7.75
9394 120.7376 74.00 69.77 8.60
9395 120.7494 70.00 69.83 8.37
9396 120.7611 74.00 69.89 8.60
9397 120.7729 70.00 69.94 8.37
9398 120.7847 65.00 70.00 8.06
9399 120.7966 70.00 70.06 8.37
9400 120.8083 67.00 70.11 8.19
9401 120.8201 67.00 70.17 8.19
9402 120.8319 68.00 70.22 8.25
9403 120.8436 72.00 70.27 8.49
9404 120.8555 67.00 70.32 8.19
9405 120.8673 73.00 70.37 8.54
9406 120.8791 57.00 70.42 7.55
9407 120.8908 81.00 70.47 9.00
9408 120.9026 82.00 70.51 9.06
9409 120.9145 75.00 70.56 8.66
9410 120.9262 84.00 70.60 9.17
9411 120.9380 68.00 70.64 8.25
9412 120.9498 60.00 70.68 7.75
9413 120.9615 74.00 70.72 8.60
9414 120.9734 78.00 70.76 8.83
9415 120.9852 76.00 70.80 8.72
9416 120.9970 71.00 70.83 8.43
9417 121.0087 66.00 70.87 8.12
9418 121.0205 70.00 70.90 8.37
9419 121.0323 61.00 70.93 7.81
9420 121.0441 71.00 70.96 8.43
9421 121.0559 62.00 70.99 7.87
9422 121.0677 66.00 71.01 8.12
9423 121.0794 74.00 71.04 8.60
9424 121.0912 76.00 71.06 8.72
9425 121.1031 78.00 71.09 8.83
9426 121.1149 81.00 71.11 9.00
9427 121.1266 76.00 71.12 8.72
9428 121.1384 77.00 71.14 8.77
9429 121.1502 73.00 71.16 8.54
9430 121.1620 81.00 71.17 9.00
9431 121.1738 63.00 71.18 7.94
9432 121.1856 64.00 71.19 8.00
9433 121.1973 72.00 71.20 8.49
9434 121.2091 73.00 71.20 8.54
9435 121.2210 64.00 71.21 8.00
9436 121.2328 72.00 71.21 8.49
9437 121.2445 65.00 71.20 8.06
9438 121.2563 62.00 71.20 7.87
9439 121.2681 89.00 71.19 9.43
9440 121.2798 70.00 71.19 8.37
9441 121.2917 80.00 71.18 8.94
9442 121.3035 72.00 71.16 8.49
9443 121.3153 83.00 71.15 9.11
9444 121.3270 77.00 71.13 8.77
9445 121.3388 70.00 71.10 8.37
9446 121.3507 96.00 71.08 9.80
9447 121.3624 66.00 71.05 8.12
9448 121.3742 64.00 71.02 8.00
9449 121.3860 73.00 70.99 8.54
9450 121.3977 63.00 70.95 7.94
9451 121.4096 67.00 70.91 8.19
9452 121.4214 70.00 70.88 8.37
9453 121.4332 61.00 70.84 7.81
9454 121.4449 71.00 70.79 8.43
9455 121.4567 71.00 70.74 8.43
9456 121.4685 66.00 70.69 8.12
9457 121.4803 74.00 70.64 8.60
9458 121.4921 68.00 70.58 8.25
9459 121.5039 72.00 70.53 8.49
9460 121.5156 78.00 70.47 8.83
9461 121.5274 65.00 70.41 8.06
9462 121.5393 78.00 70.34 8.83
9463 121.5510 65.00 70.28 8.06
9464 121.5628 72.00 70.22 8.49
9465 121.5746 86.00 70.15 9.27
9466 121.5864 52.00 70.09 7.21
9467 121.5982 67.00 70.02 8.19
9468 121.6100 70.00 69.95 8.37
9469 121.6218 61.00 69.88 7.81
9470 121.6335 63.00 69.82 7.94
9471 121.6453 74.00 69.75 8.60
9472 121.6572 54.00 69.68 7.35
9473 121.6690 64.00 69.61 8.00
9474 121.6807 58.00 69.54 7.62
9475 121.6925 67.00 69.47 8.19
9476 121.7043 75.00 69.40 8.66
9477 121.7160 77.00 69.34 8.77
9478 121.7279 61.00 69.27 7.81
9479 121.7397 66.00 69.20 8.12
9480 121.7514 64.00 69.13 8.00
9481 121.7632 71.00 69.07 8.43
9482 121.7750 79.00 69.00 8.89
9483 121.7869 59.00 68.93 7.68
9484 121.7986 72.00 68.87 8.49
9485 121.8104 67.00 68.81 8.19
9486 121.8222 67.00 68.74 8.19
9487 121.8339 58.00 68.68 7.62
9488 121.8458 64.00 68.61 8.00
9489 121.8576 75.00 68.55 8.66
9490 121.8693 82.00 68.48 9.06
9491 121.8811 60.00 68.42 7.75
9492 121.8929 53.00 68.36 7.28
9493 121.9047 76.00 68.30 8.72
9494 121.9165 86.00 68.24 9.27
9495 121.9283 81.00 68.18 9.00
9496 121.9401 70.00 68.37 8.37
9497 121.9518 80.00 68.31 8.94
9498 121.9636 69.00 68.25 8.31
9499 121.9755 76.00 68.19 8.72
9500 121.9872 60.00 68.13 7.75
9501 121.9990 64.00 68.07 8.00
9502 122.0108 73.00 68.01 8.54
9503 122.0226 56.00 67.95 7.48
9504 122.0344 60.00 67.89 7.75
9505 122.0462 77.00 67.83 8.77
9506 122.0580 63.00 67.78 7.94
9507 122.0697 73.00 67.72 8.54
9508 122.0815 66.00 67.66 8.12
9509 122.0934 69.00 67.60 8.31
9510 122.1051 80.00 67.55 8.94
9511 122.1169 69.00 67.49 8.31
9512 122.1287 58.00 67.44 7.62
9513 122.1405 77.00 67.38 8.77
9514 122.1523 75.00 67.33 8.66
9515 122.1641 56.00 67.27 7.48
9516 122.1759 71.00 67.22 8.43
9517 122.1876 70.00 67.17 8.37
9518 122.1994 65.00 67.11 8.06
9519 122.2112 64.00 67.06 8.00
9520 122.2230 72.00 67.01 8.49
9521 122.2348 67.00 66.96 8.19
9522 122.2466 80.00 66.91 8.94
9523 122.2583 79.00 66.86 8.89
9524 122.2701 67.00 66.81 8.19
9525 122.2820 58.00 66.76 7.62
9526 122.2938 53.00 66.71 7.28
9527 122.3055 65.00 66.66 8.06
9528 122.3173 54.00 66.61 7.35
9529 122.3291 71.00 66.57 8.43
9530 122.3409 70.00 66.52 8.37
9531 122.3527 56.00 66.48 7.48
9532 122.3645 75.00 66.43 8.66
9533 122.3763 59.00 66.39 7.68
9534 122.3880 68.00 66.35 8.25
9535 122.3999 82.00 66.30 9.06
9536 122.4117 66.00 66.26 8.12
9537 122.4234 64.00 66.22 8.00
9538 122.4352 60.00 66.18 7.75
9539 122.4470 67.00 66.14 8.19
9540 122.4587 59.00 66.11 7.68
9541 122.4706 63.00 66.07 7.94
9542 122.4824 62.00 66.03 7.87
9543 122.4942 70.00 66.00 8.37
9544 122.5059 68.00 65.96 8.25
9545 122.5177 61.00 65.93 7.81
9546 122.5296 65.00 65.90 8.06
9547 122.5413 56.00 65.87 7.48
9548 122.5531 66.00 65.84 8.12
9549 122.5649 60.00 65.81 7.75
9550 122.5766 74.00 65.78 8.60
9551 122.5885 57.00 65.75 7.55
9552 122.6003 65.00 65.72 8.06
9553 122.6121 52.00 65.70 7.21
9554 122.6238 57.00 65.68 7.55
9555 122.6356 62.00 65.65 7.87
9556 122.6474 66.00 65.63 8.12
9557 122.6592 67.00 65.61 8.19
9558 122.6710 75.00 65.59 8.66
9559 122.6828 50.00 65.57 7.07
9560 122.6945 63.00 65.55 7.94
9561 122.7063 69.00 65.53 8.31
9562 122.7182 64.00 65.52 8.00
9563 122.7299 71.00 65.51 8.43
9564 122.7417 65.00 65.49 8.06
9565 122.7535 61.00 65.48 7.81
9566 122.7653 64.00 65.47 8.00
9567 122.7771 68.00 65.46 8.25
9568 122.7889 64.00 65.45 8.00
9569 122.8007 63.00 65.45 7.94
9570 122.8124 59.00 65.44 7.68
9571 122.8242 79.00 65.44 8.89
9572 122.8361 68.00 65.43 8.25
9573 122.8478 63.00 65.43 7.94
9574 122.8596 80.00 65.43 8.94
9575 122.8714 86.00 65.43 9.27
9576 122.8832 70.00 65.43 8.37
9577 122.8949 67.00 65.43 8.19
9578 122.9068 80.00 65.44 8.94
9579 122.9186 55.00 65.44 7.42
9580 122.9303 65.00 65.45 8.06
9581 122.9421 65.00 65.45 8.06
9582 122.9539 71.00 65.46 8.43
9583 122.9658 64.00 65.47 8.00
9584 122.9775 69.00 65.48 8.31
9585 122.9893 56.00 65.49 7.48
9586 123.0011 69.00 65.51 8.31
9587 123.0128 73.00 65.52 8.54
9588 123.0247 71.00 65.54 8.43
9589 123.0365 63.00 65.55 7.94
9590 123.0482 51.00 65.57 7.14
9591 123.0600 74.00 65.59 8.60
9592 123.0718 69.00 65.61 8.31
9593 123.0836 62.00 65.63 7.87
9594 123.0954 76.00 65.65 8.72
9595 123.1072 66.00 65.67 8.12
9596 123.1190 62.00 65.69 7.87
9597 123.1307 78.00 65.71 8.83
9598 123.1425 62.00 65.74 7.87
9599 123.1544 66.00 65.76 8.12
9600 123.1661 62.00 65.79 7.87
9601 123.1779 65.00 65.81 8.06
9602 123.1897 84.00 65.84 9.17
9603 123.2014 72.00 65.86 8.49
9604 123.2133 75.00 65.89 8.66
9605 123.2251 65.00 65.91 8.06
9606 123.2369 76.00 65.94 8.72
9607 123.2486 68.00 65.96 8.25
9608 123.2604 60.00 65.99 7.75
9609 123.2723 64.00 66.01 8.00
9610 123.2840 71.00 66.03 8.43
9611 123.2958 64.00 66.05 8.00
9612 123.3076 71.00 66.07 8.43
9613 123.3193 65.00 66.09 8.06
9614 123.3312 70.00 66.10 8.37
9615 123.3430 70.00 66.12 8.37
9616 123.3548 66.00 66.13 8.12
9617 123.3665 60.00 66.14 7.75
9618 123.3783 61.00 66.14 7.81
9619 123.3901 58.00 66.15 7.62
9620 123.4019 64.00 66.15 8.00
9621 123.4137 63.00 66.15 7.94
9622 123.4255 65.00 66.15 8.06
9623 123.4372 51.00 66.14 7.14
9624 123.4490 73.00 66.13 8.54
9625 123.4609 65.00 66.12 8.06
9626 123.4726 68.00 66.11 8.25
9627 123.4844 73.00 66.09 8.54
9628 123.4962 70.00 66.07 8.37
9629 123.5080 66.00 66.05 8.12
9630 123.5198 76.00 66.03 8.72
9631 123.5316 50.00 66.00 7.07
9632 123.5434 61.00 65.97 7.81
9633 123.5551 70.00 65.94 8.37
9634 123.5669 73.00 65.91 8.54
9635 123.5788 59.00 65.87 7.68
9636 123.5905 58.00 65.83 7.62
9637 123.6023 56.00 65.80 7.48
9638 123.6141 75.00 65.76 8.66
9639 123.6259 77.00 65.72 8.77
9640 123.6376 70.00 65.68 8.37
9641 123.6495 68.00 65.64 8.25
9642 123.6613 67.00 65.60 8.19
9643 123.6730 67.00 65.55 8.19
9644 123.6848 66.00 65.51 8.12
9645 123.6966 64.00 65.47 8.00
9646 123.7085 75.00 65.43 8.66
9647 123.7202 76.00 65.39 8.72
9648 123.7320 55.00 65.34 7.42
9649 123.7438 76.00 65.30 8.72
9650 123.7555 64.00 65.26 8.00
9651 123.7674 50.00 65.22 7.07
9652 123.7792 79.00 65.18 8.89
9653 123.7909 57.00 65.14 7.55
9654 123.8027 80.00 65.10 8.94
9655 123.8145 78.00 65.07 8.83
9656 123.8262 64.00 65.03 8.00
9657 123.8381 60.00 65.00 7.75
9658 123.8499 65.00 64.96 8.06
9659 123.8617 76.00 64.93 8.72
9660 123.8734 55.00 64.90 7.42
9661 123.8852 67.00 64.87 8.19
9662 123.8971 61.00 64.84 7.81
9663 123.9088 61.00 64.81 7.81
9664 123.9206 53.00 64.78 7.28
9665 123.9324 62.00 64.75 7.87
9666 123.9441 55.00 64.73 7.42
9667 123.9560 62.00 64.70 7.87
9668 123.9678 62.00 64.68 7.87
9669 123.9796 72.00 64.66 8.49
9670 123.9913 49.00 64.64 7.00
9671 124.0031 67.00 64.62 8.19
9672 124.0150 72.00 64.60 8.49
9673 124.0267 75.00 64.58 8.66
9674 124.0385 65.00 64.56 8.06
9675 124.0503 46.00 64.54 6.78
9676 124.0620 65.00 64.53 8.06
9677 124.0738 71.00 64.51 8.43
9678 124.0857 51.00 64.50 7.14
9679 124.0975 68.00 64.49 8.25
9680 124.1092 56.00 64.47 7.48
9681 124.1210 71.00 64.46 8.43
9682 124.1328 64.00 64.45 8.00
9683 124.1446 72.00 64.44 8.49
9684 124.1564 68.00 64.43 8.25
9685 124.1682 61.00 64.42 7.81
9686 124.1799 67.00 64.42 8.19
9687 124.1917 66.00 64.41 8.12
9688 124.2036 69.00 64.40 8.31
9689 124.2153 80.00 64.40 8.94
9690 124.2271 67.00 64.39 8.19
9691 124.2389 64.00 64.38 8.00
9692 124.2507 61.00 64.38 7.81
9693 124.2625 62.00 64.38 7.87
9694 124.2743 72.00 64.37 8.49
9695 124.2861 78.00 64.37 8.83
9696 124.2978 62.00 64.37 7.87
9697 124.3096 83.00 64.36 9.11
9698 124.3214 60.00 64.36 7.75
9699 124.3332 68.00 64.36 8.25
9700 124.3450 53.00 64.36 7.28
9701 124.3568 56.00 64.36 7.48
9702 124.3685 56.00 64.36 7.48
9703 124.3803 55.00 64.35 7.42
9704 124.3922 60.00 64.35 7.75
9705 124.4040 63.00 64.35 7.94
9706 124.4157 63.00 64.35 7.94
9707 124.4275 66.00 64.35 8.12
9708 124.4393 56.00 64.35 7.48
9709 124.4511 74.00 64.35 8.60
9710 124.4629 69.00 64.35 8.31
9711 124.4747 66.00 64.34 8.12
9712 124.4865 67.00 64.34 8.19
9713 124.4982 62.00 64.34 7.87
9714 124.5101 66.00 64.34 8.12
9715 124.5219 57.00 64.33 7.55
9716 124.5336 46.00 64.33 6.78
9717 124.5454 67.00 64.33 8.19
9718 124.5572 70.00 64.32 8.37
9719 124.5689 68.00 64.32 8.25
9720 124.5808 62.00 64.32 7.87
9721 124.5926 74.00 64.31 8.60
9722 124.6043 68.00 64.30 8.25
9723 124.6161 73.00 64.30 8.54
9724 124.6279 71.00 64.29 8.43
9725 124.6398 72.00 64.28 8.49
9726 124.6515 68.00 64.27 8.25
9727 124.6633 71.00 64.27 8.43
9728 124.6751 74.00 64.26 8.60
9729 124.6868 72.00 64.25 8.49
9730 124.6987 67.00 64.24 8.19
9731 124.7105 60.00 64.22 7.75
9732 124.7222 63.00 64.21 7.94
9733 124.7340 56.00 64.20 7.48
9734 124.7458 69.00 64.19 8.31
9735 124.7577 65.00 64.17 8.06
9736 124.7694 74.00 64.16 8.60
9737 124.7812 64.00 64.14 8.00
9738 124.7930 74.00 64.12 8.60
9739 124.8047 74.00 64.11 8.60
9740 124.8165 59.00 64.09 7.68
9741 124.8284 57.00 64.07 7.55
9742 124.8401 81.00 64.05 9.00
9743 124.8519 74.00 64.03 8.60
9744 124.8637 63.00 64.01 7.94
9745 124.8754 73.00 63.99 8.54
9746 124.8873 70.00 63.97 8.37
9747 124.8991 63.00 63.95 7.94
9748 124.9109 77.00 63.93 8.77
9749 124.9226 57.00 63.90 7.55
9750 124.9344 68.00 63.88 8.25
9751 124.9463 62.00 63.86 7.87
9752 124.9580 81.00 63.83 9.00
9753 124.9698 66.00 63.81 8.12
9754 124.9816 86.00 63.78 9.27
9755 124.9933 75.00 63.76 8.66
9756 125.0051 59.00 63.73 7.68
9757 125.0170 58.00 63.71 7.62
9758 125.0288 71.00 63.68 8.43
9759 125.0405 58.00 63.65 7.62
9760 125.0523 67.00 63.63 8.19
9761 125.0641 64.00 63.60 8.00
9762 125.0759 53.00 63.57 7.28
9763 125.0877 77.00 63.54 8.77
9764 125.0995 76.00 63.51 8.72
9765 125.1112 73.00 63.48 8.54
9766 125.1230 52.00 63.45 7.21
9767 125.1349 58.00 63.42 7.62
9768 125.1467 75.00 63.39 8.66
9769 125.1584 54.00 63.36 7.35
9770 125.1702 63.00 63.33 7.94
9771 125.1820 61.00 63.30 7.81
9772 125.1938 61.00 63.27 7.81
9773 125.2056 56.00 63.23 7.48
9774 125.2174 71.00 63.20 8.43
9775 125.2291 67.00 63.17 8.19
9776 125.2409 64.00 63.13 8.00
9777 125.2527 73.00 63.10 8.54
9778 125.2645 80.00 63.06 8.94
9779 125.2763 52.00 63.03 7.21
9780 125.2881 70.00 62.99 8.37
9781 125.2999 69.00 62.96 8.31
9782 125.3116 61.00 62.92 7.81
9783 125.3235 69.00 62.88 8.31
9784 125.3353 81.00 62.85 9.00
9785 125.3470 47.00 62.81 6.86
9786 125.3588 68.00 62.77 8.25
9787 125.3706 61.00 62.73 7.81
9788 125.3824 67.00 62.69 8.19
9789 125.3942 69.00 62.65 8.31
9790 125.4060 54.00 62.61 7.35
9791 125.4177 57.00 62.57 7.55
9792 125.4295 67.00 62.53 8.19
9793 125.4414 76.00 62.49 8.72
9794 125.4532 62.00 62.45 7.87
9795 125.4649 61.00 62.41 7.81
9796 125.4767 62.00 62.37 7.87
9797 125.4885 49.00 62.33 7.00
9798 125.5002 60.00 62.29 7.75
9799 125.5121 65.00 62.25 8.06
9800 125.5239 67.00 62.21 8.19
9801 125.5356 68.00 62.17 8.25
9802 125.5474 55.00 62.13 7.42
9803 125.5592 71.00 62.09 8.43
9804 125.5711 58.00 62.04 7.62
9805 125.5828 69.00 62.00 8.31
9806 125.5946 56.00 61.96 7.48
9807 125.6064 68.00 61.91 8.25
9808 125.6181 77.00 61.87 8.77
9809 125.6300 63.00 61.83 7.94
9810 125.6418 69.00 61.78 8.31
9811 125.6535 61.00 61.74 7.81
9812 125.6653 71.00 61.69 8.43
9813 125.6771 52.00 61.65 7.21
9814 125.6889 65.00 61.60 8.06
9815 125.7007 57.00 61.56 7.55
9816 125.7125 59.00 61.51 7.68
9817 125.7243 58.00 61.46 7.62
9818 125.7360 70.00 61.41 8.37
9819 125.7478 56.00 61.37 7.48
9820 125.7597 72.00 61.32 8.49
9821 125.7714 70.00 61.27 8.37
9822 125.7832 75.00 61.22 8.66
9823 125.7950 66.00 61.17 8.12
9824 125.8067 53.00 61.12 7.28
9825 125.8186 77.00 61.06 8.77
9826 125.8304 60.00 61.01 7.75
9827 125.8421 59.00 60.96 7.68
9828 125.8539 73.00 60.91 8.54
9829 125.8657 55.00 60.85 7.42
9830 125.8776 65.00 60.80 8.06
9831 125.8893 65.00 60.75 8.06
loop_
_refln_index_h
_refln_index_k
_refln_index_l
_refln_F_squared_calc
_refln_F_squared_meas
_refln_F_squared_sigma
_refln_observed_status
_refln_d_spacing
-2 0 0 8.75 6.41 23.15 < 6.682344
2 0 0 8.75 6.41 15.82 < 6.682344
0 1 0 111.61 106.74 122.67 < 6.533007
0 1 1 13089.03 13319.86 334.43 o 5.107087
-1 1 1 3402.28 3430.34 89.32 o 4.770634
1 1 1 3402.28 3430.34 93.62 o 4.770634
-2 1 0 68607.23 69151.02 1453.06 o 4.671437
2 1 0 68607.21 69150.99 1454.42 o 4.671437
0 0 2 1328.29 1261.12 47.01 o 4.094780
2 1 1 6877.98 6808.64 192.32 o 4.057716
-2 1 1 6877.98 6808.64 185.25 o 4.057716
1 0 2 3066.31 2932.27 196.85 o 3.915138
-1 0 2 3066.30 2932.26 150.88 o 3.915138
-2 0 2 53094.75 54024.44 1197.50 o 3.491413
2 0 2 53094.75 54024.44 1196.41 o 3.491413
0 1 2 18311.38 18612.53 413.71 o 3.469583
-1 1 2 44500.25 44389.22 938.07 o 3.358261
1 1 2 44500.26 44389.21 930.48 o 3.358261
3 1 1 29299.99 29221.79 613.30 o 3.357144
-3 1 1 29300.00 29221.80 613.64 o 3.357144
4 0 0 29926.03 29715.89 622.32 o 3.341172
-4 0 0 29926.03 29715.89 616.38 o 3.341172
0 2 0 19252.72 19517.26 621.41 o 3.266504
-2 1 2 14640.12 14554.07 367.07 o 3.079259
2 1 2 14640.11 14554.06 368.59 o 3.079259
0 2 1 12948.10 13158.21 298.01 o 3.034062
3 0 2 69270.48 68943.51 1498.26 o 3.014731
-3 0 2 69270.45 68943.48 1528.71 o 3.014731
4 1 0 77055.71 76211.18 1629.65 o 2.974712
-4 1 0 77055.71 76211.19 1619.86 o 2.974712
1 2 1 36201.22 36127.57 774.67 o 2.958774
-1 2 1 36201.23 36127.58 774.52 o 2.958774
2 2 0 850.94 853.15 19.30 o 2.934648
-2 2 0 850.94 853.15 19.10 o 2.934648
4 1 1 11908.45 11895.70 292.19 o 2.795977
-4 1 1 11908.44 11895.69 304.78 o 2.795977
-2 2 1 23436.87 23152.64 560.18 o 2.762632
2 2 1 23436.87 23152.64 539.17 o 2.762632
-3 1 2 6176.26 5959.51 157.89 o 2.737334
3 1 2 6176.27 5959.53 147.70 o 2.737334
4 0 2 3866.52 3549.20 336.37 o 2.588742
-4 0 2 3866.51 3549.19 314.28 o 2.588742
0 2 2 216.00 116.02 28.05 o 2.553544
0 1 3 2537.21 2422.04 111.61 o 2.518800
1 2 2 5892.35 5469.27 216.70 o 2.508172
-1 2 2 5892.34 5469.26 221.32 o 2.508172
3 2 1 49.21 45.96 2.56 o 2.507707
-3 2 1 49.21 45.96 1.30 o 2.507707
1 1 3 7742.81 6909.92 278.13 o 2.475224
-1 1 3 7742.83 6909.94 267.07 o 2.475224
4 1 2 8355.03 8238.12 254.08 o 2.406682
-4 1 2 8355.04 8238.13 251.69 o 2.406682
2 2 2 10373.55 10032.01 294.79 o 2.385317
-2 2 2 10373.54 10032.00 292.27 o 2.385317
5 1 1 2830.25 2732.94 93.15 o 2.368192
-5 1 1 2830.27 2732.96 84.71 o 2.368192
2 1 3 1509.64 1397.74 68.58 o 2.356925
-2 1 3 1509.64 1397.74 64.42 o 2.356925
-4 2 0 410.41 341.34 37.12 o 2.335719
4 2 0 410.41 341.34 18.21 o 2.335719
4 2 1 16792.03 16747.92 422.77 o 2.246150
-4 2 1 16792.01 16747.91 385.56 o 2.246150
5 0 2 11060.80 11172.30 268.64 o 2.238273
-5 0 2 11060.81 11172.32 255.87 o 2.238273
-6 0 0 77560.72 79549.64 1882.68 o 2.227448
6 0 0 77560.72 79549.63 1883.15 o 2.227448
-3 2 2 14875.70 15322.11 373.17 o 2.215405
3 2 2 14875.74 15322.15 372.30 o 2.215405
3 1 3 218.63 202.90 9.14 o 2.192602
-3 1 3 218.63 202.90 8.67 o 2.192602
0 3 0 423.90 322.00 35.05 o 2.177669
-5 1 2 6609.17 6455.14 216.91 o 2.117446
5 1 2 6609.14 6455.12 215.46 o 2.117446
6 1 0 3721.20 3693.37 123.86 o 2.108274
-6 1 0 3721.20 3693.37 125.65 o 2.108274
0 3 1 14494.05 14359.04 480.10 o 2.104537
0 2 3 3028.92 3114.29 110.52 o 2.094680
-1 3 1 2532.81 2609.95 122.98 o 2.078919
1 3 1 2532.81 2609.95 103.63 o 2.078919
-2 3 0 329.52 322.22 14.10 o 2.070499
2 3 0 329.52 322.22 14.83 o 2.070499
-1 2 3 3228.14 3162.49 138.64 o 2.069417
1 2 3 3228.13 3162.48 148.77 o 2.069417
0 0 4 832.48 824.53 30.62 o 2.047390
-6 1 1 7695.32 7761.12 222.21 o 2.041705
6 1 1 7695.33 7761.13 208.44 o 2.041705
-4 2 2 3353.42 3325.94 81.39 o 2.028858
4 2 2 3353.44 3325.95 80.95 o 2.028858
1 0 4 37574.65 37525.96 958.19 o 2.023781
-1 0 4 37574.61 37525.93 952.91 o 2.023781
4 1 3 3463.44 3407.55 73.25 o 2.011301
-4 1 3 3463.44 3407.55 87.80 o 2.011301
2 3 1 12049.93 11893.70 296.12 o 2.007339
-2 3 1 12049.92 11893.68 270.73 o 2.007339
5 2 1 24582.67 24329.88 567.86 o 2.005639
-5 2 1 24582.72 24329.93 579.36 o 2.005639
-2 2 3 7248.41 7057.85 183.71 o 1.998780
2 2 3 7248.42 7057.86 165.89 o 1.998780
-2 0 4 4750.89 4815.75 158.75 o 1.957569
2 0 4 4750.88 4815.74 156.35 o 1.957569
-6 0 2 8737.51 8810.96 269.41 o 1.956685
6 0 2 8737.51 8810.96 253.99 o 1.956685
0 1 4 13599.65 13509.30 424.94 o 1.953696
-1 1 4 39125.04 38981.04 1002.26 o 1.933150
1 1 4 39125.11 38981.11 1008.01 o 1.933150
0 3 2 2260.52 2251.05 55.14 o 1.922683
1 3 2 197.53 198.12 4.66 o 1.903090
-1 3 2 197.53 198.12 4.53 o 1.903090
-3 3 1 40181.58 40238.36 944.21 o 1.902887
3 3 1 40181.57 40238.34 907.93 o 1.902887
3 2 3 46757.13 46894.33 1083.43 o 1.895591
-3 2 3 46757.18 46894.37 1071.09 o 1.895591
2 1 4 300.25 284.47 7.75 o 1.875195
-2 1 4 300.25 284.47 9.03 o 1.875195
-6 1 2 15659.87 15348.44 402.04 o 1.874418
6 1 2 15659.85 15348.43 393.27 o 1.874418
3 0 4 1447.40 1356.74 53.69 o 1.860330
-3 0 4 1447.41 1356.75 54.65 o 1.860330
2 3 2 470.04 457.46 16.73 o 1.847721
-2 3 2 470.04 457.47 15.92 o 1.847721
-5 2 2 110.35 108.25 4.57 o 1.846394
5 2 2 110.35 108.25 3.30 o 1.846394
6 2 0 16284.91 16307.65 563.99 o 1.840303
-6 2 0 16284.91 16307.65 555.49 o 1.840303
5 1 3 7159.90 7218.19 264.91 o 1.833131
-5 1 3 7159.88 7218.18 240.99 o 1.833131
-4 3 0 2318.67 2373.10 84.87 o 1.824377
4 3 0 2318.67 2373.10 88.81 o 1.824377
6 2 1 6407.29 6270.78 160.68 o 1.795528
-6 2 1 6407.34 6270.84 165.89 o 1.795528
-3 1 4 17375.34 16861.25 442.39 o 1.789202
3 1 4 17375.33 16861.23 435.16 o 1.789202
7 1 1 4399.17 4276.51 114.36 o 1.788358
-7 1 1 4399.16 4276.50 101.90 o 1.788358
4 3 1 21723.81 21044.69 538.81 o 1.780727
-4 3 1 21723.79 21044.66 521.18 o 1.780727
4 2 3 16264.98 15668.89 400.91 o 1.774744
-4 2 3 16264.97 15668.88 406.29 o 1.774744
3 3 2 461.23 449.68 12.97 o 1.765290
-3 3 2 461.23 449.68 13.06 o 1.765290
-4 0 4 6904.30 6525.35 366.61 o 1.745706
4 0 4 6904.29 6525.34 384.92 o 1.745706
0 2 4 662.26 644.36 32.32 o 1.734792
7 0 2 8441.76 8423.23 351.28 o 1.730390
-7 0 2 8441.73 8423.21 345.71 o 1.730390
-1 2 4 7541.45 7312.17 314.64 o 1.720359
1 2 4 7541.44 7312.15 310.39 o 1.720359
0 3 3 27121.15 26842.49 793.01 o 1.702362
1 3 3 31342.38 31463.96 802.23 o 1.688718
-1 3 3 31342.38 31463.98 831.94 o 1.688718
4 1 4 1748.09 1746.04 46.81 o 1.686533
-4 1 4 1748.09 1746.04 43.90 o 1.686533
-2 2 4 2028.97 2043.97 51.74 o 1.679130
2 2 4 2028.97 2043.97 52.24 o 1.679130
-6 2 2 284.34 287.19 7.83 o 1.678572
6 2 2 284.34 287.19 6.62 o 1.678572
7 1 2 30480.74 30796.73 782.73 o 1.672710
-7 1 2 30480.68 30796.67 775.49 o 1.672710
-8 0 0 9937.52 10032.03 263.79 o 1.670586
8 0 0 9937.52 10032.03 257.03 o 1.670586
6 1 3 3824.83 3848.86 97.17 o 1.668588
-6 1 3 3824.82 3848.85 99.63 o 1.668588
-4 3 2 294.33 295.82 6.79 o 1.666461
4 3 2 294.33 295.82 8.24 o 1.666461
5 3 1 13926.11 14309.07 398.43 o 1.653521
-5 3 1 13926.11 14309.07 379.38 o 1.653521
2 3 3 7340.86 7532.32 224.46 o 1.649672
-2 3 3 7340.86 7532.33 209.18 o 1.649672
5 2 3 6780.88 7010.63 191.00 o 1.648728
-5 2 3 6780.88 7010.63 205.74 o 1.648728
0 4 0 28924.12 29771.17 843.09 o 1.633252
5 0 4 53314.20 53628.54 1456.58 o 1.625368
-5 0 4 53314.17 53628.50 1453.52 o 1.625368
-8 1 0 18277.47 18238.12 478.57 o 1.618507
8 1 0 18277.46 18238.12 490.97 o 1.618507
3 2 4 201.86 199.11 5.87 o 1.616548
-3 2 4 201.86 199.10 4.87 o 1.616548
7 2 1 13669.32 13624.52 365.09 o 1.615925
-7 2 1 13669.33 13624.53 370.61 o 1.615925
0 4 1 8953.04 8603.54 301.76 o 1.601710
-1 4 1 13760.67 13466.74 475.78 o 1.590330
1 4 1 13760.65 13466.73 507.27 o 1.590330
3 3 3 1953.73 1922.09 66.18 o 1.590212
-3 3 3 1953.73 1922.09 67.03 o 1.590212
0 1 5 2.41 2.33 0.15 o 1.588741
-8 1 1 466.31 456.09 12.80 o 1.587796
8 1 1 466.31 456.08 20.42 o 1.587796
2 4 0 10.16 9.90 0.14 o 1.586551
-2 4 0 10.16 9.90 0.93 o 1.586551
-1 1 5 2291.71 2153.12 89.99 o 1.577633
1 1 5 2291.72 2153.12 99.17 o 1.577633
5 1 4 8929.65 8506.21 336.12 o 1.577286
-5 1 4 8929.65 8506.21 330.37 o 1.577286
-5 3 2 101.58 98.28 3.44 o 1.560830
5 3 2 101.58 98.28 3.84 o 1.560830
-2 4 1 7263.17 7045.97 261.69 o 1.557591
2 4 1 7263.17 7045.97 255.50 o 1.557591
6 3 0 1238.67 1214.16 41.93 o 1.557146
-6 3 0 1238.67 1214.16 42.27 o 1.557146
8 0 2 23978.26 23310.42 755.94 o 1.546808
-8 0 2 23978.23 23310.38 761.04 o 1.546808
2 1 5 9719.38 9455.56 329.13 o 1.545657
-2 1 5 9719.36 9455.54 327.92 o 1.545657
-4 2 4 1085.38 1067.53 34.12 o 1.539630
4 2 4 1085.38 1067.53 31.29 o 1.539630
-6 3 1 17541.88 17588.19 538.21 o 1.529739
6 3 1 17541.94 17588.24 511.66 o 1.529739
7 2 2 1898.96 1914.33 59.42 o 1.529092
-7 2 2 1898.95 1914.32 55.66 o 1.529092
-6 2 3 7341.17 7413.88 224.47 o 1.525941
6 2 3 7341.18 7413.89 239.19 o 1.525941
-7 1 3 7196.97 7228.54 226.68 o 1.521533
7 1 3 7196.97 7228.54 238.40 o 1.521533
0 4 2 22.55 22.94 0.85 o 1.517031
-4 3 3 4671.38 4690.49 150.82 o 1.516825
4 3 3 4671.39 4690.50 157.74 o 1.516825
-6 0 4 567.21 570.07 27.33 o 1.507366
6 0 4 567.22 570.07 26.85 o 1.507366
1 4 2 569.89 571.30 26.95 o 1.507351
-1 4 2 569.89 571.30 26.06 o 1.507351
-3 4 1 1013.57 1019.69 48.41 o 1.507250
3 4 1 1013.57 1019.68 44.36 o 1.507250
8 1 2 3811.48 3820.32 183.05 o 1.505193
-8 1 2 3811.51 3820.35 183.59 o 1.505193
-3 1 5 242.39 212.86 19.29 o 1.496428
3 1 5 242.39 212.86 17.22 o 1.496428
0 3 4 252.23 254.11 16.22 o 1.491655
-8 2 0 5608.97 5552.70 300.42 o 1.487356
8 2 0 5608.97 5552.70 306.97 o 1.487356
-1 3 4 1574.33 1569.03 83.87 o 1.482450
1 3 4 1574.33 1569.03 81.70 o 1.482450
-2 4 2 5919.26 5549.19 249.84 o 1.479387
2 4 2 5919.25 5549.18 254.14 o 1.479387
-6 1 4 4138.69 3830.19 136.93 o 1.468776
6 1 4 4138.70 3830.20 136.17 o 1.468776
4 4 0 80.17 73.56 3.76 o 1.467324
-4 4 0 80.17 73.56 1.86 o 1.467324
0 2 5 20187.47 18344.64 682.37 o 1.464157
8 2 1 13531.67 12239.42 435.82 o 1.463417
-8 2 1 13531.66 12239.41 423.04 o 1.463417
-2 3 4 159.23 144.12 5.25 o 1.455825
2 3 4 159.22 144.12 4.95 o 1.455825
-6 3 2 111.56 102.50 3.51 o 1.455461
6 3 2 111.56 102.50 3.28 o 1.455461
1 2 5 997.97 910.13 33.09 o 1.455448
-1 2 5 997.97 910.14 35.98 o 1.455448
-5 2 4 5169.27 4698.58 162.88 o 1.455176
5 2 4 5169.28 4698.59 160.81 o 1.455176
-4 4 1 7728.99 7696.21 239.35 o 1.444324
4 4 1 7728.99 7696.21 226.05 o 1.444324
3 4 2 12713.65 12769.08 386.94 o 1.436051
-3 4 2 12713.67 12769.10 380.98 o 1.436051
5 3 3 18235.16 18182.94 535.02 o 1.435876
-5 3 3 18235.16 18182.95 540.20 o 1.435876
-4 1 5 7073.75 7182.32 224.04 o 1.434794
4 1 5 7073.75 7182.32 216.10 o 1.434794
-2 2 5 9346.48 9385.44 298.30 o 1.430228
2 2 5 9346.49 9385.45 297.77 o 1.430228
-9 1 1 4859.08 4861.38 161.90 o 1.425912
9 1 1 4859.12 4861.42 139.99 o 1.425912
-3 3 4 46.43 43.61 1.67 o 1.414469
3 3 4 46.43 43.61 1.81 o 1.414469
-7 3 1 5432.77 5143.96 193.31 o 1.414052
7 3 1 5432.78 5143.96 204.63 o 1.414052
7 2 3 5851.24 5556.11 210.07 o 1.411051
-7 2 3 5851.25 5556.12 223.45 o 1.411051
0 4 3 2606.59 2464.30 89.32 o 1.401556
8 2 2 6791.80 6445.28 232.11 o 1.397989
-8 2 2 6791.80 6445.28 228.20 o 1.397989
7 0 4 12239.49 11576.45 417.89 o 1.396324
-7 0 4 12239.51 11576.47 410.97 o 1.396324
-9 0 2 19962.85 18900.36 681.65 o 1.396003
9 0 2 19962.81 18900.32 686.39 o 1.396003
-1 4 3 1638.60 1541.62 51.91 o 1.393912
1 4 3 1638.60 1541.62 62.28 o 1.393912
8 1 3 3423.71 3234.46 115.80 o 1.392205
-8 1 3 3423.73 3234.47 121.92 o 1.392205
3 2 5 5439.45 5163.26 204.61 o 1.390958
-3 2 5 5439.44 5163.25 196.06 o 1.390958
-4 4 2 812.26 765.96 32.03 o 1.381316
4 4 2 812.25 765.96 27.83 o 1.381316
-5 4 1 8601.00 8016.57 352.07 o 1.373920
5 4 1 8601.01 8016.58 364.37 o 1.373920
2 4 3 3916.43 3584.17 161.93 o 1.371710
-2 4 3 3916.44 3584.17 169.46 o 1.371710
-6 2 4 452.98 413.57 18.64 o 1.368667
6 2 4 452.98 413.57 18.65 o 1.368667
-5 1 5 2621.84 2370.13 108.45 o 1.365709
5 1 5 2621.86 2370.14 114.56 o 1.365709
-7 1 4 5522.87 5046.19 225.67 o 1.365483
7 1 4 5522.88 5046.20 228.33 o 1.365483
-9 1 2 2368.37 2166.24 100.78 o 1.365183
9 1 2 2368.36 2166.23 96.42 o 1.365183
0 0 6 2953.53 2622.26 130.09 o 1.364927
-4 3 4 31.87 28.47 1.37 o 1.362077
4 3 4 31.87 28.47 1.23 o 1.362077
1 0 6 6113.20 5409.45 291.93 o 1.357864
-1 0 6 6113.20 5409.45 314.13 o 1.357864
7 3 2 215.29 188.86 7.83 o 1.354765
-7 3 2 215.29 188.86 8.56 o 1.354765
6 3 3 5258.51 4725.18 191.10 o 1.352572
-6 3 3 5258.51 4725.18 187.01 o 1.352572
4 2 5 8856.98 8159.31 277.41 o 1.341045
-4 2 5 8856.99 8159.33 282.25 o 1.341045
2 0 6 24949.78 23072.66 789.19 o 1.337314
-2 0 6 24949.78 23072.67 804.94 o 1.337314
3 4 3 16740.66 15184.43 519.35 o 1.336952
-3 4 3 16740.65 15184.42 508.98 o 1.336952
-10 0 0 21349.86 19369.29 659.78 o 1.336469
10 0 0 21349.86 19369.28 663.98 o 1.336469
0 1 6 6329.34 5813.28 198.56 o 1.336078
-9 2 1 2125.66 1931.37 66.54 o 1.333784
9 2 1 2125.66 1931.38 65.17 o 1.333784
1 1 6 3801.72 3456.34 130.22 o 1.329451
-1 1 6 3801.73 3456.35 135.76 o 1.329451
-8 3 0 50.88 44.81 1.70 o 1.325482
8 3 0 50.88 44.81 1.35 o 1.325482
-5 4 2 584.61 461.44 21.17 o 1.319349
5 4 2 584.61 461.44 16.97 o 1.319349
-6 4 0 11986.09 9428.49 394.32 o 1.317122
6 4 0 11986.09 9428.49 393.70 o 1.317122
2 1 6 8321.58 6590.72 294.17 o 1.310147
-2 1 6 8321.58 6590.72 294.31 o 1.310147
10 1 0 20793.90 16817.10 698.58 o 1.309352
-10 1 0 20793.90 16817.10 705.53 o 1.309352
0 3 5 817.02 654.75 28.54 o 1.308984
8 3 1 1697.80 1374.32 56.43 o 1.308455
-8 3 1 1697.80 1374.32 53.23 o 1.308455
0 5 0 41.41 33.40 1.41 o 1.306601
8 2 3 591.62 474.29 15.26 o 1.306076
-8 2 3 591.62 474.29 22.15 o 1.306076
-3 0 6 5414.78 4384.71 185.94 o 1.305046
3 0 6 5414.77 4384.71 202.39 o 1.305046
1 3 5 5384.63 4344.46 178.64 o 1.302750
-1 3 5 5384.62 4344.45 191.89 o 1.302750
5 3 4 34.62 27.95 0.79 o 1.302555
-5 3 4 34.62 27.95 1.35 o 1.302555
-6 4 1 1700.22 1406.96 53.80 o 1.300411
6 4 1 1700.21 1406.95 52.21 o 1.300411
-8 0 4 2791.89 2505.63 86.02 o 1.294371
8 0 4 2791.88 2505.62 91.03 o 1.294371
-6 1 5 204.88 185.68 6.72 o 1.293441
6 1 5 204.88 185.68 6.86 o 1.293441
10 1 1 2383.36 2151.67 80.97 o 1.292931
-10 1 1 2383.34 2151.66 73.69 o 1.292931
4 4 3 7052.69 6351.16 222.66 o 1.292449
-4 4 3 7052.68 6351.15 222.57 o 1.292449
0 5 1 733.10 672.11 24.93 o 1.290283
2 3 5 16448.51 15044.59 533.76 o 1.284570
-2 3 5 16448.50 15044.59 524.90 o 1.284570
-1 5 1 1094.69 999.65 35.00 o 1.284311
1 5 1 1094.69 999.65 35.09 o 1.284311
-5 2 5 5854.40 5379.47 193.94 o 1.284124
5 2 5 5854.40 5379.47 184.23 o 1.284124
7 2 4 1748.43 1598.73 54.65 o 1.283937
-7 2 4 1748.43 1598.73 52.65 o 1.283937
-9 2 2 2220.43 2038.89 70.07 o 1.283687
9 2 2 2220.42 2038.88 66.88 o 1.283687
-2 5 0 12498.54 11576.40 395.07 o 1.282318
2 5 0 12498.55 11576.41 401.39 o 1.282318
3 1 6 5353.09 5029.34 187.37 o 1.279761
-3 1 6 5353.08 5029.34 177.41 o 1.279761
-9 1 3 1679.58 1576.28 52.19 o 1.279205
9 1 3 1679.57 1576.27 53.70 o 1.279205
0 4 4 294.89 278.55 9.65 o 1.276772
1 4 4 4490.49 4111.28 166.60 o 1.270985
-1 4 4 4490.49 4111.28 155.23 o 1.270985
-7 3 3 13342.04 12217.56 462.94 o 1.270622
7 3 3 13342.03 12217.55 446.93 o 1.270622
10 0 2 4008.27 3664.79 144.76 o 1.270510
-10 0 2 4008.26 3664.78 139.16 o 1.270510
8 1 4 883.04 796.96 32.94 o 1.269691
-8 1 4 883.04 796.96 30.55 o 1.269691
2 5 1 918.47 839.13 39.45 o 1.266882
-2 5 1 918.47 839.13 39.22 o 1.266882
-4 0 6 4219.04 3736.88 221.40 o 1.263558
4 0 6 4219.04 3736.88 209.74 o 1.263558
-8 3 2 131.66 120.74 5.96 o 1.261060
8 3 2 131.66 120.74 5.90 o 1.261060
0 2 6 695.47 598.52 43.92 o 1.259400
-3 3 5 39.08 34.01 1.35 o 1.255892
3 3 5 39.08 34.01 2.49 o 1.255892
2 4 4 1287.46 1122.50 69.03 o 1.254086
-2 4 4 1287.46 1122.50 68.20 o 1.254086
-6 4 2 913.84 840.65 46.36 o 1.253853
6 4 2 913.84 840.65 44.44 o 1.253853
1 2 6 1274.37 1138.24 97.51 o 1.253845
-1 2 6 1274.38 1138.25 85.65 o 1.253845
-10 1 2 1729.37 1666.07 72.95 o 1.247145
10 1 2 1729.39 1666.09 75.64 o 1.247145
0 5 2 6958.39 6830.92 300.95 o 1.244767
-5 4 3 4989.75 4861.78 206.88 o 1.241267
5 4 3 4989.74 4861.77 199.42 o 1.241267
4 1 6 5304.84 5274.79 230.61 o 1.240567
-4 1 6 5304.86 5274.82 243.80 o 1.240567
-6 3 4 32.29 31.51 1.08 o 1.239411
6 3 4 32.29 31.51 1.45 o 1.239411
1 5 2 10089.71 9873.39 422.48 o 1.239403
-1 5 2 10089.70 9873.38 416.60 o 1.239403
3 5 1 3491.64 3403.22 144.63 o 1.239347
-3 5 1 3491.64 3403.23 140.60 o 1.239347
2 2 6 1506.13 1465.09 64.43 o 1.237612
-2 2 6 1506.13 1465.09 66.26 o 1.237612
10 2 0 4422.20 4297.24 164.90 o 1.236942
-10 2 0 4422.20 4297.24 163.40 o 1.236942
-3 4 4 250.40 251.43 8.67 o 1.227359
3 4 4 250.40 251.43 8.72 o 1.227359
-7 4 1 5967.28 6051.82 189.41 o 1.227087
7 4 1 5967.27 6051.81 194.56 o 1.227087
-2 5 2 4276.21 4352.14 144.58 o 1.223717
2 5 2 4276.21 4352.14 143.70 o 1.223717
6 2 5 16644.45 16912.04 555.97 o 1.223502
-6 2 5 16644.45 16912.04 536.31 o 1.223502
-10 2 1 5170.65 5268.42 173.35 o 1.223070
10 2 1 5170.67 5268.44 163.29 o 1.223070
7 1 5 628.40 639.09 19.95 o 1.221226
-7 1 5 628.41 639.10 21.27 o 1.221226
4 3 5 14437.05 14838.66 476.87 o 1.218787
-4 3 5 14437.05 14838.65 469.11 o 1.218787
4 5 0 19486.37 20084.93 644.67 o 1.216864
-4 5 0 19486.37 20084.93 657.39 o 1.216864
5 0 6 2457.60 2570.70 82.10 o 1.215607
-5 0 6 2457.60 2570.70 90.88 o 1.215607
-9 3 1 9639.54 9964.61 327.73 o 1.213329
9 3 1 9639.55 9964.62 321.19 o 1.213329
3 2 6 1844.49 1943.08 72.45 o 1.211904
-3 2 6 1844.49 1943.08 74.44 o 1.211904
-9 2 3 7126.19 7422.09 240.87 o 1.211432
9 2 3 7126.20 7422.09 259.96 o 1.211432
4 5 1 393.94 393.75 20.43 o 1.203649
-4 5 1 393.94 393.74 17.99 o 1.203649
8 2 4 445.07 447.72 19.66 o 1.203341
-8 2 4 445.08 447.72 21.59 o 1.203341
-9 0 4 116.96 115.45 7.68 o 1.202074
9 0 4 116.96 115.45 5.61 o 1.202074
-3 5 2 1317.98 1327.90 91.03 o 1.198848
3 5 2 1317.97 1327.90 86.63 o 1.198848
5 1 6 872.23 881.56 63.05 o 1.195094
-5 1 6 872.22 881.56 78.11 o 1.195094
4 4 4 1133.68 1126.71 63.15 o 1.192659
-4 4 4 1133.68 1126.71 63.24 o 1.192659
8 3 3 3178.94 3178.62 167.35 o 1.192359
-8 3 3 3178.92 3178.61 168.25 o 1.192359
-7 4 2 1459.01 1429.24 70.14 o 1.187740
7 4 2 1459.02 1429.25 71.23 o 1.187740
-6 4 3 3078.96 3038.95 143.63 o 1.186262
6 4 3 3078.97 3038.96 155.65 o 1.186262
10 2 2 457.23 452.11 20.73 o 1.184096
-10 2 2 457.22 452.11 23.57 o 1.184096
-9 1 4 18361.76 18199.02 893.56 o 1.182228
9 1 4 18361.73 18198.99 896.08 o 1.182228
-11 1 1 1118.79 1108.53 56.36 o 1.181984
11 1 1 1118.78 1108.53 54.17 o 1.181984
-10 1 3 1739.55 1731.46 83.88 o 1.180576
10 1 3 1739.54 1731.46 86.63 o 1.180576
0 5 3 517.62 507.48 25.64 o 1.178558
-4 2 6 1301.39 1257.20 67.01 o 1.178462
4 2 6 1301.38 1257.20 66.55 o 1.178462
-5 3 5 1495.71 1436.85 73.53 o 1.175586
5 3 5 1495.71 1436.86 72.78 o 1.175586
-7 3 4 102.39 98.05 5.21 o 1.175442
7 3 4 102.39 98.05 4.39 o 1.175442
-9 3 2 21.65 20.65 1.36 o 1.175251
9 3 2 21.65 20.65 0.81 o 1.175251
-1 5 3 1098.06 1026.12 53.42 o 1.174003
1 5 3 1098.06 1026.12 57.13 o 1.174003
8 4 0 2574.28 2327.81 138.57 o 1.167859
-8 4 0 2574.28 2327.81 127.63 o 1.167859
-4 5 2 5400.61 4976.55 306.04 o 1.166447
4 5 2 5400.60 4976.54 316.29 o 1.166447
-11 0 2 4256.13 4017.71 247.68 o 1.164780
11 0 2 4256.12 4017.71 247.01 o 1.164780
-6 0 6 2803.02 2600.23 173.15 o 1.163804
6 0 6 2803.02 2600.23 178.97 o 1.163804
-5 5 1 244.14 232.89 13.22 o 1.161983
5 5 1 244.15 232.89 13.32 o 1.161983
-7 2 5 1443.35 1382.45 84.47 o 1.161845
7 2 5 1443.35 1382.45 74.34 o 1.161845
-2 5 3 718.23 688.20 39.15 o 1.160645
2 5 3 718.23 688.21 38.08 o 1.160645
0 4 5 7895.61 7465.89 393.65 o 1.156528
0 3 6 85.86 81.14 4.90 o 1.156528
8 4 1 3783.32 3572.29 169.80 o 1.156163
-8 4 1 3783.32 3572.29 183.78 o 1.156163
-1 4 5 114.43 110.38 5.06 o 1.152221
1 4 5 114.43 110.38 6.54 o 1.152221
-1 3 6 93.29 91.05 5.25 o 1.152221
1 3 6 93.29 91.05 4.71 o 1.152221
-5 4 4 8236.30 7927.70 395.77 o 1.152086
5 4 4 8236.28 7927.68 399.24 o 1.152086
0 1 7 1369.90 1330.55 71.62 o 1.151617
8 1 5 4273.65 4135.44 205.82 o 1.151257
-8 1 5 4273.67 4135.46 209.78 o 1.151257
1 1 7 1190.65 1174.76 63.08 o 1.147365
-1 1 7 1190.65 1174.76 66.11 o 1.147365
11 1 2 4259.33 4247.05 212.62 o 1.146698
-11 1 2 4259.32 4247.05 214.02 o 1.146698
-6 1 6 6850.06 6826.37 357.13 o 1.145766
6 1 6 6850.06 6826.37 374.92 o 1.145766
2 4 5 3819.22 3793.12 208.60 o 1.139586
-2 4 5 3819.22 3793.12 213.59 o 1.139586
-2 3 6 289.73 285.87 17.53 o 1.139586
2 3 6 289.73 285.87 19.08 o 1.139586
3 5 3 312.22 312.09 18.08 o 1.139362
-3 5 3 312.22 312.10 15.57 o 1.139362
-5 2 6 336.04 329.76 18.43 o 1.139275
5 2 6 336.04 329.75 21.06 o 1.139275
10 3 0 111.26 111.68 5.71 o 1.139063
-10 3 0 111.26 111.68 5.91 o 1.139063
2 1 7 1816.29 1894.63 123.19 o 1.134887
-2 1 7 1816.28 1894.62 118.12 o 1.134887
-7 4 3 3123.52 3253.05 165.92 o 1.129814
7 4 3 3123.52 3253.05 160.43 o 1.129814
6 3 5 31.53 32.95 1.68 o 1.128541
-6 3 5 31.53 32.95 1.54 o 1.128541
-5 5 2 2690.10 2810.56 139.31 o 1.128408
5 5 2 2690.09 2810.55 143.64 o 1.128408
10 3 1 4395.91 4568.75 240.83 o 1.128202
-10 3 1 4395.90 4568.74 225.13 o 1.128202
-9 2 4 182.63 190.22 10.12 o 1.128112
9 2 4 182.63 190.22 9.73 o 1.128112
11 2 1 5586.83 5859.16 300.70 o 1.127900
-11 2 1 5586.83 5859.16 295.56 o 1.127900
6 5 0 1567.96 1627.76 83.82 o 1.127013
-6 5 0 1567.96 1627.76 88.92 o 1.127013
10 2 3 4778.72 4949.24 248.02 o 1.126676
-10 2 3 4778.73 4949.25 261.89 o 1.126676
8 4 2 5601.63 5652.78 292.93 o 1.123075
-8 4 2 5601.64 5652.79 298.82 o 1.123075
-3 4 5 1430.32 1426.63 74.30 o 1.119420
-3 3 6 12.60 12.44 0.73 o 1.119420
3 3 6 12.60 12.44 0.90 o 1.119420
3 4 5 1430.32 1426.63 87.85 o 1.119420
10 0 4 2220.79 2218.01 128.23 o 1.119137
-10 0 4 2220.79 2218.01 119.88 o 1.119137
9 3 3 2227.66 2227.31 120.36 o 1.119048
-9 3 3 2227.66 2227.31 124.01 o 1.119048
-6 5 1 1379.42 1305.73 83.06 o 1.116491
6 5 1 1379.42 1305.73 76.38 o 1.116491
3 1 7 52.71 47.00 3.90 o 1.114965
-3 1 7 52.71 47.00 4.95 o 1.114965
-12 0 0 5405.77 4822.64 380.40 o 1.113724
12 0 0 5405.77 4822.64 361.03 o 1.113724
-8 3 4 2.01 1.81 0.11 o 1.112662
8 3 4 2.01 1.81 0.17 o 1.112662
4 5 3 759.78 648.01 49.90 o 1.111440
-4 5 3 759.78 648.01 52.98 o 1.111440
7 0 6 4676.14 3865.67 348.17 o 1.110361
-7 0 6 4676.13 3865.66 377.65 o 1.110361
-6 4 4 531.77 442.95 32.32 o 1.107702
6 4 4 531.77 442.95 30.83 o 1.107702
10 1 4 1601.44 1357.43 85.46 o 1.103069
-10 1 4 1601.44 1357.43 84.37 o 1.103069
0 2 7 550.98 465.53 32.96 o 1.101423
0 5 4 3526.24 2968.12 185.73 o 1.101423
8 2 5 1813.16 1543.85 85.89 o 1.101108
-8 2 5 1813.15 1543.84 97.70 o 1.101108
-12 1 0 1164.87 1014.79 55.59 o 1.097885
12 1 0 1164.87 1014.79 54.97 o 1.097885
-1 5 4 7692.36 6717.60 369.54 o 1.097701
1 5 4 7692.37 6717.61 365.46 o 1.097701
1 2 7 3530.83 3076.38 190.18 o 1.097702
-1 2 7 3530.82 3076.38 185.87 o 1.097702
10 3 2 24.03 20.82 1.19 o 1.097395
-10 3 2 24.03 20.81 1.03 o 1.097395
-11 2 2 717.31 623.04 32.71 o 1.097117
11 2 2 717.31 623.04 31.89 o 1.097117
-6 2 6 542.35 480.27 22.40 o 1.096301
6 2 6 542.36 480.28 28.25 o 1.096301
7 1 6 4475.18 3933.44 198.21 o 1.094663
-7 1 6 4475.18 3933.44 205.01 o 1.094663
11 1 3 1780.92 1552.07 76.93 o 1.094315
-11 1 3 1780.93 1552.08 76.42 o 1.094315
4 4 5 2915.93 2538.24 124.35 o 1.092906
4 3 6 110.50 96.94 5.02 o 1.092906
-4 4 5 2915.93 2538.23 129.32 o 1.092906
-4 3 6 110.50 96.93 4.89 o 1.092906
9 4 1 481.43 419.58 20.04 o 1.088965
-9 4 1 481.43 419.58 22.26 o 1.088965
0 6 0 27670.92 24072.08 1296.52 o 1.088835
4 1 7 1731.93 1524.43 84.93 o 1.088759
-4 1 7 1731.93 1524.43 87.28 o 1.088759
-12 1 1 1863.04 1617.46 81.25 o 1.088150
12 1 1 1863.05 1617.47 87.77 o 1.088150
2 2 7 5825.76 5115.40 301.71 o 1.086760
-2 5 4 572.45 503.83 28.62 o 1.086759
-2 2 7 5825.76 5115.40 309.99 o 1.086760
2 5 4 572.45 503.82 24.91 o 1.086759
-6 5 2 4319.57 3759.15 202.71 o 1.086608
6 5 2 4319.56 3759.15 191.91 o 1.086608
9 1 5 1295.94 1123.66 62.46 o 1.084862
-9 1 5 1295.93 1123.65 64.47 o 1.084862
-7 3 5 1716.57 1479.28 95.29 o 1.079612
7 3 5 1716.57 1479.28 97.73 o 1.079612
0 6 1 1785.15 1469.20 116.24 o 1.079337
-5 5 3 1573.01 1314.93 93.11 o 1.078385
5 5 3 1573.01 1314.92 91.86 o 1.078385
-1 6 1 301.07 246.05 24.78 o 1.075834
1 6 1 301.07 246.05 27.73 o 1.075834
-12 0 2 577.85 462.70 49.73 o 1.074682
12 0 2 577.85 462.69 41.78 o 1.074682
2 6 0 604.75 489.54 49.18 o 1.074662
-2 6 0 604.75 489.54 56.53 o 1.074662
8 4 3 789.68 643.10 57.30 o 1.073728
-8 4 3 789.68 643.09 53.14 o 1.073728
-3 2 7 1486.72 1255.22 143.47 o 1.069228
-3 5 4 3470.82 2916.53 254.79 o 1.069228
3 5 4 3470.82 2916.53 258.83 o 1.069228
3 2 7 1486.73 1255.23 139.95 o 1.069228
-7 5 1 672.02 565.54 44.49 o 1.069048
7 5 1 672.01 565.54 47.31 o 1.069048
-2 6 1 561.75 482.26 39.20 o 1.065527
2 6 1 561.75 482.26 36.75 o 1.065527
-5 3 6 155.82 130.13 8.41 o 1.061431
-5 4 5 2195.17 1801.21 116.82 o 1.061431
5 4 5 2195.17 1801.22 116.92 o 1.061431
5 3 6 155.82 130.13 9.07 o 1.061431
7 4 4 275.59 226.84 13.83 o 1.061325
-7 4 4 275.59 226.84 13.55 o 1.061325
-9 4 2 1359.46 1124.96 69.58 o 1.061184
9 4 2 1359.46 1124.97 67.00 o 1.061184
12 1 2 6358.60 5247.64 328.47 o 1.060431
-12 1 2 6358.62 5247.66 334.57 o 1.060431
-10 2 4 519.18 439.10 26.42 o 1.058723
10 2 4 519.18 439.10 23.94 o 1.058723
-5 1 7 2261.86 1868.56 124.95 o 1.057631
5 1 7 2261.86 1868.56 123.80 o 1.057631
8 0 6 11117.60 9491.56 553.05 o 1.056989
-8 0 6 11117.60 9491.56 549.72 o 1.056989
12 2 0 1910.44 1690.29 84.14 o 1.054137
-12 2 0 1910.44 1690.29 82.04 o 1.054137
-9 3 4 5.00 4.55 0.25 o 1.052386
9 3 4 5.00 4.55 0.30 o 1.052386
0 6 2 342.87 303.31 15.01 o 1.052269
11 3 1 3783.56 3442.79 160.15 o 1.052214
-11 3 1 3783.56 3442.79 156.80 o 1.052214
-7 2 6 1107.68 1004.32 46.92 o 1.051284
7 2 6 1107.68 1004.32 48.11 o 1.051284
10 3 3 2723.20 2509.02 113.10 o 1.051220
-10 3 3 2723.20 2509.02 113.00 o 1.051220
11 2 3 4410.68 4038.38 187.76 o 1.050976
-11 2 3 4410.68 4038.38 179.75 o 1.050976
1 6 2 1134.30 1061.19 49.95 o 1.049022
-1 6 2 1134.30 1061.19 47.50 o 1.049022
-3 6 1 32.74 30.73 1.66 o 1.048988
3 6 1 32.74 30.73 1.46 o 1.048988
0 4 6 515.12 488.60 22.68 o 1.047340
4 5 4 643.94 603.74 28.97 o 1.046051
-4 5 4 643.94 603.74 25.80 o 1.046051
4 2 7 3663.02 3599.10 177.14 o 1.046051
-4 2 7 3663.02 3599.11 168.96 o 1.046051
12 2 1 216.42 203.81 8.64 o 1.045511
-12 2 1 216.42 203.82 8.69 o 1.045511
-11 0 4 15603.90 14839.02 672.63 o 1.044848
11 0 4 15603.90 14839.03 673.69 o 1.044848
1 4 6 485.46 474.03 21.93 o 1.044139
-1 4 6 485.46 474.03 22.48 o 1.044139
8 1 6 2448.03 2387.64 107.69 o 1.043421
-8 1 6 2448.03 2387.64 110.67 o 1.043421
-7 5 2 10821.50 10440.87 464.67 o 1.042728
7 5 2 10821.50 10440.86 469.66 o 1.042728
-9 2 5 1759.88 1705.51 71.99 o 1.042594
9 2 5 1759.87 1705.50 83.50 o 1.042594
-6 5 3 581.42 564.38 24.60 o 1.041727
6 5 3 581.42 564.38 25.59 o 1.041727
2 6 2 6175.92 6113.52 286.98 o 1.039460
-2 6 2 6175.93 6113.52 284.30 o 1.039460
-4 6 0 1554.42 1474.19 65.25 o 1.035249
4 6 0 1554.42 1474.19 71.18 o 1.035249
2 4 6 2272.04 2148.95 105.19 o 1.034708
-2 4 6 2272.04 2148.95 104.71 o 1.034708
-10 4 0 4116.66 3852.81 164.22 o 1.034316
10 4 0 4116.66 3852.81 166.62 o 1.034316
11 1 4 27.36 24.94 1.12 o 1.031736
-11 1 4 27.36 24.94 1.40 o 1.031736
0 3 7 3365.49 2971.29 157.81 o 1.030620
-8 3 5 8302.77 7480.23 332.55 o 1.030362
8 3 5 8302.75 7480.22 334.25 o 1.030362
8 5 0 2619.68 2346.53 99.70 o 1.029198
-8 5 0 2619.68 2346.53 102.18 o 1.029198
1 3 7 2399.41 2100.36 103.96 o 1.027569
-1 3 7 2399.41 2100.36 105.54 o 1.027569
11 3 2 25.03 22.17 1.07 o 1.027089
-11 3 2 25.03 22.17 0.94 o 1.027089
-4 6 1 6.68 5.91 0.24 o 1.027076
4 6 1 6.68 5.91 0.39 o 1.027076
6 4 5 7252.97 6420.38 286.23 o 1.026420
-6 4 5 7252.97 6420.38 284.27 o 1.026420
-6 3 6 67.80 59.81 2.67 o 1.026420
6 3 6 67.80 59.81 2.66 o 1.026420
10 4 1 2483.31 2195.63 98.05 o 1.026165
-10 4 1 2483.31 2195.63 94.43 o 1.026165
-3 6 2 9648.11 8414.81 390.15 o 1.024088
3 6 2 9648.12 8414.82 383.96 o 1.024088
0 0 8 13853.78 12109.39 586.24 o 1.023695
-6 1 7 1269.39 1109.28 53.71 o 1.022982
6 1 7 1269.39 1109.28 53.44 o 1.022982
10 1 5 1458.15 1264.55 58.73 o 1.022730
-10 1 5 1458.15 1264.55 57.00 o 1.022730
0 5 5 0.00 0.00 0.00 o 1.021417
-8 5 1 251.22 217.35 9.59 o 1.021166
8 5 1 251.22 217.35 10.50 o 1.021166
-12 2 2 156.24 135.64 5.67 o 1.020852
12 2 2 156.24 135.64 6.81 o 1.020852
1 0 8 4954.53 4293.61 210.20 o 1.020705
-1 0 8 4954.53 4293.61 229.34 o 1.020705
-3 4 6 1355.13 1162.85 57.72 o 1.019543
3 4 6 1355.13 1162.85 58.41 o 1.019543
-9 4 3 4646.28 4027.27 189.90 o 1.019262
9 4 3 4646.28 4027.27 185.76 o 1.019262
12 1 3 165.98 142.20 7.09 o 1.018594
-12 1 3 165.99 142.20 6.18 o 1.018594
2 3 7 5285.18 4609.47 253.47 o 1.018577
-2 3 7 5285.18 4609.48 251.71 o 1.018577
1 5 5 147.49 126.99 6.83 o 1.018447
-1 5 5 147.49 127.00 5.83 o 1.018447
-5 2 7 1825.69 1593.95 88.31 o 1.018354
5 2 7 1825.70 1593.95 85.21 o 1.018354
-5 5 4 4597.51 3942.39 192.18 o 1.018354
5 5 4 4597.52 3942.40 193.53 o 1.018354
8 4 4 242.26 209.58 10.92 o 1.014429
-8 4 4 242.26 209.58 10.99 o 1.014429
2 0 8 50.54 43.05 5.15 o 1.011890
-2 0 8 50.54 43.05 2.23 o 1.011890
0 1 8 377.89 311.13 28.37 o 1.011354
0 6 3 13.51 11.44 0.85 o 1.011354
2 5 5 1204.11 1019.13 79.65 o 1.009690
-2 5 5 1204.11 1019.14 78.43 o 1.009690
-1 1 8 3029.14 2394.59 271.27 o 1.008471
1 6 3 81.26 64.76 6.34 o 1.008471
-1 6 3 81.26 64.76 5.77 o 1.008471
1 1 8 3029.15 2394.60 274.69 o 1.008471
-13 1 1 1325.22 1074.55 98.38 o 1.007836
13 1 1 1325.23 1074.56 92.35 o 1.007836
8 2 6 2347.97 1877.28 182.03 o 1.005650
-8 2 6 2347.98 1877.28 180.61 o 1.005650
-9 0 6 2413.95 1947.92 185.55 o 1.004910
9 0 6 2413.95 1947.92 192.26 o 1.004910
-3 3 7 424.47 340.83 38.78 o 1.004100
3 3 7 424.47 340.83 37.26 o 1.004100
-4 6 2 1547.29 1265.39 113.75 o 1.003670
4 6 2 1547.29 1265.39 128.29 o 1.003670
7 5 3 636.50 511.80 46.66 o 1.002875
-7 5 3 636.50 511.80 48.58 o 1.002875
-10 4 2 172.87 137.03 12.67 o 1.002819
10 4 2 172.87 137.03 12.12 o 1.002819
-5 6 1 9.97 8.13 0.74 o 1.000822
5 6 1 9.97 8.13 0.86 o 1.000822
2 6 3 69.00 56.11 5.49 o 0.999966
2 1 8 2034.52 1662.09 184.02 o 0.999966
-2 6 3 69.00 56.11 5.69 o 0.999966
-2 1 8 2034.52 1662.09 183.63 o 0.999966
4 4 6 820.94 660.29 61.62 o 0.999390
-4 4 6 820.94 660.29 64.70 o 0.999390
8 5 2 439.53 356.70 33.22 o 0.998153
-8 5 2 439.52 356.70 27.49 o 0.998153
3 0 8 3131.98 2572.84 293.69 o 0.997693
-3 0 8 3131.98 2572.85 263.60 o 0.997693
-13 0 2 5575.50 4598.82 413.28 o 0.997108
13 0 2 5575.50 4598.83 405.80 o 0.997108
-3 5 5 209.16 167.67 14.05 o 0.995584
3 5 5 209.16 167.67 14.11 o 0.995584
-10 3 4 48.32 39.19 2.78 o 0.995385
10 3 4 48.32 39.19 3.21 o 0.995385
11 2 4 1810.41 1459.73 112.13 o 0.995177
-11 2 4 1810.42 1459.74 114.34 o 0.995177
-9 1 6 1582.43 1274.70 92.96 o 0.993229
9 1 6 1582.43 1274.71 98.23 o 0.993229
-12 3 0 320.93 258.87 18.21 o 0.991571
12 3 0 320.93 258.87 17.74 o 0.991571
-7 4 5 125.17 101.74 8.04 o 0.989195
-7 3 6 55.33 44.68 3.27 o 0.989195
7 4 5 125.17 101.73 5.89 o 0.989195
7 3 6 55.33 44.68 3.08 o 0.989195
11 3 3 4315.69 3510.18 226.56 o 0.988938
-11 3 3 4315.69 3510.18 237.20 o 0.988938
6 5 4 1831.84 1499.18 95.46 o 0.987314
-6 5 4 1831.84 1499.18 103.41 o 0.987314
-6 2 7 463.61 373.32 26.69 o 0.987314
6 2 7 463.61 373.33 27.97 o 0.987314
10 2 5 1856.30 1526.67 98.38 o 0.987087
-10 2 5 1856.30 1526.67 103.51 o 0.987087
3 1 8 412.39 333.35 24.33 o 0.986258
-3 6 3 344.92 281.52 19.54 o 0.986258
-3 1 8 412.39 333.35 24.45 o 0.986258
3 6 3 344.92 281.52 19.38 o 0.986258
7 1 7 80.05 64.58 3.33 o 0.986117
-7 1 7 80.05 64.58 5.44 o 0.986117
-13 1 2 3330.92 2708.57 180.97 o 0.985693
13 1 2 3330.92 2708.57 182.84 o 0.985693
4 3 7 3870.44 3159.31 222.68 o 0.984832
-4 3 7 3870.43 3159.30 221.31 o 0.984832
-12 3 1 6409.73 5188.88 346.47 o 0.984381
12 3 1 6409.74 5188.89 337.25 o 0.984381
-12 2 3 2179.67 1754.54 117.07 o 0.983367
12 2 3 2179.66 1754.54 115.76 o 0.983367
-9 3 5 716.25 580.99 39.90 o 0.981945
9 3 5 716.26 581.00 38.70 o 0.981945
-5 6 2 1018.45 817.26 55.26 o 0.979128
5 6 2 1018.45 817.26 56.75 o 0.979128
-4 0 8 1029.61 838.88 69.51 o 0.978784
4 0 8 1029.61 838.88 62.97 o 0.978784
12 0 4 519.96 411.11 28.70 o 0.978342
-12 0 4 519.96 411.11 28.46 o 0.978342
-6 6 0 11029.86 8706.53 618.14 o 0.978216
6 6 0 11029.86 8706.53 610.48 o 0.978216
0 2 8 1503.36 1236.29 110.72 o 0.976848
4 5 5 1507.26 1197.99 85.35 o 0.976793
-4 5 5 1507.26 1197.98 89.66 o 0.976793
-5 4 6 16.21 13.03 1.47 o 0.975153
5 4 6 16.21 13.03 0.67 o 0.975153
-1 2 8 770.13 603.68 59.30 o 0.974249
1 2 8 770.13 603.68 63.30 o 0.974249
-9 5 1 674.16 543.80 43.01 o 0.973976
9 5 1 674.15 543.79 40.22 o 0.973976
13 2 1 2636.26 2073.20 169.05 o 0.973677
-13 2 1 2636.23 2073.17 174.46 o 0.973677
-6 6 1 116.59 93.50 7.56 o 0.971312
6 6 1 116.60 93.50 9.16 o 0.971312
-9 4 4 459.79 369.73 32.59 o 0.968126
9 4 4 459.79 369.73 34.09 o 0.968126
11 4 1 2602.07 2091.02 184.80 o 0.967992
-11 4 1 2602.08 2091.02 178.39 o 0.967992
-4 6 3 322.36 251.92 24.71 o 0.967981
4 6 3 322.36 251.92 24.11 o 0.967981
4 1 8 3905.04 3015.06 351.60 o 0.967981
-4 1 8 3905.04 3015.06 351.35 o 0.967981
12 1 4 466.52 368.83 33.39 o 0.967553
-12 1 4 466.52 368.83 34.26 o 0.967553
10 4 3 1351.51 1062.32 92.83 o 0.967218
-10 4 3 1351.51 1062.32 97.53 o 0.967218
2 2 8 84.99 67.28 7.77 o 0.966575
-2 2 8 84.99 67.29 7.08 o 0.966575
11 1 5 292.29 231.17 19.92 o 0.965107
-11 1 5 292.29 231.17 23.75 o 0.965107
-12 3 2 212.05 168.67 15.27 o 0.963717
12 3 2 212.05 168.67 15.36 o 0.963717
8 5 3 473.86 384.16 34.04 o 0.963029
-8 5 3 473.86 384.16 33.11 o 0.963029
-5 3 7 5426.28 4410.27 423.91 o 0.961615
5 3 7 5426.28 4410.28 422.09 o 0.961615
0 6 4 468.59 379.74 34.86 o 0.961341
-9 2 6 288.70 228.73 19.89 o 0.960486
9 2 6 288.70 228.72 21.12 o 0.960486
1 6 4 5017.57 4018.24 361.41 o 0.958864
-1 6 4 5017.58 4018.24 371.89 o 0.958864
-5 0 8 1694.75 1383.31 138.03 o 0.955983
5 0 8 1694.75 1383.31 140.52 o 0.955983
10 0 6 1980.91 1621.55 129.95 o 0.954929
-10 0 6 1980.91 1621.55 144.38 o 0.954929
-14 0 0 6130.13 5061.50 437.03 o 0.954621
14 0 0 6130.13 5061.50 444.25 o 0.954621
-3 2 8 653.38 520.24 55.68 o 0.954178
3 2 8 653.37 520.23 49.35 o 0.954178
5 5 5 230.61 186.84 15.64 o 0.954127
-5 5 5 230.62 186.85 15.68 o 0.954127
-7 5 4 1577.45 1272.88 103.92 o 0.954050
-7 2 7 702.14 576.55 52.42 o 0.954050
7 5 4 1577.45 1272.88 106.14 o 0.954050
7 2 7 702.14 576.56 50.15 o 0.954050
-9 5 2 1484.83 1193.21 101.82 o 0.953948
9 5 2 1484.84 1193.21 94.96 o 0.953948
13 2 2 517.65 420.75 34.24 o 0.953666
-13 2 2 517.65 420.75 36.63 o 0.953666
13 1 3 1107.51 889.70 75.89 o 0.951824
-13 1 3 1107.51 889.70 73.13 o 0.951824
2 6 4 667.80 537.93 46.53 o 0.951545
-2 6 4 667.80 537.93 45.69 o 0.951545
6 6 2 286.51 227.04 18.58 o 0.951443
-6 6 2 286.51 227.04 20.56 o 0.951443
0 4 7 323.43 253.80 23.95 o 0.951099
-8 3 6 23.85 19.40 1.77 o 0.950896
8 4 5 1000.07 807.29 65.58 o 0.950896
8 3 6 23.85 19.40 1.47 o 0.950896
-8 4 5 1000.08 807.30 65.74 o 0.950896
1 4 7 1833.89 1473.42 133.59 o 0.948700
-1 4 7 1833.89 1473.42 136.31 o 0.948700
-11 4 2 1350.96 1095.65 87.20 o 0.948323
11 4 2 1350.96 1095.66 88.37 o 0.948323
8 1 7 157.67 127.95 11.95 o 0.948161
-8 1 7 157.67 127.95 10.28 o 0.948161
-6 4 6 700.43 568.43 44.15 o 0.947796
6 4 6 700.43 568.43 51.54 o 0.947796
-5 6 3 258.61 209.51 17.08 o 0.945909
5 6 3 258.61 209.51 17.45 o 0.945909
-5 1 8 3435.71 2750.28 267.48 o 0.945909
5 1 8 3435.71 2750.28 268.59 o 0.945909
-10 1 6 1168.77 945.72 75.28 o 0.944888
10 1 6 1168.77 945.72 74.58 o 0.944888
14 1 0 4802.99 3882.24 312.44 o 0.944589
-14 1 0 4802.99 3882.24 320.88 o 0.944589
0 5 6 1911.38 1529.90 124.06 o 0.943853
11 3 4 43.42 37.33 2.60 o 0.942028
-11 3 4 43.42 37.33 2.80 o 0.942028
2 4 7 3914.20 3360.26 261.17 o 0.941610
-2 4 7 3914.19 3360.25 262.76 o 0.941610
1 5 6 1394.65 1231.78 89.02 o 0.941508
-1 5 6 1394.66 1231.78 89.80 o 0.941508
-3 6 4 208.72 186.67 13.54 o 0.939711
3 6 4 208.71 186.67 12.99 o 0.939711
-7 6 1 49.52 44.02 2.66 o 0.939588
7 6 1 49.52 44.02 3.35 o 0.939588
14 1 1 518.35 465.25 30.65 o 0.938368
-14 1 1 518.35 465.25 32.84 o 0.938368
4 2 8 115.02 106.07 7.00 o 0.937598
-4 2 8 115.03 106.07 9.11 o 0.937598
-12 2 4 18.92 17.05 1.32 o 0.937209
12 2 4 18.92 17.05 0.99 o 0.937209
-6 3 7 5749.45 5271.65 375.96 o 0.935350
6 3 7 5749.44 5271.65 366.86 o 0.935350
-10 3 5 5070.44 4607.03 306.35 o 0.935157
10 3 5 5070.43 4607.02 309.78 o 0.935157
11 2 5 1220.92 1120.21 75.30 o 0.934985
-11 2 5 1220.92 1120.21 77.71 o 0.934985
2 5 6 3319.93 3055.77 217.92 o 0.934576
-2 5 6 3319.93 3055.77 215.18 o 0.934576
10 5 0 8662.15 7979.85 536.95 o 0.934287
-10 5 0 8662.15 7979.85 521.95 o 0.934287
0 7 0 105.53 97.31 7.07 o 0.933287
-12 3 3 290.38 269.17 18.09 o 0.931992
12 3 3 290.38 269.17 15.78 o 0.931992
-6 0 8 3812.95 3659.88 272.16 o 0.930165
6 0 8 3812.95 3659.88 281.18 o 0.930165
-3 4 7 1504.00 1399.60 95.31 o 0.930138
3 4 7 1504.00 1399.61 99.19 o 0.930138
14 0 2 2940.78 2759.49 184.82 o 0.929690
-14 0 2 2940.78 2759.50 179.09 o 0.929690
-6 5 5 18.14 17.14 0.99 o 0.928455
6 5 5 18.14 17.14 1.15 o 0.928455
-10 5 1 166.83 158.31 10.00 o 0.928266
10 5 1 166.82 158.31 9.53 o 0.928266
0 7 1 363.02 354.17 24.50 o 0.927285
0 3 8 46.79 43.83 3.51 o 0.926437
1 7 1 210.30 202.69 14.54 o 0.925061
-1 7 1 210.31 202.69 13.78 o 0.925061
2 7 0 3691.09 3573.95 250.60 o 0.924315
-2 7 0 3691.09 3573.95 251.93 o 0.924315
1 3 8 7.43 7.15 0.69 o 0.924219
-1 3 8 7.43 7.15 0.38 o 0.924219
-4 6 4 1151.99 1111.95 75.95 o 0.923860
4 6 4 1151.98 1111.95 73.05 o 0.923860
13 3 1 2206.30 2120.23 143.81 o 0.923731
-13 3 1 2206.32 2120.25 132.78 o 0.923731
-3 5 6 1921.35 1854.04 124.11 o 0.923356
3 5 6 1921.34 1854.04 132.53 o 0.923356
-10 4 4 441.43 421.82 28.33 o 0.923197
10 4 4 441.43 421.81 26.76 o 0.923197
-9 5 3 29.97 28.61 1.34 o 0.923147
9 5 3 29.97 28.61 2.37 o 0.923147
13 2 3 3296.52 3171.61 212.35 o 0.922892
-13 2 3 3296.54 3171.63 209.93 o 0.922892
-7 6 2 1615.48 1530.91 105.28 o 0.921568
7 6 2 1615.48 1530.91 103.25 o 0.921568
-6 1 8 446.54 437.79 33.95 o 0.920878
6 1 8 446.54 437.79 34.53 o 0.920878
-6 6 3 223.55 212.24 14.88 o 0.920877
6 6 3 223.55 212.24 15.11 o 0.920877
14 1 2 104.68 98.01 7.23 o 0.920417
-14 1 2 104.68 98.01 6.11 o 0.920417
-12 4 0 559.68 530.80 32.27 o 0.920152
12 4 0 559.68 530.80 37.91 o 0.920152
8 5 4 412.68 388.69 27.33 o 0.919552
8 2 7 4891.94 4632.51 336.59 o 0.919552
-8 5 4 412.68 388.69 25.52 o 0.919552
-8 2 7 4891.95 4632.52 333.97 o 0.919552
-13 0 4 2262.11 2144.40 156.75 o 0.918735
13 0 4 2262.11 2144.41 142.45 o 0.918735
2 7 1 806.10 771.90 56.51 o 0.918484
-2 7 1 806.10 771.91 55.25 o 0.918484
-7 4 6 1116.07 1046.83 74.18 o 0.918252
7 4 6 1116.07 1046.83 72.42 o 0.918252
11 4 3 1712.44 1587.52 108.78 o 0.918047
-11 4 3 1712.44 1587.52 107.22 o 0.918047
2 3 8 61.52 58.19 4.88 o 0.917660
-2 3 8 61.53 58.19 4.42 o 0.917660
-5 2 8 652.24 615.89 48.85 o 0.917497
5 2 8 652.24 615.89 48.02 o 0.917497
10 2 6 540.11 508.14 34.87 o 0.916565
-10 2 6 540.11 508.15 34.26 o 0.916565
14 2 0 638.58 598.53 42.44 o 0.916293
-14 2 0 638.58 598.52 41.03 o 0.916293
4 4 7 2146.08 2019.63 144.86 o 0.914759
-4 4 7 2146.08 2019.63 148.38 o 0.914759
-12 4 1 114.43 108.58 6.13 o 0.914398
12 4 1 114.43 108.57 8.02 o 0.914398
-9 4 5 671.50 632.99 43.05 o 0.912445
-9 3 6 16.12 15.19 1.27 o 0.912445
9 4 5 671.50 632.99 45.65 o 0.912445
9 3 6 16.12 15.19 0.86 o 0.912445
8 6 0 2592.66 2436.89 170.41 o 0.912189
-8 6 0 2592.66 2436.89 173.47 o 0.912189
-12 1 5 118.91 110.91 8.22 o 0.911965
12 1 5 118.91 110.91 7.96 o 0.911965
-10 5 2 347.92 321.27 21.55 o 0.910878
10 5 2 347.92 321.27 23.90 o 0.910878
14 2 1 2863.32 2642.51 208.89 o 0.910611
-14 2 1 2863.32 2642.52 199.01 o 0.910611
-9 1 7 183.19 165.24 14.00 o 0.910027
9 1 7 183.19 165.24 14.03 o 0.910027
0 7 2 1328.01 1192.10 101.73 o 0.909951
13 1 4 165.47 152.15 12.42 o 0.909783
-13 1 4 165.47 152.14 11.30 o 0.909783
4 5 6 2476.11 2175.46 183.97 o 0.908306
-4 5 6 2476.11 2175.46 194.11 o 0.908306
1 7 2 2381.13 2103.68 191.19 o 0.907849
-1 7 2 2381.14 2103.69 190.17 o 0.907849
-3 7 1 1949.87 1714.39 158.38 o 0.907827
3 7 1 1949.87 1714.39 152.51 o 0.907827
11 0 6 1217.25 1063.37 89.60 o 0.907519
-11 0 6 1217.24 1063.37 97.73 o 0.907519
-3 3 8 11.59 10.19 0.85 o 0.907031
3 3 8 11.59 10.19 1.25 o 0.907031
-7 3 7 626.03 545.63 46.87 o 0.906921
7 3 7 626.03 545.64 49.99 o 0.906921
0 6 5 7.90 6.87 0.66 o 0.906758
13 3 2 91.05 79.53 7.18 o 0.906592
-13 3 2 91.05 79.53 6.73 o 0.906592
-8 6 1 183.75 160.51 14.67 o 0.906582
8 6 1 183.75 160.51 13.96 o 0.906582
1 6 5 30.27 26.05 2.75 o 0.904678
-1 6 5 30.27 26.05 2.50 o 0.904678
-5 6 4 6817.87 5807.17 566.77 o 0.904613
5 6 4 6817.87 5807.17 547.31 o 0.904613
-7 0 8 1176.06 1036.14 118.94 o 0.902192
7 0 8 1176.07 1036.15 124.02 o 0.902192
2 7 2 564.05 472.61 54.09 o 0.901630
-2 7 2 564.05 472.61 49.98 o 0.901630
0 1 9 0.11 0.09 0.04 o 0.901251
-7 5 5 94.44 79.15 8.84 o 0.900632
7 5 5 94.44 79.15 6.71 o 0.900632
1 1 9 411.83 315.48 45.14 o 0.899209
-1 1 9 411.83 315.48 47.52 o 0.899209
11 1 6 665.35 558.61 56.62 o 0.898887
-11 1 6 665.35 558.61 60.94 o 0.898887
-4 7 0 3849.62 3183.93 367.95 o 0.898878
4 7 0 3849.62 3183.93 360.84 o 0.898878
2 6 5 105.30 86.70 9.42 o 0.898524
-2 6 5 105.30 86.70 10.06 o 0.898524
-12 4 2 23.61 19.26 1.86 o 0.897764
12 4 2 23.61 19.26 2.08 o 0.897764
-5 4 7 389.71 292.64 34.18 o 0.896063
5 4 7 389.71 292.64 36.66 o 0.896063
6 2 8 941.24 714.20 95.80 o 0.894601
-6 2 8 941.24 714.20 91.95 o 0.894601
14 2 2 296.93 224.45 21.14 o 0.894179
-14 2 2 296.93 224.45 23.72 o 0.894179
-7 1 8 1108.73 796.75 99.03 o 0.893710
7 1 8 1108.73 796.75 101.99 o 0.893710
-7 6 3 32.33 24.99 2.18 o 0.893710
7 6 3 32.33 24.99 2.40 o 0.893710
-4 7 1 1261.71 957.39 96.22 o 0.893512
4 7 1 1261.71 957.39 103.87 o 0.893512
2 1 9 4.33 3.14 0.31 o 0.893164
-2 1 9 4.33 3.14 0.47 o 0.893164
4 3 8 117.10 85.80 10.86 o 0.892753
-4 3 8 117.10 85.80 10.17 o 0.892753
14 1 3 449.14 354.33 31.71 o 0.892660
-14 1 3 449.13 354.33 32.31 o 0.892660
-12 3 4 5.40 4.29 0.37 o 0.892418
12 3 4 5.40 4.29 0.37 o 0.892418
-3 7 2 225.34 176.59 17.26 o 0.891543
3 7 2 225.34 176.59 14.28 o 0.891543
11 3 5 377.92 297.70 23.30 o 0.890497
-11 3 5 377.93 297.70 23.36 o 0.890497
8 6 2 3917.51 3061.44 244.66 o 0.890364
-8 6 2 3917.51 3061.43 237.02 o 0.890364
-5 5 6 176.25 138.34 10.32 o 0.889996
5 5 6 176.25 138.34 11.09 o 0.889996
-3 6 5 200.99 158.62 11.52 o 0.888539
3 6 5 200.99 158.62 13.43 o 0.888539
8 4 6 2530.52 1995.25 148.83 o 0.887372
-8 4 6 2530.51 1995.24 150.34 o 0.887372
-12 2 5 5250.27 4114.81 302.58 o 0.886423
12 2 5 5250.27 4114.81 304.15 o 0.886423
-9 2 7 2995.81 2374.70 176.98 o 0.884643
9 5 4 7551.75 5994.07 429.04 o 0.884643
9 2 7 2995.81 2374.71 173.94 o 0.884643
-9 5 4 7551.75 5994.06 427.77 o 0.884643
11 5 1 181.54 144.15 9.80 o 0.884541
-11 5 1 181.54 144.15 10.62 o 0.884541
13 2 4 1048.86 835.64 60.68 o 0.884419
-13 2 4 1048.86 835.64 58.36 o 0.884419
-10 5 3 191.92 152.69 10.12 o 0.883950
10 5 3 191.92 152.69 11.29 o 0.883950
3 1 9 2044.63 1591.02 128.09 o 0.883355
-3 1 9 2044.63 1591.03 125.33 o 0.883355
0 7 3 1191.38 943.77 71.70 o 0.883103
-6 6 4 175.18 138.66 9.43 o 0.882645
6 6 4 175.18 138.66 10.61 o 0.882645
1 7 3 2152.20 1705.66 121.99 o 0.881181
-1 7 3 2152.20 1705.66 133.00 o 0.881181
-11 4 4 2185.27 1740.81 122.09 o 0.880152
11 4 4 2185.27 1740.81 126.01 o 0.880152
13 3 3 3091.47 2459.38 179.46 o 0.880031
-13 3 3 3091.47 2459.37 170.54 o 0.880031
-4 7 2 321.40 262.23 21.14 o 0.877973
4 7 2 321.40 262.23 19.38 o 0.877973
15 1 1 567.14 466.30 34.83 o 0.877722
-15 1 1 567.13 466.29 35.22 o 0.877722
8 3 7 431.56 352.23 26.51 o 0.877134
-8 3 7 431.56 352.23 27.64 o 0.877134
0 2 9 518.40 403.82 41.89 o 0.876575
-5 7 1 466.25 376.36 28.57 o 0.876065
5 7 1 466.25 376.36 33.73 o 0.876065
2 7 3 264.80 210.48 19.69 o 0.875491
-2 7 3 264.81 210.48 17.62 o 0.875491
-5 3 8 72.45 58.55 5.64 o 0.875350
5 3 8 72.45 58.55 5.84 o 0.875350
-4 6 5 30.00 24.28 2.48 o 0.875104
4 6 5 30.00 24.28 1.68 o 0.875104
-6 4 7 152.01 122.44 11.84 o 0.874698
6 4 7 152.01 122.44 9.35 o 0.874698
1 2 9 3762.53 3088.87 321.60 o 0.874695
-1 2 9 3762.54 3088.88 315.24 o 0.874695
-10 4 5 755.48 610.77 51.28 o 0.874540
10 4 5 755.48 610.77 47.13 o 0.874540
10 3 6 11.89 9.57 0.74 o 0.874540
-10 3 6 11.89 9.57 0.82 o 0.874540
11 2 6 148.49 119.10 10.75 o 0.874400
-11 2 6 148.50 119.10 9.41 o 0.874400
14 3 0 22.73 18.20 1.24 o 0.874304
-14 3 0 22.73 18.20 1.84 o 0.874304
9 6 1 6.46 5.19 0.46 o 0.873077
-9 6 1 6.46 5.19 0.40 o 0.873077
8 0 8 818.96 674.79 67.56 o 0.872853
-8 0 8 818.96 674.79 70.10 o 0.872853
10 1 7 83.07 68.32 8.64 o 0.872411
-10 1 7 83.07 68.32 4.57 o 0.872411
-12 4 3 854.52 700.63 61.27 o 0.871950
12 4 3 854.52 700.63 67.37 o 0.871950
0 5 7 546.62 451.87 45.94 o 0.871596
8 5 5 805.51 661.50 60.80 o 0.871440
-8 5 5 805.50 661.50 64.42 o 0.871440
15 0 2 1456.97 1210.05 123.17 o 0.870608
-15 0 2 1456.97 1210.05 119.58 o 0.870608
4 1 9 205.04 173.66 19.38 o 0.870151
-4 1 9 205.04 173.66 21.03 o 0.870151
1 5 7 428.21 366.15 39.84 o 0.869749
-1 5 7 428.21 366.15 38.10 o 0.869749
-7 2 8 231.11 196.16 23.46 o 0.869632
7 2 8 231.11 196.16 20.01 o 0.869632
11 5 2 1617.45 1348.54 135.64 o 0.869458
-11 5 2 1617.44 1348.53 133.86 o 0.869458
14 3 1 699.10 585.54 57.73 o 0.869364
-14 3 1 699.11 585.55 63.80 o 0.869364
2 2 9 296.98 248.56 32.36 o 0.869129
-2 2 9 296.98 248.55 30.51 o 0.869129
-6 5 6 2021.34 1729.78 178.43 o 0.869051
6 5 6 2021.33 1729.78 184.77 o 0.869051
14 2 3 767.09 654.41 71.78 o 0.868665
-14 2 3 767.08 654.40 66.92 o 0.868665
0 4 8 2015.70 1697.77 230.64 o 0.867396
-3 7 3 124.92 104.74 15.13 o 0.866247
3 7 3 124.92 104.74 11.95 o 0.866247
1 4 8 975.75 842.22 123.65 o 0.865575
-1 4 8 975.75 842.22 125.63 o 0.865575
14 0 4 671.13 571.71 78.71 o 0.865195
-14 0 4 671.13 571.71 71.80 o 0.865195
13 4 1 1526.68 1292.33 160.49 o 0.865173
-13 4 1 1526.68 1292.32 165.09 o 0.865173
8 1 8 674.56 582.88 83.47 o 0.865165
-8 1 8 674.56 582.88 80.87 o 0.865165
8 6 3 48.19 40.34 5.50 o 0.865165
-8 6 3 48.19 40.33 5.58 o 0.865165
