#------------------------------------------------------------------------------
#$Date: 2015-07-08 23:11:43 +0300 (Wed, 08 Jul 2015) $
#$Revision: 141323 $
#$URL: svn://www.crystallography.net/cod/cif/4/34/34/4343429.cif $
#------------------------------------------------------------------------------
#
# This file is available in the Crystallography Open Database (COD),
# http://www.crystallography.net/
#
# All data on this site have been placed in the public domain by the
# contributors.
#
data_4343429
loop_
_publ_author_name
'Greenfield, Tiffany J.'
'Hoffman, Amanda E.'
'Marino, Nadia'
'Goos, Alan G.'
'Lloret, Francesc'
'Julve, Miguel'
'Doyle, Robert P.'
_publ_section_title
;
 Ferromagnetic Coupling in &quot;Double-Bridged&quot;
 Dihydrogenpyrophosphate Complexes of Cobalt(II) and Nickel(II).
;
_journal_issue                   13
_journal_name_full               'Inorganic chemistry'
_journal_page_first              6537
_journal_page_last               6546
_journal_paper_doi               10.1021/acs.inorgchem.5b00866
_journal_volume                  54
_journal_year                    2015
_chemical_formula_moiety         'C20 H24 Ni2 N4 O16 P4, 2(H2 O)'
_chemical_formula_sum            'C20 H28 N4 Ni2 O18 P4'
_chemical_formula_weight         853.76
_chemical_name_systematic
;
 ?
;
_space_group_crystal_system      triclinic
_space_group_IT_number           2
_space_group_name_Hall           '-P 1'
_space_group_name_H-M_alt        'P -1'
_symmetry_space_group_name_Hall  '-P 1'
_symmetry_space_group_name_H-M   'P -1'
_atom_sites_solution_hydrogens   mixed
_atom_sites_solution_primary     direct
_atom_sites_solution_secondary   difmap
_audit_creation_method           SHELXL-2013
_cell_angle_alpha                83.110(4)
_cell_angle_beta                 79.799(4)
_cell_angle_gamma                67.755(4)
_cell_formula_units_Z            1
_cell_length_a                   8.0187(15)
_cell_length_b                   9.4817(18)
_cell_length_c                   10.757(2)
_cell_measurement_temperature    90(2)
_cell_volume                     743.8(2)
_computing_cell_refinement       'Bruker SAINT'
_computing_data_collection       'Bruker APEX2'
_computing_data_reduction        'Bruker SAINT'
_computing_molecular_graphics    'Bruker SHELXTL'
_computing_publication_material  'Bruker SHELXTL'
_computing_structure_refinement  'SHELXL-2013 (Sheldrick, 2013)'
_computing_structure_solution    'SHELXS-97 (Sheldrick, 2008)'
_diffrn_ambient_temperature      90(2)
_diffrn_measured_fraction_theta_full 0.999
_diffrn_measured_fraction_theta_max 0.995
_diffrn_measurement_device_type  'CCD area detector'
_diffrn_measurement_method       '\f and \w scans'
_diffrn_radiation_source         'fine-focus sealed tube'
_diffrn_radiation_type           MoK\a
_diffrn_radiation_wavelength     0.71073
_diffrn_reflns_av_unetI/netI     0.0317
_diffrn_reflns_laue_measured_fraction_full 0.999
_diffrn_reflns_laue_measured_fraction_max 0.995
_diffrn_reflns_limit_h_max       10
_diffrn_reflns_limit_h_min       -9
_diffrn_reflns_limit_k_max       11
_diffrn_reflns_limit_k_min       -11
_diffrn_reflns_limit_l_max       13
_diffrn_reflns_limit_l_min       0
_diffrn_reflns_number            3010
_diffrn_reflns_point_group_measured_fraction_full 0.999
_diffrn_reflns_point_group_measured_fraction_max 0.995
_diffrn_reflns_theta_full        25.242
_diffrn_reflns_theta_max         26.404
_diffrn_reflns_theta_min         1.927
_exptl_absorpt_coefficient_mu    1.572
_exptl_absorpt_correction_T_max  0.7454
_exptl_absorpt_correction_T_min  0.6764
_exptl_absorpt_correction_type   multi-scan
_exptl_absorpt_process_details   'TWINABS (Sheldrick, 2012)'
_exptl_crystal_colour            Green
_exptl_crystal_density_diffrn    1.906
_exptl_crystal_description       Block
_exptl_crystal_F_000             436
_exptl_crystal_size_max          0.200
_exptl_crystal_size_mid          0.200
_exptl_crystal_size_min          0.200
_refine_diff_density_max         0.494
_refine_diff_density_min         -0.451
_refine_diff_density_rms         0.118
_refine_ls_extinction_method     none
_refine_ls_goodness_of_fit_ref   1.099
_refine_ls_hydrogen_treatment    mixed
_refine_ls_matrix_type           full
_refine_ls_number_parameters     232
_refine_ls_number_reflns         3010
_refine_ls_number_restraints     4
_refine_ls_restrained_S_all      1.099
_refine_ls_R_factor_all          0.0362
_refine_ls_R_factor_gt           0.0303
_refine_ls_shift/su_max          0.000
_refine_ls_shift/su_mean         0.000
_refine_ls_structure_factor_coef Fsqd
_refine_ls_weighting_details
'w=1/[\s^2^(Fo^2^)+(0.0703P)^2^] where P=(Fo^2^+2Fc^2^)/3'
_refine_ls_weighting_scheme      calc
_refine_ls_wR_factor_gt          0.0928
_refine_ls_wR_factor_ref         0.0997
_reflns_Friedel_coverage         0.000
_reflns_number_gt                2717
_reflns_number_total             3010
_reflns_threshold_expression     'I > 2\s(I)'
_cod_data_source_file            ic5b00866_si_001.cif
_cod_data_source_block           2
_cod_depositor_comments
;
The following automatic conversions were performed:

'_exptl_absorpt_correction_type' value 'Multi-scan' changed to
'multi-scan' according to
/usr/data/users/saulius/crontab/automatic-downloads/rss-feeds/ACS/lib/dictionaries/cif_core.dic
dictionary named 'cif_core.dic' version 2.4.2 from 2011-04-26.

Automatic conversion script
Id: cif_fix_values 3271 2015-04-21 07:52:19Z andrius 

 Adding full bibliography for 4343428--4343430.cif.
;
_cod_database_code               4343429
_shelx_space_group_comment
;
The symmetry employed for this shelxl refinement is uniquely defined
by the following loop, which should always be used as a source of
symmetry information in preference to the above space-group names.
They are only intended as comments.
;
_shelx_estimated_absorpt_t_min   0.744
_shelx_estimated_absorpt_t_max   0.744
_shelxl_version_number           2013-4
_shelx_res_file
;
REM Solution 1  R1  0.119  Rweak  0.032,  Alpha = 0.0747  in P-1
REM Formula:  C11 N4 O6 P2 Ni
TITL twin4 in P-1
CELL  0.71073   8.0187   9.4817  10.7570   83.110   79.799   67.755
ZERR    1.00   0.00150   0.00180   0.00210   0.0042   0.0043   0.0038
LATT  1
SFAC C  H  N  O  P  Ni
UNIT 20  28  4  18  4  2

TEMP -183.000

SIZE 0.20 0.20 0.20

L.S. 20

BOND $H

LIST 4

FMAP 2

ACTA

HTAB

Dfix 0.82 O1w H1wa O1w h1wb O2w H2wa O2w H2wb

EQIV $1 x+1, y, z
EQIV $2 -x+1, -y+1, -z+1
EQIV $3 -x, -y+2, -z+1
EQIV $4 -x+1, -y+2, -z+1

HTAB O1W O2W_$1
HTAB O1W O7_$2
HTAB O2W O7
HTAB O2W O5_$2
HTAB O2 O7_$3
HTAB O6 O1_$4

bind ni1 ni1_$4

PLAN 10
WGHT    0.070300
BASF   0.46852
FVAR       0.68216
NI1   6    0.587639    0.764002    0.664915    11.00000    0.00959    0.00917 =
         0.00641   -0.00002   -0.00181   -0.00359
P1    5    0.231407    1.061596    0.577890    11.00000    0.00810    0.00866 =
         0.00782   -0.00089   -0.00075   -0.00304
P2    5    0.347844    0.774898    0.451643    11.00000    0.01017    0.00822 =
         0.00967   -0.00158   -0.00281   -0.00354
O1    4    0.394586    0.990042    0.647947    11.00000    0.01074    0.00816 =
         0.00857    0.00120   -0.00257   -0.00303
O2    4    0.057120    1.118346    0.678834    11.00000    0.00899    0.01129 =
         0.00939   -0.00109   -0.00112   -0.00118
AFIX 147
H2O   2   -0.031718    1.175294    0.642802    11.00000   -1.50000
AFIX   0
O3    4    0.235984    1.184244    0.479540    11.00000    0.00984    0.01376 =
         0.01088    0.00241   -0.00035   -0.00470
O4    4    0.205391    0.926918    0.515959    11.00000    0.01085    0.00969 =
         0.01632   -0.00527   -0.00344   -0.00205
O5    4    0.480764    0.688658    0.540033    11.00000    0.01367    0.01039 =
         0.01379   -0.00270   -0.00466   -0.00192
O6    4    0.438999    0.831191    0.324937    11.00000    0.01914    0.01727 =
         0.01027    0.00063   -0.00406   -0.01073
AFIX 147
H6O   2    0.497838    0.882069    0.340883    11.00000   -1.50000
AFIX   0
O7    4    0.229786    0.697973    0.418690    11.00000    0.01347    0.01039 =
         0.01471   -0.00128   -0.00595   -0.00600
O1W   4    0.779302    0.548596    0.683996    11.00000    0.01189    0.01077 =
         0.01179   -0.00137   -0.00229   -0.00347
H1WA  2    0.890256    0.526482    0.666242    11.00000   -1.50000
H1WB  2    0.774124    0.485830    0.640408    11.00000   -1.50000
O2W   4    0.137509    0.495706    0.617094    11.00000    0.01673    0.02258 =
         0.01741   -0.00423   -0.00048   -0.00395
H2WA  2    0.163341    0.559889    0.567094    11.00000   -1.50000
H2WB  2    0.205687    0.414376    0.588334    11.00000   -1.50000
N1    3    0.429147    0.702164    0.817652    11.00000    0.01201    0.00715 =
         0.01013    0.00345   -0.00362   -0.00149
N2    3    0.677513    0.823565    0.811570    11.00000    0.01164    0.00888 =
         0.00850    0.00001   -0.00288   -0.00136
C1    1    0.312517    0.634586    0.811933    11.00000    0.01265    0.01713 =
         0.01472   -0.00077   -0.00528   -0.00261
AFIX  43
H1A   2    0.296610    0.614213    0.731374    11.00000   -1.20000
AFIX   0
C2    1    0.213570    0.592896    0.918956    11.00000    0.01055    0.01828 =
         0.02565    0.00113   -0.00252   -0.00513
AFIX  43
H2A   2    0.132227    0.543878    0.911949    11.00000   -1.20000
AFIX   0
C3    1    0.235182    0.623875    1.036480    11.00000    0.01563    0.01730 =
         0.01442    0.00677    0.00142   -0.00395
AFIX  43
H3A   2    0.166964    0.598343    1.111254    11.00000   -1.20000
AFIX   0
C4    1    0.358446    0.693020    1.043335    11.00000    0.01289    0.01615 =
         0.01224   -0.00018   -0.00062   -0.00104
AFIX  43
H4A   2    0.375217    0.715837    1.122791    11.00000   -1.20000
AFIX   0
C5    1    0.456766    0.728175    0.931697    11.00000    0.00971    0.00827 =
         0.01370   -0.00389   -0.00002    0.00095
C6    1    0.599595    0.793618    0.928451    11.00000    0.01405    0.01119 =
         0.01304    0.00105   -0.00315   -0.00324
C7    1    0.651418    0.820286    1.036531    11.00000    0.01579    0.01607 =
         0.01292   -0.00429   -0.00259   -0.00302
AFIX  43
H7A   2    0.595260    0.797077    1.117656    11.00000   -1.20000
AFIX   0
C8    1    0.785459    0.880929    1.025720    11.00000    0.01984    0.01449 =
         0.01797   -0.00677   -0.00632   -0.00205
AFIX  43
H8A   2    0.823098    0.899990    1.098872    11.00000   -1.20000
AFIX   0
C9    1    0.864407    0.913590    0.904680    11.00000    0.01611    0.01564 =
         0.01869   -0.00366   -0.00529   -0.00669
AFIX  43
H9A   2    0.954788    0.957739    0.894108    11.00000   -1.20000
AFIX   0
C10   1    0.809649    0.881040    0.801195    11.00000    0.01238    0.01121 =
         0.01448   -0.00027   -0.00360   -0.00296
AFIX  43
H10A  2    0.867154    0.899775    0.719201    11.00000   -1.20000
AFIX   0
HKLF 5

REM  twin4 in P-1
REM R1 =  0.0303 for    2717 Fo > 4sig(Fo)  and  0.0362 for all    3010 data
REM    232 parameters refined using      4 restraints

END

WGHT      0.0703      0.0000

REM Instructions for potential hydrogen bonds
HTAB O2 O7_$3
HTAB O6 O1_$4
HTAB O1W O2W_$1
HTAB O1W O7_$2
HTAB O2W O7
EQIV $5 x, y-1, z
HTAB O2W O3_$5
HTAB O2W O5_$2
HTAB C1 O5
HTAB C1 O2W
EQIV $6 x, y, z+1
HTAB C7 O6_$6

REM Highest difference peak  0.494,  deepest hole -0.451,  1-sigma level  0.118
Q1    1   0.2796  0.6360  0.3756  11.00000  0.05    0.49
Q2    1   0.5829  0.7809  0.7600  11.00000  0.05    0.48
Q3    1   0.2563  0.5740  0.4429  11.00000  0.05    0.45
Q4    1   0.3562  0.8731  0.4827  11.00000  0.05    0.45
Q5    1   0.6567  0.8849  0.7582  11.00000  0.05    0.44
Q6    1   0.7646  0.7795  0.7850  11.00000  0.05    0.44
Q7    1   0.3484  1.0433  0.5834  11.00000  0.05    0.43
Q8    1   0.2373  0.6896  0.2816  11.00000  0.05    0.40
Q9    1   0.4629  0.7551  0.5637  11.00000  0.05    0.40
Q10   1   0.5981  0.8522  0.6771  11.00000  0.05    0.40
;
_shelx_res_checksum              16136
_shelx_hkl_file
;
   1   0   0 2450.36 24.3733   1
   2   0   1 1536.40 23.6992  -2
   2   0   0 1536.40 23.6992   1
   3   0   1 129.191 7.32130  -2
   3   0   0 129.191 7.32130   1
   4   0   0 26.2190 1.68027   1
   5   0   2 1104.94 10.1878  -2
   5   0   0 1104.94 10.1878   1
   6   0   0 314.023 6.63629   1
   7   0   3 205.382 7.24656  -2
   7   0   0 205.382 7.24656   1
   8   0   3 34.9137 14.2991  -2
   8   0   0 34.9137 14.2991   1
   9   0   4 257.585 10.6457  -2
   9   0   0 257.585 10.6457   1
   8  -1   3 231.704 8.83023  -2
  -8   1   0 231.704 8.83023   1
   7  -1   3 361.936 16.0566  -2
  -7   1   0 361.936 16.0566   1
  -6   1   0 0.28953 2.58622   1
   5  -1   2 381.247 7.17723  -2
  -5   1   0 381.247 7.17723   1
  -4   1   0 88.3655 2.94350   1
   3  -1   1 440.395 5.29107  -2
  -3   1   0 440.395 5.29107   1
  -2   1   0 3.15744 1.19070   1
  -1   1   0 22.6144 2.19240   1
   0   1   0 641.868 6.54763   1
   1   1   0 124.396 2.13884   1
   2   1   1 95.1227 2.99316  -2
   2   1   0 95.1227 2.99316   1
   3   1   0 29.3671 1.57268   1
   4   1   2 60.5225 7.23027  -2
   4   1   0 60.5225 7.23027   1
   5   1   2 39.7623 8.39013  -2
   5   1   0 39.7623 8.39013   1
   6   1   0 189.749 5.39725   1
   7   1   3 92.1306 5.09454  -2
   7   1   0 92.1306 5.09454   1
   8   1   0 305.467 7.57836   1
   9   1   4 187.149 8.80537  -2
   9   1   0 187.149 8.80537   1
   8  -2   3 1.15288 5.42372  -2
  -8   2   0 1.15288 5.42372   1
  -7   2   0 68.2960 4.42140   1
   6  -2   2 198.184 7.52782  -2
  -6   2   0 198.184 7.52782   1
   5  -2   2 62.7146 6.97715  -2
  -5   2   0 62.7146 6.97715   1
  -4   2   0 122.829 3.41535   1
   3  -2   1 1138.18 10.0973  -2
  -3   2   0 1138.18 10.0973   1
  -2   2   0 509.232 5.68785   1
  -1   2   0 9999.99 101.487   1
   0   2   0 1592.79 15.9248   1
   1   2   0 129.266 1.74745   1
   2   2   1 870.839 15.1916  -2
   2   2   0 870.839 15.1916   1
   3   2   0 235.086 3.01829   1
   4   2   2 1138.36 9.99677  -2
   4   2   0 1138.36 9.99677   1
   5   2   0 318.872 4.09364   1
   6   2   3 387.227 13.8273  -2
   6   2   0 387.227 13.8273   1
   7   2   3 494.793 9.19321  -2
   7   2   0 494.793 9.19321   1
   8   2   0 99.9357 5.58973   1
   9   2   4 281.845 9.83461  -2
   9   2   0 281.845 9.83461   1
  -7   3   0 30.9692 3.87367   1
   6  -3   2 359.808 7.88393  -2
  -6   3   0 359.808 7.88393   1
  -5   3   0 13.0161 2.36616   1
   4  -3   1 834.713 16.7939  -2
  -4   3   0 834.713 16.7939   1
   3  -3   1 716.555 13.4840  -2
  -3   3   0 716.555 13.4840   1
  -2   3   0 376.520 4.90050   1
  -1   3   0 2.68211 1.71619  -2
  -1   3   0 2.68211 1.71619   1
   0   3   0 267.014 3.31734   1
   1   3   0 302.794 4.09734   1
   2   3   1 348.978 8.75272  -2
   2   3   0 348.978 8.75272   1
   3   3   0 135.363 2.96166   1
   4   3   2 427.195 6.33225  -2
   4   3   0 427.195 6.33225   1
   5   3   0 0.09372 1.47726   1
   6   3   3 26.9532 3.69081  -2
   6   3   0 26.9532 3.69081   1
   7   3   0 147.579 3.65567   1
   8   3   4 634.901 20.5649  -2
   8   3   0 634.901 20.5649   1
   9   3   4 375.160 17.6201  -2
   9   3   0 375.160 17.6201   1
   7  -4   2 106.155 15.0789  -2
  -7   4   0 106.155 15.0789   1
   6  -4   2 72.0339 5.72427  -2
  -6   4   0 72.0339 5.72427   1
  -5   4   0 69.3306 3.58911   1
   4  -4   1 132.130 4.78624  -2
  -4   4   0 132.130 4.78624   1
  -3   4   0 1.80986 1.74447   1
  -2   4   0 757.174 8.29636   1
  -1   4   0 1855.22 19.1172   1
   0   4   0 381.975 5.82009   1
   1   4   1 259.198 4.32205  -2
   1   4   0 259.198 4.32205   1
   2   4   0 2.77719 1.13505   1
   3   4   2 1097.93 19.4289  -2
   3   4   0 1097.93 19.4289   1
   4   4   2 1778.01 29.6912  -2
   4   4   0 1778.01 29.6912   1
   5   4   0 399.807 5.70354   1
   6   4   3 823.637 9.35366  -2
   6   4   0 823.637 9.35366   1
   7   4   0 79.9258 3.57716   1
   8   4   4 468.714 9.11617  -2
   8   4   0 468.714 9.11617   1
   9   4   4 197.989 17.1588  -2
   9   4   0 197.989 17.1588   1
   6  -5   2 53.7695 7.25759  -2
  -6   5   0 53.7695 7.25759   1
  -5   5   0 270.367 5.94063   1
   4  -5   1 898.648 10.0746  -2
  -4   5   0 898.648 10.0746   1
  -3   5   0 503.880 6.62231   1
  -2   5   0 99.0513 4.52618  -2
  -2   5   0 99.0513 4.52618   1
  -1   5   0 77.8310 2.97264   1
   0   5   0 -0.0639 1.83539   1
   1   5   1 1285.34 22.8156  -2
   1   5   0 1285.34 22.8156   1
   2   5   0 68.4040 2.35272   1
   3   5   2 939.588 7.47897  -2
   3   5   0 939.588 7.47897   1
   4   5   0 46.3620 2.70348   1
   5   5   3 237.533 11.4309  -2
   5   5   0 237.533 11.4309   1
   6   5   3 300.774 8.08545  -2
   6   5   0 300.774 8.08545   1
   7   5   0 318.338 5.38427   1
   8   5   4 130.825 4.64385  -2
   8   5   0 130.825 4.64385   1
   9   5   0 48.0329 3.88991   1
  -6   6   0 21.8464 4.83029   1
   5  -6   1 58.5432 7.56598  -2
  -5   6   0 58.5432 7.56598   1
   4  -6   1 136.161 7.46844  -2
  -4   6   0 136.161 7.46844   1
  -3   6   0 66.9156 4.09834   1
  -2   6   0 112.101 4.50378  -2
  -2   6   0 112.101 4.50378   1
  -1   6   0 17.5171 2.07827   1
   0   6   1 187.670 7.68284  -2
   0   6   0 187.670 7.68284   1
   1   6   0 2.04880 2.25553   1
   2   6   0 308.933 5.46420   1
   3   6   2 284.946 4.80828  -2
   3   6   0 284.946 4.80828   1
   4   6   0 297.307 4.74942   1
   5   6   3 1095.54 11.1913  -2
   5   6   0 1095.54 11.1913   1
   6   6   0 242.720 5.27895   1
   7   6   4 280.886 14.7621  -2
   7   6   0 280.886 14.7621   1
   8   6   4 60.7945 5.90914  -2
   8   6   0 60.7945 5.90914   1
   9   6   0 2.69958 2.57663   1
   5  -7   1 65.8509 10.4463  -2
  -5   7   0 65.8509 10.4463   1
  -4   7   0 219.765 10.1760   1
  -3   7   0 856.549 19.3446  -2
  -3   7   0 856.549 19.3446   1
  -2   7   0 334.602 8.15608  -2
  -2   7   0 334.602 8.15608   1
  -1   7   0 22.4404 2.02776   1
   0   7   1 692.324 13.7956  -2
   0   7   0 692.324 13.7956   1
   1   7   0 0.28656 2.51111   1
   2   7   2 794.601 19.5640  -2
   2   7   0 794.601 19.5640   1
   3   7   2 875.351 22.4176  -2
   3   7   0 875.351 22.4176   1
   4   7   0 45.2948 2.65258   1
   5   7   3 12.8675 2.91884  -2
   5   7   0 12.8675 2.91884   1
   6   7   0 -1.0913 2.19672   1
   7   7   4 121.782 6.18269  -2
   7   7   0 121.782 6.18269   1
   8   7   4 116.934 9.97131  -2
   8   7   0 116.934 9.97131   1
   9   7   5 249.621 12.1726  -2
   9   7   0 249.621 12.1726   1
  -4   8   0 8.19413 5.85506   1
  -3   8   0 12.4421 10.0325  -2
  -3   8   0 12.4421 10.0325   1
  -2   8   0 142.937 5.96437   1
  -1   8   0 64.6166 4.34322   1
   0   8   1 87.0787 5.74396  -2
   0   8   0 87.0787 5.74396   1
   1   8   0 8.81327 3.09208   1
   2   8   2 117.897 6.35628  -2
   2   8   0 117.897 6.35628   1
   3   8   0 360.218 6.99967   1
   4   8   0 1477.74 16.3501   1
   5   8   3 350.472 8.38186  -2
   5   8   0 350.472 8.38186   1
   6   8   0 12.1713 3.02308   1
   7   8   4 44.4408 5.34652  -2
   7   8   0 44.4408 5.34652   1
   8   8   0 6.87212 2.75667   1
   9   8   5 438.887 8.91874  -2
   9   8   0 438.887 8.91874   1
  -3   9   0 297.975 12.6354  -2
  -3   9   0 297.975 12.6354   1
  -2   9   0 25.7978 5.94237   1
  -1   9   1 389.404 9.67351  -2
  -1   9   0 389.404 9.67351   1
   0   9   0 35.0301 3.61647   1
   1   9   0 116.786 6.39266   1
   2   9   2 171.853 10.2095  -2
   2   9   0 171.853 10.2095   1
   3   9   0 -1.4282 3.14212   1
   4   9   3 17.6592 5.60421  -2
   4   9   0 17.6592 5.60421   1
   5   9   0 2.08911 2.69827   1
   6   9   0 15.1968 4.30799   1
   7   9   4 71.7414 10.4876  -2
   7   9   0 71.7414 10.4876   1
   8   9   0 40.4572 4.34244   1
  -1  10   1 28.1285 8.25683  -2
  -1  10   0 28.1285 8.25683   1
   0  10   0 0.05217 3.24363   1
   1  10   2 63.7694 9.34107  -2
   1  10   0 63.7694 9.34107   1
   2  10   2 13.2479 9.20373  -2
   2  10   0 13.2479 9.20373   1
   3  10   0 129.040 6.07957   1
   4  10   3 116.224 6.45747  -2
   4  10   0 116.224 6.45747   1
   5  10   0 239.595 5.99792   1
   6  10   4 98.8735 10.0724  -2
   6  10   0 98.8735 10.0724   1
   7  10   4 97.5404 19.2584  -2
   7  10   0 97.5404 19.2584   1
   1  11   2 166.275 9.26047  -2
   1  11   0 166.275 9.26047   1
   2  11   0 116.227 7.81402   1
   3  11   3 28.1021 10.7315  -2
   3  11   0 28.1021 10.7315   1
   4  11   3 8.87950 10.1235  -2
   4  11   0 8.87950 10.1235   1
   5  11   0 9.09231 3.21791   1
   6  11   4 353.827 11.4804  -2
   6  11   0 353.827 11.4804   1
   6  11   5 72.6925 8.24782  -2
  -6 -11   1 72.6925 8.24782   1
  -5 -11   1 23.4461 4.57327   1
   4  11   4 30.4167 9.98266  -2
  -4 -11   1 30.4167 9.98266   1
   3  11   4 53.4037 14.3362  -2
  -3 -11   1 53.4037 14.3362   1
  -2 -11   1 148.301 7.20145   1
   1  11   3 180.755 9.53786  -2
  -1 -11   1 180.755 9.53786   1
   7  10   5 220.616 20.9871  -2
  -7 -10   1 220.616 20.9871   1
   6  10   5 399.233 13.0827  -2
  -6 -10   1 399.233 13.0827   1
  -5 -10   1 211.464 6.70425   1
   4  10   4 84.1396 7.67021  -2
  -4 -10   1 84.1396 7.67021   1
  -3 -10   1 53.2978 5.08195   1
   2  10   3 106.013 13.3392  -2
  -2 -10   1 106.013 13.3392   1
   1  10   3 355.306 15.8567  -2
  -1 -10   1 355.306 15.8567   1
   0 -10   1 146.206 8.26050   1
  -1  10   2 201.664 7.57670  -2
   1 -10   1 201.664 7.57670   1
  -8  -9   1 36.0827 5.09921   1
   7   9   5 0.08643 7.44062  -2
  -7  -9   1 0.08643 7.44062   1
  -6  -9   1 98.3870 6.73816   1
  -5  -9   1 103.298 5.28189   1
   4   9   4 220.405 8.82518  -2
  -4  -9   1 220.405 8.82518   1
  -3  -9   1 5.13092 3.43769   1
   2   9   3 341.522 9.94747  -2
  -2  -9   1 341.522 9.94747   1
  -1  -9   1 245.939 7.96111   1
   0  -9   1 2.33589 4.56357   1
  -1   9   2 348.280 11.7285  -2
   1  -9   1 348.280 11.7285   1
   2  -9   1 6.76217 3.60372   1
  -3   9   1 280.066 8.68563  -2
   3  -9   1 280.066 8.68563   1
  -8  -8   1 0.87146 2.57282   1
   7   8   5 320.139 7.98774  -2
  -7  -8   1 320.139 7.98774   1
  -6  -8   1 84.1198 4.69887   1
   5   8   4 122.717 7.17396  -2
  -5  -8   1 122.717 7.17396   1
   4   8   4 321.672 10.6115  -2
  -4  -8   1 321.672 10.6115   1
  -3  -8   1 79.2582 5.45974   1
   2   8   3 480.061 10.1884  -2
  -2  -8   1 480.061 10.1884   1
  -1  -8   1 277.807 7.62164   1
   0   8   2 351.124 12.5605  -2
   0  -8   1 351.124 12.5605   1
   1  -8   1 12.2008 4.44434   1
   2  -8   1 40.8797 3.90767   1
  -3   8   1 137.201 7.89713  -2
   3  -8   1 137.201 7.89713   1
   4  -8   1 564.570 11.1080   1
   9   7   6 432.156 21.3795  -2
  -9  -7   1 432.156 21.3795   1
   8   7   5 362.451 12.3485  -2
  -8  -7   1 362.451 12.3485   1
   7   7   5 155.718 5.70759  -2
  -7  -7   1 155.718 5.70759   1
  -6  -7   1 110.354 3.94004   1
   5   7   4 227.088 5.25038  -2
  -5  -7   1 227.088 5.25038   1
  -4  -7   1 145.089 3.99974   1
   3   7   3 1315.90 28.9409  -2
  -3  -7   1 1315.90 28.9409   1
   2   7   3 1397.62 27.4857  -2
  -2  -7   1 1397.62 27.4857   1
  -1  -7   1 32.2943 3.48280   1
   0   7   2 267.254 9.07390  -2
   0  -7   1 267.254 9.07390   1
   1  -7   1 8.34637 2.24697   1
  -2   7   1 652.661 12.8126  -2
   2  -7   1 652.661 12.8126   1
  -3   7   1 655.856 17.2838  -2
   3  -7   1 655.856 17.2838   1
   4  -7   1 13.9706 3.73672   1
  -5   7   0 70.5458 7.12069  -2
   5  -7   1 70.5458 7.12069   1
  -9  -6   1 -0.8475 3.08244   1
   8   6   5 267.476 7.12635  -2
  -8  -6   1 267.476 7.12635   1
   7   6   5 254.263 15.3943  -2
  -7  -6   1 254.263 15.3943   1
   6   6   4 127.763 12.6293  -2
  -6  -6   1 127.763 12.6293   1
   5   6   4 763.792 9.23782  -2
  -5  -6   1 763.792 9.23782   1
  -4  -6   1 252.330 4.70907   1
   3   6   3 187.942 5.18098  -2
  -3  -6   1 187.942 5.18098   1
   2   6   3 453.453 9.98056  -2
  -2  -6   1 453.453 9.98056   1
  -1  -6   1 107.022 3.05747   1
   0   6   2 126.189 6.79056  -2
   0  -6   1 126.189 6.79056   1
   1  -6   1 79.6698 3.64715   1
  -2   6   1 323.015 6.70177  -2
   2  -6   1 323.015 6.70177   1
   3  -6   1 1414.23 15.1458   1
  -4   6   0 129.913 7.74237  -2
   4  -6   1 129.913 7.74237   1
  -5   6   0 50.5768 6.31523  -2
   5  -6   1 50.5768 6.31523   1
   6  -6   1 18.2637 3.61187   1
  -9  -5   1 87.6073 4.54452   1
   8   5   5 164.074 5.75961  -2
  -8  -5   1 164.074 5.75961   1
  -7  -5   1 -0.5036 2.14733   1
   6   5   4 758.268 11.5030  -2
  -6  -5   1 758.268 11.5030   1
   5   5   4 1901.45 23.2091  -2
  -5  -5   1 1901.45 23.2091   1
  -4  -5   1 163.296 3.20377   1
   3   5   3 354.010 4.25631  -2
  -3  -5   1 354.010 4.25631   1
   2   5   3 434.931 11.7995  -2
  -2  -5   1 434.931 11.7995   1
   1   5   2 281.243 4.62788  -2
  -1  -5   1 281.243 4.62788   1
   0  -5   1 240.440 4.13968   1
   1  -5   1 129.599 3.61383   1
  -2   5   1 704.866 10.5215  -2
   2  -5   1 704.866 10.5215   1
   3  -5   1 499.778 7.44319   1
  -4   5   0 838.230 9.76797  -2
   4  -5   1 838.230 9.76797   1
   5  -5   1 47.1718 3.33304   1
   6  -5   1 129.213 8.23603  -2
   6  -5   1 129.213 8.23603   1
   9   4   5 108.183 11.7550  -2
  -9  -4   1 108.183 11.7550   1
   8   4   5 381.711 7.99230  -2
  -8  -4   1 381.711 7.99230   1
  -7  -4   1 12.9638 2.28139   1
   6   4   4 346.899 5.36363  -2
  -6  -4   1 346.899 5.36363   1
  -5  -4   1 294.294 4.45959   1
   4   4   3 314.172 11.2612  -2
  -4  -4   1 314.172 11.2612   1
   3   4   3 196.279 5.09208  -2
  -3  -4   1 196.279 5.09208   1
  -2  -4   1 27.4056 1.44340   1
   1   4   2 159.507 2.73100  -2
  -1  -4   1 159.507 2.73100   1
   0  -4   1 1357.65 12.3156   1
   1  -4   1 8.66982 1.64908   1
   2  -4   1 2328.92 20.1844   1
   3  -4   1 308.339 5.50191   1
  -4   4   0 117.069 4.95047  -2
   4  -4   1 117.069 4.95047   1
   5  -4   1 162.199 4.87594   1
   6  -4   1 -2.9476 5.12985  -2
   6  -4   1 -2.9476 5.12985   1
   7  -4   1 106.610 15.5057  -2
   7  -4   1 106.610 15.5057   1
   9   3   5 682.047 15.2953  -2
  -9  -3   1 682.047 15.2953   1
  -8  -3   1 148.687 7.52401   1
  -7  -3   1 25.9334 2.32445   1
   6   3   4 592.391 7.03108  -2
  -6  -3   1 592.391 7.03108   1
  -5  -3   1 316.931 3.96612   1
   4   3   3 617.277 7.11374  -2
  -4  -3   1 617.277 7.11374   1
  -3  -3   1 521.315 5.08248   1
   2   3   2 1526.98 24.4816  -2
  -2  -3   1 1526.98 24.4816   1
   1   3   2 269.513 4.78437  -2
  -1  -3   1 269.513 4.78437   1
   0  -3   1 96.0680 2.57917   1
  -1   3   1 2021.29 17.4720  -2
   1  -3   1 2021.29 17.4720   1
   2  -3   1 1366.19 12.6063   1
  -3   3   0 741.296 14.7950  -2
   3  -3   1 741.296 14.7950   1
  -4   3   0 816.300 17.3082  -2
   4  -3   1 816.300 17.3082   1
   5  -3   1 29.6504 2.66994   1
   6  -3   1 133.619 6.03676  -2
   6  -3   1 133.619 6.03676   1
   7  -3   1 25.5109 3.86455   1
   9   2   5 159.319 8.65878  -2
  -9  -2   1 159.319 8.65878   1
  -8  -2   1 18.0497 3.46299   1
   7   2   4 90.5835 6.52581  -2
  -7  -2   1 90.5835 6.52581   1
   6   2   4 161.311 11.4102  -2
  -6  -2   1 161.311 11.4102   1
  -5  -2   1 169.748 2.97371   1
   4   2   3 24.4863 2.45330  -2
  -4  -2   1 24.4863 2.45330   1
  -3  -2   1 417.157 4.19674   1
   2   2   2 1338.19 21.6489  -2
  -2  -2   1 1338.19 21.6489   1
   1   2   2 4712.84 67.5553  -2
  -1  -2   1 4712.84 67.5553   1
   0  -2   1 101.862 2.26972   1
   1  -2   1 1225.68 10.9037   1
   2  -2   1 690.477 7.18617   1
  -3   2   0 1100.19 13.3687  -2
   3  -2   1 1100.19 13.3687   1
   4  -2   1 429.198 6.30038   1
   5  -2   1 107.253 10.1724  -2
   5  -2   1 107.253 10.1724   1
   6  -2   1 170.019 7.52368  -2
   6  -2   1 170.019 7.52368   1
   7  -2   1 0.89597 3.08957   1
   8  -2   2 176.100 7.23639  -2
   8  -2   1 176.100 7.23639   1
   9   1   5 199.368 9.06244  -2
  -9  -1   1 199.368 9.06244   1
  -8  -1   1 35.4585 3.91525   1
   7   1   4 245.150 6.70599  -2
  -7  -1   1 245.150 6.70599   1
  -6  -1   1 129.004 4.88116   1
   5   1   3 104.568 8.75445  -2
  -5  -1   1 104.568 8.75445   1
   4   1   3 904.422 17.1871  -2
  -4  -1   1 904.422 17.1871   1
  -3  -1   1 18.7374 1.14049   1
   2   1   2 747.788 5.47101  -2
  -2  -1   1 747.788 5.47101   1
  -1  -1   1 489.380 4.36024   1
   0  -1   1 141.202 2.66345   1
   1  -1   1 245.034 3.25983   1
   2  -1   1 245.228 3.11040   1
  -3   1   0 447.231 5.79947  -2
   3  -1   1 447.231 5.79947   1
   4  -1   1 63.7838 2.19484   1
   5  -1   1 64.6242 3.71758  -2
   5  -1   1 64.6242 3.71758   1
   6  -1   1 90.1394 4.98839   1
   7  -1   2 611.428 19.1910  -2
   7  -1   1 611.428 19.1910   1
   8  -1   2 294.235 9.42873  -2
   8  -1   1 294.235 9.42873   1
  -9   0   1 100.750 5.70522   1
  -8   0   1 1.80259 3.34491   1
   7   0   4 5.77107 5.88063  -2
  -7   0   1 5.77107 5.88063   1
  -6   0   1 149.832 5.12729   1
   5   0   3 889.272 10.7115  -2
  -5   0   1 889.272 10.7115   1
  -4   0   1 453.025 5.54066   1
  -3   0   1 245.312 3.58867   1
  -2   0   1 181.416 2.79078   1
  -1   0   1 562.000 5.58728   1
   0   0   1 2914.08 41.2001  -2
   0   0   1 2914.08 41.2001   1
   1   0   1 76.8958 1.33553   1
   2   0   0 1551.95 24.3265  -2
   2   0   1 1551.95 24.3265   1
   3   0   0 117.485 7.59203  -2
   3   0   1 117.485 7.59203   1
   4   0   1 64.0414 1.77054   1
   5   0   1 233.084 4.52655  -2
   5   0   1 233.084 4.52655   1
   6   0   1 49.4556 3.51464   1
   7   0   2 497.762 9.55858  -2
   7   0   1 497.762 9.55858   1
   8   0   2 296.560 17.3283  -2
   8   0   1 296.560 17.3283   1
   9   0   3 63.0202 9.04834  -2
   9   0   1 63.0202 9.04834   1
   8  -1   4 0.33239 7.34055  -2
  -8   1   1 0.33239 7.34055   1
   7  -1   4 140.827 9.71222  -2
  -7   1   1 140.827 9.71222   1
  -6   1   1 68.4331 3.86552   1
   5  -1   3 1798.14 18.0888  -2
  -5   1   1 1798.14 18.0888   1
  -4   1   1 103.122 3.54576   1
   3  -1   2 11.3975 3.11447  -2
  -3   1   1 11.3975 3.11447   1
   2  -1   2 344.746 6.71913  -2
  -2   1   1 344.746 6.71913   1
  -1   1   1 1064.86 9.72581   1
   0   1   1 1966.63 15.6172   1
   1   1   1 989.918 8.18231   1
   2   1   0 102.664 2.65508  -2
   2   1   1 102.664 2.65508   1
   3   1   1 61.6846 2.23874   1
   4   1   1 128.277 8.31680  -2
   4   1   1 128.277 8.31680   1
   5   1   1 18.0534 8.28421  -2
   5   1   1 18.0534 8.28421   1
   6   1   1 806.560 7.37897   1
   7   1   2 519.368 8.76338  -2
   7   1   1 519.368 8.76338   1
   8   1   1 99.2805 5.31667   1
   9   1   3 102.222 10.0774  -2
   9   1   1 102.222 10.0774   1
   8  -2   4 376.414 9.08429  -2
  -8   2   1 376.414 9.08429   1
  -7   2   1 112.032 5.65045   1
   6  -2   3 762.518 11.5664  -2
  -6   2   1 762.518 11.5664   1
   5  -2   3 402.103 12.7187  -2
  -5   2   1 402.103 12.7187   1
  -4   2   1 114.582 2.84955   1
   3  -2   2 1405.32 11.7092  -2
  -3   2   1 1405.32 11.7092   1
  -2   2   1 748.321 7.08299   1
  -1   2   1 256.426 3.40614   1
   0   2   1 177.628 2.02331   1
   1   2   1 46.2822 1.08625   1
   2   2   0 793.048 13.9517  -2
   2   2   1 793.048 13.9517   1
   3   2   1 528.085 4.94647   1
   4   2   1 1.96062 2.70539  -2
   4   2   1 1.96062 2.70539   1
   5   2   1 121.276 3.26744   1
   6   2   2 355.806 13.8109  -2
   6   2   1 355.806 13.8109   1
   7   2   2 1412.55 13.6277  -2
   7   2   1 1412.55 13.6277   1
   8   2   1 45.4042 3.84177   1
   9   2   3 87.3032 6.33978  -2
   9   2   1 87.3032 6.33978   1
  -7   3   1 87.0110 5.17069   1
   6  -3   3 584.102 9.66997  -2
  -6   3   1 584.102 9.66997   1
  -5   3   1 45.5716 3.21488   1
   4  -3   2 246.725 9.12160  -2
  -4   3   1 246.725 9.12160   1
   3  -3   2 182.385 6.06930  -2
  -3   3   1 182.385 6.06930   1
  -2   3   1 1249.78 10.9450   1
   1  -3   1 2112.50 16.6536  -2
  -1   3   1 2112.50 16.6536   1
   0   3   1 408.848 4.24652   1
   1   3   1 196.711 2.29823   1
   2   3   0 308.629 7.13571  -2
   2   3   1 308.629 7.13571   1
   3   3   1 22.0518 1.38552   1
   4   3   1 121.443 2.41908  -2
   4   3   1 121.443 2.41908   1
   5   3   1 217.523 3.83103   1
   6   3   2 216.097 5.06417  -2
   6   3   1 216.097 5.06417   1
   7   3   1 198.371 4.06530   1
   8   3   3 541.341 18.9552  -2
   8   3   1 541.341 18.9552   1
   9   3   3 29.7601 8.76732  -2
   9   3   1 29.7601 8.76732   1
   7  -4   3 245.008 16.3132  -2
  -7   4   1 245.008 16.3132   1
   6  -4   3 58.8143 5.42798  -2
  -6   4   1 58.8143 5.42798   1
  -5   4   1 67.3064 3.51467   1
   4  -4   2 16.7934 3.58832  -2
  -4   4   1 16.7934 3.58832   1
  -3   4   1 5.96950 1.51645   1
  -2   4   1 2.28523 1.67021   1
  -1   4   1 324.107 4.38155   1
   0   4   1 367.931 4.28141   1
   1   4   0 224.863 3.26240  -2
   1   4   1 224.863 3.26240   1
   2   4   1 94.0303 2.24938   1
   3   4   1 9.15652 5.61809  -2
   3   4   1 9.15652 5.61809   1
   4   4   1 1591.83 26.7278  -2
   4   4   1 1591.83 26.7278   1
   5   4   1 370.483 4.42353   1
   6   4   2 1026.69 12.0007  -2
   6   4   1 1026.69 12.0007   1
   7   4   1 6.34104 2.42971   1
   8   4   3 156.751 5.83507  -2
   8   4   1 156.751 5.83507   1
   9   4   3 114.591 15.8401  -2
   9   4   1 114.591 15.8401   1
   6  -5   3 60.0105 8.75336  -2
  -6   5   1 60.0105 8.75336   1
  -5   5   1 284.868 6.96239   1
   4  -5   2 619.045 9.36620  -2
  -4   5   1 619.045 9.36620   1
  -3   5   1 14.2613 2.02038   1
   2  -5   1 678.464 7.31517  -2
  -2   5   1 678.464 7.31517   1
  -1   5   1 375.908 5.14041   1
   0   5   1 235.281 3.67985   1
   1   5   0 1188.99 12.7041  -2
   1   5   1 1188.99 12.7041   1
   2   5   1 301.724 3.87995   1
   3   5   1 496.550 4.95723  -2
   3   5   1 496.550 4.95723   1
   4   5   1 108.053 2.61521   1
   5   5   2 224.684 10.5964  -2
   5   5   1 224.684 10.5964   1
   6   5   2 337.807 9.26196  -2
   6   5   1 337.807 9.26196   1
   7   5   1 370.024 6.44177   1
   8   5   3 22.9784 2.82095  -2
   8   5   1 22.9784 2.82095   1
   9   5   1 1.91071 2.45348   1
   5  -6   2 21.3911 14.5997  -2
  -5   6   1 21.3911 14.5997   1
   4  -6   2 229.611 11.6218  -2
  -4   6   1 229.611 11.6218   1
  -3   6   1 2.70246 2.24103   1
   2  -6   1 293.448 9.09086  -2
  -2   6   1 293.448 9.09086   1
  -1   6   1 169.890 3.92867   1
   0   6   0 156.597 5.35868  -2
   0   6   1 156.597 5.35868   1
   1   6   1 39.8901 2.26056   1
   2   6   1 145.968 2.96355   1
   3   6   1 72.1806 2.55086  -2
   3   6   1 72.1806 2.55086   1
   4   6   1 393.381 4.59851   1
   5   6   2 352.424 5.26676  -2
   5   6   1 352.424 5.26676   1
   6   6   1 18.3580 2.43850   1
   7   6   3 774.478 20.3533  -2
   7   6   1 774.478 20.3533   1
   8   6   3 165.066 7.55245  -2
   8   6   1 165.066 7.55245   1
   9   6   1 4.48127 2.70260   1
   5  -7   2 285.520 17.3475  -2
  -5   7   1 285.520 17.3475   1
  -4   7   1 22.2964 5.67258   1
   3  -7   1 577.427 22.1992  -2
  -3   7   1 577.427 22.1992   1
   2  -7   1 596.688 14.2916  -2
  -2   7   1 596.688 14.2916   1
  -1   7   1 180.335 7.61388   1
   0   7   0 742.211 9.43194  -2
   0   7   1 742.211 9.43194   1
   1   7   1 137.822 4.18629   1
   2   7   1 147.431 10.4695  -2
   2   7   1 147.431 10.4695   1
   3   7   1 0.32432 10.2093  -2
   3   7   1 0.32432 10.2093   1
   4   7   1 47.7416 2.32579   1
   5   7   2 285.528 5.53793  -2
   5   7   1 285.528 5.53793   1
   6   7   1 19.1973 2.36536   1
   7   7   3 144.223 6.05832  -2
   7   7   1 144.223 6.05832   1
   8   7   3 76.9959 13.0333  -2
   8   7   1 76.9959 13.0333   1
   9   7   4 130.950 15.8336  -2
   9   7   1 130.950 15.8336   1
  -4   8   1 34.3025 6.42823   1
   3  -8   1 132.971 10.8129  -2
  -3   8   1 132.971 10.8129   1
  -2   8   1 203.143 9.46149   1
  -1   8   1 -0.0091 4.24751   1
   0   8   0 103.170 5.47064  -2
   0   8   1 103.170 5.47064   1
   1   8   1 34.3909 2.90466   1
   2   8   1 79.6280 5.99915  -2
   2   8   1 79.6280 5.99915   1
   3   8   1 596.457 7.76194   1
   4   8   1 1307.56 12.9233   1
   5   8   2 143.575 8.55317  -2
   5   8   1 143.575 8.55317   1
   6   8   1 128.961 5.33352   1
   7   8   3 62.9932 5.10283  -2
   7   8   1 62.9932 5.10283   1
   8   8   1 100.153 5.84127   1
   9   8   4 498.600 13.7178  -2
   9   8   1 498.600 13.7178   1
   3  -9   1 268.143 11.4907  -2
  -3   9   1 268.143 11.4907   1
  -2   9   1 70.7064 6.97456   1
  -1   9   0 422.523 14.0209  -2
  -1   9   1 422.523 14.0209   1
   0   9   0 182.994 13.9459  -2
   0   9   1 182.994 13.9459   1
   1   9   1 91.9685 4.37475   1
   2   9   1 61.2523 6.94788  -2
   2   9   1 61.2523 6.94788   1
   3   9   1 57.0096 3.33288   1
   4   9   2 590.248 10.3657  -2
   4   9   1 590.248 10.3657   1
   5   9   1 35.6151 3.61528   1
   6   9   1 19.0056 4.33365   1
   7   9   3 83.9218 10.1351  -2
   7   9   1 83.9218 10.1351   1
   8   9   1 37.7337 5.51225   1
  -1  10   0 37.2059 8.34632  -2
  -1  10   1 37.2059 8.34632   1
   0  10   1 3.70680 4.48013   1
   1  10   1 -8.1270 8.08820  -2
   1  10   1 -8.1270 8.08820   1
   2  10   1 209.930 18.3884  -2
   2  10   1 209.930 18.3884   1
   3  10   1 545.437 12.0336   1
   4  10   2 90.1722 6.55808  -2
   4  10   1 90.1722 6.55808   1
   5  10   1 -1.0815 2.26163   1
   6  10   3 74.7031 10.0908  -2
   6  10   1 74.7031 10.0908   1
   7  10   3 73.0090 18.2010  -2
   7  10   1 73.0090 18.2010   1
   8  10   1 193.873 13.1081   1
   1  11   1 210.415 17.9444  -2
   1  11   1 210.415 17.9444   1
   2  11   1 13.0124 4.51867   1
   3  11   2 508.457 14.4385  -2
   3  11   1 508.457 14.4385   1
   4  11   2 141.721 11.0386  -2
   4  11   1 141.721 11.0386   1
   5  11   1 37.8183 4.32581   1
   6  11   3 273.439 10.2438  -2
   6  11   1 273.439 10.2438   1
  -5 -11   2 23.2134 4.72101   1
   4  11   5 47.8795 10.4051  -2
  -4 -11   2 47.8795 10.4051   1
   3  11   5 12.3340 10.7172  -2
  -3 -11   2 12.3340 10.7172   1
  -2 -11   2 5.22045 4.72595   1
   1  11   4 38.4263 10.3806  -2
  -1 -11   2 38.4263 10.3806   1
   7  10   6 146.778 20.3941  -2
  -7 -10   2 146.778 20.3941   1
   6  10   6 91.6268 10.4719  -2
  -6 -10   2 91.6268 10.4719   1
  -5 -10   2 52.5520 5.28020   1
   4  10   5 68.7158 7.92687  -2
  -4 -10   2 68.7158 7.92687   1
  -3 -10   2 489.488 11.5057   1
   2  10   4 367.328 13.0415  -2
  -2 -10   2 367.328 13.0415   1
   1  10   4 460.293 17.9673  -2
  -1 -10   2 460.293 17.9673   1
   0 -10   2 3.68796 4.38043   1
  -1  10   3 235.517 9.80456  -2
   1 -10   2 235.517 9.80456   1
  -8  -9   2 15.8992 3.78679   1
   7   9   6 32.7003 7.75355  -2
  -7  -9   2 32.7003 7.75355   1
   6   9   6 474.415 14.9373  -2
  -6  -9   2 474.415 14.9373   1
  -5  -9   2 228.726 7.06448   1
   4   9   5 117.922 8.15289  -2
  -4  -9   2 117.922 8.15289   1
  -3  -9   2 267.005 8.33644   1
   2   9   4 149.088 8.74789  -2
  -2  -9   2 149.088 8.74789   1
  -1  -9   2 12.9948 4.08447   1
   0  -9   2 263.956 11.3892   1
  -1   9   3 183.743 13.2747  -2
   1  -9   2 183.743 13.2747   1
   2  -9   2 1.88497 4.31058   1
  -8  -8   2 48.3827 3.67458   1
   7   8   6 176.444 5.92027  -2
  -7  -8   2 176.444 5.92027   1
  -6  -8   2 93.5833 4.12241   1
   5   8   5 28.5896 8.59889  -2
  -5  -8   2 28.5896 8.59889   1
  -4  -8   2 79.2681 8.43047   1
  -3  -8   2 133.751 6.45765   1
   2   8   4 620.636 12.0141  -2
  -2  -8   2 620.636 12.0141   1
  -1  -8   2 223.349 7.42253   1
   0   8   3 202.372 9.18232  -2
   0  -8   2 202.372 9.18232   1
   1  -8   2 70.9001 5.15534   1
   2  -8   2 117.921 8.92322   1
  -3   8   2 62.6924 9.22106  -2
   3  -8   2 62.6924 9.22106   1
   4  -8   2 8.38548 4.11178   1
  -9  -7   2 64.1473 4.66262   1
   8   7   6 285.626 12.1767  -2
  -8  -7   2 285.626 12.1767   1
   7   7   6 978.327 11.9326  -2
  -7  -7   2 978.327 11.9326   1
  -6  -7   2 272.339 5.31956   1
   5   7   5 110.077 4.64369  -2
  -5  -7   2 110.077 4.64369   1
   4   7   5 90.2749 9.97594  -2
  -4  -7   2 90.2749 9.97594   1
   3   7   4 26.1154 6.57302  -2
  -3  -7   2 26.1154 6.57302   1
   2   7   4 586.599 18.2111  -2
  -2  -7   2 586.599 18.2111   1
  -1  -7   2 541.464 10.0485   1
   0   7   3 29.4277 5.11343  -2
   0  -7   2 29.4277 5.11343   1
   1  -7   2 2.07945 1.99026   1
  -2   7   2 239.075 9.85281  -2
   2  -7   2 239.075 9.85281   1
  -3   7   2 261.835 14.8607  -2
   3  -7   2 261.835 14.8607   1
  -4   7   1 111.008 14.2659  -2
   4  -7   2 111.008 14.2659   1
  -5   7   1 331.948 9.56268  -2
   5  -7   2 331.948 9.56268   1
  -9  -6   2 96.5302 5.09676   1
   8   6   6 284.139 8.52942  -2
  -8  -6   2 284.139 8.52942   1
   7   6   6 112.370 14.5929  -2
  -7  -6   2 112.370 14.5929   1
   6   6   5 107.986 12.6182  -2
  -6  -6   2 107.986 12.6182   1
   5   6   5 361.118 6.03387  -2
  -5  -6   2 361.118 6.03387   1
  -4  -6   2 11.2922 1.52195   1
   3   6   4 737.867 9.92356  -2
  -3  -6   2 737.867 9.92356   1
   2   6   4 887.544 17.2598  -2
  -2  -6   2 887.544 17.2598   1
  -1  -6   2 2.42688 1.40404   1
   0   6   3 30.6084 4.68523  -2
   0  -6   2 30.6084 4.68523   1
   1  -6   2 21.8472 2.55089   1
  -2   6   2 346.709 5.45449  -2
   2  -6   2 346.709 5.45449   1
   3  -6   2 266.125 7.15697   1
  -4   6   1 222.952 7.71303  -2
   4  -6   2 222.952 7.71303   1
  -5   6   1 33.7391 6.48417  -2
   5  -6   2 33.7391 6.48417   1
   6  -6   2 3.99669 5.64554   1
  -9  -5   2 -2.4654 4.36628   1
   8   5   6 402.261 7.75977  -2
  -8  -5   2 402.261 7.75977   1
  -7  -5   2 243.529 5.31137   1
   6   5   5 210.027 6.57577  -2
  -6  -5   2 210.027 6.57577   1
   5   5   5 77.5525 5.81830  -2
  -5  -5   2 77.5525 5.81830   1
  -4  -5   2 1.36640 1.42009   1
   3   5   4 40.0488 2.77926  -2
  -3  -5   2 40.0488 2.77926   1
  -2  -5   2 975.996 9.82573   1
   1   5   3 1854.31 16.5962  -2
  -1  -5   2 1854.31 16.5962   1
   0  -5   2 173.317 3.01452   1
   1  -5   2 231.357 4.68647   1
  -2   5   2 250.734 6.03580  -2
   2  -5   2 250.734 6.03580   1
   3  -5   2 2.73423 2.30892   1
  -4   5   1 556.904 8.84035  -2
   4  -5   2 556.904 8.84035   1
   5  -5   2 47.0123 3.49947   1
  -6   5   0 54.9875 7.85130  -2
   6  -5   2 54.9875 7.85130   1
   9   4   6 149.600 12.0636  -2
  -9  -4   2 149.600 12.0636   1
   8   4   6 40.6593 8.65080  -2
  -8  -4   2 40.6593 8.65080   1
  -7  -4   2 2.15978 1.90656   1
   6   4   5 370.235 5.52280  -2
  -6  -4   2 370.235 5.52280   1
  -5  -4   2 55.3416 2.56180   1
   4   4   4 138.583 9.71316  -2
  -4  -4   2 138.583 9.71316   1
   3   4   4 343.354 6.01584  -2
  -3  -4   2 343.354 6.01584   1
  -2  -4   2 30.9514 1.44324   1
   1   4   3 264.398 4.11662  -2
  -1  -4   2 264.398 4.11662   1
   0  -4   2 95.4659 2.42349   1
  -1   4   2 418.053 6.60727  -2
   1  -4   2 418.053 6.60727   1
   2  -4   2 412.848 5.24055   1
   3  -4   2 117.720 4.08347   1
  -4   4   1 6.30142 5.78145  -2
   4  -4   2 6.30142 5.78145   1
   5  -4   2 0.77325 2.40009   1
  -6   4   0 64.7245 5.96810  -2
   6  -4   2 64.7245 5.96810   1
  -7   4   0 97.7230 16.1254  -2
   7  -4   2 97.7230 16.1254   1
   9   3   6 149.778 10.3331  -2
  -9  -3   2 149.778 10.3331   1
  -8  -3   2 18.9549 4.33653   1
  -7  -3   2 5.53442 2.88271   1
   6   3   5 552.845 7.20084  -2
  -6  -3   2 552.845 7.20084   1
  -5  -3   2 370.330 4.84010   1
   4   3   4 1008.95 8.77453  -2
  -4  -3   2 1008.95 8.77453   1
  -3  -3   2 371.685 4.31923   1
   2   3   3 3062.41 46.0250  -2
  -2  -3   2 3062.41 46.0250   1
   1   3   3 26.4589 3.82573  -2
  -1  -3   2 26.4589 3.82573   1
   0  -3   2 917.556 8.82560   1
  -1   3   2 161.240 2.83224  -2
   1  -3   2 161.240 2.83224   1
   2  -3   2 8.92045 1.33039   1
  -3   3   1 166.866 6.55053  -2
   3  -3   2 166.866 6.55053   1
  -4   3   1 206.050 10.7761  -2
   4  -3   2 206.050 10.7761   1
   5  -3   2 20.0821 2.81936   1
  -6   3   0 409.548 8.52349  -2
   6  -3   2 409.548 8.52349   1
   7  -3   2 40.8956 4.26471   1
   8  -3   1 123.143 11.5316  -2
   8  -3   2 123.143 11.5316   1
   9   2   6 101.077 6.93497  -2
  -9  -2   2 101.077 6.93497   1
  -8  -2   2 54.6916 4.29575   1
   7   2   5 42.3830 6.47410  -2
  -7  -2   2 42.3830 6.47410   1
   6   2   5 95.3916 7.87113  -2
  -6  -2   2 95.3916 7.87113   1
  -5  -2   2 8.56754 1.38603   1
   4   2   4 177.078 3.46257  -2
  -4  -2   2 177.078 3.46257   1
  -3  -2   2 676.023 5.97183   1
   2   2   3 755.942 8.10356  -2
  -2  -2   2 755.942 8.10356   1
  -1  -2   2 884.680 6.63856   1
   0  -2   2 81.1280 2.57779   1
  -1   2   2 1544.73 24.7542  -2
   1  -2   2 1544.73 24.7542   1
   2  -2   2 682.963 4.67106   1
  -3   2   1 1550.82 12.5565  -2
   3  -2   2 1550.82 12.5565   1
   4  -2   2 84.4633 2.73065   1
  -5   2   0 60.9691 9.63625  -2
   5  -2   2 60.9691 9.63625   1
  -6   2   0 197.035 7.86398  -2
   6  -2   2 197.035 7.86398   1
   7  -2   2 75.4072 4.74285   1
   8  -2   1 197.058 7.51074  -2
   8  -2   2 197.058 7.51074   1
   9   1   6 106.848 8.60475  -2
  -9  -1   2 106.848 8.60475   1
  -8  -1   2 26.6931 3.86332   1
   7   1   5 469.314 8.54838  -2
  -7  -1   2 469.314 8.54838   1
  -6  -1   2 490.124 8.03806   1
   5   1   4 495.997 13.5031  -2
  -5  -1   2 495.997 13.5031   1
   4   1   4 392.379 11.0720  -2
  -4  -1   2 392.379 11.0720   1
  -3  -1   2 0.88131 1.16498   1
   2   1   3 1702.86 13.3083  -2
  -2  -1   2 1702.86 13.3083   1
  -1  -1   2 2553.01 18.1535   1
   0   1   2 450.233 6.64657  -2
   0  -1   2 450.233 6.64657   1
   1  -1   2 455.861 5.11770   1
   2  -1   2 363.962 3.64327   1
  -3   1   1 14.8517 2.43579  -2
   3  -1   2 14.8517 2.43579   1
   4  -1   2 302.883 3.56578   1
  -5   1   0 352.765 6.27417  -2
   5  -1   2 352.765 6.27417   1
   6  -1   2 40.1130 3.37876   1
   7  -1   1 536.206 10.9390  -2
   7  -1   2 536.206 10.9390   1
   8  -1   1 288.968 9.80549  -2
   8  -1   2 288.968 9.80549   1
   8   0   5 119.115 10.3384  -2
  -8   0   2 119.115 10.3384   1
   7   0   5 340.469 8.40572  -2
  -7   0   2 340.469 8.40572   1
  -6   0   2 65.1750 3.96453   1
   5   0   4 622.085 8.82016  -2
  -5   0   2 622.085 8.82016   1
  -4   0   2 699.321 7.28202   1
  -3   0   2 328.106 4.20588   1
  -2   0   2 15.2998 1.19984   1
  -1   0   2 27.5932 1.46873   1
   0   0   2 1401.70 14.6470  -2
   0   0   2 1401.70 14.6470   1
   1   0   2 68.5667 2.17036   1
  -2   0   1 4201.43 60.9413  -2
   2   0   2 4201.43 60.9413   1
  -3   0   1 232.693 8.90566  -2
   3   0   2 232.693 8.90566   1
   4   0   2 9.42988 1.62501   1
   5   0   0 1052.12 9.71060  -2
   5   0   2 1052.12 9.71060   1
   6   0   2 67.1160 3.79388   1
   7   0   1 528.851 9.87849  -2
   7   0   2 528.851 9.87849   1
   8   0   1 290.020 16.9838  -2
   8   0   2 290.020 16.9838   1
   9   0   2 8.23938 9.13401  -2
   9   0   2 8.23938 9.13401   1
   8  -1   5 86.6845 7.96457  -2
  -8   1   2 86.6845 7.96457   1
   7  -1   5 3.65869 7.30168  -2
  -7   1   2 3.65869 7.30168   1
  -6   1   2 42.0079 3.44874   1
   5  -1   4 760.670 10.1680  -2
  -5   1   2 760.670 10.1680   1
  -4   1   2 12.2359 2.09590   1
   3  -1   3 606.467 7.39215  -2
  -3   1   2 606.467 7.39215   1
  -2   1   2 16.2251 2.28355   1
  -1   1   2 1.91647 1.28676   1
   0  -1   2 372.805 8.14440  -2
   0   1   2 372.805 8.14440   1
   1   1   2 224.406 3.11928   1
  -2  -1   1 748.009 5.27508  -2
   2   1   2 748.009 5.27508   1
   3   1   2 278.326 3.26180   1
   4   1   0 57.3233 7.93201  -2
   4   1   2 57.3233 7.93201   1
   5   1   0 29.2204 8.82915  -2
   5   1   2 29.2204 8.82915   1
   6   1   2 285.532 5.05315   1
   7   1   1 461.901 6.31956  -2
   7   1   2 461.901 6.31956   1
   8   1   2 22.4969 3.55763   1
   9   1   2 6.86621 9.36326  -2
   9   1   2 6.86621 9.36326   1
   8  -2   5 402.272 9.31867  -2
  -8   2   2 402.272 9.31867   1
  -7   2   2 2.60261 3.18636   1
   6  -2   4 227.281 7.65414  -2
  -6   2   2 227.281 7.65414   1
   5  -2   4 582.533 10.7244  -2
  -5   2   2 582.533 10.7244   1
  -4   2   2 689.821 7.23359   1
   3  -2   3 34.7502 2.11624  -2
  -3   2   2 34.7502 2.11624   1
  -2   2   2 225.422 4.07002   1
  -1   2   2 1564.88 12.5321   1
   0   2   2 478.086 4.07615   1
   1   2   2 2222.01 18.3041   1
  -2  -2   1 1306.73 20.4535  -2
   2   2   2 1306.73 20.4535   1
   3   2   2 485.821 4.46387   1
   4   2   0 1186.49 11.9471  -2
   4   2   2 1186.49 11.9471   1
   5   2   2 34.7609 2.08247   1
   6   2   1 378.620 13.9795  -2
   6   2   2 378.620 13.9795   1
   7   2   1 1557.03 14.7008  -2
   7   2   2 1557.03 14.7008   1
   8   2   2 53.7903 3.51193   1
   9   2   2 71.8155 5.85527  -2
   9   2   2 71.8155 5.85527   1
  -7   3   2 147.452 6.23116   1
   6  -3   4 191.092 6.27167  -2
  -6   3   2 191.092 6.27167   1
  -5   3   2 59.0115 3.41465   1
   4  -3   3 18.3790 6.56860  -2
  -4   3   2 18.3790 6.56860   1
   3  -3   3 65.3930 7.48637  -2
  -3   3   2 65.3930 7.48637   1
  -2   3   2 1058.42 9.73454   1
   1  -3   2 185.177 3.19118  -2
  -1   3   2 185.177 3.19118   1
   0   3   2 104.401 1.71606   1
  -1  -3   1 237.183 5.25543  -2
   1   3   2 237.183 5.25543   1
   2   3   2 1677.41 11.3779   1
   3   3   2 607.316 4.69433   1
   4   3   0 473.109 6.55586  -2
   4   3   2 473.109 6.55586   1
   5   3   2 115.036 3.03448   1
   6   3   1 210.237 5.14485  -2
   6   3   2 210.237 5.14485   1
   7   3   1 198.628 13.4081  -2
   7   3   2 198.628 13.4081   1
   8   3   2 20.6713 12.4925  -2
   8   3   2 20.6713 12.4925   1
   9   3   2 7.32235 5.38501  -2
   9   3   2 7.32235 5.38501   1
   7  -4   4 18.7268 13.5835  -2
  -7   4   2 18.7268 13.5835   1
   6  -4   4 280.508 9.78436  -2
  -6   4   2 280.508 9.78436   1
  -5   4   2 475.217 7.75244   1
   4  -4   3 373.841 9.33065  -2
  -4   4   2 373.841 9.33065   1
  -3   4   2 4.12100 2.02260   1
  -2   4   2 301.775 4.68589   1
   1  -4   2 336.949 5.84959  -2
  -1   4   2 336.949 5.84959   1
   0   4   2 170.891 3.17587   1
  -1  -4   1 152.280 2.53621  -2
   1   4   2 152.280 2.53621   1
   2   4   2 15.5642 0.90918   1
   3   4   0 1213.57 19.7747  -2
   3   4   2 1213.57 19.7747   1
   4   4   0 1663.87 27.3360  -2
   4   4   2 1663.87 27.3360   1
   5   4   2 116.323 3.92668   1
   6   4   1 1086.30 12.3108  -2
   6   4   2 1086.30 12.3108   1
   7   4   2 38.0593 3.21638   1
   8   4   2 19.2039 6.26189  -2
   8   4   2 19.2039 6.26189   1
   9   4   2 113.236 15.2966  -2
   9   4   2 113.236 15.2966   1
  10   4   2 52.9638 8.53256   1
   6  -5   4 114.912 18.4468  -2
  -6   5   2 114.912 18.4468   1
  -5   5   2 88.5149 5.85596   1
   4  -5   3 166.066 7.84355  -2
  -4   5   2 166.066 7.84355   1
  -3   5   2 11.7678 1.95904   1
   2  -5   2 272.721 5.41673  -2
  -2   5   2 272.721 5.41673   1
  -1   5   2 541.835 6.30709   1
   0   5   2 38.7956 1.80143   1
  -1  -5   1 299.031 3.88807  -2
   1   5   2 299.031 3.88807   1
   2   5   2 1.15143 1.19119   1
   3   5   0 965.540 9.93929  -2
   3   5   2 965.540 9.93929   1
   4   5   0 545.213 12.1710  -2
   4   5   2 545.213 12.1710   1
   5   5   1 209.231 10.1940  -2
   5   5   2 209.231 10.1940   1
   6   5   1 318.240 8.74495  -2
   6   5   2 318.240 8.74495   1
   7   5   2 110.747 4.41712   1
   8   5   2 195.589 6.23235  -2
   8   5   2 195.589 6.23235   1
   9   5   2 72.2230 4.72307   1
  10   5   3 120.044 16.0784  -2
  10   5   2 120.044 16.0784   1
   5  -6   3 248.228 18.5515  -2
  -5   6   2 248.228 18.5515   1
   4  -6   3 89.8689 14.8657  -2
  -4   6   2 89.8689 14.8657   1
  -3   6   2 36.8700 5.02485   1
   2  -6   2 296.184 6.97279  -2
  -2   6   2 296.184 6.97279   1
  -1   6   2 7.04538 1.52509   1
   0   6   2 1.20498 1.31301   1
  -1  -6   1 340.816 6.98942  -2
   1   6   2 340.816 6.98942   1
   2   6   2 857.135 7.66460   1
   3   6   0 309.022 4.70619  -2
   3   6   2 309.022 4.70619   1
   4   6   2 0.20778 1.19510   1
   5   6   1 320.295 5.38588  -2
   5   6   2 320.295 5.38588   1
   6   6   1 367.904 13.5321  -2
   6   6   2 367.904 13.5321   1
   7   6   2 650.377 18.2050  -2
   7   6   2 650.377 18.2050   1
   8   6   2 150.729 7.37120  -2
   8   6   2 150.729 7.37120   1
   9   6   2 61.0143 3.67173   1
  -4   7   2 -1.0876 5.06030   1
   3  -7   2 246.512 12.1268  -2
  -3   7   2 246.512 12.1268   1
   2  -7   2 408.515 11.8441  -2
  -2   7   2 408.515 11.8441   1
  -1   7   2 103.871 6.66981   1
   0  -7   1 287.657 8.79157  -2
   0   7   2 287.657 8.79157   1
   1   7   2 2.88035 1.91777   1
   2   7   0 910.361 20.4639  -2
   2   7   2 910.361 20.4639   1
   3   7   2 530.249 7.86821   1
   4   7   2 4.65486 1.64684   1
   5   7   1 285.807 5.43475  -2
   5   7   2 285.807 5.43475   1
   6   7   2 21.8995 2.98064   1
   7   7   2 2.12346 4.81909  -2
   7   7   2 2.12346 4.81909   1
   8   7   2 96.8012 11.4897  -2
   8   7   2 96.8012 11.4897   1
   9   7   3 4.76484 12.6235  -2
   9   7   2 4.76484 12.6235   1
  -4   8   2 3.76802 5.89303   1
   3  -8   2 76.3672 10.5517  -2
  -3   8   2 76.3672 10.5517   1
  -2   8   2 -2.1500 4.70270   1
  -1   8   2 67.3020 5.88743   1
   0  -8   1 378.441 10.9823  -2
   0   8   2 378.441 10.9823   1
   1   8   2 81.1455 3.81056   1
   2   8   0 123.826 5.15829  -2
   2   8   2 123.826 5.15829   1
   3   8   2 24.3980 2.90325   1
   4   8   2 78.7627 4.35731   1
   5   8   1 161.821 7.11999  -2
   5   8   2 161.821 7.11999   1
   6   8   2 185.490 7.74590   1
   7   8   2 60.7160 4.60880  -2
   7   8   2 60.7160 4.60880   1
   8   8   2 34.0113 3.96782   1
   9   8   3 158.882 10.4106  -2
   9   8   2 158.882 10.4106   1
  -2   9   2 76.2827 7.20980   1
   1  -9   1 393.008 13.1016  -2
  -1   9   2 393.008 13.1016   1
   0  -9   1 14.9543 14.9937  -2
   0   9   2 14.9543 14.9937   1
   1   9   2 16.4676 3.85927   1
   2   9   0 158.124 7.58045  -2
   2   9   2 158.124 7.58045   1
   3   9   2 70.6748 4.22592   1
   4   9   1 590.285 10.2807  -2
   4   9   2 590.285 10.2807   1
   5   9   2 30.9847 3.50605   1
   6   9   2 12.1315 4.10134   1
   7   9   2 90.7846 10.1293  -2
   7   9   2 90.7846 10.1293   1
   8   9   2 4.29586 4.36268   1
   1 -10   1 218.379 10.1322  -2
  -1  10   2 218.379 10.1322   1
   0  10   2 136.587 10.1051   1
   1  10   0 65.1313 16.8511  -2
   1  10   2 65.1313 16.8511   1
   2  10   0 11.6103 8.54172  -2
   2  10   2 11.6103 8.54172   1
   3  10   2 150.744 7.39028   1
   4  10   1 59.1164 5.99041  -2
   4  10   2 59.1164 5.99041   1
   5  10   2 111.735 5.93119   1
   6  10   2 61.4891 9.60939  -2
   6  10   2 61.4891 9.60939   1
   7  10   2 216.599 19.8699  -2
   7  10   2 216.599 19.8699   1
   8  10   2 124.986 8.96146   1
   1  11   0 153.501 17.1931  -2
   1  11   2 153.501 17.1931   1
   2  11   2 135.272 7.39689   1
   3  11   1 555.192 14.8184  -2
   3  11   2 555.192 14.8184   1
   4  11   1 149.505 8.92700  -2
   4  11   2 149.505 8.92700   1
   5  11   2 16.5172 3.75909   1
   6  11   2 99.4693 8.17996  -2
   6  11   2 99.4693 8.17996   1
   7  11   2 77.8468 8.81962   1
   4  11   6 25.3365 10.7214  -2
  -4 -11   3 25.3365 10.7214   1
   3  11   6 161.060 12.2808  -2
  -3 -11   3 161.060 12.2808   1
  -2 -11   3 0.11974 4.76118   1
   6  10   7 141.065 9.66564  -2
  -6 -10   3 141.065 9.66564   1
  -5 -10   3 37.3845 5.17892   1
   4  10   6 334.351 11.2329  -2
  -4 -10   3 334.351 11.2329   1
  -3 -10   3 125.556 8.12306   1
   2  10   5 55.5785 10.7929  -2
  -2 -10   3 55.5785 10.7929   1
   1  10   5 323.026 12.8920  -2
  -1 -10   3 323.026 12.8920   1
   0 -10   3 43.8068 5.58553   1
  -1  10   4 82.7688 8.57245  -2
   1 -10   3 82.7688 8.57245   1
   7   9   7 94.9082 14.6189  -2
  -7  -9   3 94.9082 14.6189   1
   6   9   7 283.795 17.7313  -2
  -6  -9   3 283.795 17.7313   1
  -5  -9   3 72.4324 8.01262   1
   4   9   6 290.838 10.3731  -2
  -4  -9   3 290.838 10.3731   1
  -3  -9   3 10.2405 4.10512   1
   2   9   5 28.6374 8.06606  -2
  -2  -9   3 28.6374 8.06606   1
  -1  -9   3 2.66285 3.94882   1
   0   9   4 113.946 16.4091  -2
   0  -9   3 113.946 16.4091   1
  -1   9   4 96.6716 13.2671  -2
   1  -9   3 96.6716 13.2671   1
   2  -9   3 -0.0133 5.19963   1
  -8  -8   3 45.1698 3.70705   1
   7   8   7 96.5477 5.14571  -2
  -7  -8   3 96.5477 5.14571   1
  -6  -8   3 -0.4082 2.34031   1
   5   8   6 291.004 11.7207  -2
  -5  -8   3 291.004 11.7207   1
  -4  -8   3 19.9204 5.51826   1
  -3  -8   3 1.57379 3.59671   1
   2   8   5 130.849 7.79056  -2
  -2  -8   3 130.849 7.79056   1
  -1  -8   3 37.6433 4.41218   1
   0   8   4 422.366 11.5538  -2
   0  -8   3 422.366 11.5538   1
   1  -8   3 547.112 11.5337   1
  -2   8   3 336.153 16.5752  -2
   2  -8   3 336.153 16.5752   1
  -3   8   3 228.210 14.3840  -2
   3  -8   3 228.210 14.3840   1
   8   7   7 150.208 11.7413  -2
  -8  -7   3 150.208 11.7413   1
   7   7   7 672.719 10.0817  -2
  -7  -7   3 672.719 10.0817   1
  -6  -7   3 257.817 5.42206   1
   5   7   6 296.823 6.32298  -2
  -5  -7   3 296.823 6.32298   1
   4   7   6 440.214 15.4287  -2
  -4  -7   3 440.214 15.4287   1
   3   7   5 222.468 10.3548  -2
  -3  -7   3 222.468 10.3548   1
  -2  -7   3 119.891 8.63660   1
  -1  -7   3 162.053 6.54216   1
   0   7   4 176.403 6.98645  -2
   0  -7   3 176.403 6.98645   1
   1  -7   3 49.6195 4.48339   1
  -2   7   3 51.7005 6.85668  -2
   2  -7   3 51.7005 6.85668   1
  -3   7   3 86.4108 10.6769  -2
   3  -7   3 86.4108 10.6769   1
  -4   7   2 18.9211 14.5873  -2
   4  -7   3 18.9211 14.5873   1
  -5   7   2 215.008 12.7875  -2
   5  -7   3 215.008 12.7875   1
  -9  -6   3 -2.0630 6.46966   1
   8   6   7 46.5270 5.31054  -2
  -8  -6   3 46.5270 5.31054   1
   7   6   7 49.9975 6.84040  -2
  -7  -6   3 49.9975 6.84040   1
   6   6   6 281.556 15.2822  -2
  -6  -6   3 281.556 15.2822   1
   5   6   6 553.416 7.40998  -2
  -5  -6   3 553.416 7.40998   1
  -4  -6   3 95.2672 3.59258   1
   3   6   5 706.461 9.74597  -2
  -3  -6   3 706.461 9.74597   1
  -2  -6   3 151.561 3.91648   1
   1   6   4 627.986 13.5461  -2
  -1  -6   3 627.986 13.5461   1
   0   6   4 271.072 6.59828  -2
   0  -6   3 271.072 6.59828   1
   1  -6   3 89.3797 4.13513   1
  -2   6   3 492.897 7.83555  -2
   2  -6   3 492.897 7.83555   1
   3  -6   3 179.808 5.37356   1
  -4   6   2 84.2892 8.53874  -2
   4  -6   3 84.2892 8.53874   1
  -5   6   2 279.004 9.42575  -2
   5  -6   3 279.004 9.42575   1
  -9  -5   3 5.40141 4.71134   1
   8   5   7 287.103 9.63579  -2
  -8  -5   3 287.103 9.63579   1
  -7  -5   3 454.037 8.06322   1
   6   5   6 183.435 5.30754  -2
  -6  -5   3 183.435 5.30754   1
   5   5   6 26.4252 5.85875  -2
  -5  -5   3 26.4252 5.85875   1
   4   5   5 270.947 13.2296  -2
  -4  -5   3 270.947 13.2296   1
   3   5   5 1225.23 11.2593  -2
  -3  -5   3 1225.23 11.2593   1
  -2  -5   3 997.713 9.27756   1
   1   5   4 2921.67 25.4206  -2
  -1  -5   3 2921.67 25.4206   1
   0  -5   3 6.44986 1.63349   1
   1  -5   3 2.90521 1.51014   1
  -2   5   3 146.187 6.07026  -2
   2  -5   3 146.187 6.07026   1
   3  -5   3 0.25127 2.15256   1
  -4   5   2 286.193 8.13603  -2
   4  -5   3 286.193 8.13603   1
   5  -5   3 101.480 5.46306   1
  -6   5   1 62.9187 8.37351  -2
   6  -5   3 62.9187 8.37351   1
   9   4   7 97.5354 11.8984  -2
  -9  -4   3 97.5354 11.8984   1
   8   4   7 53.5383 8.83744  -2
  -8  -4   3 53.5383 8.83744   1
  -7  -4   3 140.425 7.20945   1
   6   4   6 295.565 5.40990  -2
  -6  -4   3 295.565 5.40990   1
  -5  -4   3 75.9321 3.29350   1
   4   4   5 439.579 7.80559  -2
  -4  -4   3 439.579 7.80559   1
   3   4   5 141.510 5.14558  -2
  -3  -4   3 141.510 5.14558   1
  -2  -4   3 12.6847 1.60333   1
   1   4   4 251.038 3.89652  -2
  -1  -4   3 251.038 3.89652   1
   0  -4   3 119.132 3.30106   1
  -1   4   3 578.427 6.73672  -2
   1  -4   3 578.427 6.73672   1
   2  -4   3 691.075 7.00629   1
   3  -4   3 6.93053 2.15945   1
  -4   4   2 414.395 9.71185  -2
   4  -4   3 414.395 9.71185   1
   5  -4   3 128.588 6.37090   1
  -6   4   1 76.9400 6.77032  -2
   6  -4   3 76.9400 6.77032   1
  -7   4   1 274.386 18.1014  -2
   7  -4   3 274.386 18.1014   1
   9   3   7 59.2655 9.62416  -2
  -9  -3   3 59.2655 9.62416   1
   8   3   7 213.642 16.3454  -2
  -8  -3   3 213.642 16.3454   1
  -7  -3   3 163.772 7.25125   1
   6   3   6 203.990 8.38529  -2
  -6  -3   3 203.990 8.38529   1
  -5  -3   3  99.999 3.16492   1
   4   3   5 3199.09 22.5756  -2
  -4  -3   3 3199.09 22.5756   1
  -3  -3   3 1646.82 11.2365   1
   2   3   4 2981.36 31.2445  -2
  -2  -3   3 2981.36 31.2445   1
   1   3   4 867.936 11.3092  -2
  -1  -3   3 867.936 11.3092   1
   0  -3   3 249.742 4.11559   1
  -1   3   3 26.1513 2.01985  -2
   1  -3   3 26.1513 2.01985   1
   2  -3   3 106.733 2.85608   1
  -3   3   2 43.9995 5.10127  -2
   3  -3   3 43.9995 5.10127   1
  -4   3   2 15.7949 9.97116  -2
   4  -3   3 15.7949 9.97116   1
   5  -3   3 -4.6668 2.52791   1
  -6   3   1 562.191 11.6866  -2
   6  -3   3 562.191 11.6866   1
   7  -3   3 0.71567 3.49255   1
   9   2   7 49.8444 5.84590  -2
  -9  -2   3 49.8444 5.84590   1
  -8  -2   3 93.4853 5.35562   1
   7   2   6 246.688 9.80376  -2
  -7  -2   3 246.688 9.80376   1
  -6  -2   3 75.9809 5.20407   1
  -5  -2   3 111.294 3.44625   1
   4   2   5 197.094 4.34142  -2
  -4  -2   3 197.094 4.34142   1
  -3  -2   3 46.0355 1.96184   1
   2   2   4 337.701 4.23858  -2
  -2  -2   3 337.701 4.23858   1
  -1  -2   3 120.289 3.03520   1
   0  -2   3 9.08873 1.60316   1
  -1   2   3 1988.36 17.7580  -2
   1  -2   3 1988.36 17.7580   1
   2  -2   3 71.5512 2.18033   1
  -3   2   2 30.1065 2.12193  -2
   3  -2   3 30.1065 2.12193   1
   4  -2   3 7.49693 1.80176   1
  -5   2   1 405.237 10.1832  -2
   5  -2   3 405.237 10.1832   1
  -6   2   1 822.981 14.7830  -2
   6  -2   3 822.981 14.7830   1
   7  -2   3 173.550 6.52391   1
  -8   2   0 -0.7263 4.55689  -2
   8  -2   3 -0.7263 4.55689   1
  -8  -1   3 53.9862 4.46581   1
   7   1   6 395.886 8.22994  -2
  -7  -1   3 395.886 8.22994   1
  -6  -1   3 348.323 7.04842   1
   5   1   5 865.657 13.7701  -2
  -5  -1   3 865.657 13.7701   1
   4   1   5 280.179 10.1734  -2
  -4  -1   3 280.179 10.1734   1
  -3  -1   3 311.930 3.72733   1
   2   1   4 6281.69 39.9451  -2
  -2  -1   3 6281.69 39.9451   1
  -1  -1   3 1408.79 10.8696   1
   0   1   3 438.727 5.75305  -2
   0  -1   3 438.727 5.75305   1
   1  -1   3 82.3861 2.78619   1
   2  -1   3 220.979 3.95112   1
  -3   1   2 549.504 5.62661  -2
   3  -1   3 549.504 5.62661   1
   4  -1   3 244.674 3.55510   1
  -5   1   1 1567.85 13.4963  -2
   5  -1   3 1567.85 13.4963   1
  -6   1   1 75.6741 12.4554  -2
   6  -1   3 75.6741 12.4554   1
  -7   1   0 324.663 9.56299  -2
   7  -1   3 324.663 9.56299   1
  -8   1   0 196.698 8.41277  -2
   8  -1   3 196.698 8.41277   1
   8   0   6 173.553 15.8651  -2
  -8   0   3 173.553 15.8651   1
   7   0   6 188.457 7.59391  -2
  -7   0   3 188.457 7.59391   1
  -6   0   3 389.475 7.39400   1
   5   0   5 166.224 5.51950  -2
  -5   0   3 166.224 5.51950   1
  -4   0   3 -2.1036 1.56740   1
  -3   0   3 72.4701 2.31958   1
  -2   0   3 54.4639 2.12072   1
  -1   0   3 315.745 3.67545   1
   0   0   3 1255.38 13.7383  -2
   0   0   3 1255.38 13.7383   1
   1   0   3 53.1862 2.37474   1
  -2   0   2 1373.18 22.5023  -2
   2   0   3 1373.18 22.5023   1
  -3   0   2 372.002 10.7781  -2
   3   0   3 372.002 10.7781   1
   4   0   3 901.873 8.53983   1
  -5   0   1 977.716 9.80885  -2
   5   0   3 977.716 9.80885   1
   6   0   3 521.104 6.88389   1
   7   0   0 197.726 6.94678  -2
   7   0   3 197.726 6.94678   1
   8   0   0 27.2098 14.5839  -2
   8   0   3 27.2098 14.5839   1
   9   0   1 66.7621 11.8277  -2
   9   0   3 66.7621 11.8277   1
   8  -1   6 147.294 8.46493  -2
  -8   1   3 147.294 8.46493   1
   7  -1   6 44.5525 7.48074  -2
  -7   1   3 44.5525 7.48074   1
  -6   1   3 4.99081 2.66426   1
   5  -1   5 142.846 5.52268  -2
  -5   1   3 142.846 5.52268   1
  -4   1   3 212.004 4.69143   1
   3  -1   4 3453.05 29.6953  -2
  -3   1   3 3453.05 29.6953   1
  -2   1   3 160.919 3.49334   1
  -1   1   3 54.5320 2.18521   1
   0  -1   3 426.232 9.59373  -2
   0   1   3 426.232 9.59373   1
   1   1   3 428.135 5.11094   1
  -2  -1   2 1529.77 12.1513  -2
   2   1   3 1529.77 12.1513   1
   3   1   3 258.292 2.73634   1
  -4  -1   1 860.941 17.6008  -2
   4   1   3 860.941 17.6008   1
  -5  -1   1 95.9179 9.83701  -2
   5   1   3 95.9179 9.83701   1
   6   1   3 8.85155 2.15604   1
   7   1   0 83.1005 5.32738  -2
   7   1   3 83.1005 5.32738   1
   8   1   3 163.249 6.34063   1
   9   1   1 108.965 10.1052  -2
   9   1   3 108.965 10.1052   1
  -7   2   3 94.2995 5.15654   1
   6  -2   5 105.641 6.87078  -2
  -6   2   3 105.641 6.87078   1
   5  -2   5 107.277 6.68710  -2
  -5   2   3 107.277 6.68710   1
  -4   2   3 275.157 4.47366   1
   3  -2   4 980.487 11.0535  -2
  -3   2   3 980.487 11.0535   1
  -2   2   3 91.9562 3.33025   1
   1  -2   3 1623.89 19.5351  -2
  -1   2   3 1623.89 19.5351   1
   0   2   3 4.52084 1.67132   1
   1   2   3 1696.38 14.9234   1
  -2  -2   2 775.995 6.91566  -2
   2   2   3 775.995 6.91566   1
   3   2   3 188.228 2.79772   1
  -4  -2   1 23.7231 2.58407  -2
   4   2   3 23.7231 2.58407   1
   5   2   3 194.609 4.58419   1
   6   2   0 446.733 14.7372  -2
   6   2   3 446.733 14.7372   1
   7   2   0 571.880 8.40287  -2
   7   2   3 571.880 8.40287   1
   8   2   3 0.86348 1.95642   1
   9   2   1 96.1473 3.87334  -2
   9   2   3 96.1473 3.87334   1
  -7   3   3 23.7997 3.76816   1
   6  -3   5 56.4339 4.88083  -2
  -6   3   3 56.4339 4.88083   1
  -5   3   3 1.52628 2.34624   1
   4  -3   4 457.783 10.3591  -2
  -4   3   3 457.783 10.3591   1
   3  -3   4 531.172 8.29886  -2
  -3   3   3 531.172 8.29886   1
  -2   3   3 272.128 4.92817   1
   1  -3   3 20.2279 2.19372  -2
  -1   3   3 20.2279 2.19372   1
   0   3   3 166.329 2.66069   1
  -1  -3   2 28.1071 4.36586  -2
   1   3   3 28.1071 4.36586   1
   2   3   3 3083.53 22.1940   1
   3   3   3 1051.92 7.92058   1
  -4  -3   1 537.959 5.49015  -2
   4   3   3 537.959 5.49015   1
   5   3   3 37.9189 2.23973   1
   6   3   0 19.2764 4.10300  -2
   6   3   3 19.2764 4.10300   1
   7   3   3 229.759 6.08101   1
   8   3   1 497.884 18.2400  -2
   8   3   3 497.884 18.2400   1
   9   3   1 26.0117 8.79266  -2
   9   3   3 26.0117 8.79266   1
   6  -4   5 266.747 11.7781  -2
  -6   4   3 266.747 11.7781   1
  -5   4   3 218.946 9.46774   1
   4  -4   4 605.478 11.6135  -2
  -4   4   3 605.478 11.6135   1
  -3   4   3 178.171 4.87724   1
  -2   4   3 91.1221 3.28641   1
   1  -4   3 519.939 8.03026  -2
  -1   4   3 519.939 8.03026   1
   0   4   3 567.164 7.09966   1
  -1  -4   2 298.528 4.55848  -2
   1   4   3 298.528 4.55848   1
   2   4   3 109.113 1.89117   1
  -3  -4   1 181.372 6.01671  -2
   3   4   3 181.372 6.01671   1
  -4  -4   1 279.497 8.93684  -2
   4   4   3 279.497 8.93684   1
   5   4   3 463.331 5.62553   1
   6   4   0 892.844 10.8222  -2
   6   4   3 892.844 10.8222   1
   7   4   3 7.56519 2.75895   1
   8   4   1 167.508 7.51927  -2
   8   4   3 167.508 7.51927   1
   9   4   1 104.520 10.1682  -2
   9   4   3 104.520 10.1682   1
  10   4   3 156.263 13.0802   1
   6  -5   5 201.753 19.4197  -2
  -6   5   3 201.753 19.4197   1
  -5   5   3 163.240 13.1833   1
  -3   5   3 7.48966 1.90462   1
   2  -5   3 165.583 8.04162  -2
  -2   5   3 165.583 8.04162   1
  -1   5   3 51.9275 2.46323   1
   0   5   3 158.297 3.75595   1
  -1  -5   2 2017.44 14.9313  -2
   1   5   3 2017.44 14.9313   1
   2   5   3 468.664 4.40712   1
  -3  -5   1 398.880 4.24998  -2
   3   5   3 398.880 4.24998   1
   4   5   3 622.389 5.15883   1
   5   5   0 244.231 9.82660  -2
   5   5   3 244.231 9.82660   1
   6   5   0 313.432 7.05293  -2
   6   5   3 313.432 7.05293   1
   7   5   3 32.6098 3.11671   1
   8   5   1 22.4212 3.37777  -2
   8   5   3 22.4212 3.37777   1
   9   5   3 57.4359 4.35494   1
   5  -6   4 169.534 17.7347  -2
  -5   6   3 169.534 17.7347   1
   4  -6   4 82.7268 14.8528  -2
  -4   6   3 82.7268 14.8528   1
  -3   6   3 0.45409 4.30113   1
   2  -6   3 481.680 8.90281  -2
  -2   6   3 481.680 8.90281   1
  -1   6   3 82.9051 4.60905   1
   0  -6   2 16.5866 5.64206  -2
   0   6   3 16.5866 5.64206   1
  -1  -6   2 13.7631 5.21982  -2
   1   6   3 13.7631 5.21982   1
   2   6   3 6.15731 1.51225   1
  -3  -6   1 181.136 3.94936  -2
   3   6   3 181.136 3.94936   1
   4   6   3 55.4402 2.38690   1
   5   6   0 977.587 13.5130  -2
   5   6   3 977.587 13.5130   1
   6   6   0 172.806 9.77789  -2
   6   6   3 172.806 9.77789   1
   7   6   1 653.946 17.7271  -2
   7   6   3 653.946 17.7271   1
   8   6   1 141.534 6.49673  -2
   8   6   3 141.534 6.49673   1
   9   6   3 182.485 6.66077   1
  -4   7   3 16.4972 7.96382   1
   3  -7   3 203.028 16.8405  -2
  -3   7   3 203.028 16.8405   1
   2  -7   3 82.6808 12.2353  -2
  -2   7   3 82.6808 12.2353   1
  -1   7   3 4.99982 3.13719   1
   0  -7   2 32.4814 5.81822  -2
   0   7   3 32.4814 5.81822   1
   1   7   3 304.120 5.47602   1
  -2  -7   1 1600.95 29.7590  -2
   2   7   3 1600.95 29.7590   1
  -3  -7   1 1330.64 27.1784  -2
   3   7   3 1330.64 27.1784   1
   4   7   3 34.3199 2.96973   1
   5   7   0 24.1346 3.69369  -2
   5   7   3 24.1346 3.69369   1
   6   7   3 36.2021 3.24795   1
   7   7   1 177.814 8.22125  -2
   7   7   3 177.814 8.22125   1
   8   7   3 105.320 5.72555   1
   9   7   2 6.87287 11.2129  -2
   9   7   3 6.87287 11.2129   1
   3  -8   3 271.175 18.2353  -2
  -3   8   3 271.175 18.2353   1
  -2   8   3 162.996 9.11197   1
  -1   8   3 89.9248 6.56136   1
   0  -8   2 210.050 9.27814  -2
   0   8   3 210.050 9.27814   1
   1   8   3 21.3089 3.39999   1
  -2  -8   1 433.868 7.38446  -2
   2   8   3 433.868 7.38446   1
   3   8   3 72.1083 4.11861   1
   4   8   0 1348.97 29.7181  -2
   4   8   3 1348.97 29.7181   1
   5   8   0 301.532 7.81598  -2
   5   8   3 301.532 7.81598   1
   6   8   3 263.757 8.61476   1
   7   8   1 66.3460 6.16195  -2
   7   8   3 66.3460 6.16195   1
   8   8   3 71.3975 5.99160   1
   9   8   2 179.014 12.4573  -2
   9   8   3 179.014 12.4573   1
  -2   9   3 43.2810 6.44410   1
   1  -9   2 199.167 11.4738  -2
  -1   9   3 199.167 11.4738   1
   0  -9   2 208.766 13.1614  -2
   0   9   3 208.766 13.1614   1
   1   9   3 133.994 8.34833   1
  -2  -9   1 338.587 16.8895  -2
   2   9   3 338.587 16.8895   1
   3   9   3 74.5049 4.49821   1
   4   9   0 10.6729 5.59939  -2
   4   9   3 10.6729 5.59939   1
   5   9   3 89.0766 5.01453   1
   6   9   1 224.604 17.7489  -2
   6   9   3 224.604 17.7489   1
   7   9   1 89.2867 10.0657  -2
   7   9   3 89.2867 10.0657   1
   8   9   3 -0.6946 4.41819   1
   1 -10   2 216.586 10.3270  -2
  -1  10   3 216.586 10.3270   1
   0  10   3 31.5646 5.38744   1
  -1 -10   1 313.780 18.7815  -2
   1  10   3 313.780 18.7815   1
  -2 -10   1 102.855 16.1749  -2
   2  10   3 102.855 16.1749   1
   3  10   3 2.22407 2.91631   1
   4  10   0 100.339 5.94962  -2
   4  10   3 100.339 5.94962   1
   5  10   3 328.805 7.79804   1
   6  10   1 81.4858 9.50788  -2
   6  10   3 81.4858 9.50788   1
   7  10   1 85.6520 18.0206  -2
   7  10   3 85.6520 18.0206   1
   8  10   2 112.293 20.6467  -2
   8  10   3 112.293 20.6467   1
  -1 -11   1 166.599 16.4601  -2
   1  11   3 166.599 16.4601   1
   2  11   3 157.969 16.9028   1
   3  11   0 37.1782 9.46599  -2
   3  11   3 37.1782 9.46599   1
   4  11   0 4.55376 7.38892  -2
   4  11   3 4.55376 7.38892   1
   5  11   3 112.979 6.02892   1
   6  11   1 304.729 10.4142  -2
   6  11   3 304.729 10.4142   1
  -5 -10   4 -3.6074 4.42733   1
   4  10   7 131.552 9.39626  -2
  -4 -10   4 131.552 9.39626   1
  -3 -10   4 455.457 12.0114   1
   2  10   6 74.6440 11.0567  -2
  -2 -10   4 74.6440 11.0567   1
   1  10   6 594.860 15.5906  -2
  -1 -10   4 594.860 15.5906   1
   0 -10   4 140.638 8.88258   1
   7   9   8 75.0766 9.94548  -2
  -7  -9   4 75.0766 9.94548   1
   6   9   8 32.5786 15.3383  -2
  -6  -9   4 32.5786 15.3383   1
  -5  -9   4 8.90373 6.11156   1
   4   9   7 150.997 13.1888  -2
  -4  -9   4 150.997 13.1888   1
  -3  -9   4 74.8138 5.93825   1
   2   9   6 16.9187 8.26568  -2
  -2  -9   4 16.9187 8.26568   1
  -1  -9   4 93.6959 6.37903   1
   0   9   5 33.1069 15.6510  -2
   0  -9   4 33.1069 15.6510   1
  -1   9   5 16.0473 13.5389  -2
   1  -9   4 16.0473 13.5389   1
   2  -9   4 99.3810 7.57263   1
   7   8   8 102.200 5.34017  -2
  -7  -8   4 102.200 5.34017   1
  -6  -8   4 12.4509 2.91934   1
   5   8   7 114.165 8.87920  -2
  -5  -8   4 114.165 8.87920   1
   4   8   7 409.216 13.6606  -2
  -4  -8   4 409.216 13.6606   1
  -3  -8   4 77.8275 7.60094   1
   2   8   6 284.325 9.51894  -2
  -2  -8   4 284.325 9.51894   1
  -1  -8   4 32.2323 4.52080   1
   0   8   5 531.926 12.9308  -2
   0  -8   4 531.926 12.9308   1
   1  -8   4 619.929 12.7363   1
  -2   8   4 135.271 9.13373  -2
   2  -8   4 135.271 9.13373   1
  -3   8   4 196.668 14.6978  -2
   3  -8   4 196.668 14.6978   1
   8   7   8 26.0615 11.0876  -2
  -8  -7   4 26.0615 11.0876   1
   7   7   8 118.884 6.39157  -2
  -7  -7   4 118.884 6.39157   1
  -6  -7   4 61.5973 3.58958   1
   5   7   7 342.285 7.74275  -2
  -5  -7   4 342.285 7.74275   1
   4   7   7 677.092 19.2644  -2
  -4  -7   4 677.092 19.2644   1
   3   7   6 419.960 13.3818  -2
  -3  -7   4 419.960 13.3818   1
   2   7   6 167.559 13.1694  -2
  -2  -7   4 167.559 13.1694   1
  -1  -7   4 3.81908 2.09305   1
   0   7   5 134.667 6.83044  -2
   0  -7   4 134.667 6.83044   1
   1  -7   4 950.705 15.2456   1
  -2   7   4 109.655 6.53846  -2
   2  -7   4 109.655 6.53846   1
  -3   7   4 76.8746 9.28699  -2
   3  -7   4 76.8746 9.28699   1
  -4   7   3 5.14069 9.14217  -2
   4  -7   4 5.14069 9.14217   1
   8   6   8 65.9616 10.2825  -2
  -8  -6   4 65.9616 10.2825   1
   7   6   8 90.5649 7.78972  -2
  -7  -6   4 90.5649 7.78972   1
   6   6   7 216.069 15.7228  -2
  -6  -6   4 216.069 15.7228   1
   5   6   7 99.1798 4.87361  -2
  -5  -6   4 99.1798 4.87361   1
  -4  -6   4 13.1909 2.01097   1
   3   6   6 389.750 7.69316  -2
  -3  -6   4 389.750 7.69316   1
  -2  -6   4 78.7981 3.61069   1
   1   6   5 870.065 12.2507  -2
  -1  -6   4 870.065 12.2507   1
   0   6   5 1043.61 12.6944  -2
   0  -6   4 1043.61 12.6944   1
   1  -6   4 133.715 4.85744   1
  -2   6   4 47.1204 4.40325  -2
   2  -6   4 47.1204 4.40325   1
   3  -6   4 17.9673 2.75093   1
  -4   6   3 87.9160 9.02244  -2
   4  -6   4 87.9160 9.02244   1
  -5   6   3 177.206 11.0772  -2
   5  -6   4 177.206 11.0772   1
   8   5   8 144.296 6.58474  -2
  -8  -5   4 144.296 6.58474   1
  -7  -5   4 82.1916 4.96489   1
   6   5   7 520.698 7.36762  -2
  -6  -5   4 520.698 7.36762   1
   5   5   7 1904.82 17.1616  -2
  -5  -5   4 1904.82 17.1616   1
  -4  -5   4 232.610 4.28723   1
   3   5   6 760.023 8.45469  -2
  -3  -5   4 760.023 8.45469   1
  -2  -5   4 185.610 4.01859   1
   1   5   5 157.269 4.38882  -2
  -1  -5   4 157.269 4.38882   1
   0  -5   4 1780.93 16.8528   1
   1  -5   4 224.412 4.29230   1
  -2   5   4 125.497 6.38738  -2
   2  -5   4 125.497 6.38738   1
   3  -5   4 13.8758 2.52603   1
  -4   5   3 249.525 6.81042  -2
   4  -5   4 249.525 6.81042   1
   5  -5   4 30.5021 3.74137   1
  -6   5   2 128.983 10.7294  -2
   6  -5   4 128.983 10.7294   1
   8   4   8 73.5261 9.26183  -2
  -8  -4   4 73.5261 9.26183   1
  -7  -4   4 103.964 6.82018   1
   6   4   7 166.544 6.04422  -2
  -6  -4   4 166.544 6.04422   1
  -5  -4   4 0.77352 1.72732   1
   4   4   6 468.886 7.22963  -2
  -4  -4   4 468.886 7.22963   1
   3   4   6 13.0332 5.90653  -2
  -3  -4   4 13.0332 5.90653   1
  -2  -4   4 14.2934 1.82587   1
   1   4   5 968.873 9.17043  -2
  -1  -4   4 968.873 9.17043   1
   0   4   5 516.289 13.4584  -2
   0  -4   4 516.289 13.4584   1
  -1   4   4 40.0485 4.41846  -2
   1  -4   4 40.0485 4.41846   1
  -2   4   4 265.084 12.3975  -2
   2  -4   4 265.084 12.3975   1
   3  -4   4 6.64582 2.29408   1
  -4   4   3 665.233 10.0761  -2
   4  -4   4 665.233 10.0761   1
   5  -4   4 485.195 8.62594   1
  -6   4   2 255.017 10.1471  -2
   6  -4   4 255.017 10.1471   1
   7  -4   4 1.99745 3.83098   1
   8   3   8 147.431 11.5129  -2
  -8  -3   4 147.431 11.5129   1
  -7  -3   4 52.9431 4.84074   1
   6   3   7 1399.69 19.6384  -2
  -6  -3   4 1399.69 19.6384   1
  -5  -3   4 157.379 4.75027   1
   4   3   6 1585.71 12.6428  -2
  -4  -3   4 1585.71 12.6428   1
  -3  -3   4 1528.59 11.6468   1
   2   3   5 205.093 6.71625  -2
  -2  -3   4 205.093 6.71625   1
   1   3   5 971.407 12.7887  -2
  -1  -3   4 971.407 12.7887   1
   0   3   4 675.396 15.2340  -2
   0  -3   4 675.396 15.2340   1
  -1   3   4 61.7163 3.12363  -2
   1  -3   4 61.7163 3.12363   1
   2  -3   4 265.732 3.70696   1
  -3   3   3 494.302 6.94023  -2
   3  -3   4 494.302 6.94023   1
  -4   3   3 423.337 10.7829  -2
   4  -3   4 423.337 10.7829   1
   5  -3   4 61.3121 3.89159   1
  -6   3   2 156.450 7.89624  -2
   6  -3   4 156.450 7.89624   1
   7  -3   4 55.4380 4.71928   1
  -8  -2   4 290.702 9.59764   1
   7   2   7 248.318 10.1993  -2
  -7  -2   4 248.318 10.1993   1
   6   2   7 51.3472 11.5014  -2
  -6  -2   4 51.3472 11.5014   1
  -5  -2   4 -2.2514 2.95464   1
   4   2   6 182.285 4.03730  -2
  -4  -2   4 182.285 4.03730   1
  -3  -2   4 670.898 6.93714   1
   2   2   5 1880.41 14.9640  -2
  -2  -2   4 1880.41 14.9640   1
   1   2   5 713.993 15.2812  -2
  -1  -2   4 713.993 15.2812   1
   0   2   4 120.653 7.92678  -2
   0  -2   4 120.653 7.92678   1
  -1   2   4 1097.46 11.3806  -2
   1  -2   4 1097.46 11.3806   1
   2  -2   4 133.250 3.69538   1
  -3   2   3 1071.47 8.83426  -2
   3  -2   4 1071.47 8.83426   1
   4  -2   4 293.986 3.79586   1
  -5   2   2 540.498 11.8218  -2
   5  -2   4 540.498 11.8218   1
  -6   2   2 242.016 9.94332  -2
   6  -2   4 242.016 9.94332   1
   7  -2   4 12.4345 4.36939   1
  -8   2   1 382.596 9.37147  -2
   8  -2   4 382.596 9.37147   1
  -8  -1   4 28.7172 4.16311   1
   7   1   7 429.902 10.3090  -2
  -7  -1   4 429.902 10.3090   1
  -6  -1   4 33.4892 3.32718   1
   5   1   6 378.476 9.79022  -2
  -5  -1   4 378.476 9.79022   1
   4   1   6 607.651 14.6703  -2
  -4  -1   4 607.651 14.6703   1
  -3  -1   4 26.0286 1.80319   1
   2   1   5 870.169 7.87429  -2
  -2  -1   4 870.169 7.87429   1
  -1  -1   4 8.98934 1.55584   1
   0   1   4 159.771 4.11823  -2
   0  -1   4 159.771 4.11823   1
  -1   1   4 94.9869 7.61762  -2
   1  -1   4 94.9869 7.61762   1
   2  -1   4 17.4236 1.89559   1
  -3   1   3 3089.80 23.2617  -2
   3  -1   4 3089.80 23.2617   1
   4  -1   4 0.37733 1.17270   1
  -5   1   2 657.676 7.97936  -2
   5  -1   4 657.676 7.97936   1
  -6   1   2 82.8493 12.4894  -2
   6  -1   4 82.8493 12.4894   1
  -7   1   1 144.256 10.0998  -2
   7  -1   4 144.256 10.0998   1
  -8   1   1 8.94953 8.22360  -2
   8  -1   4 8.94953 8.22360   1
   8   0   7 130.672 15.0250  -2
  -8   0   4 130.672 15.0250   1
   7   0   7 571.898 10.4954  -2
  -7   0   4 571.898 10.4954   1
  -6   0   4 63.4383 4.16862   1
   5   0   6 69.1646 4.93510  -2
  -5   0   4 69.1646 4.93510   1
  -4   0   4 206.832 4.81331   1
  -3   0   4 250.711 4.05896   1
   2   0   5 1037.01 13.2682  -2
  -2   0   4 1037.01 13.2682   1
  -1   0   4 193.381 3.58936   1
   0   0   4 435.385 5.09768  -2
   0   0   4 435.385 5.09768   1
   1   0   4 32.5626 1.84810   1
  -2   0   3 55.0179 4.81187  -2
   2   0   4 55.0179 4.81187   1
  -3   0   3 196.566 8.97875  -2
   3   0   4 196.566 8.97875   1
   4   0   4 1769.66 10.8619   1
  -5   0   2 695.666 8.16716  -2
   5   0   4 695.666 8.16716   1
   6   0   4 310.100 5.66125   1
  -7   0   1 -7.6514 6.44457  -2
   7   0   4 -7.6514 6.44457   1
  -8   0   1 137.808 16.2334  -2
   8   0   4 137.808 16.2334   1
   9   0   0 255.907 10.9916  -2
   9   0   4 255.907 10.9916   1
   8  -1   7 154.847 13.5241  -2
  -8   1   4 154.847 13.5241   1
   7  -1   7 132.720 8.31450  -2
  -7   1   4 132.720 8.31450   1
  -6   1   4 129.961 5.24389   1
   5  -1   6 103.379 5.19439  -2
  -5   1   4 103.379 5.19439   1
  -4   1   4 48.9469 3.08181   1
   3  -1   5 1722.00 16.3743  -2
  -3   1   4 1722.00 16.3743   1
  -2   1   4 39.6501 1.67977   1
  -1   1   4 100.103 2.39024   1
   0  -1   4 146.631 4.26653  -2
   0   1   4 146.631 4.26653   1
   1   1   4 1047.75 12.1388   1
  -2  -1   3 5742.66 41.5769  -2
   2   1   4 5742.66 41.5769   1
   3   1   4 102.364 2.51028   1
  -4  -1   2 414.167 8.61844  -2
   4   1   4 414.167 8.61844   1
  -5  -1   2 595.428 15.7301  -2
   5   1   4 595.428 15.7301   1
   6   1   4 363.227 5.95658   1
  -7  -1   1 206.911 5.89244  -2
   7   1   4 206.911 5.89244   1
   8   1   4 3.84293 3.29460   1
   9   1   0 159.585 9.73712  -2
   9   1   4 159.585 9.73712   1
  -7   2   4 82.1425 5.09542   1
   6  -2   6 71.9957 6.74018  -2
  -6   2   4 71.9957 6.74018   1
   5  -2   6 104.479 6.27534  -2
  -5   2   4 104.479 6.27534   1
  -4   2   4 320.905 4.97593   1
   3  -2   5 2510.82 19.9724  -2
  -3   2   4 2510.82 19.9724   1
  -2   2   4 348.442 5.15389   1
   1  -2   4 1000.15 8.22705  -2
  -1   2   4 1000.15 8.22705   1
   0   2   4 7.90861 2.31791   1
   1   2   4 44.7729 2.21982   1
  -2  -2   3 335.834 4.25748  -2
   2   2   4 335.834 4.25748   1
   3   2   4 1186.17 8.95698   1
  -4  -2   2 181.616 3.60090  -2
   4   2   4 181.616 3.60090   1
   5   2   4 338.153 4.49942   1
  -6  -2   1 173.012 12.1168  -2
   6   2   4 173.012 12.1168   1
  -7  -2   1 81.6551 6.43087  -2
   7   2   4 81.6551 6.43087   1
   8   2   4 63.1979 5.36270   1
   9   2   0 323.457 7.20178  -2
   9   2   4 323.457 7.20178   1
  -7   3   4 125.925 7.63381   1
   6  -3   6 15.3883 7.24261  -2
  -6   3   4 15.3883 7.24261   1
  -5   3   4 9.45929 3.93240   1
   4  -3   5 292.093 11.5208  -2
  -4   3   4 292.093 11.5208   1
   3  -3   5 129.052 5.92041  -2
  -3   3   4 129.052 5.92041   1
  -2   3   4 6.55580 2.07394   1
   1  -3   4 69.7023 1.97508  -2
  -1   3   4 69.7023 1.97508   1
   0   3   4 358.179 5.54600   1
  -1  -3   3 868.141 15.0879  -2
   1   3   4 868.141 15.0879   1
   2   3   4 1925.19 14.6330   1
   3   3   4 11.4845 1.25830   1
  -4  -3   2 1113.63 9.02286  -2
   4   3   4 1113.63 9.02286   1
   5   3   4 181.170 3.53417   1
  -6  -3   1 516.865 7.29593  -2
   6   3   4 516.865 7.29593   1
  -7  -3   1 32.8355 11.5624  -2
   7   3   4 32.8355 11.5624   1
   8   3   0 545.234 19.1376  -2
   8   3   4 545.234 19.1376   1
   9   3   0 322.782 10.8309  -2
   9   3   4 322.782 10.8309   1
   6  -4   6 444.111 20.1830  -2
  -6   4   4 444.111 20.1830   1
  -5   4   4 -1.7623 3.43911   1
   4  -4   5 242.271 9.81211  -2
  -4   4   4 242.271 9.81211   1
  -3   4   4 463.272 7.49065   1
  -2   4   4 15.6803 2.33311   1
   1  -4   4 29.3018 3.26848  -2
  -1   4   4 29.3018 3.26848   1
   0   4   4 187.021 4.32413   1
  -1  -4   3 231.143 4.46552  -2
   1   4   4 231.143 4.46552   1
   2   4   4 406.723 4.21385   1
  -3  -4   2 349.881 9.69368  -2
   3   4   4 349.881 9.69368   1
  -4  -4   2 118.349 5.46559  -2
   4   4   4 118.349 5.46559   1
   5   4   4 225.925 3.78155   1
  -6  -4   1 326.384 6.45355  -2
   6   4   4 326.384 6.45355   1
   7   4   4 1.71243 2.54336   1
   8   4   0 521.524 9.77679  -2
   8   4   4 521.524 9.77679   1
   9   4   0 206.597 11.1786  -2
   9   4   4 206.597 11.1786   1
  -6   5   4 33.1573 9.19043   1
  -5   5   4 77.8630 10.0295   1
   4  -5   5 41.5488 11.1274  -2
  -4   5   4 41.5488 11.1274   1
  -3   5   4 2.21449 3.22429   1
   2  -5   4 125.288 8.19873  -2
  -2   5   4 125.288 8.19873   1
  -1   5   4 40.9728 2.45507   1
   0   5   4 2017.82 17.2411   1
  -1  -5   3 3110.82 28.0005  -2
   1   5   4 3110.82 28.0005   1
   2   5   4 167.464 2.89321   1
  -3  -5   2 43.3020 2.50988  -2
   3   5   4 43.3020 2.50988   1
   4   5   4 0.92095 1.12471   1
  -5  -5   1 1843.39 30.1259  -2
   5   5   4 1843.39 30.1259   1
  -6  -5   1 732.198 10.1402  -2
   6   5   4 732.198 10.1402   1
   7   5   4 0.78361 2.42469   1
   8   5   0 118.124 5.64907  -2
   8   5   4 118.124 5.64907   1
   9   5   4 2.54958 3.21068   1
   5  -6   5 112.834 17.2933  -2
  -5   6   4 112.834 17.2933   1
   4  -6   5 418.987 20.0226  -2
  -4   6   4 418.987 20.0226   1
  -3   6   4 4.93160 6.84217   1
   2  -6   4 43.0264 5.39573  -2
  -2   6   4 43.0264 5.39573   1
  -1   6   4 137.541 5.78817   1
   0  -6   3 275.453 6.78037  -2
   0   6   4 275.453 6.78037   1
  -1  -6   3 680.163 13.2855  -2
   1   6   4 680.163 13.2855   1
   2   6   4 187.385 2.79090   1
  -3  -6   2 674.547 8.15212  -2
   3   6   4 674.547 8.15212   1
   4   6   4 11.1555 1.61976   1
  -5  -6   1 660.921 10.5989  -2
   5   6   4 660.921 10.5989   1
   6   6   4 62.9682 4.05110   1
   7   6   0 135.613 9.46200  -2
   7   6   4 135.613 9.46200   1
   8   6   0 61.8237 5.37566  -2
   8   6   4 61.8237 5.37566   1
   9   6   4 38.2602 3.82806   1
  -4   7   4 27.9913 8.98403   1
   3  -7   4 74.3638 15.8485  -2
  -3   7   4 74.3638 15.8485   1
   2  -7   4 86.4966 8.45984  -2
  -2   7   4 86.4966 8.45984   1
  -1   7   4 512.643 7.67867   1
   0  -7   3 208.698 8.01925  -2
   0   7   4 208.698 8.01925   1
   1   7   4 201.999 4.57351   1
  -2  -7   2 377.012 7.17417  -2
   2   7   4 377.012 7.17417   1
  -3  -7   2 84.7178 10.4196  -2
   3   7   4 84.7178 10.4196   1
   4   7   4 615.878 8.00878   1
  -5  -7   1 223.905 10.0460  -2
   5   7   4 223.905 10.0460   1
   6   7   4 2.30753 2.77680   1
   7   7   0 142.924 7.82515  -2
   7   7   4 142.924 7.82515   1
   8   7   4 3.84669 3.19268   1
   9   7   4 18.0297 3.87518   1
   3  -8   4 223.178 17.4500  -2
  -3   8   4 223.178 17.4500   1
  -2   8   4 155.724 9.68563   1
  -1   8   4 7.18876 3.73420   1
   0  -8   3 383.961 11.3654  -2
   0   8   4 383.961 11.3654   1
   1   8   4 79.3650 4.46737   1
  -2  -8   2 585.714 11.6736  -2
   2   8   4 585.714 11.6736   1
   3   8   4 19.6664 2.51885   1
  -4  -8   1 295.944 14.8866  -2
   4   8   4 295.944 14.8866   1
  -5  -8   1 118.472 8.39033  -2
   5   8   4 118.472 8.39033   1
   6   8   4 15.0260 3.86782   1
   7   8   0 52.2824 5.94908  -2
   7   8   4 52.2824 5.94908   1
   8   8   4 135.379 8.41380   1
   9   8   1 508.590 15.6749  -2
   9   8   4 508.590 15.6749   1
  -2   9   4 88.4752 7.91539   1
   1  -9   3 102.016 13.9642  -2
  -1   9   4 102.016 13.9642   1
   0  -9   3 59.0003 10.9518  -2
   0   9   4 59.0003 10.9518   1
   1   9   4 499.008 13.1701   1
  -2  -9   2 164.783 7.79749  -2
   2   9   4 164.783 7.79749   1
   3   9   4 75.8519 4.37827   1
  -4  -9   1 245.168 7.32051  -2
   4   9   4 245.168 7.32051   1
   5   9   4 53.7125 3.80019   1
   6   9   0 204.327 17.3492  -2
   6   9   4 204.327 17.3492   1
   7   9   0 78.1874 9.83574  -2
   7   9   4 78.1874 9.83574   1
   8   9   4 7.74467 4.63502   1
   1 -10   3 62.0675 8.35225  -2
  -1  10   4 62.0675 8.35225   1
   0  10   4 30.4678 5.17482   1
  -1 -10   2 516.161 23.3984  -2
   1  10   4 516.161 23.3984   1
  -2 -10   2 326.978 20.6483  -2
   2  10   4 326.978 20.6483   1
   3  10   4 52.7355 3.77732   1
  -4 -10   1 87.4664 5.88241  -2
   4  10   4 87.4664 5.88241   1
   5  10   4 34.3813 4.51754   1
   6  10   0 101.655 9.64720  -2
   6  10   4 101.655 9.64720   1
   7  10   0 107.787 18.6114  -2
   7  10   4 107.787 18.6114   1
   8  10   4 4.60116 6.26506   1
   2  11   4 59.7916 10.8340   1
  -3 -11   1 71.8784 18.9056  -2
   3  11   4 71.8784 18.9056   1
  -4 -11   1 33.8547 7.55915  -2
   4  11   4 33.8547 7.55915   1
   5  11   4 162.433 6.55438   1
   6  11   0 399.852 11.1346  -2
   6  11   4 399.852 11.1346   1
   4  10   8 14.6026 8.13284  -2
  -4 -10   5 14.6026 8.13284   1
  -3 -10   5 42.1546 5.78135   1
   2  10   7 263.283 13.3646  -2
  -2 -10   5 263.283 13.3646   1
   1  10   7 500.022 15.2540  -2
  -1 -10   5 500.022 15.2540   1
   6   9   9 249.597 18.6439  -2
  -6  -9   5 249.597 18.6439   1
  -5  -9   5 141.778 12.4558   1
   4   9   8 184.495 14.6990  -2
  -4  -9   5 184.495 14.6990   1
  -3  -9   5 10.8127 4.85435   1
   2   9   7 99.4173 9.38585  -2
  -2  -9   5 99.4173 9.38585   1
  -1  -9   5 210.998 9.26271   1
   0   9   6 340.711 19.7781  -2
   0  -9   5 340.711 19.7781   1
  -1   9   6 16.1015 10.2879  -2
   1  -9   5 16.1015 10.2879   1
   7   8   9 64.9477 4.35459  -2
  -7  -8   5 64.9477 4.35459   1
  -6  -8   5 53.1959 4.30167   1
   5   8   8 264.816 10.8352  -2
  -5  -8   5 264.816 10.8352   1
   4   8   8 101.149 8.73750  -2
  -4  -8   5 101.149 8.73750   1
   2   8   7 345.408 14.7382  -2
  -2  -8   5 345.408 14.7382   1
  -1  -8   5 34.4769 4.75225   1
   0   8   6 287.727 11.1915  -2
   0  -8   5 287.727 11.1915   1
  -1   8   6 126.949 17.6429  -2
   1  -8   5 126.949 17.6429   1
  -2   8   5 80.7088 11.7476  -2
   2  -8   5 80.7088 11.7476   1
  -3   8   5 144.201 9.25522  -2
   3  -8   5 144.201 9.25522   1
   7   7   9 15.3183 9.62404  -2
  -7  -7   5 15.3183 9.62404   1
  -6  -7   5 1.66173 2.73344   1
   5   7   8 482.894 9.06248  -2
  -5  -7   5 482.894 9.06248   1
   4   7   8 522.083 18.6034  -2
  -4  -7   5 522.083 18.6034   1
   3   7   7 43.2069 7.71240  -2
  -3  -7   5 43.2069 7.71240   1
   2   7   7 156.854 10.0496  -2
  -2  -7   5 156.854 10.0496   1
   0   7   6 144.443 7.26000  -2
   0  -7   5 144.443 7.26000   1
   1  -7   5 164.289 5.33863   1
  -2   7   5 63.3658 6.56234  -2
   2  -7   5 63.3658 6.56234   1
  -3   7   5 80.7798 7.54653  -2
   3  -7   5 80.7798 7.54653   1
  -4   7   4 -0.8555 16.6106  -2
   4  -7   5 -0.8555 16.6106   1
   8   6   9 217.862 11.9747  -2
  -8  -6   5 217.862 11.9747   1
   7   6   9 15.2611 7.91686  -2
  -7  -6   5 15.2611 7.91686   1
   6   6   8 320.538 13.1675  -2
  -6  -6   5 320.538 13.1675   1
   5   6   8 367.546 8.31994  -2
  -5  -6   5 367.546 8.31994   1
  -4  -6   5 463.985 8.11862   1
   3   6   7 167.709 5.00431  -2
  -3  -6   5 167.709 5.00431   1
  -2  -6   5 108.587 3.91517   1
   1   6   6 526.432 10.0036  -2
  -1  -6   5 526.432 10.0036   1
   0   6   6 71.4326 7.17882  -2
   0  -6   5 71.4326 7.17882   1
   1  -6   5 2.37155 2.49554   1
  -2   6   5 65.2769 4.86312  -2
   2  -6   5 65.2769 4.86312   1
   3  -6   5 151.496 5.13013   1
  -4   6   4 375.139 9.81970  -2
   4  -6   5 375.139 9.81970   1
  -5   6   4 106.280 11.1367  -2
   5  -6   5 106.280 11.1367   1
   8   5   9 23.6842 4.89936  -2
  -8  -5   5 23.6842 4.89936   1
  -7  -5   5 4.20275 3.31622   1
   6   5   8 555.324 10.5811  -2
  -6  -5   5 555.324 10.5811   1
   5   5   8 1201.57 15.0089  -2
  -5  -5   5 1201.57 15.0089   1
  -4  -5   5 3.66745 1.97577   1
   3   5   7 285.084 5.61697  -2
  -3  -5   5 285.084 5.61697   1
  -2  -5   5 64.8055 3.10670   1
   1   5   6 348.667 5.96727  -2
  -1  -5   5 348.667 5.96727   1
   0   5   6 938.735 19.7214  -2
   0  -5   5 938.735 19.7214   1
   1  -5   5 212.374 4.60135   1
  -2   5   5 225.836 7.22713  -2
   2  -5   5 225.836 7.22713   1
   3  -5   5 0.42924 2.78109   1
  -4   5   4 49.6798 5.34103  -2
   4  -5   5 49.6798 5.34103   1
   5  -5   5 197.698 6.90557   1
  -6   5   3 229.840 12.2234  -2
   6  -5   5 229.840 12.2234   1
   8   4   9 61.7260 8.00359  -2
  -8  -4   5 61.7260 8.00359   1
  -7  -4   5 103.765 5.60315   1
   6   4   8 207.283 6.59863  -2
  -6  -4   5 207.283 6.59863   1
  -5  -4   5 936.666 14.3989   1
   4   4   7 161.808 5.92399  -2
  -4  -4   5 161.808 5.92399   1
   3   4   7 105.888 6.10354  -2
  -3  -4   5 105.888 6.10354   1
  -2  -4   5 80.8021 3.96847   1
   1   4   6 64.1044 3.80575  -2
  -1  -4   5 64.1044 3.80575   1
   0   4   6 126.123 11.0420  -2
   0  -4   5 126.123 11.0420   1
  -1   4   5 587.845 8.60509  -2
   1  -4   5 587.845 8.60509   1
  -2   4   5 82.9068 11.5984  -2
   2  -4   5 82.9068 11.5984   1
   3  -4   5 1.64208 1.92448   1
  -4   4   4 603.709 9.97710  -2
   4  -4   5 603.709 9.97710   1
   5  -4   5 81.1981 4.52414   1
  -6   4   3 450.637 12.2441  -2
   6  -4   5 450.637 12.2441   1
   7  -4   5 96.0393 9.91930   1
   8   3   9 393.469 11.5761  -2
  -8  -3   5 393.469 11.5761   1
   7   3   8 95.0246 14.4348  -2
  -7  -3   5 95.0246 14.4348   1
   6   3   8 514.105 9.75618  -2
  -6  -3   5 514.105 9.75618   1
  -5  -3   5 68.2122 3.82414   1
   4   3   7 13.9087 3.73945  -2
  -4  -3   5 13.9087 3.73945   1
  -3  -3   5 408.779 6.41928   1
   2   3   6 197.373 7.02577  -2
  -2  -3   5 197.373 7.02577   1
   1   3   6 698.353 8.97415  -2
  -1  -3   5 698.353 8.97415   1
   0   3   5 822.101 18.0045  -2
   0  -3   5 822.101 18.0045   1
  -1   3   5 656.670 8.22865  -2
   1  -3   5 656.670 8.22865   1
   2  -3   5 117.041 4.13441   1
  -3   3   4 122.464 5.19691  -2
   3  -3   5 122.464 5.19691   1
  -4   3   4 574.221 8.70172  -2
   4  -3   5 574.221 8.70172   1
   5  -3   5 360.775 7.44322   1
  -6   3   3 45.6114 7.02364  -2
   6  -3   5 45.6114 7.02364   1
   7  -3   5 -2.2135 3.43507   1
  -8  -2   5 450.167 11.8599   1
   7   2   8 144.033 9.66779  -2
  -7  -2   5 144.033 9.66779   1
   6   2   8 465.244 11.9880  -2
  -6  -2   5 465.244 11.9880   1
  -5  -2   5 77.8473 4.41483   1
   4   2   7 111.057 5.26258  -2
  -4  -2   5 111.057 5.26258   1
  -3  -2   5 1139.61 10.3931   1
   2   2   6 17.3579 3.95628  -2
  -2  -2   5 17.3579 3.95628   1
   1   2   6 823.334 17.4261  -2
  -1  -2   5 823.334 17.4261   1
   0   2   5 158.678 6.04895  -2
   0  -2   5 158.678 6.04895   1
  -1   2   5 268.227 5.67064  -2
   1  -2   5 268.227 5.67064   1
   2  -2   5 215.327 4.69325   1
  -3   2   4 2531.99 20.0144  -2
   3  -2   5 2531.99 20.0144   1
   4  -2   5 42.8414 2.39178   1
  -5   2   3 93.0869 6.95618  -2
   5  -2   5 93.0869 6.95618   1
  -6   2   3 87.6130 7.48080  -2
   6  -2   5 87.6130 7.48080   1
   7  -2   5 138.884 6.60304   1
  -8   2   2 400.923 9.64547  -2
   8  -2   5 400.923 9.64547   1
  -8  -1   5 100.638 6.64453   1
   7   1   8 169.278 7.90577  -2
  -7  -1   5 169.278 7.90577   1
  -6  -1   5 24.3195 3.94214   1
   5   1   7 302.931 9.32760  -2
  -5  -1   5 302.931 9.32760   1
   4   1   7 597.403 11.2983  -2
  -4  -1   5 597.403 11.2983   1
  -3  -1   5 0.51611 2.06549   1
   2   1   6 117.486 3.45340  -2
  -2  -1   5 117.486 3.45340   1
  -1  -1   5 171.053 3.62588   1
   0   1   5 1172.29 11.8352  -2
   0  -1   5 1172.29 11.8352   1
  -1   1   5 976.126 18.7908  -2
   1  -1   5 976.126 18.7908   1
   2  -1   5 68.0396 3.24693   1
  -3   1   4 1794.71 17.4677  -2
   3  -1   5 1794.71 17.4677   1
   4  -1   5 624.698 5.74089   1
  -5   1   3 148.554 4.90249  -2
   5  -1   5 148.554 4.90249   1
  -6   1   3 8.53608 12.3111  -2
   6  -1   5 8.53608 12.3111   1
  -7   1   2 5.01414 9.13517  -2
   7  -1   5 5.01414 9.13517   1
  -8   1   2 96.1349 10.0949  -2
   8  -1   5 96.1349 10.0949   1
   7   0   8 -1.2239 7.17988  -2
  -7   0   5 -1.2239 7.17988   1
  -6   0   5 72.9800 4.53647   1
   5   0   7 485.437 9.78294  -2
  -5   0   5 485.437 9.78294   1
  -4   0   5 610.854 8.47020   1
  -3   0   5 1.67286 1.62534   1
   2   0   6 207.868 4.59236  -2
  -2   0   5 207.868 4.59236   1
  -1   0   5 4.19200 1.97113   1
   0   0   5 140.711 3.07893  -2
   0   0   5 140.711 3.07893   1
   1   0   5 83.7143 2.93321   1
  -2   0   4 1023.26 10.9972  -2
   2   0   5 1023.26 10.9972   1
  -3   0   4 340.752 8.11239  -2
   3   0   5 340.752 8.11239   1
  -4   0   3 389.133 13.2011  -2
   4   0   5 389.133 13.2011   1
  -5   0   3 169.885 5.00870  -2
   5   0   5 169.885 5.00870   1
   6   0   5 18.0337 2.53012   1
  -7   0   2 305.318 9.72467  -2
   7   0   5 305.318 9.72467   1
  -8   0   2 113.564 11.4450  -2
   8   0   5 113.564 11.4450   1
   7  -1   8 0.00092 7.60471  -2
  -7   1   5 0.00092 7.60471   1
  -6   1   5 47.7887 3.81551   1
   5  -1   7 143.167 5.71028  -2
  -5   1   5 143.167 5.71028   1
  -4   1   5 0.89326 2.17502   1
   3  -1   6 634.765 8.18453  -2
  -3   1   5 634.765 8.18453   1
  -2   1   5 217.818 3.49332   1
  -1   1   5 877.354 8.91022   1
   0  -1   5 1109.30 13.4286  -2
   0   1   5 1109.30 13.4286   1
   1   1   5 56.3558 2.22425   1
  -2  -1   4 913.067 9.47492  -2
   2   1   5 913.067 9.47492   1
   3   1   5 394.335 5.04649   1
  -4  -1   3 285.108 6.23685  -2
   4   1   5 285.108 6.23685   1
  -5  -1   3 948.871 12.1047  -2
   5   1   5 948.871 12.1047   1
   6   1   5 34.2898 2.79981   1
  -7  -1   2 473.159 8.47763  -2
   7   1   5 473.159 8.47763   1
   8   1   5 45.7946 3.57997   1
  -9  -1   1 180.703 10.2099  -2
   9   1   5 180.703 10.2099   1
  -7   2   5 3.00248 3.19207   1
   6  -2   7 112.490 7.10213  -2
  -6   2   5 112.490 7.10213   1
   5  -2   7 317.097 7.81913  -2
  -5   2   5 317.097 7.81913   1
  -4   2   5 372.714 5.55859   1
   3  -2   6 276.661 5.03161  -2
  -3   2   5 276.661 5.03161   1
  -2   2   5 92.7284 3.03529   1
   1  -2   5 239.576 9.46666  -2
  -1   2   5 239.576 9.46666   1
   0   2   5 84.4243 5.98727   1
  -1  -2   4 805.283 14.1807  -2
   1   2   5 805.283 14.1807   1
  -2  -2   4 1800.06 17.1177  -2
   2   2   5 1800.06 17.1177   1
   3   2   5 299.172 3.78212   1
  -4  -2   3 220.878 3.98488  -2
   4   2   5 220.878 3.98488   1
  -5  -2   3 57.7105 6.94707  -2
   5   2   5 57.7105 6.94707   1
  -6  -2   2 79.2602 6.63387  -2
   6   2   5 79.2602 6.63387   1
  -7  -2   2 46.5353 5.25779  -2
   7   2   5 46.5353 5.25779   1
   8   2   5 22.2186 2.97958   1
  -9  -2   1 185.162 8.98883  -2
   9   2   5 185.162 8.98883   1
   6  -3   7 145.082 8.13953  -2
  -6   3   5 145.082 8.13953   1
  -5   3   5 31.5428 4.40673   1
   4  -3   6 81.2831 7.46862  -2
  -4   3   5 81.2831 7.46862   1
   3  -3   6 74.4295 5.59828  -2
  -3   3   5 74.4295 5.59828   1
  -2   3   5 524.692 6.66238   1
   1  -3   5 716.752 6.53807  -2
  -1   3   5 716.752 6.53807   1
   0   3   5 28.6650 2.53462   1
  -1  -3   4 892.013 9.46602  -2
   1   3   5 892.013 9.46602   1
  -2  -3   4 195.953 11.9259  -2
   2   3   5 195.953 11.9259   1
   3   3   5 164.786 2.74000   1
  -4  -3   3 3446.71 23.3518  -2
   4   3   5 3446.71 23.3518   1
   5   3   5 123.743 3.09831   1
  -6  -3   2 621.485 8.11002  -2
   6   3   5 621.485 8.11002   1
  -7  -3   2 44.5599 6.68724  -2
   7   3   5 44.5599 6.68724   1
  -8  -3   1 122.239 10.0117  -2
   8   3   5 122.239 10.0117   1
  -9  -3   1 632.665 14.0850  -2
   9   3   5 632.665 14.0850   1
   6  -4   7 187.212 16.7724  -2
  -6   4   5 187.212 16.7724   1
  -5   4   5 9.61675 3.29544   1
   4  -4   6 65.2446 12.3732  -2
  -4   4   5 65.2446 12.3732   1
  -3   4   5 416.637 10.0220   1
  -2   4   5 -0.4344 1.89223   1
   1  -4   5 629.757 7.52126  -2
  -1   4   5 629.757 7.52126   1
   0   4   5 60.0205 3.50090   1
  -1  -4   4 908.339 12.7543  -2
   1   4   5 908.339 12.7543   1
   2   4   5 161.670 2.85066   1
   3   4   5 143.807 3.07543   1
  -4  -4   3 413.337 6.90438  -2
   4   4   5 413.337 6.90438   1
   5   4   5 19.5660 1.77358   1
  -6  -4   2 407.633 6.15689  -2
   6   4   5 407.633 6.15689   1
   7   4   5 2.59130 2.24080   1
  -8  -4   1 437.395 9.19005  -2
   8   4   5 437.395 9.19005   1
  -9  -4   1 93.0639 7.30008  -2
   9   4   5 93.0639 7.30008   1
  -5   5   5 0.80559 7.26461   1
   4  -5   6 28.7096 11.6243  -2
  -4   5   5 28.7096 11.6243   1
  -3   5   5 46.4794 4.61712   1
   2  -5   5 248.698 9.88201  -2
  -2   5   5 248.698 9.88201   1
  -1   5   5 23.5771 2.96674   1
   0   5   5 141.412 4.65491   1
  -1  -5   4 189.631 6.58394  -2
   1   5   5 189.631 6.58394   1
   2   5   5 14.2680 1.17428   1
  -3  -5   3 1284.34 10.9270  -2
   3   5   5 1284.34 10.9270   1
   4   5   5 249.047 4.20708   1
  -5  -5   2 90.5933 12.0792  -2
   5   5   5 90.5933 12.0792   1
  -6  -5   2 204.776 6.68154  -2
   6   5   5 204.776 6.68154   1
   7   5   5 0.42694 2.10034   1
  -8  -5   1 187.955 6.14877  -2
   8   5   5 187.955 6.14877   1
   9   5   5 173.402 6.67623   1
   4  -6   6 430.218 20.6268  -2
  -4   6   5 430.218 20.6268   1
  -3   6   5 10.1012 3.28732   1
   2  -6   5 59.2031 4.58661  -2
  -2   6   5 59.2031 4.58661   1
  -1   6   5 3.77444 2.62559   1
   0  -6   4 1057.68 13.0708  -2
   0   6   5 1057.68 13.0708   1
  -1  -6   4 957.547 17.8155  -2
   1   6   5 957.547 17.8155   1
   2   6   5 19.4320 1.71216   1
  -3  -6   3 645.708 8.33577  -2
   3   6   5 645.708 8.33577   1
   4   6   5 0.55142 1.60774   1
  -5  -6   2 359.485 5.83372  -2
   5   6   5 359.485 5.83372   1
   6   6   5 87.9315 3.68383   1
   7   6   5 299.245 7.90756   1
  -8  -6   1 246.410 9.81776  -2
   8   6   5 246.410 9.81776   1
   9   6   5 27.8944 4.83341   1
  -4   7   5 25.6521 9.19777   1
   3  -7   5 99.2476 16.7596  -2
  -3   7   5 99.2476 16.7596   1
   2  -7   5 72.4839 6.60191  -2
  -2   7   5 72.4839 6.60191   1
  -1   7   5 81.9137 4.62843   1
   0  -7   4 141.116 7.42374  -2
   0   7   5 141.116 7.42374   1
   1   7   5 25.3996 2.42519   1
  -2  -7   3 135.371 7.87918  -2
   2   7   5 135.371 7.87918   1
  -3  -7   3 284.007 17.4551  -2
   3   7   5 284.007 17.4551   1
   4   7   5 19.4172 2.81405   1
  -5  -7   2 133.730 8.78108  -2
   5   7   5 133.730 8.78108   1
   6   7   5 24.3964 5.20846   1
  -7  -7   1 151.411 12.5843  -2
   7   7   5 151.411 12.5843   1
   8   7   5 206.416 11.9097   1
   9   7   5 60.5662 5.63408   1
   3  -8   5 178.884 17.6483  -2
  -3   8   5 178.884 17.6483   1
   2  -8   5 63.8615 15.8819  -2
  -2   8   5 63.8615 15.8819   1
  -1   8   5 353.110 10.5505   1
   0  -8   4 522.149 13.1506  -2
   0   8   5 522.149 13.1506   1
   1   8   5 25.4357 3.50588   1
  -2  -8   3 125.710 6.91715  -2
   2   8   5 125.710 6.91715   1
   3   8   5 56.2143 2.70315   1
  -4  -8   2 76.9326 9.71087  -2
   4   8   5 76.9326 9.71087   1
  -5  -8   2 33.5720 10.0528  -2
   5   8   5 33.5720 10.0528   1
   6   8   5 81.5304 5.52472   1
  -7  -8   1 287.616 9.48431  -2
   7   8   5 287.616 9.48431   1
   8   8   5 108.256 7.22075   1
   9   8   0 445.618 19.9977  -2
   9   8   5 445.618 19.9977   1
  -2   9   5 16.8060 8.57842   1
   1  -9   4 23.2966 13.2543  -2
  -1   9   5 23.2966 13.2543   1
   0  -9   4 0.98046 11.7487  -2
   0   9   5 0.98046 11.7487   1
   1   9   5 58.8995 6.53771   1
  -2  -9   3 30.8029 7.05332  -2
   2   9   5 30.8029 7.05332   1
   3   9   5 2.70696 2.48208   1
  -4  -9   2 109.648 7.16828  -2
   4   9   5 109.648 7.16828   1
   5   9   5 149.938 6.87925   1
  -6  -9   1 90.6210 16.2105  -2
   6   9   5 90.6210 16.2105   1
  -7  -9   1 -5.8923 9.05842  -2
   7   9   5 -5.8923 9.05842   1
   8   9   5 40.5592 5.67650   1
   0  10   5 133.273 9.16504   1
   3  10   5 4.48079 3.92823   1
  -4 -10   2 71.6899 6.28375  -2
   4  10   5 71.6899 6.28375   1
   5  10   5 133.366 7.03091   1
  -6 -10   1 372.021 12.0700  -2
   6  10   5 372.021 12.0700   1
  -7 -10   1 252.969 20.2910  -2
   7  10   5 252.969 20.2910   1
   2  11   5 2.09333 8.51649   1
  -4 -11   2 71.1291 13.0887  -2
   4  11   5 71.1291 13.0887   1
   5  11   5 48.5088 4.35317   1
  -6 -11   1 95.4399 7.65415  -2
   6  11   5 95.4399 7.65415   1
  -5  -9   6 70.5406 6.04243   1
   4   9   9 31.3458 12.9166  -2
  -4  -9   6 31.3458 12.9166   1
  -3  -9   6 70.9719 8.44102   1
   2   9   8 72.6028 9.67650  -2
  -2  -9   6 72.6028 9.67650   1
  -1  -9   6 155.762 9.06324   1
   0   9   7 304.867 20.5398  -2
   0  -9   6 304.867 20.5398   1
   1  -9   6 14.3637 5.16331   1
  -6  -8   6 146.246 8.24299   1
   5   8   9 644.885 12.0172  -2
  -5  -8   6 644.885 12.0172   1
   4   8   9 226.560 13.9208  -2
  -4  -8   6 226.560 13.9208   1
  -3  -8   6 3.40540 3.25141   1
   2   8   8 222.960 13.8929  -2
  -2  -8   6 222.960 13.8929   1
  -1  -8   6 -4.1199 4.19936   1
   0   8   7 127.750 10.0739  -2
   0  -8   6 127.750 10.0739   1
  -1   8   7 63.6763 17.1326  -2
   1  -8   6 63.6763 17.1326   1
  -2   8   6 103.809 12.4150  -2
   2  -8   6 103.809 12.4150   1
   7   7  10 64.2234 15.1248  -2
  -7  -7   6 64.2234 15.1248   1
  -6  -7   6 9.41705 3.24221   1
   5   7   9 26.6635 6.47995  -2
  -5  -7   6 26.6635 6.47995   1
  -4  -7   6 2.08845 2.98900   1
   3   7   8 206.981 9.95183  -2
  -3  -7   6 206.981 9.95183   1
   2   7   8 231.916 9.37719  -2
  -2  -7   6 231.916 9.37719   1
   1   7   7 2.28589 7.25640  -2
  -1  -7   6 2.28589 7.25640   1
   0   7   7 30.4242 4.17884  -2
   0  -7   6 30.4242 4.17884   1
   1  -7   6 5.52716 2.85372   1
  -2   7   6 52.5980 6.82380  -2
   2  -7   6 52.5980 6.82380   1
  -3   7   6 265.916 10.3936  -2
   3  -7   6 265.916 10.3936   1
  -4   7   5 44.7784 17.8775  -2
   4  -7   6 44.7784 17.8775   1
   7   6  10 32.1645 8.46409  -2
  -7  -6   6 32.1645 8.46409   1
   6   6   9 271.680 14.2203  -2
  -6  -6   6 271.680 14.2203   1
   5   6   9 319.379 10.3005  -2
  -5  -6   6 319.379 10.3005   1
  -4  -6   6 78.0712 5.23551   1
   3   6   8 93.5807 5.52914  -2
  -3  -6   6 93.5807 5.52914   1
  -2  -6   6 15.9675 2.72813   1
   1   6   7 3.00673 6.20368  -2
  -1  -6   6 3.00673 6.20368   1
   0   6   7 44.1012 5.35910  -2
   0  -6   6 44.1012 5.35910   1
   1  -6   6 30.8809 3.41734   1
  -2   6   6 440.721 8.41442  -2
   2  -6   6 440.721 8.41442   1
   3  -6   6 168.146 6.32645   1
  -4   6   5 383.670 10.1602  -2
   4  -6   6 383.670 10.1602   1
  -5   6   5 195.969 17.9866  -2
   5  -6   6 195.969 17.9866   1
  -7  -5   6 1.71905 3.49813   1
   6   5   9 76.4391 7.48424  -2
  -6  -5   6 76.4391 7.48424   1
   5   5   9 107.184 9.58225  -2
  -5  -5   6 107.184 9.58225   1
   4   5   8 24.8345 12.6336  -2
  -4  -5   6 24.8345 12.6336   1
   3   5   8 272.623 6.71044  -2
  -3  -5   6 272.623 6.71044   1
  -2  -5   6 457.276 7.59370   1
   1   5   7 369.333 7.37713  -2
  -1  -5   6 369.333 7.37713   1
   0   5   7 591.462 16.1689  -2
   0  -5   6 591.462 16.1689   1
   1  -5   6 46.8988 3.21559   1
  -2   5   6 623.315 10.3830  -2
   2  -5   6 623.315 10.3830   1
   3  -5   6 394.190 8.09101   1
  -4   5   5 34.9910 5.25168  -2
   4  -5   6 34.9910 5.25168   1
   5  -5   6 1.13269 3.40283   1
  -6   5   4 33.3434 16.1821  -2
   6  -5   6 33.3434 16.1821   1
  -8  -4   6 8.69037 6.52939   1
  -7  -4   6 13.0313 3.70151   1
   6   4   9 245.383 7.36111  -2
  -6  -4   6 245.383 7.36111   1
  -5  -4   6 490.780 8.59736   1
   4   4   8 140.782 6.83000  -2
  -4  -4   6 140.782 6.83000   1
   3   4   8 160.751 6.69768  -2
  -3  -4   6 160.751 6.69768   1
  -2  -4   6 4.93776 2.40046   1
   1   4   7 88.2868 4.35277  -2
  -1  -4   6 88.2868 4.35277   1
   0  -4   6 6.59396 2.38403   1
  -1   4   6 1835.72 18.5351  -2
   1  -4   6 1835.72 18.5351   1
  -2   4   6 106.937 8.99408  -2
   2  -4   6 106.937 8.99408   1
   3  -4   6 16.1063 2.21437   1
  -4   4   5 65.4635 5.51825  -2
   4  -4   6 65.4635 5.51825   1
   5  -4   6 62.3466 3.86237   1
  -6   4   4 468.250 12.6752  -2
   6  -4   6 468.250 12.6752   1
  -8  -3   6 10.0139 6.38189   1
  -7  -3   6 23.9194 3.95983   1
   6   3   9 82.7585 6.89618  -2
  -6  -3   6 82.7585 6.89618   1
  -5  -3   6 14.1819 3.08973   1
   4   3   8 389.904 7.81919  -2
  -4  -3   6 389.904 7.81919   1
  -3  -3   6 12.9573 2.45453   1
   2   3   7 144.481 7.66320  -2
  -2  -3   6 144.481 7.66320   1
   1   3   7 1065.12 12.3580  -2
  -1  -3   6 1065.12 12.3580   1
   0  -3   6 553.279 7.69917   1
  -1   3   6 569.374 7.98730  -2
   1  -3   6 569.374 7.98730   1
   2  -3   6 423.071 7.00696   1
  -3   3   5 73.3897 5.38035  -2
   3  -3   6 73.3897 5.38035   1
  -4   3   5 86.1067 5.20839  -2
   4  -3   6 86.1067 5.20839   1
   5  -3   6 85.7601 4.06227   1
  -6   3   4 -2.4479 5.62660  -2
   6  -3   6 -2.4479 5.62660   1
   7  -3   6 179.769 7.46651   1
   7   2   9 153.270 8.51889  -2
  -7  -2   6 153.270 8.51889   1
   6   2   9 436.379 10.4632  -2
  -6  -2   6 436.379 10.4632   1
  -5  -2   6 50.5964 3.68721   1
   4   2   8 70.1234 5.34490  -2
  -4  -2   6 70.1234 5.34490   1
  -3  -2   6 81.1782 4.21858   1
   2   2   7 153.886 5.07584  -2
  -2  -2   6 153.886 5.07584   1
   1   2   7 278.579 12.0979  -2
  -1  -2   6 278.579 12.0979   1
   0   2   6 672.361 10.9315  -2
   0  -2   6 672.361 10.9315   1
  -1   2   6 118.337 5.04683  -2
   1  -2   6 118.337 5.04683   1
   2  -2   6 17.7184 2.55556   1
  -3   2   5 292.347 6.35569  -2
   3  -2   6 292.347 6.35569   1
   4  -2   6 101.828 3.60870   1
  -5   2   4 127.468 7.45927  -2
   5  -2   6 127.468 7.45927   1
  -6   2   4 69.2284 7.74339  -2
   6  -2   6 69.2284 7.74339   1
   7  -2   6 141.094 6.90181   1
   7   1   9 229.384 7.24632  -2
  -7  -1   6 229.384 7.24632   1
  -6  -1   6 4.86435 3.12827   1
   5   1   8 527.063 9.86645  -2
  -5  -1   6 527.063 9.86645   1
   4   1   8 82.3071 6.45043  -2
  -4  -1   6 82.3071 6.45043   1
  -3  -1   6 5.59831 2.43497   1
   2   1   7 849.729 9.24848  -2
  -2  -1   6 849.729 9.24848   1
  -1  -1   6 333.706 5.18744   1
   0   1   6 123.994 4.50977  -2
   0  -1   6 123.994 4.50977   1
  -1   1   6 368.059 6.85242  -2
   1  -1   6 368.059 6.85242   1
   2  -1   6 130.651 3.99596   1
  -3   1   5 681.448 9.37695  -2
   3  -1   6 681.448 9.37695   1
   4  -1   6 358.399 5.08343   1
  -5   1   4 96.3552 4.85307  -2
   5  -1   6 96.3552 4.85307   1
  -6   1   4 216.708 15.6286  -2
   6  -1   6 216.708 15.6286   1
  -7   1   3 32.6290 8.34026  -2
   7  -1   6 32.6290 8.34026   1
  -8   1   3 136.297 10.6953  -2
   8  -1   6 136.297 10.6953   1
   7   0   9 116.484 8.64586  -2
  -7   0   6 116.484 8.64586   1
  -6   0   6 67.3535 4.23002   1
   5   0   8 358.460 7.62127  -2
  -5   0   6 358.460 7.62127   1
  -4   0   6 141.161 4.79604   1
   3   0   7 20.8646 9.81091  -2
  -3   0   6 20.8646 9.81091   1
   2   0   7 454.911 9.19466  -2
  -2   0   6 454.911 9.19466   1
  -1   0   6 798.018 11.1364   1
   0   0   6 1085.92 10.8372  -2
   0   0   6 1085.92 10.8372   1
   1   0   6 109.566 3.29004   1
  -2   0   5 213.538 5.44636  -2
   2   0   6 213.538 5.44636   1
  -3   0   5 127.225 5.59852  -2
   3   0   6 127.225 5.59852   1
  -4   0   4 277.262 12.6909  -2
   4   0   6 277.262 12.6909   1
  -5   0   4 68.5692 4.56919  -2
   5   0   6 68.5692 4.56919   1
   6   0   6 143.941 4.73455   1
  -7   0   3 157.899 5.89434  -2
   7   0   6 157.899 5.89434   1
  -8   0   3 245.624 17.4443  -2
   8   0   6 245.624 17.4443   1
   7  -1   9 10.5282 8.65871  -2
  -7   1   6 10.5282 8.65871   1
  -6   1   6 11.7519 3.25402   1
   5  -1   8 134.980 5.89226  -2
  -5   1   6 134.980 5.89226   1
  -4   1   6 22.2635 2.47947   1
   3  -1   7 364.923 6.67139  -2
  -3   1   6 364.923 6.67139   1
  -2   1   6 2.37317 1.51846   1
  -1   1   6 404.777 6.96577   1
   0  -1   6 100.399 5.02100  -2
   0   1   6 100.399 5.02100   1
   1   1   6 208.817 5.20423   1
  -2  -1   5 110.812 3.34336  -2
   2   1   6 110.812 3.34336   1
   3   1   6 250.237 4.31864   1
  -4  -1   4 590.801 7.88338  -2
   4   1   6 590.801 7.88338   1
  -5  -1   4 341.157 6.25685  -2
   5   1   6 341.157 6.25685   1
   6   1   6 62.7291 3.36822   1
  -7  -1   3 351.286 6.62462  -2
   7   1   6 351.286 6.62462   1
   8   1   6 13.1233 2.69682   1
  -9  -1   2 77.1348 9.33119  -2
   9   1   6 77.1348 9.33119   1
   6  -2   8 133.335 10.3378  -2
  -6   2   6 133.335 10.3378   1
   5  -2   8 181.758 12.2073  -2
  -5   2   6 181.758 12.2073   1
  -4   2   6 212.621 4.64578   1
   3  -2   7 35.5873 3.52625  -2
  -3   2   6 35.5873 3.52625   1
  -2   2   6 278.986 4.27244   1
   1  -2   6 147.516 4.40585  -2
  -1   2   6 147.516 4.40585   1
   0  -2   6 715.636 13.0262  -2
   0   2   6 715.636 13.0262   1
  -1  -2   5 835.156 15.3701  -2
   1   2   6 835.156 15.3701   1
  -2  -2   5 21.9077 3.79258  -2
   2   2   6 21.9077 3.79258   1
   3   2   6 10.2116 1.66261   1
  -4  -2   4 185.959 4.06963  -2
   4   2   6 185.959 4.06963   1
  -5  -2   4 22.8781 5.66482  -2
   5   2   6 22.8781 5.66482   1
  -6  -2   3 190.150 6.76411  -2
   6   2   6 190.150 6.76411   1
  -7  -2   3 257.979 6.76013  -2
   7   2   6 257.979 6.76013   1
   8   2   6 18.3923 3.04410   1
  -9  -2   2 87.3315 6.67641  -2
   9   2   6 87.3315 6.67641   1
   6  -3   8 167.357 10.5646  -2
  -6   3   6 167.357 10.5646   1
  -5   3   6 55.5926 4.84631   1
   4  -3   7 46.5749 5.62096  -2
  -4   3   6 46.5749 5.62096   1
   3  -3   7 22.0451 4.99181  -2
  -3   3   6 22.0451 4.99181   1
  -2   3   6 241.095 4.93663   1
   1  -3   6 551.357 6.79369  -2
  -1   3   6 551.357 6.79369   1
   0   3   6 25.3356 3.40181   1
  -1  -3   5 604.358 7.74382  -2
   1   3   6 604.358 7.74382   1
  -2  -3   5 215.957 5.55436  -2
   2   3   6 215.957 5.55436   1
   3   3   6 328.796 3.91214   1
  -4  -3   4 1602.04 12.4008  -2
   4   3   6 1602.04 12.4008   1
   5   3   6 44.2819 2.41756   1
  -6  -3   3 197.720 5.01045  -2
   6   3   6 197.720 5.01045   1
  -7  -3   3 128.832 9.50075  -2
   7   3   6 128.832 9.50075   1
  -8  -3   2 163.884 11.3508  -2
   8   3   6 163.884 11.3508   1
  -9  -3   2 157.876 9.51380  -2
   9   3   6 157.876 9.51380   1
  -5   4   6 46.0699 8.70173   1
   4  -4   7 75.7746 12.9071  -2
  -4   4   6 75.7746 12.9071   1
  -3   4   6 30.6954 3.59914   1
  -2   4   6 110.502 5.33016   1
   1  -4   6 1935.14 19.4281  -2
  -1   4   6 1935.14 19.4281   1
   0   4   6 136.266 5.78279   1
  -1  -4   5 76.5759 4.95908  -2
   1   4   6 76.5759 4.95908   1
   2   4   6 76.2385 3.25876   1
  -3  -4   4 15.0534 3.87221  -2
   3   4   6 15.0534 3.87221   1
  -4  -4   4 547.653 7.44686  -2
   4   4   6 547.653 7.44686   1
  -5  -4   3 139.065 11.5526  -2
   5   4   6 139.065 11.5526   1
  -6  -4   3 277.524 4.58843  -2
   6   4   6 277.524 4.58843   1
   7   4   6 21.1824 2.67757   1
  -8  -4   2 62.1758 6.26779  -2
   8   4   6 62.1758 6.26779   1
  -9  -4   2 103.296 8.50701  -2
   9   4   6 103.296 8.50701   1
  -5   5   6 15.3802 8.13050   1
   4  -5   7 63.3746 12.6290  -2
  -4   5   6 63.3746 12.6290   1
  -3   5   6 96.3122 5.06415   1
   2  -5   6 582.822 10.4002  -2
  -2   5   6 582.822 10.4002   1
   1  -5   6 98.6276 11.2980  -2
  -1   5   6 98.6276 11.2980   1
   0   5   6 18.7831 2.92216   1
  -1  -5   5 319.616 8.54167  -2
   1   5   6 319.616 8.54167   1
   2   5   6 52.2441 2.17695   1
  -3  -5   4 842.005 8.26615  -2
   3   5   6 842.005 8.26615   1
  -4  -5   4 425.943 14.2202  -2
   4   5   6 425.943 14.2202   1
  -5  -5   3 28.7568 6.18036  -2
   5   5   6 28.7568 6.18036   1
  -6  -5   3 167.463 6.05184  -2
   6   5   6 167.463 6.05184   1
   7   5   6 286.154 5.84332   1
  -8  -5   2 449.718 8.63093  -2
   8   5   6 449.718 8.63093   1
   9   5   6 140.922 6.14091   1
   4  -6   7 222.368 11.7103  -2
  -4   6   6 222.368 11.7103   1
  -3   6   6 31.2287 4.89982   1
   2  -6   6 456.425 8.82036  -2
  -2   6   6 456.425 8.82036   1
  -1   6   6 3.90392 2.86634   1
   0  -6   5 66.7556 6.06731  -2
   0   6   6 66.7556 6.06731   1
  -1  -6   5 536.140 13.9336  -2
   1   6   6 536.140 13.9336   1
   2   6   6 90.5208 3.42996   1
  -3  -6   4 433.623 6.96257  -2
   3   6   6 433.623 6.96257   1
   4   6   6 65.2519 3.58096   1
  -5  -6   3 500.871 8.66966  -2
   5   6   6 500.871 8.66966   1
   6   6   6 83.5431 3.62510   1
   7   6   6 40.6531 4.20944   1
  -8  -6   2 249.523 10.1863  -2
   8   6   6 249.523 10.1863   1
   9   6   6 31.1296 4.99650   1
   3  -7   6 250.653 11.8221  -2
  -3   7   6 250.653 11.8221   1
   2  -7   6 49.7191 6.81293  -2
  -2   7   6 49.7191 6.81293   1
  -1   7   6 4.79466 3.11187   1
   0  -7   5 156.820 7.71275  -2
   0   7   6 156.820 7.71275   1
   1   7   6 30.8210 2.58252   1
  -2  -7   4 183.191 16.2064  -2
   2   7   6 183.191 16.2064   1
  -3  -7   4 408.355 9.99176  -2
   3   7   6 408.355 9.99176   1
   4   7   6 442.874 9.70063   1
  -5  -7   3 337.336 9.92957  -2
   5   7   6 337.336 9.92957   1
   6   7   6 143.704 7.26020   1
  -7  -7   2 951.790 23.3432  -2
   7   7   6 951.790 23.3432   1
   8   7   6 288.231 13.2131   1
   9   7   6 122.523 12.0477   1
   2  -8   6 78.9018 17.0351  -2
  -2   8   6 78.9018 17.0351   1
   1  -8   5 99.7658 15.2474  -2
  -1   8   6 99.7658 15.2474   1
   0  -8   5 291.076 11.2794  -2
   0   8   6 291.076 11.2794   1
   1   8   6 0.56968 2.00977   1
  -2  -8   4 319.421 8.92934  -2
   2   8   6 319.421 8.92934   1
   3   8   6 470.248 7.82320   1
  -4  -8   3 135.501 9.28354  -2
   4   8   6 135.501 9.28354   1
  -5  -8   3 291.745 13.1428  -2
   5   8   6 291.745 13.1428   1
   6   8   6 67.5383 5.56313   1
  -7  -8   2 165.020 10.5241  -2
   7   8   6 165.020 10.5241   1
   8   8   6 44.2942 7.22459   1
   1  -9   5 -6.3840 9.23092  -2
  -1   9   6 -6.3840 9.23092   1
   0  -9   5 194.772 14.3784  -2
   0   9   6 194.772 14.3784   1
   1   9   6 2.47713 7.13073   1
  -2  -9   4 11.5677 5.98381  -2
   2   9   6 11.5677 5.98381   1
   3   9   6 382.325 10.0366   1
  -4  -9   3 325.206 9.15691  -2
   4   9   6 325.206 9.15691   1
  -5  -9   3 74.5904 12.5895  -2
   5   9   6 74.5904 12.5895   1
   6   9   6 118.540 9.52707   1
  -7  -9   2 29.7937 12.3776  -2
   7   9   6 29.7937 12.3776   1
   8   9   6 166.666 9.22808   1
   0  10   6 112.367 11.9075   1
   3  10   6 61.6750 5.36904   1
  -4 -10   3 358.451 9.15830  -2
   4  10   6 358.451 9.15830   1
   5  10   6 212.852 7.94911   1
  -6 -10   2 78.8671 9.18472  -2
   6  10   6 78.8671 9.18472   1
  -7 -10   2 121.966 19.3172  -2
   7  10   6 121.966 19.3172   1
  -4 -11   3 15.1232 11.8916  -2
   4  11   6 15.1232 11.8916   1
   5  11   6 4.91629 5.02526   1
  -3  -9   7 153.912 12.4818   1
   2   9   9 58.4930 10.3277  -2
  -2  -9   7 58.4930 10.3277   1
  -1  -9   7 12.8131 5.05528   1
   5   8  10 268.337 11.8947  -2
  -5  -8   7 268.337 11.8947   1
   4   8  10 78.0654 10.0738  -2
  -4  -8   7 78.0654 10.0738   1
  -3  -8   7 49.7097 4.86290   1
   2   8   9 54.3218 12.0443  -2
  -2  -8   7 54.3218 12.0443   1
  -1  -8   7 8.30318 5.54498   1
   0   8   8 127.157 10.6250  -2
   0  -8   7 127.157 10.6250   1
  -1   8   8 88.3453 12.5832  -2
   1  -8   7 88.3453 12.5832   1
  -2   8   7 57.0281 12.6209  -2
   2  -8   7 57.0281 12.6209   1
  -6  -7   7 11.6494 6.70876   1
   5   7  10 35.0573 6.67125  -2
  -5  -7   7 35.0573 6.67125   1
   4   7  10 150.264 17.5011  -2
  -4  -7   7 150.264 17.5011   1
   3   7   9 280.989 11.2817  -2
  -3  -7   7 280.989 11.2817   1
   2   7   9 104.623 8.89779  -2
  -2  -7   7 104.623 8.89779   1
  -1  -7   7 4.55545 2.50520   1
   0   7   8 -3.2828 5.02851  -2
   0  -7   7 -3.2828 5.02851   1
   1  -7   7 254.188 6.97622   1
  -2   7   7 326.648 12.6557  -2
   2  -7   7 326.648 12.6557   1
  -3   7   7 49.6128 8.69018  -2
   3  -7   7 49.6128 8.69018   1
   6   6  10 131.617 13.4049  -2
  -6  -6   7 131.617 13.4049   1
   5   6  10 3.23244 7.11128  -2
  -5  -6   7 3.23244 7.11128   1
  -4  -6   7 2.97848 2.80301   1
   3   6   9 7.37185 5.29311  -2
  -3  -6   7 7.37185 5.29311   1
  -2  -6   7 146.693 5.43884   1
   1   6   8 143.723 7.82002  -2
  -1  -6   7 143.723 7.82002   1
   0   6   8 147.052 6.68402  -2
   0  -6   7 147.052 6.68402   1
   1  -6   7 24.0075 3.60163   1
  -2   6   7 510.118 9.35486  -2
   2  -6   7 510.118 9.35486   1
   3  -6   7 38.2243 4.20383   1
  -4   6   6 189.726 9.20119  -2
   4  -6   7 189.726 9.20119   1
  -7  -5   7 11.7563 3.96785   1
   6   5  10 46.7221 9.58446  -2
  -6  -5   7 46.7221 9.58446   1
   5   5  10 143.301 10.4712  -2
  -5  -5   7 143.301 10.4712   1
   4   5   9 81.9788 14.5518  -2
  -4  -5   7 81.9788 14.5518   1
   3   5   9 185.783 6.34078  -2
  -3  -5   7 185.783 6.34078   1
  -2  -5   7 101.741 4.90824   1
   1   5   8 97.5984 5.75684  -2
  -1  -5   7 97.5984 5.75684   1
   0   5   8 99.8229 8.06107  -2
   0  -5   7 99.8229 8.06107   1
  -1   5   7 478.193 11.6346  -2
   1  -5   7 478.193 11.6346   1
  -2   5   7 452.929 9.56315  -2
   2  -5   7 452.929 9.56315   1
   3  -5   7 437.302 8.61312   1
  -4   5   6 55.2552 5.15871  -2
   4  -5   7 55.2552 5.15871   1
   5  -5   7 20.7786 3.52094   1
  -7  -4   7 83.3515 5.41386   1
   6   4  10 123.797 6.64634  -2
  -6  -4   7 123.797 6.64634   1
  -5  -4   7 176.902 6.46957   1
   4   4   9 345.324 10.9881  -2
  -4  -4   7 345.324 10.9881   1
   3   4   9 263.520 7.62695  -2
  -3  -4   7 263.520 7.62695   1
  -2  -4   7 79.6912 4.48637   1
   1   4   8 396.985 7.17336  -2
  -1  -4   7 396.985 7.17336   1
   0  -4   7 11.2257 2.68737   1
  -1   4   7 1201.07 14.2232  -2
   1  -4   7 1201.07 14.2232   1
  -2   4   7 551.347 10.2403  -2
   2  -4   7 551.347 10.2403   1
   3  -4   7 150.178 5.76095   1
  -4   4   6 70.2916 5.87282  -2
   4  -4   7 70.2916 5.87282   1
   5  -4   7 3.74030 2.98610   1
  -6   4   5 206.300 8.81304  -2
   6  -4   7 206.300 8.81304   1
   7   3  10 10.1415 11.1575  -2
  -7  -3   7 10.1415 11.1575   1
   6   3  10 176.720 8.29028  -2
  -6  -3   7 176.720 8.29028   1
  -5  -3   7 118.991 5.69002   1
   4   3   9 528.115 11.3909  -2
  -4  -3   7 528.115 11.3909   1
   3   3   9 78.1123 12.9219  -2
  -3  -3   7 78.1123 12.9219   1
   2   3   8 -2.7467 7.30146  -2
  -2  -3   7 -2.7467 7.30146   1
   1   3   8 455.183 8.31199  -2
  -1  -3   7 455.183 8.31199   1
   0  -3   7 3.57789 2.38920   1
  -1   3   7 1371.98 14.7934  -2
   1  -3   7 1371.98 14.7934   1
   2  -3   7 1008.87 12.1957   1
  -3   3   6 15.6208 5.41307  -2
   3  -3   7 15.6208 5.41307   1
  -4   3   6 64.9872 6.00792  -2
   4  -3   7 64.9872 6.00792   1
   5  -3   7 7.35798 2.87833   1
  -6   3   5 198.329 7.74709  -2
   6  -3   7 198.329 7.74709   1
   7  -3   7 239.367 10.4966   1
   7   2  10 280.626 9.73319  -2
  -7  -2   7 280.626 9.73319   1
   6   2  10 354.433 10.5343  -2
  -6  -2   7 354.433 10.5343   1
  -5  -2   7 85.0682 4.56916   1
   4   2   9 105.004 7.20642  -2
  -4  -2   7 105.004 7.20642   1
  -3  -2   7 106.698 4.88996   1
   2   2   8 598.484 11.1796  -2
  -2  -2   7 598.484 11.1796   1
   1   2   8 399.183 8.06536  -2
  -1  -2   7 399.183 8.06536   1
   0   2   7 202.794 6.34767  -2
   0  -2   7 202.794 6.34767   1
  -1   2   7 259.203 6.49530  -2
   1  -2   7 259.203 6.49530   1
   2  -2   7 388.001 6.86983   1
  -3   2   6 39.4015 4.32067  -2
   3  -2   7 39.4015 4.32067   1
   4  -2   7 3.86624 2.33843   1
  -5   2   5 319.316 6.73750  -2
   5  -2   7 319.316 6.73750   1
  -6   2   5 112.436 8.30687  -2
   6  -2   7 112.436 8.30687   1
   7  -2   7 -0.5383 3.55896   1
   7   1  10 370.161 9.11632  -2
  -7  -1   7 370.161 9.11632   1
  -6  -1   7 158.608 6.55720   1
   5   1   9 341.454 8.97709  -2
  -5  -1   7 341.454 8.97709   1
   4   1   9 29.2919 6.64336  -2
  -4  -1   7 29.2919 6.64336   1
  -3  -1   7 0.70230 2.58022   1
   2   1   8 463.834 9.02308  -2
  -2  -1   7 463.834 9.02308   1
  -1  -1   7 15.2288 2.03870   1
   0   1   7 270.896 5.93779  -2
   0  -1   7 270.896 5.93779   1
  -1   1   7 158.083 5.74563  -2
   1  -1   7 158.083 5.74563   1
   2  -1   7 431.701 6.88780   1
  -3   1   6 410.776 7.87164  -2
   3  -1   7 410.776 7.87164   1
   4  -1   7 138.137 4.45476   1
  -5   1   5 142.474 5.32071  -2
   5  -1   7 142.474 5.32071   1
  -6   1   5 211.982 16.5562  -2
   6  -1   7 211.982 16.5562   1
  -7   1   4 145.029 9.36777  -2
   7  -1   7 145.029 9.36777   1
   7   0  10 301.029 11.0265  -2
  -7   0   7 301.029 11.0265   1
  -6   0   7 72.2032 4.86346   1
   5   0   9 71.7269 5.73853  -2
  -5   0   7 71.7269 5.73853   1
  -4   0   7 6.30599 2.65906   1
   3   0   8 63.2425 8.52609  -2
  -3   0   7 63.2425 8.52609   1
   2   0   8 880.295 13.6951  -2
  -2   0   7 880.295 13.6951   1
  -1   0   7 892.400 12.7743   1
   0   0   7 389.463 5.56879  -2
   0   0   7 389.463 5.56879   1
   1   0   7 59.2368 3.07013   1
  -2   0   6 391.852 7.02879  -2
   2   0   7 391.852 7.02879   1
  -3   0   6 15.8037 5.54876  -2
   3   0   7 15.8037 5.54876   1
  -4   0   5 1111.65 16.9590  -2
   4   0   7 1111.65 16.9590   1
  -5   0   5 435.366 7.13353  -2
   5   0   7 435.366 7.13353   1
   6   0   7 0.67419 2.26304   1
  -7   0   4 508.483 10.2421  -2
   7   0   7 508.483 10.2421   1
  -8   0   4 126.751 12.4654  -2
   8   0   7 126.751 12.4654   1
  -6   1   7 19.5839 3.47148   1
   5  -1   9 55.9988 5.47296  -2
  -5   1   7 55.9988 5.47296   1
  -4   1   7 28.8819 2.95687   1
   3  -1   8 6.66613 4.65114  -2
  -3   1   7 6.66613 4.65114   1
  -2   1   7 57.0526 3.35988   1
   1  -1   7 156.292 11.0575  -2
  -1   1   7 156.292 11.0575   1
   0  -1   7 272.584 7.24867  -2
   0   1   7 272.584 7.24867   1
   1   1   7 938.127 12.8729   1
  -2  -1   6 758.207 8.82072  -2
   2   1   7 758.207 8.82072   1
   3   1   7 302.065 5.03130   1
  -4  -1   5 519.328 6.94427  -2
   4   1   7 519.328 6.94427   1
  -5  -1   5 321.037 6.21986  -2
   5   1   7 321.037 6.21986   1
   6   1   7 391.599 6.04599   1
  -7  -1   4 491.808 7.91237  -2
   7   1   7 491.808 7.91237   1
   8   1   7 117.349 5.23733   1
   6  -2   9 81.3921 9.56921  -2
  -6   2   7 81.3921 9.56921   1
   5  -2   9 79.6061 6.84051  -2
  -5   2   7 79.6061 6.84051   1
  -4   2   7 4.77125 2.34125   1
   3  -2   8 474.959 7.41310  -2
  -3   2   7 474.959 7.41310   1
  -2   2   7 1095.41 11.6511   1
   1  -2   7 292.975 7.05346  -2
  -1   2   7 292.975 7.05346   1
   0  -2   7 234.985 7.06222  -2
   0   2   7 234.985 7.06222   1
  -1  -2   6 249.990 9.17579  -2
   1   2   7 249.990 9.17579   1
  -2  -2   6 163.116 5.20848  -2
   2   2   7 163.116 5.20848   1
   3   2   7 418.335 5.57930   1
  -4  -2   5 97.1430 3.81021  -2
   4   2   7 97.1430 3.81021   1
  -5  -2   5 136.148 9.04774  -2
   5   2   7 136.148 9.04774   1
  -6  -2   4 61.8322 5.44252  -2
   6   2   7 61.8322 5.44252   1
  -7  -2   4 214.978 6.79496  -2
   7   2   7 214.978 6.79496   1
   8   2   7 17.4661 3.14520   1
  -9  -2   3 56.7784 4.96571  -2
   9   2   7 56.7784 4.96571   1
  -5   3   7 112.405 5.85744   1
   4  -3   8 35.5490 6.03047  -2
  -4   3   7 35.5490 6.03047   1
   3  -3   8 309.633 10.7409  -2
  -3   3   7 309.633 10.7409   1
  -2   3   7 39.3088 3.27460   1
   1  -3   7 1204.49 17.5730  -2
  -1   3   7 1204.49 17.5730   1
   0   3   7 251.817 4.79551   1
  -1  -3   6 975.950 11.4237  -2
   1   3   7 975.950 11.4237   1
  -2  -3   6 159.199 6.54261  -2
   2   3   7 159.199 6.54261   1
  -3  -3   5 380.065 16.4022  -2
   3   3   7 380.065 16.4022   1
  -4  -3   5 15.3242 4.03247  -2
   4   3   7 15.3242 4.03247   1
   5   3   7 27.3981 2.26442   1
  -6  -3   4 1623.96 13.6927  -2
   6   3   7 1623.96 13.6927   1
  -7  -3   4 340.316 12.4817  -2
   7   3   7 340.316 12.4817   1
  -8  -3   3 147.938 7.74088  -2
   8   3   7 147.938 7.74088   1
  -9  -3   3 46.2050 7.03906  -2
   9   3   7 46.2050 7.03906   1
  -5   4   7 8.59780 5.06865   1
   4  -4   8 25.0174 6.89339  -2
  -4   4   7 25.0174 6.89339   1
  -3   4   7 159.097 6.47100   1
   2  -4   7 574.078 13.4261  -2
  -2   4   7 574.078 13.4261   1
   1  -4   7 1325.80 19.5954  -2
  -1   4   7 1325.80 19.5954   1
   0   4   7 100.179 6.19038   1
  -1  -4   6 95.8916 3.60006  -2
   1   4   7 95.8916 3.60006   1
   2   4   7 14.7422 2.37080   1
  -3  -4   5 125.040 4.85301  -2
   3   4   7 125.040 4.85301   1
  -4  -4   5 156.471 5.75701  -2
   4   4   7 156.471 5.75701   1
  -5  -4   4 18.7663 11.0048  -2
   5   4   7 18.7663 11.0048   1
  -6  -4   4 148.097 4.45770  -2
   6   4   7 148.097 4.45770   1
   7   4   7 8.87204 2.41595   1
  -8  -4   3 42.5005 5.18759  -2
   8   4   7 42.5005 5.18759   1
  -9  -4   3 77.9219 11.3160  -2
   9   4   7 77.9219 11.3160   1
   4  -5   8 344.452 11.7780  -2
  -4   5   7 344.452 11.7780   1
  -3   5   7 11.3661 3.48513   1
   2  -5   7 386.988 11.2406  -2
  -2   5   7 386.988 11.2406   1
   1  -5   7 521.958 12.8173  -2
  -1   5   7 521.958 12.8173   1
   0   5   7 430.128 9.83718   1
  -1  -5   6 321.660 9.39001  -2
   1   5   7 321.660 9.39001   1
   2   5   7 22.1755 2.36238   1
  -3  -5   5 302.565 6.28555  -2
   3   5   7 302.565 6.28555   1
  -4  -5   5 16.0732 10.3062  -2
   4   5   7 16.0732 10.3062   1
  -5  -5   4 2067.02 21.1976  -2
   5   5   7 2067.02 21.1976   1
  -6  -5   4 574.295 8.78850  -2
   6   5   7 574.295 8.78850   1
   7   5   7 26.0266 2.96203   1
  -8  -5   3 295.331 7.41970  -2
   8   5   7 295.331 7.41970   1
   9   5   7 10.0489 3.54419   1
  -4   6   7 11.4850 6.09848   1
  -3   6   7 340.990 8.44085   1
   2  -6   7 590.088 10.4081  -2
  -2   6   7 590.088 10.4081   1
  -1   6   7 40.1923 3.92808   1
   0  -6   6 52.0913 7.69638  -2
   0   6   7 52.0913 7.69638   1
  -1  -6   6 15.4705 7.54354  -2
   1   6   7 15.4705 7.54354   1
   2   6   7 432.020 9.41766   1
  -3  -6   5 191.347 5.45315  -2
   3   6   7 191.347 5.45315   1
   4   6   7 13.4176 2.67347   1
  -5  -6   4 88.7980 5.93624  -2
   5   6   7 88.7980 5.93624   1
  -6  -6   4 188.808 11.2581  -2
   6   6   7 188.808 11.2581   1
   7   6   7 11.2319 3.74595   1
  -8  -6   3 55.9829 8.81835  -2
   8   6   7 55.9829 8.81835   1
   9   6   7 10.6693 4.53749   1
   3  -7   7 57.3343 18.5367  -2
  -3   7   7 57.3343 18.5367   1
   2  -7   7 166.905 14.3417  -2
  -2   7   7 166.905 14.3417   1
  -1   7   7 96.0375 7.18322   1
   0  -7   6 44.1596 7.07522  -2
   0   7   7 44.1596 7.07522   1
   1   7   7 11.4855 2.57792   1
  -2  -7   5 277.167 17.3709  -2
   2   7   7 277.167 17.3709   1
  -3  -7   5 31.1086 7.10560  -2
   3   7   7 31.1086 7.10560   1
  -4  -7   4 588.982 16.1529  -2
   4   7   7 588.982 16.1529   1
  -5  -7   4 323.344 9.65660  -2
   5   7   7 323.344 9.65660   1
  -6  -7   4 126.146 15.1338  -2
   6   7   7 126.146 15.1338   1
  -7  -7   3 667.444 20.0995  -2
   7   7   7 667.444 20.0995   1
   8   7   7 99.6327 10.2051   1
  -2   8   7 49.8255 6.14918   1
   1  -8   6 41.3010 15.3658  -2
  -1   8   7 41.3010 15.3658   1
   0  -8   6 161.787 15.7825  -2
   0   8   7 161.787 15.7825   1
   1   8   7 44.8916 5.00182   1
  -2  -8   5 394.287 9.73583  -2
   2   8   7 394.287 9.73583   1
   3   8   7 404.857 17.9226   1
  -4  -8   4 679.739 14.4334  -2
   4   8   7 679.739 14.4334   1
  -5  -8   4 130.567 10.0277  -2
   5   8   7 130.567 10.0277   1
  -6  -8   3 7.02807 12.1888  -2
   6   8   7 7.02807 12.1888   1
  -7  -8   3 107.641 7.60531  -2
   7   8   7 107.641 7.60531   1
   8   8   7 157.278 11.6889   1
   0  -9   6 170.587 15.1486  -2
   0   9   7 170.587 15.1486   1
   1   9   7 10.9048 8.11855   1
  -2  -9   5 93.6441 5.93418  -2
   2   9   7 93.6441 5.93418   1
   3   9   7 24.8453 4.22032   1
  -4  -9   4 145.082 8.58158  -2
   4   9   7 145.082 8.58158   1
  -5  -9   4 41.0463 12.4748  -2
   5   9   7 41.0463 12.4748   1
  -6  -9   3 282.529 15.7681  -2
   6   9   7 282.529 15.7681   1
  -7  -9   3 114.444 13.5439  -2
   7   9   7 114.444 13.5439   1
  -1 -10   5 506.760 24.3136  -2
   1  10   7 506.760 24.3136   1
  -2 -10   5 266.099 21.8249  -2
   2  10   7 266.099 21.8249   1
   3  10   7 193.491 7.91281   1
  -4 -10   4 147.392 10.0830  -2
   4  10   7 147.392 10.0830   1
   5  10   7 20.9743 3.69618   1
  -6 -10   3 209.351 10.5418  -2
   6  10   7 209.351 10.5418   1
  -4  -8   8 154.932 8.34883   1
  -3  -8   8 249.907 8.92679   1
   2   8  10 107.227 13.3234  -2
  -2  -8   8 107.227 13.3234   1
  -1  -8   8 17.3403 6.95539   1
   0   8   9 50.7808 10.6516  -2
   0  -8   8 50.7808 10.6516   1
   5   7  11 49.0715 11.4043  -2
  -5  -7   8 49.0715 11.4043   1
   4   7  11 23.8000 18.1788  -2
  -4  -7   8 23.8000 18.1788   1
   3   7  10 103.778 10.0932  -2
  -3  -7   8 103.778 10.0932   1
   2   7  10 69.5631 9.44697  -2
  -2  -7   8 69.5631 9.44697   1
  -1  -7   8 8.71726 2.88194   1
   0   7   9 126.007 6.98803  -2
   0  -7   8 126.007 6.98803   1
   1  -7   8 366.686 11.0596   1
  -2   7   8 222.042 9.04559  -2
   2  -7   8 222.042 9.04559   1
   6   6  11 120.041 11.2299  -2
  -6  -6   8 120.041 11.2299   1
   5   6  11 10.8670 7.43956  -2
  -5  -6   8 10.8670 7.43956   1
  -4  -6   8 159.872 6.87656   1
   3   6  10 292.386 10.0242  -2
  -3  -6   8 292.386 10.0242   1
  -2  -6   8 211.595 6.47562   1
   1   6   9 218.264 7.91402  -2
  -1  -6   8 218.264 7.91402   1
   0   6   9 245.579 7.96021  -2
   0  -6   8 245.579 7.96021   1
   1  -6   8 64.7839 5.41075   1
  -2   6   8 155.797 6.78244  -2
   2  -6   8 155.797 6.78244   1
   3  -6   8 119.530 6.42320   1
  -4   6   7 127.849 17.5497  -2
   4  -6   8 127.849 17.5497   1
   6   5  11 84.5102 10.6597  -2
  -6  -5   8 84.5102 10.6597   1
   5   5  11 56.1340 10.6499  -2
  -5  -5   8 56.1340 10.6499   1
   4   5  10 78.0052 15.2442  -2
  -4  -5   8 78.0052 15.2442   1
   3   5  10 79.5217 5.49957  -2
  -3  -5   8 79.5217 5.49957   1
  -2  -5   8 43.9453 3.59862   1
   1   5   9 471.127 9.08710  -2
  -1  -5   8 471.127 9.08710   1
   0   5   9 177.574 8.97284  -2
   0  -5   8 177.574 8.97284   1
  -1   5   8 193.157 7.92617  -2
   1  -5   8 193.157 7.92617   1
  -2   5   8 328.342 9.12040  -2
   2  -5   8 328.342 9.12040   1
   3  -5   8 60.0297 4.60678   1
  -4   5   7 363.896 7.69030  -2
   4  -5   8 363.896 7.69030   1
   5  -5   8 224.079 9.64996   1
   6   4  11 15.1001 7.32698  -2
  -6  -4   8 15.1001 7.32698   1
  -5  -4   8 16.5480 3.77807   1
   4   4  10 627.972 13.9499  -2
  -4  -4   8 627.972 13.9499   1
   3   4  10 916.068 16.2223  -2
  -3  -4   8 916.068 16.2223   1
  -2  -4   8 287.344 6.68117   1
   1   4   9 433.010 7.82549  -2
  -1  -4   8 433.010 7.82549   1
   0  -4   8 103.109 5.00769   1
  -1   4   8 207.560 7.21271  -2
   1  -4   8 207.560 7.21271   1
  -2   4   8 163.285 9.48126  -2
   2  -4   8 163.285 9.48126   1
  -3   4   7 252.126 13.8783  -2
   3  -4   8 252.126 13.8783   1
  -4   4   7 31.2782 6.46369  -2
   4  -4   8 31.2782 6.46369   1
   5  -4   8 3.91238 3.19572   1
   6   3  11 48.6676 9.10067  -2
  -6  -3   8 48.6676 9.10067   1
  -5  -3   8 53.2337 4.36454   1
   4   3  10 257.815 9.57269  -2
  -4  -3   8 257.815 9.57269   1
   3   3  10 17.3393 12.8769  -2
  -3  -3   8 17.3393 12.8769   1
   2   3   9 289.874 10.2360  -2
  -2  -3   8 289.874 10.2360   1
   1   3   9 48.6187 5.98320  -2
  -1  -3   8 48.6187 5.98320   1
   0  -3   8 16.1540 2.84850   1
  -1   3   8 1393.81 15.3769  -2
   1  -3   8 1393.81 15.3769   1
   2  -3   8 530.086 8.75233   1
  -3   3   7 296.844 8.46430  -2
   3  -3   8 296.844 8.46430   1
  -4   3   7 61.5226 6.62057  -2
   4  -3   8 61.5226 6.62057   1
   5  -3   8 19.2062 3.27444   1
  -6   3   6 258.675 8.53723  -2
   6  -3   8 258.675 8.53723   1
   6   2  11 155.608 9.73355  -2
  -6  -2   8 155.608 9.73355   1
  -5  -2   8 0.07575 3.29466   1
   4   2  10 559.484 12.2112  -2
  -4  -2   8 559.484 12.2112   1
  -3  -2   8 500.882 10.5251   1
   2   2   9 158.832 7.89854  -2
  -2  -2   8 158.832 7.89854   1
   1   2   9 136.875 9.41029  -2
  -1  -2   8 136.875 9.41029   1
   0   2   8 652.721 12.5702  -2
   0  -2   8 652.721 12.5702   1
  -1   2   8 1320.38 14.7746  -2
   1  -2   8 1320.38 14.7746   1
   2  -2   8 1148.23 13.3429   1
  -3   2   7 428.600 7.91404  -2
   3  -2   8 428.600 7.91404   1
  -4   2   7 -6.2257 13.9146  -2
   4  -2   8 -6.2257 13.9146   1
  -5   2   6 161.563 7.15380  -2
   5  -2   8 161.563 7.15380   1
  -6   2   6 110.566 8.56367  -2
   6  -2   8 110.566 8.56367   1
   7  -2   8 37.7966 4.67183   1
  -6  -1   8 164.994 8.36743   1
   5   1  10 228.793 8.84183  -2
  -5  -1   8 228.793 8.84183   1
   4   1  10 26.5410 8.82821  -2
  -4  -1   8 26.5410 8.82821   1
  -3  -1   8 190.270 6.85008   1
   2   1   9 16.9228 4.86514  -2
  -2  -1   8 16.9228 4.86514   1
  -1  -1   8 1.06837 3.03104   1
   0   1   8 1150.82 16.6581  -2
   0  -1   8 1150.82 16.6581   1
  -1   1   8 733.451 10.4445  -2
   1  -1   8 733.451 10.4445   1
  -2   1   7 57.1608 7.38856  -2
   2  -1   8 57.1608 7.38856   1
  -3   1   7 9.29933 5.16742  -2
   3  -1   8 9.29933 5.16742   1
   4  -1   8 0.89205 2.80828   1
  -5   1   6 138.257 5.67750  -2
   5  -1   8 138.257 5.67750   1
  -6   1   6 162.177 17.5755  -2
   6  -1   8 162.177 17.5755   1
  -7   1   5 11.6157 8.81836  -2
   7  -1   8 11.6157 8.81836   1
  -6   0   8 7.79680 3.47539   1
   5   0  10 112.943 6.31262  -2
  -5   0   8 112.943 6.31262   1
  -4   0   8 70.0923 4.50462   1
   3   0   9 248.402 9.37098  -2
  -3   0   8 248.402 9.37098   1
   2   0   9 292.041 9.30189  -2
  -2   0   8 292.041 9.30189   1
  -1   0   8 0.64181 2.85288   1
   0   0   8 2000.39 23.9549  -2
   0   0   8 2000.39 23.9549   1
   1   0   8 1023.63 14.6151   1
  -2   0   7 788.421 10.2643  -2
   2   0   8 788.421 10.2643   1
  -3   0   7 49.0515 6.13357  -2
   3   0   8 49.0515 6.13357   1
  -4   0   6 245.996 10.3014  -2
   4   0   8 245.996 10.3014   1
  -5   0   6 323.617 6.68345  -2
   5   0   8 323.617 6.68345   1
   6   0   8 57.9343 3.72722   1
  -7   0   5 0.66066 5.34392  -2
   7   0   8 0.66066 5.34392   1
   8   0   8 81.6275 6.68044   1
   6  -1  10 246.040 18.0450  -2
  -6   1   8 246.040 18.0450   1
   5  -1  10 35.6175 5.90128  -2
  -5   1   8 35.6175 5.90128   1
  -4   1   8 62.7294 3.79623   1
   3  -1   9 95.8574 6.66357  -2
  -3   1   8 95.8574 6.66357   1
  -2   1   8 39.5128 3.68569   1
   1  -1   8 733.907 12.6936  -2
  -1   1   8 733.907 12.6936   1
   0  -1   8 1107.46 15.6794  -2
   0   1   8 1107.46 15.6794   1
   1   1   8 34.6201 3.53365   1
  -2  -1   7 417.140 8.51256  -2
   2   1   8 417.140 8.51256   1
   3   1   8 160.833 4.26403   1
  -4  -1   6 78.2023 5.52875  -2
   4   1   8 78.2023 5.52875   1
  -5  -1   6 601.435 8.13585  -2
   5   1   8 601.435 8.13585   1
  -6  -1   5 86.2445 14.9315  -2
   6   1   8 86.2445 14.9315   1
  -7  -1   5 158.012 5.79055  -2
   7   1   8 158.012 5.79055   1
   8   1   8 10.4906 3.03329   1
   5  -2  10 50.6303 7.01231  -2
  -5   2   8 50.6303 7.01231   1
  -4   2   8 277.928 8.71585   1
   3  -2   9 377.423 8.48961  -2
  -3   2   8 377.423 8.48961   1
  -2   2   8 283.839 6.79672   1
   1  -2   8 1246.12 16.4746  -2
  -1   2   8 1246.12 16.4746   1
   0  -2   8 685.686 11.8995  -2
   0   2   8 685.686 11.8995   1
  -1  -2   7 397.896 9.37697  -2
   1   2   8 397.896 9.37697   1
  -2  -2   7 642.132 9.42955  -2
   2   2   8 642.132 9.42955   1
   3   2   8 286.101 6.31547   1
  -4  -2   6 65.6676 3.74331  -2
   4   2   8 65.6676 3.74331   1
  -5  -2   6 235.915 7.81851  -2
   5   2   8 235.915 7.81851   1
  -6  -2   5 441.258 8.62265  -2
   6   2   8 441.258 8.62265   1
  -7  -2   5 161.771 6.73073  -2
   7   2   8 161.771 6.73073   1
   8   2   8 143.047 5.78444   1
  -5   3   8 18.0576 7.19375   1
   4  -3   9 123.829 7.17847  -2
  -4   3   8 123.829 7.17847   1
   3  -3   9 255.019 11.0144  -2
  -3   3   8 255.019 11.0144   1
  -2   3   8 531.889 11.5819   1
   1  -3   8 1281.78 19.0897  -2
  -1   3   8 1281.78 19.0897   1
   0   3   8 1.84241 2.28950   1
  -1  -3   7 403.766 7.61564  -2
   1   3   8 403.766 7.61564   1
  -2  -3   7 0.07151 5.09868  -2
   2   3   8 0.07151 5.09868   1
   3   3   8 90.9863 4.50518   1
  -4  -3   6 365.004 6.60554  -2
   4   3   8 365.004 6.60554   1
   5   3   8 3.11516 2.75202   1
  -6  -3   5 524.862 8.54213  -2
   6   3   8 524.862 8.54213   1
  -7  -3   5 92.5040 7.68639  -2
   7   3   8 92.5040 7.68639   1
  -8  -3   4 165.925 9.49242  -2
   8   3   8 165.925 9.49242   1
   4  -4   9 90.4675 8.33785  -2
  -4   4   8 90.4675 8.33785   1
   3  -4   9 71.1276 15.4600  -2
  -3   4   8 71.1276 15.4600   1
   2  -4   8 126.382 10.4653  -2
  -2   4   8 126.382 10.4653   1
   1  -4   8 197.303 9.23384  -2
  -1   4   8 197.303 9.23384   1
   0   4   8 8.00507 3.80355   1
  -1  -4   7 458.031 7.27426  -2
   1   4   8 458.031 7.27426   1
   2   4   8 136.359 4.79564   1
  -3  -4   6 128.148 6.32438  -2
   3   4   8 128.148 6.32438   1
  -4  -4   6 130.248 5.88457  -2
   4   4   8 130.248 5.88457   1
  -5  -4   5 869.922 21.8565  -2
   5   4   8 869.922 21.8565   1
  -6  -4   5 234.049 5.84991  -2
   6   4   8 234.049 5.84991   1
  -7  -4   5 243.244 19.0765  -2
   7   4   8 243.244 19.0765   1
  -8  -4   4 68.5312 7.81823  -2
   8   4   8 68.5312 7.81823   1
   4  -5   9 325.863 16.2160  -2
  -4   5   8 325.863 16.2160   1
  -3   5   8 81.6026 5.27525   1
   2  -5   8 335.962 11.5322  -2
  -2   5   8 335.962 11.5322   1
   1  -5   8 203.680 11.0068  -2
  -1   5   8 203.680 11.0068   1
   0  -5   7 120.068 9.93636  -2
   0   5   8 120.068 9.93636   1
  -1  -5   7 111.419 7.85728  -2
   1   5   8 111.419 7.85728   1
   2   5   8 30.0247 2.90893   1
  -3  -5   6 257.172 6.35796  -2
   3   5   8 257.172 6.35796   1
  -4  -5   6 29.6303 11.0075  -2
   4   5   8 29.6303 11.0075   1
  -5  -5   5 1232.53 14.3219  -2
   5   5   8 1232.53 14.3219   1
  -6  -5   5 540.418 8.93692  -2
   6   5   8 540.418 8.93692   1
  -7  -5   4 86.5824 14.3564  -2
   7   5   8 86.5824 14.3564   1
  -8  -5   4 125.452 6.22454  -2
   8   5   8 125.452 6.22454   1
  -3   6   8 10.1678 3.87680   1
   2  -6   8 148.328 7.02735  -2
  -2   6   8 148.328 7.02735   1
  -1   6   8 7.06130 3.48438   1
   0  -6   7 175.714 9.49530  -2
   0   6   8 175.714 9.49530   1
  -1  -6   7 157.210 9.44804  -2
   1   6   8 157.210 9.44804   1
   2   6   8 64.1182 5.03953   1
  -3  -6   6 106.533 5.20285  -2
   3   6   8 106.533 5.20285   1
   4   6   8 35.2062 3.30621   1
  -5  -6   5 384.523 8.57375  -2
   5   6   8 384.523 8.57375   1
  -6  -6   5 583.158 14.8528  -2
   6   6   8 583.158 14.8528   1
  -7  -6   4 98.9782 10.9706  -2
   7   6   8 98.9782 10.9706   1
  -8  -6   4 65.2136 13.6845  -2
   8   6   8 65.2136 13.6845   1
   2  -7   8 201.449 16.1824  -2
  -2   7   8 201.449 16.1824   1
  -1   7   8 46.8140 6.00148   1
   0  -7   7 2.98616 10.1075  -2
   0   7   8 2.98616 10.1075   1
   1   7   8 110.389 12.5884   1
  -2  -7   6 227.776 17.7100  -2
   2   7   8 227.776 17.7100   1
  -3  -7   6 215.302 9.09721  -2
   3   7   8 215.302 9.09721   1
  -4  -7   5 475.109 15.4240  -2
   4   7   8 475.109 15.4240   1
  -5  -7   5 440.500 10.9780  -2
   5   7   8 440.500 10.9780   1
  -6  -7   5 40.5852 14.8622  -2
   6   7   8 40.5852 14.8622   1
  -7  -7   4 116.465 13.3661  -2
   7   7   8 116.465 13.3661   1
  -8  -7   4 9.91564 14.3102  -2
   8   7   8 9.91564 14.3102   1
  -1   8   8 5.68841 7.46440   1
   0  -8   7 104.293 15.5439  -2
   0   8   8 104.293 15.5439   1
   1   8   8 4.83730 7.91595   1
  -2  -8   6 248.810 16.6317  -2
   2   8   8 248.810 16.6317   1
   3   8   8 41.4058 9.07583   1
  -4  -8   5 153.977 9.83942  -2
   4   8   8 153.977 9.83942   1
  -5  -8   5 338.883 12.1731  -2
   5   8   8 338.883 12.1731   1
  -6  -8   4 55.4317 14.8660  -2
   6   8   8 55.4317 14.8660   1
  -7  -8   4 108.226 7.73922  -2
   7   8   8 108.226 7.73922   1
   8   8   8 59.5853 8.20323   1
   0   9   8 18.9949 5.36387   1
   1   9   8 1.23525 7.87145   1
  -2  -9   6 67.4047 5.57603  -2
   2   9   8 67.4047 5.57603   1
   3   9   8 70.6638 6.00340   1
  -4  -9   5 135.426 16.3483  -2
   4   9   8 135.426 16.3483   1
  -5  -9   5 124.225 14.1020  -2
   5   9   8 124.225 14.1020   1
  -6  -9   4 24.8441 13.3900  -2
   6   9   8 24.8441 13.3900   1
  -7  -9   4 67.7438 13.6639  -2
   7   9   8 67.7438 13.6639   1
   3  10   8 1.59210 3.64795   1
  -4 -10   5 17.1630 6.70652  -2
   4  10   8 17.1630 6.70652   1
   5  10   8 77.4390 5.09070   1
  -4  -7   9 1.02154 6.57609   1
   3   7  11 351.572 12.4576  -2
  -3  -7   9 351.572 12.4576   1
   2   7  11 269.523 11.7397  -2
  -2  -7   9 269.523 11.7397   1
  -1  -7   9 17.2721 3.34671   1
   0   7  10 121.163 7.35036  -2
   0  -7   9 121.163 7.35036   1
   1  -7   9 107.472 5.98543   1
  -5  -6   9 35.2943 6.72426   1
  -4  -6   9 163.774 10.8720   1
   3   6  11 133.741 7.91465  -2
  -3  -6   9 133.741 7.91465   1
   2   6  11 80.6889 15.7945  -2
  -2  -6   9 80.6889 15.7945   1
   1   6  10 2.41401 7.01631  -2
  -1  -6   9 2.41401 7.01631   1
   0   6  10 117.369 7.36257  -2
   0  -6   9 117.369 7.36257   1
   1  -6   9 73.2940 5.24851   1
  -2   6   9 138.508 6.91911  -2
   2  -6   9 138.508 6.91911   1
   3  -6   9 80.8766 5.52479   1
   5   5  12 -7.8592 10.7813  -2
  -5  -5   9 -7.8592 10.7813   1
   4   5  11 259.307 18.4227  -2
  -4  -5   9 259.307 18.4227   1
   3   5  11 415.847 11.7232  -2
  -3  -5   9 415.847 11.7232   1
  -2  -5   9 47.9726 3.81476   1
   1   5  10 177.550 7.40287  -2
  -1  -5   9 177.550 7.40287   1
   0   5  10 462.286 12.6539  -2
   0  -5   9 462.286 12.6539   1
  -1   5   9 42.2758 7.44088  -2
   1  -5   9 42.2758 7.44088   1
  -2   5   9 407.666 12.3289  -2
   2  -5   9 407.666 12.3289   1
   3  -5   9 296.589 8.36234   1
  -4   5   8 342.923 8.95741  -2
   4  -5   9 342.923 8.95741   1
  -5  -4   9 158.529 8.69980   1
   4   4  11 155.973 10.9052  -2
  -4  -4   9 155.973 10.9052   1
   3   4  11 337.377 12.1677  -2
  -3  -4   9 337.377 12.1677   1
  -2  -4   9 77.5774 5.66584   1
   1   4  10 376.216 9.71458  -2
  -1  -4   9 376.216 9.71458   1
   0  -4   9 509.991 8.86787   1
  -1   4   9 82.6017 6.63071  -2
   1  -4   9 82.6017 6.63071   1
  -2   4   9 109.598 7.98512  -2
   2  -4   9 109.598 7.98512   1
  -3   4   8 53.4524 7.24372  -2
   3  -4   9 53.4524 7.24372   1
  -4   4   8 83.0854 7.50817  -2
   4  -4   9 83.0854 7.50817   1
   5  -4   9 119.888 6.53809   1
  -6  -3   9 15.6223 5.23111   1
  -5  -3   9 2.45434 4.32098   1
   4   3  11 200.545 9.79030  -2
  -4  -3   9 200.545 9.79030   1
   3   3  11 441.581 19.1338  -2
  -3  -3   9 441.581 19.1338   1
   2   3  10 180.066 10.1976  -2
  -2  -3   9 180.066 10.1976   1
   1   3  10 100.222 8.54372  -2
  -1  -3   9 100.222 8.54372   1
   0  -3   9 5.53206 2.84891   1
  -1   3   9 225.189 6.30736  -2
   1  -3   9 225.189 6.30736   1
   2  -3   9 98.5586 5.08604   1
  -3   3   8 263.389 8.70639  -2
   3  -3   9 263.389 8.70639   1
  -4   3   8 183.517 7.71250  -2
   4  -3   9 183.517 7.71250   1
   5  -3   9 54.5310 4.80339   1
  -6   3   7 38.0751 8.26657  -2
   6  -3   9 38.0751 8.26657   1
  -6  -2   9 20.1322 4.20025   1
  -5  -2   9 -0.5425 3.46488   1
   4   2  11 365.359 11.1651  -2
  -4  -2   9 365.359 11.1651   1
  -3  -2   9 123.238 7.06574   1
   2   2  10 378.078 10.4546  -2
  -2  -2   9 378.078 10.4546   1
   1   2  10 173.798 9.98831  -2
  -1  -2   9 173.798 9.98831   1
   0   2   9 433.675 11.2519  -2
   0  -2   9 433.675 11.2519   1
  -1   2   9 204.526 6.62834  -2
   1  -2   9 204.526 6.62834   1
   2  -2   9 60.4678 3.86298   1
  -3   2   8 320.127 7.45492  -2
   3  -2   9 320.127 7.45492   1
  -4   2   8 453.877 13.5452  -2
   4  -2   9 453.877 13.5452   1
  -5   2   7 87.9046 7.12562  -2
   5  -2   9 87.9046 7.12562   1
  -6   2   7 83.5042 8.88056  -2
   6  -2   9 83.5042 8.88056   1
  -6  -1   9 45.9562 5.50362   1
   5   1  11 34.0178 9.73194  -2
  -5  -1   9 34.0178 9.73194   1
   4   1  11 420.180 12.6628  -2
  -4  -1   9 420.180 12.6628   1
  -3  -1   9 417.843 10.0877   1
   2   1  10 144.633 6.87074  -2
  -2  -1   9 144.633 6.87074   1
  -1  -1   9 0.32029 3.46831   1
   0   1   9 141.312 8.01777  -2
   0  -1   9 141.312 8.01777   1
  -1   1   9 67.1357 7.92502  -2
   1  -1   9 67.1357 7.92502   1
  -2   1   8 59.0399 7.90304  -2
   2  -1   9 59.0399 7.90304   1
  -3   1   8 103.936 5.95200  -2
   3  -1   9 103.936 5.95200   1
  -4   1   7 114.601 14.9805  -2
   4  -1   9 114.601 14.9805   1
  -5   1   7 53.4081 5.35854  -2
   5  -1   9 53.4081 5.35854   1
  -6   1   7 125.842 17.5255  -2
   6  -1   9 125.842 17.5255   1
  -7   1   6 -8.0561 9.10706  -2
   7  -1   9 -8.0561 9.10706   1
   5   0  11 345.797 10.8646  -2
  -5   0   9 345.797 10.8646   1
  -4   0   9 10.3173 3.33351   1
   3   0  10 546.533 12.4679  -2
  -3   0   9 546.533 12.4679   1
   2   0  10 26.9654 7.50952  -2
  -2   0   9 26.9654 7.50952   1
  -1   0   9 110.177 6.13069   1
   0   0   9 807.487 13.2203  -2
   0   0   9 807.487 13.2203   1
   1   0   9 246.196 7.54892   1
  -2   0   8 272.802 8.81269  -2
   2   0   9 272.802 8.81269   1
  -3   0   8 225.717 9.67424  -2
   3   0   9 225.717 9.67424   1
  -4   0   7 141.563 9.87999  -2
   4   0   9 141.563 9.87999   1
  -5   0   7 76.3248 5.25760  -2
   5   0   9 76.3248 5.25760   1
   6   0   9 104.755 5.14871   1
  -7   0   6 73.9388 6.31458  -2
   7   0   9 73.9388 6.31458   1
   5  -1  11 251.455 9.73382  -2
  -5   1   9 251.455 9.73382   1
  -4   1   9 401.079 8.00684   1
   3  -1  10 256.811 9.01672  -2
  -3   1   9 256.811 9.01672   1
  -2   1   9 -1.2652 3.04169   1
   1  -1   9 55.0064 7.54116  -2
  -1   1   9 55.0064 7.54116   1
   0  -1   9 161.829 7.83503  -2
   0   1   9 161.829 7.83503   1
   1   1   9 79.6246 5.14882   1
  -2  -1   8 4.85083 4.73104  -2
   2   1   9 4.85083 4.73104   1
   3   1   9 11.7439 2.94472   1
  -4  -1   7 30.9809 5.11473  -2
   4   1   9 30.9809 5.11473   1
  -5  -1   7 357.331 8.12542  -2
   5   1   9 357.331 8.12542   1
  -6  -1   6 5.06007 10.7044  -2
   6   1   9 5.06007 10.7044   1
  -7  -1   6 268.604 6.13311  -2
   7   1   9 268.604 6.13311   1
   8   1   9 114.595 6.10854   1
   5  -2  11 13.8142 9.75819  -2
  -5   2   9 13.8142 9.75819   1
  -4   2   9 7.74579 3.38612   1
   3  -2  10 144.644 6.85435  -2
  -3   2   9 144.644 6.85435   1
  -2   2   9 60.8590 4.84372   1
   1  -2   9 195.601 7.63885  -2
  -1   2   9 195.601 7.63885   1
   0  -2   9 503.253 11.1497  -2
   0   2   9 503.253 11.1497   1
  -1  -2   8 160.042 8.42998  -2
   1   2   9 160.042 8.42998   1
  -2  -2   8 177.027 6.41674  -2
   2   2   9 177.027 6.41674   1
   3   2   9 23.3151 3.18558   1
  -4  -2   7 98.1099 6.09675  -2
   4   2   9 98.1099 6.09675   1
  -5  -2   7 450.899 18.1147  -2
   5   2   9 450.899 18.1147   1
  -6  -2   6 416.348 10.6665  -2
   6   2   9 416.348 10.6665   1
  -7  -2   6 160.529 9.01655  -2
   7   2   9 160.529 9.01655   1
  -8  -2   5 297.371 18.0489  -2
   8   2   9 297.371 18.0489   1
   4  -3  10 250.736 12.0701  -2
  -4   3   9 250.736 12.0701   1
   3  -3  10 511.828 13.9235  -2
  -3   3   9 511.828 13.9235   1
  -2   3   9 18.0409 4.67565   1
   1  -3   9 250.565 8.98658  -2
  -1   3   9 250.565 8.98658   1
   0   3   9 86.8779 4.40756   1
  -1  -3   8 51.7690 5.75005  -2
   1   3   9 51.7690 5.75005   1
  -2  -3   8 288.452 7.62062  -2
   2   3   9 288.452 7.62062   1
   3   3   9 75.9806 4.31933   1
  -4  -3   7 475.910 9.12920  -2
   4   3   9 475.910 9.12920   1
   5   3   9 12.6346 3.12137   1
  -6  -3   6 61.5180 5.83733  -2
   6   3   9 61.5180 5.83733   1
  -7  -3   6 75.1112 9.21220  -2
   7   3   9 75.1112 9.21220   1
  -8  -3   5 434.914 11.8110  -2
   8   3   9 434.914 11.8110   1
   4  -4  10 123.947 9.41594  -2
  -4   4   9 123.947 9.41594   1
   3  -4  10 91.1937 17.4569  -2
  -3   4   9 91.1937 17.4569   1
   2  -4   9 101.586 10.7298  -2
  -2   4   9 101.586 10.7298   1
   1  -4   9 82.7492 8.89939  -2
  -1   4   9 82.7492 8.89939   1
   0   4   9 -1.6065 3.90349   1
  -1  -4   8 499.405 8.17743  -2
   1   4   9 499.405 8.17743   1
   2   4   9 195.744 5.70798   1
  -3  -4   7 261.063 7.57751  -2
   3   4   9 261.063 7.57751   1
  -4  -4   7 360.830 7.46877  -2
   4   4   9 360.830 7.46877   1
  -5  -4   6 639.899 20.1773  -2
   5   4   9 639.899 20.1773   1
  -6  -4   6 228.826 6.17665  -2
   6   4   9 228.826 6.17665   1
   7   4   9 41.7573 4.11872   1
  -8  -4   5 78.6365 8.04812  -2
   8   4   9 78.6365 8.04812   1
  -3   5   9 0.46283 4.55149   1
   2  -5   9 363.016 12.5254  -2
  -2   5   9 363.016 12.5254   1
   1  -5   9 32.2655 10.6753  -2
  -1   5   9 32.2655 10.6753   1
   0  -5   8 179.353 11.0503  -2
   0   5   9 179.353 11.0503   1
  -1  -5   8 500.583 12.3213  -2
   1   5   9 500.583 12.3213   1
   2   5   9 102.466 4.80214   1
  -3  -5   7 163.606 5.78154  -2
   3   5   9 163.606 5.78154   1
   4   5   9 39.7496 3.54676   1
  -5  -5   6 127.882 8.07717  -2
   5   5   9 127.882 8.07717   1
  -6  -5   6 53.1845 7.81702  -2
   6   5   9 53.1845 7.81702   1
  -7  -5   5 151.679 11.9339  -2
   7   5   9 151.679 11.9339   1
  -8  -5   5 17.6740 3.81100  -2
   8   5   9 17.6740 3.81100   1
   2  -6   9 157.671 8.87860  -2
  -2   6   9 157.671 8.87860   1
  -1   6   9 5.28546 4.50373   1
   0  -6   8 301.738 11.5973  -2
   0   6   9 301.738 11.5973   1
  -1  -6   8 225.369 11.0713  -2
   1   6   9 225.369 11.0713   1
   2   6   9 -0.1824 3.90682   1
  -3  -6   7 19.6383 4.94110  -2
   3   6   9 19.6383 4.94110   1
   4   6   9 152.215 5.75703   1
  -5  -6   6 357.519 8.74396  -2
   5   6   9 357.519 8.74396   1
  -6  -6   6 460.765 14.6965  -2
   6   6   9 460.765 14.6965   1
  -7  -6   5 16.1606 11.2739  -2
   7   6   9 16.1606 11.2739   1
  -8  -6   5 183.497 15.6839  -2
   8   6   9 183.497 15.6839   1
  -1   7   9 26.5941 9.10597   1
   0  -7   8 191.571 15.1812  -2
   0   7   9 191.571 15.1812   1
   1   7   9 443.344 19.8963   1
  -2  -7   7 110.354 17.3141  -2
   2   7   9 110.354 17.3141   1
  -3  -7   7 247.275 19.1377  -2
   3   7   9 247.275 19.1377   1
  -4  -7   6 106.209 12.1197  -2
   4   7   9 106.209 12.1197   1
  -5  -7   6 27.1375 7.35817  -2
   5   7   9 27.1375 7.35817   1
   6   7   9 68.5598 9.67916   1
  -7  -7   5 -11.991 14.7481  -2
   7   7   9 -11.991 14.7481   1
   0  -8   8 38.6410 15.3418  -2
   0   8   9 38.6410 15.3418   1
   1   8   9 24.3872 8.63041   1
  -2  -8   7 85.6730 14.2808  -2
   2   8   9 85.6730 14.2808   1
   3   8   9 50.6140 9.93895   1
  -4  -8   6 424.921 12.9342  -2
   4   8   9 424.921 12.9342   1
  -5  -8   6 634.822 15.0549  -2
   5   8   9 634.822 15.0549   1
  -6  -8   5 69.4460 15.3307  -2
   6   8   9 69.4460 15.3307   1
  -7  -8   5 78.0819 6.85517  -2
   7   8   9 78.0819 6.85517   1
  -2  -9   7 72.8664 5.40440  -2
   2   9   9 72.8664 5.40440   1
   3   9   9 167.393 7.84379   1
  -4  -9   6 16.2905 14.5391  -2
   4   9   9 16.2905 14.5391   1
  -5  -9   6 131.258 14.8788  -2
   5   9   9 131.258 14.8788   1
  -6  -9   5 215.619 13.3935  -2
   6   9   9 215.619 13.3935   1
   3   6  12 69.6537 8.78911  -2
  -3  -6  10 69.6537 8.78911   1
   2   6  12 364.769 21.0559  -2
  -2  -6  10 364.769 21.0559   1
   1   6  11 100.725 8.36420  -2
  -1  -6  10 100.725 8.36420   1
   0   6  11 52.5166 7.42798  -2
   0  -6  10 52.5166 7.42798   1
   1  -6  10 41.5590 4.20275   1
   4   5  12 100.228 12.8956  -2
  -4  -5  10 100.228 12.8956   1
   3   5  12 84.3193 8.85972  -2
  -3  -5  10 84.3193 8.85972   1
  -2  -5  10 39.4351 5.36263   1
   1   5  11 36.6401 6.45424  -2
  -1  -5  10 36.6401 6.45424   1
   0   5  11 71.7859 8.49096  -2
   0  -5  10 71.7859 8.49096   1
  -1   5  10 96.5946 8.16642  -2
   1  -5  10 96.5946 8.16642   1
  -2   5  10 40.9845 6.74968  -2
   2  -5  10 40.9845 6.74968   1
   3  -5  10 7.70400 4.20038   1
   4   4  12 5.59646 10.0636  -2
  -4  -4  10 5.59646 10.0636   1
   3   4  12 14.4488 9.96483  -2
  -3  -4  10 14.4488 9.96483   1
  -2  -4  10 0.14925 4.24621   1
   1   4  11 279.128 9.54730  -2
  -1  -4  10 279.128 9.54730   1
   0  -4  10 523.730 11.6864   1
  -1   4  10 160.354 7.54593  -2
   1  -4  10 160.354 7.54593   1
  -2   4  10 101.461 8.26047  -2
   2  -4  10 101.461 8.26047   1
  -3   4   9 73.0507 8.95797  -2
   3  -4  10 73.0507 8.95797   1
  -4   4   9 142.995 8.51115  -2
   4  -4  10 142.995 8.51115   1
  -5  -3  10 201.993 9.89531   1
   4   3  12 128.664 9.67950  -2
  -4  -3  10 128.664 9.67950   1
   3   3  12 201.275 12.7176  -2
  -3  -3  10 201.275 12.7176   1
   2   3  11 297.837 11.8977  -2
  -2  -3  10 297.837 11.8977   1
   1   3  11 -5.9617 8.20069  -2
  -1  -3  10 -5.9617 8.20069   1
   0   3  10 407.415 18.1416  -2
   0  -3  10 407.415 18.1416   1
  -1   3  10 2.12737 3.12010  -2
   1  -3  10 2.12737 3.12010   1
   2  -3  10 37.7692 3.99743   1
  -3   3   9 474.763 10.7561  -2
   3  -3  10 474.763 10.7561   1
  -4   3   9 311.850 8.89188  -2
   4  -3  10 311.850 8.89188   1
  -5   3   8 25.6883 18.1501  -2
   5  -3  10 25.6883 18.1501   1
  -5  -2  10 26.2098 5.20533   1
   4   2  12 67.2519 8.90312  -2
  -4  -2  10 67.2519 8.90312   1
  -3  -2  10 9.88623 4.28549   1
   2   2  11 668.485 14.1412  -2
  -2  -2  10 668.485 14.1412   1
   1   2  11 505.391 13.9262  -2
  -1  -2  10 505.391 13.9262   1
   0   2  10 587.033 13.4152  -2
   0  -2  10 587.033 13.4152   1
  -1   2  10 33.3553 7.41486  -2
   1  -2  10 33.3553 7.41486   1
   2  -2  10 4.58553 2.97040   1
  -3   2   9 153.665 6.55805  -2
   3  -2  10 153.665 6.55805   1
  -4   2   9 316.201 12.7775  -2
   4  -2  10 316.201 12.7775   1
  -5   2   8 78.6918 7.36518  -2
   5  -2  10 78.6918 7.36518   1
   6  -2  10 9.60036 5.32004   1
   5   1  12 37.1101 10.2337  -2
  -5  -1  10 37.1101 10.2337   1
   4   1  12 161.036 11.3420  -2
  -4  -1  10 161.036 11.3420   1
  -3  -1  10 124.365 7.45841   1
   2   1  11 7.46955 6.02236  -2
  -2  -1  10 7.46955 6.02236   1
  -1  -1  10 254.028 8.65064   1
   0   1  10 154.663 8.44016  -2
   0  -1  10 154.663 8.44016   1
  -1   1  10 261.850 10.4277  -2
   1  -1  10 261.850 10.4277   1
  -2   1   9 135.018 12.5739  -2
   2  -1  10 135.018 12.5739   1
  -3   1   9 236.087 7.12878  -2
   3  -1  10 236.087 7.12878   1
  -4   1   8 70.9846 15.7029  -2
   4  -1  10 70.9846 15.7029   1
  -5   1   8 42.3383 5.51845  -2
   5  -1  10 42.3383 5.51845   1
  -6   1   8 250.097 10.9565  -2
   6  -1  10 250.097 10.9565   1
   5   0  12 369.827 11.8159  -2
  -5   0  10 369.827 11.8159   1
  -4   0  10 14.6513 4.25725   1
   3   0  11 382.530 12.0208  -2
  -3   0  10 382.530 12.0208   1
   2   0  11 359.803 11.1112  -2
  -2   0  10 359.803 11.1112   1
  -1   0  10 363.077 9.45712   1
   0   0  10 149.805 7.05559  -2
   0   0  10 149.805 7.05559   1
  -1   0  10 494.581 17.8144  -2
   1   0  10 494.581 17.8144   1
  -2   0   9 23.5147 6.94341  -2
   2   0  10 23.5147 6.94341   1
  -3   0   9 606.010 13.1846  -2
   3   0  10 606.010 13.1846   1
   4   0  10 618.724 13.1052   1
  -5   0   8 96.0836 5.42389  -2
   5   0  10 96.0836 5.42389   1
  -6   0   8 58.6775 16.0402  -2
   6   0  10 58.6775 16.0402   1
  -7   0   7 250.203 9.00271  -2
   7   0  10 250.203 9.00271   1
  -4   1  10 386.819 10.2448   1
   3  -1  11 25.6724 7.41308  -2
  -3   1  10 25.6724 7.41308   1
   2  -1  11 139.349 13.0139  -2
  -2   1  10 139.349 13.0139   1
   1  -1  10 260.687 9.90504  -2
  -1   1  10 260.687 9.90504   1
   0  -1  10 158.687 8.42254  -2
   0   1  10 158.687 8.42254   1
   1   1  10 252.120 7.89840   1
  -2  -1   9 137.432 6.58287  -2
   2   1  10 137.432 6.58287   1
   3   1  10 90.9453 5.13825   1
  -4  -1   8 28.3809 6.98632  -2
   4   1  10 28.3809 6.98632   1
  -5  -1   8 189.979 7.67702  -2
   5   1  10 189.979 7.67702   1
  -6  -1   7 235.022 17.9181  -2
   6   1  10 235.022 17.9181   1
  -7  -1   7 404.538 8.31813  -2
   7   1  10 404.538 8.31813   1
  -4   2  10 62.4977 6.53185   1
   3  -2  11 194.981 8.16477  -2
  -3   2  10 194.981 8.16477   1
  -2   2  10 38.4334 4.36688   1
   1  -2  10 37.2544 7.02015  -2
  -1   2  10 37.2544 7.02015   1
   0  -2  10 646.250 13.2159  -2
   0   2  10 646.250 13.2159   1
  -1  -2   9 165.722 8.87379  -2
   1   2  10 165.722 8.87379   1
  -2  -2   9 405.980 8.60145  -2
   2   2  10 405.980 8.60145   1
   3   2  10 120.978 5.62046   1
  -4  -2   8 554.975 10.2412  -2
   4   2  10 554.975 10.2412   1
  -5  -2   8 457.750 18.9419  -2
   5   2  10 457.750 18.9419   1
  -6  -2   7 323.895 10.2190  -2
   6   2  10 323.895 10.2190   1
  -7  -2   7 292.442 10.1848  -2
   7   2  10 292.442 10.1848   1
   3  -3  11 28.6426 10.2424  -2
  -3   3  10 28.6426 10.2424   1
  -2   3  10 20.0302 5.07093   1
   1  -3  10 -0.4897 5.32178  -2
  -1   3  10 -0.4897 5.32178   1
   0   3  10 185.127 6.02905   1
  -1  -3   9 104.142 6.50712  -2
   1   3  10 104.142 6.50712   1
  -2  -3   9 141.595 7.30940  -2
   2   3  10 141.595 7.30940   1
   3   3  10 2.63338 2.96899   1
  -4  -3   8 226.615 7.37856  -2
   4   3  10 226.615 7.37856   1
   5   3  10 15.3947 3.47009   1
  -6  -3   7 182.463 7.08867  -2
   6   3  10 182.463 7.08867   1
  -7  -3   7 43.9640 9.33146  -2
   7   3  10 43.9640 9.33146   1
   3  -4  11 75.9101 12.6958  -2
  -3   4  10 75.9101 12.6958   1
   2  -4  10 116.531 11.2390  -2
  -2   4  10 116.531 11.2390   1
   1  -4  10 169.405 10.4606  -2
  -1   4  10 169.405 10.4606   1
   0   4  10 11.2544 4.54955   1
  -1  -4   9 354.580 7.44731  -2
   1   4  10 354.580 7.44731   1
  -2  -4   9 86.8662 11.4443  -2
   2   4  10 86.8662 11.4443   1
  -3  -4   8 988.418 13.7105  -2
   3   4  10 988.418 13.7105   1
  -4  -4   8 719.990 12.1130  -2
   4   4  10 719.990 12.1130   1
  -5  -4   7 198.391 16.1664  -2
   5   4  10 198.391 16.1664   1
  -6  -4   7 123.512 5.72546  -2
   6   4  10 123.512 5.72546   1
   7   4  10 4.50290 4.48463   1
   2  -5  10 44.7431 9.52826  -2
  -2   5  10 44.7431 9.52826   1
   1  -5  10 107.624 12.1367  -2
  -1   5  10 107.624 12.1367   1
   0  -5   9 482.986 15.0092  -2
   0   5  10 482.986 15.0092   1
  -1  -5   9 179.756 9.88017  -2
   1   5  10 179.756 9.88017   1
   2   5  10 34.9477 3.57444   1
  -3  -5   8 77.5783 5.78499  -2
   3   5  10 77.5783 5.78499   1
   4   5  10 85.4773 4.90768   1
  -5  -5   7 149.442 8.59684  -2
   5   5  10 149.442 8.59684   1
  -6  -5   7 48.5714 7.81663  -2
   6   5  10 48.5714 7.81663   1
  -7  -5   6 45.4748 11.8262  -2
   7   5  10 45.4748 11.8262   1
  -1   6  10 5.68604 4.97377   1
   0  -6   9 86.4438 10.0822  -2
   0   6  10 86.4438 10.0822   1
  -1  -6   9 3.54998 10.1806  -2
   1   6  10 3.54998 10.1806   1
   2   6  10 212.630 8.95656   1
  -3  -6   8 281.271 7.62140  -2
   3   6  10 281.271 7.62140   1
   4   6  10 76.3268 4.57670   1
  -5  -6   7 13.4155 6.54419  -2
   5   6  10 13.4155 6.54419   1
  -6  -6   7 208.013 12.9247  -2
   6   6  10 208.013 12.9247   1
  -7  -6   6 24.8497 11.8514  -2
   7   6  10 24.8497 11.8514   1
   0  -7   9 192.576 16.7135  -2
   0   7  10 192.576 16.7135   1
   1   7  10 377.853 19.6866   1
  -2  -7   8 65.8021 18.0361  -2
   2   7  10 65.8021 18.0361   1
  -3  -7   8 124.894 18.9797  -2
   3   7  10 124.894 18.9797   1
  -4  -7   7 116.156 13.3090  -2
   4   7  10 116.156 13.3090   1
  -5  -7   7 48.8411 8.13666  -2
   5   7  10 48.8411 8.13666   1
   6   7  10 84.9049 10.8931   1
  -7  -7   6 67.3231 11.2099  -2
   7   7  10 67.3231 11.2099   1
   1   8  10 42.4314 10.1079   1
  -2  -8   8 146.738 16.9224  -2
   2   8  10 146.738 16.9224   1
   3   8  10 42.4697 9.97411   1
  -4  -8   7 120.855 10.5292  -2
   4   8  10 120.855 10.5292   1
  -5  -8   7 250.316 11.9212  -2
   5   8  10 250.316 11.9212   1
  -6  -8   6 156.846 16.0772  -2
   6   8  10 156.846 16.0772   1
  -2  -5  11 204.024 9.73164   1
   1   5  12 560.580 14.1952  -2
  -1  -5  11 560.580 14.1952   1
   0   5  12 33.8584 11.0240  -2
   0  -5  11 33.8584 11.0240   1
  -1   5  11 200.526 9.26220  -2
   1  -5  11 200.526 9.26220   1
   3   4  13 99.6231 11.7565  -2
  -3  -4  11 99.6231 11.7565   1
   2   4  12 41.7591 17.2685  -2
  -2  -4  11 41.7591 17.2685   1
   1   4  12 175.283 9.10242  -2
  -1  -4  11 175.283 9.10242   1
   0  -4  11 88.6337 6.32504   1
  -1   4  11 52.1039 6.97020  -2
   1  -4  11 52.1039 6.97020   1
  -2   4  11 73.2867 8.34494  -2
   2  -4  11 73.2867 8.34494   1
  -3   4  10 87.4176 9.62346  -2
   3  -4  11 87.4176 9.62346   1
   3   3  13 57.6031 12.7097  -2
  -3  -3  11 57.6031 12.7097   1
   2   3  12 920.322 18.4227  -2
  -2  -3  11 920.322 18.4227   1
   1   3  12 159.848 10.6370  -2
  -1  -3  11 159.848 10.6370   1
   0   3  11 402.741 19.9358  -2
   0  -3  11 402.741 19.9358   1
  -1   3  11 261.480 9.63567  -2
   1  -3  11 261.480 9.63567   1
   2  -3  11 27.9940 3.80696   1
  -3   3  10 15.3838 7.74871  -2
   3  -3  11 15.3838 7.74871   1
  -4   3  10 24.7008 15.6785  -2
   4  -3  11 24.7008 15.6785   1
   4   2  13 147.222 10.1434  -2
  -4  -2  11 147.222 10.1434   1
  -3  -2  11 1.60998 4.47401   1
   2   2  12 500.510 13.1485  -2
  -2  -2  11 500.510 13.1485   1
   1   2  12 188.120 12.0784  -2
  -1  -2  11 188.120 12.0784   1
   0   2  11 54.4719 9.77164  -2
   0  -2  11 54.4719 9.77164   1
  -1   2  11 59.1186 8.33498  -2
   1  -2  11 59.1186 8.33498   1
   2  -2  11 136.179 8.09904   1
  -3   2  10 211.175 9.57208  -2
   3  -2  11 211.175 9.57208   1
  -4   2  10 118.393 16.9540  -2
   4  -2  11 118.393 16.9540   1
  -5   2   9 3.09200 7.19049  -2
   5  -2  11 3.09200 7.19049   1
  -4  -1  11 16.4896 5.02234   1
  -3  -1  11 17.1490 4.62221   1
   2   1  12 226.265 9.40846  -2
  -2  -1  11 226.265 9.40846   1
  -1  -1  11 406.551 11.0807   1
   0   1  11 90.6865 8.87621  -2
   0  -1  11 90.6865 8.87621   1
  -1   1  11 141.096 10.3641  -2
   1  -1  11 141.096 10.3641   1
  -2   1  10 108.702 13.0627  -2
   2  -1  11 108.702 13.0627   1
  -3   1  10 24.4005 7.89203  -2
   3  -1  11 24.4005 7.89203   1
  -4   1   9 344.291 19.7253  -2
   4  -1  11 344.291 19.7253   1
  -5   1   9 243.984 8.86031  -2
   5  -1  11 243.984 8.86031   1
  -4   0  11 10.6014 4.66592   1
   3   0  12 181.182 11.2929  -2
  -3   0  11 181.182 11.2929   1
   2   0  12 152.198 9.99160  -2
  -2   0  11 152.198 9.99160   1
  -1   0  11 20.5434 4.49087   1
   0   0  11 20.4190 4.40833  -2
   0   0  11 20.4190 4.40833   1
  -1   0  11 11.5573 14.0143  -2
   1   0  11 11.5573 14.0143   1
  -2   0  10 337.378 10.6072  -2
   2   0  11 337.378 10.6072   1
  -3   0  10 403.840 11.9651  -2
   3   0  11 403.840 11.9651   1
  -4   0   9 188.659 16.6309  -2
   4   0  11 188.659 16.6309   1
  -5   0   9 342.017 9.56847  -2
   5   0  11 342.017 9.56847   1
   6   0  11 148.676 7.25594   1
   3  -1  12 104.192 8.94825  -2
  -3   1  11 104.192 8.94825   1
   2  -1  12 409.449 13.0996  -2
  -2   1  11 409.449 13.0996   1
   1  -1  11 155.936 10.5530  -2
  -1   1  11 155.936 10.5530   1
   0  -1  11 84.0090 8.28478  -2
   0   1  11 84.0090 8.28478   1
   1   1  11 77.6532 5.52812   1
  -2  -1  10 9.15091 5.80323  -2
   2   1  11 9.15091 5.80323   1
   3   1  11 139.523 6.32767   1
  -4  -1   9 424.950 10.7196  -2
   4   1  11 424.950 10.7196   1
  -5  -1   9 59.4585 8.06126  -2
   5   1  11 59.4585 8.06126   1
  -6  -1   8 164.040 17.7836  -2
   6   1  11 164.040 17.7836   1
   3  -2  12 98.8366 9.64416  -2
  -3   2  11 98.8366 9.64416   1
  -2   2  11 -0.2384 3.73322   1
   1  -2  11 62.5885 7.99555  -2
  -1   2  11 62.5885 7.99555   1
   0  -2  11 53.9313 8.35273  -2
   0   2  11 53.9313 8.35273   1
  -1  -2  10 463.629 10.7263  -2
   1   2  11 463.629 10.7263   1
  -2  -2  10 691.815 11.6402  -2
   2   2  11 691.815 11.6402   1
   3   2  11 89.8224 5.06672   1
  -4  -2   9 301.081 8.60797  -2
   4   2  11 301.081 8.60797   1
  -5  -2   9 -9.9427 15.0029  -2
   5   2  11 -9.9427 15.0029   1
  -6  -2   8 145.855 9.43792  -2
   6   2  11 145.855 9.43792   1
  -3   3  11 154.320 13.9652   1
  -2   3  11 51.9992 6.40527   1
   1  -3  11 238.257 7.16537  -2
  -1   3  11 238.257 7.16537   1
   0   3  11 143.496 6.23102   1
  -1  -3  10 1.48896 6.49205  -2
   1   3  11 1.48896 6.49205   1
  -2  -3  10 319.433 9.21626  -2
   2   3  11 319.433 9.21626   1
   3   3  11 308.657 7.93947   1
  -4  -3   9 187.776 7.53040  -2
   4   3  11 187.776 7.53040   1
   5   3  11 6.54059 3.55801   1
  -6  -3   8 73.0310 7.65059  -2
   6   3  11 73.0310 7.65059   1
   7   3  11 7.76358 5.13059   1
   2  -4  11 76.9287 11.8630  -2
  -2   4  11 76.9287 11.8630   1
   1  -4  11 49.0529 10.1089  -2
  -1   4  11 49.0529 10.1089   1
   0   4  11 33.2921 5.52580   1
  -1  -4  10 249.438 7.13508  -2
   1   4  11 249.438 7.13508   1
  -2  -4  10 2.80010 11.5133  -2
   2   4  11 2.80010 11.5133   1
  -3  -4   9 343.332 9.27129  -2
   3   4  11 343.332 9.27129   1
  -4  -4   9 160.250 8.09165  -2
   4   4  11 160.250 8.09165   1
  -5  -4   8 18.8875 15.5033  -2
   5   4  11 18.8875 15.5033   1
  -6  -4   8 18.0173 5.21059  -2
   6   4  11 18.0173 5.21059   1
   7   4  11 68.6190 5.12540   1
   1  -5  11 255.874 13.8150  -2
  -1   5  11 255.874 13.8150   1
   0  -5  10 75.8045 11.6288  -2
   0   5  11 75.8045 11.6288   1
  -1  -5  10 40.3853 9.27193  -2
   1   5  11 40.3853 9.27193   1
   2   5  11 115.945 5.60217   1
  -3  -5   9 403.188 9.14926  -2
   3   5  11 403.188 9.14926   1
   4   5  11 220.414 7.28180   1
  -5  -5   8 64.5078 8.65551  -2
   5   5  11 64.5078 8.65551   1
  -6  -5   8 82.1970 8.82169  -2
   6   5  11 82.1970 8.82169   1
   0  -6  10 26.3829 10.4070  -2
   0   6  11 26.3829 10.4070   1
  -1  -6  10 98.1771 12.0812  -2
   1   6  11 98.1771 12.0812   1
   2   6  11 91.8042 7.00889   1
  -3  -6   9 216.865 7.72498  -2
   3   6  11 216.865 7.72498   1
   4   6  11 11.4743 3.61185   1
  -5  -6   8 18.0432 9.34163  -2
   5   6  11 18.0432 9.34163   1
  -6  -6   8 141.946 12.6698  -2
   6   6  11 141.946 12.6698   1
   1   7  11 -2.2457 8.78360   1
  -2  -7   9 263.454 22.2238  -2
   2   7  11 263.454 22.2238   1
  -3  -7   9 470.675 25.4092  -2
   3   7  11 470.675 25.4092   1
  -4  -7   8 47.6620 13.2893  -2
   4   7  11 47.6620 13.2893   1
  -5  -7   8 30.9675 8.16881  -2
   5   7  11 30.9675 8.16881   1
   2   3  13 368.127 14.6472  -2
  -2  -3  12 368.127 14.6472   1
   1   3  13 72.9560 10.8070  -2
  -1  -3  12 72.9560 10.8070   1
   0   3  12 -3.8726 16.6311  -2
   0  -3  12 -3.8726 16.6311   1
  -1   3  12 8.92503 5.39362  -2
   1  -3  12 8.92503 5.39362   1
   2  -3  12 41.0056 5.91857   1
   2   2  13 2.10960 9.55485  -2
  -2  -2  12 2.10960 9.55485   1
   1   2  13 105.504 11.9877  -2
  -1  -2  12 105.504 11.9877   1
   0   2  12 19.3455 10.6582  -2
   0  -2  12 19.3455 10.6582   1
  -1   2  12 178.679 10.5093  -2
   1  -2  12 178.679 10.5093   1
   2  -2  12 81.0394 6.47832   1
  -3   2  11 91.8762 8.71772  -2
   3  -2  12 91.8762 8.71772   1
   2   1  13 245.332 10.3348  -2
  -2  -1  12 245.332 10.3348   1
  -1  -1  12 80.1349 6.47500   1
   0   1  12 88.9288 9.44836  -2
   0  -1  12 88.9288 9.44836   1
  -1   1  12 134.811 10.7975  -2
   1  -1  12 134.811 10.7975   1
  -2   1  11 381.700 13.3960  -2
   2  -1  12 381.700 13.3960   1
  -3   1  11 115.821 9.50726  -2
   3  -1  12 115.821 9.50726   1
   4  -1  12 39.5983 5.88975   1
   2   0  13 136.128 10.9847  -2
  -2   0  12 136.128 10.9847   1
  -1   0  12 34.0513 5.27700   1
   0   0  12 222.082 9.16542  -2
   0   0  12 222.082 9.16542   1
  -1   0  12 40.3778 15.9433  -2
   1   0  12 40.3778 15.9433   1
  -2   0  11 135.597 9.65260  -2
   2   0  12 135.597 9.65260   1
  -3   0  11 170.684 10.6247  -2
   3   0  12 170.684 10.6247   1
  -4   0  10 2.82527 15.3398  -2
   4   0  12 2.82527 15.3398   1
  -5   0  10 405.600 12.9156  -2
   5   0  12 405.600 12.9156   1
   2  -1  13 419.372 14.2235  -2
  -2   1  12 419.372 14.2235   1
   1  -1  12 140.664 11.1039  -2
  -1   1  12 140.664 11.1039   1
   0  -1  12 102.444 9.46126  -2
   0   1  12 102.444 9.46126   1
   1   1  12 84.1342 6.33810   1
  -2  -1  11 213.129 7.67019  -2
   2   1  12 213.129 7.67019   1
  -3  -1  11 237.737 16.4587  -2
   3   1  12 237.737 16.4587   1
  -4  -1  10 136.320 8.60050  -2
   4   1  12 136.320 8.60050   1
  -5  -1  10 45.0599 8.56241  -2
   5   1  12 45.0599 8.56241   1
  -2   2  12 61.3715 4.95604   1
   1  -2  12 175.025 8.68049  -2
  -1   2  12 175.025 8.68049   1
   0  -2  12 24.2127 8.62896  -2
   0   2  12 24.2127 8.62896   1
  -1  -2  11 161.856 9.25079  -2
   1   2  12 161.856 9.25079   1
  -2  -2  11 510.089 10.9733  -2
   2   2  12 510.089 10.9733   1
   3   2  12 25.5011 4.10727   1
  -4  -2  10 67.5091 6.86808  -2
   4   2  12 67.5091 6.86808   1
  -5  -2  10 116.832 11.5333  -2
   5   2  12 116.832 11.5333   1
   1  -3  12 10.6328 6.62380  -2
  -1   3  12 10.6328 6.62380   1
   0   3  12 0.69182 3.45225   1
  -1  -3  11 178.551 8.27958  -2
   1   3  12 178.551 8.27958   1
  -2  -3  11 955.363 14.9240  -2
   2   3  12 955.363 14.9240   1
   3   3  12 204.046 7.58132   1
  -4  -3  10 129.592 7.59471  -2
   4   3  12 129.592 7.59471   1
   5   3  12 17.7378 4.18153   1
  -1   4  12 24.7029 5.95061   1
   0   4  12 15.8270 5.51028   1
  -1  -4  11 164.518 6.83521  -2
   1   4  12 164.518 6.83521   1
  -2  -4  11 8.30954 12.8061  -2
   2   4  12 8.30954 12.8061   1
  -3  -4  10 31.3825 7.34526  -2
   3   4  12 31.3825 7.34526   1
  -4  -4  10 1.25137 7.42273  -2
   4   4  12 1.25137 7.42273   1
  -5  -4   9 226.077 18.4326  -2
   5   4  12 226.077 18.4326   1
   0  -5  11 50.8981 12.1627  -2
   0   5  12 50.8981 12.1627   1
  -1  -5  11 543.284 15.4046  -2
   1   5  12 543.284 15.4046   1
   2   5  12 234.560 7.62409   1
  -3  -5  10 90.1047 7.02460  -2
   3   5  12 90.1047 7.02460   1
  -4  -5  10 71.4040 12.9195  -2
   4   5  12 71.4040 12.9195   1
  -5  -5   9 -2.3521 10.7962  -2
   5   5  12 -2.3521 10.7962   1
  -2  -6  10 315.914 24.8593  -2
   2   6  12 315.914 24.8593   1
  -3  -6  10 86.7203 7.21433  -2
   3   6  12 86.7203 7.21433   1
   4   6  12 6.08651 3.78382   1
   0   1  13 290.273 12.1586  -2
   0  -1  13 290.273 12.1586   1
   1  -1  13 155.496 9.04743   1
  -2   1  12 387.507 14.1660  -2
   2  -1  13 387.507 14.1660   1
   0   0  13 212.229 9.62504  -2
   0   0  13 212.229 9.62504   1
   1   0  13 9.19531 4.68840   1
  -2   0  12 143.239 10.7983  -2
   2   0  13 143.239 10.7983   1
   3   0  13 72.3402 5.56918   1
   0  -1  13 320.278 12.1847  -2
   0   1  13 320.278 12.1847   1
   1   1  13 217.949 9.67680   1
  -2  -1  12 213.339 8.29108  -2
   2   1  13 213.339 8.29108   1
   3   1  13 3.88839 3.97141   1
   0   2  13 2.91523 3.93333   1
  -1  -2  12 138.113 10.2420  -2
   1   2  13 138.113 10.2420   1
  -2  -2  12 7.12759 7.15822  -2
   2   2  13 7.12759 7.15822   1
   3   2  13 -2.4580 3.80822   1
  -4  -2  11 141.633 8.27332  -2
   4   2  13 141.633 8.27332   1
  -1  -3  12 82.4930 8.38683  -2
   1   3  13 82.4930 8.38683   1
  -2  -3  12 359.058 11.0399  -2
   2   3  13 359.058 11.0399   1
   3   3  13 19.0219 4.33736   1
   4   3  13 112.377 8.15494   1
   2   4  13 4.58851 3.80394   1
  -3  -4  11 105.093 8.57295  -2
   3   4  13 105.093 8.57295   1
   0   0   0    0.00    0.00   0
;
_shelx_hkl_checksum              38723
loop_
_space_group_symop_operation_xyz
'x, y, z'
'-x, -y, -z'
loop_
_atom_site_label
_atom_site_type_symbol
_atom_site_fract_x
_atom_site_fract_y
_atom_site_fract_z
_atom_site_U_iso_or_equiv
_atom_site_adp_type
_atom_site_occupancy
_atom_site_site_symmetry_order
_atom_site_calc_flag
_atom_site_refinement_flags_posn
_atom_site_refinement_flags_adp
Ni1 Ni 0.58764(6) 0.76400(5) 0.66491(4) 0.00830(14) Uani 1 1 d . .
P1 P 0.23141(12) 1.06160(10) 0.57789(8) 0.0082(2) Uani 1 1 d . .
P2 P 0.34784(12) 0.77490(10) 0.45164(9) 0.0090(2) Uani 1 1 d . .
O1 O 0.3946(3) 0.9900(3) 0.6479(2) 0.0093(5) Uani 1 1 d . .
O2 O 0.0571(3) 1.1183(3) 0.6788(2) 0.0106(5) Uani 1 1 d . .
H2O H -0.0317 1.1753 0.6428 0.016 Uiso 1 1 calc R U
O3 O 0.2360(3) 1.1842(3) 0.4795(2) 0.0118(5) Uani 1 1 d . .
O4 O 0.2054(3) 0.9269(3) 0.5160(2) 0.0122(5) Uani 1 1 d . .
O5 O 0.4808(3) 0.6887(3) 0.5400(2) 0.0128(5) Uani 1 1 d . .
O6 O 0.4390(3) 0.8312(3) 0.3249(2) 0.0142(5) Uani 1 1 d . .
H6O H 0.4978 0.8821 0.3409 0.021 Uiso 1 1 calc R U
O7 O 0.2298(3) 0.6980(3) 0.4187(2) 0.0118(5) Uani 1 1 d . .
O1W O 0.7793(3) 0.5486(3) 0.6840(2) 0.0115(5) Uani 1 1 d D .
H1WA H 0.890(3) 0.526(5) 0.666(4) 0.017 Uiso 1 1 d D U
H1WB H 0.774(6) 0.486(4) 0.640(4) 0.017 Uiso 1 1 d D U
O2W O 0.1375(4) 0.4957(3) 0.6171(3) 0.0199(6) Uani 1 1 d D .
H2WA H 0.163(7) 0.560(4) 0.567(4) 0.030 Uiso 1 1 d D U
H2WB H 0.206(6) 0.414(3) 0.588(5) 0.030 Uiso 1 1 d D U
N1 N 0.4291(4) 0.7022(3) 0.8177(3) 0.0104(6) Uani 1 1 d . .
N2 N 0.6775(4) 0.8236(3) 0.8116(3) 0.0102(6) Uani 1 1 d . .
C1 C 0.3125(5) 0.6346(4) 0.8119(4) 0.0153(8) Uani 1 1 d . .
H1A H 0.2966 0.6142 0.7314 0.018 Uiso 1 1 calc R U
C2 C 0.2136(5) 0.5929(4) 0.9190(4) 0.0184(8) Uani 1 1 d . .
H2A H 0.1322 0.5439 0.9119 0.022 Uiso 1 1 calc R U
C3 C 0.2352(5) 0.6239(4) 1.0365(4) 0.0175(8) Uani 1 1 d . .
H3A H 0.1670 0.5983 1.1113 0.021 Uiso 1 1 calc R U
C4 C 0.3584(5) 0.6930(4) 1.0433(4) 0.0152(8) Uani 1 1 d . .
H4A H 0.3752 0.7158 1.1228 0.018 Uiso 1 1 calc R U
C5 C 0.4568(5) 0.7282(4) 0.9317(4) 0.0118(7) Uani 1 1 d . .
C6 C 0.5996(5) 0.7936(4) 0.9285(4) 0.0132(7) Uani 1 1 d . .
C7 C 0.6514(5) 0.8203(4) 1.0365(4) 0.0154(8) Uani 1 1 d . .
H7A H 0.5953 0.7971 1.1177 0.018 Uiso 1 1 calc R U
C8 C 0.7855(5) 0.8809(4) 1.0257(4) 0.0177(8) Uani 1 1 d . .
H8A H 0.8231 0.9000 1.0989 0.021 Uiso 1 1 calc R U
C9 C 0.8644(5) 0.9136(4) 0.9047(4) 0.0159(8) Uani 1 1 d . .
H9A H 0.9548 0.9577 0.8941 0.019 Uiso 1 1 calc R U
C10 C 0.8096(5) 0.8810(4) 0.8012(4) 0.0129(7) Uani 1 1 d . .
H10A H 0.8672 0.8998 0.7192 0.015 Uiso 1 1 calc R U
loop_
_atom_site_aniso_label
_atom_site_aniso_U_11
_atom_site_aniso_U_22
_atom_site_aniso_U_33
_atom_site_aniso_U_23
_atom_site_aniso_U_13
_atom_site_aniso_U_12
Ni1 0.0096(2) 0.0092(2) 0.0064(2) -0.00002(18) -0.00181(17) -0.00359(16)
P1 0.0081(4) 0.0087(4) 0.0078(4) -0.0009(3) -0.0008(3) -0.0030(3)
P2 0.0102(4) 0.0082(4) 0.0097(4) -0.0016(3) -0.0028(4) -0.0035(3)
O1 0.0107(12) 0.0082(11) 0.0086(13) 0.0012(9) -0.0026(9) -0.0030(9)
O2 0.0090(11) 0.0113(12) 0.0094(12) -0.0011(10) -0.0011(10) -0.0012(9)
O3 0.0098(12) 0.0138(13) 0.0109(13) 0.0024(10) -0.0003(10) -0.0047(10)
O4 0.0108(12) 0.0097(12) 0.0163(14) -0.0053(10) -0.0034(10) -0.0021(10)
O5 0.0137(12) 0.0104(12) 0.0138(13) -0.0027(10) -0.0047(10) -0.0019(10)
O6 0.0191(13) 0.0173(13) 0.0103(13) 0.0006(11) -0.0041(11) -0.0107(11)
O7 0.0135(12) 0.0104(12) 0.0147(13) -0.0013(10) -0.0060(10) -0.0060(10)
O1W 0.0119(12) 0.0108(12) 0.0118(14) -0.0014(10) -0.0023(10) -0.0035(10)
O2W 0.0167(14) 0.0226(16) 0.0174(15) -0.0042(12) -0.0005(12) -0.0039(12)
N1 0.0120(14) 0.0072(15) 0.0101(15) 0.0035(11) -0.0036(12) -0.0015(12)
N2 0.0116(14) 0.0089(14) 0.0085(15) 0.0000(11) -0.0029(11) -0.0014(12)
C1 0.0127(17) 0.017(2) 0.0147(19) -0.0008(15) -0.0053(15) -0.0026(15)
C2 0.0106(18) 0.018(2) 0.026(2) 0.0011(17) -0.0025(16) -0.0051(15)
C3 0.0156(19) 0.017(2) 0.0144(19) 0.0068(16) 0.0014(15) -0.0039(16)
C4 0.0129(18) 0.0162(19) 0.0122(19) -0.0002(15) -0.0006(14) -0.0010(15)
C5 0.0097(17) 0.0083(17) 0.0137(19) -0.0039(14) 0.0000(13) 0.0009(13)
C6 0.0140(18) 0.0112(18) 0.0130(19) 0.0011(15) -0.0031(14) -0.0032(14)
C7 0.0158(18) 0.0161(19) 0.0129(19) -0.0043(15) -0.0026(14) -0.0030(15)
C8 0.020(2) 0.014(2) 0.018(2) -0.0068(16) -0.0063(16) -0.0021(16)
C9 0.0161(19) 0.0156(19) 0.019(2) -0.0037(16) -0.0053(15) -0.0067(15)
C10 0.0124(17) 0.0112(18) 0.0145(18) -0.0003(15) -0.0036(14) -0.0030(14)
loop_
_atom_type_symbol
_atom_type_description
_atom_type_scat_dispersion_real
_atom_type_scat_dispersion_imag
_atom_type_scat_source
C C 0.0033 0.0016 'International Tables Vol C Tables 4.2.6.8 and 6.1.1.4'
H H 0.0000 0.0000 'International Tables Vol C Tables 4.2.6.8 and 6.1.1.4'
N N 0.0061 0.0033 'International Tables Vol C Tables 4.2.6.8 and 6.1.1.4'
O O 0.0106 0.0060 'International Tables Vol C Tables 4.2.6.8 and 6.1.1.4'
P P 0.1023 0.0942 'International Tables Vol C Tables 4.2.6.8 and 6.1.1.4'
Ni Ni 0.3393 1.1124 'International Tables Vol C Tables 4.2.6.8 and 6.1.1.4'
loop_
_geom_angle_atom_site_label_1
_geom_angle_atom_site_label_2
_geom_angle_atom_site_label_3
_geom_angle
_geom_angle_site_symmetry_1
_geom_angle_site_symmetry_3
O5 Ni1 O1W 89.62(10) . .
O5 Ni1 O3 90.87(10) . 2_676
O1W Ni1 O3 89.11(10) . 2_676
O5 Ni1 N2 171.56(11) . .
O1W Ni1 N2 88.21(11) . .
O3 Ni1 N2 97.25(11) 2_676 .
O5 Ni1 N1 92.16(11) . .
O1W Ni1 N1 87.19(11) . .
O3 Ni1 N1 175.20(11) 2_676 .
N2 Ni1 N1 79.59(12) . .
O5 Ni1 O1 92.25(10) . .
O1W Ni1 O1 178.06(10) . .
O3 Ni1 O1 90.32(9) 2_676 .
N2 Ni1 O1 90.03(10) . .
N1 Ni1 O1 93.28(10) . .
O5 Ni1 Ni1 78.41(7) . 2_676
O1W Ni1 Ni1 140.75(7) . 2_676
O3 Ni1 Ni1 54.35(7) 2_676 2_676
N2 Ni1 Ni1 108.23(9) . 2_676
N1 Ni1 Ni1 130.00(8) . 2_676
O1 Ni1 Ni1 39.38(7) . 2_676
O3 P1 O1 117.04(14) . .
O3 P1 O2 110.94(14) . .
O1 P1 O2 107.77(14) . .
O3 P1 O4 109.50(15) . .
O1 P1 O4 107.51(13) . .
O2 P1 O4 103.12(13) . .
O5 P2 O7 117.26(15) . .
O5 P2 O6 112.82(15) . .
O7 P2 O6 107.64(14) . .
O5 P2 O4 108.74(14) . .
O7 P2 O4 103.98(13) . .
O6 P2 O4 105.41(14) . .
P1 O1 Ni1 133.06(14) . .
P1 O2 H2O 109.5 . .
P1 O3 Ni1 140.29(16) . 2_676
P1 O4 P2 132.45(16) . .
P2 O5 Ni1 130.63(15) . .
P2 O6 H6O 109.5 . .
Ni1 O1W H1WA 125(3) . .
Ni1 O1W H1WB 115(3) . .
H1WA O1W H1WB 96(4) . .
H2WA O2W H2WB 104(5) . .
C1 N1 C5 119.4(3) . .
C1 N1 Ni1 125.6(3) . .
C5 N1 Ni1 114.9(2) . .
C10 N2 C6 118.4(3) . .
C10 N2 Ni1 126.4(3) . .
C6 N2 Ni1 115.1(2) . .
N1 C1 C2 122.5(4) . .
N1 C1 H1A 118.8 . .
C2 C1 H1A 118.8 . .
C1 C2 C3 118.9(4) . .
C1 C2 H2A 120.6 . .
C3 C2 H2A 120.6 . .
C2 C3 C4 119.0(4) . .
C2 C3 H3A 120.5 . .
C4 C3 H3A 120.5 . .
C3 C4 C5 118.9(4) . .
C3 C4 H4A 120.5 . .
C5 C4 H4A 120.5 . .
N1 C5 C4 121.3(3) . .
N1 C5 C6 115.3(3) . .
C4 C5 C6 123.4(4) . .
N2 C6 C7 122.0(3) . .
N2 C6 C5 115.1(3) . .
C7 C6 C5 122.9(4) . .
C8 C7 C6 119.5(4) . .
C8 C7 H7A 120.3 . .
C6 C7 H7A 120.3 . .
C7 C8 C9 118.4(4) . .
C7 C8 H8A 120.8 . .
C9 C8 H8A 120.8 . .
C10 C9 C8 119.1(4) . .
C10 C9 H9A 120.4 . .
C8 C9 H9A 120.4 . .
N2 C10 C9 122.5(4) . .
N2 C10 H10A 118.8 . .
C9 C10 H10A 118.8 . .
loop_
_geom_bond_atom_site_label_1
_geom_bond_atom_site_label_2
_geom_bond_distance
_geom_bond_site_symmetry_2
Ni1 O5 2.037(3) .
Ni1 O1W 2.052(3) .
Ni1 O3 2.054(2) 2_676
Ni1 N2 2.062(3) .
Ni1 N1 2.062(3) .
Ni1 O1 2.125(2) .
Ni1 Ni1 5.2713(12) 2_676
P1 O3 1.482(3) .
P1 O1 1.515(3) .
P1 O2 1.567(2) .
P1 O4 1.604(3) .
P2 O5 1.490(3) .
P2 O7 1.503(2) .
P2 O6 1.564(3) .
P2 O4 1.604(2) .
O2 H2O 0.8400 .
O3 Ni1 2.054(2) 2_676
O6 H6O 0.8400 .
O1W H1WA 0.825(19) .
O1W H1WB 0.817(19) .
O2W H2WA 0.825(19) .
O2W H2WB 0.817(19) .
N1 C1 1.331(5) .
N1 C5 1.351(5) .
N2 C10 1.346(5) .
N2 C6 1.350(5) .
C1 C2 1.384(6) .
C1 H1A 0.9500 .
C2 C3 1.386(6) .
C2 H2A 0.9500 .
C3 C4 1.393(5) .
C3 H3A 0.9500 .
C4 C5 1.394(5) .
C4 H4A 0.9500 .
C5 C6 1.489(5) .
C6 C7 1.382(5) .
C7 C8 1.381(5) .
C7 H7A 0.9500 .
C8 C9 1.397(6) .
C8 H8A 0.9500 .
C9 C10 1.373(5) .
C9 H9A 0.9500 .
C10 H10A 0.9500 .
loop_
_geom_hbond_atom_site_label_D
_geom_hbond_atom_site_label_H
_geom_hbond_atom_site_label_A
_geom_hbond_distance_DH
_geom_hbond_distance_HA
_geom_hbond_distance_DA
_geom_hbond_angle_DHA
_geom_hbond_site_symmetry_A
O1W H1WA O2W 0.825(19) 1.88(2) 2.699(4) 174(4) 1_655
O1W H1WB O7 0.817(19) 1.94(2) 2.733(3) 164(4) 2_666
O2W H2WA O7 0.825(19) 2.07(2) 2.883(4) 170(5) .
O2W H2WB O5 0.817(19) 2.53(4) 3.179(4) 137(4) 2_666
O2 H2O O7 0.84 1.77 2.609(3) 174.5 2_576
O6 H6O O1 0.84 1.76 2.590(3) 170.0 2_676
