#------------------------------------------------------------------------------
#$Date: 2016-02-13 21:28:24 +0200 (Sat, 13 Feb 2016) $
#$Revision: 176429 $
#$URL: svn://www.crystallography.net/cod/cif/4/34/30/4343088.cif $
#------------------------------------------------------------------------------
#
# This file is available in the Crystallography Open Database (COD),
# http://www.crystallography.net/
#
# All data on this site have been placed in the public domain by the
# contributors.
#
data_4343088
loop_
_publ_author_name
'Poupon, Morgane'
'Barrier, Nicolas'
'Petit, Sebastien'
'Clevers, Simon'
'Dupray, Valerie'
_publ_section_title
;
 Hydrothermal Synthesis and Dehydration of CaTeO3(H2O): An Original Route
 to Generate New CaTeO3 Polymorphs.
;
_journal_issue                   12
_journal_name_full               'Inorganic chemistry'
_journal_page_first              5660
_journal_page_last               5670
_journal_paper_doi               10.1021/acs.inorgchem.5b00037
_journal_volume                  54
_journal_year                    2015
_chemical_formula_moiety         'O3 Te, O, Ca'
_chemical_formula_sum            'Ca O4 Te'
_chemical_formula_weight         231.7
_chemical_name_systematic        ' ?'
_space_group_IT_number           33
_symmetry_cell_setting           orthorhombic
_symmetry_Int_Tables_number      33
_symmetry_space_group_name_Hall  'P -2n 2a'
_symmetry_space_group_name_H-M   'P 21 c n'
_cell_angle_alpha                90
_cell_angle_beta                 90
_cell_angle_gamma                90
_cell_formula_units_Z            8
_cell_length_a                   14.78549(4)
_cell_length_b                   6.79194(3)
_cell_length_c                   8.06261(3)
_cell_measurement_temperature    293
_cell_volume                     809.665(5)
_diffrn_ambient_temperature      293
_diffrn_detector                 'Bruker LynxEye'
_diffrn_detector_type            PSD
_diffrn_measurement_device_type  'Bruker D8 advance vario 1'
_diffrn_radiation_monochromator  1.5406
_diffrn_radiation_probe          x-ray
_diffrn_radiation_type           'Cu K\a1'
_diffrn_radiation_wavelength     1.5406
_diffrn_source                   'sealed X-ray tube'
_diffrn_source_target            Cu
_diffrn_source_type              X-ray
_exptl_absorpt_coefficient_mu    67.545
_exptl_crystal_density_diffrn    3.8011
_exptl_crystal_F_000             832
_pd_char_colour                  white
_pd_char_particle_morphology     plate-like
_pd_instr_location               ' ?'
_pd_meas_2theta_range_inc        0.009
_pd_meas_2theta_range_max        139.991
_pd_meas_2theta_range_min        5.000
_pd_meas_number_of_points        15000
_pd_meas_scan_method             cont
_pd_prep_temperature             293
_pd_proc_2theta_range_inc        0.009
_pd_proc_2theta_range_max        139.991
_pd_proc_2theta_range_min        5
_pd_proc_ls_background_function  '15 Legendre polynoms'
_pd_proc_ls_pref_orient_corr     'March & Dollase'
_pd_proc_ls_profile_function     Pseudo-Voigt
_pd_proc_ls_prof_R_factor        0.0680
_pd_proc_ls_prof_wR_expected     0.0567
_pd_proc_ls_prof_wR_factor       0.0961
_pd_spec_mounting                ' packed powder pellet'
_pd_spec_mount_mode              reflection
_pd_spec_shape                   flat_sheet
_pd_spec_size_axial              16
_pd_spec_size_equat              16
_pd_spec_size_thick              1
_refine_diff_density_max         1.25
_refine_diff_density_min         -1.25
_refine_ls_goodness_of_fit_all   1.70
_refine_ls_number_constraints    9
_refine_ls_number_parameters     66
_refine_ls_number_restraints     0
_refine_ls_R_factor_all          0.0375
_refine_ls_R_factor_gt           0.0366
_refine_ls_shift/su_max          0.0308
_refine_ls_shift/su_mean         0.0038
_refine_ls_weighting_scheme      sigma
_refine_ls_wR_factor_all         0.0432
_refine_ls_wR_factor_gt          0.0430
_cod_data_source_file            ic5b00037_si_002.cif
_cod_data_source_block           I
_cod_depositor_comments
;
The following automatic conversions were performed:

'_diffrn_radiation_probe' value 'X-ray' changed to 'x-ray' according
to
/usr/data/users/saulius/crontab/automatic-downloads/rss-feeds/ACS/lib/dictionaries/cif_core.dic
dictionary named 'cif_core.dic' version 2.4.2 from 2011-04-26.

Automatic conversion script
Id: cif_fix_values 3271 2015-04-21 07:52:19Z andrius 

 Adding full bibliography for 4343088--4343089.cif.
;
_cod_original_cell_volume        809.665(6)
_cod_original_formula_sum        'Ca1 O4 Te1'
_cod_database_code               4343088
loop_
_space_group_symop_id
_space_group_symop_operation_xyz
1 x,y,z
2 x+1/2,-y,-z
3 x+1/2,y+1/2,-z+1/2
4 x,-y+1/2,z+1/2
loop_
_atom_site_label
_atom_site_type_symbol
_atom_site_fract_x
_atom_site_fract_y
_atom_site_fract_z
_atom_site_adp_type
_atom_site_U_iso_or_equiv
_atom_site_site_symmetry_multiplicity
_atom_site_occupancy
_atom_site_calc_flag
Ca1 Ca 0.0644(2) 0.6313(8) 0.9531(6) Uiso 0.0073(11) 4 1 d
Ca2 Ca 0.1540(3) 0.1291(7) 0.8304(6) Uiso 0.0057(10) 4 1 d
Te1 Te 0.24723(9) 0.6555(3) 0.71323(16) Uiso 0.0057(4) 4 1 d
Te2 Te 0.462793 0.6594(3) 0.43016(17) Uiso 0.0038(3) 4 1 d
O1 O 0.1969(7) 0.464(2) 0.8546(18) Uiso 0.0068(12) 4 1 d
O2 O 0.1476(9) 0.815(2) 0.7087(15) Uiso 0.0068(12) 4 1 d
O3 O 0.2324(8) 0.5436(19) 0.4993(19) Uiso 0.0068(12) 4 1 d
O4 O 0.5090(7) 0.4525(19) 0.559(2) Uiso 0.0068(12) 4 1 d
O5 O 0.5730(9) 0.810(2) 0.4275(17) Uiso 0.0068(12) 4 1 d
O6 O 0.4694(7) 0.5131(18) 0.2186(16) Uiso 0.0068(12) 4 1 d
Ow1 O 0.2870(8) 0.112(2) 0.6490(18) Uiso 0.0068(12) 4 1 d
Ow2 O 0.4342(8) 0.108(2) 0.3615(17) Uiso 0.0068(12) 4 1 d
loop_
_atom_type_symbol
_atom_type_scat_dispersion_real
_atom_type_scat_dispersion_imag
_atom_type_scat_source
Ca 0.3662 1.2919 'International Tables Vol C tables 4.2.6.8 and 6.1.1.1'
O 0.0516 0.0335 'International Tables Vol C tables 4.2.6.8 and 6.1.1.1'
Te -0.1505 6.4074 'International Tables Vol C tables 4.2.6.8 and 6.1.1.1'
loop_
_geom_angle_atom_site_label_1
_geom_angle_atom_site_label_2
_geom_angle_atom_site_label_3
_geom_angle_site_symmetry_1
_geom_angle_site_symmetry_3
_geom_angle
O1 Ca1 O2 . . 66.2(5)
O1 Ca1 O2 . 4_565 86.5(5)
O1 Ca1 O4 . 3_456 135.8(5)
O1 Ca1 O5 . 3_446 70.0(5)
O1 Ca1 O6 . 2_466 95.8(5)
O1 Ca1 Ow2 . 3_456 144.6(5)
O2 Ca1 O2 . 4_565 109.1(5)
O2 Ca1 O4 . 3_456 72.0(5)
O2 Ca1 O5 . 3_446 135.1(5)
O2 Ca1 O6 . 2_466 92.2(5)
O2 Ca1 Ow2 . 3_456 148.8(5)
O2 Ca1 O4 4_565 3_456 94.1(5)
O2 Ca1 O5 4_565 3_446 76.6(5)
O2 Ca1 O6 4_565 2_466 157.4(5)
O2 Ca1 Ow2 4_565 3_456 83.7(5)
O4 Ca1 O5 3_456 3_446 152.8(5)
O4 Ca1 O6 3_456 2_466 99.6(5)
O4 Ca1 Ow2 3_456 3_456 79.0(5)
O5 Ca1 O6 3_446 2_466 83.1(5)
O5 Ca1 Ow2 3_446 3_456 74.7(5)
O6 Ca1 Ow2 2_466 3_456 81.5(5)
O1 Ca2 O2 . 1_545 156.4(5)
O1 Ca2 O3 . 4_555 109.2(5)
O1 Ca2 O4 . 3_446 129.2(4)
O1 Ca2 O5 . 2_466 92.2(5)
O1 Ca2 O5 . 3_446 66.9(5)
O1 Ca2 Ow1 . . 83.1(5)
O2 Ca2 O3 1_545 4_555 77.9(5)
O2 Ca2 O4 1_545 3_446 72.1(5)
O2 Ca2 O5 1_545 2_466 77.2(5)
O2 Ca2 O5 1_545 3_446 136.4(5)
O2 Ca2 Ow1 1_545 . 74.9(5)
O3 Ca2 O4 4_555 3_446 88.6(5)
O3 Ca2 O5 4_555 2_466 154.6(6)
O3 Ca2 O5 4_555 3_446 91.8(5)
O3 Ca2 Ow1 4_555 . 85.3(5)
O4 Ca2 O5 3_446 2_466 88.1(5)
O4 Ca2 O5 3_446 3_446 65.3(5)
O4 Ca2 Ow1 3_446 . 147.1(5)
O5 Ca2 O5 2_466 3_446 109.6(5)
O5 Ca2 Ow1 2_466 . 83.9(5)
O5 Ca2 Ow1 3_446 . 147.1(5)
O1 Te1 O2 . . 95.9(5)
O1 Te1 O3 . . 103.2(6)
O2 Te1 O3 . . 97.3(5)
O4 Te2 O5 . . 95.5(5)
O4 Te2 O6 . . 94.7(6)
O5 Te2 O6 . . 102.5(5)
Ca1 O1 Ca2 . . 105.3(4)
Ca1 O1 Te1 . . 101.3(6)
Ca1 O1 O2 . . 61.0(4)
Ca1 O1 O3 . . 112.2(5)
Ca1 O1 O5 . 3_446 54.8(4)
Ca1 O1 Ow1 . 4_555 101.3(6)
Ca2 O1 Te1 . . 136.0(7)
Ca2 O1 O2 . . 136.4(6)
Ca2 O1 O3 . . 98.2(5)
Ca2 O1 O5 . 3_446 60.6(4)
Ca2 O1 Ow1 . 4_555 91.2(6)
Te1 O1 O2 . . 41.3(4)
Te1 O1 O3 . . 38.6(4)
Te1 O1 O5 . 3_446 156.1(7)
Te1 O1 Ow1 . 4_555 117.2(6)
O2 O1 O3 . . 58.4(5)
O2 O1 O5 . 3_446 115.2(6)
O2 O1 Ow1 . 4_555 130.8(7)
O3 O1 O5 . 3_446 143.8(6)
O3 O1 Ow1 . 4_555 141.0(5)
O5 O1 Ow1 3_446 4_555 72.6(5)
Ca1 O2 Ca1 . 4_564 118.0(5)
Ca1 O2 Ca2 . 1_565 97.8(5)
Ca1 O2 Te1 . . 94.6(6)
Ca1 O2 O1 . . 52.8(4)
Ca1 O2 O3 . . 110.4(6)
Ca1 O2 O3 . 4_565 75.4(4)
Ca1 O2 O4 . 3_456 49.2(4)
Ca1 O2 O5 . 2_476 120.5(5)
Ca1 O2 Ow1 . 1_565 141.1(6)
Ca1 O2 Ca2 4_564 1_565 103.8(6)
Ca1 O2 Te1 4_564 . 120.9(6)
Ca1 O2 O1 4_564 . 128.7(7)
Ca1 O2 O3 4_564 . 79.2(5)
Ca1 O2 O3 4_564 4_565 151.4(7)
Ca1 O2 O4 4_564 3_456 98.1(5)
Ca1 O2 O5 4_564 2_476 51.1(4)
Ca1 O2 Ow1 4_564 1_565 96.5(5)
Ca2 O2 Te1 1_565 . 119.8(6)
Ca2 O2 O1 1_565 . 126.6(6)
Ca2 O2 O3 1_565 . 146.3(6)
Ca2 O2 O3 1_565 4_565 47.7(4)
Ca2 O2 O4 1_565 3_456 58.1(4)
Ca2 O2 O5 1_565 2_476 52.7(4)
Ca2 O2 Ow1 1_565 1_565 54.1(4)
Te1 O2 O1 . . 42.8(4)
Te1 O2 O3 . . 42.3(4)
Te1 O2 O3 . 4_565 80.0(5)
Te1 O2 O4 . 3_456 137.7(7)
Te1 O2 O5 . 2_476 144.1(7)
Te1 O2 Ow1 . 1_565 81.0(5)
O1 O2 O3 . . 64.4(5)
O1 O2 O3 . 4_565 79.8(5)
O1 O2 O4 . 3_456 100.8(6)
O1 O2 O5 . 2_476 173.1(6)
O1 O2 Ow1 . 1_565 118.7(6)
O3 O2 O3 . 4_565 121.7(6)
O3 O2 O4 . 3_456 155.5(7)
O3 O2 O5 . 2_476 120.4(6)
O3 O2 Ow1 . 1_565 92.2(5)
O3 O2 O4 4_565 3_456 70.8(5)
O3 O2 O5 4_565 2_476 100.3(6)
O3 O2 Ow1 4_565 1_565 65.7(5)
O4 O2 O5 3_456 2_476 72.9(5)
O4 O2 Ow1 3_456 1_565 112.3(6)
O5 O2 Ow1 2_476 1_565 67.1(5)
Ca2 O3 Te1 4_554 . 149.4(7)
Ca2 O3 O1 4_554 . 114.8(6)
Ca2 O3 O2 4_554 . 120.2(6)
Ca2 O3 O2 4_554 4_564 54.4(5)
Te1 O3 O1 . . 38.2(4)
Te1 O3 O2 . . 40.4(4)
Te1 O3 O2 . 4_564 132.0(7)
O1 O3 O2 . . 57.1(5)
O1 O3 O2 . 4_564 141.7(6)
O2 O3 O2 . 4_564 94.4(5)
Ca1 O4 Ca2 3_546 3_556 98.9(4)
Ca1 O4 Te2 3_546 . 143.8(8)
Ca1 O4 O2 3_546 3_546 58.8(4)
Ca1 O4 O5 3_546 . 132.4(6)
Ca1 O4 O6 3_546 . 99.7(6)
Ca1 O4 Ow2 3_546 4_555 92.2(6)
Ca2 O4 Te2 3_556 . 98.3(5)
Ca2 O4 O2 3_556 3_546 49.7(4)
Ca2 O4 O5 3_556 . 57.1(4)
Ca2 O4 O6 3_556 . 115.7(5)
Ca2 O4 Ow2 3_556 4_555 95.5(6)
Te2 O4 O2 . 3_546 147.9(6)
Te2 O4 O5 . . 42.9(4)
Te2 O4 O6 . . 44.0(4)
Te2 O4 Ow2 . 4_555 117.5(6)
O2 O4 O5 3_546 . 106.3(5)
O2 O4 O6 3_546 . 144.1(6)
O2 O4 Ow2 3_546 4_555 70.2(5)
O5 O4 O6 . . 65.2(5)
O5 O4 Ow2 . 4_555 127.3(7)
O6 O4 Ow2 . 4_555 144.0(5)
Ca1 O5 Ca2 3_556 2_566 102.4(6)
Ca1 O5 Ca2 3_556 3_556 98.9(5)
Ca1 O5 Te2 3_556 . 115.9(6)
Ca1 O5 O1 3_556 3_556 55.2(4)
Ca1 O5 O2 3_556 2_576 52.3(4)
Ca1 O5 O4 3_556 . 128.3(6)
Ca1 O5 Ow2 3_556 1_565 53.5(4)
Ca2 O5 Ca2 2_566 3_556 119.7(5)
Ca2 O5 Te2 2_566 . 121.1(7)
Ca2 O5 O1 2_566 3_556 98.8(5)
Ca2 O5 O2 2_566 2_576 50.1(4)
Ca2 O5 O4 2_566 . 129.3(7)
Ca2 O5 Ow2 2_566 1_565 94.1(5)
Ca2 O5 Te2 3_556 . 97.5(6)
Ca2 O5 O1 3_556 3_556 52.6(4)
Ca2 O5 O2 3_556 2_576 120.7(6)
Ca2 O5 O4 3_556 . 57.6(4)
Ca2 O5 Ow2 3_556 1_565 141.8(6)
Te2 O5 O1 . 3_556 139.5(7)
Te2 O5 O2 . 2_576 140.4(7)
Te2 O5 O4 . . 41.6(4)
Te2 O5 Ow2 . 1_565 77.0(5)
O1 O5 O2 3_556 2_576 70.4(5)
O1 O5 O4 3_556 . 108.2(6)
O1 O5 Ow2 3_556 1_565 108.7(6)
O2 O5 O4 2_576 . 178.0(6)
O2 O5 Ow2 2_576 1_565 66.6(5)
O4 O5 Ow2 . 1_565 115.4(5)
Ca1 O6 Te2 2_566 . 142.9(6)
Ca1 O6 O4 2_566 . 114.3(5)
Ca1 O6 Ow1 2_566 4_554 110.1(6)
Te2 O6 O4 . . 41.2(4)
Te2 O6 Ow1 . 4_554 105.7(5)
O4 O6 Ow1 . 4_554 109.8(5)
Ca2 Ow1 O1 . 4_554 97.7(5)
Ca2 Ow1 O2 . 1_545 50.9(4)
Ca2 Ow1 O6 . 4_555 130.4(6)
O1 Ow1 O2 4_554 1_545 71.0(5)
O1 Ow1 O6 4_554 4_555 124.2(6)
O2 Ow1 O6 1_545 4_555 115.1(6)
Ca1 Ow2 O4 3_546 4_554 103.8(5)
Ca1 Ow2 O5 3_546 1_545 51.8(4)
O4 Ow2 O5 4_554 1_545 76.9(5)
loop_
_geom_bond_atom_site_label_1
_geom_bond_atom_site_label_2
_geom_bond_site_symmetry_2
_geom_bond_distance
Ca1 O1 . 2.400(12)
Ca1 O2 . 2.636(14)
Ca1 O2 4_565 2.427(13)
Ca1 O4 3_456 2.332(14)
Ca1 O5 3_446 2.388(16)
Ca1 O6 2_466 2.204(13)
Ca1 Ow2 3_456 2.443(13)
Ca2 O1 . 2.369(15)
Ca2 O2 1_545 2.349(15)
Ca2 O3 4_555 2.139(14)
Ca2 O4 3_446 2.614(12)
Ca2 O5 2_466 2.435(14)
Ca2 O5 3_446 2.599(15)
Ca2 Ow1 . 2.454(13)
Te1 O1 . 1.883(14)
Te1 O2 . 1.830(14)
Te1 O3 . 1.897(15)
Te2 O4 . 1.875(14)
Te2 O5 . 1.924(14)
Te2 O6 . 1.976(13)
O1 O2 . 2.76(2)
O1 O3 . 2.96(2)
O1 O5 3_446 2.745(19)
O1 Ow1 4_555 2.770(19)
O2 O3 . 2.797(19)
O2 O3 4_565 2.826(19)
O2 O4 3_456 2.930(18)
O2 O5 2_476 2.98(2)
O2 Ow1 1_565 2.923(19)
O4 O5 . 2.81(2)
O4 O6 . 2.83(2)
O4 Ow2 4_555 2.71(2)
O5 Ow2 1_565 2.930(19)
O6 Ow1 4_554 2.882(16)
loop_
_pd_proc_point_id
_pd_proc_2theta_corrected
_pd_proc_intensity_net
_pd_calc_intensity_net
_pd_proc_ls_weight
1 4.9860 1655.00 1617.46 40.68
2 4.9950 1667.00 1616.62 40.83
3 5.0040 1724.00 1615.77 41.52
4 5.0130 1742.00 1614.91 41.74
5 5.0220 1727.00 1614.03 41.56
6 5.0310 1611.00 1613.14 40.14
7 5.0400 1561.00 1612.23 39.51
8 5.0490 1665.00 1611.32 40.80
9 5.0580 1637.00 1610.39 40.46
10 5.0670 1633.00 1609.44 40.41
11 5.0760 1647.00 1608.49 40.58
12 5.0850 1659.00 1607.52 40.73
13 5.0940 1697.00 1606.54 41.19
14 5.1030 1684.00 1605.55 41.04
15 5.1120 1656.00 1604.55 40.69
16 5.1210 1730.00 1603.53 41.59
17 5.1300 1673.00 1602.50 40.90
18 5.1390 1642.00 1601.46 40.52
19 5.1480 1617.00 1600.42 40.21
20 5.1570 1645.00 1599.35 40.56
21 5.1660 1629.00 1598.28 40.36
22 5.1750 1631.00 1597.19 40.39
23 5.1840 1675.00 1596.10 40.93
24 5.1930 1640.00 1594.99 40.50
25 5.2020 1662.00 1593.88 40.77
26 5.2110 1662.00 1592.75 40.77
27 5.2200 1589.00 1591.61 39.86
28 5.2290 1598.00 1590.47 39.97
29 5.2380 1614.00 1589.31 40.17
30 5.2470 1605.00 1588.14 40.06
31 5.2560 1579.00 1586.96 39.74
32 5.2650 1605.00 1585.77 40.06
33 5.2740 1617.00 1584.57 40.21
34 5.2830 1640.00 1583.36 40.50
35 5.2920 1602.00 1582.15 40.03
36 5.3010 1579.00 1580.92 39.74
37 5.3100 1634.00 1579.69 40.42
38 5.3190 1586.00 1578.44 39.82
39 5.3280 1566.00 1577.19 39.57
40 5.3370 1610.00 1575.92 40.12
41 5.3460 1629.00 1574.65 40.36
42 5.3550 1674.00 1573.37 40.91
43 5.3640 1624.00 1572.08 40.30
44 5.3730 1556.00 1570.78 39.45
45 5.3820 1545.00 1569.47 39.31
46 5.3910 1576.00 1568.16 39.70
47 5.4000 1550.00 1566.83 39.37
48 5.4090 1560.00 1565.50 39.50
49 5.4180 1565.00 1564.16 39.56
50 5.4270 1577.00 1562.81 39.71
51 5.4360 1563.00 1561.45 39.53
52 5.4450 1588.00 1560.09 39.85
53 5.4540 1644.00 1558.72 40.55
54 5.4630 1558.00 1557.34 39.47
55 5.4720 1549.00 1555.95 39.36
56 5.4810 1558.00 1554.56 39.47
57 5.4900 1534.00 1553.15 39.17
58 5.4990 1488.00 1551.74 38.57
59 5.5080 1517.00 1550.32 38.95
60 5.5170 1537.00 1548.90 39.20
61 5.5260 1590.00 1547.47 39.87
62 5.5350 1590.00 1546.03 39.87
63 5.5440 1552.00 1544.59 39.40
64 5.5530 1498.00 1543.14 38.70
65 5.5620 1567.00 1541.68 39.59
66 5.5710 1567.00 1540.22 39.59
67 5.5800 1517.00 1538.75 38.95
68 5.5890 1511.00 1537.27 38.87
69 5.5980 1521.00 1535.78 39.00
70 5.6070 1553.00 1534.29 39.41
71 5.6160 1550.00 1532.80 39.37
72 5.6250 1518.00 1531.30 38.96
73 5.6340 1528.00 1529.79 39.09
74 5.6430 1531.00 1528.27 39.13
75 5.6520 1520.00 1526.76 38.99
76 5.6610 1511.00 1525.23 38.87
77 5.6700 1485.00 1523.69 38.54
78 5.6790 1511.00 1522.16 38.87
79 5.6880 1507.00 1520.62 38.82
80 5.6970 1473.00 1519.07 38.38
81 5.7060 1530.00 1517.52 39.12
82 5.7150 1498.00 1515.96 38.70
83 5.7240 1490.00 1514.39 38.60
84 5.7330 1492.00 1512.82 38.63
85 5.7420 1532.00 1511.25 39.14
86 5.7510 1503.00 1509.67 38.77
87 5.7600 1488.00 1508.08 38.57
88 5.7690 1480.00 1506.50 38.47
89 5.7780 1462.00 1504.90 38.24
90 5.7870 1481.00 1503.30 38.48
91 5.7960 1518.00 1501.70 38.96
92 5.8050 1486.00 1500.09 38.55
93 5.8140 1476.00 1498.48 38.42
94 5.8230 1477.00 1496.86 38.43
95 5.8320 1487.00 1495.24 38.56
96 5.8410 1506.00 1493.61 38.81
97 5.8500 1499.00 1491.98 38.72
98 5.8590 1487.00 1490.35 38.56
99 5.8680 1469.00 1488.71 38.33
100 5.8770 1475.00 1487.07 38.41
101 5.8860 1417.00 1485.42 37.64
102 5.8950 1487.00 1483.77 38.56
103 5.9040 1458.00 1482.12 38.18
104 5.9130 1512.00 1480.46 38.88
105 5.9220 1503.00 1478.80 38.77
106 5.9310 1510.00 1477.13 38.86
107 5.9400 1441.00 1475.46 37.96
108 5.9490 1472.00 1473.79 38.37
109 5.9580 1464.00 1472.11 38.26
110 5.9670 1471.00 1470.43 38.35
111 5.9760 1472.00 1468.75 38.37
112 5.9850 1466.00 1467.06 38.29
113 5.9940 1492.00 1465.37 38.63
114 6.0030 1496.00 1463.68 38.68
115 6.0120 1472.00 1461.98 38.37
116 6.0210 1437.00 1460.28 37.91
117 6.0300 1435.00 1458.58 37.88
118 6.0390 1416.00 1456.88 37.63
119 6.0480 1434.00 1455.17 37.87
120 6.0570 1457.00 1453.46 38.17
121 6.0660 1457.00 1451.74 38.17
122 6.0750 1472.00 1450.02 38.37
123 6.0840 1434.00 1448.30 37.87
124 6.0930 1412.00 1446.58 37.58
125 6.1020 1411.00 1444.86 37.56
126 6.1110 1412.00 1443.13 37.58
127 6.1200 1439.00 1441.40 37.93
128 6.1290 1399.00 1439.66 37.40
129 6.1380 1396.00 1437.93 37.36
130 6.1470 1416.00 1436.19 37.63
131 6.1560 1420.00 1434.45 37.68
132 6.1650 1442.00 1432.71 37.97
133 6.1740 1434.00 1430.96 37.87
134 6.1830 1433.00 1429.22 37.85
135 6.1920 1425.00 1427.47 37.75
136 6.2010 1419.00 1425.72 37.67
137 6.2100 1407.00 1423.96 37.51
138 6.2190 1402.00 1422.21 37.44
139 6.2280 1391.00 1420.45 37.30
140 6.2370 1410.00 1418.69 37.55
141 6.2460 1392.00 1416.93 37.31
142 6.2550 1369.00 1415.17 37.00
143 6.2640 1315.00 1413.40 36.26
144 6.2730 1423.00 1411.64 37.72
145 6.2820 1428.00 1409.87 37.79
146 6.2910 1362.00 1408.10 36.91
147 6.3000 1438.00 1406.33 37.92
148 6.3090 1456.00 1404.55 38.16
149 6.3180 1416.00 1402.78 37.63
150 6.3270 1343.00 1401.00 36.65
151 6.3360 1320.00 1399.22 36.33
152 6.3450 1350.00 1397.44 36.74
153 6.3540 1368.00 1395.66 36.99
154 6.3630 1435.00 1393.88 37.88
155 6.3720 1399.00 1392.10 37.40
156 6.3810 1340.00 1390.32 36.61
157 6.3900 1355.00 1388.53 36.81
158 6.3990 1354.00 1386.74 36.80
159 6.4080 1376.00 1384.95 37.09
160 6.4170 1386.00 1383.17 37.23
161 6.4260 1379.00 1381.38 37.13
162 6.4350 1376.00 1379.59 37.09
163 6.4440 1351.00 1377.79 36.76
164 6.4530 1350.00 1376.00 36.74
165 6.4620 1357.00 1374.21 36.84
166 6.4710 1372.00 1372.41 37.04
167 6.4800 1357.00 1370.61 36.84
168 6.4890 1325.00 1368.82 36.40
169 6.4980 1337.00 1367.02 36.56
170 6.5070 1327.00 1365.22 36.43
171 6.5160 1316.00 1363.43 36.28
172 6.5250 1318.00 1361.63 36.30
173 6.5340 1313.00 1359.83 36.24
174 6.5430 1354.00 1358.03 36.80
175 6.5520 1327.00 1356.22 36.43
176 6.5610 1313.00 1354.42 36.24
177 6.5700 1354.00 1352.62 36.80
178 6.5790 1321.00 1350.82 36.35
179 6.5880 1320.00 1349.02 36.33
180 6.5970 1352.00 1347.21 36.77
181 6.6060 1371.00 1345.41 37.03
182 6.6150 1389.00 1343.61 37.27
183 6.6240 1394.00 1341.80 37.34
184 6.6330 1319.00 1340.00 36.32
185 6.6420 1342.00 1338.19 36.63
186 6.6510 1334.00 1336.39 36.52
187 6.6600 1358.00 1334.58 36.85
188 6.6690 1299.00 1332.78 36.04
189 6.6780 1329.00 1330.97 36.46
190 6.6870 1302.00 1329.16 36.08
191 6.6960 1272.00 1327.36 35.67
192 6.7050 1309.00 1325.55 36.18
193 6.7140 1321.00 1323.75 36.35
194 6.7230 1316.00 1321.94 36.28
195 6.7320 1299.00 1320.13 36.04
196 6.7410 1290.00 1318.33 35.92
197 6.7500 1279.00 1316.52 35.76
198 6.7590 1300.00 1314.72 36.06
199 6.7680 1263.00 1312.91 35.54
200 6.7770 1261.00 1311.11 35.51
201 6.7860 1287.00 1309.30 35.87
202 6.7950 1276.00 1307.50 35.72
203 6.8040 1275.00 1305.69 35.71
204 6.8130 1303.00 1303.89 36.10
205 6.8220 1299.00 1302.09 36.04
206 6.8310 1292.00 1300.28 35.94
207 6.8400 1298.00 1298.48 36.03
208 6.8490 1276.00 1296.68 35.72
209 6.8580 1275.00 1294.88 35.71
210 6.8670 1291.00 1293.07 35.93
211 6.8760 1270.00 1291.27 35.64
212 6.8850 1295.00 1289.47 35.99
213 6.8940 1291.00 1287.67 35.93
214 6.9030 1289.00 1285.87 35.90
215 6.9120 1299.00 1284.07 36.04
216 6.9210 1278.00 1282.27 35.75
217 6.9300 1275.00 1280.48 35.71
218 6.9390 1265.00 1278.68 35.57
219 6.9480 1275.00 1276.88 35.71
220 6.9570 1289.00 1275.08 35.90
221 6.9660 1281.00 1273.29 35.79
222 6.9750 1204.00 1271.49 34.70
223 6.9840 1218.00 1269.70 34.90
224 6.9930 1282.00 1267.91 35.81
225 7.0020 1304.00 1266.11 36.11
226 7.0110 1286.00 1264.32 35.86
227 7.0200 1275.00 1262.53 35.71
228 7.0290 1246.00 1260.74 35.30
229 7.0380 1278.00 1258.95 35.75
230 7.0470 1273.00 1257.16 35.68
231 7.0560 1219.00 1255.38 34.91
232 7.0650 1247.00 1253.59 35.31
233 7.0740 1243.00 1251.81 35.26
234 7.0830 1210.00 1250.02 34.79
235 7.0920 1248.00 1248.24 35.33
236 7.1010 1224.00 1246.46 34.99
237 7.1100 1261.00 1244.68 35.51
238 7.1190 1190.00 1242.89 34.50
239 7.1280 1213.00 1241.11 34.83
240 7.1370 1185.00 1239.34 34.42
241 7.1460 1232.00 1237.56 35.10
242 7.1550 1232.00 1235.78 35.10
243 7.1640 1263.00 1234.01 35.54
244 7.1730 1237.00 1232.23 35.17
245 7.1820 1224.00 1230.46 34.99
246 7.1910 1211.00 1228.69 34.80
247 7.2000 1217.00 1226.92 34.89
248 7.2090 1205.00 1225.15 34.71
249 7.2180 1256.00 1223.38 35.44
250 7.2270 1245.00 1221.62 35.28
251 7.2360 1221.00 1219.85 34.94
252 7.2450 1256.00 1218.09 35.44
253 7.2540 1177.00 1216.33 34.31
254 7.2630 1183.00 1214.56 34.39
255 7.2720 1216.00 1212.80 34.87
256 7.2810 1210.00 1211.04 34.79
257 7.2900 1159.00 1209.29 34.04
258 7.2990 1145.00 1207.53 33.84
259 7.3080 1181.00 1205.78 34.37
260 7.3170 1193.00 1204.02 34.54
261 7.3260 1191.00 1202.27 34.51
262 7.3350 1206.00 1200.52 34.73
263 7.3440 1205.00 1198.77 34.71
264 7.3530 1227.00 1197.03 35.03
265 7.3620 1209.00 1195.28 34.77
266 7.3710 1148.00 1193.53 33.88
267 7.3800 1163.00 1191.79 34.10
268 7.3890 1153.00 1190.05 33.96
269 7.3980 1189.00 1188.31 34.48
270 7.4070 1161.00 1186.57 34.07
271 7.4160 1192.00 1184.84 34.53
272 7.4250 1188.00 1183.10 34.47
273 7.4340 1181.00 1181.37 34.37
274 7.4430 1208.00 1179.64 34.76
275 7.4520 1173.00 1177.90 34.25
276 7.4610 1168.00 1176.18 34.18
277 7.4700 1165.00 1174.45 34.13
278 7.4790 1128.00 1172.72 33.59
279 7.4880 1161.00 1171.00 34.07
280 7.4970 1167.00 1169.28 34.16
281 7.5060 1147.00 1167.56 33.87
282 7.5150 1178.00 1165.84 34.32
283 7.5240 1123.00 1164.12 33.51
284 7.5330 1111.00 1162.41 33.33
285 7.5420 1156.00 1160.69 34.00
286 7.5510 1134.00 1158.98 33.67
287 7.5600 1189.00 1157.27 34.48
288 7.5690 1158.00 1155.57 34.03
289 7.5780 1100.00 1153.86 33.17
290 7.5870 1129.00 1152.16 33.60
291 7.5960 1143.00 1150.45 33.81
292 7.6050 1135.00 1148.75 33.69
293 7.6140 1126.00 1147.05 33.56
294 7.6230 1152.00 1145.36 33.94
295 7.6320 1153.00 1143.66 33.96
296 7.6410 1147.00 1141.97 33.87
297 7.6500 1135.00 1140.28 33.69
298 7.6590 1132.00 1138.59 33.65
299 7.6680 1158.00 1136.90 34.03
300 7.6770 1109.00 1135.21 33.30
301 7.6860 1106.00 1133.53 33.26
302 7.6950 1095.00 1131.85 33.09
303 7.7040 1131.00 1130.17 33.63
304 7.7130 1124.00 1128.49 33.53
305 7.7220 1145.00 1126.81 33.84
306 7.7310 1110.00 1125.14 33.32
307 7.7400 1084.00 1123.47 32.92
308 7.7490 1081.00 1121.80 32.88
309 7.7580 1083.00 1120.13 32.91
310 7.7670 1101.00 1118.46 33.18
311 7.7760 1091.00 1116.79 33.03
312 7.7850 1090.00 1115.13 33.02
313 7.7940 1114.00 1113.47 33.38
314 7.8030 1119.00 1111.81 33.45
315 7.8120 1067.00 1110.16 32.67
316 7.8210 1081.00 1108.50 32.88
317 7.8300 1068.00 1106.85 32.68
318 7.8390 1058.00 1105.20 32.53
319 7.8480 1087.00 1103.55 32.97
320 7.8570 1084.00 1101.91 32.92
321 7.8660 1101.00 1100.26 33.18
322 7.8750 1091.00 1098.62 33.03
323 7.8840 1084.00 1096.98 32.92
324 7.8930 1075.00 1095.35 32.79
325 7.9020 1070.00 1093.71 32.71
326 7.9110 1027.00 1092.08 32.05
327 7.9200 1154.00 1090.45 33.97
328 7.9290 1060.00 1088.82 32.56
329 7.9380 1096.00 1087.19 33.11
330 7.9470 1128.00 1085.56 33.59
331 7.9560 1058.00 1083.94 32.53
332 7.9650 1079.00 1082.32 32.85
333 7.9740 1007.00 1080.70 31.73
334 7.9830 1047.00 1079.09 32.36
335 7.9920 1044.00 1077.47 32.31
336 8.0010 1065.00 1075.86 32.63
337 8.0100 1068.00 1074.25 32.68
338 8.0190 1099.00 1072.64 33.15
339 8.0280 1064.00 1071.04 32.62
340 8.0370 1105.00 1069.44 33.24
341 8.0460 1095.00 1067.84 33.09
342 8.0550 1084.00 1066.24 32.92
343 8.0640 1062.00 1064.64 32.59
344 8.0730 1097.00 1063.05 33.12
345 8.0820 1084.00 1061.46 32.92
346 8.0910 1040.00 1059.87 32.25
347 8.1000 1067.00 1058.28 32.67
348 8.1090 1029.00 1056.69 32.08
349 8.1180 1074.00 1055.11 32.77
350 8.1270 1060.00 1053.53 32.56
351 8.1360 1021.00 1051.95 31.95
352 8.1450 1016.00 1050.38 31.87
353 8.1540 1032.00 1048.80 32.12
354 8.1630 1038.00 1047.23 32.22
355 8.1720 1032.00 1045.66 32.12
356 8.1810 1015.00 1044.09 31.86
357 8.1900 1004.00 1042.53 31.69
358 8.1990 1028.00 1040.97 32.06
359 8.2080 1027.00 1039.41 32.05
360 8.2170 1009.00 1037.85 31.76
361 8.2260 1009.00 1036.30 31.76
362 8.2350 1008.00 1034.74 31.75
363 8.2440 1021.00 1033.19 31.95
364 8.2530 1023.00 1031.64 31.98
365 8.2620 1014.00 1030.10 31.84
366 8.2710 993.00 1028.55 31.51
367 8.2800 1028.00 1027.01 32.06
368 8.2890 1008.00 1025.47 31.75
369 8.2980 1012.00 1023.94 31.81
370 8.3070 1004.00 1022.40 31.69
371 8.3160 1001.00 1020.87 31.64
372 8.3250 1022.00 1019.34 31.97
373 8.3340 994.00 1017.82 31.53
374 8.3430 1039.00 1016.29 32.23
375 8.3520 1018.00 1014.77 31.91
376 8.3610 956.00 1013.25 30.92
377 8.3700 1049.00 1011.73 32.39
378 8.3790 955.00 1010.22 30.90
379 8.3880 993.00 1008.70 31.51
380 8.3970 956.00 1007.19 30.92
381 8.4060 1040.00 1005.68 32.25
382 8.4150 990.00 1004.18 31.46
383 8.4240 1004.00 1002.67 31.69
384 8.4330 990.00 1001.17 31.46
385 8.4420 1015.00 999.67 31.86
386 8.4510 993.00 998.18 31.51
387 8.4600 953.00 996.68 30.87
388 8.4690 1014.00 995.19 31.84
389 8.4780 982.00 993.71 31.34
390 8.4870 965.00 992.22 31.06
391 8.4960 913.00 990.73 30.22
392 8.5050 976.00 989.25 31.24
393 8.5140 985.00 987.77 31.38
394 8.5230 990.00 986.30 31.46
395 8.5320 1000.00 984.82 31.62
396 8.5410 1027.00 983.35 32.05
397 8.5500 990.00 981.88 31.46
398 8.5590 985.00 980.41 31.38
399 8.5680 1000.00 978.95 31.62
400 8.5770 1000.00 977.49 31.62
401 8.5860 977.00 976.03 31.26
402 8.5950 968.00 974.57 31.11
403 8.6040 967.00 973.11 31.10
404 8.6130 986.00 971.66 31.40
405 8.6220 993.00 970.21 31.51
406 8.6310 970.00 968.76 31.14
407 8.6400 964.00 967.32 31.05
408 8.6490 941.00 965.88 30.68
409 8.6580 937.00 964.43 30.61
410 8.6670 936.00 963.00 30.59
411 8.6760 950.00 961.56 30.82
412 8.6850 1011.00 960.13 31.80
413 8.6940 996.00 958.70 31.56
414 8.7030 942.00 957.27 30.69
415 8.7120 949.00 955.85 30.81
416 8.7210 954.00 954.42 30.89
417 8.7300 945.00 953.00 30.74
418 8.7390 933.00 951.58 30.55
419 8.7480 953.00 950.17 30.87
420 8.7570 971.00 948.75 31.16
421 8.7660 964.00 947.34 31.05
422 8.7750 933.00 945.93 30.55
423 8.7840 930.00 944.53 30.50
424 8.7930 902.00 943.13 30.03
425 8.8020 916.00 941.72 30.27
426 8.8110 908.00 940.33 30.13
427 8.8200 975.00 938.93 31.23
428 8.8290 871.00 937.54 29.51
429 8.8380 964.00 936.14 31.05
430 8.8470 859.00 934.76 29.31
431 8.8560 905.00 933.37 30.08
432 8.8650 900.00 931.99 30.00
433 8.8740 870.00 930.60 29.50
434 8.8830 893.00 929.23 29.88
435 8.8920 910.00 927.85 30.17
436 8.9010 895.00 926.47 29.92
437 8.9100 883.00 925.10 29.72
438 8.9190 860.00 923.73 29.33
439 8.9280 873.00 922.37 29.55
440 8.9370 866.00 921.00 29.43
441 8.9460 921.00 919.64 30.35
442 8.9550 916.00 918.28 30.27
443 8.9640 954.00 916.93 30.89
444 8.9730 958.00 915.57 30.95
445 8.9820 906.00 914.22 30.10
446 8.9910 878.00 912.87 29.63
447 9.0000 878.00 911.52 29.63
448 9.0090 897.00 910.18 29.95
449 9.0180 895.00 908.84 29.92
450 9.0270 906.00 907.50 30.10
451 9.0360 907.00 906.16 30.12
452 9.0450 903.00 904.83 30.05
453 9.0540 931.00 903.50 30.51
454 9.0630 922.00 902.17 30.36
455 9.0720 881.00 900.84 29.68
456 9.0810 872.00 899.51 29.53
457 9.0900 893.00 898.19 29.88
458 9.0990 874.00 896.87 29.56
459 9.1080 881.00 895.55 29.68
460 9.1170 889.00 894.24 29.82
461 9.1260 896.00 892.93 29.93
462 9.1350 907.00 891.62 30.12
463 9.1440 893.00 890.31 29.88
464 9.1530 906.00 889.01 30.10
465 9.1620 875.00 887.70 29.58
466 9.1710 916.00 886.40 30.27
467 9.1800 906.00 885.10 30.10
468 9.1890 879.00 883.81 29.65
469 9.1980 863.00 882.52 29.38
470 9.2070 896.00 881.23 29.93
471 9.2160 880.00 879.94 29.66
472 9.2250 835.00 878.65 28.90
473 9.2340 876.00 877.37 29.60
474 9.2430 877.00 876.09 29.61
475 9.2520 897.00 874.81 29.95
476 9.2610 869.00 873.54 29.48
477 9.2700 862.00 872.26 29.36
478 9.2790 879.00 870.99 29.65
479 9.2880 829.00 869.72 28.79
480 9.2970 864.00 868.46 29.39
481 9.3060 885.00 867.19 29.75
482 9.3150 862.00 865.93 29.36
483 9.3240 874.00 864.67 29.56
484 9.3330 853.00 863.42 29.21
485 9.3420 838.00 862.16 28.95
486 9.3510 854.00 860.91 29.22
487 9.3600 832.00 859.66 28.84
488 9.3690 840.00 858.42 28.98
489 9.3780 837.00 857.17 28.93
490 9.3870 864.00 855.93 29.39
491 9.3960 880.00 854.69 29.66
492 9.4050 847.00 853.46 29.10
493 9.4140 810.00 852.22 28.46
494 9.4230 814.00 850.99 28.53
495 9.4320 858.00 849.76 29.29
496 9.4410 862.00 848.53 29.36
497 9.4500 840.00 847.31 28.98
498 9.4590 831.00 846.09 28.83
499 9.4680 856.00 844.87 29.26
500 9.4770 870.00 843.65 29.50
501 9.4860 843.00 842.43 29.03
502 9.4950 843.00 841.22 29.03
503 9.5040 837.00 840.01 28.93
504 9.5130 813.00 838.80 28.51
505 9.5220 811.00 837.60 28.48
506 9.5310 821.00 836.40 28.65
507 9.5400 844.00 835.20 29.05
508 9.5490 854.00 833.99 29.22
509 9.5580 814.00 832.80 28.53
510 9.5670 844.00 831.61 29.05
511 9.5760 858.00 830.41 29.29
512 9.5850 847.00 829.23 29.10
513 9.5940 796.00 828.04 28.21
514 9.6030 799.00 826.86 28.27
515 9.6120 834.00 825.67 28.88
516 9.6210 809.00 824.49 28.44
517 9.6300 796.00 823.32 28.21
518 9.6390 806.00 822.14 28.39
519 9.6480 843.00 820.97 29.03
520 9.6570 795.00 819.80 28.20
521 9.6660 884.00 818.64 29.73
522 9.6750 864.00 817.47 29.39
523 9.6840 820.00 816.31 28.64
524 9.6930 825.00 815.15 28.72
525 9.7020 793.00 813.99 28.16
526 9.7110 778.00 812.83 27.89
527 9.7200 837.00 811.68 28.93
528 9.7290 824.00 810.53 28.71
529 9.7380 805.00 809.38 28.37
530 9.7470 822.00 808.23 28.67
531 9.7560 864.00 807.09 29.39
532 9.7650 816.00 805.95 28.57
533 9.7740 792.00 804.81 28.14
534 9.7830 785.00 803.67 28.02
535 9.7920 807.00 802.54 28.41
536 9.8010 823.00 801.40 28.69
537 9.8100 805.00 800.27 28.37
538 9.8190 783.00 799.15 27.98
539 9.8280 827.00 798.02 28.76
540 9.8370 817.00 796.90 28.58
541 9.8460 763.00 795.78 27.62
542 9.8550 739.00 794.66 27.18
543 9.8640 772.00 793.54 27.78
544 9.8730 803.00 792.43 28.34
545 9.8820 797.00 791.32 28.23
546 9.8910 807.00 790.21 28.41
547 9.9000 811.00 789.10 28.48
548 9.9090 810.00 788.00 28.46
549 9.9180 826.00 786.89 28.74
550 9.9270 816.00 785.79 28.57
551 9.9360 788.00 784.70 28.07
552 9.9450 778.00 783.60 27.89
553 9.9540 814.00 782.51 28.53
554 9.9630 815.00 781.42 28.55
555 9.9720 792.00 780.33 28.14
556 9.9810 759.00 779.24 27.55
557 9.9900 747.00 778.16 27.33
558 9.9990 765.00 777.08 27.66
559 10.0080 758.00 776.00 27.53
560 10.0170 784.00 774.92 28.00
561 10.0260 760.00 773.84 27.57
562 10.0350 798.00 772.77 28.25
563 10.0440 803.00 771.70 28.34
564 10.0530 749.00 770.63 27.37
565 10.0620 782.00 769.57 27.96
566 10.0710 793.00 768.50 28.16
567 10.0800 773.00 767.44 27.80
568 10.0890 768.00 766.38 27.71
569 10.0980 806.00 765.32 28.39
570 10.1070 778.00 764.27 27.89
571 10.1160 777.00 763.22 27.87
572 10.1250 741.00 762.16 27.22
573 10.1340 774.00 761.12 27.82
574 10.1430 767.00 760.07 27.69
575 10.1520 765.00 759.03 27.66
576 10.1610 789.00 757.98 28.09
577 10.1700 773.00 756.95 27.80
578 10.1790 745.00 755.91 27.29
579 10.1880 741.00 754.87 27.22
580 10.1970 736.00 753.84 27.13
581 10.2060 733.00 752.81 27.07
582 10.2150 704.00 751.78 26.53
583 10.2240 718.00 750.76 26.80
584 10.2330 740.00 749.73 27.20
585 10.2420 749.00 748.71 27.37
586 10.2510 729.00 747.69 27.00
587 10.2600 743.00 746.67 27.26
588 10.2690 752.00 745.66 27.42
589 10.2780 759.00 744.64 27.55
590 10.2870 754.00 743.63 27.46
591 10.2960 764.00 742.62 27.64
592 10.3050 760.00 741.62 27.57
593 10.3140 722.00 740.61 26.87
594 10.3230 716.00 739.61 26.76
595 10.3320 739.00 738.61 27.18
596 10.3410 756.00 737.61 27.50
597 10.3500 759.00 736.61 27.55
598 10.3590 739.00 735.62 27.18
599 10.3680 730.00 734.63 27.02
600 10.3770 749.00 733.64 27.37
601 10.3860 732.00 732.65 27.06
602 10.3950 756.00 731.67 27.50
603 10.4040 755.00 730.68 27.48
604 10.4130 753.00 729.70 27.44
605 10.4220 753.00 728.72 27.44
606 10.4310 736.00 727.75 27.13
607 10.4400 749.00 726.77 27.37
608 10.4490 729.00 725.80 27.00
609 10.4580 719.00 724.83 26.81
610 10.4670 730.00 723.86 27.02
611 10.4760 742.00 722.90 27.24
612 10.4850 761.00 721.93 27.59
613 10.4940 747.00 720.97 27.33
614 10.5030 708.00 720.01 26.61
615 10.5120 733.00 719.05 27.07
616 10.5210 753.00 718.09 27.44
617 10.5300 718.00 717.14 26.80
618 10.5390 732.00 716.19 27.06
619 10.5480 741.00 715.24 27.22
620 10.5570 729.00 714.29 27.00
621 10.5660 722.00 713.35 26.87
622 10.5750 691.00 712.40 26.29
623 10.5840 714.00 711.46 26.72
624 10.5930 733.00 710.52 27.07
625 10.6020 717.00 709.58 26.78
626 10.6110 718.00 708.65 26.80
627 10.6200 722.00 707.72 26.87
628 10.6290 704.00 706.78 26.53
629 10.6380 723.00 705.85 26.89
630 10.6470 689.00 704.93 26.25
631 10.6560 696.00 704.00 26.38
632 10.6650 710.00 703.08 26.65
633 10.6740 684.00 702.16 26.15
634 10.6830 695.00 701.24 26.36
635 10.6920 715.00 700.32 26.74
636 10.7010 720.00 699.41 26.83
637 10.7100 732.00 698.49 27.06
638 10.7190 718.00 697.58 26.80
639 10.7280 716.00 696.67 26.76
640 10.7370 729.00 695.77 27.00
641 10.7460 679.00 694.86 26.06
642 10.7550 665.00 693.96 25.79
643 10.7640 712.00 693.06 26.68
644 10.7730 709.00 692.16 26.63
645 10.7820 723.00 691.26 26.89
646 10.7910 714.00 690.37 26.72
647 10.8000 686.00 689.47 26.19
648 10.8090 713.00 688.58 26.70
649 10.8180 705.00 687.69 26.55
650 10.8270 695.00 686.80 26.36
651 10.8360 707.00 685.92 26.59
652 10.8450 722.00 685.04 26.87
653 10.8540 663.00 684.15 25.75
654 10.8630 635.00 683.27 25.20
655 10.8720 695.00 682.40 26.36
656 10.8810 721.00 681.52 26.85
657 10.8900 672.00 680.65 25.92
658 10.8990 627.00 679.78 25.04
659 10.9080 682.00 678.91 26.12
660 10.9170 730.00 678.04 27.02
661 10.9260 682.00 677.17 26.12
662 10.9350 661.00 676.31 25.71
663 10.9440 685.00 675.45 26.17
664 10.9530 685.00 674.59 26.17
665 10.9620 706.00 673.73 26.57
666 10.9710 709.00 672.87 26.63
667 10.9800 629.00 672.02 25.08
668 10.9890 709.00 671.16 26.63
669 10.9980 688.00 670.31 26.23
670 11.0070 699.00 669.46 26.44
671 11.0160 691.00 668.62 26.29
672 11.0250 694.00 667.77 26.34
673 11.0340 660.00 666.93 25.69
674 11.0430 661.00 666.09 25.71
675 11.0520 687.00 665.25 26.21
676 11.0610 685.00 664.41 26.17
677 11.0700 685.00 663.57 26.17
678 11.0790 649.00 662.74 25.48
679 11.0880 646.00 661.91 25.42
680 11.0970 693.00 661.08 26.32
681 11.1060 685.00 660.25 26.17
682 11.1150 685.00 659.42 26.17
683 11.1240 695.00 658.60 26.36
684 11.1330 664.00 657.77 25.77
685 11.1420 683.00 656.95 26.13
686 11.1510 676.00 656.13 26.00
687 11.1600 677.00 655.32 26.02
688 11.1690 696.00 654.50 26.38
689 11.1780 672.00 653.69 25.92
690 11.1870 666.00 652.88 25.81
691 11.1960 652.00 652.06 25.53
692 11.2050 650.00 651.26 25.50
693 11.2140 670.00 650.45 25.88
694 11.2230 657.00 649.65 25.63
695 11.2320 637.00 648.84 25.24
696 11.2410 671.00 648.04 25.90
697 11.2500 678.00 647.24 26.04
698 11.2590 637.00 646.44 25.24
699 11.2680 632.00 645.65 25.14
700 11.2770 652.00 644.85 25.53
701 11.2860 681.00 644.06 26.10
702 11.2950 644.00 643.27 25.38
703 11.3040 647.00 642.48 25.44
704 11.3130 680.00 641.70 26.08
705 11.3220 622.00 640.91 24.94
706 11.3310 669.00 640.12 25.86
707 11.3400 681.00 639.34 26.10
708 11.3490 665.00 638.56 25.79
709 11.3580 693.00 637.79 26.32
710 11.3670 661.00 637.01 25.71
711 11.3760 642.00 636.23 25.34
712 11.3850 654.00 635.46 25.57
713 11.3940 673.00 634.69 25.94
714 11.4030 661.00 633.92 25.71
715 11.4120 608.00 633.15 24.66
716 11.4210 611.00 632.39 24.72
717 11.4300 650.00 631.62 25.50
718 11.4390 609.00 630.86 24.68
719 11.4480 641.00 630.10 25.32
720 11.4570 676.00 629.34 26.00
721 11.4660 638.00 628.58 25.26
722 11.4750 650.00 627.83 25.50
723 11.4840 658.00 627.07 25.65
724 11.4930 658.00 626.32 25.65
725 11.5020 638.00 626.88 25.26
726 11.5110 630.00 626.19 25.10
727 11.5200 643.00 625.50 25.36
728 11.5290 617.00 624.82 24.84
729 11.5380 618.00 624.15 24.86
730 11.5470 631.00 623.47 25.12
731 11.5560 651.00 622.81 25.51
732 11.5650 642.00 622.16 25.34
733 11.5740 655.00 621.51 25.59
734 11.5830 666.00 620.87 25.81
735 11.5920 633.00 620.24 25.16
736 11.6010 625.00 619.62 25.00
737 11.6100 645.00 619.01 25.40
738 11.6190 653.00 618.42 25.55
739 11.6280 648.00 617.83 25.46
740 11.6370 647.00 617.26 25.44
741 11.6460 667.00 616.71 25.83
742 11.6550 662.00 616.17 25.73
743 11.6640 601.00 615.66 24.52
744 11.6730 627.00 615.16 25.04
745 11.6820 635.00 614.70 25.20
746 11.6910 635.00 614.26 25.20
747 11.7000 652.00 613.85 25.53
748 11.7090 649.00 613.49 25.48
749 11.7180 630.00 613.16 25.10
750 11.7270 651.00 612.89 25.51
751 11.7360 644.00 612.68 25.38
752 11.7450 634.00 612.54 25.18
753 11.7540 596.00 612.48 24.41
754 11.7630 607.00 612.52 24.64
755 11.7720 595.00 612.69 24.39
756 11.7810 620.00 613.01 24.90
757 11.7900 608.00 613.53 24.66
758 11.7990 639.00 614.28 25.28
759 11.8080 642.00 615.34 25.34
760 11.8170 664.00 616.80 25.77
761 11.8260 613.00 618.82 24.76
762 11.8350 639.00 621.62 25.28
763 11.8440 646.00 625.78 25.42
764 11.8530 659.00 633.29 25.67
765 11.8620 682.00 650.44 26.12
766 11.8710 740.00 691.89 27.20
767 11.8800 788.00 780.23 28.07
768 11.8890 888.00 936.52 29.80
769 11.8980 1050.00 1172.32 32.40
770 11.9070 1282.00 1500.25 35.81
771 11.9160 1679.00 1958.94 40.98
772 11.9250 2339.00 2641.48 48.36
773 11.9340 3458.00 3674.22 58.80
774 11.9430 4876.00 4994.33 69.83
775 11.9520 5958.00 5989.37 77.19
776 11.9610 5946.00 5714.28 77.11
777 11.9700 4848.00 4100.70 69.63
778 11.9790 3234.00 2325.27 56.87
779 11.9880 1876.00 1243.12 43.31
780 11.9970 1173.00 814.72 34.25
781 12.0060 857.00 689.56 29.27
782 12.0150 706.00 652.43 26.57
783 12.0240 688.00 635.39 26.23
784 12.0330 677.00 624.26 26.02
785 12.0420 649.00 616.12 25.48
786 12.0510 628.00 609.91 25.06
787 12.0600 606.00 605.00 24.62
788 12.0690 623.00 601.03 24.96
789 12.0780 642.00 597.73 25.34
790 12.0870 617.00 594.95 24.84
791 12.0960 614.00 592.54 24.78
792 12.1050 620.00 590.44 24.90
793 12.1140 570.00 588.57 23.87
794 12.1230 567.00 586.89 23.81
795 12.1320 607.00 585.36 24.64
796 12.1410 596.00 583.95 24.41
797 12.1500 596.00 582.65 24.41
798 12.1590 634.00 581.43 25.18
799 12.1680 619.00 580.28 24.88
800 12.1770 577.00 579.19 24.02
801 12.1860 604.00 578.16 24.58
802 12.1950 613.00 577.17 24.76
803 12.2040 568.00 576.22 23.83
804 12.2130 541.00 575.30 23.26
805 12.2220 543.00 574.41 23.30
806 12.2310 588.00 573.55 24.25
807 12.2400 616.00 572.71 24.82
808 12.2490 586.00 571.89 24.21
809 12.2580 578.00 571.09 24.04
810 12.2670 567.00 570.30 23.81
811 12.2760 563.00 569.53 23.73
812 12.2850 576.00 568.78 24.00
813 12.2940 544.00 568.03 23.32
814 12.3030 552.00 567.30 23.49
815 12.3120 545.00 566.58 23.35
816 12.3210 563.00 565.86 23.73
817 12.3300 566.00 565.15 23.79
818 12.3390 554.00 564.46 23.54
819 12.3480 561.00 563.76 23.69
820 12.3570 602.00 563.08 24.54
821 12.3660 588.00 562.40 24.25
822 12.3750 582.00 561.73 24.12
823 12.3840 575.00 561.06 23.98
824 12.3930 563.00 560.40 23.73
825 12.4020 586.00 559.74 24.21
826 12.4110 577.00 559.09 24.02
827 12.4200 583.00 558.44 24.15
828 12.4290 577.00 556.55 24.02
829 12.4380 591.00 555.95 24.31
830 12.4470 609.00 555.36 24.68
831 12.4560 583.00 554.77 24.15
832 12.4650 560.00 554.17 23.66
833 12.4740 562.00 553.58 23.71
834 12.4830 596.00 552.99 24.41
835 12.4920 600.00 552.41 24.49
836 12.5010 587.00 551.82 24.23
837 12.5100 553.00 551.23 23.52
838 12.5190 558.00 550.65 23.62
839 12.5280 556.00 550.07 23.58
840 12.5370 584.00 549.49 24.17
841 12.5460 593.00 548.91 24.35
842 12.5550 576.00 548.33 24.00
843 12.5640 575.00 547.75 23.98
844 12.5730 563.00 547.17 23.73
845 12.5820 568.00 546.60 23.83
846 12.5910 584.00 546.02 24.17
847 12.6000 591.00 545.45 24.31
848 12.6090 561.00 544.88 23.69
849 12.6180 577.00 544.31 24.02
850 12.6270 519.00 543.74 22.78
851 12.6360 572.00 543.17 23.92
852 12.6450 566.00 542.60 23.79
853 12.6540 561.00 542.04 23.69
854 12.6630 551.00 541.48 23.47
855 12.6720 543.00 540.91 23.30
856 12.6810 562.00 540.35 23.71
857 12.6900 548.00 539.79 23.41
858 12.6990 555.00 539.23 23.56
859 12.7080 552.00 538.67 23.49
860 12.7170 548.00 538.12 23.41
861 12.7260 565.00 537.56 23.77
862 12.7350 563.00 537.01 23.73
863 12.7440 571.00 536.46 23.90
864 12.7530 542.00 535.90 23.28
865 12.7620 542.00 535.35 23.28
866 12.7710 585.00 534.80 24.19
867 12.7800 578.00 534.25 24.04
868 12.7890 559.00 533.71 23.64
869 12.7980 563.00 533.16 23.73
870 12.8070 552.00 532.62 23.49
871 12.8160 553.00 532.07 23.52
872 12.8250 541.00 531.53 23.26
873 12.8340 549.00 530.99 23.43
874 12.8430 548.00 530.45 23.41
875 12.8520 541.00 529.91 23.26
876 12.8610 553.00 529.37 23.52
877 12.8700 545.00 528.83 23.35
878 12.8790 529.00 528.30 23.00
879 12.8880 538.00 527.76 23.19
880 12.8970 554.00 527.23 23.54
881 12.9060 559.00 526.70 23.64
882 12.9150 544.00 526.17 23.32
883 12.9240 522.00 525.64 22.85
884 12.9330 543.00 525.11 23.30
885 12.9420 555.00 524.58 23.56
886 12.9510 568.00 524.05 23.83
887 12.9600 567.00 523.53 23.81
888 12.9690 563.00 523.01 23.73
889 12.9780 496.00 522.48 22.27
890 12.9870 504.00 521.96 22.45
891 12.9960 540.00 521.44 23.24
892 13.0050 533.00 520.92 23.09
893 13.0140 558.00 520.40 23.62
894 13.0230 559.00 519.88 23.64
895 13.0320 527.00 519.37 22.96
896 13.0410 575.00 518.85 23.98
897 13.0500 544.00 518.34 23.32
898 13.0590 523.00 517.82 22.87
899 13.0680 505.00 517.31 22.47
900 13.0770 519.00 516.80 22.78
901 13.0860 525.00 516.29 22.91
902 13.0950 516.00 515.78 22.72
903 13.1040 536.00 515.27 23.15
904 13.1130 560.00 514.77 23.66
905 13.1220 549.00 514.26 23.43
906 13.1310 526.00 513.76 22.93
907 13.1400 549.00 513.25 23.43
908 13.1490 569.00 512.75 23.85
909 13.1580 539.00 512.25 23.22
910 13.1670 527.00 511.75 22.96
911 13.1760 540.00 511.25 23.24
912 13.1850 519.00 510.75 22.78
913 13.1940 537.00 510.25 23.17
914 13.2030 522.00 509.76 22.85
915 13.2120 508.00 509.26 22.54
916 13.2210 526.00 508.77 22.93
917 13.2300 538.00 508.27 23.19
918 13.2390 550.00 507.78 23.45
919 13.2480 546.00 507.29 23.37
920 13.2570 501.00 506.80 22.38
921 13.2660 488.00 506.31 22.09
922 13.2750 505.00 505.82 22.47
923 13.2840 511.00 505.34 22.61
924 13.2930 500.00 504.85 22.36
925 13.3020 491.00 504.37 22.16
926 13.3110 524.00 503.88 22.89
927 13.3200 519.00 503.40 22.78
928 13.3290 495.00 502.92 22.25
929 13.3380 537.00 502.44 23.17
930 13.3470 532.00 501.96 23.07
931 13.3560 532.00 501.48 23.07
932 13.3650 530.00 501.00 23.02
933 13.3740 502.00 500.52 22.41
934 13.3830 504.00 500.05 22.45
935 13.3920 497.00 499.57 22.29
936 13.4010 496.00 499.10 22.27
937 13.4100 511.00 498.62 22.61
938 13.4190 500.00 498.15 22.36
939 13.4280 521.00 497.68 22.83
940 13.4370 521.00 497.21 22.83
941 13.4460 500.00 496.74 22.36
942 13.4550 509.00 496.27 22.56
943 13.4640 542.00 495.80 23.28
944 13.4730 496.00 495.34 22.27
945 13.4820 494.00 494.87 22.23
946 13.4910 452.00 494.41 21.26
947 13.5000 521.00 493.95 22.83
948 13.5090 506.00 493.48 22.49
949 13.5180 493.00 493.02 22.20
950 13.5270 500.00 492.56 22.36
951 13.5360 525.00 492.10 22.91
952 13.5450 503.00 491.64 22.43
953 13.5540 474.00 491.18 21.77
954 13.5630 493.00 490.73 22.20
955 13.5720 526.00 490.27 22.93
956 13.5810 468.00 489.81 21.63
957 13.5900 486.00 489.36 22.05
958 13.5990 500.00 488.91 22.36
959 13.6080 507.00 488.45 22.52
960 13.6170 504.00 488.00 22.45
961 13.6260 526.00 487.55 22.93
962 13.6350 544.00 487.10 23.32
963 13.6440 503.00 486.65 22.43
964 13.6530 498.00 486.20 22.32
965 13.6610 504.00 485.76 22.45
966 13.6700 491.00 485.31 22.16
967 13.6790 507.00 484.86 22.52
968 13.6880 491.00 484.42 22.16
969 13.6970 464.00 483.98 21.54
970 13.7060 477.00 483.54 21.84
971 13.7150 512.00 483.09 22.63
972 13.7240 527.00 482.65 22.96
973 13.7330 505.00 482.21 22.47
974 13.7420 493.00 481.77 22.20
975 13.7510 491.00 481.33 22.16
976 13.7600 500.00 480.90 22.36
977 13.7690 514.00 480.46 22.67
978 13.7780 494.00 480.02 22.23
979 13.7870 512.00 479.59 22.63
980 13.7960 498.00 479.15 22.32
981 13.8050 495.00 478.72 22.25
982 13.8140 504.00 478.29 22.45
983 13.8230 501.00 477.86 22.38
984 13.8320 509.00 477.43 22.56
985 13.8410 508.00 482.91 22.54
986 13.8500 502.00 482.70 22.41
987 13.8590 499.00 482.52 22.34
988 13.8680 485.00 482.35 22.02
989 13.8770 484.00 482.19 22.00
990 13.8860 495.00 482.05 22.25
991 13.8950 493.00 481.93 22.20
992 13.9040 441.00 481.84 21.00
993 13.9130 488.00 481.76 22.09
994 13.9220 486.00 481.71 22.05
995 13.9310 474.00 481.69 21.77
996 13.9400 473.00 481.69 21.75
997 13.9490 511.00 481.73 22.61
998 13.9580 474.00 481.80 21.77
999 13.9670 519.00 481.91 22.78
1000 13.9760 542.00 482.06 23.28
1001 13.9850 523.00 482.26 22.87
1002 13.9940 488.00 482.50 22.09
1003 14.0030 485.00 482.81 22.02
1004 14.0120 446.00 483.18 21.12
1005 14.0210 504.00 483.62 22.45
1006 14.0300 486.00 484.14 22.05
1007 14.0390 487.00 484.76 22.07
1008 14.0480 477.00 485.47 21.84
1009 14.0570 494.00 486.30 22.23
1010 14.0660 479.00 487.26 21.89
1011 14.0750 453.00 488.38 21.28
1012 14.0840 481.00 489.67 21.93
1013 14.0930 507.00 491.16 22.52
1014 14.1020 529.00 492.88 23.00
1015 14.1110 524.00 494.89 22.89
1016 14.1200 509.00 497.21 22.56
1017 14.1290 480.00 499.93 21.91
1018 14.1380 465.00 503.10 21.56
1019 14.1470 491.00 506.84 22.16
1020 14.1560 500.00 511.25 22.36
1021 14.1650 485.00 516.51 22.02
1022 14.1740 483.00 522.82 21.98
1023 14.1830 496.00 530.47 22.27
1024 14.1920 509.00 539.82 22.56
1025 14.2010 520.00 551.42 22.80
1026 14.2100 547.00 566.02 23.39
1027 14.2190 559.00 584.82 23.64
1028 14.2280 598.00 610.09 24.45
1029 14.2370 654.00 647.82 25.57
1030 14.2460 751.00 715.46 27.40
1031 14.2550 976.00 856.92 31.24
1032 14.2640 1215.00 1156.14 34.86
1033 14.2730 1750.00 1730.49 41.83
1034 14.2820 2625.00 2705.19 51.23
1035 14.2910 4109.00 4227.82 64.10
1036 14.3000 6552.00 6545.82 80.94
1037 14.3090 10320.00 9936.91 101.59
1038 14.3180 14712.00 14152.00 121.29
1039 14.3270 18036.00 17604.70 134.30
1040 14.3360 17377.00 17725.00 131.82
1041 14.3450 12694.00 13635.20 112.67
1042 14.3540 6871.00 8088.26 82.89
1043 14.3630 3261.00 3966.89 57.11
1044 14.3720 1668.00 1888.54 40.84
1045 14.3810 1055.00 1104.92 32.48
1046 14.3900 756.00 842.32 27.50
1047 14.3990 637.00 735.22 25.24
1048 14.4080 579.00 673.49 24.06
1049 14.4170 551.00 630.67 23.47
1050 14.4260 544.00 599.00 23.32
1051 14.4350 498.00 574.85 22.32
1052 14.4440 497.00 555.98 22.29
1053 14.4530 507.00 540.94 22.52
1054 14.4620 523.00 528.75 22.87
1055 14.4710 484.00 518.71 22.00
1056 14.4800 489.00 510.33 22.11
1057 14.4890 503.00 503.26 22.43
1058 14.4980 451.00 497.22 21.24
1059 14.5070 449.00 492.01 21.19
1060 14.5160 465.00 487.48 21.56
1061 14.5250 456.00 483.50 21.35
1062 14.5340 487.00 479.99 22.07
1063 14.5430 492.00 476.86 22.18
1064 14.5520 466.00 474.06 21.59
1065 14.5610 456.00 471.53 21.35
1066 14.5700 445.00 469.24 21.09
1067 14.5790 446.00 467.16 21.12
1068 14.5880 456.00 465.24 21.35
1069 14.5970 458.00 463.49 21.40
1070 14.6060 448.00 461.86 21.17
1071 14.6150 441.00 460.35 21.00
1072 14.6240 474.00 458.95 21.77
1073 14.6330 471.00 457.63 21.70
1074 14.6420 444.00 456.40 21.07
1075 14.6510 460.00 455.24 21.45
1076 14.6600 463.00 454.14 21.52
1077 14.6690 470.00 453.10 21.68
1078 14.6780 454.00 452.11 21.31
1079 14.6870 433.00 451.17 20.81
1080 14.6960 456.00 450.27 21.35
1081 14.7050 470.00 449.41 21.68
1082 14.7140 441.00 448.59 21.00
1083 14.7230 467.00 447.80 21.61
1084 14.7320 467.00 447.03 21.61
1085 14.7410 446.00 446.29 21.12
1086 14.7500 460.00 445.58 21.45
1087 14.7590 474.00 444.89 21.77
1088 14.7680 448.00 444.22 21.17
1089 14.7770 452.00 443.57 21.26
1090 14.7860 439.00 442.94 20.95
1091 14.7950 472.00 442.32 21.73
1092 14.8040 456.00 441.72 21.35
1093 14.8130 450.00 441.14 21.21
1094 14.8220 455.00 440.56 21.33
1095 14.8310 429.00 440.00 20.71
1096 14.8400 439.00 439.45 20.95
1097 14.8490 436.00 433.57 20.88
1098 14.8580 465.00 433.21 21.56
1099 14.8670 426.00 432.86 20.64
1100 14.8760 448.00 432.52 21.17
1101 14.8850 463.00 432.17 21.52
1102 14.8940 450.00 431.82 21.21
1103 14.9030 444.00 431.47 21.07
1104 14.9120 449.00 431.12 21.19
1105 14.9210 444.00 430.78 21.07
1106 14.9300 443.00 430.43 21.05
1107 14.9390 419.00 430.08 20.47
1108 14.9480 428.00 429.74 20.69
1109 14.9570 424.00 429.39 20.59
1110 14.9660 430.00 429.05 20.74
1111 14.9750 453.00 428.71 21.28
1112 14.9840 449.00 428.36 21.19
1113 14.9930 457.00 428.02 21.38
1114 15.0020 439.00 427.68 20.95
1115 15.0110 405.00 427.34 20.12
1116 15.0200 424.00 427.00 20.59
1117 15.0290 427.00 426.66 20.66
1118 15.0380 399.00 426.32 19.98
1119 15.0470 398.00 425.98 19.95
1120 15.0560 450.00 425.64 21.21
1121 15.0650 461.00 425.30 21.47
1122 15.0740 439.00 424.97 20.95
1123 15.0830 430.00 424.63 20.74
1124 15.0920 418.00 424.29 20.44
1125 15.1010 414.00 423.96 20.35
1126 15.1100 419.00 423.62 20.47
1127 15.1190 427.00 423.29 20.66
1128 15.1280 442.00 422.95 21.02
1129 15.1370 471.00 422.62 21.70
1130 15.1460 414.00 422.29 20.35
1131 15.1550 414.00 421.95 20.35
1132 15.1640 434.00 421.62 20.83
1133 15.1730 448.00 421.29 21.17
1134 15.1820 418.00 420.96 20.44
1135 15.1910 440.00 420.63 20.98
1136 15.2000 425.00 420.30 20.62
1137 15.2090 397.00 419.97 19.92
1138 15.2180 474.00 419.64 21.77
1139 15.2270 414.00 419.31 20.35
1140 15.2360 372.00 418.98 19.29
1141 15.2450 431.00 418.65 20.76
1142 15.2540 431.00 418.33 20.76
1143 15.2630 430.00 418.00 20.74
1144 15.2720 436.00 417.67 20.88
1145 15.2810 420.00 417.35 20.49
1146 15.2900 417.00 417.02 20.42
1147 15.2990 421.00 416.70 20.52
1148 15.3080 438.00 416.38 20.93
1149 15.3170 424.00 416.05 20.59
1150 15.3260 419.00 415.73 20.47
1151 15.3350 422.00 415.40 20.54
1152 15.3440 429.00 415.08 20.71
1153 15.3530 432.00 414.76 20.78
1154 15.3620 442.00 414.44 21.02
1155 15.3710 433.00 414.12 20.81
1156 15.3800 412.00 413.80 20.30
1157 15.3890 424.00 413.48 20.59
1158 15.3980 415.00 413.16 20.37
1159 15.4070 402.00 412.84 20.05
1160 15.4160 415.00 412.52 20.37
1161 15.4250 425.00 412.20 20.62
1162 15.4340 444.00 411.89 21.07
1163 15.4430 449.00 411.57 21.19
1164 15.4520 437.00 411.25 20.90
1165 15.4610 437.00 410.93 20.90
1166 15.4700 415.00 410.62 20.37
1167 15.4790 405.00 410.30 20.12
1168 15.4880 433.00 409.99 20.81
1169 15.4970 412.00 409.67 20.30
1170 15.5060 413.00 409.36 20.32
1171 15.5150 426.00 409.05 20.64
1172 15.5240 389.00 408.73 19.72
1173 15.5330 402.00 408.42 20.05
1174 15.5420 394.00 408.11 19.85
1175 15.5510 392.00 407.80 19.80
1176 15.5600 398.00 407.48 19.95
1177 15.5690 427.00 407.17 20.66
1178 15.5780 398.00 406.86 19.95
1179 15.5870 402.00 406.55 20.05
1180 15.5960 412.00 406.24 20.30
1181 15.6050 410.00 405.93 20.25
1182 15.6140 408.00 405.62 20.20
1183 15.6230 420.00 405.32 20.49
1184 15.6320 427.00 405.01 20.66
1185 15.6410 424.00 404.70 20.59
1186 15.6500 387.00 404.39 19.67
1187 15.6590 426.00 404.09 20.64
1188 15.6680 427.00 403.78 20.66
1189 15.6770 431.00 403.47 20.76
1190 15.6860 473.00 403.17 21.75
1191 15.6950 429.00 402.86 20.71
1192 15.7040 408.00 402.56 20.20
1193 15.7130 425.00 402.25 20.62
1194 15.7220 408.00 401.95 20.20
1195 15.7310 414.00 401.65 20.35
1196 15.7400 420.00 401.34 20.49
1197 15.7490 386.00 401.04 19.65
1198 15.7580 369.00 400.74 19.21
1199 15.7670 388.00 400.44 19.70
1200 15.7760 416.00 400.14 20.40
1201 15.7850 399.00 399.83 19.98
1202 15.7940 404.00 399.53 20.10
1203 15.8030 394.00 399.23 19.85
1204 15.8120 403.00 398.93 20.07
1205 15.8210 406.00 398.63 20.15
1206 15.8300 388.00 398.33 19.70
1207 15.8390 393.00 398.04 19.82
1208 15.8480 414.00 397.74 20.35
1209 15.8570 426.00 397.44 20.64
1210 15.8660 406.00 397.14 20.15
1211 15.8750 386.00 396.85 19.65
1212 15.8840 399.00 396.55 19.98
1213 15.8930 413.00 396.25 20.32
1214 15.9020 416.00 395.96 20.40
1215 15.9110 416.00 395.66 20.40
1216 15.9200 415.00 395.36 20.37
1217 15.9290 422.00 395.07 20.54
1218 15.9380 399.00 394.77 19.98
1219 15.9470 364.00 394.48 19.08
1220 15.9560 403.00 394.19 20.07
1221 15.9650 405.00 393.89 20.12
1222 15.9740 403.00 393.60 20.07
1223 15.9830 391.00 393.31 19.77
1224 15.9920 376.00 393.02 19.39
1225 16.0010 403.00 392.72 20.07
1226 16.0100 371.00 392.43 19.26
1227 16.0190 359.00 392.14 18.95
1228 16.0280 401.00 391.85 20.02
1229 16.0370 378.00 391.56 19.44
1230 16.0460 381.00 391.27 19.52
1231 16.0550 369.00 390.98 19.21
1232 16.0640 380.00 390.69 19.49
1233 16.0730 398.00 390.40 19.95
1234 16.0820 384.00 390.11 19.60
1235 16.0910 378.00 389.82 19.44
1236 16.1000 415.00 389.53 20.37
1237 16.1090 381.00 389.25 19.52
1238 16.1180 372.00 388.96 19.29
1239 16.1270 407.00 388.67 20.17
1240 16.1360 394.00 388.39 19.85
1241 16.1450 378.00 388.10 19.44
1242 16.1540 382.00 387.81 19.54
1243 16.1630 392.00 387.53 19.80
1244 16.1720 387.00 387.24 19.67
1245 16.1810 382.00 386.96 19.54
1246 16.1900 373.00 386.67 19.31
1247 16.1990 380.00 386.39 19.49
1248 16.2080 368.00 386.10 19.18
1249 16.2170 365.00 385.82 19.10
1250 16.2260 375.00 385.54 19.36
1251 16.2350 371.00 385.25 19.26
1252 16.2440 371.00 384.97 19.26
1253 16.2530 380.00 384.69 19.49
1254 16.2620 384.00 384.40 19.60
1255 16.2710 394.00 384.12 19.85
1256 16.2800 395.00 383.84 19.87
1257 16.2890 383.00 383.56 19.57
1258 16.2980 380.00 383.28 19.49
1259 16.3070 388.00 383.00 19.70
1260 16.3160 394.00 382.72 19.85
1261 16.3250 379.00 382.44 19.47
1262 16.3340 373.00 382.16 19.31
1263 16.3430 395.00 381.88 19.87
1264 16.3520 400.00 381.60 20.00
1265 16.3610 398.00 381.32 19.95
1266 16.3700 401.00 381.04 20.02
1267 16.3790 369.00 380.77 19.21
1268 16.3880 376.00 380.49 19.39
1269 16.3970 368.00 380.21 19.18
1270 16.4060 378.00 379.93 19.44
1271 16.4150 394.00 379.66 19.85
1272 16.4240 393.00 379.38 19.82
1273 16.4330 348.00 379.10 18.65
1274 16.4420 377.00 378.83 19.42
1275 16.4510 396.00 378.55 19.90
1276 16.4600 388.00 378.28 19.70
1277 16.4690 372.00 378.00 19.29
1278 16.4780 401.00 377.73 20.02
1279 16.4870 397.00 378.32 19.92
1280 16.4960 355.00 378.07 18.84
1281 16.5050 342.00 377.83 18.49
1282 16.5140 368.00 377.58 19.18
1283 16.5230 412.00 377.34 20.30
1284 16.5320 363.00 377.11 19.05
1285 16.5410 364.00 376.87 19.08
1286 16.5500 364.00 376.64 19.08
1287 16.5590 390.00 376.40 19.75
1288 16.5680 404.00 376.18 20.10
1289 16.5770 360.00 375.95 18.97
1290 16.5860 374.00 375.73 19.34
1291 16.5950 350.00 375.51 18.71
1292 16.6040 372.00 375.29 19.29
1293 16.6130 395.00 375.08 19.87
1294 16.6220 392.00 374.87 19.80
1295 16.6310 387.00 374.67 19.67
1296 16.6400 364.00 374.47 19.08
1297 16.6490 363.00 374.27 19.05
1298 16.6580 377.00 374.08 19.42
1299 16.6670 376.00 373.90 19.39
1300 16.6760 384.00 373.73 19.60
1301 16.6850 386.00 373.56 19.65
1302 16.6940 377.00 373.40 19.42
1303 16.7030 369.00 373.25 19.21
1304 16.7120 353.00 373.10 18.79
1305 16.7210 344.00 372.97 18.55
1306 16.7300 366.00 372.85 19.13
1307 16.7390 387.00 372.75 19.67
1308 16.7480 379.00 372.66 19.47
1309 16.7570 369.00 372.58 19.21
1310 16.7660 354.00 372.53 18.81
1311 16.7750 344.00 372.50 18.55
1312 16.7840 340.00 372.49 18.44
1313 16.7930 354.00 372.51 18.81
1314 16.8020 358.00 372.56 18.92
1315 16.8110 365.00 372.65 19.10
1316 16.8200 372.00 372.79 19.29
1317 16.8290 367.00 372.97 19.16
1318 16.8380 362.00 373.21 19.03
1319 16.8470 349.00 373.53 18.68
1320 16.8560 348.00 373.93 18.65
1321 16.8650 361.00 374.43 19.00
1322 16.8740 364.00 375.05 19.08
1323 16.8830 376.00 375.83 19.39
1324 16.8920 378.00 376.79 19.44
1325 16.9010 353.00 377.99 18.79
1326 16.9100 378.00 379.49 19.44
1327 16.9190 380.00 381.37 19.49
1328 16.9280 379.00 383.77 19.47
1329 16.9370 384.00 386.87 19.60
1330 16.9460 400.00 390.97 20.00
1331 16.9550 379.00 396.70 19.47
1332 16.9640 394.00 405.60 19.85
1333 16.9730 406.00 421.52 20.15
1334 16.9820 414.00 452.82 20.35
1335 16.9910 496.00 514.89 22.27
1336 17.0000 628.00 631.49 25.06
1337 17.0090 774.00 833.71 27.82
1338 17.0180 1054.00 1152.24 32.47
1339 17.0270 1378.00 1591.86 37.12
1340 17.0360 1775.00 2079.29 42.13
1341 17.0450 2070.00 2427.49 45.50
1342 17.0540 2056.00 2404.93 45.34
1343 17.0630 1692.00 1968.44 41.13
1344 17.0720 1166.00 1381.26 34.15
1345 17.0810 768.00 905.95 27.71
1346 17.0900 558.00 623.72 23.62
1347 17.0990 450.00 491.10 21.21
1348 17.1080 409.00 436.71 20.22
1349 17.1170 381.00 413.36 19.52
1350 17.1260 352.00 400.82 18.76
1351 17.1350 355.00 392.48 18.84
1352 17.1440 360.00 386.32 18.97
1353 17.1530 357.00 381.58 18.89
1354 17.1620 359.00 377.82 18.95
1355 17.1710 366.00 374.78 19.13
1356 17.1800 361.00 372.28 19.00
1357 17.1890 337.00 370.19 18.36
1358 17.1980 370.00 368.41 19.24
1359 17.2070 375.00 366.87 19.36
1360 17.2160 353.00 365.54 18.79
1361 17.2250 339.00 364.36 18.41
1362 17.2340 359.00 363.31 18.95
1363 17.2430 357.00 362.37 18.89
1364 17.2520 357.00 361.52 18.89
1365 17.2610 379.00 360.74 19.47
1366 17.2700 343.00 360.02 18.52
1367 17.2790 332.00 359.35 18.22
1368 17.2880 330.00 358.73 18.17
1369 17.2970 388.00 358.15 19.70
1370 17.3060 380.00 357.61 19.49
1371 17.3150 345.00 357.09 18.57
1372 17.3240 361.00 356.60 19.00
1373 17.3330 326.00 356.13 18.06
1374 17.3420 342.00 355.68 18.49
1375 17.3510 331.00 355.24 18.19
1376 17.3600 329.00 354.83 18.14
1377 17.3690 339.00 354.42 18.41
1378 17.3780 367.00 354.03 19.16
1379 17.3870 335.00 353.65 18.30
1380 17.3960 366.00 353.28 19.13
1381 17.4050 348.00 352.92 18.65
1382 17.4140 354.00 352.57 18.81
1383 17.4230 332.00 352.23 18.22
1384 17.4320 363.00 351.89 19.05
1385 17.4410 355.00 351.55 18.84
1386 17.4500 354.00 351.23 18.81
1387 17.4590 329.00 350.91 18.14
1388 17.4680 339.00 350.59 18.41
1389 17.4770 325.00 350.28 18.03
1390 17.4860 325.00 349.97 18.03
1391 17.4950 343.00 349.67 18.52
1392 17.5040 349.00 350.34 18.68
1393 17.5130 357.00 350.07 18.89
1394 17.5220 360.00 349.81 18.97
1395 17.5310 344.00 349.55 18.55
1396 17.5400 336.00 349.30 18.33
1397 17.5490 341.00 349.05 18.47
1398 17.5580 348.00 348.81 18.65
1399 17.5670 335.00 348.57 18.30
1400 17.5760 319.00 348.33 17.86
1401 17.5850 325.00 348.10 18.03
1402 17.5940 335.00 347.87 18.30
1403 17.6030 335.00 347.65 18.30
1404 17.6120 315.00 347.43 17.75
1405 17.6210 320.00 347.22 17.89
1406 17.6300 336.00 346.20 18.33
1407 17.6390 354.00 346.03 18.81
1408 17.6480 340.00 345.85 18.44
1409 17.6570 355.00 345.68 18.84
1410 17.6660 319.00 345.52 17.86
1411 17.6750 341.00 345.36 18.47
1412 17.6840 333.00 345.21 18.25
1413 17.6930 334.00 345.06 18.28
1414 17.7020 364.00 344.92 19.08
1415 17.7110 330.00 344.79 18.17
1416 17.7200 341.00 344.67 18.47
1417 17.7290 306.00 344.56 17.49
1418 17.7380 338.00 344.46 18.38
1419 17.7470 310.00 344.37 17.61
1420 17.7560 363.00 344.29 19.05
1421 17.7650 354.00 344.23 18.81
1422 17.7740 323.00 344.18 17.97
1423 17.7830 322.00 344.16 17.94
1424 17.7920 324.00 344.15 18.00
1425 17.8010 334.00 344.17 18.28
1426 17.8100 333.00 344.22 18.25
1427 17.8190 359.00 344.29 18.95
1428 17.8280 346.00 344.41 18.60
1429 17.8370 306.00 344.56 17.49
1430 17.8460 319.00 344.76 17.86
1431 17.8550 368.00 345.01 19.18
1432 17.8640 380.00 345.33 19.49
1433 17.8730 362.00 345.72 19.03
1434 17.8820 365.00 346.20 19.10
1435 17.8910 347.00 346.79 18.63
1436 17.9000 346.00 347.51 18.60
1437 17.9090 366.00 348.39 19.13
1438 17.9180 364.00 349.46 19.08
1439 17.9270 324.00 350.78 18.00
1440 17.9360 333.00 352.40 18.25
1441 17.9450 349.00 354.41 18.68
1442 17.9540 345.00 356.93 18.57
1443 17.9630 330.00 360.13 18.17
1444 17.9720 334.00 364.26 18.28
1445 17.9810 353.00 369.76 18.79
1446 17.9900 367.00 377.58 19.16
1447 17.9990 392.00 390.12 19.80
1448 18.0080 424.00 413.15 20.59
1449 18.0170 475.00 459.04 21.79
1450 18.0260 575.00 550.22 23.98
1451 18.0350 730.00 720.90 27.02
1452 18.0440 982.00 1012.30 31.34
1453 18.0530 1417.00 1451.71 37.64
1454 18.0620 1940.00 2005.29 44.05
1455 18.0710 2399.00 2522.75 48.98
1456 18.0800 2552.00 2746.46 50.52
1457 18.0890 2220.00 2480.67 47.12
1458 18.0980 1631.00 1862.57 40.39
1459 18.1070 1024.00 1233.61 32.00
1460 18.1160 663.00 793.09 25.75
1461 18.1250 490.00 556.32 22.14
1462 18.1340 418.00 451.37 20.44
1463 18.1430 401.00 407.95 20.02
1464 18.1520 360.00 387.61 18.97
1465 18.1610 339.00 375.54 18.41
1466 18.1700 335.00 367.09 18.30
1467 18.1790 350.00 360.71 18.71
1468 18.1880 329.00 355.75 18.14
1469 18.1970 331.00 351.79 18.19
1470 18.2060 340.00 348.57 18.44
1471 18.2150 331.00 345.91 18.19
1472 18.2240 321.00 343.68 17.92
1473 18.2330 346.00 341.78 18.60
1474 18.2420 313.00 340.14 17.69
1475 18.2510 327.00 338.72 18.08
1476 18.2600 348.00 337.46 18.65
1477 18.2690 354.00 336.35 18.81
1478 18.2780 327.00 335.35 18.08
1479 18.2870 308.00 334.44 17.55
1480 18.2960 315.00 333.62 17.75
1481 18.3050 327.00 332.86 18.08
1482 18.3140 321.00 332.17 17.92
1483 18.3230 323.00 331.52 17.97
1484 18.3320 323.00 330.92 17.97
1485 18.3410 317.00 330.35 17.80
1486 18.3500 323.00 329.82 17.97
1487 18.3590 327.00 329.31 18.08
1488 18.3680 315.00 328.83 17.75
1489 18.3770 320.00 328.37 17.89
1490 18.3860 320.00 327.93 17.89
1491 18.3950 311.00 327.51 17.64
1492 18.4040 315.00 327.10 17.75
1493 18.4130 316.00 326.71 17.78
1494 18.4220 305.00 326.33 17.46
1495 18.4310 315.00 325.96 17.75
1496 18.4400 350.00 325.60 18.71
1497 18.4490 332.00 325.25 18.22
1498 18.4580 311.00 324.91 17.64
1499 18.4670 339.00 324.58 18.41
1500 18.4760 334.00 324.25 18.28
1501 18.4850 326.00 323.93 18.06
1502 18.4940 305.00 323.61 17.46
1503 18.5030 309.00 323.30 17.58
1504 18.5120 321.00 323.00 17.92
1505 18.5210 335.00 322.70 18.30
1506 18.5300 308.00 322.40 17.55
1507 18.5390 321.00 322.11 17.92
1508 18.5480 331.00 321.83 18.19
1509 18.5570 333.00 321.54 18.25
1510 18.5660 313.00 321.26 17.69
1511 18.5750 297.00 320.98 17.23
1512 18.5840 314.00 320.70 17.72
1513 18.5930 279.00 320.43 16.70
1514 18.6020 291.00 320.16 17.06
1515 18.6110 319.00 319.89 17.86
1516 18.6200 298.00 319.62 17.26
1517 18.6290 294.00 319.36 17.15
1518 18.6380 282.00 319.09 16.79
1519 18.6470 292.00 318.83 17.09
1520 18.6560 298.00 318.57 17.26
1521 18.6650 300.00 318.31 17.32
1522 18.6740 320.00 317.14 17.89
1523 18.6830 294.00 316.91 17.15
1524 18.6920 292.00 316.68 17.09
1525 18.7010 320.00 316.45 17.89
1526 18.7100 321.00 316.23 17.92
1527 18.7190 319.00 316.00 17.86
1528 18.7280 304.00 315.77 17.44
1529 18.7370 302.00 315.54 17.38
1530 18.7460 324.00 315.31 18.00
1531 18.7550 300.00 315.08 17.32
1532 18.7640 298.00 314.86 17.26
1533 18.7730 296.00 314.63 17.20
1534 18.7820 308.00 314.40 17.55
1535 18.7910 317.00 314.17 17.80
1536 18.8000 314.00 313.94 17.72
1537 18.8090 305.00 313.72 17.46
1538 18.8180 311.00 313.49 17.64
1539 18.8270 313.00 313.26 17.69
1540 18.8360 311.00 313.03 17.64
1541 18.8450 315.00 312.81 17.75
1542 18.8540 306.00 312.58 17.49
1543 18.8630 300.00 312.35 17.32
1544 18.8720 307.00 312.13 17.52
1545 18.8810 301.00 311.90 17.35
1546 18.8900 296.00 311.67 17.20
1547 18.8990 320.00 311.45 17.89
1548 18.9080 292.00 311.22 17.09
1549 18.9170 291.00 310.99 17.06
1550 18.9260 322.00 310.77 17.94
1551 18.9350 309.00 310.54 17.58
1552 18.9440 301.00 310.31 17.35
1553 18.9530 292.00 310.09 17.09
1554 18.9620 294.00 309.86 17.15
1555 18.9710 294.00 309.64 17.15
1556 18.9800 293.00 309.41 17.12
1557 18.9890 327.00 309.19 18.08
1558 18.9980 310.00 308.96 17.61
1559 19.0070 301.00 308.73 17.35
1560 19.0160 286.00 308.51 16.91
1561 19.0250 295.00 308.28 17.18
1562 19.0340 305.00 308.06 17.46
1563 19.0430 332.00 307.83 18.22
1564 19.0520 288.00 307.61 16.97
1565 19.0610 295.00 307.39 17.18
1566 19.0700 302.00 307.16 17.38
1567 19.0790 272.00 306.94 16.49
1568 19.0880 292.00 306.71 17.09
1569 19.0970 323.00 306.49 17.97
1570 19.1060 328.00 306.26 18.11
1571 19.1150 289.00 306.04 17.00
1572 19.1240 280.00 305.81 16.73
1573 19.1330 325.00 305.59 18.03
1574 19.1420 303.00 305.37 17.41
1575 19.1510 303.00 305.14 17.41
1576 19.1600 291.00 304.92 17.06
1577 19.1690 282.00 304.70 16.79
1578 19.1780 298.00 304.47 17.26
1579 19.1870 288.00 304.25 16.97
1580 19.1960 310.00 304.02 17.61
1581 19.2040 321.00 303.80 17.92
1582 19.2130 296.00 303.58 17.20
1583 19.2220 288.00 303.36 16.97
1584 19.2310 285.00 303.13 16.88
1585 19.2400 282.00 302.91 16.79
1586 19.2490 287.00 302.69 16.94
1587 19.2580 293.00 302.46 17.12
1588 19.2670 292.00 302.24 17.09
1589 19.2760 287.00 302.02 16.94
1590 19.2850 288.00 301.80 16.97
1591 19.2940 288.00 301.58 16.97
1592 19.3030 292.00 301.35 17.09
1593 19.3120 300.00 301.13 17.32
1594 19.3210 294.00 300.91 17.15
1595 19.3300 293.00 300.69 17.12
1596 19.3390 284.00 300.46 16.85
1597 19.3480 290.00 300.24 17.03
1598 19.3570 298.00 300.02 17.26
1599 19.3660 313.00 299.80 17.69
1600 19.3750 287.00 299.58 16.94
1601 19.3840 269.00 299.36 16.40
1602 19.3930 268.00 299.14 16.37
1603 19.4020 278.00 298.92 16.67
1604 19.4110 301.00 298.69 17.35
1605 19.4200 264.00 298.47 16.25
1606 19.4290 294.00 298.25 17.15
1607 19.4380 334.00 298.03 18.28
1608 19.4470 321.00 297.81 17.92
1609 19.4560 288.00 297.59 16.97
1610 19.4650 294.00 297.37 17.15
1611 19.4740 309.00 297.15 17.58
1612 19.4830 261.00 296.93 16.16
1613 19.4920 299.00 296.71 17.29
1614 19.5010 288.00 296.49 16.97
1615 19.5100 300.00 296.27 17.32
1616 19.5190 292.00 296.05 17.09
1617 19.5280 277.00 295.83 16.64
1618 19.5370 298.00 295.61 17.26
1619 19.5460 290.00 295.39 17.03
1620 19.5550 293.00 295.17 17.12
1621 19.5640 288.00 294.95 16.97
1622 19.5730 273.00 294.73 16.52
1623 19.5820 289.00 294.51 17.00
1624 19.5910 307.00 294.29 17.52
1625 19.6000 285.00 294.07 16.88
1626 19.6090 296.00 293.85 17.20
1627 19.6180 285.00 293.63 16.88
1628 19.6270 279.00 293.41 16.70
1629 19.6360 280.00 293.19 16.73
1630 19.6450 289.00 292.98 17.00
1631 19.6540 282.00 292.76 16.79
1632 19.6630 278.00 292.54 16.67
1633 19.6720 297.00 292.32 17.23
1634 19.6810 307.00 292.10 17.52
1635 19.6900 289.00 291.88 17.00
1636 19.6990 289.00 291.66 17.00
1637 19.7080 310.00 291.45 17.61
1638 19.7170 305.00 291.23 17.46
1639 19.7260 294.00 291.01 17.15
1640 19.7350 292.00 290.79 17.09
1641 19.7440 287.00 290.57 16.94
1642 19.7530 274.00 290.36 16.55
1643 19.7620 277.00 290.14 16.64
1644 19.7710 270.00 289.92 16.43
1645 19.7800 278.00 289.70 16.67
1646 19.7890 292.00 289.48 17.09
1647 19.7980 298.00 289.27 17.26
1648 19.8070 298.00 289.05 17.26
1649 19.8160 270.00 288.83 16.43
1650 19.8250 271.00 288.61 16.46
1651 19.8340 269.00 288.40 16.40
1652 19.8430 284.00 288.18 16.85
1653 19.8520 263.00 287.96 16.22
1654 19.8610 284.00 287.75 16.85
1655 19.8700 265.00 287.53 16.28
1656 19.8790 304.00 287.31 17.44
1657 19.8880 258.00 287.10 16.06
1658 19.8970 288.00 286.88 16.97
1659 19.9060 291.00 286.66 17.06
1660 19.9150 296.00 286.45 17.20
1661 19.9240 277.00 286.23 16.64
1662 19.9330 293.00 286.01 17.12
1663 19.9420 280.00 285.80 16.73
1664 19.9510 254.00 285.58 15.94
1665 19.9600 308.00 285.37 17.55
1666 19.9690 314.00 285.15 17.72
1667 19.9780 307.00 284.93 17.52
1668 19.9870 297.00 284.72 17.23
1669 19.9960 292.00 284.50 17.09
1670 20.0050 277.00 284.29 16.64
1671 20.0140 244.00 284.07 15.62
1672 20.0230 268.00 283.86 16.37
1673 20.0320 269.00 283.64 16.40
1674 20.0410 253.00 283.43 15.91
1675 20.0500 264.00 283.21 16.25
1676 20.0590 271.00 282.99 16.46
1677 20.0680 275.00 282.78 16.58
1678 20.0770 271.00 282.57 16.46
1679 20.0860 273.00 282.35 16.52
1680 20.0950 271.00 282.14 16.46
1681 20.1040 258.00 281.92 16.06
1682 20.1130 267.00 281.71 16.34
1683 20.1220 282.00 281.49 16.79
1684 20.1310 290.00 281.28 17.03
1685 20.1400 281.00 281.06 16.76
1686 20.1490 270.00 280.85 16.43
1687 20.1580 278.00 280.63 16.67
1688 20.1670 260.00 280.42 16.12
1689 20.1760 255.00 280.21 15.97
1690 20.1850 266.00 279.99 16.31
1691 20.1940 272.00 279.78 16.49
1692 20.2030 255.00 279.56 15.97
1693 20.2120 247.00 279.35 15.72
1694 20.2210 276.00 279.14 16.61
1695 20.2300 281.00 278.92 16.76
1696 20.2390 265.00 278.71 16.28
1697 20.2480 258.00 278.50 16.06
1698 20.2570 275.00 278.28 16.58
1699 20.2660 266.00 278.07 16.31
1700 20.2750 249.00 278.29 15.78
1701 20.2840 302.00 278.09 17.38
1702 20.2930 264.00 277.89 16.25
1703 20.3020 293.00 277.69 17.12
1704 20.3110 289.00 277.50 17.00
1705 20.3200 262.00 277.30 16.19
1706 20.3290 290.00 277.10 17.03
1707 20.3380 244.00 276.91 15.62
1708 20.3470 291.00 276.71 17.06
1709 20.3560 262.00 276.52 16.19
1710 20.3650 269.00 276.33 16.40
1711 20.3740 264.00 276.14 16.25
1712 20.3830 283.00 275.95 16.82
1713 20.3920 254.00 275.76 15.94
1714 20.4010 249.00 275.58 15.78
1715 20.4100 231.00 275.39 15.20
1716 20.4190 281.00 275.21 16.76
1717 20.4280 265.00 275.03 16.28
1718 20.4370 262.00 274.85 16.19
1719 20.4460 269.00 274.67 16.40
1720 20.4550 277.00 274.49 16.64
1721 20.4640 262.00 274.32 16.19
1722 20.4730 260.00 274.15 16.12
1723 20.4820 264.00 273.99 16.25
1724 20.4910 260.00 273.82 16.12
1725 20.5000 264.00 273.66 16.25
1726 20.5090 283.00 273.51 16.82
1727 20.5180 268.00 273.36 16.37
1728 20.5270 255.00 273.21 15.97
1729 20.5360 250.00 273.07 15.81
1730 20.5450 242.00 272.93 15.56
1731 20.5540 260.00 272.80 16.12
1732 20.5630 273.00 272.68 16.52
1733 20.5720 273.00 272.57 16.52
1734 20.5810 268.00 272.46 16.37
1735 20.5900 267.00 272.36 16.34
1736 20.5990 282.00 272.28 16.79
1737 20.6080 274.00 272.21 16.55
1738 20.6170 246.00 272.15 15.68
1739 20.6260 260.00 272.11 16.12
1740 20.6350 247.00 272.10 15.72
1741 20.6440 263.00 272.10 16.22
1742 20.6530 249.00 272.13 15.78
1743 20.6620 246.00 272.19 15.68
1744 20.6710 268.00 272.29 16.37
1745 20.6800 257.00 272.43 16.03
1746 20.6890 261.00 272.62 16.16
1747 20.6980 232.00 272.87 15.23
1748 20.7070 253.00 273.20 15.91
1749 20.7160 253.00 273.62 15.91
1750 20.7250 252.00 274.16 15.87
1751 20.7340 230.00 274.84 15.17
1752 20.7430 260.00 275.70 16.12
1753 20.7520 262.00 276.81 16.19
1754 20.7610 263.00 278.23 16.22
1755 20.7700 279.00 280.07 16.70
1756 20.7790 236.00 282.53 15.36
1757 20.7880 254.00 285.96 15.94
1758 20.7970 275.00 291.23 16.58
1759 20.8060 303.00 300.52 17.41
1760 20.8150 309.00 318.91 17.58
1761 20.8240 352.00 356.72 18.76
1762 20.8330 450.00 431.16 21.21
1763 20.8420 562.00 563.46 23.71
1764 20.8510 772.00 765.35 27.78
1765 20.8600 949.00 1015.25 30.81
1766 20.8690 1186.00 1240.13 34.44
1767 20.8780 1297.00 1328.57 36.01
1768 20.8870 1184.00 1207.50 34.41
1769 20.8960 932.00 943.53 30.53
1770 20.9050 657.00 675.03 25.63
1771 20.9140 459.00 482.00 21.42
1772 20.9230 366.00 373.41 19.13
1773 20.9320 324.00 322.47 18.00
1774 20.9410 296.00 300.39 17.20
1775 20.9500 278.00 289.96 16.67
1776 20.9590 289.00 283.89 17.00
1777 20.9680 291.00 279.67 17.06
1778 20.9770 279.00 276.48 16.70
1779 20.9860 279.00 273.98 16.70
1780 20.9950 260.00 271.96 16.12
1781 21.0040 261.00 270.30 16.16
1782 21.0130 283.00 268.91 16.82
1783 21.0220 274.00 267.73 16.55
1784 21.0310 256.00 266.70 16.00
1785 21.0400 267.00 265.81 16.34
1786 21.0490 272.00 265.02 16.49
1787 21.0580 244.00 264.32 15.62
1788 21.0670 262.00 263.68 16.19
1789 21.0760 268.00 263.10 16.37
1790 21.0850 259.00 262.57 16.09
1791 21.0940 264.00 262.07 16.25
1792 21.1030 254.00 261.61 15.94
1793 21.1120 254.00 261.18 15.94
1794 21.1210 240.00 260.77 15.49
1795 21.1300 249.00 260.38 15.78
1796 21.1390 248.00 260.01 15.75
1797 21.1480 266.00 259.66 16.31
1798 21.1570 254.00 259.32 15.94
1799 21.1660 269.00 258.99 16.40
1800 21.1750 248.00 258.68 15.75
1801 21.1840 254.00 258.37 15.94
1802 21.1930 252.00 258.07 15.87
1803 21.2020 254.00 257.78 15.94
1804 21.2110 257.00 257.50 16.03
1805 21.2200 258.00 257.22 16.06
1806 21.2290 245.00 256.95 15.65
1807 21.2380 236.00 256.68 15.36
1808 21.2470 267.00 256.42 16.34
1809 21.2560 255.00 256.16 15.97
1810 21.2650 244.00 255.91 15.62
1811 21.2740 253.00 255.66 15.91
1812 21.2830 244.00 255.41 15.62
1813 21.2920 251.00 255.16 15.84
1814 21.3010 277.00 254.92 16.64
1815 21.3100 263.00 254.68 16.22
1816 21.3190 248.00 254.44 15.75
1817 21.3280 236.00 254.21 15.36
1818 21.3370 242.00 253.97 15.56
1819 21.3460 252.00 253.74 15.87
1820 21.3550 255.00 253.51 15.97
1821 21.3640 256.00 253.28 16.00
1822 21.3730 253.00 253.05 15.91
1823 21.3820 252.00 252.83 15.87
1824 21.3910 260.00 252.60 16.12
1825 21.4000 259.00 252.38 16.09
1826 21.4090 239.00 252.16 15.46
1827 21.4180 234.00 251.94 15.30
1828 21.4270 241.00 251.71 15.52
1829 21.4360 231.00 251.49 15.20
1830 21.4450 221.00 251.28 14.87
1831 21.4540 224.00 251.06 14.97
1832 21.4630 229.00 250.84 15.13
1833 21.4720 236.00 250.65 15.36
1834 21.4810 246.00 250.44 15.68
1835 21.4900 257.00 250.22 16.03
1836 21.4990 249.00 249.60 15.78
1837 21.5080 258.00 249.40 16.06
1838 21.5170 244.00 249.20 15.62
1839 21.5260 243.00 249.00 15.59
1840 21.5350 227.00 248.80 15.07
1841 21.5440 240.00 248.60 15.49
1842 21.5530 229.00 248.40 15.13
1843 21.5620 221.00 248.20 14.87
1844 21.5710 256.00 248.00 16.00
1845 21.5800 240.00 247.79 15.49
1846 21.5890 241.00 247.60 15.52
1847 21.5980 198.00 247.40 14.07
1848 21.6070 267.00 247.20 16.34
1849 21.6160 233.00 247.00 15.26
1850 21.6250 267.00 246.80 16.34
1851 21.6340 234.00 246.60 15.30
1852 21.6430 228.00 246.40 15.10
1853 21.6520 246.00 246.20 15.68
1854 21.6610 252.00 246.90 15.87
1855 21.6700 231.00 246.72 15.20
1856 21.6790 235.00 246.56 15.33
1857 21.6880 243.00 246.39 15.59
1858 21.6970 235.00 246.22 15.33
1859 21.7060 222.00 246.06 14.90
1860 21.7150 240.00 245.90 15.49
1861 21.7240 238.00 245.74 15.43
1862 21.7330 222.00 245.58 14.90
1863 21.7420 241.00 245.43 15.52
1864 21.7510 246.00 245.28 15.68
1865 21.7600 234.00 245.13 15.30
1866 21.7690 243.00 244.99 15.59
1867 21.7780 243.00 244.85 15.59
1868 21.7870 244.00 244.71 15.62
1869 21.7960 249.00 244.58 15.78
1870 21.8050 241.00 244.45 15.52
1871 21.8140 237.00 244.33 15.39
1872 21.8230 224.00 244.21 14.97
1873 21.8320 216.00 244.11 14.70
1874 21.8410 224.00 244.01 14.97
1875 21.8500 234.00 243.91 15.30
1876 21.8590 249.00 243.83 15.78
1877 21.8680 235.00 243.76 15.33
1878 21.8770 240.00 243.70 15.49
1879 21.8860 250.00 243.66 15.81
1880 21.8950 270.00 243.64 16.43
1881 21.9040 252.00 243.64 15.87
1882 21.9130 235.00 243.67 15.33
1883 21.9220 245.00 243.74 15.65
1884 21.9310 246.00 243.86 15.68
1885 21.9400 233.00 244.05 15.26
1886 21.9490 237.00 244.39 15.39
1887 21.9580 233.00 245.04 15.26
1888 21.9670 233.00 246.51 15.26
1889 21.9760 267.00 249.84 16.34
1890 21.9850 252.00 256.90 15.87
1891 21.9940 286.00 270.04 16.91
1892 22.0030 331.00 290.27 18.19
1893 22.0120 353.00 314.22 18.79
1894 22.0210 415.00 332.36 20.37
1895 22.0300 402.00 333.11 20.05
1896 22.0390 347.00 314.33 18.63
1897 22.0480 300.00 288.30 17.32
1898 22.0570 281.00 267.40 16.76
1899 22.0660 300.00 255.58 17.32
1900 22.0750 233.00 250.69 15.26
1901 22.0840 231.00 249.35 15.20
1902 22.0930 245.00 249.43 15.65
1903 22.1020 256.00 250.12 16.00
1904 22.1110 236.00 251.18 15.36
1905 22.1200 255.00 252.62 15.97
1906 22.1290 246.00 254.48 15.68
1907 22.1380 238.00 256.87 15.43
1908 22.1470 243.00 259.92 15.59
1909 22.1560 271.00 263.88 16.46
1910 22.1650 268.00 269.08 16.37
1911 22.1740 266.00 276.24 16.31
1912 22.1830 281.00 287.03 16.76
1913 22.1920 306.00 305.78 17.49
1914 22.2010 389.00 343.13 19.72
1915 22.2100 525.00 421.78 22.91
1916 22.2190 704.00 581.05 26.53
1917 22.2280 1002.00 870.25 31.65
1918 22.2370 1479.00 1315.90 38.46
1919 22.2460 2074.00 1864.02 45.54
1920 22.2550 2532.00 2341.94 50.32
1921 22.2640 2619.00 2500.40 51.18
1922 22.2730 2237.00 2201.20 47.30
1923 22.2820 1558.00 1620.84 39.47
1924 22.2910 1014.00 1055.71 31.84
1925 22.3000 626.00 662.21 25.02
1926 22.3090 428.00 447.38 20.69
1927 22.3180 359.00 349.22 18.95
1928 22.3270 295.00 307.27 17.18
1929 22.3360 296.00 287.38 17.20
1930 22.3450 258.00 275.66 16.06
1931 22.3540 250.00 267.50 15.81
1932 22.3630 241.00 261.37 15.52
1933 22.3720 246.00 256.58 15.68
1934 22.3810 247.00 252.77 15.72
1935 22.3900 231.00 249.68 15.20
1936 22.3990 246.00 247.13 15.68
1937 22.4080 261.00 244.99 16.16
1938 22.4170 244.00 243.19 15.62
1939 22.4260 262.00 241.64 16.19
1940 22.4350 235.00 240.30 15.33
1941 22.4440 246.00 239.13 15.68
1942 22.4530 246.00 238.10 15.68
1943 22.4620 234.00 237.18 15.30
1944 22.4710 228.00 236.37 15.10
1945 22.4800 243.00 235.63 15.59
1946 22.4890 259.00 234.97 16.09
1947 22.4980 242.00 234.37 15.56
1948 22.5070 243.00 233.82 15.59
1949 22.5160 227.00 233.32 15.07
1950 22.5250 223.00 232.85 14.93
1951 22.5340 227.00 232.43 15.07
1952 22.5430 228.00 232.05 15.10
1953 22.5520 233.00 231.69 15.26
1954 22.5610 235.00 231.37 15.33
1955 22.5700 227.00 231.07 15.07
1956 22.5790 228.00 230.80 15.10
1957 22.5880 244.00 230.56 15.62
1958 22.5970 240.00 230.32 15.49
1959 22.6060 216.00 230.14 14.70
1960 22.6150 221.00 229.98 14.87
1961 22.6240 229.00 229.86 15.13
1962 22.6330 226.00 229.77 15.03
1963 22.6420 214.00 229.73 14.63
1964 22.6510 211.00 229.72 14.53
1965 22.6600 217.00 229.77 14.73
1966 22.6690 231.00 229.88 15.20
1967 22.6780 231.00 230.05 15.20
1968 22.6870 232.00 230.32 15.23
1969 22.6960 241.00 230.69 15.52
1970 22.7050 236.00 231.20 15.36
1971 22.7140 250.00 231.87 15.81
1972 22.7230 231.00 232.78 15.20
1973 22.7320 223.00 233.98 14.93
1974 22.7410 242.00 235.59 15.56
1975 22.7500 247.00 237.81 15.72
1976 22.7590 267.00 241.08 16.34
1977 22.7680 257.00 246.65 16.03
1978 22.7770 288.00 258.03 16.97
1979 22.7860 314.00 284.04 17.72
1980 22.7950 420.00 342.80 20.49
1981 22.8040 522.00 462.80 22.85
1982 22.8130 663.00 671.33 25.75
1983 22.8220 933.00 961.32 30.55
1984 22.8310 1317.00 1254.03 36.29
1985 22.8400 1404.00 1404.26 37.47
1986 22.8490 1401.00 1296.24 37.43
1987 22.8580 1044.00 990.34 32.31
1988 22.8670 710.00 666.48 26.65
1989 22.8760 457.00 438.79 21.38
1990 22.8850 323.00 318.40 17.97
1991 22.8940 269.00 268.06 16.40
1992 22.9030 225.00 248.79 15.00
1993 22.9120 229.00 240.43 15.13
1994 22.9210 231.00 235.65 15.20
1995 22.9300 267.00 232.32 16.34
1996 22.9390 241.00 229.80 15.52
1997 22.9480 226.00 227.82 15.03
1998 22.9570 228.00 226.23 15.10
1999 22.9660 213.00 224.91 14.59
2000 22.9750 224.00 223.82 14.97
2001 22.9840 228.00 222.88 15.10
2002 22.9930 239.00 222.07 15.46
2003 23.0020 240.00 221.36 15.49
2004 23.0110 227.00 220.73 15.07
2005 23.0200 204.00 220.16 14.28
2006 23.0290 222.00 219.64 14.90
2007 23.0380 228.00 219.17 15.10
2008 23.0470 216.00 218.74 14.70
2009 23.0560 227.00 218.33 15.07
2010 23.0650 237.00 217.95 15.39
2011 23.0740 228.00 217.59 15.10
2012 23.0830 214.00 217.26 14.63
2013 23.0920 215.00 216.93 14.66
2014 23.1010 214.00 216.62 14.63
2015 23.1100 222.00 216.33 14.90
2016 23.1190 230.00 216.04 15.17
2017 23.1280 224.00 215.76 14.97
2018 23.1370 225.00 215.49 15.00
2019 23.1460 207.00 215.23 14.39
2020 23.1550 224.00 214.98 14.97
2021 23.1640 225.00 214.73 15.00
2022 23.1730 221.00 214.49 14.87
2023 23.1820 222.00 214.25 14.90
2024 23.1910 222.00 214.01 14.90
2025 23.2000 210.00 213.78 14.49
2026 23.2090 218.00 213.55 14.76
2027 23.2180 197.00 213.33 14.04
2028 23.2270 229.00 213.11 15.13
2029 23.2360 230.00 212.89 15.17
2030 23.2450 205.00 212.67 14.32
2031 23.2540 249.00 212.46 15.78
2032 23.2630 242.00 212.24 15.56
2033 23.2720 206.00 212.03 14.35
2034 23.2810 198.00 211.82 14.07
2035 23.2900 218.00 211.62 14.76
2036 23.2990 244.00 211.41 15.62
2037 23.3080 218.00 211.21 14.76
2038 23.3170 229.00 211.00 15.13
2039 23.3260 232.00 210.80 15.23
2040 23.3350 225.00 210.60 15.00
2041 23.3440 200.00 210.40 14.14
2042 23.3530 212.00 210.20 14.56
2043 23.3620 193.00 210.00 13.89
2044 23.3710 214.00 209.81 14.63
2045 23.3800 225.00 209.61 15.00
2046 23.3890 207.00 209.41 14.39
2047 23.3980 205.00 209.22 14.32
2048 23.4070 223.00 209.03 14.93
2049 23.4160 238.00 208.83 15.43
2050 23.4250 228.00 208.30 15.10
2051 23.4340 218.00 208.12 14.76
2052 23.4430 209.00 207.94 14.46
2053 23.4520 204.00 207.76 14.28
2054 23.4610 220.00 207.57 14.83
2055 23.4700 231.00 207.39 15.20
2056 23.4790 240.00 217.68 15.49
2057 23.4870 241.00 217.84 15.52
2058 23.4960 235.00 218.01 15.33
2059 23.5050 236.00 218.20 15.36
2060 23.5140 233.00 218.41 15.26
2061 23.5230 224.00 218.64 14.97
2062 23.5320 220.00 218.89 14.83
2063 23.5410 218.00 219.17 14.76
2064 23.5500 218.00 219.47 14.76
2065 23.5590 233.00 219.79 15.26
2066 23.5680 239.00 220.15 15.46
2067 23.5770 227.00 220.54 15.07
2068 23.5860 238.00 220.96 15.43
2069 23.5950 230.00 221.41 15.17
2070 23.6040 235.00 221.90 15.33
2071 23.6130 227.00 222.44 15.07
2072 23.6220 193.00 223.02 13.89
2073 23.6310 213.00 223.66 14.59
2074 23.6400 214.00 224.35 14.63
2075 23.6490 236.00 225.09 15.36
2076 23.6580 215.00 225.90 14.66
2077 23.6670 204.00 226.78 14.28
2078 23.6760 226.00 227.74 15.03
2079 23.6850 218.00 228.78 14.76
2080 23.6940 247.00 229.92 15.72
2081 23.7030 210.00 231.16 14.49
2082 23.7120 213.00 232.52 14.59
2083 23.7210 196.00 234.00 14.00
2084 23.7300 227.00 235.63 15.07
2085 23.7390 229.00 237.41 15.13
2086 23.7480 222.00 239.38 14.90
2087 23.7570 240.00 241.54 15.49
2088 23.7660 227.00 243.93 15.07
2089 23.7750 238.00 246.57 15.43
2090 23.7840 240.00 249.51 15.49
2091 23.7930 243.00 252.77 15.59
2092 23.8020 221.00 256.42 14.87
2093 23.8110 250.00 260.51 15.81
2094 23.8200 251.00 265.10 15.84
2095 23.8290 255.00 270.29 15.97
2096 23.8380 275.00 276.17 16.58
2097 23.8470 266.00 282.87 16.31
2098 23.8560 260.00 290.55 16.12
2099 23.8650 263.00 299.40 16.22
2100 23.8740 259.00 309.65 16.09
2101 23.8830 268.00 321.62 16.37
2102 23.8920 274.00 335.71 16.55
2103 23.9010 299.00 352.44 17.29
2104 23.9100 312.00 372.49 17.66
2105 23.9190 302.00 396.80 17.38
2106 23.9280 327.00 426.64 18.08
2107 23.9370 368.00 463.81 19.18
2108 23.9460 410.00 510.90 20.25
2109 23.9550 469.00 572.06 21.66
2110 23.9640 568.00 655.19 23.83
2111 23.9730 734.00 780.08 27.09
2112 23.9820 1042.00 1003.60 32.28
2113 23.9910 1632.00 1480.63 40.40
2114 24.0000 2641.00 2571.14 51.39
2115 24.0090 4537.00 4937.38 67.36
2116 24.0180 7914.00 9433.75 88.96
2117 24.0270 13740.00 16459.30 117.22
2118 24.0360 22589.00 24872.00 150.30
2119 24.0450 31642.00 31451.50 177.88
2120 24.0540 35345.00 32209.80 188.00
2121 24.0630 30681.00 26126.30 175.16
2122 24.0720 20708.00 17059.00 143.90
2123 24.0810 11295.00 9307.62 106.28
2124 24.0900 5411.00 4524.04 73.56
2125 24.0990 2775.00 2228.69 52.68
2126 24.1080 1632.00 1300.81 40.40
2127 24.1170 1082.00 931.88 32.89
2128 24.1260 763.00 753.84 27.62
2129 24.1350 605.00 643.20 24.60
2130 24.1440 484.00 563.99 22.00
2131 24.1530 441.00 504.01 21.00
2132 24.1620 404.00 457.37 20.10
2133 24.1710 344.00 420.38 18.55
2134 24.1800 333.00 390.54 18.25
2135 24.1890 304.00 366.15 17.44
2136 24.1980 303.00 345.93 17.41
2137 24.2070 304.00 329.00 17.44
2138 24.2160 281.00 314.67 16.76
2139 24.2250 256.00 302.43 16.00
2140 24.2340 265.00 294.60 16.28
2141 24.2430 219.00 285.54 14.80
2142 24.2520 218.00 277.64 14.76
2143 24.2610 210.00 270.71 14.49
2144 24.2700 237.00 264.60 15.39
2145 24.2790 240.00 259.18 15.49
2146 24.2880 233.00 254.35 15.26
2147 24.2970 235.00 250.04 15.33
2148 24.3060 224.00 246.16 14.97
2149 24.3150 226.00 242.67 15.03
2150 24.3240 243.00 239.52 15.59
2151 24.3330 231.00 236.66 15.20
2152 24.3420 228.00 234.06 15.10
2153 24.3510 239.00 231.69 15.46
2154 24.3600 233.00 229.53 15.26
2155 24.3690 218.00 227.55 14.76
2156 24.3780 223.00 225.74 14.93
2157 24.3870 228.00 224.09 15.10
2158 24.3960 212.00 222.56 14.56
2159 24.4050 208.00 221.16 14.42
2160 24.4140 211.00 219.88 14.53
2161 24.4230 222.00 218.70 14.90
2162 24.4320 228.00 217.62 15.10
2163 24.4410 219.00 216.62 14.80
2164 24.4500 238.00 215.72 15.43
2165 24.4590 235.00 214.89 15.33
2166 24.4680 242.00 214.15 15.56
2167 24.4770 252.00 213.47 15.87
2168 24.4860 216.00 212.87 14.70
2169 24.4950 221.00 212.33 14.87
2170 24.5040 236.00 211.86 15.36
2171 24.5130 245.00 211.46 15.65
2172 24.5220 258.00 211.12 16.06
2173 24.5310 226.00 210.85 15.03
2174 24.5400 218.00 210.65 14.76
2175 24.5490 215.00 215.18 14.66
2176 24.5580 240.00 215.26 15.49
2177 24.5670 212.00 215.44 14.56
2178 24.5760 209.00 215.70 14.46
2179 24.5850 214.00 216.06 14.63
2180 24.5940 232.00 216.51 15.23
2181 24.6030 211.00 217.08 14.53
2182 24.6120 227.00 217.78 15.07
2183 24.6210 198.00 218.60 14.07
2184 24.6300 239.00 219.58 15.46
2185 24.6390 214.00 220.73 14.63
2186 24.6480 218.00 212.54 14.76
2187 24.6570 213.00 214.38 14.59
2188 24.6660 220.00 216.46 14.83
2189 24.6750 205.00 218.82 14.32
2190 24.6840 218.00 221.51 14.76
2191 24.6930 220.00 224.60 14.83
2192 24.7020 214.00 228.17 14.63
2193 24.7110 211.00 232.32 14.53
2194 24.7200 217.00 237.17 14.73
2195 24.7290 226.00 242.90 15.03
2196 24.7380 233.00 249.73 15.26
2197 24.7470 245.00 257.96 15.65
2198 24.7560 239.00 267.99 15.46
2199 24.7650 251.00 280.40 15.84
2200 24.7740 292.00 296.05 17.09
2201 24.7830 303.00 316.33 17.41
2202 24.7920 347.00 344.15 18.63
2203 24.8010 427.00 386.45 20.66
2204 24.8100 535.00 460.80 23.13
2205 24.8190 735.00 608.16 27.11
2206 24.8280 1063.00 909.05 32.60
2207 24.8370 1655.00 1487.35 40.68
2208 24.8460 2540.00 2465.71 50.40
2209 24.8550 3749.00 3846.49 61.23
2210 24.8640 5239.00 5370.50 72.38
2211 24.8730 6313.00 6485.45 79.45
2212 24.8820 6288.00 6571.31 79.30
2213 24.8910 5146.00 5501.56 71.74
2214 24.9000 3578.00 3894.75 59.82
2215 24.9090 2159.00 2433.69 46.47
2216 24.9180 1263.00 1425.86 35.54
2217 24.9270 808.00 860.49 28.43
2218 24.9360 545.00 588.80 23.35
2219 24.9450 454.00 466.88 21.31
2220 24.9540 402.00 408.99 20.05
2221 24.9630 366.00 377.16 19.13
2222 24.9720 314.00 357.55 17.72
2223 24.9810 291.00 345.39 17.06
2224 24.9900 277.00 338.91 16.64
2225 24.9990 281.00 337.09 16.76
2226 25.0080 265.00 339.73 16.28
2227 25.0170 278.00 346.96 16.67
2228 25.0260 290.00 359.33 17.03
2229 25.0350 361.00 377.99 19.00
2230 25.0440 374.00 405.08 19.34
2231 25.0530 461.00 445.49 21.47
2232 25.0620 594.00 512.61 24.37
2233 25.0710 840.00 644.98 28.98
2234 25.0800 1291.00 942.72 35.93
2235 25.0890 2165.00 1619.61 46.53
2236 25.0980 3514.00 3021.46 59.28
2237 25.1070 5739.00 5488.04 75.76
2238 25.1160 9062.00 8955.52 95.19
2239 25.1250 12735.00 12523.90 112.85
2240 25.1340 14586.00 14520.10 120.77
2241 25.1430 13359.00 13538.60 115.58
2242 25.1520 9776.00 10101.00 98.87
2243 25.1610 5920.00 6217.74 76.94
2244 25.1700 3200.00 3308.35 56.57
2245 25.1790 1670.00 1664.44 40.87
2246 25.1880 945.00 917.60 30.74
2247 25.1970 656.00 617.47 25.61
2248 25.2060 488.00 490.05 22.09
2249 25.2150 373.00 421.96 19.31
2250 25.2240 329.00 376.78 18.14
2251 25.2330 302.00 343.47 17.38
2252 25.2420 283.00 317.84 16.82
2253 25.2510 254.00 297.66 15.94
2254 25.2600 231.00 281.47 15.20
2255 25.2690 230.00 268.27 15.17
2256 25.2780 212.00 257.37 14.56
2257 25.2870 237.00 248.25 15.39
2258 25.2960 232.00 240.53 15.23
2259 25.3050 205.00 233.95 14.32
2260 25.3140 228.00 228.28 15.10
2261 25.3230 233.00 223.35 15.26
2262 25.3320 218.00 219.05 14.76
2263 25.3410 191.00 215.26 13.82
2264 25.3500 194.00 211.90 13.93
2265 25.3590 181.00 208.91 13.45
2266 25.3680 198.00 206.23 14.07
2267 25.3770 209.00 203.82 14.46
2268 25.3860 197.00 201.65 14.04
2269 25.3950 202.00 199.68 14.21
2270 25.4040 198.00 197.89 14.07
2271 25.4130 207.00 196.25 14.39
2272 25.4220 204.00 194.76 14.28
2273 25.4310 192.00 193.38 13.86
2274 25.4400 192.00 192.12 13.86
2275 25.4490 193.00 190.96 13.89
2276 25.4580 161.00 189.90 12.69
2277 25.4670 173.00 188.92 13.15
2278 25.4760 197.00 188.01 14.04
2279 25.4850 179.00 187.18 13.38
2280 25.4940 181.00 186.43 13.45
2281 25.5030 208.00 185.74 14.42
2282 25.5120 190.00 185.13 13.78
2283 25.5210 181.00 184.58 13.45
2284 25.5300 190.00 184.11 13.78
2285 25.5390 166.00 181.18 12.88
2286 25.5480 194.00 180.96 13.93
2287 25.5570 190.00 180.84 13.78
2288 25.5660 187.00 180.86 13.67
2289 25.5750 180.00 181.07 13.42
2290 25.5840 176.00 181.56 13.27
2291 25.5930 191.00 182.57 13.82
2292 25.6020 201.00 184.69 14.18
2293 25.6110 212.00 189.19 14.56
2294 25.6200 236.00 198.60 15.36
2295 25.6290 244.00 216.12 15.62
2296 25.6380 246.00 245.14 15.68
2297 25.6470 273.00 285.65 16.52
2298 25.6560 323.00 330.76 17.97
2299 25.6650 341.00 365.73 18.47
2300 25.6740 349.00 373.02 18.68
2301 25.6830 355.00 346.35 18.84
2302 25.6920 287.00 301.21 16.94
2303 25.7010 249.00 255.30 15.78
2304 25.7100 231.00 220.59 15.20
2305 25.7190 204.00 198.96 14.28
2306 25.7280 194.00 187.31 13.93
2307 25.7370 197.00 177.12 14.04
2308 25.7460 195.00 174.26 13.96
2309 25.7550 191.00 172.62 13.82
2310 25.7640 198.00 171.51 14.07
2311 25.7730 173.00 170.67 13.15
2312 25.7820 176.00 170.01 13.27
2313 25.7910 187.00 169.47 13.67
2314 25.8000 166.00 169.02 12.88
2315 25.8090 170.00 168.63 13.04
2316 25.8180 208.00 168.31 14.42
2317 25.8270 199.00 168.02 14.11
2318 25.8360 172.00 167.77 13.11
2319 25.8450 176.00 167.56 13.27
2320 25.8540 184.00 167.36 13.56
2321 25.8630 179.00 167.19 13.38
2322 25.8720 174.00 167.04 13.19
2323 25.8810 183.00 166.91 13.53
2324 25.8900 197.00 166.79 14.04
2325 25.8990 182.00 166.69 13.49
2326 25.9080 188.00 166.60 13.71
2327 25.9170 194.00 166.52 13.93
2328 25.9260 187.00 166.46 13.67
2329 25.9350 171.00 166.42 13.08
2330 25.9440 163.00 166.38 12.77
2331 25.9530 170.00 166.37 13.04
2332 25.9620 174.00 166.37 13.19
2333 25.9710 180.00 166.38 13.42
2334 25.9800 183.00 166.42 13.53
2335 25.9890 187.00 166.47 13.67
2336 25.9980 181.00 166.55 13.45
2337 26.0070 184.00 166.65 13.56
2338 26.0160 184.00 166.78 13.56
2339 26.0250 180.00 166.94 13.42
2340 26.0340 178.00 167.13 13.34
2341 26.0430 189.00 167.37 13.75
2342 26.0520 195.00 167.65 13.96
2343 26.0610 190.00 168.00 13.78
2344 26.0700 189.00 168.41 13.75
2345 26.0790 181.00 168.90 13.45
2346 26.0880 173.00 169.49 13.15
2347 26.0970 168.00 170.21 12.96
2348 26.1060 162.00 171.09 12.73
2349 26.1150 165.00 172.19 12.85
2350 26.1240 168.00 173.58 12.96
2351 26.1330 186.00 175.44 13.64
2352 26.1420 184.00 178.20 13.56
2353 26.1510 201.00 183.11 14.18
2354 26.1600 213.00 193.35 14.59
2355 26.1690 231.00 215.74 15.20
2356 26.1780 286.00 261.09 16.91
2357 26.1870 374.00 339.77 19.34
2358 26.1960 495.00 449.23 22.25
2359 26.2050 647.00 561.14 25.44
2360 26.2140 736.00 624.11 27.13
2361 26.2230 711.00 595.84 26.66
2362 26.2320 562.00 492.82 23.71
2363 26.2410 409.00 375.81 20.22
2364 26.2500 308.00 288.13 17.55
2365 26.2590 209.00 239.70 14.46
2366 26.2680 230.00 220.37 15.17
2367 26.2770 219.00 216.90 14.80
2368 26.2860 232.00 221.32 15.23
2369 26.2950 242.00 231.33 15.56
2370 26.3040 254.00 249.13 15.94
2371 26.3130 301.00 282.58 17.35
2372 26.3220 344.00 349.12 18.55
2373 26.3310 503.00 479.83 22.43
2374 26.3400 725.00 716.72 26.93
2375 26.3490 1013.00 1092.83 31.83
2376 26.3580 1514.00 1593.23 38.91
2377 26.3670 2025.00 2115.93 45.00
2378 26.3760 2383.00 2473.29 48.82
2379 26.3850 2388.00 2473.19 48.87
2380 26.3940 2031.00 2096.42 45.07
2381 26.4030 1470.00 1545.53 38.34
2382 26.4120 940.00 1033.83 30.66
2383 26.4210 610.00 663.03 24.70
2384 26.4300 445.00 439.37 21.09
2385 26.4390 325.00 322.02 18.03
2386 26.4480 264.00 264.60 16.25
2387 26.4570 251.00 235.51 15.84
2388 26.4660 252.00 218.62 15.87
2389 26.4750 221.00 207.22 14.87
2390 26.4840 188.00 198.74 13.71
2391 26.4930 192.00 192.11 13.86
2392 26.5020 202.00 186.81 14.21
2393 26.5110 203.00 182.49 14.25
2394 26.5200 201.00 178.92 14.18
2395 26.5290 193.00 175.93 13.89
2396 26.5380 185.00 173.40 13.60
2397 26.5470 189.00 171.24 13.75
2398 26.5560 191.00 169.37 13.82
2399 26.5650 181.00 167.74 13.45
2400 26.5740 181.00 166.31 13.45
2401 26.5830 184.00 165.05 13.56
2402 26.5920 167.00 163.92 12.92
2403 26.6010 162.00 162.91 12.73
2404 26.6100 178.00 162.00 13.34
2405 26.6190 172.00 161.18 13.11
2406 26.6280 158.00 160.42 12.57
2407 26.6370 190.00 159.74 13.78
2408 26.6460 183.00 159.10 13.53
2409 26.6550 164.00 158.51 12.81
2410 26.6640 175.00 157.97 13.23
2411 26.6730 148.00 157.46 12.17
2412 26.6820 169.00 156.99 13.00
2413 26.6910 161.00 156.54 12.69
2414 26.7000 173.00 156.12 13.15
2415 26.7090 161.00 155.73 12.69
2416 26.7180 172.00 155.35 13.11
2417 26.7270 174.00 155.00 13.19
2418 26.7360 181.00 154.66 13.45
2419 26.7450 157.00 154.33 12.53
2420 26.7540 171.00 154.02 13.08
2421 26.7630 175.00 153.73 13.23
2422 26.7720 190.00 153.44 13.78
2423 26.7810 177.00 153.16 13.30
2424 26.7900 177.00 152.90 13.30
2425 26.7990 196.00 152.64 14.00
2426 26.8080 178.00 152.39 13.34
2427 26.8170 189.00 152.15 13.75
2428 26.8260 180.00 151.92 13.42
2429 26.8350 158.00 151.55 12.57
2430 26.8440 165.00 151.34 12.85
2431 26.8530 173.00 151.12 13.15
2432 26.8620 167.00 150.92 12.92
2433 26.8710 173.00 150.71 13.15
2434 26.8800 167.00 150.51 12.92
2435 26.8890 158.00 150.32 12.57
2436 26.8980 144.00 150.13 12.00
2437 26.9070 151.00 149.94 12.29
2438 26.9160 178.00 149.76 13.34
2439 26.9250 188.00 149.58 13.71
2440 26.9340 178.00 149.40 13.34
2441 26.9430 165.00 149.22 12.85
2442 26.9520 170.00 149.05 13.04
2443 26.9610 165.00 148.88 12.85
2444 26.9700 161.00 148.71 12.69
2445 26.9790 167.00 148.54 12.92
2446 26.9880 162.00 148.38 12.73
2447 26.9970 170.00 148.22 13.04
2448 27.0060 167.00 148.06 12.92
2449 27.0150 172.00 147.90 13.11
2450 27.0240 160.00 147.74 12.65
2451 27.0330 164.00 147.59 12.81
2452 27.0420 152.00 147.43 12.33
2453 27.0510 165.00 147.28 12.85
2454 27.0600 162.00 147.13 12.73
2455 27.0690 177.00 146.98 13.30
2456 27.0780 167.00 146.83 12.92
2457 27.0870 157.00 145.69 12.53
2458 27.0960 155.00 145.57 12.45
2459 27.1040 149.00 145.45 12.21
2460 27.1130 169.00 145.33 13.00
2461 27.1220 173.00 145.21 13.15
2462 27.1310 160.00 145.09 12.65
2463 27.1400 178.00 144.97 13.34
2464 27.1490 175.00 144.85 13.23
2465 27.1580 160.00 144.73 12.65
2466 27.1670 177.00 144.61 13.30
2467 27.1760 165.00 144.49 12.85
2468 27.1850 172.00 144.37 13.11
2469 27.1940 155.00 144.25 12.45
2470 27.2030 183.00 144.13 13.53
2471 27.2120 189.00 144.01 13.75
2472 27.2210 183.00 143.89 13.53
2473 27.2300 186.00 143.77 13.64
2474 27.2390 178.00 143.65 13.34
2475 27.2480 171.00 143.54 13.08
2476 27.2570 158.00 143.42 12.57
2477 27.2660 175.00 143.30 13.23
2478 27.2750 181.00 143.18 13.45
2479 27.2840 182.00 143.06 13.49
2480 27.2930 179.00 142.95 13.38
2481 27.3020 180.00 142.83 13.42
2482 27.3110 176.00 142.71 13.27
2483 27.3200 165.00 142.60 12.85
2484 27.3290 174.00 142.48 13.19
2485 27.3380 182.00 142.36 13.49
2486 27.3470 190.00 142.24 13.78
2487 27.3560 197.00 142.13 14.04
2488 27.3650 189.00 142.01 13.75
2489 27.3740 175.00 141.90 13.23
2490 27.3830 162.00 141.78 12.73
2491 27.3920 169.00 141.66 13.00
2492 27.4010 177.00 141.55 13.30
2493 27.4100 179.00 141.43 13.38
2494 27.4190 160.00 141.32 12.65
2495 27.4280 149.00 141.20 12.21
2496 27.4370 166.00 141.09 12.88
2497 27.4460 171.00 140.98 13.08
2498 27.4550 179.00 140.86 13.38
2499 27.4640 182.00 140.75 13.49
2500 27.4730 157.00 140.63 12.53
2501 27.4820 177.00 140.52 13.30
2502 27.4910 179.00 140.41 13.38
2503 27.5000 183.00 140.29 13.53
2504 27.5090 175.00 140.18 13.23
2505 27.5180 176.00 140.07 13.27
2506 27.5270 173.00 139.95 13.15
2507 27.5360 173.00 139.84 13.15
2508 27.5450 155.00 139.73 12.45
2509 27.5540 190.00 139.62 13.78
2510 27.5630 157.00 139.50 12.53
2511 27.5720 175.00 139.39 13.23
2512 27.5810 145.00 139.28 12.04
2513 27.5900 159.00 139.17 12.61
2514 27.5990 178.00 139.06 13.34
2515 27.6080 160.00 138.95 12.65
2516 27.6170 170.00 138.83 13.04
2517 27.6260 151.00 138.72 12.29
2518 27.6350 154.00 138.61 12.41
2519 27.6440 166.00 138.50 12.88
2520 27.6530 162.00 138.39 12.73
2521 27.6620 175.00 138.28 13.23
2522 27.6710 176.00 138.17 13.27
2523 27.6800 163.00 138.06 12.77
2524 27.6890 171.00 137.95 13.08
2525 27.6980 147.00 137.84 12.12
2526 27.7070 158.00 141.26 12.57
2527 27.7160 169.00 141.24 13.00
2528 27.7250 152.00 141.23 12.33
2529 27.7340 174.00 141.22 13.19
2530 27.7430 179.00 141.21 13.38
2531 27.7520 164.00 141.21 12.81
2532 27.7610 161.00 141.22 12.69
2533 27.7700 170.00 141.23 13.04
2534 27.7790 175.00 141.24 13.23
2535 27.7880 176.00 141.26 13.27
2536 27.7970 178.00 142.01 13.34
2537 27.8060 177.00 142.06 13.30
2538 27.8150 177.00 142.12 13.30
2539 27.8240 159.00 142.18 12.61
2540 27.8330 161.00 142.26 12.69
2541 27.8420 168.00 142.34 12.96
2542 27.8510 167.00 142.43 12.92
2543 27.8600 161.00 142.54 12.69
2544 27.8690 167.00 142.65 12.92
2545 27.8780 181.00 142.77 13.45
2546 27.8870 174.00 142.91 13.19
2547 27.8960 167.00 143.06 12.92
2548 27.9050 142.00 143.22 11.92
2549 27.9140 165.00 143.40 12.85
2550 27.9230 139.00 143.59 11.79
2551 27.9320 155.00 143.80 12.45
2552 27.9410 157.00 144.03 12.53
2553 27.9500 164.00 144.28 12.81
2554 27.9590 183.00 147.24 13.53
2555 27.9680 160.00 147.62 12.65
2556 27.9770 186.00 148.02 13.64
2557 27.9860 168.00 148.45 12.96
2558 27.9950 156.00 148.91 12.49
2559 28.0040 175.00 149.41 13.23
2560 28.0130 168.00 149.95 12.96
2561 28.0220 181.00 150.53 13.45
2562 28.0310 162.00 151.16 12.73
2563 28.0400 161.00 151.84 12.69
2564 28.0490 179.00 152.57 13.38
2565 28.0580 164.00 153.37 12.81
2566 28.0670 162.00 154.23 12.73
2567 28.0760 197.00 155.17 14.04
2568 28.0850 167.00 156.19 12.92
2569 28.0940 175.00 157.30 13.23
2570 28.1030 158.00 158.51 12.57
2571 28.1120 161.00 159.84 12.69
2572 28.1210 173.00 161.29 13.15
2573 28.1300 158.00 162.88 12.57
2574 28.1390 159.00 164.64 12.61
2575 28.1480 170.00 166.57 13.04
2576 28.1570 181.00 168.72 13.45
2577 28.1660 176.00 171.10 13.27
2578 28.1750 171.00 173.76 13.08
2579 28.1840 172.00 176.72 13.11
2580 28.1930 192.00 180.05 13.86
2581 28.2020 206.00 183.81 14.35
2582 28.2110 194.00 188.07 13.93
2583 28.2200 189.00 192.93 13.75
2584 28.2290 186.00 198.49 13.64
2585 28.2380 192.00 204.90 13.86
2586 28.2470 215.00 212.35 14.66
2587 28.2560 215.00 221.07 14.66
2588 28.2650 198.00 231.38 14.07
2589 28.2740 214.00 243.67 14.63
2590 28.2830 235.00 258.51 15.33
2591 28.2920 291.00 276.64 17.06
2592 28.3010 292.00 299.20 17.09
2593 28.3100 308.00 328.01 17.55
2594 28.3190 373.00 366.67 19.31
2595 28.3280 477.00 423.49 21.84
2596 28.3370 608.00 518.41 24.66
2597 28.3460 839.00 695.92 28.97
2598 28.3550 1273.00 1040.36 35.68
2599 28.3640 1879.00 1678.31 43.35
2600 28.3730 2826.00 2738.03 53.16
2601 28.3820 4284.00 4245.43 65.45
2602 28.3910 6114.00 5991.96 78.19
2603 28.4000 7681.00 7469.04 87.64
2604 28.4090 8234.00 8010.90 90.74
2605 28.4180 7473.00 7269.95 86.45
2606 28.4270 5472.00 5669.86 73.97
2607 28.4360 3566.00 3959.86 59.72
2608 28.4450 2425.00 2646.23 49.24
2609 28.4540 1788.00 1898.02 42.28
2610 28.4630 1499.00 1656.41 38.72
2611 28.4720 1543.00 1748.92 39.28
2612 28.4810 1764.00 1963.90 42.00
2613 28.4900 1966.00 2092.62 44.34
2614 28.4990 1856.00 1997.90 43.08
2615 28.5080 1675.00 1717.52 40.93
2616 28.5170 1508.00 1430.14 38.83
2617 28.5260 1567.00 1332.05 39.59
2618 28.5350 1983.00 1615.56 44.53
2619 28.5440 2819.00 2467.70 53.09
2620 28.5530 4231.00 3968.84 65.05
2621 28.5620 6160.00 5888.07 78.49
2622 28.5710 7904.00 7553.23 88.90
2623 28.5800 8413.00 8067.01 91.72
2624 28.5890 7302.00 7015.59 85.45
2625 28.5980 5243.00 5036.89 72.41
2626 28.6070 3172.00 3096.76 56.32
2627 28.6160 1744.00 1718.99 41.76
2628 28.6250 986.00 946.88 31.40
2629 28.6340 616.00 584.89 24.82
2630 28.6430 444.00 428.91 21.07
2631 28.6520 356.00 356.42 18.87
2632 28.6610 317.00 314.97 17.80
2633 28.6700 270.00 286.47 16.43
2634 28.6790 228.00 264.98 15.10
2635 28.6880 213.00 248.13 14.59
2636 28.6970 214.00 234.64 14.63
2637 28.7060 211.00 223.66 14.53
2638 28.7150 188.00 214.62 13.71
2639 28.7240 201.00 207.10 14.18
2640 28.7330 194.00 200.78 13.93
2641 28.7420 174.00 195.44 13.19
2642 28.7510 187.00 190.90 13.67
2643 28.7600 173.00 187.04 13.15
2644 28.7690 163.00 183.73 12.77
2645 28.7780 180.00 180.91 13.42
2646 28.7870 185.00 178.51 13.60
2647 28.7960 176.00 176.49 13.27
2648 28.8050 160.00 174.79 12.65
2649 28.8140 165.00 173.39 12.85
2650 28.8230 164.00 172.28 12.81
2651 28.8320 185.00 171.43 13.60
2652 28.8410 167.00 170.85 12.92
2653 28.8500 170.00 170.56 13.04
2654 28.8590 160.00 170.59 12.65
2655 28.8680 184.00 171.01 13.56
2656 28.8770 181.00 171.85 13.45
2657 28.8860 194.00 173.06 13.93
2658 28.8950 193.00 174.51 13.89
2659 28.9040 176.00 175.94 13.27
2660 28.9130 192.00 177.20 13.86
2661 28.9220 200.00 178.47 14.14
2662 28.9310 189.00 180.07 13.75
2663 28.9400 169.00 182.27 13.00
2664 28.9490 169.00 187.53 13.00
2665 28.9580 166.00 191.33 12.88
2666 28.9670 165.00 195.99 12.85
2667 28.9760 164.00 201.64 12.81
2668 28.9850 173.00 208.45 13.15
2669 28.9940 182.00 216.67 13.49
2670 29.0030 189.00 226.68 13.75
2671 29.0120 203.00 238.98 14.25
2672 29.0210 206.00 254.23 14.35
2673 29.0300 227.00 273.46 15.07
2674 29.0390 273.00 298.33 16.52
2675 29.0480 330.00 332.16 18.17
2676 29.0570 408.00 382.58 20.20
2677 29.0660 539.00 467.96 23.22
2678 29.0750 736.00 629.33 27.13
2679 29.0840 1070.00 944.47 32.71
2680 29.0930 1622.00 1529.93 40.27
2681 29.1020 2414.00 2502.83 49.13
2682 29.1110 3678.00 3888.21 60.65
2683 29.1200 5405.00 5496.15 73.52
2684 29.1290 7037.00 6855.90 83.89
2685 29.1380 7818.00 7359.26 88.42
2686 29.1470 7044.00 6674.92 83.93
2687 29.1560 5278.00 5174.89 72.65
2688 29.1650 3503.00 3537.73 59.19
2689 29.1740 2143.00 2209.07 46.29
2690 29.1830 1273.00 1323.75 35.68
2691 29.1920 810.00 818.22 28.46
2692 29.2010 578.00 558.58 24.04
2693 29.2100 456.00 428.31 21.35
2694 29.2190 349.00 356.07 18.68
2695 29.2280 310.00 312.82 17.61
2696 29.2370 249.00 282.36 15.78
2697 29.2460 229.00 259.27 15.13
2698 29.2550 227.00 241.16 15.07
2699 29.2640 210.00 226.68 14.49
2700 29.2730 184.00 214.95 13.56
2701 29.2820 176.00 205.34 13.27
2702 29.2910 190.00 197.40 13.78
2703 29.3000 147.00 190.80 12.12
2704 29.3090 176.00 185.29 13.27
2705 29.3180 170.00 180.67 13.04
2706 29.3270 170.00 176.81 13.04
2707 29.3360 182.00 173.58 13.49
2708 29.3450 179.00 170.89 13.38
2709 29.3540 153.00 168.69 12.37
2710 29.3630 176.00 166.91 13.27
2711 29.3720 187.00 165.53 13.67
2712 29.3810 170.00 164.50 13.04
2713 29.3900 175.00 163.82 13.23
2714 29.3990 183.00 163.47 13.53
2715 29.4080 184.00 163.45 13.56
2716 29.4170 160.00 163.78 12.65
2717 29.4260 158.00 164.46 12.57
2718 29.4350 173.00 165.53 13.15
2719 29.4440 174.00 167.02 13.19
2720 29.4530 187.00 169.00 13.67
2721 29.4620 192.00 171.52 13.86
2722 29.4710 179.00 174.70 13.38
2723 29.4800 184.00 178.65 13.56
2724 29.4890 180.00 183.55 13.42
2725 29.4980 183.00 189.63 13.53
2726 29.5070 206.00 197.19 14.35
2727 29.5160 207.00 206.67 14.39
2728 29.5250 230.00 218.68 15.17
2729 29.5340 260.00 234.20 16.12
2730 29.5430 268.00 255.05 16.37
2731 29.5520 323.00 285.25 17.97
2732 29.5610 425.00 334.90 20.62
2733 29.5700 572.00 428.00 23.92
2734 29.5790 831.00 614.38 28.83
2735 29.5880 1228.00 977.08 35.04
2736 29.5970 1898.00 1614.21 43.57
2737 29.6060 2735.00 2576.16 52.30
2738 29.6150 3912.00 3764.99 62.55
2739 29.6240 4845.00 4864.00 69.61
2740 29.6330 5230.00 5396.72 72.32
2741 29.6420 4821.00 5030.98 69.43
2742 29.6510 3682.00 3965.55 60.68
2743 29.6600 2343.00 2728.08 48.40
2744 29.6690 1476.00 1700.21 38.42
2745 29.6780 869.00 1012.57 29.48
2746 29.6870 589.00 623.25 24.27
2747 29.6960 428.00 427.12 20.69
2748 29.7050 345.00 331.66 18.57
2749 29.7140 285.00 281.32 16.88
2750 29.7230 234.00 250.36 15.30
2751 29.7320 206.00 228.55 14.35
2752 29.7410 202.00 211.98 14.21
2753 29.7500 211.00 198.94 14.53
2754 29.7590 190.00 188.45 13.78
2755 29.7680 190.00 179.88 13.78
2756 29.7770 190.00 172.80 13.78
2757 29.7860 195.00 166.86 13.96
2758 29.7950 163.00 161.85 12.77
2759 29.8040 151.00 157.56 12.29
2760 29.8130 151.00 153.87 12.29
2761 29.8220 166.00 150.66 12.88
2762 29.8310 160.00 147.86 12.65
2763 29.8400 162.00 145.40 12.73
2764 29.8490 155.00 143.21 12.45
2765 29.8580 145.00 141.27 12.04
2766 29.8670 160.00 136.49 12.65
2767 29.8760 163.00 135.00 12.77
2768 29.8850 151.00 133.66 12.29
2769 29.8940 152.00 132.45 12.33
2770 29.9030 158.00 131.35 12.57
2771 29.9120 154.00 130.35 12.41
2772 29.9210 150.00 129.43 12.25
2773 29.9300 154.00 128.59 12.41
2774 29.9390 154.00 127.82 12.41
2775 29.9480 157.00 127.11 12.53
2776 29.9570 161.00 126.45 12.69
2777 29.9660 155.00 125.83 12.45
2778 29.9750 135.00 125.26 11.62
2779 29.9840 136.00 124.73 11.66
2780 29.9930 155.00 124.24 12.45
2781 30.0020 139.00 123.77 11.79
2782 30.0110 149.00 123.33 12.21
2783 30.0200 145.00 122.93 12.04
2784 30.0290 139.00 122.54 11.79
2785 30.0380 157.00 122.17 12.53
2786 30.0470 137.00 121.83 11.70
2787 30.0560 141.00 121.50 11.87
2788 30.0650 147.00 121.19 12.12
2789 30.0740 168.00 120.89 12.96
2790 30.0830 155.00 120.61 12.45
2791 30.0920 140.00 120.34 11.83
2792 30.1010 142.00 120.08 11.92
2793 30.1100 158.00 119.84 12.57
2794 30.1190 144.00 119.60 12.00
2795 30.1280 159.00 119.38 12.61
2796 30.1370 153.00 119.16 12.37
2797 30.1460 132.00 118.95 11.49
2798 30.1550 133.00 118.75 11.53
2799 30.1640 124.00 118.56 11.14
2800 30.1730 127.00 118.37 11.27
2801 30.1820 124.00 118.19 11.14
2802 30.1910 146.00 118.02 12.08
2803 30.2000 145.00 117.85 12.04
2804 30.2090 141.00 117.68 11.87
2805 30.2180 135.00 117.53 11.62
2806 30.2270 146.00 117.37 12.08
2807 30.2360 145.00 117.22 12.04
2808 30.2450 149.00 117.08 12.21
2809 30.2540 151.00 116.94 12.29
2810 30.2630 144.00 121.15 12.00
2811 30.2720 151.00 121.12 12.29
2812 30.2810 144.00 121.10 12.00
2813 30.2900 132.00 121.09 11.49
2814 30.2980 141.00 121.09 11.87
2815 30.3070 148.00 121.09 12.17
2816 30.3160 150.00 121.10 12.25
2817 30.3250 156.00 121.12 12.49
2818 30.3340 162.00 121.15 12.73
2819 30.3430 159.00 119.04 12.61
2820 30.3520 147.00 119.14 12.12
2821 30.3610 143.00 119.24 11.96
2822 30.3700 143.00 119.35 11.96
2823 30.3790 144.00 119.47 12.00
2824 30.3880 152.00 119.60 12.33
2825 30.3970 154.00 119.73 12.41
2826 30.4060 150.00 119.88 12.25
2827 30.4150 145.00 120.03 12.04
2828 30.4240 147.00 120.19 12.12
2829 30.4330 135.00 120.36 11.62
2830 30.4420 135.00 120.55 11.62
2831 30.4510 143.00 120.75 11.96
2832 30.4600 145.00 120.96 12.04
2833 30.4690 149.00 121.18 12.21
2834 30.4780 134.00 121.42 11.58
2835 30.4870 139.00 121.67 11.79
2836 30.4960 151.00 121.94 12.29
2837 30.5050 128.00 122.23 11.31
2838 30.5140 145.00 122.54 12.04
2839 30.5230 140.00 122.87 11.83
2840 30.5320 132.00 123.22 11.49
2841 30.5410 148.00 123.59 12.17
2842 30.5500 125.00 123.99 11.18
2843 30.5590 146.00 124.42 12.08
2844 30.5680 135.00 124.88 11.62
2845 30.5770 129.00 125.38 11.36
2846 30.5860 134.00 125.90 11.58
2847 30.5950 152.00 126.47 12.33
2848 30.6040 140.00 127.08 11.83
2849 30.6130 137.00 127.74 11.70
2850 30.6220 141.00 128.45 11.87
2851 30.6310 148.00 129.21 12.17
2852 30.6400 133.00 130.04 11.53
2853 30.6490 145.00 130.93 12.04
2854 30.6580 153.00 131.90 12.37
2855 30.6670 142.00 132.96 11.92
2856 30.6760 154.00 134.10 12.41
2857 30.6850 150.00 135.35 12.25
2858 30.6940 135.00 136.72 11.62
2859 30.7030 137.00 138.21 11.70
2860 30.7120 146.00 139.86 12.08
2861 30.7210 151.00 141.66 12.29
2862 30.7300 145.00 143.66 12.04
2863 30.7390 149.00 145.87 12.21
2864 30.7480 151.00 148.32 12.29
2865 30.7570 158.00 151.05 12.57
2866 30.7660 172.00 154.11 13.11
2867 30.7750 165.00 157.54 12.85
2868 30.7840 155.00 161.41 12.45
2869 30.7930 143.00 168.70 11.96
2870 30.8020 147.00 173.77 12.12
2871 30.8110 177.00 179.57 13.30
2872 30.8200 177.00 186.24 13.30
2873 30.8290 189.00 193.96 13.75
2874 30.8380 206.00 202.98 14.35
2875 30.8470 216.00 213.59 14.70
2876 30.8560 230.00 226.18 15.17
2877 30.8650 225.00 241.27 15.00
2878 30.8740 236.00 259.58 15.36
2879 30.8830 262.00 282.07 16.19
2880 30.8920 329.00 310.22 18.14
2881 30.9010 342.00 346.52 18.49
2882 30.9100 433.00 395.99 20.81
2883 30.9190 546.00 470.21 23.37
2884 30.9280 760.00 596.25 27.57
2885 30.9370 1024.00 831.71 32.00
2886 30.9460 1508.00 1280.23 38.83
2887 30.9550 2132.00 2086.90 46.17
2888 30.9640 3218.00 3386.90 56.73
2889 30.9730 4943.00 5191.95 70.31
2890 30.9820 6927.00 7248.36 83.23
2891 30.9910 8880.00 8974.82 94.23
2892 31.0000 9820.00 9612.50 99.10
2893 31.0090 8823.00 8768.23 93.93
2894 31.0180 6827.00 6890.31 82.63
2895 31.0270 4587.00 4802.25 67.73
2896 31.0360 2935.00 3059.47 54.18
2897 31.0450 1822.00 1855.23 42.68
2898 31.0540 1178.00 1137.30 34.32
2899 31.0630 756.00 752.93 27.50
2900 31.0720 562.00 555.77 23.71
2901 31.0810 422.00 449.64 20.54
2902 31.0900 350.00 385.10 18.71
2903 31.0990 312.00 340.50 17.66
2904 31.1080 280.00 307.05 16.73
2905 31.1170 235.00 280.86 15.33
2906 31.1260 217.00 259.90 14.73
2907 31.1350 199.00 242.89 14.11
2908 31.1440 182.00 228.93 13.49
2909 31.1530 175.00 217.37 13.23
2910 31.1620 162.00 207.73 12.73
2911 31.1710 161.00 199.64 12.69
2912 31.1800 169.00 192.83 13.00
2913 31.1890 170.00 187.08 13.04
2914 31.1980 166.00 182.22 12.88
2915 31.2070 164.00 178.13 12.81
2916 31.2160 162.00 174.70 12.73
2917 31.2250 158.00 171.84 12.57
2918 31.2340 152.00 169.51 12.33
2919 31.2430 143.00 167.64 11.96
2920 31.2520 147.00 166.21 12.12
2921 31.2610 154.00 165.19 12.41
2922 31.2700 142.00 164.56 11.92
2923 31.2790 131.00 164.32 11.45
2924 31.2880 151.00 164.47 12.29
2925 31.2970 164.00 165.02 12.81
2926 31.3060 155.00 166.00 12.45
2927 31.3150 134.00 167.43 11.58
2928 31.3240 166.00 169.37 12.88
2929 31.3330 158.00 171.87 12.57
2930 31.3420 150.00 175.02 12.25
2931 31.3510 164.00 178.93 12.81
2932 31.3600 168.00 183.73 12.96
2933 31.3690 159.00 189.62 12.61
2934 31.3780 156.00 196.83 12.49
2935 31.3870 189.00 205.69 13.75
2936 31.3960 200.00 216.64 14.14
2937 31.4050 235.00 230.30 15.33
2938 31.4140 253.00 247.57 15.91
2939 31.4230 252.00 269.96 15.87
2940 31.4320 319.00 300.42 17.86
2941 31.4410 376.00 345.76 19.39
2942 31.4500 533.00 422.18 23.09
2943 31.4590 735.00 564.96 27.11
2944 31.4680 1064.00 839.86 32.62
2945 31.4770 1516.00 1343.71 38.94
2946 31.4860 2289.00 2172.98 47.84
2947 31.4950 3335.00 3351.49 57.75
2948 31.5040 4589.00 4731.10 67.74
2949 31.5130 5862.00 5937.87 76.56
2950 31.5220 6512.00 6455.39 80.70
2951 31.5310 5944.00 5971.53 77.10
2952 31.5400 4687.00 4745.36 68.46
2953 31.5490 3252.00 3335.32 57.03
2954 31.5580 2051.00 2140.84 45.29
2955 31.5670 1286.00 1308.24 35.86
2956 31.5760 845.00 810.36 29.07
2957 31.5850 564.00 543.90 23.75
2958 31.5940 414.00 407.78 20.35
2959 31.6030 329.00 335.10 18.14
2960 31.6120 276.00 291.16 16.61
2961 31.6210 248.00 260.86 15.75
2962 31.6300 221.00 238.09 14.87
2963 31.6390 206.00 220.19 14.35
2964 31.6480 183.00 205.80 13.53
2965 31.6570 183.00 194.04 13.53
2966 31.6660 169.00 184.30 13.00
2967 31.6750 163.00 176.14 12.77
2968 31.6840 169.00 169.24 13.00
2969 31.6930 151.00 163.35 12.29
2970 31.7020 133.00 158.28 11.53
2971 31.7110 134.00 153.89 11.58
2972 31.7200 126.00 150.05 11.23
2973 31.7290 134.00 146.68 11.58
2974 31.7380 141.00 143.70 11.87
2975 31.7470 134.00 141.05 11.58
2976 31.7560 151.00 134.59 12.29
2977 31.7650 128.00 132.56 11.31
2978 31.7740 132.00 130.75 11.49
2979 31.7830 134.00 129.11 11.58
2980 31.7920 150.00 127.63 12.25
2981 31.8010 124.00 126.29 11.14
2982 31.8100 148.00 125.07 12.17
2983 31.8190 142.00 123.95 11.92
2984 31.8280 143.00 122.92 11.96
2985 31.8370 121.00 121.98 11.00
2986 31.8460 141.00 121.12 11.87
2987 31.8550 133.00 120.32 11.53
2988 31.8640 144.00 119.58 12.00
2989 31.8730 133.00 118.90 11.53
2990 31.8820 129.00 118.26 11.36
2991 31.8910 141.00 117.67 11.87
2992 31.9000 145.00 117.11 12.04
2993 31.9090 137.00 116.60 11.70
2994 31.9180 118.00 116.11 10.86
2995 31.9270 134.00 115.66 11.58
2996 31.9360 137.00 115.23 11.70
2997 31.9450 133.00 114.83 11.53
2998 31.9540 132.00 114.46 11.49
2999 31.9630 136.00 114.10 11.66
3000 31.9720 141.00 113.76 11.87
3001 31.9810 147.00 113.44 12.12
3002 31.9900 136.00 113.14 11.66
3003 31.9990 121.00 112.86 11.00
3004 32.0080 130.00 112.59 11.40
3005 32.0170 149.00 112.33 12.21
3006 32.0260 144.00 112.08 12.00
3007 32.0350 140.00 111.85 11.83
3008 32.0440 146.00 111.62 12.08
3009 32.0530 136.00 111.41 11.66
3010 32.0620 132.00 111.21 11.49
3011 32.0710 134.00 111.01 11.58
3012 32.0800 133.00 110.83 11.53
3013 32.0890 133.00 110.65 11.53
3014 32.0980 124.00 110.48 11.14
3015 32.1070 135.00 110.31 11.62
3016 32.1160 141.00 110.16 11.87
3017 32.1250 124.00 110.00 11.14
3018 32.1340 112.00 109.86 10.58
3019 32.1430 125.00 109.72 11.18
3020 32.1520 131.00 109.58 11.45
3021 32.1610 110.00 109.45 10.49
3022 32.1700 114.00 109.33 10.68
3023 32.1790 109.00 109.28 10.44
3024 32.1880 126.00 109.17 11.23
3025 32.1970 130.00 109.05 11.40
3026 32.2060 135.00 108.95 11.62
3027 32.2150 139.00 108.84 11.79
3028 32.2240 127.00 108.74 11.27
3029 32.2330 143.00 108.65 11.96
3030 32.2420 128.00 108.55 11.31
3031 32.2510 123.00 108.46 11.09
3032 32.2600 127.00 108.37 11.27
3033 32.2690 136.00 105.54 11.66
3034 32.2780 126.00 105.53 11.23
3035 32.2870 121.00 110.74 11.00
3036 32.2960 142.00 110.85 11.92
3037 32.3050 128.00 110.97 11.31
3038 32.3140 135.00 111.10 11.62
3039 32.3230 120.00 111.23 10.95
3040 32.3320 121.00 111.37 11.00
3041 32.3410 134.00 111.52 11.58
3042 32.3500 133.00 111.67 11.53
3043 32.3590 124.00 111.83 11.14
3044 32.3680 129.00 112.00 11.36
3045 32.3770 121.00 112.18 11.00
3046 32.3860 126.00 112.36 11.23
3047 32.3950 137.00 112.56 11.70
3048 32.4040 139.00 112.76 11.79
3049 32.4130 140.00 112.98 11.83
3050 32.4220 132.00 113.21 11.49
3051 32.4310 130.00 113.45 11.40
3052 32.4400 133.00 113.70 11.53
3053 32.4490 128.00 113.96 11.31
3054 32.4580 127.00 114.24 11.27
3055 32.4670 131.00 114.53 11.45
3056 32.4760 125.00 114.84 11.18
3057 32.4850 121.00 115.17 11.00
3058 32.4940 133.00 115.52 11.53
3059 32.5030 136.00 115.89 11.66
3060 32.5120 134.00 116.27 11.58
3061 32.5210 133.00 116.68 11.53
3062 32.5300 120.00 117.12 10.95
3063 32.5390 132.00 117.58 11.49
3064 32.5480 130.00 118.08 11.40
3065 32.5570 135.00 118.60 11.62
3066 32.5660 127.00 119.16 11.27
3067 32.5750 122.00 119.75 11.05
3068 32.5840 138.00 120.39 11.75
3069 32.5930 139.00 121.07 11.79
3070 32.6020 141.00 121.80 11.87
3071 32.6110 106.00 122.58 10.30
3072 32.6200 129.00 123.42 11.36
3073 32.6290 130.00 124.32 11.40
3074 32.6380 134.00 125.30 11.58
3075 32.6470 126.00 126.36 11.23
3076 32.6560 125.00 127.50 11.18
3077 32.6650 131.00 128.74 11.45
3078 32.6740 123.00 130.09 11.09
3079 32.6830 138.00 131.56 11.75
3080 32.6920 141.00 133.18 11.87
3081 32.7010 144.00 134.95 12.00
3082 32.7100 141.00 136.91 11.87
3083 32.7190 122.00 139.08 11.05
3084 32.7280 137.00 141.50 11.70
3085 32.7370 143.00 144.22 11.96
3086 32.7460 169.00 147.29 13.00
3087 32.7550 169.00 150.82 13.00
3088 32.7640 150.00 155.00 12.25
3089 32.7730 143.00 160.28 11.96
3090 32.7820 162.00 167.77 12.73
3091 32.7910 161.00 179.86 12.69
3092 32.8000 176.00 200.51 13.27
3093 32.8090 217.00 234.26 14.73
3094 32.8180 264.00 282.78 16.25
3095 32.8270 317.00 339.91 17.80
3096 32.8360 371.00 389.40 19.26
3097 32.8450 387.00 410.70 19.67
3098 32.8540 353.00 396.12 18.79
3099 32.8630 307.00 361.75 17.52
3100 32.8720 278.00 330.11 16.67
3101 32.8810 267.00 314.38 16.34
3102 32.8900 296.00 317.73 17.20
3103 32.8990 326.00 337.97 18.06
3104 32.9080 342.00 372.87 18.49
3105 32.9170 441.00 424.00 21.00
3106 32.9260 602.00 500.65 24.54
3107 32.9350 799.00 629.06 28.27
3108 32.9440 1141.00 870.79 33.78
3109 32.9530 1640.00 1346.60 40.50
3110 32.9620 2447.00 2244.66 49.47
3111 32.9710 3857.00 3768.93 62.10
3112 32.9800 5741.00 5992.48 75.77
3113 32.9890 7986.00 8658.91 89.36
3114 32.9980 10261.00 11047.40 101.30
3115 33.0070 11221.00 12123.40 105.93
3116 33.0160 10337.00 11232.60 101.67
3117 33.0250 7727.00 8868.36 87.90
3118 33.0340 5156.00 6141.59 71.81
3119 33.0430 3164.00 3847.82 56.25
3120 33.0520 1818.00 2272.15 42.64
3121 33.0610 1136.00 1347.87 33.70
3122 33.0700 847.00 865.23 29.10
3123 33.0790 582.00 623.93 24.12
3124 33.0880 470.00 496.48 21.68
3125 33.0970 380.00 419.40 19.49
3126 33.1060 331.00 366.08 18.19
3127 33.1150 278.00 325.96 16.67
3128 33.1240 242.00 294.87 15.56
3129 33.1330 222.00 269.61 14.90
3130 33.1420 230.00 249.02 15.17
3131 33.1510 177.00 232.03 13.30
3132 33.1600 170.00 217.84 13.04
3133 33.1690 177.00 205.88 13.30
3134 33.1780 160.00 195.72 12.65
3135 33.1870 169.00 187.00 13.00
3136 33.1950 142.00 179.47 11.92
3137 33.2040 142.00 172.93 11.92
3138 33.2130 146.00 167.21 12.08
3139 33.2220 136.00 162.17 11.66
3140 33.2310 133.00 157.73 11.53
3141 33.2400 129.00 153.77 11.36
3142 33.2490 157.00 150.25 12.53
3143 33.2580 149.00 147.09 12.21
3144 33.2670 131.00 144.26 11.45
3145 33.2760 135.00 141.70 11.62
3146 33.2850 137.00 139.38 11.70
3147 33.2940 129.00 137.28 11.36
3148 33.3030 129.00 135.36 11.36
3149 33.3120 127.00 133.62 11.27
3150 33.3210 128.00 132.02 11.31
3151 33.3300 132.00 130.56 11.49
3152 33.3390 131.00 129.21 11.45
3153 33.3480 135.00 127.97 11.62
3154 33.3570 121.00 126.83 11.00
3155 33.3660 123.00 125.77 11.09
3156 33.3750 131.00 124.80 11.45
3157 33.3840 129.00 123.89 11.36
3158 33.3930 123.00 123.06 11.09
3159 33.4020 119.00 122.28 10.91
3160 33.4110 135.00 121.56 11.62
3161 33.4200 127.00 120.89 11.27
3162 33.4290 123.00 120.26 11.09
3163 33.4380 135.00 119.68 11.62
3164 33.4470 125.00 119.14 11.18
3165 33.4560 131.00 118.63 11.45
3166 33.4650 131.00 118.17 11.45
3167 33.4740 119.00 117.73 10.91
3168 33.4830 125.00 117.33 11.18
3169 33.4920 131.00 116.95 11.45
3170 33.5010 107.00 116.61 10.34
3171 33.5100 118.00 116.29 10.86
3172 33.5190 114.00 115.99 10.68
3173 33.5280 141.00 115.65 11.87
3174 33.5370 120.00 115.41 10.95
3175 33.5460 141.00 115.19 11.87
3176 33.5550 107.00 114.99 10.34
3177 33.5640 111.00 114.81 10.54
3178 33.5730 122.00 114.66 11.05
3179 33.5820 121.00 114.54 11.00
3180 33.5910 111.00 114.43 10.54
3181 33.6000 128.00 114.35 11.31
3182 33.6090 114.00 114.30 10.68
3183 33.6180 123.00 114.27 11.09
3184 33.6270 137.00 114.27 11.70
3185 33.6360 131.00 114.30 11.45
3186 33.6450 124.00 114.36 11.14
3187 33.6540 119.00 114.46 10.91
3188 33.6630 103.00 114.61 10.15
3189 33.6720 112.00 114.80 10.58
3190 33.6810 120.00 115.03 10.95
3191 33.6900 127.00 115.32 11.27
3192 33.6990 114.00 115.68 10.68
3193 33.7080 114.00 116.12 10.68
3194 33.7170 131.00 116.65 11.45
3195 33.7260 136.00 117.29 11.66
3196 33.7350 137.00 118.06 11.70
3197 33.7440 132.00 114.04 11.49
3198 33.7530 113.00 115.28 10.63
3199 33.7620 102.00 116.77 10.10
3200 33.7710 118.00 118.57 10.86
3201 33.7800 142.00 120.78 11.92
3202 33.7890 149.00 123.53 12.21
3203 33.7980 135.00 127.06 11.62
3204 33.8070 141.00 131.88 11.87
3205 33.8160 148.00 139.08 12.17
3206 33.8250 174.00 151.15 13.19
3207 33.8340 203.00 173.10 14.25
3208 33.8430 251.00 213.57 15.84
3209 33.8520 316.00 284.32 17.78
3210 33.8610 403.00 396.02 20.07
3211 33.8700 528.00 550.17 22.98
3212 33.8790 671.00 728.76 25.90
3213 33.8880 814.00 887.82 28.53
3214 33.8970 919.00 965.02 30.32
3215 33.9060 891.00 918.44 29.85
3216 33.9150 707.00 771.49 26.59
3217 33.9240 527.00 589.89 22.96
3218 33.9330 407.00 425.94 20.17
3219 33.9420 274.00 303.45 16.55
3220 33.9510 214.00 224.35 14.63
3221 33.9600 162.00 178.70 12.73
3222 33.9690 168.00 154.08 12.96
3223 33.9780 138.00 140.80 11.75
3224 33.9870 135.00 133.05 11.62
3225 33.9960 139.00 127.96 11.79
3226 34.0050 136.00 124.25 11.66
3227 34.0140 140.00 121.39 11.83
3228 34.0230 133.00 119.10 11.53
3229 34.0320 124.00 117.24 11.14
3230 34.0410 127.00 115.70 11.27
3231 34.0500 131.00 114.42 11.45
3232 34.0590 132.00 113.34 11.49
3233 34.0680 123.00 112.42 11.09
3234 34.0770 127.00 111.64 11.27
3235 34.0860 128.00 110.96 11.31
3236 34.0950 115.00 110.37 10.72
3237 34.1040 111.00 109.86 10.54
3238 34.1130 123.00 109.41 11.09
3239 34.1220 120.00 109.01 10.95
3240 34.1310 110.00 108.66 10.49
3241 34.1400 107.00 109.29 10.34
3242 34.1490 102.00 109.04 10.10
3243 34.1580 112.00 108.81 10.58
3244 34.1670 125.00 108.61 11.18
3245 34.1760 115.00 108.44 10.72
3246 34.1850 112.00 108.28 10.58
3247 34.1940 108.00 108.15 10.39
3248 34.2030 101.00 108.45 10.05
3249 34.2120 109.00 108.36 10.44
3250 34.2210 101.00 108.28 10.05
3251 34.2300 108.00 108.21 10.39
3252 34.2390 110.00 108.15 10.49
3253 34.2480 95.00 108.11 9.75
3254 34.2570 121.00 108.07 11.00
3255 34.2660 104.00 108.05 10.20
3256 34.2750 123.00 108.03 11.09
3257 34.2840 113.00 108.02 10.63
3258 34.2930 103.00 108.03 10.15
3259 34.3020 104.00 108.04 10.20
3260 34.3110 105.00 108.06 10.25
3261 34.3200 123.00 108.08 11.09
3262 34.3290 91.00 108.12 9.54
3263 34.3380 110.00 108.17 10.49
3264 34.3470 117.00 108.22 10.82
3265 34.3560 99.00 108.29 9.95
3266 34.3650 118.00 108.37 10.86
3267 34.3740 123.00 108.46 11.09
3268 34.3830 113.00 108.57 10.63
3269 34.3920 107.00 108.69 10.34
3270 34.4010 126.00 108.85 11.23
3271 34.4100 121.00 109.03 11.00
3272 34.4190 114.00 109.29 10.68
3273 34.4280 124.00 109.67 11.14
3274 34.4370 106.00 110.26 10.30
3275 34.4460 128.00 111.21 11.31
3276 34.4550 125.00 112.68 11.18
3277 34.4640 117.00 114.79 10.82
3278 34.4730 144.00 117.47 12.00
3279 34.4820 126.00 120.40 11.23
3280 34.4910 130.00 122.94 11.40
3281 34.5000 134.00 124.20 11.58
3282 34.5090 123.00 123.67 11.09
3283 34.5180 118.00 121.67 10.86
3284 34.5270 116.00 119.11 10.77
3285 34.5360 118.00 116.73 10.86
3286 34.5450 122.00 114.92 11.05
3287 34.5540 122.00 113.76 11.05
3288 34.5630 119.00 113.17 10.91
3289 34.5720 115.00 112.99 10.72
3290 34.5810 113.00 113.07 10.63
3291 34.5900 111.00 113.31 10.54
3292 34.5990 110.00 113.65 10.49
3293 34.6080 113.00 114.06 10.63
3294 34.6170 121.00 114.54 11.00
3295 34.6260 120.00 115.10 10.95
3296 34.6350 116.00 115.72 10.77
3297 34.6440 114.00 116.42 10.68
3298 34.6530 107.00 117.21 10.34
3299 34.6620 118.00 118.10 10.86
3300 34.6710 121.00 119.10 11.00
3301 34.6800 113.00 120.24 10.63
3302 34.6890 124.00 121.15 11.14
3303 34.6980 132.00 122.78 11.49
3304 34.7070 121.00 124.50 11.00
3305 34.7160 112.00 126.50 10.58
3306 34.7250 126.00 128.82 11.23
3307 34.7340 126.00 131.56 11.23
3308 34.7430 137.00 134.81 11.70
3309 34.7520 134.00 138.71 11.58
3310 34.7610 148.00 143.45 12.17
3311 34.7700 144.00 149.30 12.00
3312 34.7790 180.00 156.70 13.42
3313 34.7880 195.00 166.46 13.96
3314 34.7970 199.00 180.43 14.11
3315 34.8060 224.00 203.00 14.97
3316 34.8150 289.00 243.96 17.00
3317 34.8240 408.00 322.18 20.20
3318 34.8330 557.00 466.78 23.60
3319 34.8420 820.00 710.04 28.64
3320 34.8510 1134.00 1067.08 33.67
3321 34.8600 1521.00 1506.68 39.00
3322 34.8690 1997.00 1926.92 44.69
3323 34.8780 2309.00 2166.64 48.05
3324 34.8870 2183.00 2095.13 46.72
3325 34.8960 1687.00 1749.19 41.07
3326 34.9050 1214.00 1298.37 34.84
3327 34.9140 817.00 888.35 28.58
3328 34.9230 530.00 586.29 23.02
3329 34.9320 391.00 397.69 19.77
3330 34.9410 302.00 294.80 17.38
3331 34.9500 251.00 244.53 15.84
3332 34.9590 233.00 223.00 15.26
3333 34.9680 228.00 218.26 15.10
3334 34.9770 230.00 227.89 15.17
3335 34.9860 275.00 255.86 16.58
3336 34.9950 327.00 310.04 18.08
3337 35.0040 398.00 398.62 19.95
3338 35.0130 514.00 524.77 22.67
3339 35.0220 629.00 679.63 25.08
3340 35.0310 795.00 836.54 28.20
3341 35.0400 972.00 950.20 31.18
3342 35.0490 1004.00 972.36 31.69
3343 35.0580 930.00 889.51 30.50
3344 35.0670 797.00 738.74 28.23
3345 35.0760 600.00 572.67 24.49
3346 35.0850 409.00 426.95 20.22
3347 35.0940 278.00 316.90 16.67
3348 35.1030 233.00 242.97 15.26
3349 35.1120 194.00 197.69 13.93
3350 35.1210 181.00 171.46 13.45
3351 35.1300 159.00 156.32 12.61
3352 35.1390 144.00 147.09 12.00
3353 35.1480 124.00 140.90 11.14
3354 35.1570 136.00 136.36 11.66
3355 35.1660 112.00 132.81 10.58
3356 35.1750 137.00 129.94 11.70
3357 35.1840 140.00 127.57 11.83
3358 35.1930 127.00 125.60 11.27
3359 35.2020 111.00 123.93 10.54
3360 35.2110 121.00 122.53 11.00
3361 35.2200 123.00 121.33 11.09
3362 35.2290 112.00 120.30 10.58
3363 35.2380 102.00 119.43 10.10
3364 35.2470 116.00 118.69 10.77
3365 35.2560 132.00 118.06 11.49
3366 35.2650 116.00 117.53 10.77
3367 35.2740 121.00 117.10 11.00
3368 35.2830 131.00 116.75 11.45
3369 35.2920 114.00 116.49 10.68
3370 35.3010 116.00 116.31 10.77
3371 35.3100 104.00 116.21 10.20
3372 35.3190 112.00 116.22 10.58
3373 35.3280 114.00 116.32 10.68
3374 35.3370 116.00 116.54 10.77
3375 35.3460 126.00 116.90 11.23
3376 35.3550 118.00 117.42 10.86
3377 35.3640 111.00 118.18 10.54
3378 35.3730 132.00 119.26 11.49
3379 35.3820 130.00 120.90 11.40
3380 35.3910 127.00 123.62 11.27
3381 35.4000 139.00 128.55 11.79
3382 35.4090 155.00 137.94 12.45
3383 35.4180 169.00 155.30 13.00
3384 35.4270 210.00 184.81 14.49
3385 35.4360 272.00 229.23 16.49
3386 35.4450 339.00 286.38 18.41
3387 35.4540 422.00 345.91 20.54
3388 35.4630 472.00 388.70 21.73
3389 35.4720 453.00 394.23 21.28
3390 35.4810 407.00 358.63 20.17
3391 35.4900 336.00 300.07 18.33
3392 35.4990 256.00 240.25 16.00
3393 35.5080 191.00 192.02 13.82
3394 35.5170 149.00 159.03 12.21
3395 35.5260 149.00 139.24 12.21
3396 35.5350 139.00 128.40 11.79
3397 35.5440 117.00 122.66 10.82
3398 35.5530 110.00 119.45 10.49
3399 35.5620 113.00 117.45 10.63
3400 35.5710 118.00 116.04 10.86
3401 35.5800 119.00 114.97 10.91
3402 35.5890 111.00 114.12 10.54
3403 35.5980 99.00 113.44 9.95
3404 35.6070 103.00 112.88 10.15
3405 35.6160 90.00 112.41 9.49
3406 35.6250 110.00 112.02 10.49
3407 35.6340 87.00 111.69 9.33
3408 35.6430 87.00 110.54 9.33
3409 35.6520 114.00 110.33 10.68
3410 35.6610 106.00 110.15 10.30
3411 35.6700 107.00 110.01 10.34
3412 35.6790 94.00 109.89 9.70
3413 35.6880 101.00 109.79 10.05
3414 35.6970 100.00 109.72 10.00
3415 35.7060 103.00 109.68 10.15
3416 35.7150 112.00 109.65 10.58
3417 35.7240 126.00 111.55 11.23
3418 35.7330 105.00 111.62 10.25
3419 35.7420 103.00 111.72 10.15
3420 35.7510 112.00 111.85 10.58
3421 35.7600 98.00 112.01 9.90
3422 35.7690 107.00 112.22 10.34
3423 35.7780 101.00 113.21 10.05
3424 35.7870 100.00 113.60 10.00
3425 35.7960 108.00 114.19 10.39
3426 35.8050 114.00 115.14 10.68
3427 35.8140 110.00 116.84 10.49
3428 35.8230 115.00 119.89 10.72
3429 35.8320 134.00 125.10 11.58
3430 35.8410 129.00 133.13 11.36
3431 35.8500 117.00 143.98 10.82
3432 35.8590 125.00 156.32 11.18
3433 35.8670 138.00 167.06 11.75
3434 35.8760 144.00 172.10 12.00
3435 35.8850 145.00 169.08 12.04
3436 35.8940 142.00 159.88 11.92
3437 35.9030 125.00 148.45 11.18
3438 35.9120 112.00 137.35 10.58
3439 35.9210 122.00 128.93 11.05
3440 35.9300 117.00 123.15 10.82
3441 35.9390 106.00 119.59 10.30
3442 35.9480 114.00 117.58 10.68
3443 35.9570 108.00 116.52 10.39
3444 35.9660 86.00 115.98 9.27
3445 35.9750 97.00 115.74 9.85
3446 35.9840 103.00 115.66 10.15
3447 35.9930 107.00 115.68 10.34
3448 36.0020 93.00 115.77 9.64
3449 36.0110 121.00 115.91 11.00
3450 36.0200 103.00 116.09 10.15
3451 36.0290 94.00 116.31 9.70
3452 36.0380 130.00 116.57 11.40
3453 36.0470 92.00 116.86 9.59
3454 36.0560 106.00 117.18 10.30
3455 36.0650 130.00 117.54 11.40
3456 36.0740 126.00 117.94 11.23
3457 36.0830 105.00 118.37 10.25
3458 36.0920 96.00 118.84 9.80
3459 36.1010 113.00 119.36 10.63
3460 36.1100 99.00 119.92 9.95
3461 36.1190 90.00 120.54 9.49
3462 36.1280 106.00 121.21 10.30
3463 36.1370 111.00 121.94 10.54
3464 36.1460 114.00 122.74 10.68
3465 36.1550 119.00 123.62 10.91
3466 36.1640 115.00 124.58 10.72
3467 36.1730 95.00 125.65 9.75
3468 36.1820 100.00 126.83 10.00
3469 36.1910 101.00 128.14 10.05
3470 36.2000 109.00 129.60 10.44
3471 36.2090 129.00 131.23 11.36
3472 36.2180 120.00 133.07 10.95
3473 36.2270 107.00 135.15 10.34
3474 36.2360 106.00 137.50 10.30
3475 36.2450 119.00 140.20 10.91
3476 36.2540 115.00 143.17 10.72
3477 36.2630 120.00 146.76 10.95
3478 36.2720 125.00 150.95 11.18
3479 36.2810 127.00 155.89 11.27
3480 36.2900 144.00 161.76 12.00
3481 36.2990 157.00 168.82 12.53
3482 36.3080 173.00 177.42 13.15
3483 36.3170 179.00 188.06 13.38
3484 36.3260 188.00 201.51 13.71
3485 36.3350 231.00 219.27 15.20
3486 36.3440 265.00 244.67 16.28
3487 36.3530 329.00 285.96 18.14
3488 36.3620 435.00 362.95 20.86
3489 36.3710 603.00 516.72 24.56
3490 36.3800 874.00 815.96 29.56
3491 36.3890 1349.00 1342.59 36.73
3492 36.3980 2106.00 2142.17 45.89
3493 36.4070 3113.00 3145.49 55.79
3494 36.4160 4292.00 4105.29 65.51
3495 36.4250 5161.00 4632.13 71.84
3496 36.4340 5109.00 4428.04 71.48
3497 36.4430 4092.00 3607.18 63.97
3498 36.4520 2802.00 2576.39 52.93
3499 36.4610 1863.00 1668.60 43.16
3500 36.4700 1043.00 1025.10 32.30
3501 36.4790 678.00 639.16 26.04
3502 36.4880 467.00 434.85 21.61
3503 36.4970 315.00 333.86 17.75
3504 36.5060 265.00 283.67 16.28
3505 36.5150 276.00 256.78 16.61
3506 36.5240 240.00 241.27 15.49
3507 36.5330 212.00 232.58 14.56
3508 36.5420 198.00 229.43 14.07
3509 36.5510 232.00 232.47 15.23
3510 36.5600 232.00 244.54 15.23
3511 36.5690 301.00 271.72 17.35
3512 36.5780 334.00 324.22 18.28
3513 36.5870 439.00 415.92 20.95
3514 36.5960 564.00 560.47 23.75
3515 36.6050 747.00 763.96 27.33
3516 36.6140 976.00 1014.74 31.24
3517 36.6230 1293.00 1274.12 35.96
3518 36.6320 1510.00 1472.95 38.86
3519 36.6410 1593.00 1532.48 39.91
3520 36.6500 1492.00 1421.21 38.63
3521 36.6590 1215.00 1189.50 34.86
3522 36.6680 895.00 920.86 29.92
3523 36.6770 630.00 676.83 25.10
3524 36.6860 461.00 486.91 21.47
3525 36.6950 360.00 355.62 18.97
3526 36.7040 282.00 273.05 16.79
3527 36.7130 223.00 224.32 14.93
3528 36.7220 180.00 196.11 13.42
3529 36.7310 159.00 179.14 12.61
3530 36.7400 150.00 168.03 12.25
3531 36.7490 134.00 160.05 11.58
3532 36.7580 132.00 153.90 11.49
3533 36.7670 135.00 148.95 11.62
3534 36.7760 126.00 144.86 11.23
3535 36.7850 122.00 141.43 11.05
3536 36.7940 99.00 138.54 9.95
3537 36.8030 113.00 136.66 10.63
3538 36.8120 122.00 134.54 11.05
3539 36.8210 125.00 132.70 11.18
3540 36.8300 124.00 131.09 11.14
3541 36.8390 94.00 129.67 9.70
3542 36.8480 108.00 128.43 10.39
3543 36.8570 110.00 127.32 10.49
3544 36.8660 109.00 126.33 10.44
3545 36.8750 114.00 125.45 10.68
3546 36.8840 104.00 124.66 10.20
3547 36.8930 112.00 123.95 10.58
3548 36.9020 98.00 123.31 9.90
3549 36.9110 95.00 122.72 9.75
3550 36.9200 84.00 122.19 9.17
3551 36.9290 102.00 121.71 10.10
3552 36.9380 117.00 121.28 10.82
3553 36.9470 117.00 120.88 10.82
3554 36.9560 125.00 120.51 11.18
3555 36.9650 108.00 120.18 10.39
3556 36.9740 97.00 119.91 9.85
3557 36.9830 112.00 119.63 10.58
3558 36.9920 97.00 119.38 9.85
3559 37.0010 94.00 119.15 9.70
3560 37.0100 100.00 118.93 10.00
3561 37.0190 110.00 118.74 10.49
3562 37.0280 110.00 118.57 10.49
3563 37.0370 116.00 118.41 10.77
3564 37.0460 94.00 118.26 9.70
3565 37.0550 94.00 118.13 9.70
3566 37.0640 113.00 118.01 10.63
3567 37.0730 112.00 117.91 10.58
3568 37.0820 107.00 117.82 10.34
3569 37.0910 110.00 117.74 10.49
3570 37.1000 108.00 117.67 10.39
3571 37.1090 99.00 117.61 9.95
3572 37.1180 112.00 117.56 10.58
3573 37.1270 111.00 117.52 10.54
3574 37.1360 101.00 117.49 10.05
3575 37.1450 108.00 116.12 10.39
3576 37.1540 108.00 116.41 10.39
3577 37.1630 108.00 116.45 10.39
3578 37.1720 106.00 116.49 10.30
3579 37.1810 102.00 116.55 10.10
3580 37.1900 113.00 116.61 10.63
3581 37.1990 103.00 116.68 10.15
3582 37.2080 101.00 116.76 10.05
3583 37.2170 106.00 116.85 10.30
3584 37.2260 90.00 116.95 9.49
3585 37.2350 106.00 117.06 10.30
3586 37.2440 106.00 116.81 10.30
3587 37.2530 103.00 116.95 10.15
3588 37.2620 103.00 117.11 10.15
3589 37.2710 98.00 117.27 9.90
3590 37.2800 101.00 117.46 10.05
3591 37.2890 91.00 117.65 9.54
3592 37.2980 108.00 117.87 10.39
3593 37.3070 104.00 118.10 10.20
3594 37.3160 102.00 118.36 10.10
3595 37.3250 98.00 118.64 9.90
3596 37.3340 100.00 118.94 10.00
3597 37.3430 98.00 119.28 9.90
3598 37.3520 130.00 119.64 11.40
3599 37.3610 106.00 120.04 10.30
3600 37.3700 100.00 120.49 10.00
3601 37.3790 122.00 120.98 11.05
3602 37.3880 106.00 121.53 10.30
3603 37.3970 100.00 122.14 10.00
3604 37.4060 95.00 122.82 9.75
3605 37.4150 103.00 123.58 10.15
3606 37.4240 103.00 124.45 10.15
3607 37.4330 98.00 125.43 9.90
3608 37.4420 95.00 126.55 9.75
3609 37.4510 92.00 127.84 9.59
3610 37.4600 96.00 129.34 9.80
3611 37.4690 116.00 131.08 10.77
3612 37.4780 124.00 133.13 11.14
3613 37.4870 121.00 135.56 11.00
3614 37.4960 120.00 138.48 10.95
3615 37.5050 118.00 142.04 10.86
3616 37.5140 111.00 145.77 10.54
3617 37.5230 125.00 151.46 11.18
3618 37.5320 158.00 159.22 12.57
3619 37.5410 186.00 170.82 13.64
3620 37.5500 199.00 190.00 14.11
3621 37.5590 236.00 223.83 15.36
3622 37.5680 309.00 283.65 17.58
3623 37.5770 416.00 383.97 20.40
3624 37.5860 555.00 537.36 23.56
3625 37.5950 730.00 745.26 27.02
3626 37.6040 972.00 986.53 31.18
3627 37.6130 1229.00 1209.62 35.06
3628 37.6220 1384.00 1337.53 37.20
3629 37.6310 1343.00 1308.91 36.65
3630 37.6400 1135.00 1138.80 33.69
3631 37.6490 859.00 905.60 29.31
3632 37.6580 653.00 682.99 25.55
3633 37.6670 505.00 510.92 22.47
3634 37.6760 423.00 397.77 20.57
3635 37.6850 357.00 330.72 18.89
3636 37.6940 357.00 288.23 18.89
3637 37.7030 299.00 253.43 17.29
3638 37.7120 270.00 221.45 16.43
3639 37.7210 231.00 194.09 15.20
3640 37.7300 172.00 173.23 13.11
3641 37.7390 158.00 158.98 12.57
3642 37.7480 139.00 149.99 11.79
3643 37.7570 127.00 144.45 11.27
3644 37.7660 115.00 140.89 10.72
3645 37.7750 102.00 138.43 10.10
3646 37.7840 119.00 136.65 10.91
3647 37.7930 108.00 135.32 10.39
3648 37.8020 115.00 134.38 10.72
3649 37.8110 116.00 133.75 10.77
3650 37.8200 111.00 133.43 10.54
3651 37.8290 114.00 133.41 10.68
3652 37.8380 120.00 133.70 10.95
3653 37.8470 104.00 134.33 10.20
3654 37.8560 116.00 135.36 10.77
3655 37.8650 121.00 136.88 11.00
3656 37.8740 123.00 139.09 11.09
3657 37.8830 120.00 142.43 10.95
3658 37.8920 146.00 147.83 12.08
3659 37.9010 149.00 157.33 12.21
3660 37.9100 184.00 174.66 13.56
3661 37.9190 198.00 205.69 14.07
3662 37.9280 246.00 257.58 15.68
3663 37.9370 313.00 335.64 17.69
3664 37.9460 425.00 438.65 20.62
3665 37.9550 553.00 553.35 23.52
3666 37.9640 651.00 651.02 25.51
3667 37.9730 726.00 693.60 26.94
3668 37.9820 733.00 658.60 27.07
3669 37.9910 609.00 563.44 24.68
3670 38.0000 463.00 447.61 21.52
3671 38.0090 356.00 341.90 18.87
3672 38.0180 251.00 260.86 15.84
3673 38.0270 196.00 206.57 14.00
3674 38.0360 162.00 173.85 12.73
3675 38.0450 136.00 155.44 11.66
3676 38.0540 130.00 145.22 11.40
3677 38.0630 125.00 139.22 11.18
3678 38.0720 124.00 135.33 11.14
3679 38.0810 118.00 132.53 10.86
3680 38.0900 112.00 130.38 10.58
3681 38.0990 111.00 128.65 10.54
3682 38.1080 94.00 127.25 9.70
3683 38.1170 88.00 126.08 9.38
3684 38.1260 99.00 125.11 9.95
3685 38.1350 107.00 124.28 10.34
3686 38.1440 111.00 123.58 10.54
3687 38.1530 89.00 122.98 9.43
3688 38.1620 102.00 122.46 10.10
3689 38.1710 113.00 122.01 10.63
3690 38.1800 110.00 121.61 10.49
3691 38.1890 109.00 121.27 10.44
3692 38.1980 105.00 120.96 10.25
3693 38.2070 89.00 120.69 9.43
3694 38.2160 110.00 120.45 10.49
3695 38.2250 108.00 120.24 10.39
3696 38.2340 74.00 120.05 8.60
3697 38.2430 97.00 119.88 9.85
3698 38.2520 96.00 119.73 9.80
3699 38.2610 100.00 119.60 10.00
3700 38.2700 112.00 119.48 10.58
3701 38.2790 92.00 119.37 9.59
3702 38.2880 113.00 119.42 10.63
3703 38.2970 99.00 119.34 9.95
3704 38.3060 98.00 119.26 9.90
3705 38.3150 103.00 119.19 10.15
3706 38.3240 108.00 119.13 10.39
3707 38.3330 94.00 119.08 9.70
3708 38.3410 79.00 119.04 8.89
3709 38.3500 95.00 118.99 9.75
3710 38.3590 101.00 118.96 10.05
3711 38.3680 101.00 118.93 10.05
3712 38.3770 107.00 118.90 10.34
3713 38.3860 100.00 118.88 10.00
3714 38.3950 98.00 118.86 9.90
3715 38.4040 104.00 118.84 10.20
3716 38.4130 106.00 118.83 10.30
3717 38.4220 108.00 118.79 10.39
3718 38.4310 105.00 118.79 10.25
3719 38.4400 95.00 118.79 9.75
3720 38.4490 98.00 118.79 9.90
3721 38.4580 103.00 118.79 10.15
3722 38.4670 94.00 118.22 9.70
3723 38.4760 98.00 118.24 9.90
3724 38.4850 88.00 118.26 9.38
3725 38.4940 90.00 118.29 9.49
3726 38.5030 101.00 118.31 10.05
3727 38.5120 111.00 118.33 10.54
3728 38.5210 95.00 118.36 9.75
3729 38.5300 97.00 118.39 9.85
3730 38.5390 107.00 118.42 10.34
3731 38.5480 98.00 118.44 9.90
3732 38.5570 113.00 118.48 10.63
3733 38.5660 98.00 118.51 9.90
3734 38.5750 111.00 118.54 10.54
3735 38.5840 106.00 118.58 10.30
3736 38.5930 99.00 118.61 9.95
3737 38.6020 105.00 118.65 10.25
3738 38.6110 122.00 118.69 11.05
3739 38.6200 105.00 118.73 10.25
3740 38.6290 92.00 118.77 9.59
3741 38.6380 88.00 118.81 9.38
3742 38.6470 89.00 118.85 9.43
3743 38.6560 101.00 118.89 10.05
3744 38.6650 86.00 118.94 9.27
3745 38.6740 102.00 118.99 10.10
3746 38.6830 93.00 119.04 9.64
3747 38.6920 90.00 119.08 9.49
3748 38.7010 106.00 119.13 10.30
3749 38.7100 97.00 119.19 9.85
3750 38.7190 97.00 119.24 9.85
3751 38.7280 98.00 119.29 9.90
3752 38.7370 90.00 119.35 9.49
3753 38.7460 91.00 119.41 9.54
3754 38.7550 100.00 119.47 10.00
3755 38.7640 94.00 119.53 9.70
3756 38.7730 105.00 119.60 10.25
3757 38.7820 104.00 119.67 10.20
3758 38.7910 92.00 119.74 9.59
3759 38.8000 90.00 119.54 9.49
3760 38.8090 93.00 119.62 9.64
3761 38.8180 96.00 119.71 9.80
3762 38.8270 102.00 119.80 10.10
3763 38.8360 98.00 119.89 9.90
3764 38.8450 100.00 119.99 10.00
3765 38.8540 111.00 120.09 10.54
3766 38.8630 108.00 120.20 10.39
3767 38.8720 105.00 120.32 10.25
3768 38.8810 104.00 120.44 10.20
3769 38.8900 101.00 120.57 10.05
3770 38.8990 94.00 120.70 9.70
3771 38.9080 94.00 120.85 9.70
3772 38.9170 102.00 121.01 10.10
3773 38.9260 97.00 121.18 9.85
3774 38.9350 99.00 121.37 9.95
3775 38.9440 100.00 121.58 10.00
3776 38.9530 94.00 121.80 9.70
3777 38.9620 99.00 122.05 9.95
3778 38.9710 103.00 122.33 10.15
3779 38.9800 104.00 122.64 10.20
3780 38.9890 92.00 122.99 9.59
3781 38.9980 107.00 123.39 10.34
3782 39.0070 104.00 123.85 10.20
3783 39.0160 88.00 124.37 9.38
3784 39.0250 100.00 124.99 10.00
3785 39.0340 109.00 125.71 10.44
3786 39.0430 103.00 126.58 10.15
3787 39.0520 113.00 127.63 10.63
3788 39.0610 115.00 128.94 10.72
3789 39.0700 100.00 130.67 10.00
3790 39.0790 103.00 133.11 10.15
3791 39.0880 129.00 136.87 11.36
3792 39.0970 115.00 143.11 10.72
3793 39.1060 131.00 153.71 11.45
3794 39.1150 167.00 171.30 12.92
3795 39.1240 172.00 198.72 13.11
3796 39.1330 197.00 237.78 14.04
3797 39.1420 258.00 287.51 16.06
3798 39.1510 295.00 342.26 17.18
3799 39.1600 337.00 390.45 18.36
3800 39.1690 385.00 416.15 19.62
3801 39.1780 374.00 407.80 19.34
3802 39.1870 332.00 369.09 18.22
3803 39.1960 283.00 315.59 16.82
3804 39.2050 224.00 262.03 14.97
3805 39.2140 184.00 217.13 13.56
3806 39.2230 162.00 183.94 12.73
3807 39.2320 138.00 161.88 11.75
3808 39.2410 135.00 148.26 11.62
3809 39.2500 132.00 140.26 11.49
3810 39.2590 118.00 135.57 10.86
3811 39.2680 114.00 132.68 10.68
3812 39.2770 121.00 130.74 11.00
3813 39.2860 111.00 129.34 10.54
3814 39.2950 107.00 128.25 10.34
3815 39.3040 120.00 127.39 10.95
3816 39.3130 112.00 126.68 10.58
3817 39.3220 110.00 126.10 10.49
3818 39.3310 107.00 125.61 10.34
3819 39.3400 108.00 125.20 10.39
3820 39.3490 102.00 124.86 10.10
3821 39.3580 102.00 124.57 10.10
3822 39.3670 102.00 124.32 10.10
3823 39.3760 115.00 124.11 10.72
3824 39.3850 106.00 123.93 10.30
3825 39.3940 109.00 123.78 10.44
3826 39.4030 103.00 123.64 10.15
3827 39.4120 102.00 123.53 10.10
3828 39.4210 91.00 123.43 9.54
3829 39.4300 110.00 123.35 10.49
3830 39.4390 107.00 123.28 10.34
3831 39.4480 95.00 123.22 9.75
3832 39.4570 94.00 123.17 9.70
3833 39.4660 98.00 123.13 9.90
3834 39.4750 97.00 123.10 9.85
3835 39.4840 102.00 123.07 10.10
3836 39.4930 116.00 123.05 10.77
3837 39.5020 103.00 123.05 10.15
3838 39.5110 120.00 123.04 10.95
3839 39.5200 124.00 123.03 11.14
3840 39.5290 118.00 123.03 10.86
3841 39.5380 107.00 123.04 10.34
3842 39.5470 112.00 123.04 10.58
3843 39.5560 101.00 123.05 10.05
3844 39.5650 92.00 123.07 9.59
3845 39.5740 88.00 123.08 9.38
3846 39.5830 102.00 123.10 10.10
3847 39.5920 96.00 123.23 9.80
3848 39.6010 110.00 123.25 10.49
3849 39.6100 120.00 123.28 10.95
3850 39.6190 104.00 123.31 10.20
3851 39.6280 105.00 123.35 10.25
3852 39.6370 108.00 123.38 10.39
3853 39.6460 117.00 123.42 10.82
3854 39.6550 112.00 123.46 10.58
3855 39.6640 100.00 123.50 10.00
3856 39.6730 105.00 124.08 10.25
3857 39.6820 109.00 124.14 10.44
3858 39.6910 106.00 124.21 10.30
3859 39.7000 99.00 124.27 9.95
3860 39.7090 91.00 124.34 9.54
3861 39.7180 89.00 124.41 9.43
3862 39.7270 90.00 124.49 9.49
3863 39.7360 104.00 124.57 10.20
3864 39.7450 112.00 124.65 10.58
3865 39.7540 103.00 124.74 10.15
3866 39.7630 99.00 124.83 9.95
3867 39.7720 89.00 124.93 9.43
3868 39.7810 90.00 125.04 9.49
3869 39.7900 98.00 125.15 9.90
3870 39.7990 104.00 125.27 10.20
3871 39.8080 95.00 125.39 9.75
3872 39.8170 92.00 125.53 9.59
3873 39.8260 88.00 125.68 9.38
3874 39.8350 91.00 125.85 9.54
3875 39.8440 96.00 126.02 9.80
3876 39.8530 109.00 126.22 10.44
3877 39.8620 99.00 126.44 9.95
3878 39.8710 103.00 126.68 10.15
3879 39.8800 114.00 126.95 10.68
3880 39.8890 118.00 127.26 10.86
3881 39.8980 98.00 127.62 9.90
3882 39.9070 103.00 128.04 10.15
3883 39.9160 119.00 128.52 10.91
3884 39.9250 119.00 129.10 10.91
3885 39.9340 106.00 129.82 10.30
3886 39.9430 110.00 130.72 10.49
3887 39.9520 100.00 131.96 10.00
3888 39.9610 104.00 133.82 10.20
3889 39.9700 106.00 136.96 10.30
3890 39.9790 135.00 142.54 11.62
3891 39.9880 156.00 152.40 12.49
3892 39.9970 161.00 168.72 12.69
3893 40.0060 176.00 193.07 13.27
3894 40.0150 197.00 224.87 14.04
3895 40.0240 229.00 259.77 15.13
3896 40.0330 258.00 288.67 16.06
3897 40.0420 281.00 299.91 16.76
3898 40.0510 261.00 287.50 16.16
3899 40.0600 211.00 257.82 14.53
3900 40.0690 184.00 222.95 13.56
3901 40.0780 162.00 191.65 12.73
3902 40.0870 138.00 168.20 11.75
3903 40.0960 132.00 152.80 11.49
3904 40.1050 123.00 143.73 11.09
3905 40.1140 118.00 138.79 10.86
3906 40.1230 111.00 136.18 10.54
3907 40.1320 105.00 134.77 10.25
3908 40.1410 107.00 133.96 10.34
3909 40.1500 106.00 133.48 10.30
3910 40.1590 106.00 133.21 10.30
3911 40.1680 101.00 133.11 10.05
3912 40.1770 103.00 133.16 10.15
3913 40.1860 99.00 133.38 9.95
3914 40.1950 110.00 133.84 10.49
3915 40.2040 112.00 134.68 10.58
3916 40.2130 106.00 136.18 10.30
3917 40.2220 112.00 138.65 10.58
3918 40.2310 109.00 142.30 10.44
3919 40.2400 111.00 147.00 10.54
3920 40.2490 109.00 151.99 10.44
3921 40.2580 119.00 155.86 10.91
3922 40.2670 134.00 157.09 11.58
3923 40.2760 125.00 155.41 11.18
3924 40.2850 114.00 152.21 10.68
3925 40.2940 100.00 149.11 10.00
3926 40.3030 117.00 147.08 10.82
3927 40.3120 124.00 146.46 11.14
3928 40.3210 109.00 147.16 10.44
3929 40.3300 144.00 148.97 12.00
3930 40.3390 131.00 151.79 11.45
3931 40.3480 144.00 155.80 12.00
3932 40.3570 127.00 161.60 11.27
3933 40.3660 154.00 170.44 12.41
3934 40.3750 155.00 184.43 12.45
3935 40.3840 197.00 206.55 14.04
3936 40.3930 239.00 240.24 15.46
3937 40.4020 296.00 288.61 17.20
3938 40.4110 379.00 353.88 19.47
3939 40.4200 456.00 437.20 21.35
3940 40.4290 552.00 538.86 23.49
3941 40.4380 726.00 661.03 26.94
3942 40.4470 846.00 811.14 29.09
3943 40.4560 1008.00 992.31 31.75
3944 40.4650 1275.00 1181.24 35.71
3945 40.4740 1450.00 1317.16 38.08
3946 40.4830 1484.00 1325.92 38.52
3947 40.4920 1284.00 1185.99 35.83
3948 40.5010 940.00 956.52 30.66
3949 40.5100 679.00 715.82 26.06
3950 40.5190 485.00 513.97 22.02
3951 40.5280 332.00 369.02 18.22
3952 40.5370 261.00 277.12 16.16
3953 40.5460 208.00 224.27 14.42
3954 40.5550 177.00 195.09 13.30
3955 40.5640 168.00 178.73 12.96
3956 40.5730 155.00 168.73 12.45
3957 40.5820 153.00 161.92 12.37
3958 40.5910 142.00 156.84 11.92
3959 40.6000 138.00 152.85 11.75
3960 40.6090 122.00 149.63 11.05
3961 40.6180 117.00 146.99 10.82
3962 40.6270 113.00 144.79 10.63
3963 40.6360 108.00 142.95 10.39
3964 40.6450 114.00 141.39 10.68
3965 40.6540 117.00 140.06 10.82
3966 40.6630 112.00 138.91 10.58
3967 40.6720 121.00 137.93 11.00
3968 40.6810 126.00 137.07 11.23
3969 40.6890 121.00 136.32 11.00
3970 40.6980 113.00 135.66 10.63
3971 40.7070 111.00 135.08 10.54
3972 40.7160 101.00 134.57 10.05
3973 40.7250 104.00 134.12 10.20
3974 40.7340 109.00 133.71 10.44
3975 40.7430 98.00 133.35 9.90
3976 40.7520 107.00 133.03 10.34
3977 40.7610 117.00 132.74 10.82
3978 40.7700 99.00 132.49 9.95
3979 40.7790 104.00 132.26 10.20
3980 40.7880 98.00 132.05 9.90
3981 40.7970 112.00 131.86 10.58
3982 40.8060 102.00 131.70 10.10
3983 40.8150 100.00 131.55 10.00
3984 40.8240 106.00 131.41 10.30
3985 40.8330 110.00 131.29 10.49
3986 40.8420 99.00 131.18 9.95
3987 40.8510 91.00 131.09 9.54
3988 40.8600 109.00 131.00 10.44
3989 40.8690 105.00 130.85 10.25
3990 40.8780 95.00 130.79 9.75
3991 40.8870 108.00 130.73 10.39
3992 40.8960 113.00 130.68 10.63
3993 40.9050 109.00 130.64 10.44
3994 40.9140 124.00 130.61 11.14
3995 40.9230 124.00 130.58 11.14
3996 40.9320 104.00 130.56 10.20
3997 40.9410 95.00 130.55 9.75
3998 40.9500 114.00 130.54 10.68
3999 40.9590 116.00 130.54 10.77
4000 40.9680 109.00 130.54 10.44
4001 40.9770 110.00 130.55 10.49
4002 40.9860 113.00 130.57 10.63
4003 40.9950 113.00 130.59 10.63
4004 41.0040 111.00 130.80 10.54
4005 41.0130 121.00 130.84 11.00
4006 41.0220 116.00 130.88 10.77
4007 41.0310 106.00 130.92 10.30
4008 41.0400 99.00 130.97 9.95
4009 41.0490 99.00 131.02 9.95
4010 41.0580 105.00 131.09 10.25
4011 41.0670 109.00 131.16 10.44
4012 41.0760 113.00 131.24 10.63
4013 41.0850 92.00 131.33 9.59
4014 41.0940 92.00 131.43 9.59
4015 41.1030 111.00 131.54 10.54
4016 41.1120 104.00 131.66 10.20
4017 41.1210 114.00 132.91 10.68
4018 41.1300 105.00 133.08 10.25
4019 41.1390 122.00 133.26 11.05
4020 41.1480 121.00 133.47 11.00
4021 41.1570 121.00 133.69 11.00
4022 41.1660 111.00 133.94 10.54
4023 41.1750 138.00 134.22 11.75
4024 41.1840 109.00 134.52 10.44
4025 41.1930 136.00 134.87 11.66
4026 41.2020 130.00 135.26 11.40
4027 41.2110 119.00 135.70 10.91
4028 41.2200 106.00 136.21 10.30
4029 41.2290 124.00 136.79 11.14
4030 41.2380 102.00 137.47 10.10
4031 41.2470 121.00 138.27 11.00
4032 41.2560 119.00 139.21 10.91
4033 41.2650 125.00 140.35 11.18
4034 41.2740 117.00 141.74 10.82
4035 41.2830 119.00 143.39 10.91
4036 41.2920 127.00 145.74 11.27
4037 41.3010 123.00 148.65 11.09
4038 41.3100 147.00 154.16 12.12
4039 41.3190 142.00 163.71 11.92
4040 41.3280 158.00 180.51 12.57
4041 41.3370 193.00 208.87 13.89
4042 41.3460 244.00 252.97 15.62
4043 41.3550 262.00 314.27 16.19
4044 41.3640 312.00 388.41 17.66
4045 41.3730 409.00 462.01 20.22
4046 41.3820 494.00 512.77 22.23
4047 41.3910 535.00 518.17 23.13
4048 41.4000 517.00 475.04 22.74
4049 41.4090 446.00 403.67 21.12
4050 41.4180 348.00 328.21 18.65
4051 41.4270 258.00 263.99 16.06
4052 41.4360 194.00 216.83 13.93
4053 41.4450 160.00 186.09 12.65
4054 41.4540 147.00 167.83 12.12
4055 41.4630 125.00 157.58 11.18
4056 41.4720 124.00 151.84 11.14
4057 41.4810 124.00 148.44 11.14
4058 41.4900 123.00 146.24 11.09
4059 41.4990 123.00 144.68 11.09
4060 41.5080 148.00 143.53 12.17
4061 41.5170 125.00 142.66 11.18
4062 41.5260 128.00 141.99 11.31
4063 41.5350 124.00 141.49 11.14
4064 41.5440 121.00 141.13 11.00
4065 41.5530 117.00 140.88 10.82
4066 41.5620 120.00 140.73 10.95
4067 41.5710 121.00 140.66 11.00
4068 41.5800 136.00 140.71 11.66
4069 41.5890 126.00 140.78 11.23
4070 41.5980 123.00 140.92 11.09
4071 41.6070 113.00 141.12 10.63
4072 41.6160 125.00 141.38 11.18
4073 41.6250 122.00 141.70 11.05
4074 41.6340 109.00 142.08 10.44
4075 41.6430 125.00 142.53 11.18
4076 41.6520 107.00 143.05 10.34
4077 41.6610 108.00 143.65 10.39
4078 41.6700 116.00 144.33 10.77
4079 41.6790 110.00 145.11 10.49
4080 41.6880 117.00 146.01 10.82
4081 41.6970 122.00 147.03 11.05
4082 41.7060 132.00 148.20 11.49
4083 41.7150 127.00 149.55 11.27
4084 41.7240 135.00 151.11 11.62
4085 41.7330 135.00 152.95 11.62
4086 41.7420 131.00 155.13 11.45
4087 41.7510 120.00 157.78 10.95
4088 41.7600 132.00 161.14 11.49
4089 41.7690 150.00 165.72 12.25
4090 41.7780 153.00 172.56 12.37
4091 41.7870 157.00 183.63 12.53
4092 41.7960 168.00 202.10 12.96
4093 41.8050 189.00 232.23 13.75
4094 41.8140 247.00 278.09 15.72
4095 41.8230 301.00 341.17 17.35
4096 41.8320 368.00 417.34 19.18
4097 41.8410 469.00 494.07 21.66
4098 41.8500 556.00 549.95 23.58
4099 41.8590 583.00 562.68 24.15
4100 41.8680 541.00 528.07 23.26
4101 41.8770 490.00 465.25 22.14
4102 41.8860 413.00 398.68 20.32
4103 41.8950 352.00 345.35 18.76
4104 41.9040 315.00 312.50 17.75
4105 41.9130 306.00 304.30 17.49
4106 41.9220 340.00 324.53 18.44
4107 41.9310 426.00 381.61 20.64
4108 41.9400 539.00 490.90 23.22
4109 41.9490 700.00 672.16 26.46
4110 41.9580 961.00 941.29 31.00
4111 41.9670 1335.00 1296.90 36.54
4112 41.9760 1772.00 1704.64 42.10
4113 41.9850 2134.00 2085.87 46.20
4114 41.9940 2411.00 2321.14 49.10
4115 42.0030 2374.00 2306.52 48.72
4116 42.0120 2040.00 2046.89 45.17
4117 42.0210 1688.00 1653.40 41.09
4118 42.0300 1092.00 1244.91 33.05
4119 42.0390 821.00 895.35 28.65
4120 42.0480 581.00 633.61 24.10
4121 42.0570 446.00 457.50 21.12
4122 42.0660 309.00 348.75 17.58
4123 42.0750 273.00 284.93 16.52
4124 42.0840 244.00 247.67 15.62
4125 42.0930 215.00 224.84 14.66
4126 42.1020 204.00 209.61 14.28
4127 42.1110 199.00 198.53 14.11
4128 42.1200 189.00 189.94 13.75
4129 42.1290 157.00 183.04 12.53
4130 42.1380 140.00 177.37 11.83
4131 42.1470 145.00 172.64 12.04
4132 42.1560 149.00 168.67 12.21
4133 42.1650 140.00 165.30 11.83
4134 42.1740 151.00 162.41 12.29
4135 42.1830 154.00 159.93 12.41
4136 42.1920 147.00 157.79 12.12
4137 42.2010 117.00 155.92 10.82
4138 42.2100 140.00 154.40 11.83
4139 42.2190 153.00 152.97 12.37
4140 42.2280 143.00 151.72 11.96
4141 42.2370 135.00 150.61 11.62
4142 42.2460 130.00 149.46 11.40
4143 42.2550 136.00 148.60 11.66
4144 42.2640 146.00 147.84 12.08
4145 42.2730 139.00 147.17 11.79
4146 42.2820 128.00 146.59 11.31
4147 42.2910 137.00 146.07 11.70
4148 42.3000 136.00 145.62 11.66
4149 42.3090 131.00 145.24 11.45
4150 42.3180 132.00 144.92 11.49
4151 42.3270 138.00 144.65 11.75
4152 42.3360 141.00 144.44 11.87
4153 42.3450 139.00 144.29 11.79
4154 42.3540 145.00 144.20 12.04
4155 42.3630 151.00 144.54 12.29
4156 42.3720 151.00 144.59 12.29
4157 42.3810 154.00 144.73 12.41
4158 42.3900 137.00 144.98 11.70
4159 42.3990 124.00 145.38 11.14
4160 42.4080 123.00 146.04 11.09
4161 42.4170 120.00 147.13 10.95
4162 42.4260 141.00 149.00 11.87
4163 42.4350 135.00 152.19 11.62
4164 42.4440 155.00 157.43 12.45
4165 42.4530 169.00 165.50 13.00
4166 42.4620 193.00 176.87 13.89
4167 42.4710 181.00 191.32 13.45
4168 42.4800 171.00 207.40 13.08
4169 42.4890 215.00 222.11 14.66
4170 42.4980 241.00 231.04 15.52
4171 42.5070 247.00 230.53 15.72
4172 42.5160 242.00 220.79 15.56
4173 42.5250 197.00 205.79 14.04
4174 42.5340 189.00 189.92 13.75
4175 42.5430 178.00 175.98 13.34
4176 42.5520 163.00 165.24 12.77
4177 42.5610 154.00 157.80 12.41
4178 42.5700 149.00 153.10 12.21
4179 42.5790 150.00 150.37 12.25
4180 42.5880 148.00 148.89 12.17
4181 42.5970 154.00 148.15 12.41
4182 42.6060 165.00 147.84 12.85
4183 42.6150 146.00 147.78 12.08
4184 42.6240 142.00 147.90 11.92
4185 42.6330 152.00 148.16 12.33
4186 42.6420 140.00 148.55 11.83
4187 42.6510 124.00 149.07 11.14
4188 42.6600 134.00 149.71 11.58
4189 42.6690 143.00 150.48 11.96
4190 42.6780 150.00 151.41 12.25
4191 42.6870 157.00 152.50 12.53
4192 42.6960 151.00 153.79 12.29
4193 42.7050 138.00 155.30 11.75
4194 42.7140 145.00 157.08 12.04
4195 42.7230 170.00 159.00 13.04
4196 42.7320 157.00 161.50 12.53
4197 42.7410 151.00 164.51 12.29
4198 42.7500 172.00 168.18 13.11
4199 42.7590 176.00 172.79 13.27
4200 42.7680 167.00 178.84 12.92
4201 42.7770 185.00 187.33 13.60
4202 42.7860 192.00 200.06 13.86
4203 42.7950 213.00 220.21 14.59
4204 42.8040 260.00 252.62 16.12
4205 42.8130 312.00 303.89 17.66
4206 42.8220 381.00 380.92 19.52
4207 42.8310 464.00 488.94 21.54
4208 42.8400 550.00 627.91 23.45
4209 42.8490 685.00 788.72 26.17
4210 42.8580 838.00 949.38 28.95
4211 42.8670 1004.00 1074.04 31.69
4212 42.8760 1103.00 1121.95 33.21
4213 42.8850 1118.00 1073.51 33.44
4214 42.8940 989.00 947.80 31.45
4215 42.9030 740.00 789.00 27.20
4216 42.9110 642.00 633.01 25.34
4217 42.9200 462.00 503.32 21.49
4218 42.9290 410.00 411.90 20.25
4219 42.9380 380.00 362.25 19.49
4220 42.9470 403.00 351.51 20.07
4221 42.9560 387.00 370.63 19.67
4222 42.9650 464.00 403.96 21.54
4223 42.9740 484.00 429.84 22.00
4224 42.9830 468.00 427.18 21.63
4225 42.9920 412.00 390.97 20.30
4226 43.0010 366.00 335.87 19.13
4227 43.0100 301.00 280.15 17.35
4228 43.0190 255.00 234.94 15.97
4229 43.0280 240.00 203.68 15.49
4230 43.0370 213.00 184.63 14.59
4231 43.0460 179.00 173.98 13.38
4232 43.0550 178.00 168.21 13.34
4233 43.0640 182.00 164.98 13.49
4234 43.0730 179.00 163.06 13.38
4235 43.0820 166.00 161.91 12.88
4236 43.0910 165.00 161.30 12.85
4237 43.1000 172.00 161.17 13.11
4238 43.1090 172.00 161.53 13.11
4239 43.1180 170.00 162.37 13.04
4240 43.1270 170.00 163.81 13.04
4241 43.1360 185.00 166.10 13.60
4242 43.1450 191.00 169.75 13.82
4243 43.1540 188.00 175.84 13.71
4244 43.1630 212.00 186.44 14.56
4245 43.1720 230.00 204.94 15.17
4246 43.1810 248.00 236.01 15.75
4247 43.1900 300.00 284.52 17.32
4248 43.1990 323.00 353.22 17.97
4249 43.2080 394.00 439.58 19.85
4250 43.2170 477.00 532.56 21.84
4251 43.2260 514.00 610.42 22.67
4252 43.2350 590.00 645.51 24.29
4253 43.2440 598.00 622.22 24.45
4254 43.2530 538.00 553.73 23.19
4255 43.2620 467.00 469.51 21.61
4256 43.2710 393.00 394.21 19.82
4257 43.2800 349.00 341.50 18.68
4258 43.2890 318.00 315.49 17.83
4259 43.2980 327.00 313.13 18.08
4260 43.3070 360.00 326.79 18.97
4261 43.3160 381.00 346.01 19.52
4262 43.3250 424.00 359.11 20.59
4263 43.3340 391.00 356.58 19.77
4264 43.3430 381.00 336.39 19.52
4265 43.3520 361.00 304.55 19.00
4266 43.3610 313.00 269.23 17.69
4267 43.3700 270.00 236.49 16.43
4268 43.3790 235.00 209.53 15.33
4269 43.3880 207.00 189.26 14.39
4270 43.3970 208.00 175.11 14.42
4271 43.4060 200.00 165.77 14.14
4272 43.4150 192.00 159.78 13.86
4273 43.4240 181.00 155.92 13.45
4274 43.4330 196.00 153.34 14.00
4275 43.4420 189.00 151.47 13.75
4276 43.4510 187.00 150.09 13.67
4277 43.4600 190.00 149.01 13.78
4278 43.4690 201.00 148.13 14.18
4279 43.4780 186.00 147.42 13.64
4280 43.4870 172.00 146.85 13.11
4281 43.4960 189.00 146.38 13.75
4282 43.5050 195.00 146.03 13.96
4283 43.5140 181.00 145.76 13.45
4284 43.5230 180.00 145.59 13.42
4285 43.5320 201.00 145.51 14.18
4286 43.5410 208.00 145.52 14.42
4287 43.5500 196.00 145.63 14.00
4288 43.5590 180.00 145.86 13.42
4289 43.5680 173.00 146.23 13.15
4290 43.5770 192.00 146.79 13.86
4291 43.5860 198.00 147.63 14.07
4292 43.5950 208.00 148.96 14.42
4293 43.6040 198.00 151.19 14.07
4294 43.6130 170.00 155.10 13.04
4295 43.6220 183.00 162.01 13.53
4296 43.6310 219.00 173.65 14.80
4297 43.6400 231.00 191.85 15.20
4298 43.6490 242.00 217.46 15.56
4299 43.6580 289.00 249.23 17.00
4300 43.6670 307.00 282.61 17.52
4301 43.6760 323.00 309.30 17.97
4302 43.6850 336.00 318.52 18.33
4303 43.6940 337.00 305.87 18.36
4304 43.7030 278.00 277.31 16.67
4305 43.7120 261.00 243.45 16.16
4306 43.7210 238.00 212.29 15.43
4307 43.7300 226.00 187.76 15.03
4308 43.7390 211.00 170.66 14.53
4309 43.7480 237.00 159.83 15.39
4310 43.7570 217.00 153.44 14.73
4311 43.7660 229.00 149.67 15.13
4312 43.7750 235.00 147.51 15.33
4313 43.7840 207.00 146.15 14.39
4314 43.7930 209.00 145.20 14.46
4315 43.8020 205.00 144.51 14.32
4316 43.8110 222.00 143.98 14.90
4317 43.8200 232.00 143.57 15.23
4318 43.8290 194.00 143.27 13.93
4319 43.8380 203.00 143.05 14.25
4320 43.8470 210.00 142.91 14.49
4321 43.8560 229.00 142.85 15.13
4322 43.8650 228.00 142.88 15.10
4323 43.8740 214.00 142.51 14.63
4324 43.8830 206.00 142.80 14.35
4325 43.8920 207.00 143.36 14.39
4326 43.9010 220.00 144.40 14.83
4327 43.9100 212.00 146.32 14.56
4328 43.9190 215.00 149.69 14.66
4329 43.9280 223.00 155.12 14.93
4330 43.9370 228.00 163.05 15.10
4331 43.9460 239.00 173.26 15.46
4332 43.9550 242.00 184.50 15.56
4333 43.9640 255.00 194.18 15.97
4334 43.9730 267.00 198.77 16.34
4335 43.9820 264.00 196.03 16.25
4336 43.9910 271.00 187.27 16.46
4337 44.0000 253.00 176.02 15.91
4338 44.0090 224.00 165.26 14.97
4339 44.0180 243.00 156.59 15.59
4340 44.0270 232.00 150.44 15.23
4341 44.0360 208.00 146.51 14.42
4342 44.0450 235.00 144.19 15.33
4343 44.0540 242.00 142.98 15.56
4344 44.0630 247.00 142.21 15.72
4345 44.0720 236.00 141.73 15.36
4346 44.0810 230.00 141.40 15.17
4347 44.0900 238.00 141.17 15.43
4348 44.0990 215.00 140.99 14.66
4349 44.1080 255.00 140.84 15.97
4350 44.1170 235.00 140.73 15.33
4351 44.1260 245.00 140.41 15.65
4352 44.1350 213.00 140.36 14.59
4353 44.1440 247.00 140.31 15.72
4354 44.1530 241.00 140.28 15.52
4355 44.1620 259.00 140.26 16.09
4356 44.1710 236.00 140.25 15.36
4357 44.1800 231.00 140.25 15.20
4358 44.1890 243.00 140.26 15.59
4359 44.1980 235.00 140.27 15.33
4360 44.2070 240.00 140.29 15.49
4361 44.2160 256.00 140.32 16.00
4362 44.2250 234.00 140.36 15.30
4363 44.2340 245.00 140.59 15.65
4364 44.2430 213.00 140.64 14.59
4365 44.2520 233.00 140.70 15.26
4366 44.2610 247.00 140.76 15.72
4367 44.2700 263.00 140.83 16.22
4368 44.2790 284.00 140.91 16.85
4369 44.2880 247.00 140.99 15.72
4370 44.2970 230.00 141.08 15.17
4371 44.3060 238.00 141.18 15.43
4372 44.3150 242.00 141.28 15.56
4373 44.3240 238.00 141.40 15.43
4374 44.3330 246.00 141.42 15.68
4375 44.3420 251.00 141.55 15.84
4376 44.3510 253.00 141.70 15.91
4377 44.3600 261.00 141.85 16.16
4378 44.3690 251.00 142.02 15.84
4379 44.3780 254.00 142.21 15.94
4380 44.3870 248.00 142.41 15.75
4381 44.3960 221.00 142.63 14.87
4382 44.4050 230.00 142.87 15.17
4383 44.4140 243.00 143.14 15.59
4384 44.4230 246.00 143.43 15.68
4385 44.4320 258.00 143.75 16.06
4386 44.4410 264.00 144.10 16.25
4387 44.4500 243.00 144.49 15.59
4388 44.4590 225.00 144.93 15.00
4389 44.4680 250.00 145.43 15.81
4390 44.4770 258.00 145.99 16.06
4391 44.4860 256.00 146.62 16.00
4392 44.4950 263.00 147.34 16.22
4393 44.5040 268.00 148.16 16.37
4394 44.5130 268.00 149.12 16.37
4395 44.5220 258.00 150.23 16.06
4396 44.5310 243.00 151.54 15.59
4397 44.5400 246.00 153.10 15.68
4398 44.5490 290.00 155.00 17.03
4399 44.5580 268.00 157.38 16.37
4400 44.5670 287.00 160.45 16.94
4401 44.5760 279.00 166.43 16.70
4402 44.5850 294.00 173.18 17.15
4403 44.5940 311.00 183.80 17.64
4404 44.6030 324.00 200.71 18.00
4405 44.6120 327.00 227.01 18.08
4406 44.6210 383.00 265.90 19.57
4407 44.6300 410.00 319.48 20.25
4408 44.6390 451.00 387.24 21.24
4409 44.6480 509.00 464.33 22.56
4410 44.6570 605.00 539.76 24.60
4411 44.6660 671.00 596.33 25.90
4412 44.6750 706.00 615.30 26.57
4413 44.6840 656.00 588.91 25.61
4414 44.6930 578.00 527.66 24.04
4415 44.7020 484.00 451.01 22.00
4416 44.7110 421.00 375.41 20.52
4417 44.7200 412.00 310.51 20.30
4418 44.7290 355.00 260.25 18.84
4419 44.7380 314.00 224.52 17.72
4420 44.7470 283.00 200.90 16.82
4421 44.7560 273.00 186.14 16.52
4422 44.7650 259.00 177.22 16.09
4423 44.7740 280.00 171.92 16.73
4424 44.7830 289.00 168.78 17.00
4425 44.7920 278.00 166.99 16.67
4426 44.8010 276.00 166.19 16.61
4427 44.8100 288.00 166.32 16.97
4428 44.8190 283.00 167.64 16.82
4429 44.8280 263.00 170.91 16.22
4430 44.8370 280.00 177.58 16.73
4431 44.8460 297.00 189.93 17.23
4432 44.8550 314.00 210.72 17.72
4433 44.8640 329.00 242.28 18.14
4434 44.8730 340.00 284.67 18.44
4435 44.8820 386.00 333.83 19.65
4436 44.8910 442.00 380.09 21.02
4437 44.9000 471.00 408.83 21.70
4438 44.9090 479.00 408.55 21.89
4439 44.9180 435.00 381.55 20.86
4440 44.9270 388.00 340.28 19.70
4441 44.9360 330.00 295.81 18.17
4442 44.9450 327.00 255.21 18.08
4443 44.9540 304.00 222.79 17.44
4444 44.9630 273.00 199.84 16.52
4445 44.9720 269.00 185.22 16.40
4446 44.9810 238.00 176.88 15.43
4447 44.9900 263.00 172.81 16.22
4448 44.9990 283.00 171.55 16.82
4449 45.0080 267.00 172.37 16.34
4450 45.0170 277.00 175.34 16.64
4451 45.0250 245.00 181.51 15.65
4452 45.0340 280.00 193.10 16.73
4453 45.0430 342.00 213.62 18.49
4454 45.0520 344.00 247.25 18.55
4455 45.0610 374.00 297.24 19.34
4456 45.0700 477.00 363.39 21.84
4457 45.0790 512.00 438.94 22.63
4458 45.0880 641.00 508.60 25.32
4459 45.0970 708.00 549.46 26.61
4460 45.1060 640.00 542.80 25.30
4461 45.1150 578.00 491.90 24.04
4462 45.1240 480.00 418.81 21.91
4463 45.1330 397.00 345.18 19.92
4464 45.1420 331.00 283.85 18.19
4465 45.1510 312.00 239.31 17.66
4466 45.1600 276.00 210.47 16.61
4467 45.1690 256.00 193.57 16.00
4468 45.1780 230.00 184.41 15.17
4469 45.1870 234.00 179.77 15.30
4470 45.1960 251.00 177.62 15.84
4471 45.2050 242.00 176.88 15.56
4472 45.2140 227.00 177.07 15.07
4473 45.2230 242.00 177.97 15.56
4474 45.2320 259.00 179.53 16.09
4475 45.2410 239.00 181.76 15.46
4476 45.2500 238.00 184.74 15.43
4477 45.2590 252.00 188.61 15.87
4478 45.2680 257.00 193.61 16.03
4479 45.2770 269.00 200.25 16.40
4480 45.2860 268.00 209.70 16.37
4481 45.2950 308.00 224.57 17.55
4482 45.3040 339.00 250.21 18.41
4483 45.3130 368.00 296.13 19.18
4484 45.3220 433.00 375.61 20.81
4485 45.3310 554.00 501.93 23.54
4486 45.3400 672.00 679.82 25.92
4487 45.3490 888.00 894.62 29.80
4488 45.3580 1056.00 1105.01 32.50
4489 45.3670 1260.00 1246.00 35.50
4490 45.3760 1337.00 1265.47 36.56
4491 45.3850 1326.00 1181.19 36.41
4492 45.3940 1236.00 1072.33 35.16
4493 45.4030 1096.00 1017.34 33.11
4494 45.4120 1117.00 1063.27 33.42
4495 45.4210 1300.00 1220.07 36.06
4496 45.4300 1516.00 1461.73 38.94
4497 45.4390 1737.00 1733.06 41.68
4498 45.4480 2067.00 1961.54 45.46
4499 45.4570 2220.00 2066.49 47.12
4500 45.4660 2200.00 1989.25 46.90
4501 45.4750 1942.00 1745.92 44.07
4502 45.4840 1610.00 1418.16 40.12
4503 45.4930 1226.00 1089.23 35.01
4504 45.5020 904.00 807.37 30.07
4505 45.5110 660.00 593.04 25.69
4506 45.5200 526.00 444.75 22.93
4507 45.5290 431.00 349.61 20.76
4508 45.5380 353.00 291.39 18.79
4509 45.5470 325.00 256.12 18.03
4510 45.5560 290.00 233.99 17.03
4511 45.5650 265.00 219.10 16.28
4512 45.5740 266.00 208.25 16.31
4513 45.5830 259.00 199.82 16.09
4514 45.5920 257.00 193.03 16.03
4515 45.6010 247.00 187.41 15.72
4516 45.6100 237.00 182.70 15.39
4517 45.6190 227.00 178.70 15.07
4518 45.6280 214.00 175.28 14.63
4519 45.6370 222.00 172.34 14.90
4520 45.6460 231.00 169.79 15.20
4521 45.6550 221.00 167.57 14.87
4522 45.6640 222.00 165.62 14.90
4523 45.6730 222.00 163.90 14.90
4524 45.6820 205.00 162.14 14.32
4525 45.6910 202.00 160.80 14.21
4526 45.7000 203.00 159.61 14.25
4527 45.7090 205.00 158.54 14.32
4528 45.7180 208.00 157.59 14.42
4529 45.7270 209.00 156.73 14.46
4530 45.7360 200.00 155.96 14.14
4531 45.7450 195.00 155.26 13.96
4532 45.7540 182.00 154.64 13.49
4533 45.7630 178.00 153.97 13.34
4534 45.7720 199.00 153.47 14.11
4535 45.7810 193.00 153.02 13.89
4536 45.7900 185.00 152.62 13.60
4537 45.7990 195.00 152.26 13.96
4538 45.8080 188.00 151.95 13.71
4539 45.8170 194.00 151.68 13.93
4540 45.8260 193.00 151.45 13.89
4541 45.8350 200.00 151.26 14.14
4542 45.8440 193.00 151.12 13.89
4543 45.8530 182.00 151.53 13.49
4544 45.8620 206.00 151.57 14.35
4545 45.8710 192.00 151.73 13.86
4546 45.8800 191.00 152.06 13.82
4547 45.8890 207.00 152.58 14.39
4548 45.8980 209.00 153.28 14.46
4549 45.9070 167.00 154.12 12.92
4550 45.9160 201.00 154.98 14.18
4551 45.9250 201.00 155.67 14.18
4552 45.9340 190.00 155.98 13.78
4553 45.9430 189.00 156.40 13.75
4554 45.9520 191.00 155.82 13.82
4555 45.9610 190.00 155.07 13.78
4556 45.9700 207.00 154.34 14.39
4557 45.9790 179.00 153.56 13.38
4558 45.9880 203.00 153.17 14.25
4559 45.9970 193.00 152.97 13.89
4560 46.0060 188.00 152.94 13.71
4561 46.0150 186.00 153.05 13.64
4562 46.0240 178.00 153.26 13.34
4563 46.0330 168.00 153.55 12.96
4564 46.0420 179.00 153.90 13.38
4565 46.0510 205.00 154.31 14.32
4566 46.0600 201.00 155.94 14.18
4567 46.0690 201.00 156.49 14.18
4568 46.0780 194.00 157.11 13.93
4569 46.0870 180.00 157.80 13.42
4570 46.0960 184.00 158.56 13.56
4571 46.1050 186.00 159.42 13.64
4572 46.1140 185.00 160.37 13.60
4573 46.1230 188.00 161.43 13.71
4574 46.1320 190.00 162.62 13.78
4575 46.1410 190.00 163.96 13.78
4576 46.1500 207.00 165.46 14.39
4577 46.1590 206.00 167.17 14.35
4578 46.1680 213.00 169.10 14.59
4579 46.1770 212.00 171.31 14.56
4580 46.1860 194.00 173.44 13.93
4581 46.1950 192.00 176.37 13.86
4582 46.2040 213.00 179.78 14.59
4583 46.2130 197.00 183.77 14.04
4584 46.2220 211.00 188.48 14.53
4585 46.2310 225.00 194.09 15.00
4586 46.2400 228.00 200.86 15.10
4587 46.2490 254.00 209.19 15.94
4588 46.2580 252.00 219.76 15.87
4589 46.2670 298.00 233.89 17.26
4590 46.2760 320.00 254.34 17.89
4591 46.2850 367.00 286.76 19.16
4592 46.2940 440.00 341.70 20.98
4593 46.3030 503.00 436.46 22.43
4594 46.3120 672.00 594.49 25.92
4595 46.3210 900.00 839.29 30.00
4596 46.3300 1260.00 1182.57 35.50
4597 46.3390 1691.00 1607.85 41.12
4598 46.3480 2062.00 2054.85 45.41
4599 46.3570 2578.00 2410.46 50.77
4600 46.3660 2794.00 2538.03 52.86
4601 46.3750 2592.00 2374.41 50.91
4602 46.3840 2061.00 1998.00 45.40
4603 46.3930 1535.00 1548.05 39.18
4604 46.4020 1112.00 1133.09 33.35
4605 46.4110 807.00 805.86 28.41
4606 46.4200 608.00 578.53 24.66
4607 46.4290 505.00 437.31 22.47
4608 46.4380 415.00 358.87 20.37
4609 46.4470 350.00 321.43 18.71
4610 46.4560 349.00 309.18 18.68
4611 46.4650 357.00 311.94 18.89
4612 46.4740 354.00 322.60 18.81
4613 46.4830 362.00 334.93 19.03
4614 46.4920 381.00 341.11 19.52
4615 46.5010 365.00 335.66 19.10
4616 46.5100 329.00 318.05 18.14
4617 46.5190 293.00 293.12 17.12
4618 46.5280 256.00 266.81 16.00
4619 46.5370 247.00 243.21 15.72
4620 46.5460 233.00 224.34 15.26
4621 46.5550 216.00 210.64 14.70
4622 46.5640 220.00 201.57 14.83
4623 46.5730 213.00 196.21 14.59
4624 46.5820 197.00 193.71 14.04
4625 46.5910 215.00 193.77 14.66
4626 46.6000 221.00 196.88 14.87
4627 46.6090 207.00 204.57 14.39
4628 46.6180 227.00 219.32 15.07
4629 46.6270 245.00 243.70 15.65
4630 46.6360 278.00 278.76 16.67
4631 46.6450 348.00 321.86 18.65
4632 46.6540 352.00 364.93 18.76
4633 46.6630 387.00 394.44 19.67
4634 46.6720 402.00 397.41 20.05
4635 46.6810 426.00 373.10 20.64
4636 46.6900 375.00 334.50 19.36
4637 46.6990 340.00 294.94 18.44
4638 46.7080 290.00 263.42 17.03
4639 46.7170 259.00 243.07 16.09
4640 46.7260 247.00 233.25 15.72
4641 46.7350 256.00 231.72 16.00
4642 46.7440 261.00 236.55 16.16
4643 46.7530 265.00 247.17 16.28
4644 46.7620 289.00 264.70 17.00
4645 46.7710 298.00 292.05 17.26
4646 46.7800 380.00 333.60 19.49
4647 46.7890 431.00 394.81 20.76
4648 46.7980 546.00 481.16 23.37
4649 46.8070 649.00 596.82 25.48
4650 46.8160 778.00 743.24 27.89
4651 46.8250 976.00 916.91 31.24
4652 46.8340 1303.00 1106.74 36.10
4653 46.8430 1485.00 1293.90 38.54
4654 46.8520 1622.00 1461.44 40.27
4655 46.8610 1715.00 1603.44 41.41
4656 46.8700 1765.00 1713.90 42.01
4657 46.8790 1808.00 1767.63 42.52
4658 46.8880 1767.00 1727.64 42.04
4659 46.8970 1607.00 1587.13 40.09
4660 46.9060 1358.00 1393.14 36.85
4661 46.9150 1189.00 1215.00 34.48
4662 46.9240 1084.00 1111.11 32.92
4663 46.9330 1070.00 1120.63 32.71
4664 46.9420 1160.00 1260.89 34.06
4665 46.9510 1350.00 1523.14 36.74
4666 46.9600 1703.00 1865.65 41.27
4667 46.9690 2129.00 2208.23 46.14
4668 46.9780 2493.00 2435.17 49.93
4669 46.9870 2594.00 2440.13 50.93
4670 46.9960 2402.00 2209.91 49.01
4671 47.0050 1995.00 1835.28 44.67
4672 47.0140 1483.00 1427.34 38.51
4673 47.0230 1043.00 1061.98 32.30
4674 47.0320 750.00 774.41 27.39
4675 47.0410 538.00 570.03 23.19
4676 47.0490 426.00 436.35 20.64
4677 47.0580 381.00 353.72 19.52
4678 47.0670 284.00 303.68 16.85
4679 47.0760 283.00 272.62 16.82
4680 47.0850 252.00 252.08 15.87
4681 47.0940 232.00 237.36 15.23
4682 47.1030 223.00 226.07 14.93
4683 47.1120 198.00 217.03 14.07
4684 47.1210 193.00 209.60 13.89
4685 47.1300 200.00 203.41 14.14
4686 47.1390 206.00 198.19 14.35
4687 47.1480 178.00 193.78 13.34
4688 47.1570 186.00 190.04 13.64
4689 47.1660 182.00 186.85 13.49
4690 47.1750 176.00 184.15 13.27
4691 47.1840 197.00 181.87 14.04
4692 47.1930 188.00 179.95 13.71
4693 47.2020 175.00 178.37 13.23
4694 47.2110 191.00 177.09 13.82
4695 47.2200 171.00 176.11 13.08
4696 47.2290 176.00 175.40 13.27
4697 47.2380 191.00 174.99 13.82
4698 47.2470 188.00 173.79 13.71
4699 47.2560 173.00 174.00 13.15
4700 47.2650 168.00 174.56 12.96
4701 47.2740 180.00 175.52 13.42
4702 47.2830 170.00 176.97 13.04
4703 47.2920 181.00 179.05 13.45
4704 47.3010 192.00 182.07 13.86
4705 47.3100 195.00 186.58 13.96
4706 47.3190 203.00 193.74 14.25
4707 47.3280 223.00 205.67 14.93
4708 47.3370 256.00 225.88 16.00
4709 47.3460 278.00 259.36 16.67
4710 47.3550 318.00 311.74 17.83
4711 47.3640 379.00 387.33 19.47
4712 47.3730 449.00 486.17 21.19
4713 47.3820 555.00 600.55 23.56
4714 47.3910 654.00 711.99 25.57
4715 47.4000 764.00 790.68 27.64
4716 47.4090 848.00 806.10 29.12
4717 47.4180 784.00 751.02 28.00
4718 47.4270 684.00 649.25 26.15
4719 47.4360 537.00 533.58 23.17
4720 47.4450 438.00 427.67 20.93
4721 47.4540 354.00 343.25 18.81
4722 47.4630 293.00 283.05 17.12
4723 47.4720 237.00 244.98 15.39
4724 47.4810 237.00 221.94 15.39
4725 47.4900 259.00 209.68 16.09
4726 47.4990 225.00 204.24 15.00
4727 47.5080 213.00 203.87 14.59
4728 47.5170 215.00 208.40 14.66
4729 47.5260 226.00 219.65 15.03
4730 47.5350 255.00 241.39 15.97
4731 47.5440 321.00 279.00 17.92
4732 47.5530 397.00 338.22 19.92
4733 47.5620 471.00 422.58 21.70
4734 47.5710 562.00 529.77 23.71
4735 47.5800 671.00 648.23 25.90
4736 47.5890 770.00 754.29 27.75
4737 47.5980 866.00 814.86 29.43
4738 47.6070 882.00 806.16 29.70
4739 47.6160 771.00 735.82 27.77
4740 47.6250 647.00 634.17 25.44
4741 47.6340 516.00 528.75 22.72
4742 47.6430 421.00 434.70 20.52
4743 47.6520 338.00 357.91 18.38
4744 47.6610 273.00 299.38 16.52
4745 47.6700 270.00 256.97 16.43
4746 47.6790 248.00 227.10 15.75
4747 47.6880 217.00 206.27 14.73
4748 47.6970 196.00 191.73 14.00
4749 47.7060 183.00 181.54 13.53
4750 47.7150 174.00 174.36 13.19
4751 47.7240 173.00 169.26 13.15
4752 47.7330 167.00 165.54 12.92
4753 47.7420 158.00 162.73 12.57
4754 47.7510 154.00 160.53 12.41
4755 47.7600 169.00 158.75 13.00
4756 47.7690 161.00 157.26 12.69
4757 47.7780 134.00 156.00 11.58
4758 47.7870 146.00 155.83 12.08
4759 47.7960 164.00 154.90 12.81
4760 47.8050 165.00 154.10 12.85
4761 47.8140 166.00 153.40 12.88
4762 47.8230 155.00 152.79 12.45
4763 47.8320 157.00 152.25 12.53
4764 47.8410 166.00 151.17 12.88
4765 47.8500 164.00 150.76 12.81
4766 47.8590 165.00 150.40 12.85
4767 47.8680 155.00 150.09 12.45
4768 47.8770 158.00 149.46 12.57
4769 47.8860 152.00 149.23 12.33
4770 47.8950 163.00 149.02 12.77
4771 47.9040 150.00 148.85 12.25
4772 47.9130 156.00 148.70 12.49
4773 47.9220 159.00 147.47 12.61
4774 47.9310 160.00 147.43 12.65
4775 47.9400 161.00 147.37 12.69
4776 47.9490 149.00 147.34 12.21
4777 47.9580 156.00 147.32 12.49
4778 47.9670 152.00 147.33 12.33
4779 47.9760 163.00 147.36 12.77
4780 47.9850 152.00 147.40 12.33
4781 47.9940 130.00 147.47 11.40
4782 48.0030 170.00 147.55 13.04
4783 48.0120 144.00 147.65 12.00
4784 48.0210 153.00 147.77 12.37
4785 48.0300 158.00 147.91 12.57
4786 48.0390 179.00 148.08 13.38
4787 48.0480 165.00 148.26 12.85
4788 48.0570 138.00 148.47 11.75
4789 48.0660 157.00 148.71 12.53
4790 48.0750 157.00 148.97 12.53
4791 48.0840 149.00 149.26 12.21
4792 48.0930 144.00 149.58 12.00
4793 48.1020 143.00 149.93 11.96
4794 48.1110 152.00 150.32 12.33
4795 48.1200 159.00 150.74 12.61
4796 48.1290 153.00 151.21 12.37
4797 48.1380 151.00 151.73 12.29
4798 48.1470 157.00 152.29 12.53
4799 48.1560 172.00 152.92 13.11
4800 48.1650 161.00 153.61 12.69
4801 48.1740 167.00 154.37 12.92
4802 48.1830 161.00 155.22 12.69
4803 48.1920 156.00 156.16 12.49
4804 48.2010 153.00 157.20 12.37
4805 48.2100 150.00 158.37 12.25
4806 48.2190 165.00 159.67 12.85
4807 48.2280 163.00 161.13 12.77
4808 48.2370 157.00 162.79 12.53
4809 48.2460 166.00 164.66 12.88
4810 48.2550 170.00 166.79 13.04
4811 48.2640 169.00 169.24 13.00
4812 48.2730 177.00 172.05 13.30
4813 48.2820 192.00 175.31 13.86
4814 48.2910 171.00 179.12 13.08
4815 48.3000 178.00 183.62 13.34
4816 48.3090 209.00 188.99 14.46
4817 48.3180 198.00 195.54 14.07
4818 48.3270 198.00 203.76 14.07
4819 48.3360 220.00 214.64 14.83
4820 48.3450 283.00 229.71 16.82
4821 48.3540 277.00 253.11 16.64
4822 48.3630 327.00 290.37 18.08
4823 48.3720 364.00 350.45 19.08
4824 48.3810 507.00 444.86 22.52
4825 48.3900 608.00 585.22 24.66
4826 48.3990 809.00 778.74 28.44
4827 48.4080 1003.00 1021.92 31.67
4828 48.4170 1276.00 1294.34 35.72
4829 48.4260 1599.00 1551.17 39.99
4830 48.4350 1812.00 1725.83 42.57
4831 48.4440 1869.00 1753.86 43.23
4832 48.4530 1729.00 1623.39 41.58
4833 48.4620 1457.00 1387.47 38.17
4834 48.4710 1229.00 1117.49 35.06
4835 48.4800 915.00 866.04 30.25
4836 48.4890 673.00 660.63 25.94
4837 48.4980 531.00 509.57 23.04
4838 48.5070 419.00 408.48 20.47
4839 48.5160 367.00 347.02 19.16
4840 48.5250 356.00 313.69 18.87
4841 48.5340 365.00 301.10 19.10
4842 48.5430 342.00 306.22 18.49
4843 48.5520 380.00 333.32 19.49
4844 48.5610 460.00 395.07 21.45
4845 48.5700 601.00 512.05 24.52
4846 48.5790 755.00 707.65 27.48
4847 48.5880 1038.00 995.74 32.22
4848 48.5970 1401.00 1363.90 37.43
4849 48.6060 1781.00 1756.95 42.20
4850 48.6150 2163.00 2071.24 46.51
4851 48.6240 2300.00 2182.58 47.96
4852 48.6330 2070.00 2038.86 45.50
4853 48.6420 1677.00 1716.27 40.95
4854 48.6510 1320.00 1338.26 36.33
4855 48.6600 981.00 993.35 31.32
4856 48.6690 690.00 721.85 26.27
4857 48.6780 532.00 529.77 23.07
4858 48.6870 410.00 404.37 20.25
4859 48.6960 338.00 326.43 18.38
4860 48.7050 289.00 278.91 17.00
4861 48.7140 267.00 251.82 16.34
4862 48.7230 234.00 236.38 15.30
4863 48.7320 212.00 230.43 14.56
4864 48.7410 214.00 231.53 14.63
4865 48.7500 218.00 236.90 14.76
4866 48.7590 238.00 242.68 15.43
4867 48.7680 236.00 244.12 15.36
4868 48.7770 234.00 237.89 15.30
4869 48.7860 200.00 224.93 14.14
4870 48.7950 207.00 209.20 14.39
4871 48.8040 186.00 194.29 13.64
4872 48.8130 178.00 182.17 13.34
4873 48.8220 167.00 173.35 12.92
4874 48.8310 170.00 167.40 13.04
4875 48.8400 150.00 163.52 12.25
4876 48.8490 168.00 160.91 12.96
4877 48.8580 152.00 159.05 12.33
4878 48.8670 143.00 157.60 11.96
4879 48.8760 159.00 156.41 12.61
4880 48.8850 163.00 155.39 12.77
4881 48.8940 163.00 154.51 12.77
4882 48.9030 172.00 153.74 13.11
4883 48.9120 150.00 153.05 12.25
4884 48.9210 152.00 152.46 12.33
4885 48.9300 149.00 151.93 12.21
4886 48.9390 168.00 151.47 12.96
4887 48.9480 160.00 151.07 12.65
4888 48.9570 162.00 150.72 12.73
4889 48.9660 155.00 150.42 12.45
4890 48.9750 146.00 150.17 12.08
4891 48.9840 149.00 149.96 12.21
4892 48.9930 159.00 149.80 12.61
4893 49.0010 160.00 149.68 12.65
4894 49.0100 153.00 149.61 12.37
4895 49.0190 162.00 149.58 12.73
4896 49.0280 156.00 149.60 12.49
4897 49.0370 145.00 149.67 12.04
4898 49.0460 161.00 149.79 12.69
4899 49.0550 172.00 149.97 13.11
4900 49.0640 161.00 150.22 12.69
4901 49.0730 153.00 150.54 12.37
4902 49.0820 149.00 150.94 12.21
4903 49.0910 151.00 151.43 12.29
4904 49.1000 166.00 152.04 12.88
4905 49.1090 169.00 152.79 13.00
4906 49.1180 161.00 153.71 12.69
4907 49.1270 166.00 154.83 12.88
4908 49.1360 180.00 156.22 13.42
4909 49.1450 173.00 157.95 13.15
4910 49.1540 163.00 160.16 12.77
4911 49.1630 160.00 163.14 12.65
4912 49.1720 176.00 167.48 13.27
4913 49.1810 176.00 174.53 13.27
4914 49.1900 190.00 186.98 13.78
4915 49.1990 228.00 209.55 15.10
4916 49.2080 277.00 249.00 16.64
4917 49.2170 291.00 312.62 17.06
4918 49.2260 363.00 404.40 19.05
4919 49.2350 456.00 520.03 21.35
4920 49.2440 548.00 641.93 23.41
4921 49.2530 706.00 737.62 26.57
4922 49.2620 703.00 768.61 26.51
4923 49.2710 669.00 719.04 25.86
4924 49.2800 521.00 613.09 22.83
4925 49.2890 440.00 490.20 20.98
4926 49.2980 333.00 379.56 18.25
4927 49.3070 266.00 295.00 16.31
4928 49.3160 274.00 238.28 16.55
4929 49.3250 205.00 204.07 14.32
4930 49.3340 175.00 184.94 13.23
4931 49.3430 175.00 174.53 13.23
4932 49.3520 181.00 168.67 13.45
4933 49.3610 190.00 165.08 13.78
4934 49.3700 165.00 162.68 12.85
4935 49.3790 178.00 160.95 13.34
4936 49.3880 168.00 159.69 12.96
4937 49.3970 174.00 158.77 13.19
4938 49.4060 161.00 158.13 12.69
4939 49.4150 164.00 157.72 12.81
4940 49.4240 156.00 156.68 12.49
4941 49.4330 173.00 156.66 13.15
4942 49.4420 175.00 156.79 13.23
4943 49.4510 160.00 157.07 12.65
4944 49.4600 173.00 157.49 13.15
4945 49.4690 173.00 157.23 13.15
4946 49.4780 159.00 157.96 12.61
4947 49.4870 159.00 158.83 12.61
4948 49.4960 160.00 159.86 12.65
4949 49.5050 158.00 161.06 12.57
4950 49.5140 161.00 162.45 12.69
4951 49.5230 167.00 164.04 12.92
4952 49.5320 174.00 165.88 13.19
4953 49.5410 176.00 167.97 13.27
4954 49.5500 177.00 170.38 13.30
4955 49.5590 179.00 173.14 13.38
4956 49.5680 174.00 176.33 13.19
4957 49.5770 182.00 180.02 13.49
4958 49.5860 183.00 184.32 13.53
4959 49.5950 198.00 189.39 14.07
4960 49.6040 204.00 195.42 14.28
4961 49.6130 218.00 202.68 14.76
4962 49.6220 234.00 211.75 15.30
4963 49.6310 260.00 224.58 16.12
4964 49.6400 243.00 240.00 15.59
4965 49.6490 293.00 261.03 17.12
4966 49.6580 309.00 290.55 17.58
4967 49.6670 385.00 332.94 19.62
4968 49.6760 458.00 394.75 21.40
4969 49.6850 542.00 485.00 23.28
4970 49.6940 658.00 614.53 25.65
4971 49.7030 790.00 794.12 28.11
4972 49.7120 994.00 1031.09 31.53
4973 49.7210 1250.00 1325.84 35.36
4974 49.7300 1588.00 1666.17 39.85
4975 49.7390 1865.00 2019.86 43.19
4976 49.7480 2238.00 2326.14 47.31
4977 49.7570 2436.00 2501.75 49.36
4978 49.7660 2492.00 2480.00 49.92
4979 49.7750 2301.00 2264.67 47.97
4980 49.7840 1982.00 1927.08 44.52
4981 49.7930 1525.00 1552.30 39.05
4982 49.8020 1171.00 1201.04 34.22
4983 49.8110 885.00 906.26 29.75
4984 49.8200 722.00 679.54 26.87
4985 49.8290 531.00 517.24 23.04
4986 49.8380 431.00 407.58 20.76
4987 49.8470 355.00 336.38 18.84
4988 49.8560 328.00 290.76 18.11
4989 49.8650 316.00 261.00 17.78
4990 49.8740 279.00 240.68 16.70
4991 49.8830 245.00 225.95 15.65
4992 49.8920 217.00 214.63 14.73
4993 49.9010 213.00 205.55 14.59
4994 49.9100 218.00 198.06 14.76
4995 49.9190 202.00 191.76 14.21
4996 49.9280 199.00 186.40 14.11
4997 49.9370 200.00 181.81 14.14
4998 49.9460 175.00 177.84 13.23
4999 49.9550 166.00 174.40 12.88
5000 49.9640 180.00 171.39 13.42
5001 49.9730 177.00 168.75 13.30
5002 49.9820 169.00 166.42 13.00
5003 49.9910 188.00 164.37 13.71
5004 50.0000 178.00 162.54 13.34
5005 50.0090 166.00 160.92 12.88
5006 50.0180 162.00 159.48 12.73
5007 50.0270 172.00 158.29 13.11
5008 50.0360 159.00 157.14 12.61
5009 50.0450 160.00 156.11 12.65
5010 50.0540 174.00 155.19 13.19
5011 50.0630 171.00 154.36 13.08
5012 50.0720 179.00 153.62 13.38
5013 50.0810 158.00 152.96 12.57
5014 50.0900 153.00 152.38 12.37
5015 50.0990 163.00 151.86 12.77
5016 50.1080 146.00 151.41 12.08
5017 50.1170 153.00 150.75 12.37
5018 50.1260 137.00 150.42 11.70
5019 50.1350 158.00 150.14 12.57
5020 50.1440 170.00 149.90 13.04
5021 50.1530 184.00 149.72 13.56
5022 50.1620 172.00 149.59 13.11
5023 50.1710 178.00 149.49 13.34
5024 50.1800 169.00 149.45 13.00
5025 50.1890 174.00 149.46 13.19
5026 50.1980 168.00 149.51 12.96
5027 50.2070 168.00 149.60 12.96
5028 50.2160 177.00 149.75 13.30
5029 50.2250 155.00 149.95 12.45
5030 50.2340 171.00 150.21 13.08
5031 50.2430 173.00 150.52 13.15
5032 50.2520 181.00 150.90 13.45
5033 50.2610 193.00 151.34 13.89
5034 50.2700 184.00 151.86 13.56
5035 50.2790 190.00 152.46 13.78
5036 50.2880 177.00 153.14 13.30
5037 50.2970 177.00 153.93 13.30
5038 50.3060 181.00 154.82 13.45
5039 50.3150 179.00 155.85 13.38
5040 50.3240 177.00 157.01 13.30
5041 50.3330 175.00 158.34 13.23
5042 50.3420 176.00 159.85 13.27
5043 50.3510 174.00 161.58 13.19
5044 50.3600 173.00 163.57 13.15
5045 50.3690 180.00 165.85 13.42
5046 50.3780 186.00 168.50 13.64
5047 50.3870 201.00 171.56 14.18
5048 50.3960 211.00 175.14 14.53
5049 50.4050 195.00 179.35 13.96
5050 50.4140 206.00 184.34 14.35
5051 50.4230 197.00 190.30 14.04
5052 50.4320 220.00 197.51 14.83
5053 50.4410 253.00 206.42 15.91
5054 50.4500 267.00 217.83 16.34
5055 50.4590 305.00 233.29 17.46
5056 50.4680 337.00 255.93 18.36
5057 50.4770 369.00 291.78 19.21
5058 50.4860 460.00 351.32 21.45
5059 50.4950 581.00 450.49 24.10
5060 50.5040 741.00 609.33 27.22
5061 50.5130 1001.00 846.84 31.64
5062 50.5220 1283.00 1170.47 35.82
5063 50.5310 1690.00 1565.12 41.11
5064 50.5400 2264.00 1980.92 47.58
5065 50.5490 2598.00 2324.92 50.97
5066 50.5580 2766.00 2479.44 52.59
5067 50.5670 2645.00 2375.31 51.43
5068 50.5760 2177.00 2060.10 46.66
5069 50.5850 1687.00 1650.63 41.07
5070 50.5940 1179.00 1248.05 34.34
5071 50.6030 893.00 910.45 29.88
5072 50.6120 669.00 659.40 25.86
5073 50.6210 491.00 490.92 22.16
5074 50.6300 427.00 388.28 20.66
5075 50.6390 406.00 332.37 20.15
5076 50.6480 362.00 307.74 19.03
5077 50.6570 332.00 304.47 18.22
5078 50.6660 337.00 316.98 18.36
5079 50.6750 376.00 341.80 19.39
5080 50.6840 403.00 375.41 20.07
5081 50.6930 431.00 412.57 20.76
5082 50.7020 481.00 446.52 21.93
5083 50.7110 516.00 472.71 22.72
5084 50.7200 562.00 491.10 23.71
5085 50.7290 620.00 501.75 24.90
5086 50.7380 630.00 500.16 25.10
5087 50.7470 613.00 479.38 24.76
5088 50.7560 567.00 438.84 23.81
5089 50.7650 496.00 386.59 22.27
5090 50.7740 416.00 332.79 20.40
5091 50.7830 356.00 284.67 18.87
5092 50.7920 304.00 245.65 17.44
5093 50.8010 259.00 216.39 16.09
5094 50.8100 263.00 195.83 16.22
5095 50.8190 243.00 180.83 15.59
5096 50.8280 221.00 171.85 14.87
5097 50.8370 208.00 165.94 14.42
5098 50.8460 223.00 161.90 14.93
5099 50.8550 197.00 158.99 14.04
5100 50.8640 208.00 156.79 14.42
5101 50.8730 213.00 155.07 14.59
5102 50.8810 203.00 153.71 14.25
5103 50.8900 184.00 152.65 13.56
5104 50.8990 188.00 151.86 13.71
5105 50.9080 198.00 151.33 14.07
5106 50.9170 203.00 151.06 14.25
5107 50.9260 199.00 151.09 14.11
5108 50.9350 209.00 151.50 14.46
5109 50.9440 203.00 152.47 14.25
5110 50.9530 211.00 154.32 14.53
5111 50.9620 203.00 157.63 14.25
5112 50.9710 214.00 163.29 14.63
5113 50.9800 220.00 172.50 14.83
5114 50.9890 240.00 186.64 15.49
5115 50.9980 258.00 206.82 16.06
5116 51.0070 269.00 233.34 16.40
5117 51.0160 285.00 265.00 16.88
5118 51.0250 315.00 298.44 17.75
5119 51.0340 354.00 327.50 18.81
5120 51.0430 383.00 344.00 19.57
5121 51.0520 348.00 341.62 18.65
5122 51.0610 353.00 321.18 18.79
5123 51.0700 320.00 289.88 17.89
5124 51.0790 268.00 255.73 16.37
5125 51.0880 260.00 224.29 16.12
5126 51.0970 248.00 198.42 15.75
5127 51.1060 244.00 178.92 15.62
5128 51.1150 241.00 165.24 15.52
5129 51.1240 227.00 156.70 15.07
5130 51.1330 206.00 150.88 14.35
5131 51.1420 215.00 147.15 14.66
5132 51.1510 221.00 144.67 14.87
5133 51.1600 200.00 142.92 14.14
5134 51.1690 191.00 141.61 13.82
5135 51.1780 197.00 140.56 14.04
5136 51.1870 198.00 139.70 14.07
5137 51.1960 202.00 139.10 14.21
5138 51.2050 204.00 138.48 14.28
5139 51.2140 203.00 137.94 14.25
5140 51.2230 205.00 137.46 14.32
5141 51.2320 206.00 137.05 14.35
5142 51.2410 201.00 136.68 14.18
5143 51.2500 199.00 136.36 14.11
5144 51.2590 198.00 136.07 14.07
5145 51.2680 201.00 135.81 14.18
5146 51.2770 202.00 135.58 14.21
5147 51.2860 205.00 135.37 14.32
5148 51.2950 177.00 135.19 13.30
5149 51.3040 173.00 135.03 13.15
5150 51.3130 202.00 134.88 14.21
5151 51.3220 197.00 134.76 14.04
5152 51.3310 188.00 134.65 13.71
5153 51.3400 198.00 134.56 14.07
5154 51.3490 193.00 134.49 13.89
5155 51.3580 187.00 134.43 13.67
5156 51.3670 187.00 134.40 13.67
5157 51.3760 208.00 134.38 14.42
5158 51.3850 194.00 134.38 13.93
5159 51.3940 191.00 134.40 13.82
5160 51.4030 202.00 134.44 14.21
5161 51.4120 205.00 134.51 14.32
5162 51.4210 194.00 134.60 13.93
5163 51.4300 223.00 134.73 14.93
5164 51.4390 201.00 134.90 14.18
5165 51.4480 216.00 135.12 14.70
5166 51.4570 235.00 135.39 15.33
5167 51.4660 209.00 135.73 14.46
5168 51.4750 199.00 136.15 14.11
5169 51.4840 191.00 136.69 13.82
5170 51.4930 199.00 137.37 14.11
5171 51.5020 191.00 137.16 13.82
5172 51.5110 191.00 138.49 13.82
5173 51.5200 215.00 140.57 14.66
5174 51.5290 214.00 144.12 14.63
5175 51.5380 226.00 150.43 15.03
5176 51.5470 239.00 161.43 15.46
5177 51.5560 268.00 179.44 16.37
5178 51.5650 271.00 206.21 16.46
5179 51.5740 304.00 242.00 17.44
5180 51.5830 336.00 282.35 18.33
5181 51.5920 354.00 319.53 18.81
5182 51.6010 392.00 341.54 19.80
5183 51.6100 402.00 338.50 20.05
5184 51.6190 360.00 311.88 18.97
5185 51.6280 331.00 272.99 18.19
5186 51.6370 307.00 233.27 17.52
5187 51.6460 265.00 199.80 16.28
5188 51.6550 231.00 175.37 15.20
5189 51.6640 203.00 159.32 14.25
5190 51.6730 214.00 149.66 14.63
5191 51.6820 210.00 144.28 14.49
5192 51.6910 201.00 141.29 14.18
5193 51.7000 224.00 139.56 14.97
5194 51.7090 217.00 138.48 14.73
5195 51.7180 215.00 137.74 14.66
5196 51.7270 192.00 137.22 13.86
5197 51.7360 177.00 136.85 13.30
5198 51.7450 184.00 136.46 13.56
5199 51.7540 206.00 136.31 14.35
5200 51.7630 193.00 136.24 13.89
5201 51.7720 187.00 136.24 13.67
5202 51.7810 180.00 136.31 13.42
5203 51.7900 184.00 136.44 13.56
5204 51.7990 223.00 136.63 14.93
5205 51.8080 173.00 136.88 13.15
5206 51.8170 189.00 137.20 13.75
5207 51.8260 209.00 137.57 14.46
5208 51.8350 176.00 138.02 13.27
5209 51.8440 161.00 138.54 12.69
5210 51.8530 196.00 139.15 14.00
5211 51.8620 189.00 139.85 13.75
5212 51.8710 178.00 140.66 13.34
5213 51.8800 201.00 141.58 14.18
5214 51.8890 210.00 142.65 14.49
5215 51.8980 199.00 143.89 14.11
5216 51.9070 195.00 145.32 13.96
5217 51.9160 191.00 146.98 13.82
5218 51.9250 203.00 148.93 14.25
5219 51.9340 207.00 151.23 14.39
5220 51.9430 198.00 153.97 14.07
5221 51.9520 208.00 157.29 14.42
5222 51.9610 227.00 161.42 15.07
5223 51.9700 235.00 166.79 15.33
5224 51.9790 212.00 174.19 14.56
5225 51.9880 243.00 185.04 15.59
5226 51.9970 283.00 201.76 16.82
5227 52.0060 312.00 228.03 17.66
5228 52.0150 344.00 268.82 18.55
5229 52.0240 386.00 329.63 19.65
5230 52.0330 469.00 415.12 21.66
5231 52.0420 585.00 526.78 24.19
5232 52.0510 680.00 658.48 26.08
5233 52.0600 796.00 797.09 28.21
5234 52.0690 944.00 917.59 30.72
5235 52.0780 1017.00 986.82 31.89
5236 52.0870 1002.00 979.76 31.65
5237 52.0960 929.00 899.87 30.48
5238 52.1050 796.00 776.44 28.21
5239 52.1140 626.00 642.33 25.02
5240 52.1230 497.00 520.88 22.29
5241 52.1320 439.00 425.19 20.95
5242 52.1410 405.00 360.28 20.12
5243 52.1500 397.00 325.75 19.92
5244 52.1590 343.00 317.77 18.52
5245 52.1680 369.00 330.37 19.21
5246 52.1770 381.00 356.04 19.52
5247 52.1860 430.00 385.34 20.74
5248 52.1950 428.00 406.78 20.69
5249 52.2040 426.00 409.43 20.64
5250 52.2130 403.00 389.47 20.07
5251 52.2220 384.00 353.00 19.60
5252 52.2310 311.00 310.07 17.64
5253 52.2400 286.00 268.72 16.91
5254 52.2490 275.00 233.58 16.58
5255 52.2580 239.00 206.74 15.46
5256 52.2670 220.00 187.31 14.83
5257 52.2760 201.00 174.26 14.18
5258 52.2850 171.00 165.88 13.08
5259 52.2940 184.00 160.62 13.56
5260 52.3030 182.00 157.33 13.49
5261 52.3120 185.00 155.25 13.60
5262 52.3210 193.00 153.95 13.89
5263 52.3300 178.00 153.20 13.34
5264 52.3390 169.00 152.90 13.00
5265 52.3480 185.00 152.99 13.60
5266 52.3570 191.00 153.49 13.82
5267 52.3660 181.00 154.40 13.45
5268 52.3750 192.00 155.78 13.86
5269 52.3840 181.00 157.74 13.45
5270 52.3930 180.00 160.45 13.42
5271 52.4020 197.00 164.24 14.04
5272 52.4110 191.00 169.77 13.82
5273 52.4200 223.00 178.32 14.93
5274 52.4290 228.00 192.13 15.10
5275 52.4380 230.00 214.89 15.17
5276 52.4470 276.00 251.82 16.61
5277 52.4560 350.00 309.02 18.71
5278 52.4650 398.00 391.49 19.95
5279 52.4740 467.00 500.70 21.61
5280 52.4830 611.00 629.45 24.72
5281 52.4920 744.00 760.67 27.28
5282 52.5010 850.00 864.68 29.15
5283 52.5100 904.00 905.69 30.07
5284 52.5190 832.00 865.67 28.84
5285 52.5280 711.00 761.99 26.66
5286 52.5370 604.00 630.50 24.58
5287 52.5460 461.00 501.35 21.47
5288 52.5550 380.00 392.05 19.49
5289 52.5640 311.00 309.10 17.64
5290 52.5730 271.00 251.46 16.46
5291 52.5820 221.00 214.15 14.87
5292 52.5910 192.00 191.07 13.86
5293 52.6000 197.00 176.99 14.04
5294 52.6090 181.00 168.18 13.45
5295 52.6180 184.00 162.38 13.56
5296 52.6270 190.00 158.32 13.78
5297 52.6360 166.00 155.33 12.88
5298 52.6450 155.00 153.07 12.45
5299 52.6540 145.00 151.36 12.04
5300 52.6630 152.00 150.09 12.33
5301 52.6720 182.00 149.21 13.49
5302 52.6810 145.00 148.71 12.04
5303 52.6890 162.00 148.58 12.73
5304 52.6980 153.00 148.87 12.37
5305 52.7070 161.00 149.68 12.69
5306 52.7160 162.00 151.19 12.73
5307 52.7250 165.00 153.66 12.85
5308 52.7340 190.00 157.54 13.78
5309 52.7430 210.00 163.40 14.49
5310 52.7520 177.00 171.96 13.30
5311 52.7610 190.00 183.98 13.78
5312 52.7700 198.00 200.10 14.07
5313 52.7790 216.00 220.65 14.70
5314 52.7880 216.00 245.31 14.70
5315 52.7970 233.00 272.72 15.26
5316 52.8060 262.00 300.13 16.19
5317 52.8150 298.00 323.13 17.26
5318 52.8240 329.00 336.27 18.14
5319 52.8330 331.00 335.52 18.19
5320 52.8420 307.00 321.04 17.52
5321 52.8510 307.00 297.12 17.52
5322 52.8600 277.00 269.23 16.64
5323 52.8690 234.00 241.69 15.30
5324 52.8780 208.00 217.20 14.42
5325 52.8870 188.00 197.12 13.71
5326 52.8960 178.00 181.72 13.34
5327 52.9050 176.00 170.62 13.27
5328 52.9140 177.00 163.07 13.30
5329 52.9230 166.00 158.20 12.88
5330 52.9320 153.00 155.24 12.37
5331 52.9410 151.00 153.57 12.29
5332 52.9500 138.00 152.77 11.75
5333 52.9590 129.00 152.57 11.36
5334 52.9680 146.00 152.81 12.08
5335 52.9770 138.00 153.42 11.75
5336 52.9860 145.00 154.35 12.04
5337 52.9950 149.00 155.60 12.21
5338 53.0040 149.00 157.19 12.21
5339 53.0130 157.00 159.14 12.53
5340 53.0220 155.00 161.52 12.45
5341 53.0310 156.00 164.42 12.49
5342 53.0400 155.00 167.98 12.45
5343 53.0490 169.00 172.40 13.00
5344 53.0580 165.00 178.42 12.85
5345 53.0670 187.00 186.02 13.67
5346 53.0760 223.00 196.33 14.93
5347 53.0850 203.00 210.48 14.25
5348 53.0940 221.00 229.89 14.87
5349 53.1030 264.00 256.21 16.25
5350 53.1120 310.00 291.17 17.61
5351 53.1210 356.00 336.55 18.87
5352 53.1300 392.00 393.44 19.80
5353 53.1390 441.00 463.60 21.00
5354 53.1480 498.00 546.40 22.32
5355 53.1570 616.00 640.87 24.82
5356 53.1660 721.00 746.77 26.85
5357 53.1750 800.00 865.40 28.28
5358 53.1840 929.00 996.10 30.48
5359 53.1930 1033.00 1130.09 32.14
5360 53.2020 1257.00 1248.88 35.45
5361 53.2110 1377.00 1324.79 37.11
5362 53.2200 1438.00 1331.86 37.92
5363 53.2290 1368.00 1264.18 36.99
5364 53.2380 1224.00 1140.61 34.99
5365 53.2470 1021.00 992.18 31.95
5366 53.2560 838.00 847.21 28.95
5367 53.2650 718.00 725.71 26.80
5368 53.2740 639.00 639.99 25.28
5369 53.2830 594.00 595.89 24.37
5370 53.2920 570.00 593.22 23.87
5371 53.3010 605.00 626.25 24.60
5372 53.3100 655.00 683.66 25.59
5373 53.3190 716.00 748.37 26.76
5374 53.3280 801.00 797.92 28.30
5375 53.3370 811.00 810.18 28.48
5376 53.3460 756.00 775.72 27.50
5377 53.3550 693.00 704.47 26.32
5378 53.3640 604.00 616.73 24.58
5379 53.3730 518.00 531.69 22.76
5380 53.3820 461.00 463.04 21.47
5381 53.3910 451.00 420.22 21.24
5382 53.4000 420.00 409.57 20.49
5383 53.4090 455.00 434.89 21.33
5384 53.4180 560.00 496.78 23.66
5385 53.4270 620.00 591.12 24.90
5386 53.4360 774.00 706.71 27.82
5387 53.4450 880.00 822.96 29.66
5388 53.4540 979.00 908.86 31.29
5389 53.4630 1029.00 931.25 32.08
5390 53.4720 1005.00 878.63 31.70
5391 53.4810 853.00 770.23 29.21
5392 53.4900 710.00 639.18 26.65
5393 53.4990 545.00 512.24 23.35
5394 53.5080 412.00 404.54 20.30
5395 53.5170 345.00 321.75 18.57
5396 53.5260 289.00 263.16 17.00
5397 53.5350 226.00 224.21 15.03
5398 53.5440 199.00 199.30 14.11
5399 53.5530 170.00 183.51 13.04
5400 53.5620 151.00 173.17 12.29
5401 53.5710 154.00 165.99 12.41
5402 53.5800 147.00 160.65 12.12
5403 53.5890 157.00 156.45 12.53
5404 53.5980 139.00 153.00 11.79
5405 53.6070 138.00 150.10 11.75
5406 53.6160 121.00 147.59 11.00
5407 53.6250 107.00 145.47 10.34
5408 53.6340 122.00 143.65 11.05
5409 53.6430 102.00 142.06 10.10
5410 53.6520 108.00 140.68 10.39
5411 53.6610 126.00 139.47 11.23
5412 53.6700 123.00 138.42 11.09
5413 53.6790 124.00 138.13 11.14
5414 53.6880 121.00 137.35 11.00
5415 53.6970 122.00 136.68 11.05
5416 53.7060 125.00 136.11 11.18
5417 53.7150 112.00 135.65 10.58
5418 53.7240 108.00 135.27 10.39
5419 53.7330 112.00 134.99 10.58
5420 53.7420 106.00 134.79 10.30
5421 53.7510 108.00 134.70 10.39
5422 53.7600 114.00 134.70 10.68
5423 53.7690 118.00 134.80 10.86
5424 53.7780 122.00 135.03 11.05
5425 53.7870 115.00 135.38 10.72
5426 53.7960 117.00 135.88 10.82
5427 53.8050 120.00 136.57 10.95
5428 53.8140 126.00 137.46 11.23
5429 53.8230 132.00 138.61 11.49
5430 53.8320 128.00 140.09 11.31
5431 53.8410 122.00 142.03 11.05
5432 53.8500 140.00 144.63 11.83
5433 53.8590 149.00 148.38 12.21
5434 53.8680 136.00 154.24 11.66
5435 53.8770 155.00 164.16 12.45
5436 53.8860 179.00 181.53 13.38
5437 53.8950 206.00 211.45 14.35
5438 53.9040 227.00 260.05 15.07
5439 53.9130 285.00 332.42 16.88
5440 53.9220 402.00 429.01 20.05
5441 53.9310 541.00 541.98 23.26
5442 53.9400 695.00 652.09 26.36
5443 53.9490 797.00 728.33 28.23
5444 53.9580 833.00 739.97 28.86
5445 53.9670 809.00 681.29 28.44
5446 53.9760 627.00 577.86 25.04
5447 53.9850 482.00 462.92 21.95
5448 53.9940 334.00 359.71 18.28
5449 54.0030 284.00 279.37 16.85
5450 54.0120 237.00 223.56 15.39
5451 54.0210 186.00 188.42 13.64
5452 54.0300 140.00 167.72 11.83
5453 54.0390 131.00 155.89 11.45
5454 54.0480 129.00 149.00 11.36
5455 54.0570 123.00 144.70 11.09
5456 54.0660 139.00 141.77 11.79
5457 54.0750 123.00 139.64 11.09
5458 54.0840 130.00 138.03 11.40
5459 54.0930 128.00 136.79 11.31
5460 54.1020 109.00 135.85 10.44
5461 54.1110 115.00 135.16 10.72
5462 54.1200 106.00 134.69 10.30
5463 54.1290 91.00 134.40 9.54
5464 54.1380 100.00 134.29 10.00
5465 54.1470 108.00 134.34 10.39
5466 54.1560 111.00 134.56 10.54
5467 54.1650 104.00 134.95 10.20
5468 54.1740 100.00 135.52 10.00
5469 54.1830 111.00 137.05 10.54
5470 54.1920 117.00 138.09 10.82
5471 54.2010 118.00 139.43 10.86
5472 54.2100 115.00 141.18 10.72
5473 54.2190 121.00 143.52 11.00
5474 54.2280 124.00 146.69 11.14
5475 54.2370 128.00 151.09 11.31
5476 54.2460 144.00 157.13 12.00
5477 54.2550 138.00 165.42 11.75
5478 54.2640 171.00 176.63 13.08
5479 54.2730 183.00 191.49 13.53
5480 54.2820 196.00 210.75 14.00
5481 54.2910 215.00 235.01 14.66
5482 54.3000 244.00 264.52 15.62
5483 54.3090 293.00 299.36 17.12
5484 54.3180 323.00 339.03 17.97
5485 54.3270 377.00 383.50 19.42
5486 54.3360 441.00 432.83 21.00
5487 54.3450 472.00 485.40 21.73
5488 54.3540 526.00 536.24 22.93
5489 54.3630 617.00 576.37 24.84
5490 54.3720 692.00 594.74 26.31
5491 54.3810 632.00 583.91 25.14
5492 54.3900 659.00 545.70 25.67
5493 54.3990 552.00 489.78 23.49
5494 54.4080 466.00 426.87 21.59
5495 54.4170 423.00 366.84 20.57
5496 54.4260 311.00 314.33 17.64
5497 54.4350 260.00 271.60 16.12
5498 54.4430 240.00 239.80 15.49
5499 54.4520 213.00 217.80 14.59
5500 54.4610 207.00 203.76 14.39
5501 54.4700 198.00 197.03 14.07
5502 54.4790 191.00 196.33 13.82
5503 54.4880 211.00 202.04 14.53
5504 54.4970 245.00 216.64 15.65
5505 54.5060 254.00 245.75 15.94
5506 54.5150 334.00 298.87 18.28
5507 54.5240 407.00 388.53 20.17
5508 54.5330 500.00 526.81 22.36
5509 54.5420 653.00 718.89 25.55
5510 54.5510 882.00 954.88 29.70
5511 54.5600 1138.00 1202.23 33.73
5512 54.5690 1314.00 1402.63 36.25
5513 54.5780 1351.00 1484.35 36.76
5514 54.5870 1253.00 1409.47 35.40
5515 54.5960 1056.00 1211.97 32.50
5516 54.6050 810.00 963.74 28.46
5517 54.6140 597.00 724.29 24.43
5518 54.6230 448.00 527.65 21.17
5519 54.6320 331.00 384.61 18.19
5520 54.6410 249.00 290.45 15.78
5521 54.6500 203.00 233.21 14.25
5522 54.6590 188.00 199.89 13.71
5523 54.6680 162.00 180.46 12.73
5524 54.6770 147.00 168.50 12.12
5525 54.6860 131.00 160.45 11.45
5526 54.6950 153.00 154.55 12.37
5527 54.7040 139.00 149.95 11.79
5528 54.7130 115.00 146.26 10.72
5529 54.7220 106.00 143.22 10.30
5530 54.7310 100.00 140.70 10.00
5531 54.7400 85.00 138.61 9.22
5532 54.7490 93.00 136.86 9.64
5533 54.7580 101.00 135.39 10.05
5534 54.7670 118.00 134.17 10.86
5535 54.7760 102.00 133.16 10.10
5536 54.7850 102.00 132.33 10.10
5537 54.7940 104.00 131.67 10.20
5538 54.8030 96.00 131.15 9.80
5539 54.8120 98.00 130.77 9.90
5540 54.8210 101.00 130.52 10.05
5541 54.8300 108.00 130.39 10.39
5542 54.8390 81.00 130.39 9.00
5543 54.8480 113.00 130.51 10.63
5544 54.8570 103.00 130.76 10.15
5545 54.8660 92.00 130.88 9.59
5546 54.8750 98.00 131.41 9.90
5547 54.8840 89.00 132.10 9.43
5548 54.8930 107.00 132.98 10.34
5549 54.9020 100.00 134.05 10.00
5550 54.9110 105.00 135.35 10.25
5551 54.9200 109.00 136.92 10.44
5552 54.9290 114.00 138.82 10.68
5553 54.9380 110.00 141.09 10.49
5554 54.9470 133.00 143.84 11.53
5555 54.9560 130.00 147.18 11.40
5556 54.9650 120.00 151.25 10.95
5557 54.9740 136.00 156.30 11.66
5558 54.9830 149.00 162.75 12.21
5559 54.9920 185.00 171.42 13.60
5560 55.0010 213.00 184.09 14.59
5561 55.0100 230.00 204.12 15.17
5562 55.0190 274.00 238.09 16.55
5563 55.0280 342.00 296.71 18.49
5564 55.0370 441.00 394.79 21.00
5565 55.0460 597.00 548.02 24.43
5566 55.0550 801.00 766.42 28.30
5567 55.0640 1024.00 1044.34 32.00
5568 55.0730 1271.00 1351.86 35.65
5569 55.0820 1489.00 1627.72 38.59
5570 55.0910 1630.00 1785.76 40.37
5571 55.1000 1692.00 1758.30 41.13
5572 55.1090 1528.00 1557.94 39.09
5573 55.1180 1259.00 1264.89 35.48
5574 55.1270 954.00 960.93 30.89
5575 55.1360 698.00 698.41 26.42
5576 55.1450 511.00 499.48 22.61
5577 55.1540 363.00 364.34 19.05
5578 55.1630 289.00 280.77 17.00
5579 55.1720 217.00 233.18 14.73
5580 55.1810 201.00 208.16 14.18
5581 55.1900 189.00 196.61 13.75
5582 55.1990 167.00 193.52 12.92
5583 55.2080 183.00 194.90 13.53
5584 55.2170 192.00 198.70 13.86
5585 55.2260 177.00 202.36 13.30
5586 55.2350 190.00 203.02 13.78
5587 55.2440 185.00 198.62 13.60
5588 55.2530 181.00 189.43 13.45
5589 55.2620 156.00 177.63 12.49
5590 55.2710 139.00 165.54 11.79
5591 55.2800 129.00 154.70 11.36
5592 55.2890 121.00 145.85 11.00
5593 55.2980 125.00 139.12 11.18
5594 55.3070 110.00 134.26 10.49
5595 55.3160 102.00 130.86 10.10
5596 55.3250 102.00 128.48 10.10
5597 55.3340 88.00 126.78 9.38
5598 55.3430 98.00 125.50 9.90
5599 55.3520 97.00 124.51 9.85
5600 55.3610 92.00 123.71 9.59
5601 55.3700 91.00 123.07 9.54
5602 55.3790 92.00 123.10 9.59
5603 55.3880 103.00 122.73 10.15
5604 55.3970 107.00 122.50 10.34
5605 55.4060 92.00 122.44 9.59
5606 55.4150 86.00 122.59 9.27
5607 55.4240 93.00 123.01 9.64
5608 55.4330 93.00 123.75 9.64
5609 55.4420 94.00 124.82 9.70
5610 55.4510 96.00 126.18 9.80
5611 55.4600 102.00 127.70 10.10
5612 55.4690 100.00 129.10 10.00
5613 55.4780 94.00 130.16 9.70
5614 55.4870 113.00 130.70 10.63
5615 55.4960 110.00 130.33 10.49
5616 55.5050 100.00 130.70 10.00
5617 55.5140 111.00 131.74 10.54
5618 55.5230 110.00 134.11 10.49
5619 55.5320 110.00 138.72 10.49
5620 55.5410 114.00 146.87 10.68
5621 55.5500 142.00 160.28 11.92
5622 55.5590 144.00 180.90 12.00
5623 55.5680 169.00 210.32 13.00
5624 55.5770 204.00 248.67 14.28
5625 55.5860 260.00 294.64 16.12
5626 55.5950 321.00 342.90 17.92
5627 55.6040 352.00 384.35 18.76
5628 55.6130 402.00 407.01 20.05
5629 55.6220 439.00 402.10 20.95
5630 55.6310 417.00 371.60 20.42
5631 55.6400 334.00 326.38 18.28
5632 55.6490 256.00 277.87 16.00
5633 55.6580 198.00 233.82 14.07
5634 55.6670 199.00 198.04 14.11
5635 55.6760 161.00 171.43 12.69
5636 55.6850 159.00 153.09 12.61
5637 55.6940 120.00 141.14 10.95
5638 55.7030 102.00 133.80 10.10
5639 55.7120 106.00 129.08 10.30
5640 55.7210 98.00 126.03 9.90
5641 55.7300 102.00 123.94 10.10
5642 55.7390 102.00 122.42 10.10
5643 55.7480 92.00 121.26 9.59
5644 55.7570 96.00 120.35 9.80
5645 55.7660 100.00 119.61 10.00
5646 55.7750 96.00 119.03 9.80
5647 55.7840 100.00 118.56 10.00
5648 55.7930 105.00 118.20 10.25
5649 55.8020 98.00 117.92 9.90
5650 55.8110 95.00 117.71 9.75
5651 55.8200 78.00 117.58 8.83
5652 55.8290 69.00 117.51 8.31
5653 55.8380 81.00 117.50 9.00
5654 55.8470 101.00 117.60 10.05
5655 55.8560 100.00 117.70 10.00
5656 55.8650 94.00 117.86 9.70
5657 55.8740 94.00 118.08 9.70
5658 55.8830 86.00 118.37 9.27
5659 55.8920 92.00 118.72 9.59
5660 55.9010 94.00 119.16 9.70
5661 55.9100 82.00 119.67 9.06
5662 55.9190 90.00 120.28 9.49
5663 55.9280 94.00 121.00 9.70
5664 55.9370 94.00 121.83 9.70
5665 55.9460 110.00 122.80 10.49
5666 55.9550 101.00 123.95 10.05
5667 55.9640 101.00 125.36 10.05
5668 55.9730 91.00 127.18 9.54
5669 55.9820 110.00 129.68 10.49
5670 55.9910 111.00 133.28 10.54
5671 56.0000 118.00 138.55 10.86
5672 56.0090 129.00 146.21 11.36
5673 56.0180 138.00 156.23 11.75
5674 56.0270 151.00 170.59 12.29
5675 56.0360 170.00 188.49 13.04
5676 56.0450 197.00 209.07 14.04
5677 56.0540 232.00 230.29 15.23
5678 56.0630 260.00 248.69 16.12
5679 56.0720 258.00 259.87 16.06
5680 56.0810 249.00 260.65 15.78
5681 56.0900 230.00 251.65 15.17
5682 56.0990 231.00 236.89 15.20
5683 56.1080 196.00 220.92 14.00
5684 56.1170 167.00 207.18 12.92
5685 56.1260 179.00 197.83 13.38
5686 56.1350 150.00 194.08 12.25
5687 56.1440 178.00 196.53 13.34
5688 56.1520 189.00 205.37 13.75
5689 56.1610 194.00 220.66 13.93
5690 56.1700 254.00 242.39 15.94
5691 56.1790 257.00 270.50 16.03
5692 56.1880 310.00 304.79 17.61
5693 56.1970 351.00 344.70 18.74
5694 56.2060 419.00 389.84 20.47
5695 56.2150 467.00 441.12 21.61
5696 56.2240 534.00 501.62 23.11
5697 56.2330 629.00 575.07 25.08
5698 56.2420 721.00 663.35 26.85
5699 56.2510 847.00 764.14 29.10
5700 56.2600 965.00 870.34 31.06
5701 56.2690 1040.00 972.56 32.25
5702 56.2780 1097.00 1062.60 33.12
5703 56.2870 1197.00 1133.21 34.60
5704 56.2960 1264.00 1175.51 35.55
5705 56.3050 1271.00 1184.27 35.65
5706 56.3140 1283.00 1169.27 35.82
5707 56.3230 1267.00 1155.02 35.59
5708 56.3320 1244.00 1164.57 35.27
5709 56.3410 1270.00 1205.54 35.64
5710 56.3500 1350.00 1264.50 36.74
5711 56.3590 1426.00 1307.25 37.76
5712 56.3680 1410.00 1290.67 37.55
5713 56.3770 1256.00 1191.81 35.44
5714 56.3860 1128.00 1029.32 33.59
5715 56.3950 864.00 842.17 29.39
5716 56.4040 629.00 663.25 25.08
5717 56.4130 489.00 511.74 22.11
5718 56.4220 361.00 394.80 19.00
5719 56.4310 306.00 311.22 17.49
5720 56.4400 253.00 255.09 15.91
5721 56.4490 196.00 218.82 14.00
5722 56.4580 184.00 195.58 13.56
5723 56.4670 189.00 180.31 13.75
5724 56.4760 134.00 169.72 11.58
5725 56.4850 134.00 161.90 11.58
5726 56.4940 113.00 155.80 10.63
5727 56.5030 115.00 150.90 10.72
5728 56.5120 110.00 146.87 10.49
5729 56.5210 110.00 143.55 10.49
5730 56.5300 91.00 140.81 9.54
5731 56.5390 107.00 138.60 10.34
5732 56.5480 119.00 136.87 10.91
5733 56.5570 119.00 135.65 10.91
5734 56.5660 103.00 134.98 10.15
5735 56.5750 106.00 135.00 10.30
5736 56.5840 106.00 135.87 10.30
5737 56.5930 120.00 137.82 10.95
5738 56.6020 123.00 141.04 11.09
5739 56.6110 137.00 145.65 11.70
5740 56.6200 138.00 151.58 11.75
5741 56.6290 146.00 158.57 12.08
5742 56.6380 142.00 165.97 11.92
5743 56.6470 159.00 173.49 12.61
5744 56.6560 174.00 180.88 13.19
5745 56.6650 174.00 189.51 13.19
5746 56.6740 179.00 202.30 13.38
5747 56.6830 191.00 223.58 13.82
5748 56.6920 197.00 253.95 14.04
5749 56.7010 228.00 294.86 15.10
5750 56.7100 272.00 343.96 16.49
5751 56.7190 330.00 394.97 18.17
5752 56.7280 386.00 437.28 19.65
5753 56.7370 400.00 457.72 20.00
5754 56.7460 404.00 447.85 20.10
5755 56.7550 383.00 411.12 19.57
5756 56.7640 330.00 359.63 18.17
5757 56.7730 282.00 305.48 16.79
5758 56.7820 225.00 256.85 15.00
5759 56.7910 191.00 218.01 13.82
5760 56.8000 155.00 190.38 12.45
5761 56.8090 139.00 173.58 11.79
5762 56.8180 163.00 166.67 12.77
5763 56.8270 153.00 167.01 12.37
5764 56.8360 164.00 173.21 12.81
5765 56.8450 190.00 183.21 13.78
5766 56.8540 213.00 194.39 14.59
5767 56.8630 207.00 203.38 14.39
5768 56.8720 209.00 206.45 14.46
5769 56.8810 199.00 201.60 14.11
5770 56.8900 209.00 190.16 14.46
5771 56.8990 174.00 175.44 13.19
5772 56.9080 166.00 160.51 12.88
5773 56.9170 140.00 147.30 11.83
5774 56.9260 129.00 136.70 11.36
5775 56.9350 117.00 128.87 10.82
5776 56.9440 103.00 123.48 10.15
5777 56.9530 92.00 120.04 9.59
5778 56.9620 104.00 118.06 10.20
5779 56.9710 100.00 117.19 10.00
5780 56.9800 92.00 117.29 9.59
5781 56.9890 109.00 118.32 10.44
5782 56.9980 90.00 120.26 9.49
5783 57.0070 106.00 123.05 10.30
5784 57.0160 103.00 126.43 10.15
5785 57.0250 117.00 129.88 10.82
5786 57.0340 123.00 132.54 11.09
5787 57.0430 112.00 133.46 10.58
5788 57.0520 110.00 132.12 10.49
5789 57.0610 107.00 128.97 10.34
5790 57.0700 96.00 124.95 9.80
5791 57.0790 86.00 120.93 9.27
5792 57.0880 86.00 117.41 9.27
5793 57.0970 95.00 114.64 9.75
5794 57.1060 86.00 112.62 9.27
5795 57.1150 85.00 111.27 9.22
5796 57.1240 89.00 110.41 9.43
5797 57.1330 82.00 109.89 9.06
5798 57.1420 75.00 109.60 8.66
5799 57.1510 82.00 109.45 9.06
5800 57.1600 90.00 109.39 9.49
5801 57.1690 92.00 109.32 9.59
5802 57.1780 93.00 109.39 9.64
5803 57.1870 91.00 109.49 9.54
5804 57.1960 82.00 109.64 9.06
5805 57.2050 82.00 109.84 9.06
5806 57.2140 93.00 110.07 9.64
5807 57.2230 83.00 110.36 9.11
5808 57.2320 87.00 110.69 9.33
5809 57.2410 91.00 111.07 9.54
5810 57.2500 93.00 111.51 9.64
5811 57.2590 90.00 112.02 9.49
5812 57.2680 92.00 112.59 9.59
5813 57.2770 83.00 113.23 9.11
5814 57.2860 87.00 113.97 9.33
5815 57.2950 85.00 114.80 9.22
5816 57.3040 86.00 115.75 9.27
5817 57.3130 82.00 116.83 9.06
5818 57.3220 99.00 118.06 9.95
5819 57.3310 94.00 119.48 9.70
5820 57.3400 108.00 121.13 10.39
5821 57.3490 89.00 123.06 9.43
5822 57.3580 103.00 125.35 10.15
5823 57.3670 98.00 128.16 9.90
5824 57.3760 110.00 131.18 10.49
5825 57.3850 105.00 135.97 10.25
5826 57.3940 119.00 142.70 10.91
5827 57.4030 152.00 152.47 12.33
5828 57.4120 169.00 166.54 13.00
5829 57.4210 193.00 187.69 13.89
5830 57.4300 220.00 217.69 14.83
5831 57.4390 239.00 258.40 15.46
5832 57.4480 319.00 310.36 17.86
5833 57.4570 354.00 372.29 18.81
5834 57.4660 445.00 439.83 21.09
5835 57.4750 498.00 504.72 22.32
5836 57.4840 582.00 554.71 24.12
5837 57.4930 607.00 576.28 24.64
5838 57.5020 582.00 563.01 24.12
5839 57.5110 528.00 520.29 22.98
5840 57.5200 455.00 461.41 21.33
5841 57.5290 379.00 399.14 19.47
5842 57.5380 318.00 342.36 17.83
5843 57.5470 260.00 295.99 16.12
5844 57.5560 231.00 261.90 15.20
5845 57.5650 225.00 240.15 15.00
5846 57.5740 223.00 229.91 14.93
5847 57.5830 223.00 230.67 14.93
5848 57.5920 247.00 243.48 15.72
5849 57.6010 301.00 272.09 17.35
5850 57.6100 346.00 323.71 18.60
5851 57.6190 417.00 409.13 20.42
5852 57.6280 551.00 540.71 23.47
5853 57.6370 733.00 728.37 27.07
5854 57.6460 947.00 974.21 30.77
5855 57.6550 1197.00 1265.03 34.60
5856 57.6640 1494.00 1566.15 38.65
5857 57.6730 1698.00 1817.69 41.21
5858 57.6820 1783.00 1942.71 42.23
5859 57.6910 1655.00 1891.39 40.68
5860 57.7000 1398.00 1685.06 37.39
5861 57.7090 1094.00 1396.15 33.08
5862 57.7180 825.00 1095.37 28.72
5863 57.7270 657.00 827.63 25.63
5864 57.7360 474.00 614.58 21.77
5865 57.7450 360.00 459.96 18.97
5866 57.7540 268.00 356.22 16.37
5867 57.7630 238.00 291.01 15.43
5868 57.7720 229.00 252.23 15.13
5869 57.7810 199.00 230.48 14.11
5870 57.7900 179.00 219.62 13.38
5871 57.7990 183.00 217.30 13.53
5872 57.8070 225.00 223.19 15.00
5873 57.8160 231.00 239.21 15.20
5874 57.8250 288.00 268.74 16.97
5875 57.8340 325.00 316.07 18.03
5876 57.8430 371.00 384.96 19.26
5877 57.8520 493.00 476.93 22.20
5878 57.8610 564.00 589.58 23.75
5879 57.8700 692.00 713.65 26.31
5880 57.8790 851.00 832.06 29.17
5881 57.8880 944.00 918.57 30.72
5882 57.8970 939.00 945.96 30.64
5883 57.9060 867.00 903.14 29.44
5884 57.9150 733.00 805.13 27.07
5885 57.9240 603.00 680.12 24.56
5886 57.9330 487.00 552.90 22.07
5887 57.9420 388.00 439.21 19.70
5888 57.9510 293.00 346.41 17.12
5889 57.9600 230.00 276.20 15.17
5890 57.9690 190.00 226.31 13.78
5891 57.9780 155.00 192.44 12.45
5892 57.9870 130.00 170.08 11.40
5893 57.9960 128.00 155.35 11.31
5894 58.0050 129.00 145.35 11.36
5895 58.0140 127.00 138.23 11.27
5896 58.0230 125.00 132.85 11.18
5897 58.0320 118.00 128.58 10.86
5898 58.0410 110.00 125.06 10.49
5899 58.0500 93.00 122.09 9.64
5900 58.0590 87.00 119.54 9.33
5901 58.0680 84.00 117.31 9.17
5902 58.0770 91.00 115.37 9.54
5903 58.0860 90.00 113.66 9.49
5904 58.0950 82.00 112.15 9.06
5905 58.1040 91.00 110.80 9.54
5906 58.1130 96.00 109.59 9.80
5907 58.1220 86.00 108.50 9.27
5908 58.1310 91.00 107.52 9.54
5909 58.1400 74.00 106.63 8.60
5910 58.1490 83.00 105.82 9.11
5911 58.1580 94.00 105.09 9.70
5912 58.1670 94.00 104.41 9.70
5913 58.1760 89.00 103.79 9.43
5914 58.1850 78.00 103.22 8.83
5915 58.1940 84.00 102.70 9.17
5916 58.2030 94.00 102.22 9.70
5917 58.2120 84.00 102.04 9.17
5918 58.2210 98.00 101.63 9.90
5919 58.2300 86.00 101.26 9.27
5920 58.2390 97.00 100.92 9.85
5921 58.2480 92.00 100.60 9.59
5922 58.2570 99.00 100.31 9.95
5923 58.2660 84.00 100.05 9.17
5924 58.2750 96.00 99.81 9.80
5925 58.2840 85.00 99.59 9.22
5926 58.2930 91.00 99.40 9.54
5927 58.3020 80.00 99.23 8.94
5928 58.3110 79.00 99.08 8.89
5929 58.3200 88.00 98.95 9.38
5930 58.3290 84.00 98.85 9.17
5931 58.3380 82.00 98.77 9.06
5932 58.3470 75.00 98.72 8.66
5933 58.3560 74.00 98.70 8.60
5934 58.3650 81.00 98.71 9.00
5935 58.3740 91.00 98.75 9.54
5936 58.3830 84.00 98.82 9.17
5937 58.3920 83.00 98.94 9.11
5938 58.4010 89.00 99.11 9.43
5939 58.4100 87.00 99.33 9.33
5940 58.4190 80.00 99.62 8.94
5941 58.4280 73.00 100.00 8.54
5942 58.4370 81.00 100.47 9.00
5943 58.4460 87.00 101.07 9.33
5944 58.4550 88.00 101.85 9.38
5945 58.4640 86.00 102.91 9.27
5946 58.4730 74.00 104.40 8.60
5947 58.4820 91.00 106.61 9.54
5948 58.4910 100.00 110.01 10.00
5949 58.5000 104.00 115.27 10.20
5950 58.5090 109.00 123.30 10.44
5951 58.5180 121.00 135.09 11.00
5952 58.5270 130.00 151.49 11.40
5953 58.5360 140.00 172.84 11.83
5954 58.5450 163.00 198.53 12.77
5955 58.5540 201.00 226.49 14.18
5956 58.5630 217.00 252.90 14.73
5957 58.5720 255.00 271.96 15.97
5958 58.5810 287.00 277.76 16.94
5959 58.5900 273.00 268.14 16.52
5960 58.5990 234.00 246.59 15.30
5961 58.6080 197.00 219.29 14.04
5962 58.6170 180.00 191.64 13.42
5963 58.6260 136.00 166.97 11.66
5964 58.6350 155.00 146.67 12.45
5965 58.6440 104.00 131.59 10.20
5966 58.6530 114.00 120.95 10.68
5967 58.6620 104.00 113.85 10.20
5968 58.6710 109.00 109.31 10.44
5969 58.6800 98.00 106.48 9.90
5970 58.6890 86.00 104.81 9.27
5971 58.6980 82.00 102.89 9.06
5972 58.7070 90.00 102.44 9.49
5973 58.7160 101.00 102.46 10.05
5974 58.7250 100.00 102.98 10.00
5975 58.7340 97.00 104.16 9.85
5976 58.7430 97.00 106.20 9.85
5977 58.7520 88.00 109.39 9.38
5978 58.7610 93.00 114.01 9.64
5979 58.7700 103.00 120.30 10.15
5980 58.7790 105.00 128.36 10.25
5981 58.7880 124.00 137.98 11.14
5982 58.7970 134.00 148.62 11.58
5983 58.8060 131.00 159.43 11.45
5984 58.8150 142.00 169.30 11.92
5985 58.8240 157.00 177.57 12.53
5986 58.8330 162.00 183.46 12.73
5987 58.8420 165.00 186.01 12.85
5988 58.8510 164.00 184.59 12.81
5989 58.8600 146.00 179.74 12.08
5990 58.8690 138.00 173.06 11.75
5991 58.8780 144.00 166.30 12.00
5992 58.8870 130.00 160.51 11.40
5993 58.8960 112.00 155.84 10.58
5994 58.9050 121.00 151.59 11.00
5995 58.9140 135.00 146.60 11.62
5996 58.9230 125.00 140.26 11.18
5997 58.9320 114.00 133.05 10.68
5998 58.9410 100.00 125.97 10.00
5999 58.9500 83.00 119.79 9.11
6000 58.9590 85.00 114.84 9.22
6001 58.9680 88.00 111.13 9.38
6002 58.9770 85.00 108.43 9.22
6003 58.9860 88.00 106.04 9.38
6004 58.9950 91.00 104.65 9.54
6005 59.0040 83.00 103.72 9.11
6006 59.0130 83.00 103.18 9.11
6007 59.0220 98.00 103.03 9.90
6008 59.0310 106.00 103.26 10.30
6009 59.0400 97.00 103.92 9.85
6010 59.0490 98.00 105.09 9.90
6011 59.0580 86.00 106.91 9.27
6012 59.0670 89.00 109.70 9.43
6013 59.0760 109.00 114.08 10.44
6014 59.0850 124.00 121.12 11.14
6015 59.0940 139.00 132.51 11.79
6016 59.1030 159.00 150.66 12.61
6017 59.1120 182.00 178.33 13.49
6018 59.1210 198.00 217.92 14.07
6019 59.1300 249.00 270.33 15.78
6020 59.1390 314.00 333.42 17.72
6021 59.1480 375.00 400.58 19.36
6022 59.1570 462.00 459.95 21.49
6023 59.1660 515.00 495.39 22.69
6024 59.1750 493.00 493.37 22.20
6025 59.1840 462.00 455.08 21.49
6026 59.1930 395.00 394.42 19.87
6027 59.2020 325.00 327.45 18.03
6028 59.2110 259.00 265.56 16.09
6029 59.2200 208.00 214.99 14.42
6030 59.2290 171.00 176.85 13.08
6031 59.2380 138.00 150.49 11.75
6032 59.2470 116.00 133.51 10.77
6033 59.2560 110.00 123.37 10.49
6034 59.2650 108.00 117.91 10.39
6035 59.2740 108.00 115.66 10.39
6036 59.2830 102.00 115.69 10.10
6037 59.2920 105.00 117.43 10.25
6038 59.3010 118.00 120.42 10.86
6039 59.3100 118.00 124.17 10.86
6040 59.3190 115.00 127.96 10.72
6041 59.3280 116.00 130.84 10.77
6042 59.3370 122.00 131.78 11.05
6043 59.3460 114.00 130.17 10.68
6044 59.3550 128.00 126.27 11.31
6045 59.3640 110.00 120.98 10.49
6046 59.3730 92.00 115.26 9.59
6047 59.3820 87.00 109.82 9.33
6048 59.3910 72.00 105.06 8.49
6049 59.4000 85.00 101.16 9.22
6050 59.4090 75.00 98.14 8.66
6051 59.4180 62.00 95.89 7.87
6052 59.4260 75.00 94.27 8.66
6053 59.4350 83.00 93.11 9.11
6054 59.4440 72.00 92.28 8.49
6055 59.4530 74.00 91.67 8.60
6056 59.4620 67.00 91.20 8.19
6057 59.4710 74.00 90.82 8.60
6058 59.4800 82.00 90.52 9.06
6059 59.4890 69.00 90.26 8.31
6060 59.4980 79.00 90.04 8.89
6061 59.5070 68.00 89.86 8.25
6062 59.5160 54.00 89.70 7.35
6063 59.5250 74.00 89.57 8.60
6064 59.5340 84.00 89.46 9.17
6065 59.5430 85.00 89.37 9.22
6066 59.5520 78.00 89.30 8.83
6067 59.5610 70.00 89.26 8.37
6068 59.5700 59.00 89.23 7.68
6069 59.5790 79.00 89.22 8.89
6070 59.5880 80.00 89.23 8.94
6071 59.5970 64.00 89.26 8.00
6072 59.6060 72.00 89.31 8.49
6073 59.6150 87.00 89.38 9.33
6074 59.6240 73.00 89.48 8.54
6075 59.6330 76.00 89.61 8.72
6076 59.6420 86.00 89.77 9.27
6077 59.6510 82.00 89.96 9.06
6078 59.6600 88.00 90.19 9.38
6079 59.6690 89.00 90.47 9.43
6080 59.6780 86.00 90.70 9.27
6081 59.6870 81.00 91.11 9.00
6082 59.6960 74.00 91.59 8.60
6083 59.7050 77.00 92.20 8.77
6084 59.7140 80.00 92.96 8.94
6085 59.7230 86.00 93.97 9.27
6086 59.7320 89.00 95.36 9.43
6087 59.7410 87.00 97.33 9.33
6088 59.7500 91.00 100.19 9.54
6089 59.7590 86.00 104.34 9.27
6090 59.7680 91.00 110.21 9.54
6091 59.7770 99.00 118.22 9.95
6092 59.7860 108.00 128.65 10.39
6093 59.7950 137.00 141.48 11.70
6094 59.8040 148.00 156.34 12.17
6095 59.8130 167.00 172.26 12.92
6096 59.8220 177.00 187.62 13.30
6097 59.8310 185.00 200.47 13.60
6098 59.8400 186.00 209.66 13.64
6099 59.8490 178.00 215.94 13.34
6100 59.8580 213.00 221.65 14.59
6101 59.8670 246.00 228.45 15.68
6102 59.8760 237.00 235.29 15.39
6103 59.8850 242.00 240.23 15.56
6104 59.8940 252.00 239.46 15.87
6105 59.9030 270.00 230.23 16.43
6106 59.9120 263.00 213.33 16.22
6107 59.9210 208.00 192.27 14.42
6108 59.9300 187.00 170.79 13.67
6109 59.9390 148.00 151.39 12.17
6110 59.9480 148.00 135.37 12.17
6111 59.9570 135.00 123.16 11.62
6112 59.9660 140.00 114.35 11.83
6113 59.9750 119.00 108.36 10.91
6114 59.9840 92.00 104.48 9.59
6115 59.9930 95.00 102.00 9.75
6116 60.0020 109.00 100.43 10.44
6117 60.0110 89.00 99.41 9.43
6118 60.0200 90.00 98.75 9.49
6119 60.0290 76.00 98.35 8.72
6120 60.0380 71.00 98.16 8.43
6121 60.0470 91.00 98.15 9.54
6122 60.0560 83.00 98.32 9.11
6123 60.0650 94.00 98.67 9.70
6124 60.0740 95.00 99.20 9.75
6125 60.0830 87.00 99.91 9.33
6126 60.0920 91.00 100.83 9.54
6127 60.1010 94.00 101.94 9.70
6128 60.1100 98.00 103.37 9.90
6129 60.1190 100.00 105.14 10.00
6130 60.1280 98.00 107.38 9.90
6131 60.1370 99.00 110.23 9.95
6132 60.1460 110.00 114.28 10.49
6133 60.1550 114.00 120.11 10.68
6134 60.1640 121.00 128.88 11.00
6135 60.1730 151.00 142.22 12.29
6136 60.1820 168.00 162.26 12.96
6137 60.1910 197.00 191.27 14.04
6138 60.2000 249.00 231.13 15.78
6139 60.2090 285.00 282.36 16.88
6140 60.2180 342.00 343.08 18.49
6141 60.2270 412.00 408.21 20.30
6142 60.2360 471.00 468.13 21.70
6143 60.2450 558.00 509.17 23.62
6144 60.2540 564.00 518.50 23.75
6145 60.2630 555.00 493.41 23.56
6146 60.2720 518.00 443.52 22.76
6147 60.2810 458.00 383.23 21.40
6148 60.2900 357.00 324.41 18.89
6149 60.2990 299.00 274.50 17.29
6150 60.3080 274.00 237.39 16.55
6151 60.3170 240.00 214.49 15.49
6152 60.3260 195.00 206.06 13.96
6153 60.3350 194.00 211.98 13.93
6154 60.3440 208.00 232.48 14.42
6155 60.3530 226.00 268.09 15.03
6156 60.3620 255.00 319.12 15.97
6157 60.3710 288.00 384.97 16.97
6158 60.3800 352.00 462.77 18.76
6159 60.3890 443.00 546.89 21.05
6160 60.3980 544.00 626.61 23.32
6161 60.4070 588.00 687.37 24.25
6162 60.4160 649.00 713.46 25.48
6163 60.4250 664.00 696.36 25.77
6164 60.4340 598.00 641.24 24.45
6165 60.4430 538.00 562.71 23.19
6166 60.4520 417.00 476.49 20.42
6167 60.4610 340.00 393.72 18.44
6168 60.4700 285.00 321.20 16.88
6169 60.4790 226.00 261.86 15.03
6170 60.4880 200.00 216.10 14.14
6171 60.4970 171.00 182.54 13.08
6172 60.5060 160.00 158.84 12.65
6173 60.5150 139.00 142.54 11.79
6174 60.5240 111.00 131.40 10.54
6175 60.5330 118.00 123.72 10.86
6176 60.5420 118.00 118.26 10.86
6177 60.5510 105.00 114.25 10.25
6178 60.5600 106.00 111.13 10.30
6179 60.5690 100.00 108.65 10.00
6180 60.5780 91.00 106.63 9.54
6181 60.5870 89.00 104.96 9.43
6182 60.5960 87.00 103.58 9.33
6183 60.6050 91.00 102.44 9.54
6184 60.6140 97.00 101.51 9.85
6185 60.6230 107.00 100.76 10.34
6186 60.6320 100.00 100.18 10.00
6187 60.6410 94.00 99.76 9.70
6188 60.6500 83.00 99.48 9.11
6189 60.6590 98.00 99.34 9.90
6190 60.6680 95.00 99.33 9.75
6191 60.6770 92.00 99.47 9.59
6192 60.6860 99.00 99.76 9.95
6193 60.6950 93.00 100.20 9.64
6194 60.7040 96.00 100.82 9.80
6195 60.7130 84.00 101.64 9.17
6196 60.7220 110.00 102.70 10.49
6197 60.7310 94.00 104.06 9.70
6198 60.7400 106.00 105.85 10.30
6199 60.7490 115.00 108.26 10.72
6200 60.7580 93.00 111.68 9.64
6201 60.7670 109.00 116.72 10.44
6202 60.7760 136.00 124.31 11.66
6203 60.7850 138.00 135.74 11.75
6204 60.7940 152.00 152.59 12.33
6205 60.8030 209.00 176.25 14.46
6206 60.8120 209.00 207.83 14.46
6207 60.8210 265.00 247.15 16.28
6208 60.8300 319.00 292.20 17.86
6209 60.8390 381.00 339.09 19.52
6210 60.8480 445.00 382.85 21.09
6211 60.8570 492.00 417.52 22.18
6212 60.8660 526.00 435.45 22.93
6213 60.8750 540.00 429.96 23.24
6214 60.8840 489.00 401.70 22.11
6215 60.8930 427.00 359.35 20.66
6216 60.9020 369.00 313.35 19.21
6217 60.9110 320.00 271.60 17.89
6218 60.9200 275.00 238.79 16.58
6219 60.9290 246.00 218.01 15.68
6220 60.9380 246.00 209.13 15.68
6221 60.9470 285.00 213.74 16.88
6222 60.9560 296.00 233.14 17.20
6223 60.9650 294.00 269.35 17.15
6224 60.9740 351.00 324.67 18.74
6225 60.9830 448.00 401.03 21.17
6226 60.9920 524.00 498.73 22.89
6227 61.0010 621.00 613.61 24.92
6228 61.0090 777.00 737.96 27.87
6229 61.0180 916.00 856.95 30.27
6230 61.0270 1027.00 949.13 32.05
6231 61.0360 1101.00 991.85 33.18
6232 61.0450 1073.00 974.33 32.76
6233 61.0540 971.00 905.91 31.16
6234 61.0630 854.00 808.80 29.22
6235 61.0720 736.00 703.93 27.13
6236 61.0810 618.00 604.70 24.86
6237 61.0900 521.00 516.58 22.83
6238 61.0990 445.00 439.56 21.09
6239 61.1080 372.00 372.35 19.29
6240 61.1170 330.00 314.39 18.17
6241 61.1260 274.00 265.89 16.55
6242 61.1350 235.00 226.59 15.33
6243 61.1440 198.00 195.52 14.07
6244 61.1530 168.00 171.54 12.96
6245 61.1620 141.00 153.42 11.87
6246 61.1710 144.00 139.96 12.00
6247 61.1800 119.00 130.07 10.91
6248 61.1890 103.00 122.80 10.15
6249 61.1980 117.00 117.39 10.82
6250 61.2070 126.00 113.26 11.23
6251 61.2160 120.00 110.01 10.95
6252 61.2250 103.00 107.39 10.15
6253 61.2340 100.00 105.22 10.00
6254 61.2430 92.00 103.40 9.59
6255 61.2520 85.00 101.86 9.22
6256 61.2610 114.00 100.54 10.68
6257 61.2700 109.00 99.43 10.44
6258 61.2790 89.00 98.49 9.43
6259 61.2880 79.00 97.71 8.89
6260 61.2970 91.00 97.07 9.54
6261 61.3060 90.00 96.56 9.49
6262 61.3150 76.00 96.18 8.72
6263 61.3240 87.00 95.92 9.33
6264 61.3330 90.00 95.79 9.49
6265 61.3420 89.00 95.56 9.43
6266 61.3510 90.00 95.68 9.49
6267 61.3600 93.00 95.95 9.64
6268 61.3690 96.00 96.43 9.80
6269 61.3780 98.00 97.04 9.90
6270 61.3870 96.00 97.87 9.80
6271 61.3960 96.00 98.99 9.80
6272 61.4050 97.00 100.49 9.85
6273 61.4140 110.00 102.57 10.49
6274 61.4230 117.00 105.54 10.82
6275 61.4320 114.00 109.91 10.68
6276 61.4410 132.00 116.47 11.49
6277 61.4500 138.00 126.24 11.75
6278 61.4590 151.00 140.52 12.29
6279 61.4680 183.00 160.70 13.53
6280 61.4770 189.00 187.86 13.75
6281 61.4860 232.00 222.34 15.23
6282 61.4950 298.00 263.29 17.26
6283 61.5040 386.00 308.00 19.65
6284 61.5130 443.00 351.48 21.05
6285 61.5220 472.00 386.16 21.73
6286 61.5310 479.00 403.74 21.89
6287 61.5400 465.00 399.55 21.56
6288 61.5490 443.00 375.60 21.05
6289 61.5580 373.00 338.70 19.31
6290 61.5670 304.00 296.29 17.44
6291 61.5760 266.00 254.32 16.31
6292 61.5850 228.00 216.65 15.10
6293 61.5940 193.00 185.24 13.89
6294 61.6030 147.00 160.47 12.12
6295 61.6120 148.00 141.82 12.17
6296 61.6210 122.00 128.29 11.05
6297 61.6300 103.00 118.34 10.15
6298 61.6390 104.00 111.63 10.20
6299 61.6480 102.00 106.96 10.10
6300 61.6570 94.00 103.70 9.70
6301 61.6660 88.00 101.40 9.38
6302 61.6750 89.00 99.77 9.43
6303 61.6840 99.00 98.61 9.95
6304 61.6930 94.00 97.80 9.70
6305 61.7020 86.00 97.25 9.27
6306 61.7110 94.00 96.92 9.70
6307 61.7200 94.00 96.77 9.70
6308 61.7290 94.00 96.79 9.70
6309 61.7380 86.00 96.97 9.27
6310 61.7470 93.00 97.31 9.64
6311 61.7560 96.00 97.81 9.80
6312 61.7650 95.00 98.51 9.75
6313 61.7740 91.00 99.43 9.54
6314 61.7830 91.00 100.63 9.54
6315 61.7920 89.00 103.06 9.43
6316 61.8010 93.00 105.13 9.64
6317 61.8100 100.00 107.82 10.00
6318 61.8190 102.00 111.28 10.10
6319 61.8280 110.00 115.67 10.49
6320 61.8370 108.00 121.14 10.39
6321 61.8460 107.00 127.77 10.34
6322 61.8550 123.00 135.51 11.09
6323 61.8640 136.00 144.16 11.66
6324 61.8730 142.00 153.38 11.92
6325 61.8820 141.00 162.55 11.87
6326 61.8910 150.00 170.91 12.25
6327 61.9000 160.00 177.70 12.65
6328 61.9090 171.00 182.69 13.08
6329 61.9180 190.00 186.56 13.78
6330 61.9270 190.00 190.81 13.78
6331 61.9360 200.00 197.45 14.14
6332 61.9450 216.00 208.72 14.70
6333 61.9540 249.00 226.80 15.78
6334 61.9630 260.00 254.55 16.12
6335 61.9720 298.00 294.30 17.26
6336 61.9810 360.00 348.18 18.97
6337 61.9900 447.00 417.53 21.14
6338 61.9990 493.00 501.93 22.20
6339 62.0080 598.00 598.75 24.45
6340 62.0170 697.00 703.57 26.40
6341 62.0260 778.00 810.27 27.89
6342 62.0350 867.00 911.71 29.44
6343 62.0440 972.00 998.97 31.18
6344 62.0530 1108.00 1060.04 33.29
6345 62.0620 1104.00 1081.07 33.23
6346 62.0710 1071.00 1054.69 32.73
6347 62.0800 926.00 987.22 30.43
6348 62.0890 858.00 896.61 29.29
6349 62.0980 745.00 803.61 27.29
6350 62.1070 653.00 725.02 25.55
6351 62.1160 598.00 672.53 24.45
6352 62.1250 573.00 652.53 23.94
6353 62.1340 622.00 666.36 24.94
6354 62.1430 654.00 710.18 25.57
6355 62.1520 699.00 774.79 26.44
6356 62.1610 770.00 845.05 27.75
6357 62.1700 853.00 902.17 29.21
6358 62.1790 853.00 928.10 29.21
6359 62.1880 870.00 912.01 29.50
6360 62.1970 829.00 853.79 28.79
6361 62.2060 740.00 763.69 27.20
6362 62.2150 661.00 657.60 25.71
6363 62.2240 538.00 549.68 23.19
6364 62.2330 418.00 451.32 20.44
6365 62.2420 347.00 367.38 18.63
6366 62.2510 293.00 299.72 17.12
6367 62.2600 242.00 247.89 15.56
6368 62.2690 202.00 209.60 14.21
6369 62.2780 172.00 182.17 13.11
6370 62.2870 155.00 162.86 12.45
6371 62.2960 148.00 149.29 12.17
6372 62.3050 129.00 139.66 11.36
6373 62.3140 117.00 132.69 10.82
6374 62.3230 118.00 127.52 10.86
6375 62.3320 127.00 123.67 11.27
6376 62.3410 117.00 120.88 10.82
6377 62.3500 114.00 119.13 10.68
6378 62.3590 113.00 118.55 10.63
6379 62.3680 107.00 119.48 10.34
6380 62.3770 112.00 122.37 10.58
6381 62.3860 124.00 127.81 11.14
6382 62.3950 128.00 136.26 11.31
6383 62.4040 130.00 147.89 11.40
6384 62.4130 163.00 162.37 12.77
6385 62.4220 215.00 178.54 14.66
6386 62.4310 226.00 194.23 15.03
6387 62.4400 198.00 206.26 14.07
6388 62.4490 210.00 211.59 14.49
6389 62.4580 216.00 209.53 14.70
6390 62.4670 221.00 202.51 14.87
6391 62.4760 205.00 194.06 14.32
6392 62.4850 193.00 186.63 13.89
6393 62.4940 185.00 180.94 13.60
6394 62.5030 199.00 176.05 14.11
6395 62.5120 183.00 170.13 13.53
6396 62.5210 172.00 161.91 13.11
6397 62.5300 162.00 151.74 12.73
6398 62.5390 149.00 141.00 12.21
6399 62.5480 133.00 131.03 11.53
6400 62.5560 115.00 122.61 10.72
6401 62.5650 105.00 116.13 10.25
6402 62.5740 113.00 111.59 10.63
6403 62.5830 107.00 108.79 10.34
6404 62.5920 98.00 107.41 9.90
6405 62.6010 98.00 107.14 9.90
6406 62.6100 105.00 107.73 10.25
6407 62.6190 100.00 109.02 10.00
6408 62.6280 101.00 110.93 10.05
6409 62.6370 110.00 113.46 10.49
6410 62.6460 106.00 116.67 10.30
6411 62.6550 111.00 120.68 10.54
6412 62.6640 123.00 125.71 11.09
6413 62.6730 131.00 132.11 11.45
6414 62.6820 138.00 140.57 11.75
6415 62.6910 155.00 152.30 12.45
6416 62.7000 188.00 170.12 13.71
6417 62.7090 230.00 198.43 15.17
6418 62.7180 289.00 244.64 17.00
6419 62.7270 355.00 319.22 18.84
6420 62.7360 449.00 434.59 21.19
6421 62.7450 588.00 601.71 24.25
6422 62.7540 757.00 825.33 27.51
6423 62.7630 1012.00 1096.86 31.81
6424 62.7720 1243.00 1388.81 35.26
6425 62.7810 1505.00 1651.05 38.79
6426 62.7900 1670.00 1813.60 40.87
6427 62.7990 1652.00 1816.18 40.64
6428 62.8080 1526.00 1658.04 39.06
6429 62.8170 1187.00 1397.43 34.45
6430 62.8260 918.00 1105.23 30.30
6431 62.8350 708.00 832.36 26.61
6432 62.8440 531.00 606.99 23.04
6433 62.8530 377.00 438.19 19.42
6434 62.8620 272.00 321.55 16.49
6435 62.8710 225.00 246.30 15.00
6436 62.8800 181.00 199.88 13.45
6437 62.8890 152.00 171.93 12.33
6438 62.8980 152.00 154.87 12.33
6439 62.9070 142.00 144.13 11.92
6440 62.9160 124.00 136.91 11.14
6441 62.9250 116.00 131.83 10.77
6442 62.9340 105.00 127.95 10.25
6443 62.9430 113.00 124.62 10.63
6444 62.9520 113.00 121.34 10.63
6445 62.9610 106.00 117.79 10.30
6446 62.9700 99.00 113.90 9.95
6447 62.9790 86.00 109.81 9.27
6448 62.9880 108.00 105.75 10.39
6449 62.9970 97.00 101.89 9.85
6450 63.0060 87.00 98.38 9.33
6451 63.0150 79.00 95.27 8.89
6452 63.0240 79.00 92.59 8.89
6453 63.0330 94.00 90.31 9.70
6454 63.0420 91.00 88.53 9.54
6455 63.0510 84.00 86.93 9.17
6456 63.0600 78.00 85.60 8.83
6457 63.0690 73.00 84.47 8.54
6458 63.0780 75.00 83.50 8.66
6459 63.0870 76.00 82.66 8.72
6460 63.0960 77.00 81.92 8.77
6461 63.1050 74.00 81.25 8.60
6462 63.1140 76.00 80.65 8.72
6463 63.1230 81.00 80.10 9.00
6464 63.1320 80.00 79.60 8.94
6465 63.1410 81.00 79.09 9.00
6466 63.1500 84.00 78.66 9.17
6467 63.1590 83.00 78.27 9.11
6468 63.1680 73.00 77.91 8.54
6469 63.1770 68.00 77.57 8.25
6470 63.1860 69.00 77.25 8.31
6471 63.1950 83.00 76.96 9.11
6472 63.2040 74.00 76.69 8.60
6473 63.2130 69.00 76.43 8.31
6474 63.2220 69.00 76.20 8.31
6475 63.2310 71.00 75.97 8.43
6476 63.2400 85.00 75.72 9.22
6477 63.2490 74.00 75.52 8.60
6478 63.2580 76.00 75.34 8.72
6479 63.2670 83.00 75.14 9.11
6480 63.2760 91.00 74.99 9.54
6481 63.2850 80.00 74.84 8.94
6482 63.2940 85.00 74.70 9.22
6483 63.3030 71.00 74.58 8.43
6484 63.3120 83.00 74.46 9.11
6485 63.3210 81.00 74.35 9.00
6486 63.3300 63.00 74.25 7.94
6487 63.3390 77.00 74.20 8.77
6488 63.3480 75.00 74.13 8.66
6489 63.3570 95.00 73.56 9.75
6490 63.3660 60.00 73.31 7.75
6491 63.3750 72.00 73.26 8.49
6492 63.3840 66.00 73.22 8.12
6493 63.3930 80.00 73.18 8.94
6494 63.4020 79.00 73.15 8.89
6495 63.4110 84.00 73.13 9.17
6496 63.4200 68.00 73.12 8.25
6497 63.4290 53.00 73.11 7.28
6498 63.4380 72.00 72.85 8.49
6499 63.4470 83.00 72.86 9.11
6500 63.4560 74.00 72.88 8.60
6501 63.4650 82.00 72.91 9.06
6502 63.4740 82.00 72.95 9.06
6503 63.4830 74.00 73.00 8.60
6504 63.4920 73.00 73.06 8.54
6505 63.5010 76.00 73.13 8.72
6506 63.5100 81.00 73.21 9.00
6507 63.5190 73.00 73.30 8.54
6508 63.5280 62.00 73.46 7.87
6509 63.5370 66.00 73.52 8.12
6510 63.5460 76.00 73.65 8.72
6511 63.5550 80.00 73.80 8.94
6512 63.5640 78.00 73.97 8.83
6513 63.5730 71.00 74.15 8.43
6514 63.5820 64.00 74.35 8.00
6515 63.5910 74.00 74.55 8.60
6516 63.6000 83.00 74.80 9.11
6517 63.6090 66.00 75.08 8.12
6518 63.6180 64.00 75.39 8.00
6519 63.6270 80.00 75.74 8.94
6520 63.6360 80.00 76.13 8.94
6521 63.6450 74.00 76.57 8.60
6522 63.6540 82.00 77.06 9.06
6523 63.6630 103.00 77.64 10.15
6524 63.6720 79.00 78.32 8.89
6525 63.6810 76.00 79.17 8.72
6526 63.6900 74.00 80.26 8.60
6527 63.6990 80.00 81.73 8.94
6528 63.7080 98.00 83.76 9.90
6529 63.7170 98.00 86.52 9.90
6530 63.7260 85.00 90.18 9.22
6531 63.7350 88.00 94.75 9.38
6532 63.7440 110.00 100.09 10.49
6533 63.7530 112.00 105.73 10.58
6534 63.7620 117.00 110.93 10.82
6535 63.7710 125.00 114.75 11.18
6536 63.7800 119.00 116.65 10.91
6537 63.7890 118.00 117.00 10.86
6538 63.7980 92.00 116.84 9.59
6539 63.8070 109.00 116.34 10.44
6540 63.8160 134.00 117.92 11.58
6541 63.8250 130.00 121.21 11.40
6542 63.8340 136.00 126.60 11.66
6543 63.8430 145.00 134.63 12.04
6544 63.8520 170.00 146.37 13.04
6545 63.8610 188.00 163.69 13.71
6546 63.8700 202.00 189.55 14.21
6547 63.8790 242.00 227.54 15.56
6548 63.8880 305.00 281.27 17.46
6549 63.8970 376.00 353.25 19.39
6550 63.9060 464.00 443.89 21.54
6551 63.9150 572.00 549.81 23.92
6552 63.9240 677.00 662.55 26.02
6553 63.9330 816.00 767.11 28.57
6554 63.9420 907.00 842.18 30.12
6555 63.9510 904.00 866.42 30.07
6556 63.9600 851.00 831.63 29.17
6557 63.9690 761.00 749.25 27.59
6558 63.9780 623.00 641.28 24.96
6559 63.9870 487.00 528.16 22.07
6560 63.9960 394.00 423.71 19.85
6561 64.0050 295.00 335.18 17.18
6562 64.0140 224.00 265.27 14.97
6563 64.0230 193.00 213.39 13.89
6564 64.0320 179.00 176.72 13.38
6565 64.0410 145.00 151.87 12.04
6566 64.0490 134.00 135.45 11.58
6567 64.0590 120.00 124.76 10.95
6568 64.0670 100.00 117.84 10.00
6569 64.0760 94.00 113.45 9.70
6570 64.0850 109.00 110.91 10.44
6571 64.0940 106.00 109.94 10.30
6572 64.1030 123.00 110.51 11.09
6573 64.1120 102.00 112.81 10.10
6574 64.1210 112.00 117.11 10.58
6575 64.1300 137.00 123.76 11.70
6576 64.1390 143.00 133.09 11.96
6577 64.1480 150.00 145.37 12.25
6578 64.1570 172.00 160.77 13.11
6579 64.1660 152.00 179.19 12.33
6580 64.1750 212.00 200.15 14.56
6581 64.1840 216.00 222.66 14.70
6582 64.1930 250.00 245.36 15.81
6583 64.2020 238.00 267.25 15.43
6584 64.2110 306.00 288.05 17.49
6585 64.2200 287.00 307.57 16.94
6586 64.2290 319.00 324.48 17.86
6587 64.2380 341.00 335.37 18.47
6588 64.2470 336.00 335.63 18.33
6589 64.2560 312.00 322.35 17.66
6590 64.2650 314.00 296.86 17.72
6591 64.2740 276.00 264.12 16.61
6592 64.2830 229.00 229.28 15.13
6593 64.2920 189.00 196.33 13.75
6594 64.3010 150.00 167.67 12.25
6595 64.3100 142.00 144.14 11.92
6596 64.3190 132.00 125.89 11.49
6597 64.3280 125.00 112.38 11.18
6598 64.3370 121.00 102.72 11.00
6599 64.3460 121.00 96.02 11.00
6600 64.3550 106.00 91.46 10.30
6601 64.3640 96.00 88.39 9.80
6602 64.3730 90.00 86.40 9.49
6603 64.3820 84.00 85.23 9.17
6604 64.3910 82.00 84.80 9.06
6605 64.4000 82.00 85.10 9.06
6606 64.4090 87.00 86.16 9.33
6607 64.4180 86.00 87.99 9.27
6608 64.4270 85.00 90.52 9.22
6609 64.4360 90.00 93.57 9.49
6610 64.4450 91.00 96.76 9.54
6611 64.4540 98.00 99.51 9.90
6612 64.4630 115.00 101.15 10.72
6613 64.4720 105.00 101.29 10.25
6614 64.4810 96.00 100.17 9.80
6615 64.4900 96.00 98.64 9.80
6616 64.4990 100.00 97.37 10.00
6617 64.5080 98.00 97.05 9.90
6618 64.5170 103.00 98.01 10.15
6619 64.5260 87.00 100.29 9.33
6620 64.5350 103.00 103.68 10.15
6621 64.5440 84.00 107.68 9.17
6622 64.5530 116.00 111.65 10.77
6623 64.5620 116.00 114.54 10.77
6624 64.5710 122.00 115.85 11.05
6625 64.5800 103.00 115.56 10.15
6626 64.5890 91.00 114.17 9.54
6627 64.5980 102.00 112.27 10.10
6628 64.6070 121.00 110.20 11.00
6629 64.6160 111.00 107.95 10.54
6630 64.6250 87.00 105.32 9.33
6631 64.6340 114.00 102.22 10.68
6632 64.6430 100.00 98.79 10.00
6633 64.6520 101.00 95.33 10.05
6634 64.6610 104.00 92.11 10.20
6635 64.6700 103.00 89.26 10.15
6636 64.6790 97.00 86.79 9.85
6637 64.6880 92.00 84.62 9.59
6638 64.6970 96.00 82.68 9.80
6639 64.7060 79.00 80.95 8.89
6640 64.7150 81.00 79.44 9.00
6641 64.7240 87.00 78.19 9.33
6642 64.7330 80.00 77.20 8.94
6643 64.7420 74.00 76.47 8.60
6644 64.7510 75.00 76.00 8.66
6645 64.7600 82.00 75.82 9.06
6646 64.7690 88.00 75.95 9.38
6647 64.7780 86.00 76.44 9.27
6648 64.7870 88.00 77.39 9.38
6649 64.7960 93.00 78.92 9.64
6650 64.8050 98.00 81.24 9.90
6651 64.8140 107.00 84.59 10.34
6652 64.8230 105.00 89.23 10.25
6653 64.8320 108.00 95.42 10.39
6654 64.8410 112.00 103.34 10.58
6655 64.8500 110.00 113.02 10.49
6656 64.8590 129.00 124.27 11.36
6657 64.8680 136.00 136.62 11.66
6658 64.8770 149.00 149.18 12.21
6659 64.8860 177.00 160.55 13.30
6660 64.8950 179.00 168.96 13.38
6661 64.9040 196.00 172.63 14.00
6662 64.9130 197.00 170.66 14.04
6663 64.9220 180.00 163.54 13.42
6664 64.9310 166.00 152.87 12.88
6665 64.9400 164.00 140.52 12.81
6666 64.9490 138.00 128.00 11.75
6667 64.9580 125.00 116.34 11.18
6668 64.9670 129.00 106.16 11.36
6669 64.9760 116.00 97.71 10.77
6670 64.9850 91.00 91.01 9.54
6671 64.9940 110.00 86.08 10.49
6672 65.0030 98.00 82.36 9.90
6673 65.0120 87.00 79.73 9.33
6674 65.0210 92.00 77.93 9.59
6675 65.0300 100.00 76.73 10.00
6676 65.0390 96.00 75.97 9.80
6677 65.0480 85.00 75.53 9.22
6678 65.0570 73.00 75.34 8.54
6679 65.0660 82.00 75.34 9.06
6680 65.0750 87.00 75.53 9.33
6681 65.0840 84.00 75.91 9.17
6682 65.0930 75.00 76.53 8.66
6683 65.1020 94.00 77.47 9.70
6684 65.1110 90.00 78.86 9.49
6685 65.1200 101.00 80.45 10.05
6686 65.1290 101.00 83.42 10.05
6687 65.1380 91.00 87.69 9.54
6688 65.1470 98.00 93.68 9.90
6689 65.1560 121.00 101.87 11.00
6690 65.1650 125.00 112.59 11.18
6691 65.1740 129.00 126.08 11.36
6692 65.1830 160.00 142.16 12.65
6693 65.1920 170.00 160.23 13.04
6694 65.2010 191.00 179.07 13.82
6695 65.2100 226.00 196.66 15.03
6696 65.2190 241.00 210.26 15.52
6697 65.2280 262.00 217.16 16.19
6698 65.2370 254.00 215.88 15.94
6699 65.2460 223.00 207.00 14.93
6700 65.2550 204.00 192.66 14.28
6701 65.2640 188.00 175.46 13.71
6702 65.2730 179.00 157.71 13.38
6703 65.2820 154.00 141.08 12.41
6704 65.2910 130.00 126.70 11.40
6705 65.3000 125.00 115.16 11.18
6706 65.3090 117.00 106.68 10.82
6707 65.3180 119.00 101.34 10.91
6708 65.3270 129.00 99.17 11.36
6709 65.3360 133.00 100.21 11.53
6710 65.3450 115.00 104.56 10.72
6711 65.3540 112.00 112.20 10.58
6712 65.3630 143.00 122.86 11.96
6713 65.3720 168.00 135.81 12.96
6714 65.3810 158.00 149.65 12.57
6715 65.3900 187.00 162.09 13.67
6716 65.3990 182.00 170.09 13.49
6717 65.4080 174.00 171.01 13.19
6718 65.4170 170.00 164.40 13.04
6719 65.4260 180.00 152.38 13.42
6720 65.4350 152.00 138.01 12.33
6721 65.4440 114.00 123.76 10.68
6722 65.4530 118.00 111.23 10.86
6723 65.4620 124.00 101.15 11.14
6724 65.4710 97.00 93.60 9.85
6725 65.4800 94.00 88.68 9.70
6726 65.4890 99.00 85.97 9.95
6727 65.4980 103.00 85.18 10.15
6728 65.5070 101.00 86.40 10.05
6729 65.5160 113.00 89.83 10.63
6730 65.5240 118.00 95.98 10.86
6731 65.5340 128.00 105.49 11.31
6732 65.5420 145.00 118.88 12.04
6733 65.5510 150.00 136.22 12.25
6734 65.5600 165.00 156.88 12.85
6735 65.5690 211.00 179.04 14.53
6736 65.5780 248.00 199.45 15.75
6737 65.5870 264.00 213.52 16.25
6738 65.5960 245.00 216.82 15.65
6739 65.6050 232.00 208.09 15.23
6740 65.6140 209.00 190.71 14.46
6741 65.6230 180.00 168.79 13.42
6742 65.6320 151.00 146.76 12.29
6743 65.6410 138.00 127.16 11.75
6744 65.6500 123.00 111.23 11.09
6745 65.6590 101.00 99.22 10.05
6746 65.6680 92.00 90.75 9.59
6747 65.6770 101.00 85.13 10.05
6748 65.6860 101.00 81.57 10.05
6749 65.6950 85.00 79.44 9.22
6750 65.7040 81.00 78.25 9.00
6751 65.7130 85.00 77.72 9.22
6752 65.7220 81.00 77.68 9.00
6753 65.7310 87.00 78.11 9.33
6754 65.7400 103.00 79.05 10.15
6755 65.7490 97.00 80.61 9.85
6756 65.7580 89.00 82.97 9.43
6757 65.7670 85.00 86.38 9.22
6758 65.7760 98.00 91.10 9.90
6759 65.7850 101.00 97.46 10.05
6760 65.7940 124.00 105.74 11.14
6761 65.8030 136.00 116.09 11.66
6762 65.8120 147.00 128.52 12.12
6763 65.8210 134.00 142.76 11.58
6764 65.8300 152.00 158.35 12.33
6765 65.8390 166.00 174.55 12.88
6766 65.8480 184.00 190.12 13.56
6767 65.8570 226.00 203.01 15.03
6768 65.8660 236.00 210.70 15.36
6769 65.8750 207.00 211.05 14.39
6770 65.8840 168.00 203.68 12.96
6771 65.8930 184.00 190.20 13.56
6772 65.9020 195.00 173.26 13.96
6773 65.9110 171.00 155.35 13.08
6774 65.9200 146.00 138.25 12.08
6775 65.9290 131.00 123.05 11.45
6776 65.9380 112.00 110.29 10.58
6777 65.9470 111.00 100.07 10.54
6778 65.9560 98.00 92.24 9.90
6779 65.9650 95.00 86.45 9.75
6780 65.9740 84.00 82.31 9.17
6781 65.9830 97.00 79.41 9.85
6782 65.9920 93.00 77.41 9.64
6783 66.0010 98.00 76.04 9.90
6784 66.0100 94.00 75.11 9.70
6785 66.0190 90.00 74.48 9.49
6786 66.0280 85.00 74.08 9.22
6787 66.0370 88.00 73.85 9.38
6788 66.0460 77.00 73.77 8.77
6789 66.0550 70.00 73.82 8.37
6790 66.0640 70.00 73.99 8.37
6791 66.0730 79.00 74.30 8.89
6792 66.0820 80.00 74.99 8.94
6793 66.0910 77.00 75.61 8.77
6794 66.1000 87.00 76.44 9.33
6795 66.1090 92.00 77.54 9.59
6796 66.1180 94.00 79.01 9.70
6797 66.1270 95.00 81.06 9.75
6798 66.1360 98.00 83.94 9.90
6799 66.1450 95.00 88.09 9.75
6800 66.1540 105.00 94.09 10.25
6801 66.1630 134.00 102.65 11.58
6802 66.1720 140.00 114.62 11.83
6803 66.1810 148.00 130.75 12.17
6804 66.1900 175.00 151.56 13.23
6805 66.1990 187.00 177.14 13.67
6806 66.2080 211.00 206.78 14.53
6807 66.2170 259.00 238.70 16.09
6808 66.2260 303.00 269.84 17.41
6809 66.2350 329.00 295.64 18.14
6810 66.2440 332.00 311.07 18.22
6811 66.2530 339.00 312.83 18.41
6812 66.2620 322.00 301.19 17.94
6813 66.2710 301.00 279.38 17.35
6814 66.2800 265.00 251.55 16.28
6815 66.2890 252.00 221.49 15.87
6816 66.2980 183.00 192.31 13.53
6817 66.3070 168.00 166.01 12.96
6818 66.3160 109.00 143.72 10.44
6819 66.3250 115.00 125.67 10.72
6820 66.3340 133.00 111.62 11.53
6821 66.3430 113.00 101.10 10.63
6822 66.3520 104.00 93.23 10.20
6823 66.3610 106.00 87.51 10.30
6824 66.3700 110.00 83.33 10.49
6825 66.3790 93.00 80.27 9.64
6826 66.3880 94.00 78.01 9.70
6827 66.3970 83.00 76.31 9.11
6828 66.4060 91.00 74.99 9.54
6829 66.4150 86.00 73.96 9.27
6830 66.4240 80.00 73.12 8.94
6831 66.4330 81.00 72.43 9.00
6832 66.4420 84.00 71.86 9.17
6833 66.4510 79.00 71.38 8.89
6834 66.4600 82.00 70.98 9.06
6835 66.4690 83.00 70.65 9.11
6836 66.4780 88.00 70.38 9.38
6837 66.4870 84.00 70.16 9.17
6838 66.4960 86.00 69.98 9.27
6839 66.5050 88.00 69.85 9.38
6840 66.5140 77.00 69.76 8.77
6841 66.5230 75.00 69.70 8.66
6842 66.5320 78.00 69.73 8.83
6843 66.5410 77.00 69.62 8.77
6844 66.5500 72.00 69.66 8.49
6845 66.5590 74.00 69.74 8.60
6846 66.5680 84.00 69.85 9.17
6847 66.5770 89.00 70.00 9.43
6848 66.5860 85.00 70.18 9.22
6849 66.5950 80.00 70.40 8.94
6850 66.6040 72.00 70.65 8.49
6851 66.6130 66.00 70.95 8.12
6852 66.6220 71.00 71.29 8.43
6853 66.6310 64.00 71.68 8.00
6854 66.6400 80.00 72.10 8.94
6855 66.6490 79.00 72.60 8.89
6856 66.6580 73.00 73.17 8.54
6857 66.6670 75.00 73.82 8.66
6858 66.6760 84.00 74.55 9.17
6859 66.6850 87.00 75.38 9.33
6860 66.6940 95.00 76.32 9.75
6861 66.7030 86.00 77.52 9.27
6862 66.7120 73.00 78.69 8.54
6863 66.7210 88.00 80.16 9.38
6864 66.7300 82.00 81.90 9.06
6865 66.7390 86.00 84.03 9.27
6866 66.7480 91.00 86.71 9.54
6867 66.7570 78.00 90.18 8.83
6868 66.7660 74.00 94.77 8.60
6869 66.7750 120.00 100.94 10.95
6870 66.7840 123.00 109.23 11.09
6871 66.7930 133.00 120.26 11.53
6872 66.8020 155.00 134.63 12.45
6873 66.8110 153.00 152.92 12.37
6874 66.8200 179.00 175.48 13.38
6875 66.8290 208.00 202.40 14.42
6876 66.8380 255.00 233.39 15.97
6877 66.8470 295.00 267.47 17.18
6878 66.8560 320.00 303.25 17.89
6879 66.8650 340.00 340.01 18.44
6880 66.8740 384.00 378.46 19.60
6881 66.8830 413.00 420.14 20.32
6882 66.8920 449.00 465.78 21.19
6883 66.9010 504.00 513.30 22.45
6884 66.9100 561.00 557.15 23.69
6885 66.9190 613.00 588.72 24.76
6886 66.9280 628.00 598.53 25.06
6887 66.9370 623.00 581.34 24.96
6888 66.9460 570.00 539.53 23.87
6889 66.9550 500.00 481.51 22.36
6890 66.9640 450.00 416.76 21.21
6891 66.9730 375.00 352.91 19.36
6892 66.9810 296.00 294.93 17.20
6893 66.9900 227.00 245.44 15.07
6894 66.9990 204.00 205.46 14.28
6895 67.0080 176.00 174.76 13.27
6896 67.0170 165.00 152.23 12.85
6897 67.0260 147.00 136.43 12.12
6898 67.0350 143.00 125.78 11.96
6899 67.0440 143.00 118.79 11.96
6900 67.0530 122.00 114.18 11.05
6901 67.0620 122.00 110.93 11.05
6902 67.0710 128.00 108.22 11.31
6903 67.0800 107.00 105.58 10.34
6904 67.0890 102.00 102.80 10.10
6905 67.0980 103.00 99.93 10.15
6906 67.1070 117.00 97.16 10.82
6907 67.1160 94.00 94.82 9.70
6908 67.1250 92.00 92.63 9.59
6909 67.1340 84.00 90.86 9.17
6910 67.1430 94.00 89.56 9.70
6911 67.1520 107.00 88.72 10.34
6912 67.1610 87.00 88.35 9.33
6913 67.1700 101.00 88.46 10.05
6914 67.1790 94.00 89.04 9.70
6915 67.1880 92.00 90.13 9.59
6916 67.1970 97.00 91.85 9.85
6917 67.2060 102.00 94.36 10.10
6918 67.2150 126.00 97.93 11.23
6919 67.2240 118.00 103.27 10.86
6920 67.2330 120.00 111.07 10.95
6921 67.2420 123.00 122.43 11.09
6922 67.2510 153.00 138.67 12.37
6923 67.2600 197.00 161.18 14.04
6924 67.2690 204.00 191.22 14.28
6925 67.2780 226.00 229.46 15.03
6926 67.2870 272.00 275.52 16.49
6927 67.2960 326.00 327.72 18.06
6928 67.3050 375.00 382.28 19.36
6929 67.3140 446.00 433.04 21.12
6930 67.3230 516.00 471.87 22.72
6931 67.3320 542.00 491.13 23.28
6932 67.3410 515.00 488.58 22.69
6933 67.3500 467.00 469.62 21.61
6934 67.3590 436.00 443.88 20.88
6935 67.3680 421.00 419.95 20.52
6936 67.3770 399.00 402.50 19.98
6937 67.3860 404.00 391.72 20.10
6938 67.3950 419.00 383.62 20.47
6939 67.4040 385.00 371.32 19.62
6940 67.4130 338.00 348.58 18.38
6941 67.4220 295.00 314.43 17.18
6942 67.4310 261.00 273.55 16.16
6943 67.4400 231.00 232.15 15.20
6944 67.4490 183.00 194.77 13.53
6945 67.4580 163.00 164.08 12.77
6946 67.4670 142.00 140.94 11.92
6947 67.4760 123.00 124.95 11.09
6948 67.4850 126.00 114.96 11.23
6949 67.4940 111.00 109.50 10.54
6950 67.5030 110.00 107.05 10.49
6951 67.5120 99.00 106.10 9.95
6952 67.5210 102.00 105.61 10.10
6953 67.5300 91.00 104.42 9.54
6954 67.5390 112.00 101.98 10.58
6955 67.5480 108.00 98.42 10.39
6956 67.5570 96.00 94.28 9.80
6957 67.5660 101.00 90.12 10.05
6958 67.5750 92.00 86.37 9.59
6959 67.5840 103.00 83.28 10.15
6960 67.5930 82.00 80.95 9.06
6961 67.6020 76.00 79.42 8.72
6962 67.6110 90.00 78.65 9.49
6963 67.6200 74.00 78.58 8.60
6964 67.6290 82.00 79.12 9.06
6965 67.6380 82.00 80.16 9.06
6966 67.6470 84.00 81.57 9.17
6967 67.6560 81.00 83.19 9.00
6968 67.6650 84.00 84.79 9.17
6969 67.6740 96.00 86.04 9.80
6970 67.6830 93.00 86.61 9.64
6971 67.6920 88.00 86.36 9.38
6972 67.7010 93.00 85.28 9.64
6973 67.7100 87.00 83.62 9.33
6974 67.7190 92.00 81.70 9.59
6975 67.7280 91.00 79.78 9.54
6976 67.7370 85.00 78.04 9.22
6977 67.7460 78.00 76.60 8.83
6978 67.7550 73.00 75.50 8.54
6979 67.7640 86.00 74.74 9.27
6980 67.7730 86.00 74.32 9.27
6981 67.7820 71.00 74.20 8.43
6982 67.7910 83.00 74.40 9.11
6983 67.8000 91.00 74.80 9.54
6984 67.8090 87.00 75.45 9.33
6985 67.8180 86.00 76.36 9.27
6986 67.8270 80.00 77.59 8.94
6987 67.8360 84.00 79.23 9.17
6988 67.8450 90.00 81.58 9.49
6989 67.8540 102.00 84.56 10.10
6990 67.8630 106.00 88.60 10.30
6991 67.8720 107.00 94.06 10.34
6992 67.8810 107.00 101.40 10.34
6993 67.8900 129.00 111.14 11.36
6994 67.8990 125.00 123.84 11.18
6995 67.9080 144.00 140.03 12.00
6996 67.9170 147.00 160.08 12.12
6997 67.9260 175.00 184.02 13.23
6998 67.9350 191.00 211.40 13.82
6999 67.9440 220.00 240.90 14.83
7000 67.9530 247.00 270.41 15.72
7001 67.9620 284.00 297.30 16.85
7002 67.9710 292.00 318.62 17.09
7003 67.9800 304.00 331.35 17.44
7004 67.9890 348.00 332.64 18.65
7005 67.9980 303.00 321.02 17.41
7006 68.0070 264.00 298.03 16.25
7007 68.0160 280.00 267.70 16.73
7008 68.0250 226.00 234.97 15.03
7009 68.0340 194.00 203.12 13.93
7010 68.0430 159.00 174.61 12.61
7011 68.0520 145.00 150.66 12.04
7012 68.0610 136.00 131.56 11.66
7013 68.0700 122.00 117.03 11.05
7014 68.0790 104.00 106.48 10.20
7015 68.0880 99.00 99.11 9.95
7016 68.0970 97.00 94.19 9.85
7017 68.1060 77.00 91.06 8.77
7018 68.1150 91.00 89.18 9.54
7019 68.1240 93.00 88.36 9.64
7020 68.1330 82.00 88.34 9.06
7021 68.1420 109.00 89.12 10.44
7022 68.1510 108.00 90.85 10.39
7023 68.1600 109.00 93.86 10.44
7024 68.1690 113.00 98.81 10.63
7025 68.1780 135.00 106.71 11.62
7026 68.1870 149.00 118.90 12.21
7027 68.1960 168.00 137.06 12.96
7028 68.2050 187.00 162.84 13.67
7029 68.2140 208.00 197.47 14.42
7030 68.2230 252.00 241.07 15.87
7031 68.2320 325.00 291.97 18.03
7032 68.2410 401.00 346.18 20.02
7033 68.2500 453.00 396.42 21.28
7034 68.2590 487.00 432.08 22.07
7035 68.2680 483.00 443.49 21.98
7036 68.2770 459.00 426.39 21.42
7037 68.2860 383.00 386.41 19.57
7038 68.2950 344.00 334.23 18.55
7039 68.3040 263.00 279.67 16.22
7040 68.3130 225.00 229.55 15.00
7041 68.3220 175.00 187.08 13.23
7042 68.3310 150.00 153.63 12.25
7043 68.3400 142.00 128.83 11.92
7044 68.3490 136.00 111.28 11.66
7045 68.3580 110.00 99.31 10.49
7046 68.3670 102.00 91.28 10.10
7047 68.3760 99.00 85.85 9.95
7048 68.3850 91.00 82.08 9.54
7049 68.3940 77.00 79.35 8.77
7050 68.4030 87.00 77.25 9.33
7051 68.4110 74.00 75.59 8.60
7052 68.4200 84.00 74.22 9.17
7053 68.4290 77.00 73.07 8.77
7054 68.4380 67.00 72.09 8.19
7055 68.4470 70.00 71.24 8.37
7056 68.4560 86.00 70.51 9.27
7057 68.4650 67.00 69.88 8.19
7058 68.4740 59.00 69.33 7.68
7059 68.4830 66.00 68.75 8.12
7060 68.4920 80.00 68.33 8.94
7061 68.5010 72.00 67.96 8.49
7062 68.5100 79.00 67.64 8.89
7063 68.5190 63.00 67.36 7.94
7064 68.5280 69.00 67.11 8.31
7065 68.5370 63.00 66.91 7.94
7066 68.5460 74.00 66.73 8.60
7067 68.5550 75.00 66.58 8.66
7068 68.5640 77.00 66.45 8.77
7069 68.5730 73.00 66.35 8.54
7070 68.5820 55.00 66.28 7.42
7071 68.5910 65.00 66.00 8.06
7072 68.6000 77.00 65.97 8.77
7073 68.6090 78.00 65.96 8.83
7074 68.6180 79.00 65.98 8.89
7075 68.6270 73.00 66.00 8.54
7076 68.6360 72.00 66.06 8.49
7077 68.6450 83.00 66.15 9.11
7078 68.6540 77.00 66.26 8.77
7079 68.6630 70.00 66.40 8.37
7080 68.6720 77.00 66.57 8.77
7081 68.6810 75.00 66.77 8.66
7082 68.6900 63.00 67.01 7.94
7083 68.6990 53.00 67.30 7.28
7084 68.7080 69.00 67.62 8.31
7085 68.7170 71.00 68.02 8.43
7086 68.7260 69.00 68.49 8.31
7087 68.7350 75.00 69.05 8.66
7088 68.7440 81.00 69.73 9.00
7089 68.7530 75.00 70.60 8.66
7090 68.7620 87.00 71.75 9.33
7091 68.7710 84.00 73.38 9.17
7092 68.7800 87.00 75.76 9.33
7093 68.7890 80.00 79.36 8.94
7094 68.7980 93.00 84.74 9.64
7095 68.8070 91.00 92.56 9.54
7096 68.8160 119.00 103.35 10.91
7097 68.8250 111.00 117.29 10.54
7098 68.8340 123.00 133.98 11.09
7099 68.8430 124.00 152.11 11.14
7100 68.8520 156.00 169.26 12.49
7101 68.8610 166.00 181.94 12.88
7102 68.8700 170.00 186.72 13.04
7103 68.8790 172.00 182.57 13.11
7104 68.8880 161.00 171.90 12.69
7105 68.8970 160.00 158.93 12.65
7106 68.9060 145.00 147.54 12.04
7107 68.9150 149.00 140.76 12.21
7108 68.9240 158.00 140.76 12.57
7109 68.9330 161.00 148.91 12.69
7110 68.9420 213.00 165.83 14.59
7111 68.9510 231.00 191.14 15.20
7112 68.9600 255.00 223.35 15.97
7113 68.9690 324.00 259.39 18.00
7114 68.9780 363.00 294.20 19.05
7115 68.9870 415.00 320.74 20.37
7116 68.9960 415.00 331.47 20.37
7117 69.0050 385.00 322.65 19.62
7118 69.0140 333.00 297.16 18.25
7119 69.0230 298.00 262.14 17.26
7120 69.0320 241.00 224.60 15.52
7121 69.0410 189.00 189.51 13.75
7122 69.0500 165.00 159.63 12.85
7123 69.0590 151.00 136.00 12.29
7124 69.0680 127.00 118.54 11.27
7125 69.0770 109.00 106.41 10.44
7126 69.0860 105.00 98.44 10.25
7127 69.0950 97.00 93.53 9.85
7128 69.1040 104.00 90.74 10.20
7129 69.1130 112.00 89.45 10.58
7130 69.1220 107.00 89.27 10.34
7131 69.1310 98.00 90.10 9.90
7132 69.1400 105.00 92.01 10.25
7133 69.1490 103.00 95.33 10.15
7134 69.1580 107.00 100.56 10.34
7135 69.1670 109.00 108.49 10.44
7136 69.1760 129.00 120.03 11.36
7137 69.1850 152.00 136.68 12.33
7138 69.1940 164.00 158.38 12.81
7139 69.2030 194.00 186.10 13.93
7140 69.2120 219.00 219.70 14.80
7141 69.2210 268.00 257.91 16.37
7142 69.2300 297.00 298.02 17.23
7143 69.2390 357.00 335.69 18.89
7144 69.2480 347.00 365.30 18.63
7145 69.2570 363.00 381.59 19.05
7146 69.2660 364.00 382.25 19.08
7147 69.2750 379.00 367.96 19.47
7148 69.2840 328.00 341.64 18.11
7149 69.2930 315.00 307.51 17.75
7150 69.3020 277.00 270.67 16.64
7151 69.3110 251.00 235.23 15.84
7152 69.3200 205.00 204.04 14.32
7153 69.3290 211.00 178.90 14.53
7154 69.3380 173.00 160.71 13.15
7155 69.3470 155.00 150.06 12.45
7156 69.3560 153.00 147.30 12.37
7157 69.3650 155.00 152.65 12.45
7158 69.3740 156.00 165.96 12.49
7159 69.3830 183.00 186.41 13.53
7160 69.3920 207.00 212.10 14.39
7161 69.4010 222.00 239.76 14.90
7162 69.4100 258.00 264.10 16.06
7163 69.4190 286.00 278.56 16.91
7164 69.4280 299.00 277.58 17.29
7165 69.4370 272.00 261.26 16.49
7166 69.4460 252.00 234.24 15.87
7167 69.4550 216.00 202.95 14.70
7168 69.4640 173.00 172.41 13.15
7169 69.4730 154.00 145.61 12.41
7170 69.4820 139.00 123.97 11.79
7171 69.4910 117.00 107.65 10.82
7172 69.5000 103.00 96.01 10.15
7173 69.5090 103.00 88.06 10.15
7174 69.5180 100.00 82.77 10.00
7175 69.5270 86.00 79.26 9.27
7176 69.5360 78.00 76.91 8.83
7177 69.5450 71.00 75.28 8.43
7178 69.5540 69.00 74.13 8.31
7179 69.5630 76.00 73.34 8.72
7180 69.5720 81.00 72.81 9.00
7181 69.5810 78.00 72.50 8.83
7182 69.5900 83.00 72.36 9.11
7183 69.5990 88.00 72.36 9.38
7184 69.6080 77.00 72.41 8.77
7185 69.6170 78.00 72.46 8.83
7186 69.6260 71.00 72.38 8.43
7187 69.6350 83.00 72.11 9.11
7188 69.6440 85.00 71.63 9.22
7189 69.6530 78.00 70.97 8.83
7190 69.6620 73.00 70.22 8.54
7191 69.6710 66.00 69.46 8.12
7192 69.6800 69.00 68.74 8.31
7193 69.6890 62.00 68.11 7.87
7194 69.6980 66.00 67.57 8.12
7195 69.7070 69.00 67.13 8.31
7196 69.7160 65.00 66.79 8.06
7197 69.7250 72.00 66.53 8.49
7198 69.7340 73.00 66.34 8.54
7199 69.7430 68.00 66.21 8.25
7200 69.7520 66.00 66.13 8.12
7201 69.7610 65.00 66.08 8.06
7202 69.7700 73.00 66.06 8.54
7203 69.7790 69.00 66.07 8.31
7204 69.7880 72.00 66.11 8.49
7205 69.7970 75.00 66.17 8.66
7206 69.8050 78.00 66.26 8.83
7207 69.8140 80.00 66.37 8.94
7208 69.8230 76.00 66.53 8.72
7209 69.8320 71.00 66.73 8.43
7210 69.8410 75.00 67.01 8.66
7211 69.8500 85.00 67.39 9.22
7212 69.8590 89.00 67.94 9.43
7213 69.8680 78.00 68.77 8.83
7214 69.8770 67.00 70.00 8.19
7215 69.8860 75.00 71.79 8.66
7216 69.8950 74.00 74.28 8.60
7217 69.9040 70.00 77.56 8.37
7218 69.9130 74.00 81.57 8.60
7219 69.9220 89.00 86.08 9.43
7220 69.9310 106.00 90.60 10.30
7221 69.9400 106.00 94.34 10.30
7222 69.9490 106.00 96.40 10.30
7223 69.9580 100.00 96.15 10.00
7224 69.9670 86.00 94.00 9.27
7225 69.9760 93.00 90.62 9.64
7226 69.9850 92.00 87.00 9.59
7227 69.9940 93.00 83.82 9.64
7228 70.0030 86.00 81.45 9.27
7229 70.0120 91.00 80.06 9.54
7230 70.0210 86.00 79.65 9.27
7231 70.0300 83.00 80.07 9.11
7232 70.0390 82.00 81.15 9.06
7233 70.0480 79.00 82.65 8.89
7234 70.0570 82.00 84.36 9.06
7235 70.0660 102.00 86.04 10.10
7236 70.0750 88.00 87.46 9.38
7237 70.0840 104.00 88.48 10.20
7238 70.0930 93.00 89.09 9.64
7239 70.1020 95.00 89.44 9.75
7240 70.1110 106.00 89.80 10.30
7241 70.1200 88.00 90.44 9.38
7242 70.1290 97.00 91.63 9.85
7243 70.1380 115.00 93.63 10.72
7244 70.1470 110.00 96.70 10.49
7245 70.1560 104.00 101.22 10.20
7246 70.1650 112.00 107.07 10.58
7247 70.1740 117.00 114.97 10.82
7248 70.1830 156.00 125.09 12.49
7249 70.1920 159.00 137.81 12.61
7250 70.2010 165.00 153.54 12.85
7251 70.2100 178.00 172.85 13.34
7252 70.2190 209.00 196.41 14.46
7253 70.2280 230.00 224.90 15.17
7254 70.2370 269.00 258.64 16.40
7255 70.2460 315.00 297.14 17.75
7256 70.2550 334.00 338.77 18.28
7257 70.2640 388.00 380.48 19.70
7258 70.2730 434.00 417.52 20.83
7259 70.2820 485.00 444.46 22.02
7260 70.2910 533.00 457.85 23.09
7261 70.3000 516.00 458.55 22.72
7262 70.3090 494.00 451.41 22.23
7263 70.3180 494.00 442.20 22.23
7264 70.3270 499.00 435.58 22.34
7265 70.3360 501.00 433.50 22.38
7266 70.3450 482.00 434.90 21.95
7267 70.3540 489.00 435.87 22.11
7268 70.3630 507.00 431.09 22.52
7269 70.3720 493.00 416.93 22.20
7270 70.3810 474.00 394.27 21.77
7271 70.3900 406.00 367.66 20.15
7272 70.3990 344.00 342.22 18.55
7273 70.4080 353.00 321.23 18.79
7274 70.4170 311.00 305.39 17.64
7275 70.4260 301.00 293.06 17.35
7276 70.4350 282.00 280.79 16.79
7277 70.4440 277.00 264.99 16.64
7278 70.4530 238.00 244.37 15.43
7279 70.4620 224.00 220.46 14.97
7280 70.4710 190.00 196.09 13.78
7281 70.4800 185.00 173.66 13.60
7282 70.4890 177.00 154.50 13.30
7283 70.4980 138.00 139.44 11.75
7284 70.5070 134.00 128.29 11.58
7285 70.5160 120.00 120.42 10.95
7286 70.5250 112.00 114.82 10.58
7287 70.5340 98.00 110.31 9.90
7288 70.5430 96.00 105.95 9.80
7289 70.5520 99.00 101.23 9.95
7290 70.5610 95.00 96.46 9.75
7291 70.5700 103.00 91.82 10.15
7292 70.5790 79.00 87.56 8.89
7293 70.5880 72.00 83.84 8.49
7294 70.5970 76.00 80.83 8.72
7295 70.6060 82.00 78.31 9.06
7296 70.6150 78.00 76.32 8.83
7297 70.6240 71.00 74.77 8.43
7298 70.6330 68.00 73.49 8.25
7299 70.6420 64.00 72.56 8.00
7300 70.6510 69.00 71.83 8.31
7301 70.6600 75.00 71.25 8.66
7302 70.6690 77.00 70.79 8.77
7303 70.6780 63.00 70.43 7.94
7304 70.6870 65.00 70.17 8.06
7305 70.6960 72.00 70.04 8.49
7306 70.7050 67.00 70.04 8.19
7307 70.7140 66.00 70.21 8.12
7308 70.7230 73.00 70.61 8.54
7309 70.7320 72.00 71.26 8.49
7310 70.7410 82.00 72.20 9.06
7311 70.7500 78.00 73.45 8.83
7312 70.7590 78.00 74.99 8.83
7313 70.7680 91.00 76.74 9.54
7314 70.7770 83.00 78.58 9.11
7315 70.7860 77.00 80.27 8.77
7316 70.7950 82.00 81.52 9.06
7317 70.8040 86.00 82.02 9.27
7318 70.8130 84.00 81.61 9.17
7319 70.8220 80.00 80.39 8.94
7320 70.8310 94.00 78.63 9.70
7321 70.8400 94.00 76.85 9.70
7322 70.8490 77.00 74.88 8.77
7323 70.8580 78.00 73.12 8.83
7324 70.8670 85.00 71.60 9.22
7325 70.8760 77.00 70.36 8.77
7326 70.8850 74.00 69.42 8.60
7327 70.8940 74.00 68.73 8.60
7328 70.9030 65.00 68.26 8.06
7329 70.9120 64.00 67.96 8.00
7330 70.9210 51.00 67.81 7.14
7331 70.9300 65.00 67.72 8.06
7332 70.9390 64.00 67.71 8.00
7333 70.9480 69.00 67.75 8.31
7334 70.9570 83.00 67.84 9.11
7335 70.9660 63.00 67.97 7.94
7336 70.9750 75.00 68.14 8.66
7337 70.9840 78.00 68.35 8.83
7338 70.9930 74.00 68.60 8.60
7339 71.0020 79.00 68.90 8.89
7340 71.0110 91.00 69.26 9.54
7341 71.0200 83.00 69.68 9.11
7342 71.0290 72.00 70.18 8.49
7343 71.0380 87.00 70.77 9.33
7344 71.0470 82.00 71.48 9.06
7345 71.0560 82.00 72.34 9.06
7346 71.0650 93.00 73.45 9.64
7347 71.0740 91.00 74.91 9.54
7348 71.0830 92.00 76.92 9.59
7349 71.0920 86.00 79.75 9.27
7350 71.1010 95.00 83.78 9.75
7351 71.1100 89.00 89.45 9.43
7352 71.1190 76.00 97.25 8.72
7353 71.1280 102.00 107.61 10.10
7354 71.1370 118.00 120.73 10.86
7355 71.1460 128.00 136.45 11.31
7356 71.1550 148.00 154.13 12.17
7357 71.1640 162.00 172.44 12.73
7358 71.1720 176.00 189.21 13.27
7359 71.1810 195.00 201.84 13.96
7360 71.1900 208.00 208.39 14.42
7361 71.1990 202.00 209.24 14.21
7362 71.2080 191.00 207.30 13.82
7363 71.2170 195.00 206.37 13.96
7364 71.2260 190.00 209.33 13.78
7365 71.2350 183.00 217.41 13.53
7366 71.2440 212.00 229.85 14.56
7367 71.2530 246.00 243.89 15.68
7368 71.2620 269.00 254.94 16.40
7369 71.2710 282.00 258.03 16.79
7370 71.2800 286.00 250.92 16.91
7371 71.2890 263.00 235.65 16.22
7372 71.2980 248.00 216.57 15.75
7373 71.3070 236.00 197.43 15.36
7374 71.3160 203.00 180.50 14.25
7375 71.3250 188.00 166.48 13.71
7376 71.3340 172.00 154.92 13.11
7377 71.3430 170.00 144.91 13.04
7378 71.3520 141.00 135.73 11.87
7379 71.3610 136.00 127.09 11.66
7380 71.3700 104.00 119.12 10.20
7381 71.3790 112.00 112.08 10.58
7382 71.3880 120.00 106.27 10.95
7383 71.3970 97.00 102.09 9.85
7384 71.4060 105.00 99.71 10.25
7385 71.4150 113.00 99.55 10.63
7386 71.4240 111.00 102.01 10.54
7387 71.4330 120.00 107.35 10.95
7388 71.4420 122.00 115.68 11.05
7389 71.4510 142.00 126.78 11.92
7390 71.4600 162.00 140.05 12.73
7391 71.4690 186.00 154.19 13.64
7392 71.4780 172.00 167.17 13.11
7393 71.4870 196.00 176.42 14.00
7394 71.4960 221.00 179.80 14.87
7395 71.5050 197.00 176.84 14.04
7396 71.5140 188.00 168.70 13.71
7397 71.5230 180.00 157.13 13.42
7398 71.5320 168.00 143.75 12.96
7399 71.5410 139.00 130.06 11.79
7400 71.5500 129.00 117.30 11.36
7401 71.5590 111.00 106.31 10.54
7402 71.5680 103.00 97.58 10.15
7403 71.5770 100.00 90.67 10.00
7404 71.5860 92.00 85.52 9.59
7405 71.5950 89.00 81.81 9.43
7406 71.6040 86.00 79.23 9.27
7407 71.6130 80.00 77.47 8.94
7408 71.6220 71.00 76.31 8.43
7409 71.6310 71.00 75.42 8.43
7410 71.6400 78.00 74.97 8.83
7411 71.6490 79.00 74.69 8.89
7412 71.6580 74.00 74.67 8.60
7413 71.6670 69.00 74.81 8.31
7414 71.6760 81.00 75.11 9.00
7415 71.6850 90.00 75.58 9.49
7416 71.6940 80.00 76.25 8.94
7417 71.7030 79.00 77.17 8.89
7418 71.7120 85.00 78.42 9.22
7419 71.7210 89.00 80.12 9.43
7420 71.7300 88.00 82.43 9.38
7421 71.7390 95.00 85.61 9.75
7422 71.7480 106.00 89.98 10.30
7423 71.7570 109.00 95.94 10.44
7424 71.7660 110.00 104.19 10.49
7425 71.7750 118.00 114.72 10.86
7426 71.7840 134.00 127.98 11.58
7427 71.7930 148.00 143.98 12.17
7428 71.8020 166.00 162.24 12.88
7429 71.8110 189.00 181.72 13.75
7430 71.8200 206.00 200.71 14.35
7431 71.8290 214.00 216.72 14.63
7432 71.8380 270.00 227.01 16.43
7433 71.8470 243.00 229.93 15.59
7434 71.8560 260.00 226.14 16.12
7435 71.8650 240.00 218.24 15.49
7436 71.8740 198.00 208.84 14.07
7437 71.8830 178.00 199.75 13.34
7438 71.8920 208.00 191.47 14.42
7439 71.9010 200.00 183.49 14.14
7440 71.9100 187.00 174.85 13.67
7441 71.9190 171.00 164.98 13.08
7442 71.9280 138.00 154.12 11.75
7443 71.9370 131.00 143.07 11.45
7444 71.9460 138.00 132.67 11.75
7445 71.9550 118.00 123.58 10.86
7446 71.9640 114.00 116.23 10.68
7447 71.9730 122.00 110.89 11.05
7448 71.9820 129.00 107.74 11.36
7449 71.9910 118.00 106.90 10.86
7450 72.0000 115.00 108.42 10.72
7451 72.0090 124.00 112.33 11.14
7452 72.0180 118.00 118.56 10.86
7453 72.0270 114.00 127.02 10.68
7454 72.0360 117.00 137.42 10.82
7455 72.0450 131.00 149.28 11.45
7456 72.0540 154.00 161.97 12.41
7457 72.0630 162.00 174.93 12.73
7458 72.0720 168.00 188.23 12.96
7459 72.0810 186.00 202.45 13.64
7460 72.0900 202.00 218.23 14.21
7461 72.0990 211.00 235.69 14.53
7462 72.1080 227.00 254.16 15.07
7463 72.1170 266.00 272.11 16.31
7464 72.1260 285.00 287.29 16.88
7465 72.1350 300.00 297.04 17.32
7466 72.1440 319.00 299.36 17.86
7467 72.1530 323.00 293.80 17.97
7468 72.1620 322.00 281.79 17.94
7469 72.1710 297.00 265.92 17.23
7470 72.1800 273.00 248.88 16.52
7471 72.1890 259.00 232.88 16.09
7472 72.1980 224.00 219.37 14.97
7473 72.2070 204.00 209.05 14.28
7474 72.2160 197.00 201.94 14.04
7475 72.2250 198.00 197.39 14.07
7476 72.2340 222.00 194.25 14.90
7477 72.2430 197.00 191.27 14.04
7478 72.2520 204.00 187.63 14.28
7479 72.2610 197.00 183.16 14.04
7480 72.2700 220.00 178.00 14.83
7481 72.2790 203.00 172.10 14.25
7482 72.2880 192.00 165.14 13.86
7483 72.2970 174.00 156.83 13.19
7484 72.3060 166.00 147.25 12.88
7485 72.3150 145.00 137.04 12.04
7486 72.3240 126.00 126.97 11.23
7487 72.3330 117.00 117.65 10.82
7488 72.3420 118.00 109.46 10.86
7489 72.3510 120.00 102.62 10.95
7490 72.3600 90.00 97.03 9.49
7491 72.3690 90.00 92.65 9.49
7492 72.3780 86.00 89.35 9.27
7493 72.3870 95.00 86.94 9.75
7494 72.3960 99.00 85.17 9.95
7495 72.4050 95.00 84.06 9.75
7496 72.4140 92.00 83.34 9.59
7497 72.4230 80.00 83.04 8.94
7498 72.4320 86.00 83.05 9.27
7499 72.4410 86.00 83.42 9.27
7500 72.4500 91.00 83.99 9.54
7501 72.4590 99.00 84.89 9.95
7502 72.4680 92.00 86.23 9.59
7503 72.4770 93.00 88.20 9.64
7504 72.4860 106.00 91.12 10.30
7505 72.4950 119.00 95.50 10.91
7506 72.5040 120.00 102.03 10.95
7507 72.5130 113.00 111.61 10.63
7508 72.5210 132.00 125.20 11.49
7509 72.5300 164.00 143.67 12.81
7510 72.5390 183.00 167.51 13.53
7511 72.5480 226.00 196.45 15.03
7512 72.5570 259.00 229.16 16.09
7513 72.5660 291.00 262.79 17.06
7514 72.5750 351.00 292.67 18.74
7515 72.5840 358.00 312.68 18.92
7516 72.5930 339.00 317.30 18.41
7517 72.6020 329.00 305.22 18.14
7518 72.6110 279.00 280.28 16.70
7519 72.6200 228.00 248.78 15.10
7520 72.6290 208.00 216.28 14.42
7521 72.6380 159.00 186.43 12.61
7522 72.6470 151.00 161.31 12.29
7523 72.6560 154.00 141.69 12.41
7524 72.6650 144.00 127.44 12.00
7525 72.6740 129.00 117.91 11.36
7526 72.6830 105.00 112.22 10.25
7527 72.6920 107.00 109.69 10.34
7528 72.7010 115.00 109.79 10.72
7529 72.7100 115.00 112.37 10.72
7530 72.7190 110.00 117.73 10.49
7531 72.7280 127.00 126.54 11.27
7532 72.7370 147.00 139.85 12.12
7533 72.7460 176.00 158.86 13.27
7534 72.7550 178.00 184.65 13.34
7535 72.7640 214.00 218.04 14.63
7536 72.7730 259.00 258.90 16.09
7537 72.7820 321.00 305.88 17.92
7538 72.7910 345.00 356.01 18.57
7539 72.8000 424.00 404.03 20.59
7540 72.8090 474.00 442.55 21.77
7541 72.8180 499.00 463.80 22.34
7542 72.8270 519.00 463.70 22.78
7543 72.8360 516.00 445.29 22.72
7544 72.8450 461.00 416.94 21.47
7545 72.8540 402.00 387.64 20.05
7546 72.8630 387.00 363.77 19.67
7547 72.8720 381.00 348.22 19.52
7548 72.8810 369.00 340.61 19.21
7549 72.8900 382.00 337.33 19.54
7550 72.8990 372.00 332.43 19.29
7551 72.9080 372.00 320.12 19.29
7552 72.9170 366.00 298.30 19.13
7553 72.9260 315.00 269.60 17.75
7554 72.9350 281.00 238.62 16.76
7555 72.9440 231.00 209.23 15.20
7556 72.9530 208.00 183.95 14.42
7557 72.9620 200.00 164.08 14.14
7558 72.9710 189.00 149.99 13.75
7559 72.9800 166.00 141.51 12.88
7560 72.9890 149.00 138.16 12.21
7561 72.9980 143.00 139.46 11.96
7562 73.0070 158.00 145.04 12.57
7563 73.0160 184.00 154.70 13.56
7564 73.0250 206.00 168.45 14.35
7565 73.0340 208.00 186.28 14.42
7566 73.0430 204.00 208.12 14.28
7567 73.0520 215.00 233.65 14.66
7568 73.0610 233.00 262.12 15.26
7569 73.0700 298.00 292.34 17.26
7570 73.0790 333.00 322.53 18.25
7571 73.0880 371.00 350.46 19.26
7572 73.0970 343.00 373.69 18.52
7573 73.1060 430.00 389.97 20.74
7574 73.1150 424.00 397.22 20.59
7575 73.1240 472.00 394.43 21.73
7576 73.1330 399.00 382.04 19.98
7577 73.1420 377.00 361.82 19.42
7578 73.1510 378.00 335.99 19.44
7579 73.1600 348.00 306.79 18.65
7580 73.1690 280.00 276.63 16.73
7581 73.1780 224.00 247.29 14.97
7582 73.1870 212.00 220.68 14.56
7583 73.1960 195.00 197.79 13.96
7584 73.2050 190.00 179.00 13.78
7585 73.2140 186.00 164.06 13.64
7586 73.2230 160.00 152.28 12.65
7587 73.2320 160.00 142.78 12.65
7588 73.2410 155.00 134.67 12.45
7589 73.2500 141.00 127.32 11.87
7590 73.2590 139.00 120.42 11.79
7591 73.2680 119.00 113.93 10.91
7592 73.2770 118.00 107.96 10.86
7593 73.2860 118.00 102.87 10.86
7594 73.2950 110.00 98.09 10.49
7595 73.3040 107.00 93.94 10.34
7596 73.3130 106.00 90.42 10.30
7597 73.3220 88.00 87.48 9.38
7598 73.3310 84.00 85.06 9.17
7599 73.3400 95.00 83.11 9.75
7600 73.3490 91.00 81.54 9.54
7601 73.3580 84.00 80.28 9.17
7602 73.3670 76.00 79.28 8.72
7603 73.3760 72.00 78.47 8.49
7604 73.3850 72.00 77.95 8.49
7605 73.3940 81.00 77.46 9.00
7606 73.4030 84.00 77.09 9.17
7607 73.4120 77.00 76.85 8.77
7608 73.4210 78.00 76.73 8.83
7609 73.4300 81.00 76.76 9.00
7610 73.4390 82.00 76.93 9.06
7611 73.4480 91.00 77.25 9.54
7612 73.4570 90.00 77.71 9.49
7613 73.4660 89.00 78.31 9.43
7614 73.4750 81.00 79.01 9.00
7615 73.4840 78.00 79.75 8.83
7616 73.4930 83.00 80.44 9.11
7617 73.5020 90.00 80.98 9.49
7618 73.5110 97.00 81.28 9.85
7619 73.5200 90.00 81.33 9.49
7620 73.5290 87.00 81.22 9.33
7621 73.5380 92.00 81.10 9.59
7622 73.5470 89.00 81.13 9.43
7623 73.5560 98.00 81.52 9.90
7624 73.5650 92.00 82.46 9.59
7625 73.5740 83.00 84.17 9.11
7626 73.5830 78.00 86.89 8.83
7627 73.5920 108.00 90.85 10.39
7628 73.6010 117.00 96.22 10.82
7629 73.6100 120.00 103.11 10.95
7630 73.6190 110.00 111.40 10.49
7631 73.6280 122.00 120.78 11.05
7632 73.6370 138.00 130.57 11.75
7633 73.6460 149.00 139.79 12.21
7634 73.6550 153.00 146.92 12.37
7635 73.6640 173.00 150.47 13.15
7636 73.6730 165.00 149.54 12.85
7637 73.6820 139.00 144.62 11.79
7638 73.6910 128.00 136.95 11.31
7639 73.7000 122.00 128.20 11.05
7640 73.7090 111.00 119.57 10.54
7641 73.7180 102.00 112.25 10.10
7642 73.7270 111.00 106.74 10.54
7643 73.7360 114.00 103.42 10.68
7644 73.7450 110.00 102.53 10.49
7645 73.7540 108.00 104.18 10.39
7646 73.7630 103.00 108.38 10.15
7647 73.7720 102.00 115.05 10.10
7648 73.7810 106.00 123.94 10.30
7649 73.7900 122.00 134.64 11.05
7650 73.7990 137.00 146.31 11.70
7651 73.8080 136.00 158.14 11.66
7652 73.8170 142.00 168.46 11.92
7653 73.8260 150.00 175.43 12.25
7654 73.8350 158.00 177.42 12.57
7655 73.8440 165.00 173.88 12.85
7656 73.8520 155.00 165.63 12.45
7657 73.8610 151.00 154.40 12.29
7658 73.8700 133.00 141.94 11.53
7659 73.8790 132.00 129.64 11.49
7660 73.8880 109.00 118.38 10.44
7661 73.8970 110.00 108.67 10.49
7662 73.9060 110.00 100.72 10.49
7663 73.9150 87.00 94.52 9.33
7664 73.9240 90.00 89.93 9.49
7665 73.9330 81.00 86.72 9.00
7666 73.9420 73.00 84.67 8.54
7667 73.9510 69.00 83.56 8.31
7668 73.9600 83.00 83.25 9.11
7669 73.9690 88.00 83.60 9.38
7670 73.9780 91.00 84.55 9.54
7671 73.9870 93.00 86.03 9.64
7672 73.9960 74.00 88.00 8.60
7673 74.0050 77.00 90.44 8.77
7674 74.0140 75.00 93.15 8.66
7675 74.0230 90.00 96.05 9.49
7676 74.0320 88.00 98.89 9.38
7677 74.0410 95.00 101.42 9.75
7678 74.0500 101.00 103.19 10.05
7679 74.0590 104.00 104.08 10.20
7680 74.0680 117.00 103.85 10.82
7681 74.0770 108.00 102.54 10.39
7682 74.0860 102.00 100.19 10.10
7683 74.0950 91.00 97.56 9.54
7684 74.1040 95.00 94.74 9.75
7685 74.1130 95.00 91.99 9.75
7686 74.1220 86.00 89.48 9.27
7687 74.1310 90.00 87.46 9.49
7688 74.1400 88.00 85.69 9.38
7689 74.1490 84.00 84.34 9.17
7690 74.1580 93.00 83.41 9.64
7691 74.1670 96.00 82.87 9.80
7692 74.1760 80.00 82.69 8.94
7693 74.1850 77.00 82.85 8.77
7694 74.1940 81.00 83.35 9.00
7695 74.2030 86.00 84.20 9.27
7696 74.2120 107.00 85.48 10.34
7697 74.2210 110.00 87.34 10.49
7698 74.2300 105.00 90.04 10.25
7699 74.2390 97.00 93.99 9.85
7700 74.2480 106.00 99.73 10.30
7701 74.2570 128.00 107.90 11.31
7702 74.2660 124.00 119.12 11.14
7703 74.2750 149.00 133.82 12.21
7704 74.2840 200.00 151.97 14.14
7705 74.2930 222.00 172.85 14.90
7706 74.3020 215.00 194.93 14.66
7707 74.3110 232.00 215.46 15.23
7708 74.3200 250.00 231.05 15.81
7709 74.3290 299.00 238.60 17.29
7710 74.3380 247.00 237.93 15.72
7711 74.3470 256.00 232.47 16.00
7712 74.3560 227.00 227.61 15.07
7713 74.3650 237.00 228.89 15.39
7714 74.3740 261.00 240.22 16.16
7715 74.3830 281.00 264.88 16.76
7716 74.3920 322.00 304.14 17.94
7717 74.4010 326.00 357.11 18.06
7718 74.4100 424.00 420.10 20.59
7719 74.4190 473.00 486.03 21.75
7720 74.4280 587.00 544.38 24.23
7721 74.4370 571.00 582.10 23.90
7722 74.4460 594.00 589.24 24.37
7723 74.4550 588.00 565.47 24.25
7724 74.4640 530.00 520.21 23.02
7725 74.4730 491.00 465.67 22.16
7726 74.4820 405.00 411.07 20.12
7727 74.4910 361.00 361.45 19.00
7728 74.5000 314.00 317.92 17.72
7729 74.5090 304.00 279.61 17.44
7730 74.5180 272.00 245.47 16.49
7731 74.5270 222.00 215.24 14.90
7732 74.5360 193.00 189.15 13.89
7733 74.5450 181.00 167.31 13.45
7734 74.5540 168.00 149.51 12.96
7735 74.5630 146.00 135.45 12.08
7736 74.5720 125.00 124.71 11.18
7737 74.5810 119.00 116.86 10.91
7738 74.5900 115.00 111.45 10.72
7739 74.5990 106.00 108.28 10.30
7740 74.6080 106.00 106.63 10.30
7741 74.6170 104.00 106.48 10.20
7742 74.6260 107.00 107.72 10.34
7743 74.6350 113.00 110.38 10.63
7744 74.6440 112.00 114.55 10.58
7745 74.6530 122.00 120.36 11.05
7746 74.6620 127.00 128.00 11.27
7747 74.6710 134.00 137.58 11.58
7748 74.6800 139.00 149.21 11.79
7749 74.6890 167.00 162.90 12.92
7750 74.6980 187.00 178.44 13.67
7751 74.7070 194.00 195.69 13.93
7752 74.7160 196.00 214.10 14.00
7753 74.7250 236.00 232.79 15.36
7754 74.7340 241.00 250.90 15.52
7755 74.7430 252.00 267.77 15.87
7756 74.7520 274.00 283.28 16.55
7757 74.7610 294.00 297.67 17.15
7758 74.7700 285.00 310.95 16.88
7759 74.7790 286.00 322.27 16.91
7760 74.7880 308.00 329.65 17.55
7761 74.7970 335.00 330.38 18.30
7762 74.8060 353.00 322.26 18.79
7763 74.8150 323.00 305.07 17.97
7764 74.8240 319.00 280.93 17.86
7765 74.8330 294.00 253.08 17.15
7766 74.8420 245.00 224.58 15.65
7767 74.8510 231.00 197.67 15.20
7768 74.8600 195.00 173.65 13.96
7769 74.8690 179.00 153.19 13.38
7770 74.8780 149.00 136.49 12.21
7771 74.8870 139.00 123.27 11.79
7772 74.8960 124.00 113.17 11.14
7773 74.9050 108.00 105.63 10.39
7774 74.9140 113.00 100.11 10.63
7775 74.9230 99.00 96.11 9.95
7776 74.9320 97.00 93.25 9.85
7777 74.9410 105.00 91.19 10.25
7778 74.9500 101.00 89.94 10.05
7779 74.9590 103.00 88.96 10.15
7780 74.9680 111.00 88.35 10.54
7781 74.9770 99.00 88.09 9.95
7782 74.9860 91.00 88.21 9.54
7783 74.9950 99.00 88.69 9.95
7784 75.0040 109.00 89.70 10.44
7785 75.0130 95.00 91.29 9.75
7786 75.0220 95.00 93.55 9.75
7787 75.0310 110.00 96.59 10.49
7788 75.0400 112.00 100.50 10.58
7789 75.0490 118.00 105.32 10.86
7790 75.0580 130.00 111.05 11.40
7791 75.0670 135.00 117.65 11.62
7792 75.0760 129.00 125.03 11.36
7793 75.0850 143.00 133.15 11.96
7794 75.0940 148.00 141.96 12.17
7795 75.1030 161.00 151.25 12.69
7796 75.1120 191.00 160.59 13.82
7797 75.1210 186.00 169.43 13.64
7798 75.1300 204.00 177.26 14.28
7799 75.1390 227.00 183.81 15.07
7800 75.1480 188.00 188.73 13.71
7801 75.1560 198.00 191.21 14.07
7802 75.1650 198.00 189.93 14.07
7803 75.1740 187.00 183.79 13.67
7804 75.1830 199.00 173.07 14.11
7805 75.1920 178.00 159.41 13.34
7806 75.2010 165.00 144.88 12.85
7807 75.2100 119.00 131.13 10.91
7808 75.2190 125.00 119.15 11.18
7809 75.2280 111.00 109.42 10.54
7810 75.2370 109.00 101.92 10.44
7811 75.2460 91.00 96.54 9.54
7812 75.2550 102.00 92.88 10.10
7813 75.2640 102.00 90.55 10.10
7814 75.2730 95.00 89.23 9.75
7815 75.2820 96.00 88.67 9.80
7816 75.2910 112.00 88.77 10.58
7817 75.3000 96.00 89.51 9.80
7818 75.3090 104.00 90.98 10.20
7819 75.3180 99.00 93.39 9.95
7820 75.3270 110.00 96.99 10.49
7821 75.3360 116.00 102.08 10.77
7822 75.3450 106.00 108.94 10.30
7823 75.3540 124.00 117.71 11.14
7824 75.3630 134.00 128.37 11.58
7825 75.3720 140.00 140.56 11.83
7826 75.3810 156.00 153.65 12.49
7827 75.3900 162.00 166.08 12.73
7828 75.3990 196.00 176.16 14.00
7829 75.4080 190.00 181.87 13.78
7830 75.4170 181.00 182.05 13.45
7831 75.4260 197.00 177.14 14.04
7832 75.4350 171.00 168.97 13.08
7833 75.4440 159.00 159.77 12.61
7834 75.4530 166.00 151.47 12.88
7835 75.4620 148.00 145.48 12.17
7836 75.4710 142.00 142.70 11.92
7837 75.4800 156.00 143.66 12.49
7838 75.4890 160.00 148.52 12.65
7839 75.4980 152.00 157.06 12.33
7840 75.5070 159.00 168.94 12.61
7841 75.5160 169.00 183.27 13.00
7842 75.5250 180.00 198.93 13.42
7843 75.5340 197.00 214.26 14.04
7844 75.5430 205.00 227.17 14.32
7845 75.5520 250.00 235.41 15.81
7846 75.5610 228.00 237.22 15.10
7847 75.5700 222.00 232.22 14.90
7848 75.5790 207.00 221.60 14.39
7849 75.5880 199.00 207.42 14.11
7850 75.5970 171.00 191.81 13.08
7851 75.6060 168.00 176.23 12.96
7852 75.6150 162.00 162.21 12.73
7853 75.6240 148.00 150.23 12.17
7854 75.6330 139.00 140.63 11.79
7855 75.6420 144.00 133.54 12.00
7856 75.6510 138.00 128.90 11.75
7857 75.6600 140.00 126.65 11.83
7858 75.6690 154.00 126.66 12.41
7859 75.6780 130.00 129.02 11.40
7860 75.6870 147.00 134.00 12.12
7861 75.6960 153.00 142.07 12.37
7862 75.7050 168.00 153.98 12.96
7863 75.7140 188.00 170.56 13.71
7864 75.7230 201.00 192.70 14.18
7865 75.7320 258.00 221.23 16.06
7866 75.7410 266.00 256.81 16.31
7867 75.7500 308.00 299.53 17.55
7868 75.7590 371.00 348.95 19.26
7869 75.7680 417.00 403.73 20.42
7870 75.7770 484.00 461.25 22.00
7871 75.7860 539.00 517.22 23.22
7872 75.7950 609.00 566.38 24.68
7873 75.8040 644.00 604.30 25.38
7874 75.8130 692.00 629.29 26.31
7875 75.8220 727.00 642.65 26.96
7876 75.8310 672.00 645.38 25.92
7877 75.8400 642.00 636.62 25.34
7878 75.8490 610.00 613.15 24.70
7879 75.8580 593.00 572.05 24.35
7880 75.8670 534.00 515.83 23.11
7881 75.8760 427.00 451.41 20.66
7882 75.8850 346.00 386.42 18.60
7883 75.8940 279.00 326.76 16.70
7884 75.9030 236.00 275.82 15.36
7885 75.9120 218.00 234.87 14.76
7886 75.9210 204.00 203.88 14.28
7887 75.9300 195.00 181.69 13.96
7888 75.9390 196.00 166.62 14.00
7889 75.9480 175.00 156.68 13.23
7890 75.9570 157.00 149.78 12.53
7891 75.9660 161.00 144.16 12.69
7892 75.9750 137.00 138.65 11.70
7893 75.9840 119.00 132.89 10.91
7894 75.9930 131.00 127.10 11.45
7895 76.0020 140.00 121.68 11.83
7896 76.0110 128.00 116.96 11.31
7897 76.0200 129.00 113.15 11.36
7898 76.0290 116.00 110.33 10.77
7899 76.0380 117.00 108.45 10.82
7900 76.0470 104.00 107.40 10.20
7901 76.0560 124.00 107.00 11.14
7902 76.0650 118.00 107.09 10.86
7903 76.0740 111.00 107.54 10.54
7904 76.0830 105.00 108.24 10.25
7905 76.0920 99.00 109.05 9.95
7906 76.1010 105.00 109.73 10.25
7907 76.1100 102.00 110.00 10.10
7908 76.1190 118.00 109.62 10.86
7909 76.1280 114.00 108.46 10.68
7910 76.1370 106.00 106.62 10.30
7911 76.1460 102.00 104.36 10.10
7912 76.1550 95.00 101.95 9.75
7913 76.1640 106.00 99.63 10.30
7914 76.1730 96.00 97.57 9.80
7915 76.1820 102.00 95.85 10.10
7916 76.1910 97.00 94.65 9.85
7917 76.2000 104.00 93.76 10.20
7918 76.2090 85.00 93.29 9.22
7919 76.2180 86.00 93.22 9.27
7920 76.2270 96.00 93.41 9.80
7921 76.2360 117.00 94.09 10.82
7922 76.2450 109.00 95.18 10.44
7923 76.2540 108.00 96.71 10.39
7924 76.2630 109.00 98.81 10.44
7925 76.2720 99.00 101.65 9.95
7926 76.2810 106.00 105.53 10.30
7927 76.2900 125.00 110.87 11.18
7928 76.2990 138.00 118.20 11.75
7929 76.3080 141.00 128.19 11.87
7930 76.3170 144.00 141.69 12.00
7931 76.3260 150.00 159.46 12.25
7932 76.3350 170.00 182.15 13.04
7933 76.3440 202.00 210.37 14.21
7934 76.3530 235.00 244.01 15.33
7935 76.3620 280.00 282.43 16.73
7936 76.3710 312.00 324.13 17.66
7937 76.3800 332.00 366.32 18.22
7938 76.3890 368.00 404.85 19.18
7939 76.3980 412.00 434.46 20.30
7940 76.4070 433.00 449.84 20.81
7941 76.4160 478.00 447.98 21.86
7942 76.4250 474.00 429.64 21.77
7943 76.4340 431.00 398.83 20.76
7944 76.4420 360.00 360.55 18.97
7945 76.4510 323.00 319.44 17.97
7946 76.4600 272.00 279.06 16.49
7947 76.4690 263.00 241.82 16.22
7948 76.4780 229.00 209.21 15.13
7949 76.4870 191.00 181.88 13.82
7950 76.4960 180.00 159.79 13.42
7951 76.5050 149.00 142.49 12.21
7952 76.5140 141.00 129.33 11.87
7953 76.5230 145.00 119.51 12.04
7954 76.5320 121.00 112.31 11.00
7955 76.5410 112.00 107.08 10.58
7956 76.5500 114.00 103.31 10.68
7957 76.5590 110.00 100.61 10.49
7958 76.5680 113.00 98.74 10.63
7959 76.5770 91.00 97.63 9.54
7960 76.5860 108.00 97.01 10.39
7961 76.5950 88.00 97.00 9.38
7962 76.6040 95.00 97.59 9.75
7963 76.6130 101.00 98.96 10.05
7964 76.6220 109.00 101.17 10.44
7965 76.6310 108.00 104.29 10.39
7966 76.6400 101.00 108.36 10.05
7967 76.6490 119.00 113.35 10.91
7968 76.6580 115.00 119.08 10.72
7969 76.6670 119.00 125.25 10.91
7970 76.6760 127.00 131.36 11.27
7971 76.6850 138.00 136.83 11.75
7972 76.6940 141.00 141.23 11.87
7973 76.7030 143.00 144.80 11.96
7974 76.7120 141.00 148.10 11.87
7975 76.7210 147.00 151.82 12.12
7976 76.7300 142.00 156.43 11.92
7977 76.7390 142.00 161.99 11.92
7978 76.7480 185.00 168.19 13.60
7979 76.7570 201.00 174.29 14.18
7980 76.7660 177.00 179.20 13.30
7981 76.7750 185.00 181.73 13.60
7982 76.7840 196.00 180.97 14.00
7983 76.7930 190.00 176.76 13.78
7984 76.8020 193.00 169.66 13.89
7985 76.8110 163.00 160.71 12.77
7986 76.8200 143.00 150.98 11.96
7987 76.8290 141.00 141.34 11.87
7988 76.8380 155.00 132.42 12.45
7989 76.8470 130.00 124.62 11.40
7990 76.8560 133.00 118.19 11.53
7991 76.8650 143.00 113.25 11.96
7992 76.8740 119.00 109.82 10.91
7993 76.8830 124.00 107.84 11.14
7994 76.8920 123.00 107.25 11.09
7995 76.9010 118.00 107.93 10.86
7996 76.9100 102.00 109.78 10.10
7997 76.9190 129.00 112.65 11.36
7998 76.9280 114.00 116.39 10.68
7999 76.9370 122.00 120.80 11.05
8000 76.9460 136.00 125.61 11.66
8001 76.9550 127.00 130.48 11.27
8002 76.9640 130.00 134.96 11.40
8003 76.9730 142.00 138.58 11.92
8004 76.9820 129.00 140.91 11.36
8005 76.9910 131.00 141.80 11.45
8006 77.0000 139.00 141.43 11.79
8007 77.0090 137.00 140.33 11.70
8008 77.0180 138.00 139.13 11.75
8009 77.0270 142.00 138.49 11.92
8010 77.0360 146.00 139.04 12.08
8011 77.0450 123.00 141.38 11.09
8012 77.0540 131.00 146.04 11.45
8013 77.0630 153.00 153.85 12.37
8014 77.0720 176.00 165.45 13.27
8015 77.0810 196.00 181.63 14.00
8016 77.0900 204.00 203.16 14.28
8017 77.0990 227.00 230.68 15.07
8018 77.1080 267.00 264.60 16.34
8019 77.1170 295.00 304.60 17.18
8020 77.1260 336.00 350.34 18.33
8021 77.1350 389.00 400.46 19.72
8022 77.1440 443.00 453.11 21.05
8023 77.1530 499.00 505.35 22.34
8024 77.1620 517.00 552.94 22.74
8025 77.1710 517.00 590.64 22.74
8026 77.1800 529.00 614.94 23.00
8027 77.1890 546.00 625.68 23.37
8028 77.1980 567.00 624.85 23.81
8029 77.2070 566.00 613.76 23.79
8030 77.2160 568.00 591.57 23.83
8031 77.2250 594.00 556.86 24.37
8032 77.2340 592.00 510.30 24.33
8033 77.2430 528.00 455.64 22.98
8034 77.2520 421.00 398.92 20.52
8035 77.2610 384.00 344.65 19.60
8036 77.2700 351.00 296.09 18.74
8037 77.2790 287.00 255.05 16.94
8038 77.2880 254.00 222.23 15.94
8039 77.2970 229.00 197.84 15.13
8040 77.3060 205.00 181.76 14.32
8041 77.3150 199.00 173.74 14.11
8042 77.3240 196.00 173.47 14.00
8043 77.3330 191.00 180.54 13.82
8044 77.3420 202.00 194.26 14.21
8045 77.3510 185.00 213.39 13.60
8046 77.3600 241.00 235.86 15.52
8047 77.3690 246.00 258.57 15.68
8048 77.3780 266.00 277.06 16.31
8049 77.3870 287.00 286.36 16.94
8050 77.3960 260.00 282.98 16.12
8051 77.4050 228.00 267.37 15.10
8052 77.4140 222.00 243.39 14.90
8053 77.4230 158.00 215.86 12.57
8054 77.4320 145.00 188.63 12.04
8055 77.4410 149.00 164.11 12.21
8056 77.4500 126.00 143.59 11.23
8057 77.4590 108.00 127.45 10.39
8058 77.4680 111.00 115.34 10.54
8059 77.4770 109.00 106.61 10.44
8060 77.4860 99.00 100.47 9.95
8061 77.4950 91.00 96.18 9.54
8062 77.5040 84.00 93.15 9.17
8063 77.5130 93.00 90.94 9.64
8064 77.5220 80.00 89.25 8.94
8065 77.5310 81.00 87.91 9.00
8066 77.5400 98.00 86.81 9.90
8067 77.5490 98.00 85.88 9.90
8068 77.5580 91.00 85.07 9.54
8069 77.5670 83.00 84.38 9.11
8070 77.5760 78.00 83.77 8.83
8071 77.5850 67.00 83.23 8.19
8072 77.5940 66.00 82.76 8.12
8073 77.6030 79.00 82.34 8.89
8074 77.6120 79.00 81.96 8.89
8075 77.6210 73.00 81.64 8.54
8076 77.6300 70.00 81.51 8.37
8077 77.6390 74.00 81.27 8.60
8078 77.6480 74.00 81.06 8.60
8079 77.6570 76.00 80.89 8.72
8080 77.6660 84.00 80.75 9.17
8081 77.6750 77.00 80.64 8.77
8082 77.6840 84.00 80.55 9.17
8083 77.6930 79.00 80.50 8.89
8084 77.7020 80.00 80.48 8.94
8085 77.7110 76.00 80.49 8.72
8086 77.7190 87.00 80.54 9.33
8087 77.7280 91.00 80.62 9.54
8088 77.7370 88.00 80.75 9.38
8089 77.7460 76.00 80.94 8.72
8090 77.7550 80.00 81.20 8.94
8091 77.7640 90.00 81.54 9.49
8092 77.7730 93.00 81.99 9.64
8093 77.7820 88.00 82.57 9.38
8094 77.7910 87.00 83.31 9.33
8095 77.8000 69.00 84.25 8.31
8096 77.8090 87.00 85.42 9.33
8097 77.8180 83.00 86.86 9.11
8098 77.8270 100.00 88.57 10.00
8099 77.8360 89.00 90.58 9.43
8100 77.8450 113.00 92.88 10.63
8101 77.8540 94.00 95.43 9.70
8102 77.8630 98.00 98.20 9.90
8103 77.8720 105.00 100.91 10.25
8104 77.8810 125.00 103.88 11.18
8105 77.8900 128.00 106.79 11.31
8106 77.8990 113.00 109.54 10.63
8107 77.9080 131.00 112.09 11.45
8108 77.9170 127.00 114.59 11.27
8109 77.9260 134.00 117.39 11.58
8110 77.9350 145.00 121.00 12.04
8111 77.9440 145.00 126.07 12.04
8112 77.9530 136.00 133.16 11.66
8113 77.9620 152.00 142.75 12.33
8114 77.9710 174.00 155.11 13.19
8115 77.9800 169.00 170.23 13.00
8116 77.9890 180.00 187.69 13.42
8117 77.9980 210.00 206.51 14.49
8118 78.0070 228.00 225.08 15.10
8119 78.0160 243.00 241.06 15.59
8120 78.0250 268.00 251.71 16.37
8121 78.0340 277.00 254.69 16.64
8122 78.0430 253.00 249.17 15.91
8123 78.0520 221.00 236.19 14.87
8124 78.0610 202.00 218.09 14.21
8125 78.0700 189.00 197.59 13.75
8126 78.0790 165.00 176.92 12.85
8127 78.0880 164.00 157.65 12.81
8128 78.0970 149.00 140.74 12.21
8129 78.1060 138.00 126.56 11.75
8130 78.1150 108.00 115.18 10.39
8131 78.1240 117.00 106.37 10.82
8132 78.1330 110.00 99.74 10.49
8133 78.1420 100.00 94.87 10.00
8134 78.1510 103.00 91.33 10.15
8135 78.1600 87.00 88.78 9.33
8136 78.1690 92.00 86.93 9.59
8137 78.1780 102.00 85.58 10.10
8138 78.1870 87.00 84.60 9.33
8139 78.1960 87.00 83.96 9.33
8140 78.2050 87.00 83.51 9.33
8141 78.2140 99.00 83.27 9.95
8142 78.2230 82.00 83.23 9.06
8143 78.2320 92.00 83.38 9.59
8144 78.2410 82.00 83.70 9.06
8145 78.2500 84.00 84.15 9.17
8146 78.2590 77.00 84.69 8.77
8147 78.2680 84.00 85.24 9.17
8148 78.2770 88.00 85.69 9.38
8149 78.2860 78.00 85.91 8.83
8150 78.2950 87.00 85.80 9.33
8151 78.3040 85.00 85.35 9.22
8152 78.3130 82.00 84.60 9.06
8153 78.3220 73.00 83.68 8.54
8154 78.3310 62.00 82.69 7.87
8155 78.3400 74.00 81.72 8.60
8156 78.3490 81.00 80.84 9.00
8157 78.3580 77.00 80.07 8.77
8158 78.3670 75.00 79.37 8.66
8159 78.3760 83.00 78.85 9.11
8160 78.3850 75.00 78.44 8.66
8161 78.3940 82.00 78.13 9.06
8162 78.4030 88.00 77.90 9.38
8163 78.4120 80.00 77.73 8.94
8164 78.4210 81.00 77.61 9.00
8165 78.4300 82.00 77.53 9.06
8166 78.4390 75.00 77.67 8.66
8167 78.4480 75.00 77.64 8.66
8168 78.4570 82.00 77.64 9.06
8169 78.4660 85.00 77.65 9.22
8170 78.4750 77.00 77.69 8.77
8171 78.4840 73.00 77.75 8.54
8172 78.4930 79.00 77.84 8.89
8173 78.5020 76.00 77.97 8.72
8174 78.5110 81.00 78.15 9.00
8175 78.5200 79.00 78.40 8.89
8176 78.5290 90.00 78.74 9.49
8177 78.5380 99.00 79.01 9.95
8178 78.5470 87.00 79.61 9.33
8179 78.5560 77.00 80.39 8.77
8180 78.5650 77.00 81.36 8.77
8181 78.5740 94.00 82.53 9.70
8182 78.5830 98.00 83.90 9.90
8183 78.5920 98.00 85.43 9.90
8184 78.6010 73.00 86.97 8.54
8185 78.6100 69.00 88.36 8.31
8186 78.6190 81.00 89.78 9.00
8187 78.6280 97.00 90.87 9.85
8188 78.6370 99.00 91.41 9.95
8189 78.6460 74.00 91.31 8.60
8190 78.6550 81.00 90.63 9.00
8191 78.6640 83.00 89.49 9.11
8192 78.6730 77.00 88.11 8.77
8193 78.6820 90.00 86.67 9.49
8194 78.6910 91.00 85.29 9.54
8195 78.7000 94.00 84.06 9.70
8196 78.7090 80.00 83.02 8.94
8197 78.7180 80.00 82.20 8.94
8198 78.7270 83.00 81.59 9.11
8199 78.7360 79.00 81.18 8.89
8200 78.7450 70.00 80.94 8.37
8201 78.7540 69.00 80.85 8.31
8202 78.7630 73.00 80.90 8.54
8203 78.7720 84.00 81.05 9.17
8204 78.7810 84.00 81.30 9.17
8205 78.7900 89.00 81.65 9.43
8206 78.7990 97.00 82.09 9.85
8207 78.8080 87.00 82.64 9.33
8208 78.8170 80.00 83.29 8.94
8209 78.8260 81.00 84.07 9.00
8210 78.8350 87.00 85.14 9.33
8211 78.8440 85.00 86.22 9.22
8212 78.8530 80.00 87.48 8.94
8213 78.8620 81.00 88.96 9.00
8214 78.8710 92.00 90.70 9.59
8215 78.8800 101.00 92.75 10.05
8216 78.8890 93.00 95.18 9.64
8217 78.8980 98.00 98.10 9.90
8218 78.9070 110.00 101.64 10.49
8219 78.9160 106.00 106.00 10.30
8220 78.9250 107.00 111.43 10.34
8221 78.9340 129.00 118.21 11.36
8222 78.9430 128.00 126.64 11.31
8223 78.9520 143.00 137.04 11.96
8224 78.9610 153.00 149.62 12.37
8225 78.9690 184.00 164.52 13.56
8226 78.9780 191.00 181.72 13.82
8227 78.9870 197.00 201.07 14.04
8228 78.9960 255.00 222.37 15.97
8229 79.0050 294.00 245.25 17.15
8230 79.0140 278.00 268.90 16.67
8231 79.0230 292.00 291.63 17.09
8232 79.0320 329.00 310.71 18.14
8233 79.0410 390.00 322.59 19.75
8234 79.0500 372.00 324.12 19.29
8235 79.0590 337.00 314.18 18.36
8236 79.0680 317.00 294.52 17.80
8237 79.0770 276.00 268.67 16.61
8238 79.0860 262.00 240.34 16.19
8239 79.0950 244.00 212.44 15.62
8240 79.1040 187.00 186.82 13.67
8241 79.1130 146.00 164.56 12.08
8242 79.1220 140.00 146.12 11.83
8243 79.1310 128.00 131.43 11.31
8244 79.1400 115.00 120.19 10.72
8245 79.1490 115.00 111.87 10.72
8246 79.1580 123.00 105.88 11.09
8247 79.1670 109.00 101.68 10.44
8248 79.1760 100.00 98.77 10.00
8249 79.1850 105.00 96.73 10.25
8250 79.1940 93.00 95.25 9.64
8251 79.2030 90.00 94.07 9.49
8252 79.2120 86.00 93.01 9.27
8253 79.2210 85.00 91.95 9.22
8254 79.2300 90.00 90.87 9.49
8255 79.2390 97.00 89.76 9.85
8256 79.2480 93.00 89.30 9.64
8257 79.2570 87.00 88.26 9.33
8258 79.2660 77.00 87.29 8.77
8259 79.2750 84.00 86.43 9.17
8260 79.2840 94.00 85.68 9.70
8261 79.2930 82.00 85.04 9.06
8262 79.3020 77.00 84.50 8.77
8263 79.3110 77.00 84.07 8.77
8264 79.3200 75.00 83.72 8.66
8265 79.3290 81.00 83.46 9.00
8266 79.3380 85.00 83.28 9.22
8267 79.3470 79.00 83.16 8.89
8268 79.3560 77.00 83.09 8.77
8269 79.3650 75.00 83.08 8.66
8270 79.3740 77.00 83.12 8.77
8271 79.3830 74.00 83.21 8.60
8272 79.3920 81.00 83.36 9.00
8273 79.4010 78.00 83.57 8.83
8274 79.4100 88.00 83.87 9.38
8275 79.4190 77.00 84.29 8.77
8276 79.4280 77.00 84.87 8.77
8277 79.4370 94.00 85.69 9.70
8278 79.4460 81.00 86.84 9.00
8279 79.4550 76.00 88.45 8.72
8280 79.4640 86.00 90.69 9.27
8281 79.4730 92.00 93.70 9.59
8282 79.4820 110.00 97.63 10.49
8283 79.4910 113.00 102.46 10.63
8284 79.5000 101.00 108.35 10.05
8285 79.5090 113.00 115.05 10.63
8286 79.5180 115.00 122.18 10.72
8287 79.5270 137.00 129.09 11.70
8288 79.5360 138.00 134.88 11.75
8289 79.5450 133.00 138.45 11.53
8290 79.5540 134.00 138.97 11.58
8291 79.5630 130.00 136.35 11.40
8292 79.5720 130.00 131.28 11.40
8293 79.5810 109.00 124.86 10.44
8294 79.5900 113.00 118.04 10.63
8295 79.5990 108.00 111.54 10.39
8296 79.6080 110.00 105.80 10.49
8297 79.6170 94.00 101.02 9.70
8298 79.6260 97.00 97.26 9.85
8299 79.6350 86.00 94.46 9.27
8300 79.6440 84.00 92.50 9.17
8301 79.6530 85.00 91.22 9.22
8302 79.6620 88.00 90.47 9.38
8303 79.6710 92.00 90.13 9.59
8304 79.6800 86.00 90.10 9.27
8305 79.6890 90.00 90.33 9.49
8306 79.6980 94.00 90.77 9.70
8307 79.7070 89.00 91.42 9.43
8308 79.7160 88.00 92.30 9.38
8309 79.7250 94.00 93.43 9.70
8310 79.7340 92.00 94.84 9.59
8311 79.7430 85.00 96.59 9.22
8312 79.7520 94.00 98.73 9.70
8313 79.7610 108.00 101.31 10.39
8314 79.7700 103.00 104.39 10.15
8315 79.7790 101.00 108.03 10.05
8316 79.7880 114.00 112.30 10.68
8317 79.7970 119.00 117.29 10.91
8318 79.8060 127.00 123.12 11.27
8319 79.8150 142.00 129.95 11.92
8320 79.8240 161.00 137.98 12.69
8321 79.8330 157.00 147.49 12.53
8322 79.8420 162.00 158.93 12.73
8323 79.8510 182.00 172.91 13.49
8324 79.8600 188.00 190.03 13.71
8325 79.8690 195.00 210.99 13.96
8326 79.8780 217.00 236.17 14.73
8327 79.8870 269.00 265.40 16.40
8328 79.8960 265.00 297.93 16.28
8329 79.9050 304.00 331.95 17.44
8330 79.9140 353.00 364.57 18.79
8331 79.9230 389.00 391.84 19.72
8332 79.9320 448.00 409.18 21.17
8333 79.9410 425.00 413.07 20.62
8334 79.9500 399.00 402.53 19.98
8335 79.9590 381.00 379.67 19.52
8336 79.9680 346.00 348.42 18.60
8337 79.9770 310.00 313.04 17.61
8338 79.9860 270.00 277.19 16.43
8339 79.9950 205.00 243.42 14.32
8340 80.0040 202.00 213.38 14.21
8341 80.0130 183.00 187.93 13.53
8342 80.0220 154.00 167.21 12.41
8343 80.0310 140.00 151.03 11.83
8344 80.0400 119.00 138.91 10.91
8345 80.0490 121.00 130.21 11.00
8346 80.0580 124.00 124.32 11.14
8347 80.0670 115.00 120.73 10.72
8348 80.0760 89.00 119.02 9.43
8349 80.0850 95.00 118.95 9.75
8350 80.0940 110.00 120.38 10.49
8351 80.1030 116.00 123.29 10.77
8352 80.1120 123.00 127.68 11.09
8353 80.1210 127.00 133.56 11.27
8354 80.1300 141.00 140.84 11.87
8355 80.1390 156.00 149.25 12.49
8356 80.1480 167.00 158.35 12.92
8357 80.1570 183.00 167.41 13.53
8358 80.1660 196.00 175.48 14.00
8359 80.1750 200.00 181.40 14.14
8360 80.1840 196.00 184.15 14.00
8361 80.1930 198.00 183.40 14.07
8362 80.2010 185.00 179.82 13.60
8363 80.2100 169.00 174.84 13.00
8364 80.2190 169.00 170.08 13.00
8365 80.2280 164.00 166.88 12.81
8366 80.2370 168.00 166.29 12.96
8367 80.2460 180.00 168.99 13.42
8368 80.2550 159.00 175.41 12.61
8369 80.2640 190.00 185.67 13.78
8370 80.2730 195.00 199.59 13.96
8371 80.2820 210.00 216.67 14.49
8372 80.2910 223.00 236.06 14.93
8373 80.3000 268.00 256.48 16.37
8374 80.3090 258.00 276.14 16.06
8375 80.3180 310.00 292.74 17.61
8376 80.3270 320.00 304.13 17.89
8377 80.3360 337.00 308.77 18.36
8378 80.3450 295.00 306.57 17.18
8379 80.3540 269.00 298.63 16.40
8380 80.3630 285.00 286.63 16.88
8381 80.3720 275.00 272.27 16.58
8382 80.3810 277.00 257.31 16.64
8383 80.3900 245.00 243.12 15.65
8384 80.3990 223.00 231.58 14.93
8385 80.4080 217.00 224.21 14.73
8386 80.4170 234.00 222.31 15.30
8387 80.4260 283.00 226.86 16.82
8388 80.4350 259.00 238.55 16.09
8389 80.4440 281.00 257.70 16.76
8390 80.4530 327.00 284.25 18.08
8391 80.4620 348.00 317.46 18.65
8392 80.4710 386.00 355.87 19.65
8393 80.4800 443.00 397.18 21.05
8394 80.4890 460.00 438.86 21.45
8395 80.4980 479.00 477.67 21.89
8396 80.5070 519.00 510.53 22.78
8397 80.5160 584.00 534.11 24.17
8398 80.5250 596.00 545.04 24.41
8399 80.5340 573.00 540.59 23.94
8400 80.5430 538.00 520.33 23.19
8401 80.5520 525.00 486.88 22.91
8402 80.5610 503.00 444.88 22.43
8403 80.5700 428.00 399.34 20.69
8404 80.5790 358.00 354.23 18.92
8405 80.5880 314.00 312.39 17.72
8406 80.5970 274.00 275.58 16.55
8407 80.6060 241.00 244.65 15.52
8408 80.6150 231.00 220.04 15.20
8409 80.6240 219.00 202.01 14.80
8410 80.6330 192.00 189.66 13.86
8411 80.6420 197.00 182.95 14.04
8412 80.6510 205.00 181.45 14.32
8413 80.6600 192.00 184.82 13.86
8414 80.6690 192.00 192.70 13.86
8415 80.6780 197.00 204.78 14.04
8416 80.6870 211.00 220.71 14.53
8417 80.6960 233.00 240.00 15.26
8418 80.7050 254.00 261.94 15.94
8419 80.7140 290.00 285.57 17.03
8420 80.7230 332.00 309.47 18.22
8421 80.7320 336.00 331.73 18.33
8422 80.7410 357.00 350.02 18.89
8423 80.7500 404.00 361.85 20.10
8424 80.7590 393.00 365.32 19.82
8425 80.7680 406.00 359.79 20.15
8426 80.7770 380.00 346.24 19.49
8427 80.7860 355.00 326.81 18.84
8428 80.7950 312.00 304.07 17.66
8429 80.8040 288.00 280.38 16.97
8430 80.8130 265.00 257.52 16.28
8431 80.8220 261.00 236.82 16.16
8432 80.8310 240.00 219.10 15.49
8433 80.8400 228.00 204.73 15.10
8434 80.8490 188.00 193.79 13.71
8435 80.8580 187.00 186.02 13.67
8436 80.8670 180.00 180.92 13.42
8437 80.8760 187.00 177.73 13.67
8438 80.8850 173.00 175.53 13.15
8439 80.8940 178.00 173.30 13.34
8440 80.9030 184.00 170.18 13.56
8441 80.9120 179.00 165.64 13.38
8442 80.9210 170.00 159.76 13.04
8443 80.9300 152.00 152.81 12.33
8444 80.9390 136.00 145.32 11.66
8445 80.9480 147.00 137.81 12.12
8446 80.9570 147.00 130.62 12.12
8447 80.9660 126.00 124.02 11.23
8448 80.9750 108.00 118.15 10.39
8449 80.9840 109.00 113.10 10.44
8450 80.9930 109.00 108.86 10.44
8451 81.0020 92.00 105.38 9.59
8452 81.0110 82.00 102.60 9.06
8453 81.0200 87.00 100.43 9.33
8454 81.0290 96.00 98.77 9.80
8455 81.0380 103.00 97.55 10.15
8456 81.0470 95.00 96.71 9.75
8457 81.0560 80.00 96.21 8.94
8458 81.0650 85.00 96.04 9.22
8459 81.0740 98.00 96.24 9.90
8460 81.0830 83.00 96.86 9.11
8461 81.0920 86.00 98.02 9.27
8462 81.1010 103.00 99.85 10.15
8463 81.1100 94.00 102.52 9.70
8464 81.1190 106.00 106.18 10.30
8465 81.1280 115.00 110.94 10.72
8466 81.1370 115.00 116.85 10.72
8467 81.1460 115.00 123.81 10.72
8468 81.1550 136.00 131.57 11.66
8469 81.1640 143.00 139.59 11.96
8470 81.1730 129.00 147.10 11.36
8471 81.1820 135.00 153.02 11.62
8472 81.1910 161.00 156.27 12.69
8473 81.2000 175.00 156.21 13.23
8474 81.2090 163.00 152.96 12.77
8475 81.2180 153.00 147.30 12.37
8476 81.2270 128.00 140.18 11.31
8477 81.2360 122.00 132.47 11.05
8478 81.2450 108.00 124.87 10.39
8479 81.2540 110.00 117.86 10.49
8480 81.2630 84.00 111.76 9.17
8481 81.2720 91.00 106.66 9.54
8482 81.2810 99.00 102.56 9.95
8483 81.2900 91.00 99.39 9.54
8484 81.2990 87.00 97.02 9.33
8485 81.3080 80.00 95.31 8.94
8486 81.3170 86.00 94.14 9.27
8487 81.3260 81.00 93.40 9.00
8488 81.3350 97.00 93.03 9.85
8489 81.3440 101.00 92.97 10.05
8490 81.3530 90.00 93.22 9.49
8491 81.3620 71.00 93.78 8.43
8492 81.3710 77.00 94.68 8.77
8493 81.3800 93.00 95.98 9.64
8494 81.3890 100.00 97.74 10.00
8495 81.3980 103.00 100.03 10.15
8496 81.4070 102.00 102.92 10.10
8497 81.4160 104.00 106.47 10.20
8498 81.4240 110.00 110.71 10.49
8499 81.4330 106.00 115.66 10.30
8500 81.4420 110.00 121.09 10.49
8501 81.4510 123.00 127.25 11.09
8502 81.4600 114.00 133.71 10.68
8503 81.4690 122.00 140.10 11.05
8504 81.4780 136.00 146.00 11.66
8505 81.4870 150.00 151.04 12.25
8506 81.4960 154.00 155.03 12.41
8507 81.5050 157.00 157.83 12.53
8508 81.5140 146.00 159.27 12.08
8509 81.5230 153.00 159.21 12.37
8510 81.5320 167.00 157.84 12.92
8511 81.5410 155.00 156.04 12.45
8512 81.5500 154.00 155.36 12.41
8513 81.5590 150.00 157.46 12.25
8514 81.5680 169.00 163.95 13.00
8515 81.5770 196.00 176.18 14.00
8516 81.5860 217.00 195.04 14.73
8517 81.5950 260.00 220.68 16.12
8518 81.6040 263.00 252.38 16.22
8519 81.6130 298.00 288.03 17.26
8520 81.6220 351.00 324.02 18.74
8521 81.6310 363.00 355.11 19.05
8522 81.6400 391.00 374.82 19.77
8523 81.6490 376.00 377.94 19.39
8524 81.6580 361.00 363.57 19.00
8525 81.6670 274.00 335.72 16.55
8526 81.6760 237.00 300.71 15.39
8527 81.6850 217.00 264.15 14.73
8528 81.6940 165.00 230.04 12.85
8529 81.7030 165.00 200.65 12.85
8530 81.7120 169.00 177.00 13.00
8531 81.7210 139.00 159.08 11.79
8532 81.7300 134.00 146.16 11.58
8533 81.7390 132.00 137.21 11.49
8534 81.7480 123.00 131.13 11.09
8535 81.7570 114.00 126.87 10.68
8536 81.7660 108.00 123.96 10.39
8537 81.7750 107.00 121.40 10.34
8538 81.7840 109.00 119.17 10.44
8539 81.7930 117.00 117.24 10.82
8540 81.8020 108.00 115.61 10.39
8541 81.8110 96.00 114.42 9.80
8542 81.8200 104.00 113.73 10.20
8543 81.8290 115.00 113.64 10.72
8544 81.8380 118.00 114.26 10.86
8545 81.8470 119.00 115.74 10.91
8546 81.8560 133.00 118.32 11.53
8547 81.8650 145.00 122.37 12.04
8548 81.8740 151.00 128.46 12.29
8549 81.8830 161.00 137.41 12.69
8550 81.8920 170.00 150.29 13.04
8551 81.9010 199.00 168.37 14.11
8552 81.9100 228.00 193.06 15.10
8553 81.9190 252.00 225.54 15.87
8554 81.9280 295.00 266.81 17.18
8555 81.9370 362.00 316.87 19.03
8556 81.9460 422.00 374.52 20.54
8557 81.9550 475.00 436.86 21.79
8558 81.9640 545.00 498.97 23.35
8559 81.9730 606.00 553.33 24.62
8560 81.9820 695.00 590.43 26.36
8561 81.9910 750.00 601.89 27.39
8562 82.0000 702.00 584.64 26.50
8563 82.0090 660.00 543.12 25.69
8564 82.0180 559.00 486.24 23.64
8565 82.0270 467.00 423.28 21.61
8566 82.0360 361.00 361.15 19.00
8567 82.0450 329.00 304.55 18.14
8568 82.0540 274.00 255.86 16.55
8569 82.0630 209.00 215.93 14.46
8570 82.0720 202.00 184.57 14.21
8571 82.0810 135.00 160.83 11.62
8572 82.0900 164.00 143.33 12.81
8573 82.0990 139.00 130.45 11.79
8574 82.1080 122.00 121.39 11.05
8575 82.1170 111.00 114.83 10.54
8576 82.1260 115.00 110.01 10.72
8577 82.1350 114.00 106.35 10.68
8578 82.1440 110.00 103.48 10.49
8579 82.1530 101.00 101.16 10.05
8580 82.1620 94.00 99.23 9.70
8581 82.1710 86.00 97.60 9.27
8582 82.1800 98.00 96.19 9.90
8583 82.1890 90.00 94.98 9.49
8584 82.1980 87.00 93.93 9.33
8585 82.2070 102.00 93.01 10.10
8586 82.2160 99.00 92.20 9.95
8587 82.2250 96.00 91.50 9.80
8588 82.2340 89.00 90.89 9.43
8589 82.2430 78.00 90.37 8.83
8590 82.2520 84.00 89.92 9.17
8591 82.2610 94.00 89.54 9.70
8592 82.2700 92.00 89.23 9.59
8593 82.2790 88.00 88.98 9.38
8594 82.2880 88.00 88.81 9.38
8595 82.2970 78.00 88.70 8.83
8596 82.3060 71.00 88.67 8.43
8597 82.3150 76.00 88.72 8.72
8598 82.3240 73.00 88.85 8.54
8599 82.3330 77.00 89.07 8.77
8600 82.3420 83.00 89.40 9.11
8601 82.3510 82.00 89.85 9.06
8602 82.3600 80.00 90.46 8.94
8603 82.3690 83.00 91.26 9.11
8604 82.3780 88.00 92.29 9.38
8605 82.3870 97.00 93.62 9.85
8606 82.3960 86.00 95.33 9.27
8607 82.4050 92.00 97.49 9.59
8608 82.4140 95.00 100.19 9.75
8609 82.4230 101.00 103.56 10.05
8610 82.4320 105.00 107.60 10.25
8611 82.4410 121.00 112.37 11.00
8612 82.4500 128.00 117.82 11.31
8613 82.4590 118.00 123.83 10.86
8614 82.4680 115.00 130.10 10.72
8615 82.4770 144.00 136.21 12.00
8616 82.4860 158.00 141.52 12.57
8617 82.4950 163.00 145.29 12.77
8618 82.5040 152.00 146.67 12.33
8619 82.5130 157.00 145.66 12.53
8620 82.5220 141.00 142.26 11.87
8621 82.5310 142.00 137.09 11.92
8622 82.5400 139.00 130.88 11.79
8623 82.5490 137.00 124.36 11.70
8624 82.5580 115.00 118.03 10.72
8625 82.5670 106.00 112.20 10.30
8626 82.5760 110.00 107.14 10.49
8627 82.5850 95.00 102.91 9.75
8628 82.5940 85.00 99.55 9.22
8629 82.6030 77.00 97.02 8.77
8630 82.6120 84.00 95.24 9.17
8631 82.6210 96.00 94.15 9.80
8632 82.6300 92.00 93.63 9.59
8633 82.6380 86.00 93.62 9.27
8634 82.6470 98.00 94.02 9.90
8635 82.6560 98.00 94.78 9.90
8636 82.6650 91.00 95.82 9.54
8637 82.6740 92.00 97.06 9.59
8638 82.6830 93.00 98.43 9.64
8639 82.6920 93.00 99.82 9.64
8640 82.7010 97.00 101.11 9.85
8641 82.7100 101.00 102.17 10.05
8642 82.7190 106.00 102.86 10.30
8643 82.7280 104.00 103.07 10.20
8644 82.7370 86.00 102.75 9.27
8645 82.7460 103.00 101.96 10.15
8646 82.7550 106.00 100.79 10.30
8647 82.7640 86.00 99.38 9.27
8648 82.7730 101.00 97.89 10.05
8649 82.7820 98.00 96.39 9.90
8650 82.7910 99.00 94.97 9.95
8651 82.8000 85.00 93.68 9.22
8652 82.8090 94.00 92.57 9.70
8653 82.8180 94.00 91.66 9.70
8654 82.8270 77.00 90.95 8.77
8655 82.8360 77.00 90.44 8.77
8656 82.8450 102.00 90.13 10.10
8657 82.8540 95.00 90.01 9.75
8658 82.8630 64.00 90.07 8.00
8659 82.8720 73.00 90.32 8.54
8660 82.8810 102.00 90.78 10.10
8661 82.8900 99.00 91.47 9.95
8662 82.8990 104.00 92.45 10.20
8663 82.9080 83.00 93.80 9.11
8664 82.9170 72.00 95.47 8.49
8665 82.9260 90.00 97.87 9.49
8666 82.9350 91.00 100.97 9.54
8667 82.9440 95.00 104.86 9.75
8668 82.9530 118.00 109.87 10.86
8669 82.9620 98.00 115.45 9.90
8670 82.9710 121.00 121.75 11.00
8671 82.9800 133.00 128.53 11.53
8672 82.9890 130.00 135.39 11.40
8673 82.9980 133.00 141.78 11.53
8674 83.0070 165.00 147.15 12.85
8675 83.0160 172.00 151.24 13.11
8676 83.0250 170.00 154.44 13.04
8677 83.0340 175.00 157.88 13.23
8678 83.0430 167.00 163.03 12.92
8679 83.0520 179.00 171.41 13.38
8680 83.0610 187.00 184.30 13.67
8681 83.0700 215.00 202.64 14.66
8682 83.0790 242.00 226.53 15.56
8683 83.0880 270.00 255.57 16.43
8684 83.0970 295.00 288.29 17.18
8685 83.1060 348.00 321.95 18.65
8686 83.1150 390.00 352.47 19.75
8687 83.1240 401.00 374.52 20.02
8688 83.1330 418.00 383.06 20.44
8689 83.1420 391.00 375.83 19.77
8690 83.1510 349.00 354.77 18.68
8691 83.1600 324.00 324.68 18.00
8692 83.1690 272.00 290.88 16.49
8693 83.1780 245.00 257.72 15.65
8694 83.1870 225.00 227.90 15.00
8695 83.1960 191.00 203.18 13.82
8696 83.2050 168.00 184.31 12.96
8697 83.2140 143.00 171.27 11.96
8698 83.2230 145.00 163.66 12.04
8699 83.2320 132.00 160.75 11.49
8700 83.2410 142.00 161.66 11.92
8701 83.2500 147.00 165.46 12.12
8702 83.2590 170.00 171.22 13.04
8703 83.2680 172.00 177.92 13.11
8704 83.2770 189.00 184.53 13.75
8705 83.2860 177.00 189.96 13.30
8706 83.2950 204.00 193.19 14.28
8707 83.3040 174.00 193.54 13.19
8708 83.3130 193.00 190.88 13.89
8709 83.3220 167.00 185.70 12.92
8710 83.3310 195.00 178.70 13.96
8711 83.3400 188.00 170.74 13.71
8712 83.3490 175.00 162.43 13.23
8713 83.3580 161.00 153.87 12.69
8714 83.3670 133.00 145.82 11.53
8715 83.3760 118.00 138.01 10.86
8716 83.3850 120.00 130.56 10.95
8717 83.3940 107.00 123.58 10.34
8718 83.4030 104.00 117.27 10.20
8719 83.4120 96.00 111.74 9.80
8720 83.4210 100.00 107.03 10.00
8721 83.4300 90.00 103.11 9.49
8722 83.4390 92.00 99.95 9.59
8723 83.4480 87.00 97.43 9.33
8724 83.4570 88.00 95.48 9.38
8725 83.4660 89.00 94.00 9.43
8726 83.4750 85.00 92.91 9.22
8727 83.4840 94.00 92.14 9.70
8728 83.4930 92.00 91.66 9.59
8729 83.5020 83.00 91.42 9.11
8730 83.5110 82.00 91.41 9.06
8731 83.5200 92.00 91.65 9.59
8732 83.5290 87.00 92.12 9.33
8733 83.5380 84.00 92.87 9.17
8734 83.5470 84.00 93.91 9.17
8735 83.5560 79.00 95.27 8.89
8736 83.5650 89.00 96.96 9.43
8737 83.5740 98.00 98.99 9.90
8738 83.5830 94.00 101.35 9.70
8739 83.5920 85.00 104.01 9.22
8740 83.6010 90.00 106.92 9.49
8741 83.6100 92.00 110.04 9.59
8742 83.6190 86.00 113.26 9.27
8743 83.6280 104.00 116.47 10.20
8744 83.6370 133.00 119.48 11.53
8745 83.6460 113.00 122.04 10.63
8746 83.6550 109.00 123.88 10.44
8747 83.6640 105.00 124.73 10.25
8748 83.6730 107.00 124.44 10.34
8749 83.6820 108.00 123.04 10.39
8750 83.6910 107.00 120.67 10.34
8751 83.7000 119.00 117.63 10.91
8752 83.7090 122.00 114.18 11.05
8753 83.7180 108.00 110.60 10.39
8754 83.7270 90.00 107.08 9.49
8755 83.7360 81.00 103.76 9.00
8756 83.7450 90.00 100.75 9.49
8757 83.7540 91.00 98.09 9.54
8758 83.7630 93.00 95.82 9.64
8759 83.7720 87.00 93.94 9.33
8760 83.7810 81.00 92.45 9.00
8761 83.7900 72.00 91.32 8.49
8762 83.7990 95.00 90.52 9.75
8763 83.8080 89.00 90.04 9.43
8764 83.8170 81.00 89.86 9.00
8765 83.8260 85.00 89.94 9.22
8766 83.8340 82.00 90.29 9.06
8767 83.8430 78.00 90.88 8.83
8768 83.8520 84.00 91.69 9.17
8769 83.8610 79.00 92.71 8.89
8770 83.8700 69.00 93.90 8.31
8771 83.8790 83.00 95.22 9.11
8772 83.8880 84.00 96.61 9.17
8773 83.8970 87.00 97.96 9.33
8774 83.9060 77.00 99.17 8.77
8775 83.9150 82.00 100.11 9.06
8776 83.9240 97.00 100.67 9.85
8777 83.9330 110.00 100.77 10.49
8778 83.9420 104.00 100.43 10.20
8779 83.9510 90.00 99.72 9.49
8780 83.9600 95.00 98.79 9.75
8781 83.9690 97.00 97.77 9.85
8782 83.9780 92.00 96.72 9.59
8783 83.9870 84.00 95.74 9.17
8784 83.9960 81.00 94.87 9.00
8785 84.0050 87.00 94.13 9.33
8786 84.0140 86.00 93.50 9.27
8787 84.0230 85.00 93.01 9.22
8788 84.0320 84.00 92.63 9.17
8789 84.0410 91.00 92.40 9.54
8790 84.0500 90.00 92.34 9.49
8791 84.0590 90.00 92.48 9.49
8792 84.0680 83.00 92.86 9.11
8793 84.0770 77.00 93.52 8.77
8794 84.0860 79.00 94.53 8.89
8795 84.0950 93.00 95.84 9.64
8796 84.1040 84.00 97.61 9.17
8797 84.1130 91.00 99.84 9.54
8798 84.1220 95.00 102.57 9.75
8799 84.1310 101.00 105.80 10.05
8800 84.1400 95.00 109.53 9.75
8801 84.1490 102.00 113.71 10.10
8802 84.1580 104.00 118.23 10.20
8803 84.1670 109.00 122.96 10.44
8804 84.1760 99.00 127.65 9.95
8805 84.1850 123.00 132.02 11.09
8806 84.1940 114.00 135.68 10.68
8807 84.2030 113.00 138.27 10.63
8808 84.2120 147.00 139.54 12.12
8809 84.2210 143.00 139.44 11.96
8810 84.2300 130.00 138.17 11.40
8811 84.2390 112.00 136.09 10.58
8812 84.2480 115.00 133.64 10.72
8813 84.2570 114.00 131.21 10.68
8814 84.2660 115.00 129.37 10.72
8815 84.2750 105.00 128.07 10.25
8816 84.2840 135.00 127.82 11.62
8817 84.2930 132.00 129.01 11.49
8818 84.3020 142.00 132.10 11.92
8819 84.3110 146.00 137.65 12.08
8820 84.3200 153.00 146.36 12.37
8821 84.3290 188.00 159.01 13.71
8822 84.3380 201.00 176.44 14.18
8823 84.3470 211.00 199.41 14.53
8824 84.3560 232.00 228.43 15.23
8825 84.3650 261.00 263.64 16.16
8826 84.3740 308.00 304.49 17.55
8827 84.3830 366.00 349.54 19.13
8828 84.3920 427.00 396.29 20.66
8829 84.4010 482.00 440.69 21.95
8830 84.4100 531.00 477.21 23.04
8831 84.4190 555.00 499.73 23.56
8832 84.4280 518.00 503.69 22.76
8833 84.4370 466.00 487.98 21.59
8834 84.4460 435.00 456.28 20.86
8835 84.4550 398.00 414.59 19.95
8836 84.4640 355.00 368.76 18.84
8837 84.4730 295.00 323.41 17.18
8838 84.4820 274.00 281.64 16.55
8839 84.4910 212.00 245.22 14.56
8840 84.5000 175.00 215.05 13.23
8841 84.5090 186.00 191.18 13.64
8842 84.5180 178.00 173.63 13.34
8843 84.5270 163.00 161.73 12.77
8844 84.5360 162.00 154.89 12.73
8845 84.5450 168.00 152.52 12.96
8846 84.5540 132.00 154.16 11.49
8847 84.5630 161.00 159.41 12.69
8848 84.5720 171.00 167.96 13.08
8849 84.5810 180.00 179.46 13.42
8850 84.5900 191.00 193.40 13.82
8851 84.5990 235.00 209.13 15.33
8852 84.6080 280.00 225.56 16.73
8853 84.6170 267.00 241.31 16.34
8854 84.6260 265.00 254.39 16.28
8855 84.6350 267.00 262.69 16.34
8856 84.6440 319.00 264.51 17.86
8857 84.6530 271.00 259.34 16.46
8858 84.6620 229.00 248.12 15.13
8859 84.6710 235.00 232.76 15.33
8860 84.6800 191.00 215.37 13.82
8861 84.6890 187.00 197.74 13.67
8862 84.6980 173.00 181.10 13.15
8863 84.7070 153.00 166.30 12.37
8864 84.7160 141.00 153.80 11.87
8865 84.7250 124.00 143.74 11.14
8866 84.7340 116.00 136.09 10.77
8867 84.7430 102.00 130.64 10.10
8868 84.7520 105.00 127.05 10.25
8869 84.7610 122.00 124.93 11.05
8870 84.7700 122.00 123.83 11.05
8871 84.7790 117.00 123.34 10.82
8872 84.7880 110.00 123.12 10.49
8873 84.7970 108.00 122.97 10.39
8874 84.8060 120.00 122.88 10.95
8875 84.8150 115.00 122.91 10.72
8876 84.8240 110.00 123.17 10.49
8877 84.8330 116.00 123.70 10.77
8878 84.8420 111.00 124.53 10.54
8879 84.8510 109.00 125.57 10.44
8880 84.8600 103.00 126.72 10.15
8881 84.8690 111.00 127.95 10.54
8882 84.8780 126.00 129.10 11.23
8883 84.8870 123.00 130.17 11.09
8884 84.8960 114.00 131.07 10.68
8885 84.9050 112.00 131.66 10.58
8886 84.9140 127.00 131.70 11.27
8887 84.9230 116.00 130.91 10.77
8888 84.9320 113.00 129.13 10.63
8889 84.9410 111.00 126.38 10.54
8890 84.9500 124.00 122.86 11.14
8891 84.9590 118.00 118.92 10.86
8892 84.9680 98.00 114.85 9.90
8893 84.9770 94.00 110.92 9.70
8894 84.9860 94.00 107.29 9.70
8895 84.9950 101.00 104.08 10.05
8896 85.0040 92.00 101.33 9.59
8897 85.0120 85.00 99.07 9.22
8898 85.0210 98.00 97.28 9.90
8899 85.0300 78.00 95.87 8.83
8900 85.0390 88.00 94.92 9.38
8901 85.0480 104.00 94.34 10.20
8902 85.0570 82.00 94.09 9.06
8903 85.0660 90.00 94.18 9.49
8904 85.0750 94.00 94.59 9.70
8905 85.0840 92.00 95.35 9.59
8906 85.0930 83.00 96.48 9.11
8907 85.1020 77.00 98.05 8.77
8908 85.1110 79.00 100.11 8.89
8909 85.1200 75.00 102.71 8.66
8910 85.1290 102.00 105.92 10.10
8911 85.1380 102.00 109.77 10.10
8912 85.1470 108.00 114.28 10.39
8913 85.1560 113.00 119.44 10.63
8914 85.1650 116.00 125.17 10.77
8915 85.1740 126.00 131.34 11.23
8916 85.1830 126.00 137.76 11.23
8917 85.1920 132.00 144.15 11.49
8918 85.2010 148.00 150.07 12.17
8919 85.2100 141.00 155.08 11.87
8920 85.2190 131.00 158.64 11.45
8921 85.2280 149.00 160.34 12.21
8922 85.2370 162.00 159.97 12.73
8923 85.2460 154.00 157.61 12.41
8924 85.2550 156.00 153.61 12.49
8925 85.2640 153.00 148.49 12.37
8926 85.2730 130.00 142.78 11.40
8927 85.2820 123.00 136.91 11.09
8928 85.2910 127.00 131.27 11.27
8929 85.3000 125.00 126.14 11.18
8930 85.3090 120.00 121.73 10.95
8931 85.3180 99.00 118.40 9.95
8932 85.3270 110.00 115.91 10.49
8933 85.3360 137.00 114.55 11.70
8934 85.3450 105.00 114.39 10.25
8935 85.3540 108.00 115.47 10.39
8936 85.3630 104.00 117.76 10.20
8937 85.3720 113.00 121.19 10.63
8938 85.3810 122.00 125.63 11.05
8939 85.3900 112.00 130.83 10.58
8940 85.3990 124.00 136.44 11.14
8941 85.4080 138.00 141.96 11.75
8942 85.4170 146.00 146.82 12.08
8943 85.4260 153.00 150.55 12.37
8944 85.4350 162.00 153.08 12.73
8945 85.4440 199.00 154.85 14.11
8946 85.4530 170.00 156.59 13.04
8947 85.4620 161.00 159.07 12.69
8948 85.4710 181.00 162.86 13.45
8949 85.4800 169.00 168.25 13.00
8950 85.4890 194.00 175.27 13.93
8951 85.4980 183.00 183.65 13.53
8952 85.5070 167.00 192.94 12.92
8953 85.5160 196.00 202.74 14.00
8954 85.5250 231.00 213.05 15.20
8955 85.5340 235.00 224.41 15.33
8956 85.5430 231.00 237.61 15.20
8957 85.5520 240.00 253.09 15.49
8958 85.5610 251.00 270.61 15.84
8959 85.5700 263.00 289.04 16.22
8960 85.5790 306.00 306.20 17.49
8961 85.5880 339.00 319.23 18.41
8962 85.5970 341.00 325.43 18.47
8963 85.6060 326.00 323.47 18.06
8964 85.6150 328.00 314.17 18.11
8965 85.6240 304.00 299.54 17.44
8966 85.6330 300.00 281.75 17.32
8967 85.6420 282.00 262.45 16.79
8968 85.6510 248.00 242.99 15.75
8969 85.6600 219.00 224.56 14.80
8970 85.6690 201.00 208.26 14.18
8971 85.6780 195.00 195.08 13.96
8972 85.6870 182.00 185.73 13.49
8973 85.6960 171.00 180.59 13.08
8974 85.7050 173.00 179.73 13.15
8975 85.7140 173.00 182.88 13.15
8976 85.7230 166.00 189.60 12.88
8977 85.7320 179.00 198.24 13.38
8978 85.7410 191.00 207.39 13.82
8979 85.7500 212.00 214.84 14.56
8980 85.7590 243.00 218.21 15.59
8981 85.7680 227.00 215.91 15.07
8982 85.7770 205.00 207.97 14.32
8983 85.7860 193.00 195.95 13.89
8984 85.7950 196.00 181.90 14.00
8985 85.8040 175.00 167.58 13.23
8986 85.8130 165.00 154.20 12.85
8987 85.8220 124.00 142.39 11.14
8988 85.8310 136.00 132.38 11.66
8989 85.8400 115.00 124.12 10.72
8990 85.8490 100.00 117.41 10.00
8991 85.8580 94.00 112.02 9.70
8992 85.8670 106.00 107.70 10.30
8993 85.8760 90.00 104.23 9.49
8994 85.8850 99.00 101.43 9.95
8995 85.8940 99.00 99.14 9.95
8996 85.9030 91.00 97.26 9.54
8997 85.9120 93.00 95.46 9.64
8998 85.9210 71.00 94.20 8.43
8999 85.9300 86.00 93.16 9.27
9000 85.9390 79.00 92.33 8.89
9001 85.9480 91.00 91.67 9.54
9002 85.9570 88.00 91.15 9.38
9003 85.9660 83.00 90.75 9.11
9004 85.9750 72.00 90.45 8.49
9005 85.9840 80.00 90.24 8.94
9006 85.9930 83.00 90.11 9.11
9007 86.0020 85.00 90.04 9.22
9008 86.0110 78.00 90.03 8.83
9009 86.0200 86.00 90.05 9.27
9010 86.0290 92.00 90.20 9.59
9011 86.0380 87.00 90.36 9.33
9012 86.0470 88.00 90.58 9.38
9013 86.0560 88.00 90.87 9.38
9014 86.0650 89.00 91.23 9.43
9015 86.0740 92.00 91.68 9.59
9016 86.0830 90.00 92.23 9.49
9017 86.0920 86.00 92.91 9.27
9018 86.1010 72.00 93.75 8.49
9019 86.1100 69.00 94.81 8.31
9020 86.1190 83.00 96.14 9.11
9021 86.1280 90.00 97.83 9.49
9022 86.1370 100.00 99.97 10.00
9023 86.1460 102.00 102.69 10.10
9024 86.1550 102.00 106.11 10.10
9025 86.1640 101.00 110.39 10.05
9026 86.1720 96.00 115.67 9.80
9027 86.1810 105.00 122.10 10.25
9028 86.1900 119.00 129.77 10.91
9029 86.1990 119.00 138.76 10.91
9030 86.2080 136.00 149.06 11.66
9031 86.2170 153.00 160.57 12.37
9032 86.2260 151.00 173.01 12.29
9033 86.2350 156.00 186.20 12.49
9034 86.2440 166.00 199.53 12.88
9035 86.2530 176.00 212.27 13.27
9036 86.2620 209.00 223.49 14.46
9037 86.2710 213.00 232.12 14.59
9038 86.2800 229.00 237.18 15.13
9039 86.2890 221.00 238.04 14.87
9040 86.2980 220.00 234.65 14.83
9041 86.3070 209.00 227.56 14.46
9042 86.3160 217.00 217.73 14.73
9043 86.3250 194.00 206.29 13.93
9044 86.3340 188.00 194.22 13.71
9045 86.3430 161.00 182.35 12.69
9046 86.3520 152.00 171.37 12.33
9047 86.3610 161.00 161.58 12.69
9048 86.3700 159.00 153.33 12.61
9049 86.3790 139.00 146.79 11.79
9050 86.3880 121.00 142.02 11.00
9051 86.3970 147.00 139.00 12.12
9052 86.4060 154.00 137.61 12.41
9053 86.4150 144.00 137.68 12.00
9054 86.4240 137.00 138.96 11.70
9055 86.4330 153.00 141.22 12.37
9056 86.4420 174.00 144.16 13.19
9057 86.4510 164.00 147.45 12.81
9058 86.4600 163.00 150.69 12.77
9059 86.4690 167.00 153.38 12.92
9060 86.4780 180.00 155.03 13.42
9061 86.4870 186.00 155.32 13.64
9062 86.4960 174.00 154.19 13.19
9063 86.5050 174.00 151.96 13.19
9064 86.5140 167.00 149.12 12.92
9065 86.5230 154.00 146.16 12.41
9066 86.5320 137.00 143.51 11.70
9067 86.5410 123.00 141.45 11.09
9068 86.5500 138.00 140.14 11.75
9069 86.5590 140.00 139.58 11.83
9070 86.5680 131.00 139.75 11.45
9071 86.5770 143.00 140.52 11.96
9072 86.5860 140.00 141.78 11.83
9073 86.5950 135.00 143.42 11.62
9074 86.6040 141.00 145.44 11.87
9075 86.6130 140.00 148.08 11.83
9076 86.6220 149.00 151.68 12.21
9077 86.6310 138.00 156.74 11.75
9078 86.6400 132.00 163.84 11.49
9079 86.6490 157.00 173.54 12.53
9080 86.6580 160.00 186.32 12.65
9081 86.6670 185.00 202.57 13.60
9082 86.6760 192.00 222.43 13.86
9083 86.6850 237.00 245.90 15.39
9084 86.6940 258.00 272.59 16.06
9085 86.7030 262.00 301.44 16.19
9086 86.7120 291.00 330.52 17.06
9087 86.7210 291.00 356.71 17.06
9088 86.7300 364.00 375.84 19.08
9089 86.7390 342.00 384.02 18.49
9090 86.7480 306.00 379.26 17.49
9091 86.7570 282.00 362.77 16.79
9092 86.7660 266.00 338.11 16.31
9093 86.7750 228.00 309.44 15.10
9094 86.7840 209.00 280.12 14.46
9095 86.7930 180.00 252.23 13.42
9096 86.8020 179.00 226.85 13.38
9097 86.8110 173.00 204.36 13.15
9098 86.8200 159.00 184.71 12.61
9099 86.8290 136.00 167.83 11.66
9100 86.8380 127.00 153.63 11.27
9101 86.8470 133.00 141.90 11.53
9102 86.8560 133.00 132.40 11.53
9103 86.8650 117.00 124.81 10.82
9104 86.8740 113.00 118.83 10.63
9105 86.8830 113.00 114.18 10.63
9106 86.8920 92.00 110.61 9.59
9107 86.9010 85.00 107.98 9.22
9108 86.9100 96.00 106.12 9.80
9109 86.9190 98.00 104.99 9.90
9110 86.9280 109.00 104.37 10.44
9111 86.9370 114.00 104.25 10.68
9112 86.9460 104.00 104.78 10.20
9113 86.9550 102.00 105.96 10.10
9114 86.9640 97.00 108.01 9.85
9115 86.9730 100.00 111.08 10.00
9116 86.9820 120.00 115.45 10.95
9117 86.9910 120.00 121.37 10.95
9118 87.0000 106.00 129.11 10.30
9119 87.0090 117.00 138.86 10.82
9120 87.0180 153.00 150.69 12.37
9121 87.0270 149.00 164.48 12.21
9122 87.0360 172.00 179.81 13.11
9123 87.0450 196.00 195.89 14.00
9124 87.0540 207.00 211.38 14.39
9125 87.0630 201.00 224.52 14.18
9126 87.0720 205.00 233.64 14.32
9127 87.0810 241.00 237.63 15.52
9128 87.0900 216.00 236.76 14.70
9129 87.0990 213.00 231.96 14.59
9130 87.1080 237.00 224.38 15.39
9131 87.1170 214.00 214.58 14.63
9132 87.1260 224.00 202.94 14.97
9133 87.1350 174.00 190.00 13.19
9134 87.1440 158.00 176.62 12.57
9135 87.1530 169.00 163.64 13.00
9136 87.1620 136.00 151.90 11.66
9137 87.1710 141.00 141.76 11.87
9138 87.1800 131.00 133.37 11.45
9139 87.1890 132.00 126.83 11.49
9140 87.1980 134.00 122.01 11.58
9141 87.2070 118.00 118.94 10.86
9142 87.2160 119.00 117.22 10.91
9143 87.2250 116.00 116.91 10.77
9144 87.2340 113.00 117.97 10.63
9145 87.2430 116.00 120.43 10.77
9146 87.2520 118.00 124.39 10.86
9147 87.2610 125.00 130.00 11.18
9148 87.2700 123.00 137.47 11.09
9149 87.2790 129.00 147.05 11.36
9150 87.2880 144.00 158.96 12.00
9151 87.2970 162.00 173.37 12.73
9152 87.3060 170.00 190.36 13.04
9153 87.3140 184.00 209.80 13.56
9154 87.3230 202.00 231.38 14.21
9155 87.3320 241.00 254.43 15.52
9156 87.3410 266.00 277.92 16.31
9157 87.3500 290.00 300.56 17.03
9158 87.3590 321.00 320.69 17.92
9159 87.3680 323.00 336.72 17.97
9160 87.3770 321.00 347.03 17.92
9161 87.3860 332.00 350.33 18.22
9162 87.3950 326.00 346.12 18.06
9163 87.4040 314.00 334.91 17.72
9164 87.4130 306.00 318.14 17.49
9165 87.4220 291.00 297.74 17.06
9166 87.4310 262.00 275.59 16.19
9167 87.4400 229.00 253.28 15.13
9168 87.4490 225.00 232.08 15.00
9169 87.4580 205.00 212.82 14.32
9170 87.4670 197.00 196.17 14.04
9171 87.4760 175.00 182.54 13.23
9172 87.4850 171.00 172.12 13.08
9173 87.4940 156.00 164.95 12.49
9174 87.5030 172.00 160.88 13.11
9175 87.5120 169.00 159.65 13.00
9176 87.5210 173.00 160.83 13.15
9177 87.5300 166.00 163.88 12.88
9178 87.5390 145.00 168.05 12.04
9179 87.5480 165.00 172.40 12.85
9180 87.5570 163.00 175.82 12.77
9181 87.5660 180.00 177.18 13.42
9182 87.5750 178.00 175.68 13.34
9183 87.5840 181.00 171.21 13.45
9184 87.5930 176.00 164.34 13.27
9185 87.6020 138.00 156.01 11.75
9186 87.6110 129.00 147.15 11.36
9187 87.6200 115.00 138.49 10.72
9188 87.6290 123.00 130.56 11.09
9189 87.6380 128.00 123.65 11.31
9190 87.6470 121.00 117.96 11.00
9191 87.6560 110.00 113.58 10.49
9192 87.6650 111.00 110.55 10.54
9193 87.6740 96.00 108.89 9.80
9194 87.6830 100.00 108.65 10.00
9195 87.6920 106.00 109.89 10.30
9196 87.7010 115.00 112.71 10.72
9197 87.7100 119.00 117.22 10.91
9198 87.7190 114.00 123.49 10.68
9199 87.7280 120.00 131.48 10.95
9200 87.7370 126.00 141.05 11.23
9201 87.7460 148.00 151.80 12.17
9202 87.7550 178.00 163.02 13.34
9203 87.7640 190.00 173.67 13.78
9204 87.7730 190.00 182.29 13.78
9205 87.7820 210.00 187.27 14.49
9206 87.7910 198.00 187.45 14.07
9207 87.8000 166.00 182.73 12.88
9208 87.8090 168.00 174.10 12.96
9209 87.8180 149.00 163.16 12.21
9210 87.8270 134.00 151.38 11.58
9211 87.8360 141.00 139.89 11.87
9212 87.8450 118.00 129.41 10.86
9213 87.8540 101.00 120.35 10.05
9214 87.8630 103.00 112.85 10.15
9215 87.8720 108.00 106.90 10.39
9216 87.8810 100.00 102.35 10.00
9217 87.8900 98.00 98.98 9.90
9218 87.8990 99.00 96.59 9.95
9219 87.9080 99.00 94.96 9.95
9220 87.9170 96.00 93.93 9.80
9221 87.9260 78.00 93.42 8.83
9222 87.9350 96.00 93.35 9.80
9223 87.9440 91.00 93.75 9.54
9224 87.9530 80.00 94.65 8.94
9225 87.9620 83.00 96.11 9.11
9226 87.9710 94.00 98.22 9.70
9227 87.9800 98.00 101.06 9.90
9228 87.9890 105.00 104.66 10.25
9229 87.9980 77.00 109.01 8.77
9230 88.0070 89.00 114.03 9.43
9231 88.0160 94.00 119.49 9.70
9232 88.0250 113.00 125.08 10.63
9233 88.0340 121.00 130.23 11.00
9234 88.0430 132.00 134.31 11.49
9235 88.0520 143.00 136.57 11.96
9236 88.0610 121.00 136.62 11.00
9237 88.0700 130.00 134.35 11.40
9238 88.0790 118.00 130.31 10.86
9239 88.0880 119.00 125.24 10.91
9240 88.0970 120.00 119.80 10.95
9241 88.1060 105.00 114.54 10.25
9242 88.1150 99.00 109.82 9.95
9243 88.1240 98.00 105.85 9.90
9244 88.1330 95.00 102.75 9.75
9245 88.1420 102.00 100.56 10.10
9246 88.1510 99.00 99.25 9.95
9247 88.1600 98.00 98.72 9.90
9248 88.1690 93.00 98.84 9.64
9249 88.1780 94.00 99.77 9.70
9250 88.1870 98.00 101.25 9.90
9251 88.1960 99.00 103.18 9.95
9252 88.2050 98.00 105.35 9.90
9253 88.2140 97.00 107.80 9.85
9254 88.2230 104.00 110.31 10.20
9255 88.2320 113.00 112.71 10.63
9256 88.2410 107.00 114.89 10.34
9257 88.2500 103.00 116.80 10.15
9258 88.2590 122.00 118.44 11.05
9259 88.2680 124.00 119.94 11.14
9260 88.2770 121.00 121.52 11.00
9261 88.2860 136.00 123.56 11.66
9262 88.2950 123.00 126.45 11.09
9263 88.3040 133.00 130.59 11.53
9264 88.3130 135.00 136.27 11.62
9265 88.3220 136.00 143.67 11.66
9266 88.3310 146.00 152.71 12.08
9267 88.3400 180.00 163.09 13.42
9268 88.3490 171.00 174.17 13.08
9269 88.3580 181.00 184.92 13.45
9270 88.3670 197.00 193.91 14.04
9271 88.3760 190.00 199.64 13.78
9272 88.3850 218.00 201.03 14.76
9273 88.3940 201.00 198.07 14.18
9274 88.4030 188.00 191.70 13.71
9275 88.4120 161.00 183.30 12.69
9276 88.4210 157.00 174.23 12.53
9277 88.4300 164.00 165.24 12.81
9278 88.4390 151.00 157.04 12.29
9279 88.4480 162.00 150.17 12.73
9280 88.4570 147.00 145.05 12.12
9281 88.4650 142.00 142.02 11.92
9282 88.4740 127.00 141.30 11.27
9283 88.4830 123.00 142.97 11.09
9284 88.4920 124.00 146.88 11.14
9285 88.5010 162.00 152.74 12.73
9286 88.5100 170.00 159.99 13.04
9287 88.5190 182.00 167.75 13.49
9288 88.5280 194.00 174.94 13.93
9289 88.5370 184.00 180.09 13.56
9290 88.5460 183.00 181.87 13.53
9291 88.5550 209.00 179.50 14.46
9292 88.5640 181.00 173.36 13.45
9293 88.5730 149.00 164.50 12.21
9294 88.5820 145.00 154.16 12.04
9295 88.5910 136.00 143.51 11.66
9296 88.6000 128.00 133.33 11.31
9297 88.6090 122.00 124.16 11.05
9298 88.6180 107.00 116.26 10.34
9299 88.6270 95.00 109.70 9.75
9300 88.6360 91.00 104.44 9.54
9301 88.6450 89.00 100.34 9.43
9302 88.6540 89.00 97.23 9.43
9303 88.6630 97.00 94.93 9.85
9304 88.6720 94.00 93.24 9.70
9305 88.6810 79.00 92.02 8.89
9306 88.6900 83.00 91.16 9.11
9307 88.6990 87.00 90.56 9.33
9308 88.7080 81.00 90.15 9.00
9309 88.7170 73.00 89.91 8.54
9310 88.7260 71.00 89.80 8.43
9311 88.7350 77.00 89.81 8.77
9312 88.7440 75.00 89.93 8.66
9313 88.7530 81.00 90.16 9.00
9314 88.7620 81.00 90.50 9.00
9315 88.7710 81.00 90.97 9.00
9316 88.7800 85.00 91.58 9.22
9317 88.7890 96.00 92.36 9.80
9318 88.7980 89.00 93.35 9.43
9319 88.8070 91.00 94.63 9.54
9320 88.8160 100.00 96.27 10.00
9321 88.8250 89.00 98.38 9.43
9322 88.8340 78.00 101.14 8.83
9323 88.8430 99.00 104.71 9.95
9324 88.8520 114.00 109.31 10.68
9325 88.8610 127.00 115.32 11.27
9326 88.8700 135.00 122.77 11.62
9327 88.8790 121.00 132.00 11.00
9328 88.8880 119.00 143.25 10.91
9329 88.8970 159.00 156.62 12.61
9330 88.9060 156.00 172.10 12.49
9331 88.9150 181.00 189.55 13.45
9332 88.9240 176.00 208.57 13.27
9333 88.9330 204.00 228.53 14.28
9334 88.9420 238.00 248.40 15.43
9335 88.9510 267.00 266.76 16.34
9336 88.9600 278.00 281.89 16.67
9337 88.9690 286.00 291.93 16.91
9338 88.9780 301.00 295.45 17.35
9339 88.9870 305.00 291.96 17.46
9340 88.9960 295.00 282.16 17.18
9341 89.0050 290.00 267.62 17.03
9342 89.0140 264.00 250.18 16.25
9343 89.0230 237.00 231.57 15.39
9344 89.0320 211.00 213.11 14.53
9345 89.0410 195.00 195.69 13.96
9346 89.0500 186.00 179.87 13.64
9347 89.0590 178.00 165.94 13.34
9348 89.0680 157.00 153.92 12.53
9349 89.0770 143.00 143.59 11.96
9350 89.0860 148.00 134.95 12.17
9351 89.0950 135.00 127.63 11.62
9352 89.1040 123.00 121.41 11.09
9353 89.1130 123.00 116.08 11.09
9354 89.1220 116.00 111.46 10.77
9355 89.1310 114.00 107.52 10.68
9356 89.1400 114.00 104.11 10.68
9357 89.1490 105.00 101.17 10.25
9358 89.1580 106.00 98.57 10.30
9359 89.1670 98.00 96.44 9.90
9360 89.1760 92.00 94.54 9.59
9361 89.1850 103.00 92.91 10.15
9362 89.1940 92.00 91.53 9.59
9363 89.2030 89.00 90.36 9.43
9364 89.2120 86.00 89.39 9.27
9365 89.2210 81.00 88.58 9.00
9366 89.2300 75.00 87.93 8.66
9367 89.2390 78.00 87.35 8.83
9368 89.2480 85.00 86.95 9.22
9369 89.2570 79.00 86.65 8.89
9370 89.2660 85.00 86.46 9.22
9371 89.2750 81.00 86.36 9.00
9372 89.2840 87.00 86.35 9.33
9373 89.2930 71.00 86.45 8.43
9374 89.3020 111.00 86.68 10.54
9375 89.3110 110.00 87.07 10.49
9376 89.3200 95.00 87.69 9.75
9377 89.3290 86.00 88.62 9.27
9378 89.3380 78.00 90.01 8.83
9379 89.3470 72.00 92.04 8.49
9380 89.3560 97.00 94.95 9.85
9381 89.3650 106.00 98.98 10.30
9382 89.3740 105.00 104.40 10.25
9383 89.3830 115.00 111.46 10.72
9384 89.3920 122.00 120.24 11.05
9385 89.4010 126.00 130.66 11.23
9386 89.4100 149.00 142.39 12.21
9387 89.4190 157.00 154.76 12.53
9388 89.4280 174.00 166.80 13.19
9389 89.4370 193.00 176.75 13.89
9390 89.4460 175.00 182.97 13.23
9391 89.4550 163.00 184.05 12.77
9392 89.4640 164.00 179.74 12.81
9393 89.4730 152.00 171.02 12.33
9394 89.4820 138.00 159.79 11.75
9395 89.4910 146.00 147.41 12.08
9396 89.5000 137.00 135.30 11.70
9397 89.5090 103.00 124.29 10.15
9398 89.5180 89.00 114.88 9.43
9399 89.5270 97.00 107.22 9.85
9400 89.5360 103.00 101.29 10.15
9401 89.5450 98.00 96.92 9.90
9402 89.5540 101.00 93.83 10.05
9403 89.5630 95.00 91.77 9.75
9404 89.5720 92.00 90.42 9.59
9405 89.5810 98.00 89.62 9.90
9406 89.5900 96.00 89.12 9.80
9407 89.5980 92.00 88.77 9.59
9408 89.6070 70.00 88.42 8.37
9409 89.6160 87.00 87.99 9.33
9410 89.6250 91.00 87.44 9.54
9411 89.6340 89.00 86.80 9.43
9412 89.6430 88.00 86.12 9.38
9413 89.6520 90.00 85.43 9.49
9414 89.6610 85.00 84.79 9.22
9415 89.6700 87.00 84.21 9.33
9416 89.6790 74.00 83.72 8.60
9417 89.6880 78.00 83.33 8.83
9418 89.6970 97.00 83.03 9.85
9419 89.7060 60.00 82.84 7.75
9420 89.7150 70.00 82.74 8.37
9421 89.7240 75.00 82.75 8.66
9422 89.7330 77.00 82.85 8.77
9423 89.7420 90.00 83.07 9.49
9424 89.7510 69.00 83.39 8.31
9425 89.7600 72.00 83.84 8.49
9426 89.7690 70.00 84.41 8.37
9427 89.7780 77.00 85.11 8.77
9428 89.7870 76.00 85.93 8.72
9429 89.7960 85.00 86.86 9.22
9430 89.8050 80.00 87.89 8.94
9431 89.8140 82.00 88.99 9.06
9432 89.8230 87.00 90.11 9.33
9433 89.8320 99.00 91.18 9.95
9434 89.8410 99.00 92.12 9.95
9435 89.8500 86.00 92.83 9.27
9436 89.8590 92.00 93.37 9.59
9437 89.8680 100.00 93.73 10.00
9438 89.8770 97.00 93.95 9.85
9439 89.8860 93.00 94.12 9.64
9440 89.8950 87.00 94.39 9.33
9441 89.9040 95.00 94.63 9.75
9442 89.9130 98.00 94.91 9.90
9443 89.9220 88.00 95.21 9.38
9444 89.9310 84.00 95.45 9.17
9445 89.9400 89.00 95.56 9.43
9446 89.9490 89.00 95.49 9.43
9447 89.9580 87.00 95.25 9.33
9448 89.9670 95.00 94.89 9.75
9449 89.9760 100.00 94.52 10.00
9450 89.9850 97.00 94.24 9.85
9451 89.9940 95.00 94.14 9.75
9452 90.0030 101.00 94.33 10.05
9453 90.0120 97.00 94.88 9.85
9454 90.0210 84.00 95.91 9.17
9455 90.0300 92.00 97.46 9.59
9456 90.0390 87.00 99.79 9.33
9457 90.0480 95.00 102.95 9.75
9458 90.0570 99.00 107.09 9.95
9459 90.0660 99.00 112.36 9.95
9460 90.0750 111.00 118.87 10.54
9461 90.0840 110.00 126.70 10.49
9462 90.0930 128.00 135.87 11.31
9463 90.1020 140.00 146.29 11.83
9464 90.1110 153.00 157.81 12.37
9465 90.1200 158.00 170.09 12.57
9466 90.1290 159.00 182.62 12.61
9467 90.1380 172.00 194.71 13.11
9468 90.1470 201.00 205.45 14.18
9469 90.1560 223.00 213.96 14.93
9470 90.1650 213.00 219.64 14.59
9471 90.1740 217.00 222.44 14.73
9472 90.1830 220.00 223.14 14.83
9473 90.1920 210.00 222.40 14.49
9474 90.2010 231.00 221.51 15.20
9475 90.2100 217.00 221.33 14.73
9476 90.2190 199.00 222.31 14.11
9477 90.2280 200.00 224.40 14.14
9478 90.2370 192.00 227.08 13.86
9479 90.2460 205.00 229.29 14.32
9480 90.2550 215.00 229.62 14.66
9481 90.2640 225.00 226.74 15.00
9482 90.2730 197.00 220.03 14.04
9483 90.2820 196.00 210.01 14.00
9484 90.2910 203.00 198.06 14.25
9485 90.3000 197.00 185.77 14.04
9486 90.3090 182.00 174.54 13.49
9487 90.3180 154.00 165.35 12.41
9488 90.3270 137.00 158.86 11.70
9489 90.3360 146.00 155.41 12.08
9490 90.3450 155.00 155.03 12.45
9491 90.3540 157.00 157.49 12.53
9492 90.3630 156.00 162.32 12.49
9493 90.3720 160.00 168.78 12.65
9494 90.3810 172.00 175.84 13.11
9495 90.3900 173.00 182.21 13.15
9496 90.3990 178.00 186.49 13.34
9497 90.4080 196.00 187.46 14.00
9498 90.4170 209.00 184.62 14.46
9499 90.4260 195.00 178.40 13.96
9500 90.4350 176.00 169.83 13.27
9501 90.4440 154.00 160.10 12.41
9502 90.4530 142.00 150.23 11.92
9503 90.4620 146.00 140.91 12.08
9504 90.4710 133.00 132.55 11.53
9505 90.4800 125.00 125.36 11.18
9506 90.4890 112.00 119.33 10.58
9507 90.4980 98.00 114.36 9.90
9508 90.5070 107.00 110.26 10.34
9509 90.5160 114.00 106.88 10.68
9510 90.5250 101.00 104.05 10.05
9511 90.5340 111.00 101.69 10.54
9512 90.5430 101.00 99.73 10.05
9513 90.5520 91.00 98.12 9.54
9514 90.5610 97.00 96.84 9.85
9515 90.5700 105.00 95.86 10.25
9516 90.5790 97.00 95.20 9.85
9517 90.5880 83.00 94.91 9.11
9518 90.5970 93.00 94.92 9.64
9519 90.6060 113.00 95.34 10.63
9520 90.6150 89.00 96.25 9.43
9521 90.6240 99.00 97.75 9.95
9522 90.6330 91.00 99.99 9.54
9523 90.6420 100.00 103.12 10.00
9524 90.6510 111.00 107.32 10.54
9525 90.6600 106.00 112.74 10.30
9526 90.6690 97.00 119.48 9.85
9527 90.6780 115.00 127.60 10.72
9528 90.6870 115.00 137.00 10.72
9529 90.6960 131.00 147.46 11.45
9530 90.7050 142.00 158.53 11.92
9531 90.7130 156.00 169.50 12.49
9532 90.7220 179.00 179.36 13.38
9533 90.7310 208.00 186.88 14.42
9534 90.7400 218.00 190.87 14.76
9535 90.7490 190.00 190.69 13.78
9536 90.7580 180.00 186.42 13.42
9537 90.7670 192.00 179.34 13.86
9538 90.7760 186.00 170.65 13.64
9539 90.7850 178.00 161.63 13.34
9540 90.7940 167.00 153.32 12.92
9541 90.8030 157.00 146.49 12.53
9542 90.8120 172.00 141.73 13.11
9543 90.8210 165.00 139.51 12.85
9544 90.8300 139.00 140.17 11.79
9545 90.8390 154.00 143.95 12.41
9546 90.8480 171.00 150.97 13.08
9547 90.8570 183.00 161.20 13.53
9548 90.8660 214.00 174.45 14.63
9549 90.8750 202.00 190.25 14.21
9550 90.8840 209.00 207.78 14.46
9551 90.8930 231.00 225.78 15.20
9552 90.9020 256.00 242.60 16.00
9553 90.9110 299.00 255.99 17.29
9554 90.9200 292.00 263.62 17.09
9555 90.9290 273.00 263.83 16.52
9556 90.9380 298.00 256.44 17.26
9557 90.9470 245.00 242.92 15.65
9558 90.9560 211.00 225.58 14.53
9559 90.9650 220.00 206.74 14.83
9560 90.9740 182.00 188.23 13.49
9561 90.9830 166.00 171.26 12.88
9562 90.9920 143.00 156.51 11.96
9563 91.0010 145.00 144.39 12.04
9564 91.0100 135.00 134.94 11.62
9565 91.0190 116.00 128.05 10.77
9566 91.0280 127.00 123.47 11.27
9567 91.0370 127.00 120.90 11.27
9568 91.0460 115.00 120.07 10.72
9569 91.0550 132.00 120.73 11.49
9570 91.0640 126.00 122.68 11.23
9571 91.0730 131.00 125.81 11.45
9572 91.0820 153.00 130.06 12.37
9573 91.0910 151.00 135.43 12.29
9574 91.1000 149.00 141.98 12.21
9575 91.1090 150.00 149.86 12.25
9576 91.1180 157.00 159.24 12.53
9577 91.1270 157.00 170.25 12.53
9578 91.1360 168.00 182.97 12.96
9579 91.1450 184.00 197.23 13.56
9580 91.1540 217.00 212.64 14.73
9581 91.1630 218.00 228.54 14.76
9582 91.1720 232.00 243.89 15.23
9583 91.1810 258.00 257.42 16.06
9584 91.1900 267.00 267.79 16.34
9585 91.1990 289.00 274.10 17.00
9586 91.2080 311.00 276.17 17.64
9587 91.2170 306.00 274.54 17.49
9588 91.2260 288.00 270.15 16.97
9589 91.2350 280.00 263.86 16.73
9590 91.2440 275.00 256.22 16.58
9591 91.2530 275.00 247.49 16.58
9592 91.2620 279.00 237.71 16.70
9593 91.2710 254.00 226.94 15.94
9594 91.2800 228.00 215.44 15.10
9595 91.2890 218.00 203.46 14.76
9596 91.2980 218.00 191.49 14.76
9597 91.3070 198.00 180.00 14.07
9598 91.3160 169.00 169.35 13.00
9599 91.3250 180.00 159.82 13.42
9600 91.3340 175.00 151.62 13.23
9601 91.3430 160.00 144.86 12.65
9602 91.3520 160.00 139.65 12.65
9603 91.3610 132.00 135.99 11.49
9604 91.3700 141.00 133.88 11.87
9605 91.3790 141.00 133.25 11.87
9606 91.3880 134.00 133.95 11.58
9607 91.3970 144.00 135.76 12.00
9608 91.4060 143.00 138.34 11.96
9609 91.4150 142.00 141.28 11.92
9610 91.4240 139.00 144.10 11.79
9611 91.4330 139.00 146.40 11.79
9612 91.4420 180.00 148.05 13.42
9613 91.4510 157.00 149.14 12.53
9614 91.4600 158.00 149.94 12.57
9615 91.4690 148.00 150.65 12.17
9616 91.4780 155.00 151.35 12.45
9617 91.4870 157.00 151.97 12.53
9618 91.4960 165.00 152.40 12.85
9619 91.5050 144.00 152.60 12.00
9620 91.5140 159.00 152.63 12.61
9621 91.5230 154.00 152.64 12.41
9622 91.5320 150.00 152.74 12.25
9623 91.5410 156.00 152.93 12.49
9624 91.5500 142.00 153.08 11.92
9625 91.5590 139.00 152.93 11.79
9626 91.5680 142.00 152.18 11.92
9627 91.5770 143.00 150.61 11.96
9628 91.5860 132.00 148.20 11.49
9629 91.5950 135.00 145.17 11.62
9630 91.6040 134.00 141.92 11.58
9631 91.6130 133.00 138.97 11.53
9632 91.6220 145.00 136.76 12.04
9633 91.6310 146.00 135.76 12.08
9634 91.6400 138.00 136.43 11.75
9635 91.6490 144.00 139.13 12.00
9636 91.6580 159.00 144.18 12.61
9637 91.6670 164.00 151.84 12.81
9638 91.6760 174.00 162.17 13.19
9639 91.6850 179.00 175.04 13.38
9640 91.6940 177.00 190.21 13.30
9641 91.7030 192.00 206.95 13.86
9642 91.7120 237.00 224.17 15.39
9643 91.7210 254.00 240.36 15.94
9644 91.7300 264.00 253.62 16.25
9645 91.7390 269.00 262.24 16.40
9646 91.7480 255.00 265.41 15.97
9647 91.7570 265.00 263.29 16.28
9648 91.7660 265.00 257.21 16.28
9649 91.7750 276.00 248.56 16.61
9650 91.7840 263.00 238.40 16.22
9651 91.7930 252.00 227.26 15.87
9652 91.8020 220.00 215.30 14.83
9653 91.8110 214.00 202.69 14.63
9654 91.8190 197.00 189.69 14.04
9655 91.8280 191.00 176.79 13.82
9656 91.8370 172.00 164.50 13.11
9657 91.8460 156.00 153.24 12.49
9658 91.8550 123.00 143.30 11.09
9659 91.8640 130.00 134.82 11.40
9660 91.8730 127.00 127.83 11.27
9661 91.8820 137.00 122.36 11.70
9662 91.8910 131.00 118.37 11.45
9663 91.9000 119.00 115.82 10.91
9664 91.9090 115.00 114.68 10.72
9665 91.9180 128.00 114.82 11.31
9666 91.9270 113.00 116.33 10.63
9667 91.9360 140.00 119.07 11.83
9668 91.9450 121.00 122.96 11.00
9669 91.9540 129.00 127.87 11.36
9670 91.9630 142.00 133.63 11.92
9671 91.9720 144.00 140.11 12.00
9672 91.9810 155.00 146.95 12.45
9673 91.9900 166.00 153.76 12.88
9674 91.9990 169.00 160.00 13.00
9675 92.0080 159.00 165.07 12.61
9676 92.0170 167.00 168.34 12.92
9677 92.0260 186.00 169.36 13.64
9678 92.0350 173.00 167.98 13.15
9679 92.0440 172.00 164.44 13.11
9680 92.0530 175.00 159.28 13.23
9681 92.0620 152.00 153.15 12.33
9682 92.0710 138.00 146.74 11.75
9683 92.0800 135.00 140.59 11.62
9684 92.0890 138.00 135.19 11.75
9685 92.0980 142.00 130.90 11.92
9686 92.1070 150.00 128.04 12.25
9687 92.1160 138.00 126.83 11.75
9688 92.1250 122.00 127.43 11.05
9689 92.1340 152.00 129.92 12.33
9690 92.1430 157.00 134.26 12.53
9691 92.1520 161.00 140.32 12.69
9692 92.1610 155.00 147.80 12.45
9693 92.1700 187.00 156.23 13.67
9694 92.1790 190.00 164.91 13.78
9695 92.1880 186.00 172.89 13.64
9696 92.1970 175.00 179.10 13.23
9697 92.2060 193.00 182.22 13.89
9698 92.2150 184.00 181.58 13.56
9699 92.2240 181.00 177.16 13.45
9700 92.2330 190.00 169.66 13.78
9701 92.2420 154.00 160.17 12.41
9702 92.2510 153.00 149.78 12.37
9703 92.2600 131.00 139.34 11.45
9704 92.2690 126.00 129.47 11.23
9705 92.2780 119.00 120.55 10.91
9706 92.2870 122.00 112.76 11.05
9707 92.2960 100.00 106.20 10.00
9708 92.3050 94.00 100.81 9.70
9709 92.3140 100.00 96.48 10.00
9710 92.3230 107.00 93.03 10.34
9711 92.3320 97.00 90.41 9.85
9712 92.3410 91.00 88.41 9.54
9713 92.3500 77.00 86.88 8.77
9714 92.3590 81.00 85.71 9.00
9715 92.3680 86.00 84.81 9.27
9716 92.3770 95.00 84.11 9.75
9717 92.3860 88.00 83.56 9.38
9718 92.3950 86.00 83.13 9.27
9719 92.4040 87.00 82.78 9.33
9720 92.4130 77.00 82.51 8.77
9721 92.4220 83.00 82.31 9.11
9722 92.4310 99.00 82.06 9.95
9723 92.4400 93.00 81.97 9.64
9724 92.4490 89.00 81.94 9.43
9725 92.4580 88.00 81.97 9.38
9726 92.4670 84.00 82.06 9.17
9727 92.4760 91.00 82.23 9.54
9728 92.4850 92.00 82.49 9.59
9729 92.4940 89.00 82.85 9.43
9730 92.5030 95.00 83.36 9.75
9731 92.5120 93.00 84.04 9.64
9732 92.5210 89.00 84.93 9.43
9733 92.5300 94.00 86.10 9.70
9734 92.5390 95.00 87.59 9.75
9735 92.5480 102.00 89.46 10.10
9736 92.5570 108.00 91.77 10.39
9737 92.5660 102.00 94.58 10.10
9738 92.5750 99.00 97.91 9.95
9739 92.5840 101.00 101.76 10.05
9740 92.5930 103.00 106.13 10.15
9741 92.6020 120.00 110.95 10.95
9742 92.6110 116.00 116.09 10.77
9743 92.6200 123.00 121.38 11.09
9744 92.6290 125.00 126.55 11.18
9745 92.6380 155.00 131.29 12.45
9746 92.6470 152.00 135.27 12.33
9747 92.6560 162.00 138.28 12.73
9748 92.6650 159.00 140.33 12.61
9749 92.6740 160.00 141.64 12.65
9750 92.6830 142.00 142.57 11.92
9751 92.6920 155.00 143.45 12.45
9752 92.7010 150.00 144.53 12.25
9753 92.7100 162.00 145.88 12.73
9754 92.7190 164.00 147.38 12.81
9755 92.7280 164.00 148.73 12.81
9756 92.7370 169.00 149.52 13.00
9757 92.7460 173.00 149.26 13.15
9758 92.7550 167.00 147.66 12.92
9759 92.7640 162.00 144.58 12.73
9760 92.7730 166.00 140.26 12.88
9761 92.7820 147.00 135.12 12.12
9762 92.7910 142.00 129.56 11.92
9763 92.8000 148.00 123.94 12.17
9764 92.8090 142.00 118.54 11.92
9765 92.8180 125.00 113.57 11.18
9766 92.8270 116.00 109.17 10.77
9767 92.8360 121.00 105.45 11.00
9768 92.8450 115.00 102.48 10.72
9769 92.8540 121.00 100.28 11.00
9770 92.8630 115.00 98.85 10.72
9771 92.8720 101.00 98.15 10.05
9772 92.8810 100.00 98.18 10.00
9773 92.8900 101.00 98.92 10.05
9774 92.8990 102.00 100.24 10.10
9775 92.9080 118.00 102.14 10.86
9776 92.9160 123.00 104.50 11.09
9777 92.9250 109.00 107.44 10.44
9778 92.9340 116.00 110.83 10.77
9779 92.9430 119.00 114.63 10.91
9780 92.9520 117.00 118.79 10.82
9781 92.9610 132.00 123.22 11.49
9782 92.9700 141.00 127.80 11.87
9783 92.9790 143.00 132.29 11.96
9784 92.9880 141.00 136.45 11.87
9785 92.9970 161.00 139.91 12.69
9786 93.0060 156.00 142.20 12.49
9787 93.0150 163.00 142.92 12.77
9788 93.0240 177.00 141.82 13.30
9789 93.0330 156.00 138.94 12.49
9790 93.0420 139.00 134.58 11.79
9791 93.0510 153.00 129.24 12.37
9792 93.0600 143.00 123.40 11.96
9793 93.0690 139.00 117.50 11.79
9794 93.0780 128.00 111.85 11.31
9795 93.0870 134.00 106.68 11.58
9796 93.0960 118.00 102.11 10.86
9797 93.1050 102.00 98.22 10.10
9798 93.1140 106.00 95.04 10.30
9799 93.1230 114.00 92.55 10.68
9800 93.1320 106.00 90.71 10.30
9801 93.1410 99.00 89.50 9.95
9802 93.1500 93.00 88.77 9.64
9803 93.1590 90.00 88.47 9.49
9804 93.1680 93.00 88.49 9.64
9805 93.1770 102.00 88.71 10.10
9806 93.1860 96.00 89.01 9.80
9807 93.1950 105.00 89.23 10.25
9808 93.2040 111.00 89.24 10.54
9809 93.2130 118.00 88.98 10.86
9810 93.2220 104.00 88.38 10.20
9811 93.2310 80.00 87.51 8.94
9812 93.2400 80.00 86.52 8.94
9813 93.2490 81.00 85.48 9.00
9814 93.2580 100.00 84.46 10.00
9815 93.2670 105.00 83.53 10.25
9816 93.2760 97.00 82.72 9.85
9817 93.2850 88.00 82.05 9.38
9818 93.2940 81.00 81.52 9.00
9819 93.3030 87.00 80.98 9.33
9820 93.3120 99.00 80.71 9.95
9821 93.3210 95.00 80.55 9.75
9822 93.3300 85.00 80.49 9.22
9823 93.3390 84.00 80.52 9.17
9824 93.3480 91.00 80.62 9.54
9825 93.3570 95.00 80.78 9.75
9826 93.3660 98.00 81.00 9.90
9827 93.3750 94.00 81.28 9.70
9828 93.3840 89.00 81.62 9.43
9829 93.3930 97.00 82.01 9.85
9830 93.4020 93.00 82.45 9.64
9831 93.4110 95.00 82.98 9.75
9832 93.4200 113.00 83.60 10.63
9833 93.4290 105.00 84.33 10.25
9834 93.4380 87.00 85.18 9.33
9835 93.4470 91.00 86.18 9.54
9836 93.4560 87.00 87.38 9.33
9837 93.4650 96.00 88.83 9.80
9838 93.4740 91.00 90.59 9.54
9839 93.4830 103.00 92.76 10.15
9840 93.4920 108.00 95.44 10.39
9841 93.5010 115.00 98.76 10.72
9842 93.5100 131.00 102.88 11.45
9843 93.5190 130.00 107.99 11.40
9844 93.5280 127.00 114.25 11.27
9845 93.5370 115.00 121.98 10.72
9846 93.5460 128.00 131.38 11.31
9847 93.5550 131.00 142.71 11.45
9848 93.5640 138.00 156.23 11.75
9849 93.5730 178.00 172.13 13.34
9850 93.5820 193.00 190.50 13.89
9851 93.5910 207.00 211.32 14.39
9852 93.6000 240.00 234.26 15.49
9853 93.6090 254.00 258.71 15.94
9854 93.6180 289.00 283.59 17.00
9855 93.6270 339.00 307.37 18.41
9856 93.6360 345.00 328.23 18.57
9857 93.6450 337.00 344.09 18.36
9858 93.6540 322.00 352.98 17.94
9859 93.6630 335.00 353.34 18.30
9860 93.6720 317.00 344.60 17.80
9861 93.6810 311.00 327.65 17.64
9862 93.6900 300.00 304.64 17.32
9863 93.6990 261.00 278.33 16.16
9864 93.7080 245.00 251.22 15.65
9865 93.7170 225.00 225.18 15.00
9866 93.7260 181.00 201.50 13.45
9867 93.7350 157.00 180.93 12.53
9868 93.7440 151.00 163.71 12.29
9869 93.7530 146.00 149.88 12.08
9870 93.7620 149.00 139.11 12.21
9871 93.7710 146.00 131.00 12.08
9872 93.7800 141.00 125.02 11.87
9873 93.7890 145.00 120.60 12.04
9874 93.7980 127.00 117.22 11.27
9875 93.8070 111.00 114.40 10.54
9876 93.8160 125.00 111.80 11.18
9877 93.8250 118.00 109.22 10.86
9878 93.8340 104.00 106.60 10.20
9879 93.8430 103.00 103.89 10.15
9880 93.8520 106.00 101.31 10.30
9881 93.8610 102.00 98.85 10.10
9882 93.8700 88.00 96.58 9.38
9883 93.8790 102.00 94.53 10.10
9884 93.8880 95.00 92.74 9.75
9885 93.8970 99.00 91.20 9.95
9886 93.9060 93.00 89.91 9.64
9887 93.9150 90.00 88.79 9.49
9888 93.9240 91.00 87.91 9.54
9889 93.9330 97.00 87.20 9.85
9890 93.9420 84.00 86.61 9.17
9891 93.9510 104.00 86.11 10.20
9892 93.9600 93.00 85.70 9.64
9893 93.9690 94.00 85.35 9.70
9894 93.9780 97.00 85.07 9.85
9895 93.9870 106.00 84.87 10.30
9896 93.9960 94.00 84.74 9.70
9897 94.0050 79.00 84.68 8.89
9898 94.0130 81.00 84.70 9.00
9899 94.0220 90.00 84.78 9.49
9900 94.0310 95.00 84.90 9.75
9901 94.0400 93.00 85.05 9.64
9902 94.0490 96.00 85.19 9.80
9903 94.0580 95.00 85.32 9.75
9904 94.0670 93.00 85.40 9.64
9905 94.0760 99.00 85.44 9.95
9906 94.0850 87.00 85.48 9.33
9907 94.0940 86.00 85.57 9.27
9908 94.1030 97.00 85.85 9.85
9909 94.1120 95.00 86.29 9.75
9910 94.1210 98.00 87.04 9.90
9911 94.1300 97.00 88.23 9.85
9912 94.1390 95.00 89.96 9.75
9913 94.1480 102.00 92.35 10.10
9914 94.1570 100.00 95.48 10.00
9915 94.1660 105.00 99.38 10.25
9916 94.1750 117.00 104.03 10.82
9917 94.1840 120.00 109.29 10.95
9918 94.1930 111.00 114.94 10.54
9919 94.2020 114.00 120.59 10.68
9920 94.2110 133.00 125.68 11.53
9921 94.2200 122.00 129.56 11.05
9922 94.2290 112.00 131.56 10.58
9923 94.2380 127.00 131.29 11.27
9924 94.2470 136.00 128.82 11.66
9925 94.2560 122.00 124.62 11.05
9926 94.2650 122.00 119.36 11.05
9927 94.2740 127.00 113.64 11.27
9928 94.2830 104.00 107.92 10.20
9929 94.2920 98.00 102.54 9.90
9930 94.3010 99.00 97.71 9.95
9931 94.3100 110.00 93.53 10.49
9932 94.3190 103.00 90.02 10.15
9933 94.3280 103.00 87.14 10.15
9934 94.3370 82.00 84.83 9.06
9935 94.3460 87.00 82.99 9.33
9936 94.3550 77.00 81.53 8.77
9937 94.3640 86.00 80.38 9.27
9938 94.3730 94.00 79.47 9.70
9939 94.3820 88.00 78.74 9.38
9940 94.3910 75.00 78.17 8.66
9941 94.4000 76.00 77.71 8.72
9942 94.4090 66.00 77.35 8.12
9943 94.4180 82.00 77.06 9.06
9944 94.4270 80.00 76.85 8.94
9945 94.4360 84.00 76.69 9.17
9946 94.4450 87.00 76.59 9.33
9947 94.4540 85.00 76.50 9.22
9948 94.4630 77.00 76.50 8.77
9949 94.4720 76.00 76.54 8.72
9950 94.4810 70.00 76.62 8.37
9951 94.4900 79.00 76.76 8.89
9952 94.4990 83.00 76.95 9.11
9953 94.5080 73.00 77.20 8.54
9954 94.5170 66.00 77.50 8.12
9955 94.5260 70.00 77.83 8.37
9956 94.5350 72.00 78.25 8.49
9957 94.5440 93.00 78.74 9.64
9958 94.5530 87.00 79.29 9.33
9959 94.5620 80.00 79.98 8.94
9960 94.5710 90.00 80.65 9.49
9961 94.5800 86.00 81.39 9.27
9962 94.5890 87.00 82.21 9.33
9963 94.5980 95.00 83.22 9.75
9964 94.6070 93.00 84.30 9.64
9965 94.6160 82.00 85.62 9.06
9966 94.6250 79.00 87.28 8.89
9967 94.6340 90.00 89.38 9.49
9968 94.6430 96.00 92.02 9.80
9969 94.6520 106.00 95.30 10.30
9970 94.6610 104.00 99.29 10.20
9971 94.6700 95.00 104.02 9.75
9972 94.6790 96.00 109.50 9.80
9973 94.6880 106.00 115.66 10.30
9974 94.6970 114.00 122.38 10.68
9975 94.7060 127.00 129.45 11.27
9976 94.7150 110.00 136.54 10.49
9977 94.7240 127.00 143.20 11.27
9978 94.7330 145.00 148.89 12.04
9979 94.7420 174.00 152.99 13.19
9980 94.7510 155.00 155.02 12.45
9981 94.7600 140.00 154.76 11.83
9982 94.7690 156.00 152.33 12.49
9983 94.7780 149.00 148.19 12.21
9984 94.7870 126.00 142.93 11.23
9985 94.7960 119.00 137.14 10.91
9986 94.8050 118.00 131.32 10.86
9987 94.8140 123.00 125.82 11.09
9988 94.8230 141.00 120.91 11.87
9989 94.8320 122.00 116.73 11.05
9990 94.8410 118.00 113.46 10.86
9991 94.8500 103.00 111.14 10.15
9992 94.8590 98.00 109.81 9.90
9993 94.8680 104.00 109.50 10.20
9994 94.8770 128.00 110.16 11.31
9995 94.8860 125.00 111.72 11.18
9996 94.8950 106.00 114.07 10.30
9997 94.9040 119.00 116.99 10.91
9998 94.9130 135.00 120.26 11.62
9999 94.9220 131.00 123.56 11.45
10000 94.9310 119.00 126.58 10.91
10001 94.9400 135.00 129.00 11.62
10002 94.9490 148.00 130.54 12.17
10003 94.9580 136.00 131.01 11.66
10004 94.9670 132.00 130.29 11.49
10005 94.9760 143.00 128.53 11.96
10006 94.9850 147.00 125.55 12.12
10007 94.9940 133.00 121.72 11.53
10008 95.0030 122.00 117.36 11.05
10009 95.0120 117.00 112.80 10.82
10010 95.0210 111.00 108.30 10.54
10011 95.0300 107.00 104.09 10.34
10012 95.0390 106.00 100.30 10.30
10013 95.0480 105.00 97.04 10.25
10014 95.0570 103.00 94.36 10.15
10015 95.0660 105.00 92.26 10.25
10016 95.0750 99.00 90.75 9.95
10017 95.0830 87.00 89.79 9.33
10018 95.0920 91.00 89.34 9.54
10019 95.1010 92.00 89.36 9.59
10020 95.1100 89.00 89.78 9.43
10021 95.1190 82.00 90.54 9.06
10022 95.1280 90.00 91.58 9.49
10023 95.1370 95.00 92.81 9.75
10024 95.1460 92.00 94.08 9.59
10025 95.1550 88.00 95.42 9.38
10026 95.1640 98.00 96.66 9.90
10027 95.1730 103.00 97.69 10.15
10028 95.1820 111.00 98.35 10.54
10029 95.1910 77.00 98.57 8.77
10030 95.2000 95.00 98.33 9.75
10031 95.2090 97.00 97.64 9.85
10032 95.2180 102.00 96.60 10.10
10033 95.2270 94.00 95.31 9.70
10034 95.2360 92.00 93.91 9.59
10035 95.2450 96.00 92.51 9.80
10036 95.2540 84.00 91.21 9.17
10037 95.2630 93.00 90.09 9.64
10038 95.2720 100.00 89.22 10.00
10039 95.2810 89.00 88.63 9.43
10040 95.2900 85.00 88.34 9.22
10041 95.2990 92.00 88.34 9.59
10042 95.3080 86.00 88.59 9.27
10043 95.3170 70.00 89.04 8.37
10044 95.3260 92.00 89.59 9.59
10045 95.3350 83.00 90.11 9.11
10046 95.3440 84.00 90.46 9.17
10047 95.3530 95.00 90.51 9.75
10048 95.3620 92.00 90.16 9.59
10049 95.3710 97.00 89.44 9.85
10050 95.3800 102.00 88.43 10.10
10051 95.3890 94.00 87.42 9.70
10052 95.3980 90.00 86.21 9.49
10053 95.4070 78.00 85.07 8.83
10054 95.4160 83.00 84.07 9.11
10055 95.4250 93.00 83.27 9.64
10056 95.4340 89.00 82.72 9.43
10057 95.4430 84.00 82.43 9.17
10058 95.4520 83.00 82.44 9.11
10059 95.4610 81.00 82.77 9.00
10060 95.4700 83.00 83.44 9.11
10061 95.4790 88.00 84.44 9.38
10062 95.4880 92.00 85.78 9.59
10063 95.4970 92.00 87.45 9.59
10064 95.5060 94.00 89.41 9.70
10065 95.5150 97.00 91.61 9.85
10066 95.5240 94.00 93.96 9.70
10067 95.5330 104.00 96.31 10.20
10068 95.5420 108.00 98.46 10.39
10069 95.5510 104.00 100.10 10.20
10070 95.5600 109.00 101.17 10.44
10071 95.5690 113.00 101.51 10.63
10072 95.5780 117.00 101.27 10.82
10073 95.5870 100.00 100.77 10.00
10074 95.5960 104.00 100.41 10.20
10075 95.6050 122.00 100.55 11.05
10076 95.6140 128.00 101.51 11.31
10077 95.6230 114.00 103.55 10.68
10078 95.6320 102.00 106.84 10.10
10079 95.6410 106.00 111.46 10.30
10080 95.6500 112.00 117.38 10.58
10081 95.6590 144.00 124.45 12.00
10082 95.6680 146.00 132.36 12.08
10083 95.6770 149.00 140.64 12.21
10084 95.6860 191.00 148.58 13.82
10085 95.6950 164.00 155.28 12.81
10086 95.7040 165.00 159.75 12.85
10087 95.7130 162.00 161.21 12.73
10088 95.7220 133.00 159.40 11.53
10089 95.7310 150.00 154.76 12.25
10090 95.7400 171.00 148.18 13.08
10091 95.7490 158.00 140.64 12.57
10092 95.7580 138.00 133.08 11.75
10093 95.7670 128.00 125.87 11.31
10094 95.7760 113.00 119.54 10.63
10095 95.7850 105.00 114.28 10.25
10096 95.7940 109.00 110.18 10.44
10097 95.8030 113.00 107.20 10.63
10098 95.8120 119.00 105.24 10.91
10099 95.8210 112.00 104.09 10.58
10100 95.8300 104.00 103.56 10.20
10101 95.8390 96.00 103.38 9.80
10102 95.8480 94.00 103.29 9.70
10103 95.8570 97.00 103.03 9.85
10104 95.8660 110.00 102.43 10.49
10105 95.8750 102.00 101.40 10.10
10106 95.8840 95.00 100.00 9.75
10107 95.8930 105.00 98.36 10.25
10108 95.9020 98.00 96.63 9.90
10109 95.9110 99.00 94.94 9.95
10110 95.9200 96.00 93.40 9.80
10111 95.9290 79.00 92.10 8.89
10112 95.9380 82.00 91.06 9.06
10113 95.9470 96.00 90.33 9.80
10114 95.9560 102.00 89.89 10.10
10115 95.9650 93.00 89.75 9.64
10116 95.9740 94.00 89.89 9.70
10117 95.9830 95.00 90.30 9.75
10118 95.9920 90.00 90.95 9.49
10119 96.0010 105.00 91.84 10.25
10120 96.0100 118.00 92.98 10.86
10121 96.0190 86.00 94.41 9.27
10122 96.0280 100.00 96.20 10.00
10123 96.0370 98.00 98.48 9.90
10124 96.0460 100.00 101.44 10.00
10125 96.0550 108.00 105.35 10.39
10126 96.0640 123.00 110.50 11.09
10127 96.0730 142.00 117.26 11.92
10128 96.0820 132.00 126.00 11.49
10129 96.0910 157.00 137.12 12.53
10130 96.1000 152.00 150.92 12.33
10131 96.1090 183.00 167.59 13.53
10132 96.1180 206.00 187.18 14.35
10133 96.1270 231.00 209.38 15.20
10134 96.1360 247.00 233.54 15.72
10135 96.1450 289.00 258.52 17.00
10136 96.1530 304.00 282.65 17.44
10137 96.1620 344.00 303.90 18.55
10138 96.1710 333.00 320.15 18.25
10139 96.1800 368.00 329.60 19.18
10140 96.1890 331.00 331.08 18.19
10141 96.1980 296.00 324.20 17.20
10142 96.2070 294.00 309.58 17.15
10143 96.2160 259.00 288.92 16.09
10144 96.2250 231.00 264.54 15.20
10145 96.2340 220.00 238.81 14.83
10146 96.2430 190.00 213.57 13.78
10147 96.2520 188.00 190.15 13.71
10148 96.2610 156.00 169.34 12.49
10149 96.2700 132.00 151.45 11.49
10150 96.2790 121.00 136.55 11.00
10151 96.2880 123.00 124.50 11.09
10152 96.2970 115.00 114.96 10.72
10153 96.3060 102.00 107.59 10.10
10154 96.3150 105.00 101.98 10.25
10155 96.3240 99.00 97.88 9.95
10156 96.3330 88.00 94.76 9.38
10157 96.3420 86.00 92.48 9.27
10158 96.3510 91.00 90.78 9.54
10159 96.3600 87.00 89.54 9.33
10160 96.3690 87.00 88.64 9.33
10161 96.3780 95.00 87.99 9.75
10162 96.3870 92.00 87.54 9.59
10163 96.3960 93.00 87.23 9.64
10164 96.4050 87.00 87.02 9.33
10165 96.4140 78.00 86.86 8.83
10166 96.4230 96.00 86.72 9.80
10167 96.4320 95.00 86.57 9.75
10168 96.4410 104.00 86.38 10.20
10169 96.4500 87.00 86.15 9.33
10170 96.4590 83.00 85.89 9.11
10171 96.4680 93.00 85.63 9.64
10172 96.4770 102.00 85.39 10.10
10173 96.4860 87.00 85.21 9.33
10174 96.4950 84.00 85.13 9.17
10175 96.5040 96.00 85.19 9.80
10176 96.5130 87.00 85.41 9.33
10177 96.5220 93.00 85.84 9.64
10178 96.5310 104.00 86.54 10.20
10179 96.5400 79.00 87.53 8.89
10180 96.5490 79.00 88.89 8.89
10181 96.5580 83.00 90.64 9.11
10182 96.5670 90.00 92.83 9.49
10183 96.5760 90.00 95.48 9.49
10184 96.5850 93.00 98.60 9.64
10185 96.5940 101.00 102.15 10.05
10186 96.6030 97.00 106.09 9.85
10187 96.6120 108.00 110.28 10.39
10188 96.6210 117.00 114.51 10.82
10189 96.6300 136.00 118.66 11.66
10190 96.6390 119.00 122.48 10.91
10191 96.6480 109.00 125.87 10.44
10192 96.6570 114.00 128.88 10.68
10193 96.6660 114.00 131.72 10.68
10194 96.6750 133.00 134.70 11.53
10195 96.6840 141.00 138.09 11.87
10196 96.6930 140.00 142.11 11.83
10197 96.7020 142.00 146.87 11.92
10198 96.7110 159.00 152.38 12.61
10199 96.7200 161.00 158.56 12.69
10200 96.7290 164.00 165.23 12.81
10201 96.7380 182.00 172.13 13.49
10202 96.7470 199.00 178.97 14.11
10203 96.7560 200.00 185.42 14.14
10204 96.7650 191.00 191.23 13.82
10205 96.7740 199.00 196.18 14.11
10206 96.7830 187.00 200.09 13.67
10207 96.7920 186.00 202.78 13.64
10208 96.8010 206.00 204.00 14.35
10209 96.8100 201.00 203.51 14.18
10210 96.8190 210.00 201.07 14.49
10211 96.8280 205.00 196.69 14.32
10212 96.8370 186.00 190.60 13.64
10213 96.8460 170.00 183.28 13.04
10214 96.8550 181.00 175.26 13.45
10215 96.8640 169.00 167.19 13.00
10216 96.8730 159.00 159.55 12.61
10217 96.8820 162.00 152.75 12.73
10218 96.8910 147.00 147.07 12.12
10219 96.9000 147.00 142.72 12.12
10220 96.9090 135.00 139.81 11.62
10221 96.9180 139.00 138.41 11.79
10222 96.9270 138.00 138.49 11.75
10223 96.9360 138.00 139.96 11.75
10224 96.9450 136.00 142.67 11.66
10225 96.9540 119.00 146.38 10.91
10226 96.9630 152.00 150.78 12.33
10227 96.9720 139.00 155.51 11.79
10228 96.9810 143.00 160.21 11.96
10229 96.9900 165.00 164.63 12.85
10230 96.9990 152.00 168.62 12.33
10231 97.0080 169.00 172.08 13.00
10232 97.0170 182.00 174.84 13.49
10233 97.0260 186.00 176.53 13.64
10234 97.0350 181.00 176.66 13.45
10235 97.0440 168.00 174.78 12.96
10236 97.0530 165.00 170.73 12.85
10237 97.0620 160.00 164.76 12.65
10238 97.0710 157.00 157.55 12.53
10239 97.0800 164.00 149.83 12.81
10240 97.0890 145.00 142.33 12.04
10241 97.0980 153.00 135.55 12.37
10242 97.1070 138.00 129.87 11.75
10243 97.1160 120.00 125.50 10.95
10244 97.1250 113.00 122.56 10.63
10245 97.1340 111.00 121.08 10.54
10246 97.1430 121.00 121.03 11.00
10247 97.1520 132.00 122.32 11.49
10248 97.1610 126.00 124.85 11.23
10249 97.1700 117.00 128.44 10.82
10250 97.1790 124.00 132.92 11.14
10251 97.1880 125.00 138.08 11.18
10252 97.1970 129.00 143.66 11.36
10253 97.2050 140.00 149.36 11.83
10254 97.2140 149.00 154.83 12.21
10255 97.2230 174.00 159.68 13.19
10256 97.2320 177.00 163.54 13.30
10257 97.2410 172.00 166.13 13.11
10258 97.2500 168.00 167.31 12.96
10259 97.2590 188.00 167.16 13.71
10260 97.2680 188.00 165.91 13.71
10261 97.2770 178.00 163.87 13.34
10262 97.2860 166.00 161.32 12.88
10263 97.2950 151.00 158.50 12.29
10264 97.3040 180.00 155.54 13.42
10265 97.3130 175.00 152.44 13.23
10266 97.3220 165.00 149.19 12.85
10267 97.3310 167.00 145.69 12.92
10268 97.3400 152.00 142.04 12.33
10269 97.3490 131.00 138.30 11.45
10270 97.3580 155.00 134.63 12.45
10271 97.3670 141.00 131.25 11.87
10272 97.3760 140.00 128.36 11.83
10273 97.3850 134.00 126.14 11.58
10274 97.3940 144.00 124.70 12.00
10275 97.4030 140.00 124.12 11.83
10276 97.4120 130.00 124.43 11.40
10277 97.4210 115.00 125.61 10.72
10278 97.4300 131.00 127.65 11.45
10279 97.4390 134.00 130.47 11.58
10280 97.4480 117.00 133.95 10.82
10281 97.4570 129.00 137.93 11.36
10282 97.4660 131.00 142.24 11.45
10283 97.4750 145.00 146.63 12.04
10284 97.4840 166.00 150.85 12.88
10285 97.4930 169.00 154.64 13.00
10286 97.5020 163.00 157.82 12.77
10287 97.5110 161.00 160.31 12.69
10288 97.5200 173.00 162.21 13.15
10289 97.5290 179.00 163.77 13.38
10290 97.5380 185.00 165.36 13.60
10291 97.5470 178.00 167.41 13.34
10292 97.5560 164.00 170.33 12.81
10293 97.5650 174.00 174.44 13.19
10294 97.5740 192.00 179.98 13.86
10295 97.5830 192.00 187.08 13.86
10296 97.5920 193.00 195.69 13.89
10297 97.6010 201.00 205.63 14.18
10298 97.6100 210.00 216.49 14.49
10299 97.6190 211.00 227.68 14.53
10300 97.6280 210.00 238.32 14.49
10301 97.6370 238.00 247.41 15.43
10302 97.6460 265.00 253.95 16.28
10303 97.6550 268.00 257.17 16.37
10304 97.6640 245.00 256.83 15.65
10305 97.6730 259.00 253.12 16.09
10306 97.6820 260.00 246.60 16.12
10307 97.6910 248.00 237.94 15.75
10308 97.7000 262.00 227.71 16.19
10309 97.7090 267.00 216.49 16.34
10310 97.7180 238.00 204.74 15.43
10311 97.7270 212.00 192.89 14.56
10312 97.7360 209.00 181.28 14.46
10313 97.7450 172.00 170.24 13.11
10314 97.7540 183.00 159.95 13.53
10315 97.7630 153.00 150.59 12.37
10316 97.7720 157.00 142.26 12.53
10317 97.7810 130.00 135.07 11.40
10318 97.7900 140.00 129.01 11.83
10319 97.7990 121.00 124.19 11.00
10320 97.8080 124.00 120.46 11.14
10321 97.8170 127.00 117.95 11.27
10322 97.8260 127.00 116.57 11.27
10323 97.8350 138.00 116.03 11.75
10324 97.8440 107.00 116.28 10.34
10325 97.8530 149.00 117.14 12.21
10326 97.8620 112.00 118.40 10.58
10327 97.8710 121.00 119.91 11.00
10328 97.8800 146.00 121.58 12.08
10329 97.8890 127.00 123.54 11.27
10330 97.8980 117.00 126.03 10.82
10331 97.9070 133.00 129.35 11.53
10332 97.9160 153.00 133.76 12.37
10333 97.9250 148.00 139.40 12.17
10334 97.9340 150.00 146.23 12.25
10335 97.9430 145.00 154.03 12.04
10336 97.9520 164.00 162.37 12.81
10337 97.9610 181.00 170.58 13.45
10338 97.9700 189.00 177.72 13.75
10339 97.9790 200.00 182.74 14.14
10340 97.9880 214.00 184.72 14.63
10341 97.9970 209.00 183.19 14.46
10342 98.0060 192.00 178.34 13.86
10343 98.0150 176.00 170.95 13.27
10344 98.0240 171.00 161.98 13.08
10345 98.0330 169.00 152.32 13.00
10346 98.0420 150.00 142.74 12.25
10347 98.0510 151.00 133.75 12.29
10348 98.0600 154.00 125.69 12.41
10349 98.0690 137.00 118.76 11.70
10350 98.0780 120.00 113.04 10.95
10351 98.0870 104.00 108.51 10.20
10352 98.0960 114.00 105.09 10.68
10353 98.1050 121.00 102.67 11.00
10354 98.1140 115.00 101.06 10.72
10355 98.1230 118.00 100.12 10.86
10356 98.1320 110.00 99.71 10.49
10357 98.1410 120.00 99.72 10.95
10358 98.1500 103.00 100.09 10.15
10359 98.1590 107.00 100.78 10.34
10360 98.1680 110.00 101.76 10.49
10361 98.1770 113.00 103.01 10.63
10362 98.1860 109.00 104.49 10.44
10363 98.1950 105.00 106.12 10.25
10364 98.2040 98.00 107.83 9.90
10365 98.2130 102.00 109.46 10.10
10366 98.2220 127.00 110.84 11.27
10367 98.2310 111.00 111.81 10.54
10368 98.2400 124.00 112.18 11.14
10369 98.2490 123.00 111.85 11.09
10370 98.2570 103.00 110.79 10.15
10371 98.2660 137.00 109.10 11.70
10372 98.2750 114.00 106.91 10.68
10373 98.2840 95.00 104.40 9.75
10374 98.2930 118.00 101.75 10.86
10375 98.3020 94.00 99.11 9.70
10376 98.3110 87.00 96.60 9.33
10377 98.3200 98.00 94.30 9.90
10378 98.3290 108.00 92.31 10.39
10379 98.3380 110.00 90.66 10.49
10380 98.3470 104.00 89.40 10.20
10381 98.3560 92.00 88.55 9.59
10382 98.3650 84.00 88.13 9.17
10383 98.3740 83.00 88.15 9.11
10384 98.3830 86.00 88.61 9.27
10385 98.3920 86.00 89.52 9.27
10386 98.4010 90.00 90.85 9.49
10387 98.4100 87.00 92.75 9.33
10388 98.4190 104.00 94.89 10.20
10389 98.4280 111.00 97.39 10.54
10390 98.4370 105.00 100.18 10.25
10391 98.4460 102.00 103.18 10.10
10392 98.4550 100.00 106.30 10.00
10393 98.4640 108.00 109.39 10.39
10394 98.4730 112.00 112.30 10.58
10395 98.4820 117.00 114.84 10.82
10396 98.4910 109.00 116.83 10.44
10397 98.5000 107.00 118.14 10.34
10398 98.5090 117.00 118.68 10.82
10399 98.5180 111.00 118.46 10.54
10400 98.5270 115.00 117.55 10.72
10401 98.5360 119.00 116.05 10.91
10402 98.5450 128.00 114.04 11.31
10403 98.5540 122.00 111.61 11.05
10404 98.5630 106.00 108.84 10.30
10405 98.5720 108.00 105.81 10.39
10406 98.5810 110.00 102.63 10.49
10407 98.5900 116.00 99.40 10.77
10408 98.5990 108.00 96.23 10.39
10409 98.6080 118.00 93.23 10.86
10410 98.6170 78.00 90.46 8.83
10411 98.6260 95.00 87.95 9.75
10412 98.6350 83.00 85.74 9.11
10413 98.6440 85.00 83.81 9.22
10414 98.6530 89.00 82.17 9.43
10415 98.6620 102.00 80.80 10.10
10416 98.6710 82.00 79.66 9.06
10417 98.6800 87.00 78.75 9.33
10418 98.6890 100.00 78.02 10.00
10419 98.6980 84.00 77.45 9.17
10420 98.7070 91.00 77.03 9.54
10421 98.7160 83.00 76.70 9.11
10422 98.7250 77.00 76.51 8.77
10423 98.7340 74.00 76.44 8.60
10424 98.7430 82.00 76.46 9.06
10425 98.7520 78.00 76.59 8.83
10426 98.7610 82.00 76.83 9.06
10427 98.7700 85.00 77.19 9.22
10428 98.7790 88.00 77.68 9.38
10429 98.7880 85.00 78.32 9.22
10430 98.7970 92.00 79.11 9.59
10431 98.8060 86.00 80.13 9.27
10432 98.8150 80.00 81.33 8.94
10433 98.8240 82.00 82.75 9.06
10434 98.8330 90.00 84.36 9.49
10435 98.8420 86.00 86.25 9.27
10436 98.8510 86.00 88.37 9.27
10437 98.8600 98.00 90.72 9.90
10438 98.8690 99.00 93.23 9.95
10439 98.8780 93.00 95.85 9.64
10440 98.8870 100.00 98.53 10.00
10441 98.8960 106.00 101.17 10.30
10442 98.9050 105.00 103.68 10.25
10443 98.9140 110.00 105.98 10.49
10444 98.9230 106.00 107.97 10.30
10445 98.9320 111.00 109.56 10.54
10446 98.9410 117.00 110.64 10.82
10447 98.9500 115.00 111.10 10.72
10448 98.9590 96.00 110.88 9.80
10449 98.9680 89.00 109.95 9.43
10450 98.9770 109.00 108.35 10.44
10451 98.9860 105.00 106.21 10.25
10452 98.9950 102.00 103.64 10.10
10453 99.0040 99.00 100.83 9.95
10454 99.0130 89.00 97.91 9.43
10455 99.0220 94.00 94.98 9.70
10456 99.0310 101.00 92.20 10.05
10457 99.0400 86.00 89.59 9.27
10458 99.0490 80.00 87.20 8.94
10459 99.0580 87.00 85.05 9.33
10460 99.0670 92.00 83.15 9.59
10461 99.0760 68.00 81.50 8.25
10462 99.0850 104.00 80.09 10.20
10463 99.0940 72.00 78.89 8.49
10464 99.1030 82.00 77.90 9.06
10465 99.1120 77.00 77.09 8.77
10466 99.1210 70.00 76.43 8.37
10467 99.1300 89.00 75.90 9.43
10468 99.1390 89.00 75.49 9.43
10469 99.1480 81.00 75.17 9.00
10470 99.1570 67.00 74.93 8.19
10471 99.1660 74.00 74.76 8.60
10472 99.1750 75.00 74.65 8.66
10473 99.1840 84.00 74.58 9.17
10474 99.1930 73.00 74.57 8.54
10475 99.2020 82.00 74.61 9.06
10476 99.2110 76.00 74.70 8.72
10477 99.2200 77.00 74.86 8.77
10478 99.2290 83.00 75.09 9.11
10479 99.2380 80.00 75.41 8.94
10480 99.2470 87.00 75.84 9.33
10481 99.2560 86.00 76.41 9.27
10482 99.2650 84.00 77.14 9.17
10483 99.2740 93.00 78.07 9.64
10484 99.2830 91.00 79.21 9.54
10485 99.2920 79.00 80.57 8.89
10486 99.3000 78.00 82.16 8.83
10487 99.3090 78.00 83.95 8.83
10488 99.3180 81.00 85.89 9.00
10489 99.3270 90.00 87.92 9.49
10490 99.3360 87.00 89.91 9.33
10491 99.3450 95.00 91.68 9.75
10492 99.3540 105.00 93.06 10.25
10493 99.3630 103.00 93.87 10.15
10494 99.3720 102.00 94.01 10.10
10495 99.3810 98.00 93.48 9.90
10496 99.3900 106.00 92.52 10.30
10497 99.3990 95.00 91.27 9.75
10498 99.4080 82.00 89.95 9.06
10499 99.4170 88.00 88.74 9.38
10500 99.4260 92.00 87.68 9.59
10501 99.4350 89.00 86.91 9.43
10502 99.4440 87.00 86.52 9.33
10503 99.4530 98.00 86.56 9.90
10504 99.4620 106.00 87.10 10.30
10505 99.4710 94.00 88.20 9.70
10506 99.4800 97.00 89.95 9.85
10507 99.4890 97.00 92.44 9.85
10508 99.4980 111.00 95.78 10.54
10509 99.5070 109.00 100.07 10.44
10510 99.5160 103.00 105.44 10.15
10511 99.5250 119.00 111.98 10.91
10512 99.5340 120.00 119.77 10.95
10513 99.5430 141.00 128.81 11.87
10514 99.5520 167.00 138.97 12.92
10515 99.5610 169.00 150.28 13.00
10516 99.5700 162.00 162.38 12.73
10517 99.5790 180.00 174.84 13.42
10518 99.5880 219.00 187.07 14.80
10519 99.5970 206.00 198.29 14.35
10520 99.6060 206.00 207.64 14.35
10521 99.6150 222.00 214.35 14.90
10522 99.6240 233.00 217.90 15.26
10523 99.6330 237.00 218.23 15.39
10524 99.6420 223.00 215.68 14.93
10525 99.6510 209.00 210.92 14.46
10526 99.6600 207.00 204.55 14.39
10527 99.6690 184.00 197.21 13.56
10528 99.6780 164.00 189.07 12.81
10529 99.6870 163.00 180.17 12.77
10530 99.6960 178.00 170.48 13.34
10531 99.7050 178.00 160.13 13.34
10532 99.7140 159.00 149.54 12.61
10533 99.7230 142.00 139.15 11.92
10534 99.7320 123.00 129.36 11.09
10535 99.7410 124.00 120.47 11.14
10536 99.7500 128.00 112.66 11.31
10537 99.7590 106.00 106.00 10.30
10538 99.7680 96.00 100.44 9.80
10539 99.7770 100.00 95.92 10.00
10540 99.7860 105.00 92.32 10.25
10541 99.7950 103.00 89.52 10.15
10542 99.8040 85.00 87.38 9.22
10543 99.8130 98.00 85.78 9.90
10544 99.8220 81.00 84.62 9.00
10545 99.8310 80.00 83.81 8.94
10546 99.8400 85.00 83.29 9.22
10547 99.8490 86.00 83.02 9.27
10548 99.8580 103.00 83.00 10.15
10549 99.8670 104.00 83.24 10.20
10550 99.8760 103.00 83.77 10.15
10551 99.8850 93.00 84.63 9.64
10552 99.8940 97.00 85.96 9.85
10553 99.9030 81.00 87.84 9.00
10554 99.9120 98.00 90.43 9.90
10555 99.9210 84.00 93.74 9.17
10556 99.9300 104.00 97.89 10.20
10557 99.9390 99.00 102.94 9.95
10558 99.9480 92.00 108.88 9.59
10559 99.9570 106.00 115.58 10.30
10560 99.9660 125.00 122.82 11.18
10561 99.9750 118.00 130.23 10.86
10562 99.9840 126.00 137.27 11.23
10563 99.9930 147.00 143.22 12.12
10564 100.0020 151.00 147.34 12.29
10565 100.0110 152.00 149.03 12.33
10566 100.0200 171.00 148.15 13.08
10567 100.0290 155.00 145.07 12.45
10568 100.0380 150.00 140.51 12.25
10569 100.0470 145.00 135.22 12.04
10570 100.0560 141.00 129.89 11.87
10571 100.0650 130.00 125.01 11.40
10572 100.0740 135.00 120.93 11.62
10573 100.0830 133.00 117.90 11.53
10574 100.0920 133.00 116.11 11.53
10575 100.1010 133.00 115.63 11.53
10576 100.1100 134.00 116.54 11.58
10577 100.1190 130.00 118.82 11.40
10578 100.1280 133.00 122.44 11.53
10579 100.1370 139.00 127.32 11.79
10580 100.1460 133.00 133.33 11.53
10581 100.1550 143.00 140.29 11.96
10582 100.1640 149.00 147.93 12.21
10583 100.1730 149.00 155.95 12.21
10584 100.1820 182.00 163.93 13.49
10585 100.1910 194.00 171.41 13.93
10586 100.2000 191.00 177.81 13.82
10587 100.2090 211.00 182.53 14.53
10588 100.2180 210.00 185.00 14.49
10589 100.2270 210.00 184.83 14.49
10590 100.2360 218.00 181.93 14.76
10591 100.2450 204.00 176.60 14.28
10592 100.2540 199.00 169.36 14.11
10593 100.2630 171.00 160.90 13.08
10594 100.2720 158.00 151.85 12.57
10595 100.2810 169.00 142.73 13.00
10596 100.2900 150.00 133.96 12.25
10597 100.2990 117.00 125.81 10.82
10598 100.3080 134.00 118.43 11.58
10599 100.3170 136.00 111.94 11.66
10600 100.3260 97.00 106.38 9.85
10601 100.3350 115.00 101.68 10.72
10602 100.3430 77.00 97.83 8.77
10603 100.3520 92.00 94.71 9.59
10604 100.3610 85.00 92.20 9.22
10605 100.3700 96.00 90.24 9.80
10606 100.3790 86.00 88.67 9.27
10607 100.3880 97.00 87.40 9.85
10608 100.3970 107.00 86.32 10.34
10609 100.4060 96.00 85.37 9.80
10610 100.4150 108.00 84.51 10.39
10611 100.4240 95.00 83.71 9.75
10612 100.4330 90.00 82.99 9.49
10613 100.4420 80.00 82.33 8.94
10614 100.4510 85.00 82.11 9.22
10615 100.4600 98.00 81.66 9.90
10616 100.4690 85.00 81.34 9.22
10617 100.4780 92.00 81.15 9.59
10618 100.4870 86.00 81.12 9.27
10619 100.4960 85.00 81.29 9.22
10620 100.5050 79.00 81.68 8.89
10621 100.5140 87.00 82.34 9.33
10622 100.5230 94.00 83.30 9.70
10623 100.5320 83.00 84.62 9.11
10624 100.5410 82.00 86.35 9.06
10625 100.5500 86.00 88.54 9.27
10626 100.5590 97.00 91.21 9.85
10627 100.5680 105.00 94.41 10.25
10628 100.5770 93.00 98.11 9.64
10629 100.5860 93.00 102.29 9.64
10630 100.5950 118.00 106.88 10.86
10631 100.6040 132.00 111.70 11.49
10632 100.6130 127.00 116.58 11.27
10633 100.6220 131.00 121.22 11.45
10634 100.6310 133.00 125.30 11.53
10635 100.6400 130.00 128.53 11.40
10636 100.6490 122.00 130.67 11.05
10637 100.6580 145.00 131.72 12.04
10638 100.6670 133.00 131.49 11.53
10639 100.6760 134.00 130.26 11.58
10640 100.6850 142.00 128.22 11.92
10641 100.6940 120.00 125.62 10.95
10642 100.7030 104.00 122.69 10.20
10643 100.7120 111.00 119.59 10.54
10644 100.7210 109.00 116.39 10.44
10645 100.7300 107.00 113.12 10.34
10646 100.7390 107.00 109.76 10.34
10647 100.7480 123.00 106.35 11.09
10648 100.7570 92.00 102.95 9.59
10649 100.7660 94.00 99.66 9.70
10650 100.7750 88.00 96.56 9.38
10651 100.7840 89.00 93.73 9.43
10652 100.7930 88.00 91.21 9.38
10653 100.8020 98.00 89.03 9.90
10654 100.8110 88.00 87.19 9.38
10655 100.8200 97.00 85.71 9.85
10656 100.8290 101.00 84.57 10.05
10657 100.8380 87.00 83.80 9.33
10658 100.8470 91.00 83.38 9.54
10659 100.8560 83.00 83.34 9.11
10660 100.8650 81.00 83.69 9.00
10661 100.8740 87.00 84.44 9.33
10662 100.8830 88.00 85.58 9.38
10663 100.8920 102.00 87.21 10.10
10664 100.9010 101.00 89.10 10.05
10665 100.9100 86.00 91.25 9.27
10666 100.9190 86.00 93.58 9.27
10667 100.9280 103.00 95.90 10.15
10668 100.9370 99.00 98.00 9.95
10669 100.9460 96.00 99.62 9.80
10670 100.9550 95.00 100.51 9.75
10671 100.9640 110.00 100.54 10.49
10672 100.9730 115.00 99.75 10.72
10673 100.9820 107.00 98.34 10.34
10674 100.9910 103.00 96.59 10.15
10675 101.0000 98.00 94.77 9.90
10676 101.0090 94.00 93.09 9.70
10677 101.0180 89.00 91.74 9.43
10678 101.0270 95.00 90.82 9.75
10679 101.0360 105.00 90.43 10.25
10680 101.0450 110.00 90.60 10.49
10681 101.0540 104.00 91.37 10.20
10682 101.0630 94.00 92.74 9.70
10683 101.0720 89.00 94.71 9.43
10684 101.0810 90.00 97.23 9.49
10685 101.0900 98.00 100.29 9.90
10686 101.0990 113.00 103.81 10.63
10687 101.1080 128.00 107.72 11.31
10688 101.1170 135.00 111.89 11.62
10689 101.1260 116.00 116.19 10.77
10690 101.1350 139.00 120.43 11.79
10691 101.1440 142.00 124.46 11.92
10692 101.1530 142.00 128.15 11.92
10693 101.1620 129.00 131.38 11.36
10694 101.1710 131.00 134.12 11.45
10695 101.1800 154.00 136.28 12.41
10696 101.1890 142.00 137.77 11.92
10697 101.1980 137.00 138.45 11.70
10698 101.2070 135.00 138.18 11.62
10699 101.2160 143.00 136.87 11.96
10700 101.2250 146.00 134.49 12.08
10701 101.2340 138.00 131.15 11.75
10702 101.2430 145.00 127.06 12.04
10703 101.2520 129.00 122.48 11.36
10704 101.2610 130.00 117.76 11.40
10705 101.2700 119.00 112.98 10.91
10706 101.2790 111.00 108.44 10.54
10707 101.2880 121.00 104.22 11.00
10708 101.2970 109.00 100.39 10.44
10709 101.3060 95.00 97.05 9.75
10710 101.3150 91.00 94.18 9.54
10711 101.3240 93.00 91.79 9.64
10712 101.3330 85.00 89.86 9.22
10713 101.3420 98.00 88.39 9.90
10714 101.3510 91.00 87.34 9.54
10715 101.3600 90.00 86.71 9.49
10716 101.3680 97.00 86.49 9.85
10717 101.3770 101.00 86.70 10.05
10718 101.3860 99.00 87.37 9.95
10719 101.3950 99.00 88.51 9.95
10720 101.4040 96.00 90.21 9.80
10721 101.4130 87.00 92.53 9.33
10722 101.4220 85.00 95.52 9.22
10723 101.4310 95.00 99.25 9.75
10724 101.4400 98.00 103.76 9.90
10725 101.4490 101.00 109.05 10.05
10726 101.4580 114.00 115.08 10.68
10727 101.4670 125.00 121.74 11.18
10728 101.4760 136.00 128.81 11.66
10729 101.4850 130.00 135.96 11.40
10730 101.4940 142.00 142.73 11.92
10731 101.5030 154.00 148.64 12.41
10732 101.5120 154.00 153.20 12.41
10733 101.5210 166.00 156.05 12.88
10734 101.5300 172.00 156.95 13.11
10735 101.5390 156.00 156.04 12.49
10736 101.5480 145.00 153.43 12.04
10737 101.5570 151.00 149.49 12.29
10738 101.5660 165.00 144.69 12.85
10739 101.5750 153.00 139.48 12.37
10740 101.5840 154.00 134.20 12.41
10741 101.5930 127.00 129.07 11.27
10742 101.6020 123.00 124.21 11.09
10743 101.6110 128.00 119.61 11.31
10744 101.6200 117.00 115.40 10.82
10745 101.6290 119.00 111.54 10.91
10746 101.6380 126.00 108.04 11.23
10747 101.6470 108.00 104.91 10.39
10748 101.6560 104.00 102.15 10.20
10749 101.6650 102.00 99.77 10.10
10750 101.6740 104.00 97.74 10.20
10751 101.6830 94.00 96.07 9.70
10752 101.6920 95.00 94.73 9.75
10753 101.7010 101.00 93.70 10.05
10754 101.7100 86.00 92.97 9.27
10755 101.7190 84.00 92.51 9.17
10756 101.7280 88.00 92.29 9.38
10757 101.7370 99.00 92.28 9.95
10758 101.7460 83.00 92.44 9.11
10759 101.7550 88.00 92.70 9.38
10760 101.7640 95.00 93.00 9.75
10761 101.7730 86.00 93.29 9.27
10762 101.7820 97.00 93.48 9.85
10763 101.7910 98.00 93.52 9.90
10764 101.8000 97.00 93.40 9.85
10765 101.8090 103.00 93.08 10.15
10766 101.8180 101.00 92.61 10.05
10767 101.8270 86.00 92.04 9.27
10768 101.8360 94.00 91.37 9.70
10769 101.8450 108.00 90.67 10.39
10770 101.8540 91.00 89.99 9.54
10771 101.8630 85.00 89.36 9.22
10772 101.8720 95.00 88.81 9.75
10773 101.8810 96.00 88.37 9.80
10774 101.8900 97.00 88.06 9.85
10775 101.8990 99.00 87.89 9.95
10776 101.9080 93.00 87.88 9.64
10777 101.9170 95.00 88.05 9.75
10778 101.9260 102.00 88.42 10.10
10779 101.9350 113.00 89.02 10.63
10780 101.9440 114.00 89.91 10.68
10781 101.9530 96.00 91.15 9.80
10782 101.9620 102.00 92.84 10.10
10783 101.9710 99.00 95.09 9.95
10784 101.9800 118.00 98.06 10.86
10785 101.9890 114.00 101.88 10.68
10786 101.9980 106.00 106.72 10.30
10787 102.0070 103.00 112.74 10.15
10788 102.0160 117.00 120.06 10.82
10789 102.0250 142.00 128.75 11.92
10790 102.0340 140.00 138.73 11.83
10791 102.0430 152.00 149.90 12.33
10792 102.0520 147.00 161.90 12.12
10793 102.0610 171.00 174.21 13.08
10794 102.0700 176.00 186.09 13.27
10795 102.0790 194.00 196.60 13.93
10796 102.0880 232.00 204.74 15.23
10797 102.0970 202.00 209.86 14.21
10798 102.1060 184.00 211.91 13.56
10799 102.1150 187.00 211.54 13.67
10800 102.1240 183.00 209.81 13.53
10801 102.1330 184.00 207.84 13.56
10802 102.1420 205.00 206.58 14.32
10803 102.1510 213.00 206.71 14.59
10804 102.1600 197.00 208.65 14.04
10805 102.1690 198.00 212.60 14.07
10806 102.1780 224.00 218.53 14.97
10807 102.1870 226.00 226.20 15.03
10808 102.1960 242.00 235.21 15.56
10809 102.2050 245.00 244.98 15.65
10810 102.2140 262.00 255.12 16.19
10811 102.2230 264.00 265.13 16.25
10812 102.2320 281.00 274.73 16.76
10813 102.2410 283.00 283.72 16.82
10814 102.2500 265.00 291.91 16.28
10815 102.2590 269.00 298.99 16.40
10816 102.2680 296.00 304.52 17.20
10817 102.2770 299.00 307.92 17.29
10818 102.2860 284.00 308.65 16.85
10819 102.2950 297.00 306.34 17.23
10820 102.3040 315.00 300.95 17.75
10821 102.3130 318.00 292.83 17.83
10822 102.3220 296.00 282.67 17.20
10823 102.3310 272.00 271.30 16.49
10824 102.3400 264.00 259.67 16.25
10825 102.3490 285.00 248.55 16.88
10826 102.3580 259.00 238.61 16.09
10827 102.3670 251.00 230.40 15.84
10828 102.3760 226.00 224.24 15.03
10829 102.3840 208.00 220.38 14.42
10830 102.3930 190.00 218.87 13.78
10831 102.4020 208.00 219.64 14.42
10832 102.4110 220.00 222.45 14.83
10833 102.4200 229.00 226.92 15.13
10834 102.4290 217.00 232.49 14.73
10835 102.4380 233.00 238.41 15.26
10836 102.4470 239.00 243.85 15.46
10837 102.4560 247.00 247.88 15.72
10838 102.4650 250.00 249.67 15.81
10839 102.4740 244.00 248.67 15.62
10840 102.4830 281.00 244.66 16.76
10841 102.4920 238.00 237.96 15.43
10842 102.5010 244.00 229.12 15.62
10843 102.5100 228.00 218.82 15.10
10844 102.5190 222.00 207.75 14.90
10845 102.5280 204.00 196.56 14.28
10846 102.5370 190.00 185.30 13.78
10847 102.5460 178.00 174.31 13.34
10848 102.5550 153.00 163.74 12.37
10849 102.5640 159.00 153.74 12.61
10850 102.5730 156.00 144.49 12.49
10851 102.5820 147.00 136.11 12.12
10852 102.5910 131.00 128.69 11.45
10853 102.6000 127.00 122.23 11.27
10854 102.6090 112.00 116.67 10.58
10855 102.6180 116.00 111.98 10.77
10856 102.6270 124.00 108.03 11.14
10857 102.6360 118.00 104.76 10.86
10858 102.6450 118.00 102.09 10.86
10859 102.6540 107.00 99.94 10.34
10860 102.6630 86.00 98.25 9.27
10861 102.6720 95.00 96.97 9.75
10862 102.6810 109.00 96.06 10.44
10863 102.6900 103.00 95.49 10.15
10864 102.6990 88.00 95.26 9.38
10865 102.7080 83.00 95.37 9.11
10866 102.7170 91.00 95.82 9.54
10867 102.7260 95.00 96.62 9.75
10868 102.7350 99.00 97.80 9.95
10869 102.7440 102.00 99.38 10.10
10870 102.7530 105.00 101.37 10.25
10871 102.7620 104.00 103.78 10.20
10872 102.7710 106.00 106.60 10.30
10873 102.7800 117.00 109.83 10.82
10874 102.7890 122.00 113.42 11.05
10875 102.7980 104.00 117.29 10.20
10876 102.8070 103.00 121.38 10.15
10877 102.8160 125.00 125.57 11.18
10878 102.8250 122.00 129.79 11.05
10879 102.8340 120.00 133.99 10.95
10880 102.8430 119.00 138.15 10.91
10881 102.8520 122.00 142.29 11.05
10882 102.8610 138.00 146.44 11.75
10883 102.8700 122.00 150.57 11.05
10884 102.8790 116.00 154.61 10.77
10885 102.8880 167.00 158.41 12.92
10886 102.8970 142.00 161.78 11.92
10887 102.9060 148.00 164.52 12.17
10888 102.9150 143.00 166.41 11.96
10889 102.9240 138.00 167.36 11.75
10890 102.9330 187.00 167.35 13.67
10891 102.9420 159.00 166.51 12.61
10892 102.9510 135.00 165.11 11.62
10893 102.9600 149.00 163.42 12.21
10894 102.9690 171.00 161.76 13.08
10895 102.9780 148.00 160.36 12.17
10896 102.9870 161.00 159.41 12.69
10897 102.9960 146.00 159.00 12.08
10898 103.0050 139.00 159.09 11.79
10899 103.0140 143.00 159.57 11.96
10900 103.0230 159.00 160.19 12.61
10901 103.0320 170.00 160.61 13.04
10902 103.0410 157.00 160.41 12.53
10903 103.0500 171.00 159.24 13.08
10904 103.0590 175.00 156.86 13.23
10905 103.0680 169.00 153.23 13.00
10906 103.0770 149.00 148.54 12.21
10907 103.0860 142.00 143.10 11.92
10908 103.0950 140.00 137.15 11.83
10909 103.1040 135.00 131.03 11.62
10910 103.1130 134.00 125.00 11.58
10911 103.1220 135.00 119.27 11.62
10912 103.1310 132.00 113.96 11.49
10913 103.1400 117.00 109.18 10.82
10914 103.1490 104.00 104.94 10.20
10915 103.1580 99.00 101.29 9.95
10916 103.1670 98.00 98.20 9.90
10917 103.1760 96.00 95.61 9.80
10918 103.1850 96.00 93.57 9.80
10919 103.1940 83.00 91.99 9.11
10920 103.2030 88.00 90.85 9.38
10921 103.2120 91.00 90.12 9.54
10922 103.2210 76.00 89.77 8.72
10923 103.2300 82.00 89.78 9.06
10924 103.2390 93.00 90.12 9.64
10925 103.2480 92.00 90.78 9.59
10926 103.2570 99.00 91.73 9.95
10927 103.2660 101.00 92.94 10.05
10928 103.2750 90.00 94.39 9.49
10929 103.2840 99.00 96.01 9.95
10930 103.2930 103.00 97.80 10.15
10931 103.3020 89.00 99.64 9.43
10932 103.3110 108.00 101.48 10.39
10933 103.3200 115.00 103.20 10.72
10934 103.3290 106.00 104.67 10.30
10935 103.3380 109.00 105.81 10.44
10936 103.3470 111.00 106.55 10.54
10937 103.3560 115.00 106.89 10.72
10938 103.3650 97.00 106.89 9.85
10939 103.3740 105.00 106.65 10.25
10940 103.3830 119.00 106.29 10.91
10941 103.3920 115.00 105.89 10.72
10942 103.4000 120.00 105.54 10.95
10943 103.4090 111.00 105.27 10.54
10944 103.4180 103.00 105.07 10.15
10945 103.4270 115.00 104.92 10.72
10946 103.4360 109.00 104.75 10.44
10947 103.4450 119.00 104.47 10.91
10948 103.4540 114.00 104.02 10.68
10949 103.4630 123.00 103.44 11.09
10950 103.4720 117.00 102.54 10.82
10951 103.4810 116.00 101.45 10.77
10952 103.4900 113.00 100.27 10.63
10953 103.4990 108.00 99.08 10.39
10954 103.5080 102.00 97.98 10.10
10955 103.5170 104.00 97.05 10.20
10956 103.5260 106.00 96.36 10.30
10957 103.5350 101.00 95.92 10.05
10958 103.5440 95.00 95.77 9.75
10959 103.5530 95.00 95.88 9.75
10960 103.5620 101.00 96.23 10.05
10961 103.5710 106.00 96.76 10.30
10962 103.5800 103.00 97.44 10.15
10963 103.5890 97.00 98.04 9.85
10964 103.5980 106.00 98.51 10.30
10965 103.6070 112.00 98.74 10.58
10966 103.6160 100.00 98.69 10.00
10967 103.6250 105.00 98.34 10.25
10968 103.6340 89.00 97.74 9.43
10969 103.6430 85.00 96.91 9.22
10970 103.6520 95.00 95.91 9.75
10971 103.6610 113.00 94.78 10.63
10972 103.6700 89.00 93.72 9.43
10973 103.6790 90.00 92.45 9.49
10974 103.6880 92.00 91.19 9.59
10975 103.6970 98.00 89.98 9.90
10976 103.7060 101.00 88.88 10.05
10977 103.7150 92.00 87.92 9.59
10978 103.7240 79.00 87.14 8.89
10979 103.7330 87.00 86.55 9.33
10980 103.7420 93.00 86.14 9.64
10981 103.7510 105.00 85.98 10.25
10982 103.7600 83.00 86.05 9.11
10983 103.7690 81.00 86.36 9.00
10984 103.7780 100.00 86.89 10.00
10985 103.7870 67.00 87.65 8.19
10986 103.7960 83.00 88.61 9.11
10987 103.8050 81.00 89.77 9.00
10988 103.8140 76.00 91.09 8.72
10989 103.8230 82.00 92.54 9.06
10990 103.8320 89.00 94.05 9.43
10991 103.8410 94.00 95.57 9.70
10992 103.8500 103.00 97.00 10.15
10993 103.8590 87.00 98.25 9.33
10994 103.8680 106.00 99.22 10.30
10995 103.8770 127.00 99.81 11.27
10996 103.8860 119.00 99.99 10.91
10997 103.8950 101.00 99.75 10.05
10998 103.9040 96.00 99.15 9.80
10999 103.9130 93.00 98.29 9.64
11000 103.9220 89.00 97.27 9.43
11001 103.9310 96.00 96.22 9.80
11002 103.9400 98.00 95.25 9.90
11003 103.9490 97.00 94.43 9.85
11004 103.9580 92.00 93.84 9.59
11005 103.9670 84.00 93.53 9.17
11006 103.9760 87.00 93.53 9.33
11007 103.9850 92.00 93.85 9.59
11008 103.9940 96.00 94.51 9.80
11009 104.0030 99.00 95.46 9.95
11010 104.0120 95.00 96.66 9.75
11011 104.0210 88.00 98.04 9.38
11012 104.0300 92.00 99.46 9.59
11013 104.0390 100.00 100.81 10.00
11014 104.0480 110.00 101.89 10.49
11015 104.0570 108.00 102.58 10.39
11016 104.0660 97.00 102.78 9.85
11017 104.0750 101.00 102.48 10.05
11018 104.0840 96.00 101.79 9.80
11019 104.0930 110.00 100.85 10.49
11020 104.1020 112.00 99.83 10.58
11021 104.1110 97.00 98.89 9.85
11022 104.1200 109.00 98.17 10.44
11023 104.1290 100.00 97.78 10.00
11024 104.1380 106.00 97.85 10.30
11025 104.1470 103.00 98.48 10.15
11026 104.1560 111.00 99.81 10.54
11027 104.1650 122.00 102.00 11.05
11028 104.1740 123.00 105.24 11.09
11029 104.1830 112.00 109.74 10.58
11030 104.1920 118.00 115.75 10.86
11031 104.2010 155.00 123.50 12.45
11032 104.2100 133.00 133.25 11.53
11033 104.2190 171.00 145.20 13.08
11034 104.2280 166.00 159.44 12.88
11035 104.2370 186.00 175.98 13.64
11036 104.2460 207.00 194.61 14.39
11037 104.2550 243.00 214.90 15.59
11038 104.2640 278.00 236.19 16.67
11039 104.2730 293.00 257.38 17.12
11040 104.2820 324.00 276.93 18.00
11041 104.2910 357.00 293.03 18.89
11042 104.3000 357.00 303.74 18.89
11043 104.3090 336.00 307.42 18.33
11044 104.3180 337.00 303.45 18.36
11045 104.3270 313.00 292.43 17.69
11046 104.3360 285.00 276.00 16.88
11047 104.3450 243.00 256.12 15.59
11048 104.3540 227.00 234.72 15.07
11049 104.3630 219.00 213.23 14.80
11050 104.3720 198.00 192.74 14.07
11051 104.3810 169.00 173.97 13.00
11052 104.3900 149.00 157.29 12.21
11053 104.3980 142.00 142.88 11.92
11054 104.4070 131.00 130.74 11.45
11055 104.4160 118.00 120.79 10.86
11056 104.4250 108.00 112.64 10.39
11057 104.4340 102.00 106.20 10.10
11058 104.4430 97.00 101.13 9.85
11059 104.4520 91.00 97.17 9.54
11060 104.4610 102.00 94.08 10.10
11061 104.4700 99.00 91.66 9.95
11062 104.4790 91.00 89.75 9.54
11063 104.4880 102.00 88.22 10.10
11064 104.4970 80.00 86.97 8.94
11065 104.5060 82.00 85.95 9.06
11066 104.5150 77.00 85.09 8.77
11067 104.5240 75.00 84.36 8.66
11068 104.5330 70.00 83.74 8.37
11069 104.5420 84.00 83.21 9.17
11070 104.5510 97.00 82.64 9.85
11071 104.5600 77.00 82.25 8.77
11072 104.5690 83.00 81.93 9.11
11073 104.5780 72.00 81.67 8.49
11074 104.5870 70.00 81.47 8.37
11075 104.5960 68.00 81.33 8.25
11076 104.6050 83.00 81.24 9.11
11077 104.6140 69.00 81.23 8.31
11078 104.6230 78.00 81.32 8.83
11079 104.6320 71.00 81.45 8.43
11080 104.6410 84.00 81.69 9.17
11081 104.6500 89.00 82.02 9.43
11082 104.6590 88.00 82.48 9.38
11083 104.6680 85.00 83.07 9.22
11084 104.6770 82.00 83.82 9.06
11085 104.6860 99.00 84.73 9.95
11086 104.6950 88.00 85.81 9.38
11087 104.7040 83.00 87.06 9.11
11088 104.7130 92.00 88.47 9.59
11089 104.7220 91.00 90.03 9.54
11090 104.7310 100.00 91.70 10.00
11091 104.7400 94.00 93.46 9.70
11092 104.7490 94.00 95.23 9.70
11093 104.7580 95.00 96.90 9.75
11094 104.7670 93.00 98.36 9.64
11095 104.7760 98.00 99.40 9.90
11096 104.7850 109.00 99.88 10.44
11097 104.7940 107.00 99.73 10.34
11098 104.8030 103.00 98.97 10.15
11099 104.8120 103.00 97.75 10.15
11100 104.8210 96.00 96.28 9.80
11101 104.8300 95.00 94.73 9.75
11102 104.8390 103.00 93.25 10.15
11103 104.8480 99.00 91.96 9.95
11104 104.8570 91.00 90.98 9.54
11105 104.8660 90.00 90.34 9.49
11106 104.8750 88.00 90.08 9.38
11107 104.8840 88.00 90.20 9.38
11108 104.8930 89.00 90.71 9.43
11109 104.9020 104.00 91.61 10.20
11110 104.9110 95.00 92.86 9.75
11111 104.9200 95.00 94.45 9.75
11112 104.9290 103.00 96.34 10.15
11113 104.9380 121.00 98.49 11.00
11114 104.9470 96.00 100.83 9.80
11115 104.9560 95.00 103.31 9.75
11116 104.9650 91.00 105.84 9.54
11117 104.9740 98.00 108.30 9.90
11118 104.9830 110.00 110.57 10.49
11119 104.9920 85.00 112.49 9.22
11120 105.0010 100.00 113.94 10.00
11121 105.0100 90.00 114.81 9.49
11122 105.0190 100.00 115.03 10.00
11123 105.0280 101.00 114.65 10.05
11124 105.0370 122.00 113.75 11.05
11125 105.0460 97.00 112.48 9.85
11126 105.0550 107.00 110.98 10.34
11127 105.0640 110.00 109.41 10.49
11128 105.0730 98.00 107.88 9.90
11129 105.0820 102.00 106.50 10.10
11130 105.0910 122.00 105.32 11.05
11131 105.1000 100.00 104.42 10.00
11132 105.1090 100.00 103.82 10.00
11133 105.1180 98.00 103.56 9.90
11134 105.1270 100.00 103.65 10.00
11135 105.1360 97.00 104.11 9.85
11136 105.1450 102.00 104.96 10.10
11137 105.1540 102.00 106.21 10.10
11138 105.1630 107.00 107.91 10.34
11139 105.1720 125.00 110.10 11.18
11140 105.1810 113.00 112.84 10.63
11141 105.1900 108.00 116.24 10.39
11142 105.1990 115.00 120.39 10.72
11143 105.2080 129.00 125.42 11.36
11144 105.2170 127.00 131.44 11.27
11145 105.2260 132.00 138.54 11.49
11146 105.2350 150.00 146.82 12.25
11147 105.2440 158.00 156.28 12.57
11148 105.2530 164.00 166.90 12.81
11149 105.2620 181.00 178.59 13.45
11150 105.2710 206.00 191.14 14.35
11151 105.2800 214.00 204.24 14.63
11152 105.2890 207.00 217.61 14.39
11153 105.2980 219.00 230.97 14.80
11154 105.3070 242.00 244.23 15.56
11155 105.3160 249.00 257.64 15.78
11156 105.3250 247.00 271.51 15.72
11157 105.3340 271.00 286.08 16.46
11158 105.3430 316.00 301.42 17.78
11159 105.3520 314.00 317.23 17.72
11160 105.3610 320.00 332.99 17.89
11161 105.3700 323.00 347.61 17.97
11162 105.3790 327.00 360.01 18.08
11163 105.3880 331.00 369.16 18.19
11164 105.3960 351.00 374.29 18.74
11165 105.4050 357.00 375.14 18.89
11166 105.4140 366.00 371.86 19.13
11167 105.4230 361.00 364.85 19.00
11168 105.4320 339.00 354.63 18.41
11169 105.4410 332.00 341.74 18.22
11170 105.4500 355.00 326.82 18.84
11171 105.4590 329.00 310.55 18.14
11172 105.4680 287.00 293.58 16.94
11173 105.4770 261.00 276.55 16.16
11174 105.4860 230.00 259.87 15.17
11175 105.4950 257.00 243.88 16.03
11176 105.5040 239.00 228.78 15.46
11177 105.5130 218.00 214.56 14.76
11178 105.5220 207.00 201.18 14.39
11179 105.5310 193.00 188.61 13.89
11180 105.5400 169.00 176.80 13.00
11181 105.5490 164.00 165.82 12.81
11182 105.5580 169.00 155.69 13.00
11183 105.5670 147.00 146.49 12.12
11184 105.5760 143.00 138.24 11.96
11185 105.5850 134.00 130.96 11.58
11186 105.5940 122.00 124.61 11.05
11187 105.6030 108.00 119.15 10.39
11188 105.6120 102.00 114.53 10.10
11189 105.6210 108.00 110.68 10.39
11190 105.6300 105.00 107.54 10.25
11191 105.6390 102.00 105.02 10.10
11192 105.6480 98.00 103.06 9.90
11193 105.6570 98.00 101.60 9.90
11194 105.6660 105.00 100.58 10.25
11195 105.6750 108.00 99.94 10.39
11196 105.6840 103.00 99.61 10.15
11197 105.6930 107.00 99.54 10.34
11198 105.7020 111.00 99.68 10.54
11199 105.7110 100.00 99.99 10.00
11200 105.7200 108.00 100.40 10.39
11201 105.7290 106.00 100.87 10.30
11202 105.7380 99.00 101.37 9.95
11203 105.7470 97.00 101.91 9.85
11204 105.7560 102.00 102.49 10.10
11205 105.7650 116.00 103.17 10.77
11206 105.7740 100.00 104.01 10.00
11207 105.7830 105.00 105.05 10.25
11208 105.7920 106.00 106.33 10.30
11209 105.8010 104.00 107.88 10.20
11210 105.8100 87.00 109.68 9.33
11211 105.8190 105.00 111.67 10.25
11212 105.8280 101.00 113.78 10.05
11213 105.8370 97.00 115.88 9.85
11214 105.8460 102.00 117.82 10.10
11215 105.8550 111.00 119.39 10.54
11216 105.8640 128.00 120.40 11.31
11217 105.8730 122.00 120.69 11.05
11218 105.8820 115.00 120.16 10.72
11219 105.8910 129.00 118.85 11.36
11220 105.9000 112.00 116.86 10.58
11221 105.9090 97.00 114.37 9.85
11222 105.9180 115.00 111.58 10.72
11223 105.9270 103.00 108.75 10.15
11224 105.9360 108.00 105.90 10.39
11225 105.9450 81.00 103.20 9.00
11226 105.9540 99.00 100.73 9.95
11227 105.9630 102.00 98.56 10.10
11228 105.9720 103.00 96.71 10.15
11229 105.9810 96.00 95.19 9.80
11230 105.9900 95.00 94.01 9.75
11231 105.9990 84.00 93.13 9.17
11232 106.0080 86.00 92.55 9.27
11233 106.0170 91.00 92.20 9.54
11234 106.0260 88.00 92.05 9.38
11235 106.0350 91.00 92.05 9.54
11236 106.0440 95.00 92.13 9.75
11237 106.0530 93.00 92.24 9.64
11238 106.0620 92.00 92.34 9.59
11239 106.0710 93.00 92.42 9.64
11240 106.0800 98.00 92.49 9.90
11241 106.0890 101.00 92.56 10.05
11242 106.0980 98.00 92.53 9.90
11243 106.1070 89.00 92.83 9.43
11244 106.1160 91.00 93.18 9.54
11245 106.1250 99.00 93.69 9.95
11246 106.1340 92.00 94.36 9.59
11247 106.1430 89.00 95.19 9.43
11248 106.1520 98.00 96.38 9.90
11249 106.1610 93.00 97.43 9.64
11250 106.1700 100.00 98.50 10.00
11251 106.1790 103.00 99.53 10.15
11252 106.1880 116.00 100.47 10.77
11253 106.1970 120.00 101.31 10.95
11254 106.2060 105.00 102.12 10.25
11255 106.2150 103.00 103.01 10.15
11256 106.2240 123.00 104.08 11.09
11257 106.2330 121.00 105.48 11.00
11258 106.2420 113.00 107.27 10.63
11259 106.2510 99.00 109.50 9.95
11260 106.2600 93.00 112.18 9.64
11261 106.2690 112.00 115.24 10.58
11262 106.2780 118.00 118.58 10.86
11263 106.2870 119.00 122.02 10.91
11264 106.2960 119.00 125.30 10.91
11265 106.3050 108.00 128.18 10.39
11266 106.3140 131.00 130.40 11.45
11267 106.3230 126.00 131.79 11.23
11268 106.3320 135.00 132.36 11.62
11269 106.3410 149.00 132.23 12.21
11270 106.3500 129.00 131.63 11.36
11271 106.3590 110.00 130.80 10.49
11272 106.3680 117.00 129.91 10.82
11273 106.3770 125.00 129.10 11.18
11274 106.3860 124.00 128.42 11.14
11275 106.3940 117.00 127.88 10.82
11276 106.4030 111.00 127.43 10.54
11277 106.4120 119.00 127.03 10.91
11278 106.4210 131.00 126.65 11.45
11279 106.4300 123.00 126.26 11.09
11280 106.4390 127.00 125.87 11.27
11281 106.4480 120.00 125.52 10.95
11282 106.4570 112.00 125.24 10.58
11283 106.4660 106.00 125.03 10.30
11284 106.4750 108.00 124.86 10.39
11285 106.4840 119.00 124.68 10.91
11286 106.4930 118.00 124.35 10.86
11287 106.5020 108.00 123.71 10.39
11288 106.5110 111.00 122.69 10.54
11289 106.5200 121.00 121.14 11.00
11290 106.5290 118.00 119.13 10.86
11291 106.5380 105.00 116.77 10.25
11292 106.5470 109.00 114.22 10.44
11293 106.5560 113.00 111.64 10.63
11294 106.5650 98.00 109.13 9.90
11295 106.5740 103.00 106.77 10.15
11296 106.5830 114.00 104.58 10.68
11297 106.5920 112.00 102.56 10.58
11298 106.6010 99.00 100.69 9.95
11299 106.6100 98.00 98.92 9.90
11300 106.6190 107.00 97.24 10.34
11301 106.6280 113.00 95.64 10.63
11302 106.6370 102.00 94.11 10.10
11303 106.6460 87.00 92.65 9.33
11304 106.6550 90.00 91.27 9.49
11305 106.6640 108.00 89.99 10.39
11306 106.6730 94.00 88.80 9.70
11307 106.6820 78.00 87.72 8.83
11308 106.6910 98.00 86.74 9.90
11309 106.7000 107.00 85.86 10.34
11310 106.7090 85.00 85.08 9.22
11311 106.7180 102.00 84.39 10.10
11312 106.7270 88.00 83.81 9.38
11313 106.7360 95.00 83.31 9.75
11314 106.7450 92.00 82.90 9.59
11315 106.7540 81.00 82.57 9.00
11316 106.7630 85.00 82.33 9.22
11317 106.7720 79.00 82.43 8.89
11318 106.7810 84.00 82.34 9.17
11319 106.7900 80.00 82.33 8.94
11320 106.7990 93.00 82.39 9.64
11321 106.8080 78.00 82.54 8.83
11322 106.8170 84.00 82.77 9.17
11323 106.8260 89.00 83.10 9.43
11324 106.8350 82.00 83.52 9.06
11325 106.8440 80.00 84.05 8.94
11326 106.8530 72.00 84.68 8.49
11327 106.8620 81.00 85.44 9.00
11328 106.8710 82.00 86.31 9.06
11329 106.8800 81.00 87.31 9.00
11330 106.8890 86.00 88.41 9.27
11331 106.8980 78.00 89.63 8.83
11332 106.9070 87.00 90.92 9.33
11333 106.9160 90.00 92.28 9.49
11334 106.9250 85.00 93.67 9.22
11335 106.9340 106.00 95.03 10.30
11336 106.9430 114.00 96.33 10.68
11337 106.9520 95.00 97.52 9.75
11338 106.9610 93.00 98.55 9.64
11339 106.9700 101.00 99.43 10.05
11340 106.9790 100.00 100.20 10.00
11341 106.9880 107.00 100.95 10.34
11342 106.9970 105.00 101.81 10.25
11343 107.0060 95.00 102.91 9.75
11344 107.0150 113.00 104.40 10.63
11345 107.0240 119.00 106.41 10.91
11346 107.0330 103.00 109.06 10.15
11347 107.0420 116.00 112.41 10.77
11348 107.0510 122.00 116.50 11.05
11349 107.0600 117.00 121.31 10.82
11350 107.0690 120.00 126.73 10.95
11351 107.0780 126.00 132.60 11.23
11352 107.0870 140.00 138.63 11.83
11353 107.0960 150.00 144.40 12.25
11354 107.1050 140.00 149.42 11.83
11355 107.1140 153.00 153.04 12.37
11356 107.1230 144.00 154.77 12.00
11357 107.1320 143.00 154.36 11.96
11358 107.1410 146.00 151.82 12.08
11359 107.1500 107.00 147.61 10.34
11360 107.1590 147.00 142.22 12.12
11361 107.1680 118.00 136.16 10.86
11362 107.1770 110.00 129.87 10.49
11363 107.1860 108.00 123.66 10.39
11364 107.1950 121.00 117.83 11.00
11365 107.2040 118.00 112.44 10.86
11366 107.2130 133.00 107.73 11.53
11367 107.2220 104.00 103.65 10.20
11368 107.2310 93.00 100.19 9.64
11369 107.2400 90.00 97.32 9.49
11370 107.2490 99.00 94.98 9.95
11371 107.2580 85.00 93.08 9.22
11372 107.2670 78.00 91.60 8.83
11373 107.2760 81.00 90.71 9.00
11374 107.2850 89.00 89.87 9.43
11375 107.2940 83.00 89.28 9.11
11376 107.3030 87.00 88.93 9.33
11377 107.3120 89.00 88.79 9.43
11378 107.3210 84.00 88.85 9.17
11379 107.3300 79.00 89.16 8.89
11380 107.3390 87.00 89.61 9.33
11381 107.3480 102.00 90.27 10.10
11382 107.3570 95.00 91.12 9.75
11383 107.3660 84.00 92.16 9.17
11384 107.3740 96.00 93.40 9.80
11385 107.3830 98.00 94.82 9.90
11386 107.3920 85.00 96.41 9.22
11387 107.4010 90.00 98.11 9.49
11388 107.4100 101.00 99.93 10.05
11389 107.4190 104.00 101.78 10.20
11390 107.4280 94.00 103.59 9.70
11391 107.4370 90.00 105.28 9.49
11392 107.4460 103.00 106.73 10.15
11393 107.4550 99.00 107.88 9.95
11394 107.4640 119.00 108.63 10.91
11395 107.4730 106.00 108.96 10.30
11396 107.4820 119.00 108.84 10.91
11397 107.4910 96.00 108.32 9.80
11398 107.5000 107.00 107.47 10.34
11399 107.5090 111.00 106.38 10.54
11400 107.5180 101.00 105.18 10.05
11401 107.5270 111.00 103.98 10.54
11402 107.5360 92.00 102.89 9.59
11403 107.5450 85.00 101.97 9.22
11404 107.5540 87.00 101.30 9.33
11405 107.5630 95.00 100.92 9.75
11406 107.5720 98.00 100.86 9.90
11407 107.5810 99.00 101.12 9.95
11408 107.5900 109.00 101.69 10.44
11409 107.5990 123.00 102.61 11.09
11410 107.6080 113.00 103.83 10.63
11411 107.6170 109.00 105.32 10.44
11412 107.6260 115.00 107.01 10.72
11413 107.6350 103.00 108.89 10.15
11414 107.6440 100.00 110.88 10.00
11415 107.6530 97.00 113.03 9.85
11416 107.6620 87.00 115.31 9.33
11417 107.6710 95.00 117.69 9.75
11418 107.6800 120.00 120.12 10.95
11419 107.6890 120.00 122.54 10.95
11420 107.6980 124.00 124.87 11.14
11421 107.7070 134.00 127.04 11.58
11422 107.7160 138.00 129.01 11.75
11423 107.7250 116.00 130.78 10.77
11424 107.7340 108.00 132.39 10.39
11425 107.7430 122.00 133.84 11.05
11426 107.7520 125.00 135.10 11.18
11427 107.7610 132.00 136.15 11.49
11428 107.7700 121.00 136.89 11.00
11429 107.7790 114.00 137.27 10.68
11430 107.7880 127.00 137.22 11.27
11431 107.7970 137.00 136.72 11.70
11432 107.8060 137.00 135.77 11.70
11433 107.8150 134.00 134.39 11.58
11434 107.8240 138.00 132.65 11.75
11435 107.8330 131.00 130.65 11.45
11436 107.8420 128.00 128.46 11.31
11437 107.8510 132.00 126.19 11.49
11438 107.8600 119.00 123.92 10.91
11439 107.8690 124.00 121.75 11.14
11440 107.8780 132.00 119.74 11.49
11441 107.8870 129.00 117.96 11.36
11442 107.8960 108.00 116.51 10.39
11443 107.9050 107.00 115.32 10.34
11444 107.9140 115.00 114.47 10.72
11445 107.9230 109.00 114.00 10.44
11446 107.9320 117.00 113.94 10.82
11447 107.9410 98.00 114.29 9.90
11448 107.9500 115.00 115.07 10.72
11449 107.9590 122.00 116.27 11.05
11450 107.9680 106.00 117.91 10.30
11451 107.9770 111.00 120.11 10.54
11452 107.9860 107.00 122.52 10.34
11453 107.9950 129.00 125.24 11.36
11454 108.0040 145.00 128.23 12.04
11455 108.0130 126.00 131.31 11.23
11456 108.0220 114.00 134.44 10.68
11457 108.0310 124.00 137.64 11.14
11458 108.0400 126.00 140.95 11.23
11459 108.0490 143.00 144.46 11.96
11460 108.0580 117.00 148.38 10.82
11461 108.0670 119.00 152.70 10.91
11462 108.0760 169.00 157.63 13.00
11463 108.0850 159.00 163.27 12.61
11464 108.0940 172.00 169.73 13.11
11465 108.1030 158.00 177.07 12.57
11466 108.1120 172.00 185.34 13.11
11467 108.1210 187.00 194.59 13.67
11468 108.1300 204.00 204.84 14.28
11469 108.1390 228.00 216.12 15.10
11470 108.1480 225.00 228.49 15.00
11471 108.1570 239.00 241.99 15.46
11472 108.1660 261.00 256.70 16.16
11473 108.1750 278.00 272.71 16.67
11474 108.1840 296.00 290.07 17.20
11475 108.1930 315.00 308.75 17.75
11476 108.2020 331.00 328.64 18.19
11477 108.2110 353.00 349.41 18.79
11478 108.2200 378.00 370.63 19.44
11479 108.2290 393.00 391.52 19.82
11480 108.2380 399.00 411.19 19.98
11481 108.2470 423.00 428.52 20.57
11482 108.2560 436.00 442.29 20.88
11483 108.2650 436.00 451.39 20.88
11484 108.2740 465.00 454.89 21.56
11485 108.2830 459.00 452.20 21.42
11486 108.2920 448.00 443.13 21.17
11487 108.3010 430.00 428.00 20.74
11488 108.3100 413.00 407.64 20.32
11489 108.3190 371.00 383.35 19.26
11490 108.3280 336.00 356.56 18.33
11491 108.3370 331.00 328.78 18.19
11492 108.3460 307.00 301.27 17.52
11493 108.3540 298.00 274.93 17.26
11494 108.3630 240.00 250.48 15.49
11495 108.3720 230.00 228.30 15.17
11496 108.3810 195.00 208.61 13.96
11497 108.3900 158.00 191.49 12.57
11498 108.3990 165.00 176.84 12.85
11499 108.4080 168.00 164.53 12.96
11500 108.4170 159.00 154.38 12.61
11501 108.4260 163.00 146.12 12.77
11502 108.4350 144.00 139.52 12.00
11503 108.4440 141.00 134.34 11.87
11504 108.4530 164.00 130.34 12.81
11505 108.4620 118.00 127.34 10.86
11506 108.4710 134.00 125.19 11.58
11507 108.4800 114.00 123.76 10.68
11508 108.4890 116.00 122.97 10.77
11509 108.4980 131.00 122.77 11.45
11510 108.5070 110.00 123.14 10.49
11511 108.5160 135.00 124.10 11.62
11512 108.5250 137.00 125.70 11.70
11513 108.5340 131.00 128.00 11.45
11514 108.5430 140.00 131.11 11.83
11515 108.5520 150.00 135.14 12.25
11516 108.5610 135.00 140.24 11.62
11517 108.5700 141.00 146.52 11.87
11518 108.5790 154.00 154.14 12.41
11519 108.5880 158.00 163.22 12.57
11520 108.5970 152.00 173.76 12.33
11521 108.6060 174.00 185.79 13.19
11522 108.6150 182.00 199.21 13.49
11523 108.6240 191.00 213.75 13.82
11524 108.6330 207.00 229.07 14.39
11525 108.6420 223.00 244.60 14.93
11526 108.6510 231.00 259.58 15.20
11527 108.6600 241.00 273.17 15.52
11528 108.6690 255.00 284.56 15.97
11529 108.6780 245.00 293.24 15.65
11530 108.6870 258.00 299.12 16.06
11531 108.6960 271.00 302.52 16.46
11532 108.7050 254.00 304.01 15.94
11533 108.7140 255.00 304.14 15.97
11534 108.7230 251.00 303.30 15.84
11535 108.7320 265.00 301.68 16.28
11536 108.7410 253.00 299.26 15.91
11537 108.7500 285.00 295.93 16.88
11538 108.7590 263.00 291.54 16.22
11539 108.7680 283.00 285.95 16.82
11540 108.7770 290.00 279.15 17.03
11541 108.7860 296.00 271.17 17.20
11542 108.7950 272.00 262.14 16.49
11543 108.8040 262.00 252.25 16.19
11544 108.8130 259.00 241.73 16.09
11545 108.8220 275.00 230.84 16.58
11546 108.8310 246.00 219.82 15.68
11547 108.8400 233.00 208.90 15.26
11548 108.8490 196.00 198.28 14.00
11549 108.8580 213.00 188.12 14.59
11550 108.8670 193.00 178.53 13.89
11551 108.8760 176.00 169.63 13.27
11552 108.8850 176.00 161.42 13.27
11553 108.8940 138.00 153.95 11.75
11554 108.9030 150.00 147.30 12.25
11555 108.9120 131.00 141.40 11.45
11556 108.9210 129.00 136.26 11.36
11557 108.9300 118.00 131.83 10.86
11558 108.9390 139.00 128.09 11.79
11559 108.9480 127.00 125.01 11.27
11560 108.9570 103.00 122.57 10.15
11561 108.9660 119.00 120.74 10.91
11562 108.9750 114.00 119.51 10.68
11563 108.9840 111.00 118.88 10.54
11564 108.9930 111.00 118.84 10.54
11565 109.0020 115.00 119.46 10.72
11566 109.0110 123.00 120.67 11.09
11567 109.0200 125.00 122.51 11.18
11568 109.0290 122.00 125.01 11.05
11569 109.0380 129.00 128.16 11.36
11570 109.0470 138.00 131.96 11.75
11571 109.0560 134.00 136.37 11.58
11572 109.0650 123.00 141.33 11.09
11573 109.0740 128.00 146.75 11.31
11574 109.0830 131.00 152.49 11.45
11575 109.0920 134.00 158.35 11.58
11576 109.1010 142.00 164.07 11.92
11577 109.1100 141.00 169.36 11.87
11578 109.1190 153.00 173.97 12.37
11579 109.1280 166.00 177.71 12.88
11580 109.1370 182.00 180.60 13.49
11581 109.1460 184.00 182.86 13.56
11582 109.1550 192.00 184.86 13.86
11583 109.1640 179.00 187.09 13.38
11584 109.1730 182.00 190.03 13.49
11585 109.1820 212.00 194.11 14.56
11586 109.1910 199.00 199.69 14.11
11587 109.2000 201.00 207.02 14.18
11588 109.2090 214.00 216.24 14.63
11589 109.2180 213.00 227.41 14.59
11590 109.2270 225.00 240.42 15.00
11591 109.2360 237.00 255.00 15.39
11592 109.2450 261.00 270.81 16.16
11593 109.2540 323.00 287.43 17.97
11594 109.2630 310.00 304.52 17.61
11595 109.2720 336.00 321.85 18.33
11596 109.2810 351.00 339.27 18.74
11597 109.2900 369.00 356.57 19.21
11598 109.2990 365.00 373.35 19.10
11599 109.3080 395.00 388.81 19.87
11600 109.3170 419.00 401.78 20.47
11601 109.3260 444.00 410.85 21.07
11602 109.3340 454.00 414.59 21.31
11603 109.3430 441.00 412.02 21.00
11604 109.3520 432.00 402.90 20.78
11605 109.3610 418.00 387.90 20.44
11606 109.3700 364.00 368.33 19.08
11607 109.3790 363.00 345.82 19.05
11608 109.3880 318.00 321.97 17.83
11609 109.3970 285.00 298.08 16.88
11610 109.4060 252.00 275.17 15.87
11611 109.4150 239.00 253.97 15.46
11612 109.4240 235.00 234.90 15.33
11613 109.4330 213.00 218.23 14.59
11614 109.4420 211.00 204.08 14.53
11615 109.4510 187.00 192.40 13.67
11616 109.4600 184.00 183.18 13.56
11617 109.4690 182.00 176.03 13.49
11618 109.4780 167.00 170.76 12.92
11619 109.4870 154.00 167.13 12.41
11620 109.4960 146.00 164.82 12.08
11621 109.5050 142.00 163.54 11.92
11622 109.5140 148.00 162.99 12.17
11623 109.5230 159.00 162.89 12.61
11624 109.5320 162.00 162.94 12.73
11625 109.5410 164.00 162.88 12.81
11626 109.5500 160.00 162.48 12.65
11627 109.5590 160.00 161.56 12.65
11628 109.5680 164.00 160.02 12.81
11629 109.5770 184.00 157.84 13.56
11630 109.5860 178.00 155.06 13.34
11631 109.5950 162.00 151.81 12.73
11632 109.6040 153.00 148.21 12.37
11633 109.6130 157.00 144.42 12.53
11634 109.6220 132.00 140.58 11.49
11635 109.6310 127.00 136.80 11.27
11636 109.6400 149.00 133.20 12.21
11637 109.6490 147.00 129.85 12.12
11638 109.6580 127.00 126.82 11.27
11639 109.6670 123.00 124.16 11.09
11640 109.6760 134.00 121.92 11.58
11641 109.6850 129.00 120.13 11.36
11642 109.6940 130.00 118.82 11.40
11643 109.7030 110.00 118.01 10.49
11644 109.7120 115.00 117.71 10.72
11645 109.7210 127.00 117.93 11.27
11646 109.7300 94.00 118.70 9.70
11647 109.7390 105.00 120.00 10.25
11648 109.7480 109.00 121.82 10.44
11649 109.7570 109.00 124.16 10.44
11650 109.7660 131.00 126.97 11.45
11651 109.7750 122.00 130.21 11.05
11652 109.7840 125.00 133.82 11.18
11653 109.7930 133.00 137.70 11.53
11654 109.8020 128.00 141.76 11.31
11655 109.8110 154.00 145.88 12.41
11656 109.8200 153.00 149.97 12.37
11657 109.8290 147.00 154.00 12.12
11658 109.8380 155.00 157.93 12.45
11659 109.8470 149.00 161.76 12.21
11660 109.8560 156.00 165.47 12.49
11661 109.8650 170.00 169.08 13.04
11662 109.8740 180.00 172.59 13.42
11663 109.8830 198.00 176.07 14.07
11664 109.8920 190.00 179.52 13.78
11665 109.9010 178.00 182.93 13.34
11666 109.9100 187.00 186.21 13.67
11667 109.9190 207.00 189.19 14.39
11668 109.9280 208.00 191.64 14.42
11669 109.9370 201.00 193.40 14.18
11670 109.9460 204.00 194.38 14.28
11671 109.9550 203.00 194.67 14.25
11672 109.9640 206.00 194.46 14.35
11673 109.9730 195.00 194.00 13.96
11674 109.9820 196.00 193.55 14.00
11675 109.9910 198.00 193.25 14.07
11676 110.0000 200.00 193.14 14.14
11677 110.0090 204.00 193.14 14.28
11678 110.0180 199.00 193.09 14.11
11679 110.0270 207.00 192.79 14.39
11680 110.0360 207.00 192.11 14.39
11681 110.0450 191.00 191.04 13.82
11682 110.0540 177.00 189.72 13.30
11683 110.0630 176.00 188.40 13.27
11684 110.0720 196.00 187.40 14.00
11685 110.0810 181.00 186.97 13.45
11686 110.0900 164.00 187.30 12.81
11687 110.0990 177.00 188.49 13.30
11688 110.1080 166.00 190.60 12.88
11689 110.1170 171.00 193.54 13.08
11690 110.1260 186.00 197.13 13.64
11691 110.1350 222.00 201.13 14.90
11692 110.1440 222.00 205.25 14.90
11693 110.1530 226.00 209.12 15.03
11694 110.1620 223.00 212.45 14.93
11695 110.1710 250.00 214.99 15.81
11696 110.1800 231.00 216.65 15.20
11697 110.1890 224.00 217.52 14.97
11698 110.1980 215.00 217.77 14.66
11699 110.2070 224.00 217.66 14.97
11700 110.2160 224.00 217.44 14.97
11701 110.2250 200.00 217.28 14.14
11702 110.2340 205.00 217.26 14.32
11703 110.2430 210.00 217.38 14.49
11704 110.2520 210.00 217.51 14.49
11705 110.2610 218.00 217.49 14.76
11706 110.2700 236.00 217.08 15.36
11707 110.2790 212.00 216.12 14.56
11708 110.2880 208.00 214.45 14.42
11709 110.2960 227.00 212.00 15.07
11710 110.3050 233.00 208.78 15.26
11711 110.3140 239.00 204.84 15.46
11712 110.3230 235.00 200.30 15.33
11713 110.3320 212.00 195.32 14.56
11714 110.3410 206.00 190.07 14.35
11715 110.3500 203.00 184.74 14.25
11716 110.3590 186.00 179.52 13.64
11717 110.3680 181.00 174.55 13.45
11718 110.3770 182.00 169.93 13.49
11719 110.3860 177.00 165.73 13.30
11720 110.3950 170.00 161.95 13.04
11721 110.4040 160.00 158.57 12.65
11722 110.4130 145.00 155.54 12.04
11723 110.4220 150.00 152.79 12.25
11724 110.4310 148.00 150.22 12.17
11725 110.4400 161.00 147.79 12.69
11726 110.4490 145.00 145.34 12.04
11727 110.4580 131.00 143.04 11.45
11728 110.4670 132.00 140.78 11.49
11729 110.4760 155.00 138.57 12.45
11730 110.4850 158.00 136.45 12.57
11731 110.4940 126.00 134.44 11.23
11732 110.5030 135.00 132.59 11.62
11733 110.5120 134.00 130.93 11.58
11734 110.5210 118.00 129.51 10.86
11735 110.5300 136.00 128.40 11.66
11736 110.5390 150.00 127.64 12.25
11737 110.5480 142.00 127.30 11.92
11738 110.5570 121.00 127.44 11.00
11739 110.5660 111.00 128.10 10.54
11740 110.5750 135.00 129.26 11.62
11741 110.5840 124.00 131.13 11.14
11742 110.5930 142.00 133.66 11.92
11743 110.6020 120.00 136.88 10.95
11744 110.6110 135.00 140.79 11.62
11745 110.6200 133.00 145.42 11.53
11746 110.6290 129.00 150.73 11.36
11747 110.6380 142.00 156.69 11.92
11748 110.6470 146.00 163.25 12.08
11749 110.6560 147.00 170.33 12.12
11750 110.6650 151.00 177.81 12.29
11751 110.6740 178.00 185.54 13.34
11752 110.6830 171.00 193.32 13.08
11753 110.6920 157.00 200.90 12.53
11754 110.7010 186.00 208.05 13.64
11755 110.7100 193.00 214.47 13.89
11756 110.7190 200.00 219.91 14.14
11757 110.7280 208.00 224.20 14.42
11758 110.7370 231.00 227.24 15.20
11759 110.7460 242.00 229.04 15.56
11760 110.7550 239.00 229.69 15.46
11761 110.7640 229.00 229.34 15.13
11762 110.7730 223.00 228.12 14.93
11763 110.7820 218.00 226.15 14.76
11764 110.7910 214.00 223.50 14.63
11765 110.8000 233.00 220.20 15.26
11766 110.8090 230.00 216.28 15.17
11767 110.8180 215.00 211.78 14.66
11768 110.8270 227.00 206.76 15.07
11769 110.8360 215.00 201.37 14.66
11770 110.8450 196.00 195.58 14.00
11771 110.8540 200.00 189.59 14.14
11772 110.8630 204.00 183.45 14.28
11773 110.8720 208.00 177.26 14.42
11774 110.8810 178.00 171.12 13.34
11775 110.8900 162.00 165.16 12.73
11776 110.8990 151.00 159.52 12.29
11777 110.9080 150.00 154.27 12.25
11778 110.9170 146.00 149.47 12.08
11779 110.9260 137.00 145.15 11.70
11780 110.9350 150.00 141.27 12.25
11781 110.9440 133.00 137.80 11.53
11782 110.9530 149.00 134.67 12.21
11783 110.9620 123.00 131.81 11.09
11784 110.9710 126.00 129.15 11.23
11785 110.9800 122.00 126.63 11.05
11786 110.9890 133.00 124.24 11.53
11787 110.9980 107.00 121.96 10.34
11788 111.0070 123.00 119.80 11.09
11789 111.0160 107.00 117.82 10.34
11790 111.0250 120.00 116.00 10.95
11791 111.0340 104.00 114.38 10.20
11792 111.0430 117.00 112.99 10.82
11793 111.0520 97.00 111.83 9.85
11794 111.0610 103.00 110.88 10.15
11795 111.0700 93.00 110.13 9.64
11796 111.0790 93.00 109.52 9.64
11797 111.0880 85.00 109.03 9.22
11798 111.0970 104.00 108.59 10.20
11799 111.1060 100.00 108.15 10.00
11800 111.1150 98.00 107.67 9.90
11801 111.1240 105.00 107.11 10.25
11802 111.1330 97.00 106.45 9.85
11803 111.1420 105.00 105.69 10.25
11804 111.1510 108.00 104.85 10.39
11805 111.1600 103.00 103.91 10.15
11806 111.1690 108.00 102.98 10.39
11807 111.1780 105.00 102.08 10.25
11808 111.1870 99.00 101.25 9.95
11809 111.1960 107.00 100.49 10.34
11810 111.2050 104.00 99.95 10.20
11811 111.2140 95.00 99.62 9.75
11812 111.2230 99.00 99.52 9.95
11813 111.2320 105.00 99.70 10.25
11814 111.2410 108.00 100.14 10.39
11815 111.2500 101.00 100.94 10.05
11816 111.2580 89.00 102.07 9.43
11817 111.2670 83.00 103.53 9.11
11818 111.2760 92.00 105.31 9.59
11819 111.2850 96.00 107.38 9.80
11820 111.2940 103.00 109.67 10.15
11821 111.3030 98.00 112.11 9.90
11822 111.3120 99.00 114.59 9.95
11823 111.3210 107.00 116.99 10.34
11824 111.3300 101.00 119.18 10.05
11825 111.3390 108.00 121.12 10.39
11826 111.3480 111.00 122.82 10.54
11827 111.3570 109.00 124.37 10.44
11828 111.3660 111.00 125.87 10.54
11829 111.3750 114.00 127.45 10.68
11830 111.3840 143.00 129.16 11.96
11831 111.3930 115.00 131.02 10.72
11832 111.4020 131.00 132.97 11.45
11833 111.4110 116.00 134.70 10.77
11834 111.4200 106.00 136.42 10.30
11835 111.4290 112.00 137.71 10.58
11836 111.4380 114.00 138.35 10.68
11837 111.4470 121.00 138.16 11.00
11838 111.4560 135.00 137.05 11.62
11839 111.4650 144.00 135.03 12.00
11840 111.4740 145.00 132.24 12.04
11841 111.4830 129.00 128.94 11.36
11842 111.4920 136.00 125.25 11.66
11843 111.5010 125.00 121.42 11.18
11844 111.5100 124.00 117.62 11.14
11845 111.5190 110.00 113.96 10.49
11846 111.5280 110.00 110.54 10.49
11847 111.5370 111.00 107.41 10.54
11848 111.5460 118.00 104.60 10.86
11849 111.5550 111.00 102.13 10.54
11850 111.5640 111.00 100.01 10.54
11851 111.5730 107.00 98.20 10.34
11852 111.5820 97.00 96.69 9.85
11853 111.5910 106.00 95.39 10.30
11854 111.6000 96.00 94.37 9.80
11855 111.6090 97.00 93.56 9.85
11856 111.6180 99.00 92.90 9.95
11857 111.6270 86.00 92.37 9.27
11858 111.6360 88.00 91.95 9.38
11859 111.6450 87.00 91.62 9.33
11860 111.6540 83.00 91.38 9.11
11861 111.6630 94.00 91.22 9.70
11862 111.6720 102.00 91.15 10.10
11863 111.6810 94.00 91.17 9.70
11864 111.6900 93.00 91.30 9.64
11865 111.6990 98.00 91.56 9.90
11866 111.7080 88.00 91.95 9.38
11867 111.7170 97.00 92.49 9.85
11868 111.7260 86.00 93.21 9.27
11869 111.7350 91.00 94.14 9.54
11870 111.7440 88.00 95.28 9.38
11871 111.7530 92.00 96.68 9.59
11872 111.7620 100.00 98.35 10.00
11873 111.7710 100.00 100.31 10.00
11874 111.7800 102.00 102.58 10.10
11875 111.7890 111.00 105.16 10.54
11876 111.7980 107.00 108.07 10.34
11877 111.8070 110.00 111.28 10.49
11878 111.8160 107.00 114.78 10.34
11879 111.8250 110.00 118.53 10.49
11880 111.8340 111.00 122.46 10.54
11881 111.8430 118.00 126.49 10.86
11882 111.8520 112.00 130.52 10.58
11883 111.8610 123.00 134.40 11.09
11884 111.8700 130.00 137.96 11.40
11885 111.8790 149.00 141.00 12.21
11886 111.8880 132.00 143.34 11.49
11887 111.8970 161.00 144.83 12.69
11888 111.9060 154.00 145.35 12.41
11889 111.9150 160.00 144.91 12.65
11890 111.9240 141.00 143.59 11.87
11891 111.9330 147.00 141.53 12.12
11892 111.9420 133.00 138.91 11.53
11893 111.9510 135.00 135.92 11.62
11894 111.9600 132.00 132.72 11.49
11895 111.9690 116.00 129.45 10.77
11896 111.9780 116.00 126.21 10.77
11897 111.9870 116.00 123.06 10.77
11898 111.9960 120.00 120.02 10.95
11899 112.0050 117.00 117.15 10.82
11900 112.0140 116.00 114.43 10.77
11901 112.0230 115.00 111.87 10.72
11902 112.0320 109.00 109.45 10.44
11903 112.0410 105.00 107.18 10.25
11904 112.0500 102.00 105.06 10.10
11905 112.0590 95.00 103.10 9.75
11906 112.0680 99.00 101.30 9.95
11907 112.0770 105.00 99.61 10.25
11908 112.0860 97.00 98.13 9.85
11909 112.0950 92.00 96.77 9.59
11910 112.1040 92.00 95.60 9.59
11911 112.1130 95.00 94.56 9.75
11912 112.1220 103.00 93.67 10.15
11913 112.1310 95.00 92.89 9.75
11914 112.1400 99.00 92.24 9.95
11915 112.1490 99.00 91.69 9.95
11916 112.1580 92.00 91.24 9.59
11917 112.1670 106.00 90.89 10.30
11918 112.1760 89.00 90.63 9.43
11919 112.1850 87.00 90.42 9.33
11920 112.1940 94.00 90.33 9.70
11921 112.2030 92.00 90.32 9.59
11922 112.2120 94.00 90.39 9.70
11923 112.2200 90.00 90.55 9.49
11924 112.2290 97.00 90.88 9.85
11925 112.2380 117.00 91.24 10.82
11926 112.2470 90.00 91.71 9.49
11927 112.2560 75.00 92.33 8.66
11928 112.2650 97.00 93.12 9.85
11929 112.2740 114.00 94.13 10.68
11930 112.2830 89.00 95.41 9.43
11931 112.2920 91.00 97.03 9.54
11932 112.3010 112.00 99.06 10.58
11933 112.3100 110.00 101.58 10.49
11934 112.3190 113.00 104.69 10.63
11935 112.3280 119.00 108.47 10.91
11936 112.3370 100.00 113.02 10.00
11937 112.3460 104.00 118.39 10.20
11938 112.3550 108.00 124.62 10.39
11939 112.3640 127.00 131.73 11.27
11940 112.3730 132.00 139.67 11.49
11941 112.3820 147.00 148.33 12.12
11942 112.3910 144.00 157.53 12.00
11943 112.4000 157.00 166.97 12.53
11944 112.4090 165.00 176.26 12.85
11945 112.4180 169.00 184.85 13.00
11946 112.4270 191.00 192.09 13.82
11947 112.4360 196.00 197.36 14.00
11948 112.4450 203.00 200.10 14.25
11949 112.4540 208.00 200.07 14.42
11950 112.4630 196.00 197.36 14.00
11951 112.4720 197.00 192.40 14.04
11952 112.4810 195.00 185.78 13.96
11953 112.4900 184.00 178.11 13.56
11954 112.4990 177.00 169.95 13.30
11955 112.5080 163.00 161.76 12.77
11956 112.5170 144.00 153.82 12.00
11957 112.5260 139.00 146.48 11.79
11958 112.5350 139.00 139.84 11.79
11959 112.5440 137.00 133.98 11.70
11960 112.5530 139.00 128.89 11.79
11961 112.5620 126.00 124.54 11.23
11962 112.5710 125.00 120.85 11.18
11963 112.5800 121.00 117.73 11.00
11964 112.5890 127.00 115.07 11.27
11965 112.5980 111.00 112.80 10.54
11966 112.6070 97.00 110.85 9.85
11967 112.6160 93.00 109.16 9.64
11968 112.6250 94.00 107.73 9.70
11969 112.6340 99.00 106.53 9.95
11970 112.6430 111.00 105.55 10.54
11971 112.6520 93.00 104.76 9.64
11972 112.6610 99.00 104.21 9.95
11973 112.6700 114.00 103.86 10.68
11974 112.6790 104.00 103.70 10.20
11975 112.6880 90.00 103.69 9.49
11976 112.6970 97.00 103.89 9.85
11977 112.7060 100.00 104.26 10.00
11978 112.7150 109.00 104.77 10.44
11979 112.7240 89.00 105.41 9.43
11980 112.7330 96.00 106.16 9.80
11981 112.7420 94.00 107.02 9.70
11982 112.7510 95.00 107.95 9.75
11983 112.7600 89.00 108.96 9.43
11984 112.7690 100.00 110.05 10.00
11985 112.7780 101.00 111.23 10.05
11986 112.7870 114.00 112.54 10.68
11987 112.7960 109.00 114.01 10.44
11988 112.8050 109.00 115.71 10.44
11989 112.8140 115.00 117.70 10.72
11990 112.8230 135.00 120.06 11.62
11991 112.8320 134.00 122.84 11.58
11992 112.8410 126.00 126.07 11.23
11993 112.8500 125.00 129.78 11.18
11994 112.8590 118.00 133.91 10.86
11995 112.8680 131.00 138.41 11.45
11996 112.8770 136.00 143.18 11.66
11997 112.8860 133.00 147.91 11.53
11998 112.8950 145.00 152.38 12.04
11999 112.9040 159.00 156.23 12.61
12000 112.9130 165.00 159.04 12.85
12001 112.9220 155.00 160.47 12.45
12002 112.9310 149.00 160.29 12.21
12003 112.9400 156.00 158.45 12.49
12004 112.9490 156.00 155.13 12.49
12005 112.9580 148.00 150.66 12.17
12006 112.9670 135.00 145.45 11.62
12007 112.9760 136.00 139.86 11.66
12008 112.9850 123.00 134.24 11.09
12009 112.9940 122.00 128.82 11.05
12010 113.0030 129.00 123.76 11.36
12011 113.0120 114.00 119.19 10.68
12012 113.0210 104.00 115.14 10.20
12013 113.0300 110.00 111.65 10.49
12014 113.0390 113.00 108.67 10.63
12015 113.0480 120.00 106.18 10.95
12016 113.0570 106.00 104.12 10.30
12017 113.0660 116.00 102.40 10.77
12018 113.0750 119.00 100.96 10.91
12019 113.0840 107.00 99.71 10.34
12020 113.0930 97.00 98.61 9.85
12021 113.1020 81.00 97.61 9.00
12022 113.1110 90.00 96.68 9.49
12023 113.1200 105.00 95.81 10.25
12024 113.1290 108.00 95.00 10.39
12025 113.1380 103.00 94.26 10.15
12026 113.1470 94.00 93.58 9.70
12027 113.1560 85.00 92.97 9.22
12028 113.1640 94.00 92.45 9.70
12029 113.1730 104.00 92.03 10.20
12030 113.1820 83.00 91.71 9.11
12031 113.1910 82.00 91.52 9.06
12032 113.2000 94.00 91.46 9.70
12033 113.2090 90.00 91.53 9.49
12034 113.2180 84.00 91.78 9.17
12035 113.2270 78.00 92.19 8.83
12036 113.2360 88.00 92.78 9.38
12037 113.2450 90.00 93.55 9.49
12038 113.2540 87.00 94.51 9.33
12039 113.2630 90.00 95.65 9.49
12040 113.2720 92.00 96.94 9.59
12041 113.2810 90.00 98.39 9.49
12042 113.2900 101.00 99.95 10.05
12043 113.2990 98.00 101.55 9.90
12044 113.3080 92.00 103.17 9.59
12045 113.3170 97.00 104.71 9.85
12046 113.3260 101.00 106.06 10.05
12047 113.3350 102.00 107.15 10.10
12048 113.3440 95.00 107.87 9.75
12049 113.3530 95.00 108.21 9.75
12050 113.3620 104.00 108.15 10.20
12051 113.3710 105.00 107.75 10.25
12052 113.3800 105.00 107.05 10.25
12053 113.3890 101.00 106.14 10.05
12054 113.3980 99.00 104.98 9.95
12055 113.4070 103.00 103.77 10.15
12056 113.4160 109.00 102.46 10.44
12057 113.4250 107.00 101.09 10.34
12058 113.4340 102.00 99.73 10.10
12059 113.4430 104.00 98.40 10.20
12060 113.4520 93.00 97.15 9.64
12061 113.4610 84.00 96.03 9.17
12062 113.4700 83.00 95.05 9.11
12063 113.4790 91.00 94.24 9.54
12064 113.4880 102.00 93.61 10.10
12065 113.4970 91.00 93.17 9.54
12066 113.5060 101.00 92.92 10.05
12067 113.5150 89.00 92.85 9.43
12068 113.5240 97.00 92.96 9.85
12069 113.5330 96.00 93.25 9.80
12070 113.5420 76.00 93.72 8.72
12071 113.5510 84.00 94.37 9.17
12072 113.5600 90.00 95.20 9.49
12073 113.5690 92.00 96.21 9.59
12074 113.5780 103.00 97.44 10.15
12075 113.5870 101.00 98.90 10.05
12076 113.5960 102.00 100.55 10.10
12077 113.6050 105.00 102.51 10.25
12078 113.6140 110.00 104.65 10.49
12079 113.6230 85.00 107.01 9.22
12080 113.6320 105.00 109.54 10.25
12081 113.6410 122.00 112.20 11.05
12082 113.6500 129.00 114.92 11.36
12083 113.6590 135.00 117.62 11.62
12084 113.6680 129.00 120.17 11.36
12085 113.6770 130.00 122.44 11.40
12086 113.6860 128.00 124.30 11.31
12087 113.6950 137.00 125.58 11.70
12088 113.7040 134.00 126.19 11.58
12089 113.7130 138.00 126.06 11.75
12090 113.7220 139.00 125.20 11.79
12091 113.7310 128.00 123.68 11.31
12092 113.7400 114.00 121.64 10.68
12093 113.7490 109.00 119.40 10.44
12094 113.7580 110.00 116.72 10.49
12095 113.7670 112.00 113.91 10.58
12096 113.7760 114.00 111.09 10.68
12097 113.7850 106.00 108.34 10.30
12098 113.7940 108.00 105.71 10.39
12099 113.8030 106.00 103.25 10.30
12100 113.8120 93.00 100.99 9.64
12101 113.8210 105.00 98.93 10.25
12102 113.8300 95.00 97.09 9.75
12103 113.8390 95.00 95.47 9.75
12104 113.8480 100.00 94.05 10.00
12105 113.8570 103.00 92.82 10.15
12106 113.8660 99.00 91.76 9.95
12107 113.8750 78.00 90.87 8.83
12108 113.8840 97.00 90.11 9.85
12109 113.8930 88.00 89.49 9.38
12110 113.9020 79.00 88.96 8.89
12111 113.9110 86.00 88.53 9.27
12112 113.9200 82.00 88.18 9.06
12113 113.9290 99.00 87.90 9.95
12114 113.9380 83.00 87.68 9.11
12115 113.9470 103.00 87.50 10.15
12116 113.9560 90.00 87.37 9.49
12117 113.9650 72.00 87.27 8.49
12118 113.9740 94.00 87.21 9.70
12119 113.9830 72.00 87.17 8.49
12120 113.9920 78.00 87.16 8.83
12121 114.0010 93.00 87.16 9.64
12122 114.0100 83.00 87.18 9.11
12123 114.0190 82.00 87.22 9.06
12124 114.0280 80.00 87.42 8.94
12125 114.0370 93.00 87.49 9.64
12126 114.0460 97.00 87.59 9.85
12127 114.0550 91.00 87.72 9.54
12128 114.0640 71.00 87.89 8.43
12129 114.0730 80.00 88.10 8.94
12130 114.0820 96.00 88.36 9.80
12131 114.0910 88.00 88.69 9.38
12132 114.1000 89.00 89.08 9.43
12133 114.1080 95.00 89.56 9.75
12134 114.1170 99.00 90.14 9.95
12135 114.1260 100.00 90.83 10.00
12136 114.1350 102.00 91.66 10.10
12137 114.1440 103.00 92.64 10.15
12138 114.1530 93.00 93.79 9.64
12139 114.1620 87.00 95.15 9.33
12140 114.1710 84.00 96.73 9.17
12141 114.1800 87.00 98.55 9.33
12142 114.1890 97.00 100.63 9.85
12143 114.1980 86.00 102.96 9.27
12144 114.2070 80.00 105.55 8.94
12145 114.2160 100.00 108.38 10.00
12146 114.2250 108.00 111.40 10.39
12147 114.2340 114.00 114.57 10.68
12148 114.2430 125.00 117.79 11.18
12149 114.2520 127.00 120.97 11.27
12150 114.2610 130.00 123.97 11.40
12151 114.2700 134.00 126.63 11.58
12152 114.2790 122.00 128.78 11.05
12153 114.2880 125.00 130.26 11.18
12154 114.2970 122.00 130.99 11.05
12155 114.3060 115.00 130.96 10.72
12156 114.3150 128.00 130.25 11.31
12157 114.3240 124.00 129.05 11.14
12158 114.3330 136.00 127.57 11.66
12159 114.3420 121.00 126.01 11.00
12160 114.3510 109.00 124.55 10.44
12161 114.3600 115.00 123.33 10.72
12162 114.3690 131.00 122.43 11.45
12163 114.3780 125.00 121.93 11.18
12164 114.3870 125.00 121.86 11.18
12165 114.3960 140.00 122.16 11.83
12166 114.4050 110.00 122.90 10.49
12167 114.4140 123.00 124.01 11.09
12168 114.4230 133.00 125.42 11.53
12169 114.4320 138.00 127.07 11.75
12170 114.4410 135.00 128.89 11.62
12171 114.4500 123.00 130.78 11.09
12172 114.4590 128.00 132.68 11.31
12173 114.4680 131.00 134.41 11.45
12174 114.4770 126.00 136.04 11.23
12175 114.4860 134.00 137.43 11.58
12176 114.4950 139.00 138.54 11.79
12177 114.5040 139.00 139.42 11.79
12178 114.5130 133.00 140.08 11.53
12179 114.5220 135.00 140.62 11.62
12180 114.5310 141.00 141.11 11.87
12181 114.5400 142.00 141.61 11.92
12182 114.5490 132.00 142.16 11.49
12183 114.5580 127.00 142.74 11.27
12184 114.5670 144.00 143.32 12.00
12185 114.5760 155.00 143.84 12.45
12186 114.5850 136.00 144.21 11.66
12187 114.5940 130.00 144.35 11.40
12188 114.6030 144.00 144.17 12.00
12189 114.6120 138.00 143.61 11.75
12190 114.6210 130.00 142.60 11.40
12191 114.6300 134.00 141.12 11.58
12192 114.6390 146.00 139.16 12.08
12193 114.6480 156.00 136.75 12.49
12194 114.6570 133.00 133.94 11.53
12195 114.6660 116.00 130.83 10.77
12196 114.6750 109.00 127.54 10.44
12197 114.6840 112.00 124.17 10.58
12198 114.6930 124.00 120.84 11.14
12199 114.7020 118.00 117.63 10.86
12200 114.7110 116.00 114.62 10.77
12201 114.7200 114.00 111.87 10.68
12202 114.7290 109.00 109.40 10.44
12203 114.7380 95.00 107.25 9.75
12204 114.7470 91.00 105.41 9.54
12205 114.7560 113.00 103.89 10.63
12206 114.7650 109.00 102.69 10.44
12207 114.7740 105.00 101.78 10.25
12208 114.7830 100.00 101.14 10.00
12209 114.7920 86.00 100.75 9.27
12210 114.8010 103.00 100.55 10.15
12211 114.8100 88.00 100.52 9.38
12212 114.8190 113.00 100.60 10.63
12213 114.8280 100.00 100.74 10.00
12214 114.8370 85.00 100.88 9.22
12215 114.8460 99.00 100.96 9.95
12216 114.8550 95.00 100.92 9.75
12217 114.8640 101.00 100.73 10.05
12218 114.8730 103.00 100.38 10.15
12219 114.8820 86.00 99.86 9.27
12220 114.8910 85.00 99.21 9.22
12221 114.9000 85.00 98.45 9.22
12222 114.9090 89.00 97.63 9.43
12223 114.9180 82.00 96.79 9.06
12224 114.9270 83.00 95.95 9.11
12225 114.9360 83.00 95.14 9.11
12226 114.9450 93.00 94.40 9.64
12227 114.9540 87.00 93.72 9.33
12228 114.9630 92.00 93.13 9.59
12229 114.9720 97.00 92.63 9.85
12230 114.9810 93.00 92.24 9.64
12231 114.9900 92.00 91.95 9.59
12232 114.9990 88.00 91.77 9.38
12233 115.0080 88.00 91.70 9.38
12234 115.0170 88.00 91.70 9.38
12235 115.0260 94.00 91.83 9.70
12236 115.0350 102.00 92.07 10.10
12237 115.0440 106.00 92.40 10.30
12238 115.0520 103.00 92.81 10.15
12239 115.0610 101.00 93.29 10.05
12240 115.0700 103.00 93.84 10.15
12241 115.0790 99.00 94.42 9.95
12242 115.0880 96.00 95.02 9.80
12243 115.0970 87.00 95.61 9.33
12244 115.1060 91.00 96.18 9.54
12245 115.1150 93.00 96.68 9.64
12246 115.1240 86.00 97.09 9.27
12247 115.1330 79.00 97.38 8.89
12248 115.1420 98.00 97.52 9.90
12249 115.1510 102.00 97.52 10.10
12250 115.1600 98.00 97.39 9.90
12251 115.1690 100.00 97.13 10.00
12252 115.1780 105.00 96.78 10.25
12253 115.1870 99.00 96.37 9.95
12254 115.1960 83.00 95.93 9.11
12255 115.2050 87.00 95.48 9.33
12256 115.2140 105.00 95.06 10.25
12257 115.2230 121.00 94.68 11.00
12258 115.2320 107.00 94.37 10.34
12259 115.2410 87.00 94.13 9.33
12260 115.2500 99.00 93.98 9.95
12261 115.2590 98.00 93.93 9.90
12262 115.2680 105.00 94.00 10.25
12263 115.2770 111.00 94.19 10.54
12264 115.2860 104.00 94.53 10.20
12265 115.2950 76.00 95.02 8.72
12266 115.3040 88.00 95.68 9.38
12267 115.3130 97.00 96.53 9.85
12268 115.3220 89.00 97.57 9.43
12269 115.3310 88.00 98.83 9.38
12270 115.3400 90.00 100.32 9.49
12271 115.3490 83.00 102.06 9.11
12272 115.3580 97.00 104.04 9.85
12273 115.3670 94.00 106.29 9.70
12274 115.3760 96.00 108.80 9.80
12275 115.3850 110.00 111.56 10.49
12276 115.3940 114.00 114.56 10.68
12277 115.4030 115.00 117.78 10.72
12278 115.4120 113.00 121.16 10.63
12279 115.4210 109.00 124.68 10.44
12280 115.4300 112.00 128.24 10.58
12281 115.4390 121.00 131.75 11.00
12282 115.4480 122.00 135.11 11.05
12283 115.4570 119.00 138.17 10.91
12284 115.4660 119.00 140.80 10.91
12285 115.4750 129.00 142.89 11.36
12286 115.4840 145.00 144.32 12.04
12287 115.4930 154.00 145.07 12.41
12288 115.5020 153.00 145.40 12.37
12289 115.5110 151.00 144.87 12.29
12290 115.5200 145.00 143.87 12.04
12291 115.5290 127.00 142.53 11.27
12292 115.5380 139.00 141.01 11.79
12293 115.5470 157.00 139.45 12.53
12294 115.5560 148.00 138.00 12.17
12295 115.5650 147.00 136.79 12.12
12296 115.5740 148.00 135.93 12.17
12297 115.5830 127.00 135.53 11.27
12298 115.5920 157.00 135.68 12.53
12299 115.6010 148.00 136.47 12.17
12300 115.6100 153.00 137.96 12.37
12301 115.6190 139.00 140.18 11.79
12302 115.6280 150.00 143.17 12.25
12303 115.6370 136.00 147.04 11.66
12304 115.6460 168.00 151.42 12.96
12305 115.6550 144.00 156.36 12.00
12306 115.6640 146.00 161.69 12.08
12307 115.6730 158.00 167.17 12.57
12308 115.6820 153.00 172.51 12.37
12309 115.6910 179.00 177.39 13.38
12310 115.7000 180.00 181.55 13.42
12311 115.7090 180.00 184.79 13.42
12312 115.7180 172.00 187.04 13.11
12313 115.7270 187.00 188.38 13.67
12314 115.7360 207.00 188.92 14.39
12315 115.7450 185.00 188.90 13.60
12316 115.7540 166.00 188.56 12.88
12317 115.7630 197.00 188.21 14.04
12318 115.7720 198.00 188.15 14.07
12319 115.7810 180.00 188.72 13.42
12320 115.7900 172.00 190.17 13.11
12321 115.7990 174.00 192.72 13.19
12322 115.8080 181.00 196.53 13.45
12323 115.8170 203.00 201.59 14.25
12324 115.8260 191.00 207.93 13.82
12325 115.8350 193.00 215.46 13.89
12326 115.8440 210.00 224.04 14.49
12327 115.8530 209.00 233.46 14.46
12328 115.8620 212.00 243.45 14.56
12329 115.8710 221.00 253.67 14.87
12330 115.8800 224.00 263.67 14.97
12331 115.8890 248.00 272.92 15.75
12332 115.8980 273.00 280.83 16.52
12333 115.9070 288.00 286.83 16.97
12334 115.9160 282.00 290.33 16.79
12335 115.9250 261.00 291.02 16.16
12336 115.9340 277.00 288.80 16.64
12337 115.9430 273.00 283.89 16.52
12338 115.9520 296.00 276.74 17.20
12339 115.9610 282.00 267.91 16.79
12340 115.9700 269.00 258.01 16.40
12341 115.9790 264.00 247.62 16.25
12342 115.9870 273.00 237.13 16.52
12343 115.9960 239.00 226.91 15.46
12344 116.0050 249.00 217.18 15.78
12345 116.0140 238.00 208.05 15.43
12346 116.0230 201.00 199.59 14.18
12347 116.0320 208.00 191.82 14.42
12348 116.0410 210.00 184.73 14.49
12349 116.0500 174.00 178.55 13.19
12350 116.0590 184.00 172.97 13.56
12351 116.0680 188.00 168.24 13.71
12352 116.0770 172.00 164.42 13.11
12353 116.0860 162.00 161.54 12.73
12354 116.0950 172.00 159.60 13.11
12355 116.1040 146.00 158.58 12.08
12356 116.1130 142.00 158.43 11.92
12357 116.1220 156.00 159.07 12.49
12358 116.1310 162.00 160.42 12.73
12359 116.1400 160.00 162.38 12.65
12360 116.1490 151.00 164.82 12.29
12361 116.1580 158.00 167.60 12.57
12362 116.1670 170.00 170.56 13.04
12363 116.1760 176.00 173.52 13.27
12364 116.1850 181.00 176.27 13.45
12365 116.1940 164.00 178.67 12.81
12366 116.2030 173.00 180.51 13.15
12367 116.2120 186.00 181.61 13.64
12368 116.2210 195.00 181.87 13.96
12369 116.2300 194.00 181.22 13.93
12370 116.2390 203.00 179.66 14.25
12371 116.2480 207.00 177.24 14.39
12372 116.2570 204.00 174.10 14.28
12373 116.2660 205.00 170.35 14.32
12374 116.2750 183.00 166.15 13.53
12375 116.2840 157.00 161.65 12.53
12376 116.2930 157.00 156.98 12.53
12377 116.3020 165.00 152.25 12.85
12378 116.3110 159.00 147.57 12.61
12379 116.3200 154.00 143.02 12.41
12380 116.3290 152.00 138.67 12.33
12381 116.3380 141.00 134.58 11.87
12382 116.3470 138.00 130.82 11.75
12383 116.3560 136.00 127.41 11.66
12384 116.3650 131.00 124.37 11.45
12385 116.3740 117.00 121.75 10.82
12386 116.3830 108.00 119.55 10.39
12387 116.3920 118.00 117.76 10.86
12388 116.4010 121.00 116.39 11.00
12389 116.4100 114.00 115.41 10.68
12390 116.4190 110.00 114.81 10.49
12391 116.4280 114.00 114.55 10.68
12392 116.4370 131.00 114.61 11.45
12393 116.4460 115.00 114.93 10.72
12394 116.4550 128.00 115.49 11.31
12395 116.4640 102.00 116.21 10.10
12396 116.4730 112.00 117.04 10.58
12397 116.4820 116.00 117.89 10.77
12398 116.4910 121.00 118.69 11.00
12399 116.5000 96.00 119.34 9.80
12400 116.5090 126.00 119.77 11.23
12401 116.5180 115.00 119.91 10.72
12402 116.5270 125.00 119.70 11.18
12403 116.5360 112.00 119.13 10.58
12404 116.5450 117.00 118.21 10.82
12405 116.5540 117.00 117.00 10.82
12406 116.5630 108.00 115.55 10.39
12407 116.5720 119.00 113.94 10.91
12408 116.5810 118.00 112.23 10.86
12409 116.5900 118.00 110.48 10.86
12410 116.5990 112.00 108.74 10.58
12411 116.6080 109.00 107.05 10.44
12412 116.6170 107.00 105.43 10.34
12413 116.6260 95.00 103.90 9.75
12414 116.6350 101.00 102.47 10.05
12415 116.6440 104.00 101.15 10.20
12416 116.6530 105.00 99.93 10.25
12417 116.6620 95.00 98.81 9.75
12418 116.6710 88.00 97.79 9.38
12419 116.6800 93.00 96.87 9.64
12420 116.6890 106.00 96.03 10.30
12421 116.6980 106.00 95.28 10.30
12422 116.7070 96.00 94.62 9.80
12423 116.7160 94.00 94.04 9.70
12424 116.7250 103.00 93.54 10.15
12425 116.7340 98.00 93.13 9.90
12426 116.7430 85.00 92.80 9.22
12427 116.7520 87.00 92.55 9.33
12428 116.7610 100.00 92.38 10.00
12429 116.7700 96.00 92.31 9.80
12430 116.7790 79.00 92.32 8.89
12431 116.7880 88.00 92.42 9.38
12432 116.7970 96.00 92.61 9.80
12433 116.8060 97.00 92.91 9.85
12434 116.8150 108.00 93.31 10.39
12435 116.8240 105.00 93.81 10.25
12436 116.8330 92.00 94.41 9.59
12437 116.8420 87.00 95.10 9.33
12438 116.8510 110.00 95.89 10.49
12439 116.8600 108.00 96.74 10.39
12440 116.8690 103.00 97.65 10.15
12441 116.8780 100.00 98.58 10.00
12442 116.8870 95.00 99.51 9.75
12443 116.8960 105.00 100.40 10.25
12444 116.9050 100.00 101.18 10.00
12445 116.9140 122.00 101.81 11.05
12446 116.9220 118.00 102.24 10.86
12447 116.9310 107.00 102.42 10.34
12448 116.9400 103.00 102.33 10.15
12449 116.9490 107.00 101.99 10.34
12450 116.9580 103.00 101.41 10.15
12451 116.9670 103.00 100.64 10.15
12452 116.9760 109.00 99.77 10.44
12453 116.9850 102.00 98.81 10.10
12454 116.9940 110.00 97.82 10.49
12455 117.0030 96.00 96.84 9.80
12456 117.0120 99.00 95.98 9.95
12457 117.0210 106.00 95.10 10.30
12458 117.0300 108.00 94.28 10.39
12459 117.0390 83.00 93.54 9.11
12460 117.0480 100.00 92.89 10.00
12461 117.0570 84.00 92.32 9.17
12462 117.0660 87.00 91.84 9.33
12463 117.0750 98.00 91.44 9.90
12464 117.0840 87.00 91.12 9.33
12465 117.0930 81.00 90.86 9.00
12466 117.1020 90.00 90.68 9.49
12467 117.1110 96.00 90.55 9.80
12468 117.1200 102.00 90.48 10.10
12469 117.1290 101.00 90.45 10.05
12470 117.1380 102.00 90.57 10.10
12471 117.1470 96.00 90.64 9.80
12472 117.1560 88.00 90.74 9.38
12473 117.1650 88.00 90.89 9.38
12474 117.1740 96.00 91.08 9.80
12475 117.1830 99.00 91.31 9.95
12476 117.1920 95.00 91.59 9.75
12477 117.2010 96.00 91.93 9.80
12478 117.2100 90.00 92.33 9.49
12479 117.2190 92.00 92.80 9.59
12480 117.2280 97.00 93.35 9.85
12481 117.2370 99.00 93.99 9.95
12482 117.2460 85.00 94.74 9.22
12483 117.2550 88.00 95.60 9.38
12484 117.2640 93.00 96.58 9.64
12485 117.2730 94.00 97.71 9.70
12486 117.2820 99.00 98.98 9.95
12487 117.2910 93.00 100.38 9.64
12488 117.3000 95.00 101.94 9.75
12489 117.3090 97.00 103.64 9.85
12490 117.3180 94.00 105.47 9.70
12491 117.3270 94.00 107.40 9.70
12492 117.3360 99.00 109.39 9.95
12493 117.3450 92.00 111.42 9.59
12494 117.3540 104.00 113.42 10.20
12495 117.3630 107.00 115.32 10.34
12496 117.3720 118.00 117.08 10.86
12497 117.3810 121.00 118.61 11.00
12498 117.3900 114.00 119.91 10.68
12499 117.3990 96.00 120.97 9.80
12500 117.4080 129.00 121.84 11.36
12501 117.4170 114.00 122.68 10.68
12502 117.4260 134.00 123.61 11.58
12503 117.4350 124.00 124.79 11.14
12504 117.4440 137.00 126.39 11.70
12505 117.4530 143.00 128.54 11.96
12506 117.4620 123.00 131.35 11.09
12507 117.4710 134.00 134.90 11.58
12508 117.4800 140.00 139.26 11.83
12509 117.4890 139.00 144.41 11.79
12510 117.4980 137.00 150.34 11.70
12511 117.5070 144.00 156.93 12.00
12512 117.5160 157.00 164.04 12.53
12513 117.5250 168.00 171.42 12.96
12514 117.5340 169.00 178.75 13.00
12515 117.5430 177.00 185.66 13.30
12516 117.5520 194.00 191.72 13.93
12517 117.5610 215.00 196.55 14.66
12518 117.5700 215.00 199.94 14.66
12519 117.5790 203.00 201.86 14.25
12520 117.5880 199.00 202.48 14.11
12521 117.5970 198.00 202.14 14.07
12522 117.6060 210.00 201.20 14.49
12523 117.6150 208.00 200.04 14.42
12524 117.6240 200.00 198.92 14.14
12525 117.6330 203.00 198.02 14.25
12526 117.6420 203.00 197.38 14.25
12527 117.6510 218.00 196.94 14.76
12528 117.6600 206.00 196.51 14.35
12529 117.6690 203.00 195.83 14.25
12530 117.6780 209.00 194.62 14.46
12531 117.6870 197.00 192.62 14.04
12532 117.6960 184.00 189.72 13.56
12533 117.7050 200.00 185.95 14.14
12534 117.7140 213.00 181.50 14.59
12535 117.7230 202.00 176.61 14.21
12536 117.7320 194.00 171.57 13.93
12537 117.7410 164.00 166.66 12.81
12538 117.7500 160.00 162.08 12.65
12539 117.7590 151.00 158.04 12.29
12540 117.7680 156.00 154.65 12.49
12541 117.7770 162.00 152.00 12.73
12542 117.7860 158.00 150.15 12.57
12543 117.7950 144.00 149.15 12.00
12544 117.8040 150.00 149.03 12.25
12545 117.8130 178.00 149.77 13.34
12546 117.8220 163.00 151.45 12.77
12547 117.8310 145.00 154.05 12.04
12548 117.8400 163.00 157.60 12.77
12549 117.8480 172.00 162.10 13.11
12550 117.8570 188.00 167.58 13.71
12551 117.8660 164.00 174.04 12.81
12552 117.8750 181.00 181.49 13.45
12553 117.8840 193.00 189.90 13.89
12554 117.8930 176.00 199.21 13.27
12555 117.9020 188.00 209.36 13.71
12556 117.9110 223.00 220.23 14.93
12557 117.9200 219.00 231.65 14.80
12558 117.9290 248.00 243.40 15.75
12559 117.9380 247.00 255.24 15.72
12560 117.9470 253.00 266.84 15.91
12561 117.9560 298.00 277.89 17.26
12562 117.9650 303.00 288.06 17.41
12563 117.9740 306.00 297.05 17.49
12564 117.9830 335.00 304.60 18.30
12565 117.9920 358.00 310.55 18.92
12566 118.0010 359.00 314.83 18.95
12567 118.0100 359.00 317.44 18.95
12568 118.0190 353.00 318.52 18.79
12569 118.0280 352.00 318.29 18.76
12570 118.0370 367.00 317.04 19.16
12571 118.0460 376.00 315.08 19.39
12572 118.0550 366.00 312.70 19.13
12573 118.0640 318.00 310.10 17.83
12574 118.0730 324.00 307.39 18.00
12575 118.0820 338.00 304.54 18.38
12576 118.0910 326.00 301.47 18.06
12577 118.1000 360.00 298.03 18.97
12578 118.1090 334.00 294.06 18.28
12579 118.1180 329.00 289.57 18.14
12580 118.1270 304.00 284.59 17.44
12581 118.1360 308.00 279.33 17.55
12582 118.1450 291.00 274.06 17.06
12583 118.1540 273.00 269.07 16.52
12584 118.1630 263.00 264.66 16.22
12585 118.1720 256.00 261.07 16.00
12586 118.1810 246.00 258.43 15.68
12587 118.1900 263.00 256.83 16.22
12588 118.1990 242.00 256.24 15.56
12589 118.2080 239.00 256.59 15.46
12590 118.2170 245.00 257.70 15.65
12591 118.2260 242.00 259.35 15.56
12592 118.2350 270.00 261.28 16.43
12593 118.2440 262.00 263.19 16.19
12594 118.2530 243.00 264.77 15.59
12595 118.2620 265.00 265.77 16.28
12596 118.2710 251.00 265.99 15.84
12597 118.2800 246.00 265.35 15.68
12598 118.2890 269.00 263.83 16.40
12599 118.2980 249.00 261.57 15.78
12600 118.3070 244.00 258.56 15.62
12601 118.3160 275.00 255.09 16.58
12602 118.3250 266.00 251.27 16.31
12603 118.3340 240.00 247.58 15.49
12604 118.3430 262.00 244.16 16.19
12605 118.3520 256.00 241.24 16.00
12606 118.3610 251.00 239.00 15.84
12607 118.3700 232.00 237.59 15.23
12608 118.3790 250.00 237.07 15.81
12609 118.3880 261.00 237.50 16.16
12610 118.3970 234.00 238.88 15.30
12611 118.4060 232.00 241.20 15.23
12612 118.4150 238.00 244.38 15.43
12613 118.4240 240.00 248.37 15.49
12614 118.4330 261.00 253.03 16.16
12615 118.4420 260.00 258.21 16.12
12616 118.4510 239.00 263.70 15.46
12617 118.4600 261.00 269.25 16.16
12618 118.4690 281.00 274.64 16.76
12619 118.4780 260.00 279.67 16.12
12620 118.4870 268.00 284.24 16.37
12621 118.4960 287.00 288.22 16.94
12622 118.5050 287.00 291.57 16.94
12623 118.5140 284.00 294.20 16.85
12624 118.5230 285.00 296.01 16.88
12625 118.5320 269.00 296.81 16.40
12626 118.5410 268.00 296.41 16.37
12627 118.5500 286.00 294.61 16.91
12628 118.5590 299.00 291.26 17.29
12629 118.5680 297.00 286.30 17.23
12630 118.5770 283.00 279.79 16.82
12631 118.5860 299.00 271.86 17.29
12632 118.5950 260.00 262.77 16.12
12633 118.6040 271.00 252.79 16.46
12634 118.6130 274.00 242.27 16.55
12635 118.6220 242.00 231.44 15.56
12636 118.6310 232.00 220.57 15.23
12637 118.6400 221.00 209.88 14.87
12638 118.6490 220.00 199.51 14.83
12639 118.6580 216.00 189.62 14.70
12640 118.6670 172.00 180.27 13.11
12641 118.6760 182.00 171.52 13.49
12642 118.6850 182.00 163.43 13.49
12643 118.6940 142.00 155.99 11.92
12644 118.7030 136.00 149.22 11.66
12645 118.7120 130.00 143.12 11.40
12646 118.7210 147.00 137.64 12.12
12647 118.7300 141.00 132.84 11.87
12648 118.7390 118.00 128.54 10.86
12649 118.7480 128.00 124.76 11.31
12650 118.7570 124.00 121.47 11.14
12651 118.7650 130.00 118.63 11.40
12652 118.7740 138.00 116.18 11.75
12653 118.7830 133.00 114.10 11.53
12654 118.7920 115.00 112.33 10.72
12655 118.8010 110.00 110.84 10.49
12656 118.8100 108.00 109.61 10.39
12657 118.8190 112.00 108.61 10.58
12658 118.8280 113.00 107.81 10.63
12659 118.8370 119.00 107.19 10.91
12660 118.8460 112.00 106.73 10.58
12661 118.8550 103.00 106.43 10.15
12662 118.8640 105.00 106.27 10.25
12663 118.8730 117.00 106.28 10.82
12664 118.8820 123.00 106.38 11.09
12665 118.8910 118.00 106.61 10.86
12666 118.9000 115.00 106.95 10.72
12667 118.9090 95.00 107.40 9.75
12668 118.9180 102.00 107.97 10.10
12669 118.9270 113.00 108.64 10.63
12670 118.9360 131.00 109.39 11.45
12671 118.9450 123.00 110.25 11.09
12672 118.9540 108.00 111.21 10.39
12673 118.9630 119.00 112.25 10.91
12674 118.9720 113.00 113.37 10.63
12675 118.9810 106.00 114.57 10.30
12676 118.9900 98.00 115.83 9.90
12677 118.9990 105.00 117.17 10.25
12678 119.0080 96.00 118.57 9.80
12679 119.0170 121.00 120.02 11.00
12680 119.0260 107.00 121.53 10.34
12681 119.0350 108.00 123.11 10.39
12682 119.0440 133.00 124.76 11.53
12683 119.0530 135.00 126.52 11.62
12684 119.0620 126.00 128.44 11.23
12685 119.0710 129.00 130.56 11.36
12686 119.0800 135.00 132.96 11.62
12687 119.0890 126.00 135.68 11.23
12688 119.0980 130.00 138.80 11.40
12689 119.1070 155.00 142.35 12.45
12690 119.1160 143.00 146.39 11.96
12691 119.1250 151.00 150.94 12.29
12692 119.1340 139.00 156.03 11.79
12693 119.1430 147.00 161.64 12.12
12694 119.1520 159.00 167.78 12.61
12695 119.1610 172.00 174.39 13.11
12696 119.1700 173.00 181.39 13.15
12697 119.1790 185.00 188.69 13.60
12698 119.1880 185.00 196.12 13.60
12699 119.1970 201.00 203.38 14.18
12700 119.2060 211.00 210.14 14.53
12701 119.2150 204.00 216.05 14.28
12702 119.2240 218.00 220.57 14.76
12703 119.2330 234.00 223.25 15.30
12704 119.2420 222.00 223.72 14.90
12705 119.2510 207.00 221.83 14.39
12706 119.2600 203.00 217.67 14.25
12707 119.2690 201.00 211.55 14.18
12708 119.2780 211.00 203.91 14.53
12709 119.2870 187.00 195.25 13.67
12710 119.2960 165.00 186.06 12.85
12711 119.3050 175.00 176.74 13.23
12712 119.3140 168.00 167.61 12.96
12713 119.3230 164.00 158.93 12.81
12714 119.3320 155.00 150.84 12.45
12715 119.3410 137.00 143.52 11.70
12716 119.3500 130.00 136.95 11.40
12717 119.3590 138.00 131.17 11.75
12718 119.3680 129.00 126.18 11.36
12719 119.3770 124.00 121.96 11.14
12720 119.3860 111.00 118.47 10.54
12721 119.3950 123.00 115.65 11.09
12722 119.4040 126.00 113.43 11.23
12723 119.4130 114.00 111.77 10.68
12724 119.4220 101.00 110.59 10.05
12725 119.4310 108.00 109.84 10.39
12726 119.4400 109.00 109.47 10.44
12727 119.4490 114.00 109.44 10.68
12728 119.4580 113.00 109.69 10.63
12729 119.4670 113.00 110.19 10.63
12730 119.4760 119.00 110.90 10.91
12731 119.4850 116.00 111.78 10.77
12732 119.4940 112.00 112.79 10.58
12733 119.5030 124.00 113.91 11.14
12734 119.5120 114.00 115.08 10.68
12735 119.5210 130.00 116.27 11.40
12736 119.5300 122.00 117.45 11.05
12737 119.5390 122.00 118.57 11.05
12738 119.5480 123.00 119.61 11.09
12739 119.5570 125.00 120.55 11.18
12740 119.5660 119.00 121.36 10.91
12741 119.5750 118.00 122.04 10.86
12742 119.5840 117.00 122.60 10.82
12743 119.5930 119.00 123.07 10.91
12744 119.6020 142.00 123.46 11.92
12745 119.6110 129.00 123.82 11.36
12746 119.6200 120.00 124.20 10.95
12747 119.6290 130.00 124.58 11.40
12748 119.6380 134.00 125.11 11.58
12749 119.6470 133.00 125.78 11.53
12750 119.6560 142.00 126.60 11.92
12751 119.6650 133.00 127.60 11.53
12752 119.6740 125.00 128.79 11.18
12753 119.6820 119.00 130.16 10.91
12754 119.6910 117.00 131.73 10.82
12755 119.7000 128.00 133.47 11.31
12756 119.7090 133.00 135.39 11.53
12757 119.7180 121.00 137.47 11.00
12758 119.7270 129.00 139.72 11.36
12759 119.7360 148.00 142.12 12.17
12760 119.7450 153.00 144.70 12.37
12761 119.7540 156.00 147.44 12.49
12762 119.7630 147.00 150.35 12.12
12763 119.7720 153.00 153.41 12.37
12764 119.7810 165.00 156.59 12.85
12765 119.7900 172.00 159.85 13.11
12766 119.7990 174.00 163.10 13.19
12767 119.8080 154.00 166.23 12.41
12768 119.8170 179.00 169.10 13.38
12769 119.8260 196.00 171.57 14.00
12770 119.8350 195.00 173.46 13.96
12771 119.8440 194.00 174.60 13.93
12772 119.8530 180.00 174.86 13.42
12773 119.8620 197.00 174.15 14.04
12774 119.8710 174.00 172.45 13.19
12775 119.8800 193.00 169.82 13.89
12776 119.8890 173.00 166.38 13.15
12777 119.8980 182.00 162.27 13.49
12778 119.9070 178.00 157.66 13.34
12779 119.9160 190.00 152.77 13.78
12780 119.9250 147.00 147.74 12.12
12781 119.9340 147.00 142.70 12.12
12782 119.9430 176.00 137.74 13.27
12783 119.9520 147.00 132.97 12.12
12784 119.9610 135.00 128.44 11.62
12785 119.9700 134.00 124.19 11.58
12786 119.9790 147.00 120.25 12.12
12787 119.9880 146.00 116.63 12.08
12788 119.9970 121.00 113.35 11.00
12789 120.0060 129.00 110.39 11.36
12790 120.0150 135.00 107.76 11.62
12791 120.0240 135.00 105.42 11.62
12792 120.0330 123.00 103.37 11.09
12793 120.0420 118.00 101.57 10.86
12794 120.0510 113.00 100.01 10.63
12795 120.0600 116.00 98.67 10.77
12796 120.0690 102.00 97.51 10.10
12797 120.0780 98.00 96.51 9.90
12798 120.0870 106.00 95.65 10.30
12799 120.0960 101.00 94.91 10.05
12800 120.1050 97.00 94.27 9.85
12801 120.1140 91.00 93.72 9.54
12802 120.1230 97.00 93.24 9.85
12803 120.1320 114.00 92.82 10.68
12804 120.1410 106.00 92.45 10.30
12805 120.1500 97.00 92.13 9.85
12806 120.1590 95.00 91.85 9.75
12807 120.1680 89.00 91.60 9.43
12808 120.1770 103.00 91.39 10.15
12809 120.1860 104.00 91.20 10.20
12810 120.1950 100.00 91.03 10.00
12811 120.2040 103.00 90.89 10.15
12812 120.2130 103.00 90.77 10.15
12813 120.2220 97.00 90.68 9.85
12814 120.2310 100.00 90.60 10.00
12815 120.2400 110.00 90.54 10.49
12816 120.2490 107.00 90.50 10.34
12817 120.2580 97.00 90.49 9.85
12818 120.2670 96.00 90.51 9.80
12819 120.2760 89.00 90.53 9.43
12820 120.2850 100.00 90.58 10.00
12821 120.2940 95.00 90.64 9.75
12822 120.3030 107.00 90.73 10.34
12823 120.3120 98.00 90.84 9.90
12824 120.3210 91.00 90.99 9.54
12825 120.3300 116.00 91.16 10.77
12826 120.3390 89.00 91.36 9.43
12827 120.3480 97.00 91.60 9.85
12828 120.3570 83.00 91.97 9.11
12829 120.3660 100.00 92.29 10.00
12830 120.3750 89.00 92.66 9.43
12831 120.3840 95.00 93.07 9.75
12832 120.3930 79.00 93.54 8.89
12833 120.4020 97.00 94.07 9.85
12834 120.4110 100.00 94.66 10.00
12835 120.4200 98.00 95.32 9.90
12836 120.4290 93.00 96.05 9.64
12837 120.4380 94.00 96.85 9.70
12838 120.4470 99.00 97.74 9.95
12839 120.4560 104.00 98.70 10.20
12840 120.4650 103.00 99.76 10.15
12841 120.4740 104.00 100.90 10.20
12842 120.4830 110.00 102.15 10.49
12843 120.4920 114.00 103.50 10.68
12844 120.5010 118.00 104.97 10.86
12845 120.5100 130.00 106.57 11.40
12846 120.5190 135.00 108.30 11.62
12847 120.5280 116.00 110.19 10.77
12848 120.5370 112.00 112.24 10.58
12849 120.5460 118.00 114.49 10.86
12850 120.5550 120.00 116.97 10.95
12851 120.5640 118.00 119.70 10.86
12852 120.5730 128.00 122.72 11.31
12853 120.5820 139.00 126.11 11.79
12854 120.5910 124.00 129.90 11.14
12855 120.5990 114.00 134.07 10.68
12856 120.6080 121.00 138.81 11.00
12857 120.6170 147.00 144.07 12.12
12858 120.6260 169.00 149.85 13.00
12859 120.6350 161.00 156.08 12.69
12860 120.6440 149.00 162.73 12.21
12861 120.6530 175.00 169.79 13.23
12862 120.6620 178.00 177.07 13.34
12863 120.6710 169.00 184.35 13.00
12864 120.6800 194.00 191.38 13.93
12865 120.6890 214.00 197.88 14.63
12866 120.6980 223.00 203.49 14.93
12867 120.7070 219.00 207.91 14.80
12868 120.7160 238.00 210.79 15.43
12869 120.7250 232.00 212.02 15.23
12870 120.7340 216.00 211.64 14.70
12871 120.7430 232.00 209.88 15.23
12872 120.7520 225.00 207.12 15.00
12873 120.7610 222.00 203.82 14.90
12874 120.7700 207.00 200.45 14.39
12875 120.7790 174.00 197.43 13.19
12876 120.7880 185.00 195.11 13.60
12877 120.7970 194.00 193.78 13.93
12878 120.8060 202.00 193.62 14.21
12879 120.8150 201.00 194.68 14.18
12880 120.8240 206.00 197.02 14.35
12881 120.8330 191.00 200.52 13.82
12882 120.8420 186.00 204.99 13.64
12883 120.8510 197.00 210.11 14.04
12884 120.8600 223.00 215.44 14.93
12885 120.8690 245.00 220.46 15.65
12886 120.8780 217.00 224.52 14.73
12887 120.8870 243.00 226.98 15.59
12888 120.8960 248.00 227.27 15.75
12889 120.9050 241.00 225.18 15.52
12890 120.9140 230.00 220.70 15.17
12891 120.9230 225.00 214.13 15.00
12892 120.9320 223.00 206.00 14.93
12893 120.9410 211.00 196.88 14.53
12894 120.9500 204.00 187.34 14.28
12895 120.9590 191.00 177.82 13.82
12896 120.9680 189.00 168.66 13.75
12897 120.9770 177.00 160.12 13.30
12898 120.9860 155.00 152.34 12.45
12899 120.9950 139.00 145.43 11.79
12900 121.0040 131.00 139.39 11.45
12901 121.0130 136.00 134.19 11.66
12902 121.0220 129.00 129.73 11.36
12903 121.0310 121.00 125.93 11.00
12904 121.0400 123.00 122.58 11.09
12905 121.0490 124.00 119.67 11.14
12906 121.0580 124.00 117.04 11.14
12907 121.0670 121.00 114.60 11.00
12908 121.0760 121.00 112.32 11.00
12909 121.0850 118.00 110.17 10.86
12910 121.0940 108.00 108.16 10.39
12911 121.1030 104.00 106.29 10.20
12912 121.1120 120.00 104.65 10.95
12913 121.1210 102.00 103.08 10.10
12914 121.1300 104.00 101.67 10.20
12915 121.1390 101.00 100.40 10.05
12916 121.1480 99.00 99.28 9.95
12917 121.1570 102.00 98.28 10.10
12918 121.1660 103.00 97.41 10.15
12919 121.1750 125.00 96.66 11.18
12920 121.1840 99.00 96.00 9.95
12921 121.1930 88.00 95.42 9.38
12922 121.2020 104.00 94.91 10.20
12923 121.2110 88.00 94.45 9.38
12924 121.2200 98.00 94.04 9.90
12925 121.2290 93.00 93.67 9.64
12926 121.2380 102.00 93.32 10.10
12927 121.2470 107.00 92.99 10.34
12928 121.2560 98.00 92.68 9.90
12929 121.2650 92.00 92.39 9.59
12930 121.2740 96.00 92.12 9.80
12931 121.2830 97.00 91.87 9.85
12932 121.2920 89.00 91.63 9.43
12933 121.3010 82.00 91.42 9.06
12934 121.3100 86.00 91.22 9.27
12935 121.3190 96.00 91.05 9.80
12936 121.3280 96.00 90.90 9.80
12937 121.3370 109.00 90.77 10.44
12938 121.3460 104.00 90.67 10.20
12939 121.3550 95.00 90.59 9.75
12940 121.3640 90.00 90.54 9.49
12941 121.3730 90.00 90.53 9.49
12942 121.3820 88.00 90.54 9.38
12943 121.3910 87.00 90.59 9.33
12944 121.4000 98.00 90.67 9.90
12945 121.4090 100.00 90.80 10.00
12946 121.4180 98.00 90.97 9.90
12947 121.4270 100.00 91.19 10.00
12948 121.4360 99.00 91.46 9.95
12949 121.4450 98.00 91.79 9.90
12950 121.4540 94.00 92.18 9.70
12951 121.4630 101.00 92.65 10.05
12952 121.4720 105.00 93.15 10.25
12953 121.4810 91.00 93.78 9.54
12954 121.4900 109.00 94.51 10.44
12955 121.4990 120.00 95.35 10.95
12956 121.5070 101.00 96.18 10.05
12957 121.5160 114.00 97.25 10.68
12958 121.5250 102.00 98.45 10.10
12959 121.5340 114.00 99.79 10.68
12960 121.5430 124.00 101.28 11.14
12961 121.5520 102.00 102.93 10.10
12962 121.5610 115.00 104.75 10.72
12963 121.5700 113.00 106.72 10.63
12964 121.5790 121.00 108.88 11.00
12965 121.5880 105.00 111.21 10.25
12966 121.5970 112.00 113.70 10.58
12967 121.6060 120.00 116.35 10.95
12968 121.6150 113.00 119.12 10.63
12969 121.6240 116.00 121.99 10.77
12970 121.6330 143.00 124.94 11.96
12971 121.6420 115.00 127.92 10.72
12972 121.6510 130.00 130.84 11.40
12973 121.6600 137.00 133.76 11.70
12974 121.6690 140.00 136.59 11.83
12975 121.6780 120.00 139.30 10.95
12976 121.6870 136.00 141.86 11.66
12977 121.6960 152.00 144.21 12.33
12978 121.7050 139.00 146.29 11.79
12979 121.7140 133.00 148.02 11.53
12980 121.7230 145.00 149.30 12.04
12981 121.7320 133.00 150.01 11.53
12982 121.7410 150.00 150.06 12.25
12983 121.7500 153.00 149.41 12.37
12984 121.7590 156.00 148.06 12.49
12985 121.7680 152.00 146.07 12.33
12986 121.7770 152.00 143.57 12.33
12987 121.7860 140.00 140.71 11.83
12988 121.7950 127.00 137.63 11.27
12989 121.8040 131.00 134.50 11.45
12990 121.8130 130.00 131.41 11.40
12991 121.8220 134.00 128.49 11.58
12992 121.8310 139.00 125.81 11.79
12993 121.8400 130.00 123.40 11.40
12994 121.8490 121.00 121.32 11.00
12995 121.8580 126.00 119.61 11.23
12996 121.8670 117.00 118.17 10.82
12997 121.8760 105.00 117.01 10.25
12998 121.8850 124.00 116.11 11.14
12999 121.8940 121.00 115.40 11.00
13000 121.9030 124.00 114.82 11.14
13001 121.9120 135.00 114.33 11.62
13002 121.9210 113.00 113.83 10.63
13003 121.9300 114.00 113.28 10.68
13004 121.9390 110.00 112.61 10.49
13005 121.9480 110.00 111.80 10.49
13006 121.9570 108.00 110.85 10.39
13007 121.9660 112.00 109.74 10.58
13008 121.9750 112.00 108.52 10.58
13009 121.9840 140.00 107.22 11.83
13010 121.9930 113.00 105.86 10.63
13011 122.0020 117.00 104.48 10.82
13012 122.0110 112.00 103.10 10.58
13013 122.0200 106.00 101.76 10.30
13014 122.0290 121.00 100.47 11.00
13015 122.0380 106.00 99.25 10.30
13016 122.0470 95.00 98.10 9.75
13017 122.0560 106.00 97.04 10.30
13018 122.0650 102.00 96.06 10.10
13019 122.0740 99.00 95.18 9.95
13020 122.0830 87.00 94.38 9.33
13021 122.0920 92.00 93.68 9.59
13022 122.1010 109.00 93.06 10.44
13023 122.1100 87.00 92.52 9.33
13024 122.1190 96.00 92.06 9.80
13025 122.1280 98.00 91.68 9.90
13026 122.1370 104.00 91.37 10.20
13027 122.1460 95.00 91.11 9.75
13028 122.1550 96.00 90.92 9.80
13029 122.1640 98.00 90.79 9.90
13030 122.1730 90.00 90.71 9.49
13031 122.1820 93.00 90.67 9.64
13032 122.1910 97.00 90.69 9.85
13033 122.2000 92.00 90.76 9.59
13034 122.2090 82.00 90.87 9.06
13035 122.2180 84.00 91.03 9.17
13036 122.2270 96.00 91.23 9.80
13037 122.2360 99.00 91.48 9.95
13038 122.2450 100.00 91.79 10.00
13039 122.2540 95.00 92.14 9.75
13040 122.2630 98.00 92.54 9.90
13041 122.2720 98.00 92.99 9.90
13042 122.2810 100.00 93.50 10.00
13043 122.2900 107.00 94.06 10.34
13044 122.2990 94.00 94.67 9.70
13045 122.3080 103.00 95.33 10.15
13046 122.3170 111.00 96.05 10.54
13047 122.3260 102.00 96.81 10.10
13048 122.3350 102.00 97.60 10.10
13049 122.3440 95.00 98.43 9.75
13050 122.3530 95.00 99.29 9.75
13051 122.3620 93.00 100.16 9.64
13052 122.3710 99.00 101.04 9.95
13053 122.3800 106.00 101.92 10.30
13054 122.3890 120.00 102.79 10.95
13055 122.3980 115.00 103.66 10.72
13056 122.4070 117.00 104.51 10.82
13057 122.4150 109.00 105.36 10.44
13058 122.4240 128.00 106.22 11.31
13059 122.4330 114.00 107.07 10.68
13060 122.4420 96.00 107.93 9.80
13061 122.4510 106.00 108.78 10.30
13062 122.4600 116.00 109.61 10.77
13063 122.4690 113.00 110.40 10.63
13064 122.4780 102.00 111.14 10.10
13065 122.4870 128.00 111.79 11.31
13066 122.4960 130.00 112.36 11.40
13067 122.5050 117.00 112.83 10.82
13068 122.5140 128.00 113.22 11.31
13069 122.5230 134.00 113.56 11.58
13070 122.5320 123.00 113.88 11.09
13071 122.5410 118.00 114.22 10.86
13072 122.5500 114.00 114.63 10.68
13073 122.5590 132.00 115.13 11.49
13074 122.5680 115.00 115.75 10.72
13075 122.5770 115.00 116.50 10.72
13076 122.5860 118.00 117.38 10.86
13077 122.5950 123.00 118.39 11.09
13078 122.6040 111.00 119.51 10.54
13079 122.6130 122.00 120.70 11.05
13080 122.6220 133.00 121.93 11.53
13081 122.6310 131.00 123.20 11.45
13082 122.6400 144.00 124.49 12.00
13083 122.6490 133.00 125.81 11.53
13084 122.6580 124.00 127.17 11.14
13085 122.6670 127.00 128.62 11.27
13086 122.6760 133.00 130.16 11.53
13087 122.6850 136.00 131.83 11.66
13088 122.6940 129.00 133.56 11.36
13089 122.7030 121.00 135.47 11.00
13090 122.7120 121.00 137.50 11.00
13091 122.7210 130.00 139.63 11.40
13092 122.7300 141.00 141.83 11.87
13093 122.7390 133.00 144.06 11.53
13094 122.7480 122.00 146.31 11.05
13095 122.7570 133.00 148.40 11.53
13096 122.7660 146.00 150.28 12.08
13097 122.7750 152.00 151.82 12.33
13098 122.7840 158.00 152.93 12.57
13099 122.7930 172.00 153.51 13.11
13100 122.8020 162.00 153.55 12.73
13101 122.8110 144.00 153.06 12.00
13102 122.8200 143.00 152.11 11.96
13103 122.8290 146.00 150.81 12.08
13104 122.8380 156.00 149.29 12.49
13105 122.8470 154.00 147.68 12.41
13106 122.8560 158.00 146.12 12.57
13107 122.8650 130.00 144.73 11.40
13108 122.8740 156.00 143.60 12.49
13109 122.8830 155.00 142.81 12.45
13110 122.8920 146.00 142.43 12.08
13111 122.9010 153.00 142.50 12.37
13112 122.9100 138.00 143.03 11.75
13113 122.9190 134.00 144.01 11.58
13114 122.9280 128.00 145.42 11.31
13115 122.9370 143.00 147.21 11.96
13116 122.9460 142.00 149.31 11.92
13117 122.9550 135.00 151.71 11.62
13118 122.9640 142.00 154.11 11.92
13119 122.9730 156.00 156.45 12.49
13120 122.9820 161.00 158.54 12.69
13121 122.9910 170.00 160.26 13.04
13122 123.0000 161.00 161.42 12.69
13123 123.0090 169.00 161.88 13.00
13124 123.0180 167.00 161.59 12.92
13125 123.0270 151.00 160.52 12.29
13126 123.0360 147.00 158.77 12.12
13127 123.0450 160.00 156.35 12.65
13128 123.0540 150.00 153.48 12.25
13129 123.0630 148.00 150.21 12.17
13130 123.0720 141.00 146.63 11.87
13131 123.0810 145.00 143.02 12.04
13132 123.0900 151.00 139.38 12.29
13133 123.0990 151.00 135.78 12.29
13134 123.1080 142.00 132.29 11.92
13135 123.1170 139.00 128.96 11.79
13136 123.1260 140.00 125.83 11.83
13137 123.1350 130.00 122.95 11.40
13138 123.1440 127.00 120.35 11.27
13139 123.1530 121.00 117.96 11.00
13140 123.1620 118.00 115.96 10.86
13141 123.1710 123.00 114.25 11.09
13142 123.1800 119.00 112.84 10.91
13143 123.1890 109.00 111.71 10.44
13144 123.1980 114.00 110.84 10.68
13145 123.2070 114.00 110.18 10.68
13146 123.2160 115.00 109.72 10.72
13147 123.2250 116.00 109.40 10.77
13148 123.2340 124.00 109.18 11.14
13149 123.2430 116.00 109.02 10.77
13150 123.2520 114.00 108.88 10.68
13151 123.2610 131.00 108.71 11.45
13152 123.2700 120.00 108.48 10.95
13153 123.2790 118.00 108.17 10.86
13154 123.2880 130.00 107.77 11.40
13155 123.2970 147.00 107.29 12.12
13156 123.3050 116.00 106.74 10.77
13157 123.3140 106.00 106.14 10.30
13158 123.3230 126.00 105.53 11.23
13159 123.3320 118.00 104.94 10.86
13160 123.3410 115.00 104.39 10.72
13161 123.3500 91.00 103.89 9.54
13162 123.3590 95.00 103.49 9.75
13163 123.3680 112.00 103.19 10.58
13164 123.3770 91.00 103.02 9.54
13165 123.3860 113.00 102.98 10.63
13166 123.3950 106.00 103.09 10.30
13167 123.4040 96.00 103.36 9.80
13168 123.4130 105.00 103.79 10.25
13169 123.4220 101.00 104.41 10.05
13170 123.4310 108.00 105.22 10.39
13171 123.4400 102.00 106.21 10.10
13172 123.4490 111.00 107.40 10.54
13173 123.4580 111.00 108.78 10.54
13174 123.4670 102.00 110.34 10.10
13175 123.4760 110.00 112.08 10.49
13176 123.4850 114.00 113.97 10.68
13177 123.4940 106.00 116.00 10.30
13178 123.5030 110.00 118.14 10.49
13179 123.5120 116.00 120.33 10.77
13180 123.5210 114.00 122.53 10.68
13181 123.5300 118.00 124.67 10.86
13182 123.5390 118.00 126.70 10.86
13183 123.5480 122.00 128.54 11.05
13184 123.5570 129.00 130.10 11.36
13185 123.5660 129.00 131.29 11.36
13186 123.5750 132.00 132.05 11.49
13187 123.5840 127.00 132.30 11.27
13188 123.5930 120.00 131.99 10.95
13189 123.6020 117.00 131.12 10.82
13190 123.6110 119.00 129.73 10.91
13191 123.6200 126.00 127.90 11.23
13192 123.6290 143.00 125.72 11.96
13193 123.6380 116.00 123.30 10.77
13194 123.6470 120.00 120.76 10.95
13195 123.6560 123.00 118.24 11.09
13196 123.6650 129.00 115.71 11.36
13197 123.6740 117.00 113.27 10.82
13198 123.6830 118.00 110.97 10.86
13199 123.6920 97.00 108.84 9.85
13200 123.7010 111.00 106.90 10.54
13201 123.7100 120.00 105.16 10.95
13202 123.7190 106.00 103.63 10.30
13203 123.7280 119.00 102.29 10.91
13204 123.7370 98.00 101.16 9.90
13205 123.7460 108.00 100.21 10.39
13206 123.7550 104.00 99.44 10.20
13207 123.7640 96.00 98.84 9.80
13208 123.7730 112.00 98.39 10.58
13209 123.7820 103.00 98.08 10.15
13210 123.7910 102.00 97.90 10.10
13211 123.8000 103.00 97.84 10.15
13212 123.8090 105.00 97.89 10.25
13213 123.8180 108.00 98.05 10.39
13214 123.8270 99.00 98.32 9.95
13215 123.8360 97.00 98.68 9.85
13216 123.8450 96.00 99.16 9.80
13217 123.8540 103.00 99.73 10.15
13218 123.8630 109.00 100.42 10.44
13219 123.8720 109.00 101.23 10.44
13220 123.8810 99.00 102.16 9.95
13221 123.8900 99.00 103.22 9.95
13222 123.8990 92.00 104.42 9.59
13223 123.9080 116.00 105.77 10.77
13224 123.9170 126.00 107.28 11.23
13225 123.9260 116.00 108.96 10.77
13226 123.9350 109.00 110.83 10.44
13227 123.9440 111.00 112.89 10.54
13228 123.9530 106.00 115.16 10.30
13229 123.9620 108.00 117.64 10.39
13230 123.9710 122.00 120.43 11.05
13231 123.9800 121.00 123.33 11.00
13232 123.9890 120.00 126.43 10.95
13233 123.9980 120.00 129.70 10.95
13234 124.0070 112.00 133.13 10.58
13235 124.0160 113.00 136.66 10.63
13236 124.0250 127.00 140.24 11.27
13237 124.0340 142.00 143.79 11.92
13238 124.0430 150.00 147.22 12.25
13239 124.0520 147.00 150.42 12.12
13240 124.0610 155.00 153.27 12.45
13241 124.0700 156.00 155.66 12.49
13242 124.0790 148.00 157.45 12.17
13243 124.0880 141.00 158.54 11.87
13244 124.0970 160.00 158.88 12.65
13245 124.1060 175.00 158.45 13.23
13246 124.1150 161.00 157.27 12.69
13247 124.1240 158.00 155.41 12.57
13248 124.1330 159.00 152.98 12.61
13249 124.1420 156.00 150.11 12.49
13250 124.1510 150.00 146.93 12.25
13251 124.1600 154.00 143.52 12.41
13252 124.1690 133.00 140.05 11.53
13253 124.1780 145.00 136.60 12.04
13254 124.1870 144.00 133.23 12.00
13255 124.1960 161.00 130.01 12.69
13256 124.2040 118.00 127.00 10.86
13257 124.2130 131.00 124.23 11.45
13258 124.2220 142.00 121.73 11.92
13259 124.2310 116.00 119.54 10.77
13260 124.2400 111.00 117.67 10.54
13261 124.2490 136.00 116.13 11.66
13262 124.2580 122.00 114.94 11.05
13263 124.2670 119.00 114.10 10.91
13264 124.2760 103.00 113.62 10.15
13265 124.2850 130.00 113.51 11.40
13266 124.2940 117.00 113.75 10.82
13267 124.3030 98.00 114.35 9.90
13268 124.3120 105.00 115.31 10.25
13269 124.3210 117.00 116.74 10.82
13270 124.3300 118.00 118.38 10.86
13271 124.3390 124.00 120.35 11.14
13272 124.3480 129.00 122.61 11.36
13273 124.3570 122.00 125.13 11.05
13274 124.3660 120.00 127.89 10.95
13275 124.3750 125.00 130.82 11.18
13276 124.3840 127.00 133.85 11.27
13277 124.3930 139.00 136.92 11.79
13278 124.4020 141.00 139.92 11.87
13279 124.4110 132.00 142.74 11.49
13280 124.4200 131.00 145.24 11.45
13281 124.4290 140.00 147.30 11.83
13282 124.4380 153.00 148.80 12.37
13283 124.4470 147.00 149.65 12.12
13284 124.4560 150.00 149.81 12.25
13285 124.4650 146.00 149.27 12.08
13286 124.4740 150.00 148.09 12.25
13287 124.4830 150.00 146.35 12.25
13288 124.4920 155.00 144.14 12.45
13289 124.5010 145.00 141.57 12.04
13290 124.5100 157.00 138.76 12.53
13291 124.5190 142.00 135.78 11.92
13292 124.5280 147.00 132.72 12.12
13293 124.5370 124.00 129.64 11.14
13294 124.5460 127.00 126.60 11.27
13295 124.5550 124.00 123.65 11.14
13296 124.5640 126.00 120.83 11.23
13297 124.5730 104.00 118.16 10.20
13298 124.5820 111.00 115.66 10.54
13299 124.5910 118.00 113.33 10.86
13300 124.6000 114.00 111.19 10.68
13301 124.6090 110.00 109.25 10.49
13302 124.6180 116.00 107.47 10.77
13303 124.6270 102.00 105.88 10.10
13304 124.6360 97.00 104.44 9.85
13305 124.6450 105.00 103.16 10.25
13306 124.6540 98.00 102.03 9.90
13307 124.6630 106.00 101.03 10.30
13308 124.6720 93.00 100.15 9.64
13309 124.6810 113.00 99.37 10.63
13310 124.6900 96.00 98.70 9.80
13311 124.6990 94.00 98.13 9.70
13312 124.7080 99.00 97.64 9.95
13313 124.7170 94.00 97.24 9.70
13314 124.7260 104.00 96.90 10.20
13315 124.7350 115.00 96.63 10.72
13316 124.7440 116.00 96.43 10.77
13317 124.7530 119.00 96.26 10.91
13318 124.7620 108.00 96.16 10.39
13319 124.7710 101.00 96.11 10.05
13320 124.7800 93.00 96.11 9.64
13321 124.7890 103.00 96.15 10.15
13322 124.7980 104.00 96.24 10.20
13323 124.8070 97.00 96.37 9.85
13324 124.8160 100.00 96.54 10.00
13325 124.8250 102.00 96.75 10.10
13326 124.8340 107.00 97.00 10.34
13327 124.8430 110.00 97.30 10.49
13328 124.8520 103.00 97.65 10.15
13329 124.8610 100.00 98.05 10.00
13330 124.8700 106.00 98.51 10.30
13331 124.8790 107.00 99.04 10.34
13332 124.8880 115.00 99.64 10.72
13333 124.8970 110.00 100.34 10.49
13334 124.9060 120.00 101.15 10.95
13335 124.9150 121.00 102.09 11.00
13336 124.9240 116.00 103.18 10.77
13337 124.9330 106.00 104.44 10.30
13338 124.9420 113.00 105.89 10.63
13339 124.9510 126.00 107.56 11.23
13340 124.9600 93.00 109.45 9.64
13341 124.9690 110.00 111.57 10.49
13342 124.9780 127.00 113.94 11.27
13343 124.9870 116.00 116.52 10.77
13344 124.9960 113.00 119.30 10.63
13345 125.0050 120.00 122.24 10.95
13346 125.0140 107.00 125.28 10.34
13347 125.0230 111.00 128.35 10.54
13348 125.0320 123.00 131.32 11.09
13349 125.0410 131.00 134.06 11.45
13350 125.0500 141.00 136.43 11.87
13351 125.0590 124.00 138.28 11.14
13352 125.0680 137.00 139.46 11.70
13353 125.0770 174.00 139.89 13.19
13354 125.0860 145.00 139.55 12.04
13355 125.0950 144.00 138.51 12.00
13356 125.1030 160.00 136.88 12.65
13357 125.1120 148.00 134.83 12.17
13358 125.1210 141.00 132.53 11.87
13359 125.1300 135.00 130.11 11.62
13360 125.1390 140.00 127.71 11.83
13361 125.1480 142.00 125.44 11.92
13362 125.1570 148.00 123.35 12.17
13363 125.1660 146.00 121.51 12.08
13364 125.1750 130.00 119.96 11.40
13365 125.1840 126.00 118.71 11.23
13366 125.1930 124.00 117.77 11.14
13367 125.2020 112.00 117.13 10.58
13368 125.2110 109.00 116.78 10.44
13369 125.2200 118.00 116.77 10.86
13370 125.2290 109.00 116.95 10.44
13371 125.2380 93.00 117.36 9.64
13372 125.2470 107.00 118.08 10.34
13373 125.2560 117.00 118.86 10.82
13374 125.2650 110.00 119.77 10.49
13375 125.2740 110.00 120.78 10.49
13376 125.2830 108.00 121.87 10.39
13377 125.2920 117.00 123.03 10.82
13378 125.3010 121.00 124.21 11.00
13379 125.3100 119.00 125.42 10.91
13380 125.3190 130.00 126.64 11.40
13381 125.3280 129.00 127.87 11.36
13382 125.3370 130.00 129.11 11.40
13383 125.3460 142.00 130.35 11.92
13384 125.3550 127.00 131.58 11.27
13385 125.3640 104.00 132.80 10.20
13386 125.3730 125.00 133.99 11.18
13387 125.3820 137.00 135.14 11.70
13388 125.3910 135.00 136.20 11.62
13389 125.4000 129.00 137.14 11.36
13390 125.4090 140.00 137.90 11.83
13391 125.4180 133.00 138.42 11.53
13392 125.4270 150.00 138.66 12.25
13393 125.4360 126.00 138.59 11.23
13394 125.4450 117.00 138.20 10.82
13395 125.4540 132.00 137.52 11.49
13396 125.4630 148.00 136.58 12.17
13397 125.4720 130.00 135.44 11.40
13398 125.4810 130.00 134.15 11.40
13399 125.4900 143.00 132.79 11.96
13400 125.4990 142.00 131.41 11.92
13401 125.5080 145.00 130.05 12.04
13402 125.5170 141.00 128.77 11.87
13403 125.5260 124.00 127.59 11.14
13404 125.5350 134.00 126.54 11.58
13405 125.5440 122.00 125.64 11.05
13406 125.5530 119.00 124.89 10.91
13407 125.5620 109.00 124.31 10.44
13408 125.5710 140.00 123.90 11.83
13409 125.5800 126.00 123.65 11.23
13410 125.5890 123.00 123.57 11.09
13411 125.5980 116.00 123.65 10.77
13412 125.6070 110.00 123.88 10.49
13413 125.6160 112.00 124.26 10.58
13414 125.6250 109.00 124.77 10.44
13415 125.6340 116.00 125.40 10.77
13416 125.6430 122.00 126.14 11.05
13417 125.6520 105.00 126.97 10.25
13418 125.6610 111.00 127.88 10.54
13419 125.6700 121.00 128.86 11.00
13420 125.6790 109.00 129.90 10.44
13421 125.6880 116.00 131.03 10.77
13422 125.6970 123.00 132.19 11.09
13423 125.7060 120.00 133.40 10.95
13424 125.7150 135.00 134.69 11.62
13425 125.7240 138.00 136.06 11.75
13426 125.7330 123.00 137.52 11.09
13427 125.7420 126.00 139.10 11.23
13428 125.7510 133.00 140.80 11.53
13429 125.7600 151.00 142.64 12.29
13430 125.7690 147.00 144.62 12.12
13431 125.7780 153.00 146.75 12.37
13432 125.7870 146.00 148.97 12.08
13433 125.7960 154.00 151.37 12.41
13434 125.8050 133.00 153.89 11.53
13435 125.8140 139.00 156.52 11.79
13436 125.8230 132.00 159.24 11.49
13437 125.8320 148.00 162.03 12.17
13438 125.8410 153.00 164.90 12.37
13439 125.8500 149.00 167.83 12.21
13440 125.8590 150.00 170.80 12.25
13441 125.8680 143.00 173.81 11.96
13442 125.8770 167.00 176.83 12.92
13443 125.8860 137.00 179.81 11.70
13444 125.8950 170.00 182.70 13.04
13445 125.9040 156.00 185.44 12.49
13446 125.9130 162.00 187.90 12.73
13447 125.9220 187.00 189.99 13.67
13448 125.9310 173.00 191.60 13.15
13449 125.9400 196.00 192.62 14.00
13450 125.9490 205.00 193.00 14.32
13451 125.9580 184.00 192.69 13.56
13452 125.9670 193.00 191.72 13.89
13453 125.9760 209.00 190.16 14.46
13454 125.9850 205.00 188.11 14.32
13455 125.9930 192.00 185.68 13.86
13456 126.0020 181.00 183.00 13.45
13457 126.0110 192.00 180.28 13.86
13458 126.0200 186.00 177.40 13.64
13459 126.0290 166.00 174.53 12.88
13460 126.0380 167.00 171.73 12.92
13461 126.0470 178.00 169.04 13.34
13462 126.0560 178.00 166.48 13.34
13463 126.0650 162.00 164.07 12.73
13464 126.0740 158.00 161.82 12.57
13465 126.0830 166.00 159.73 12.88
13466 126.0920 161.00 157.85 12.69
13467 126.1010 165.00 156.18 12.85
13468 126.1100 171.00 154.73 13.08
13469 126.1190 163.00 153.54 12.77
13470 126.1280 152.00 152.60 12.33
13471 126.1370 145.00 151.96 12.04
13472 126.1460 168.00 151.61 12.96
13473 126.1550 170.00 151.57 13.04
13474 126.1640 143.00 151.83 11.96
13475 126.1730 147.00 152.40 12.12
13476 126.1820 160.00 153.23 12.65
13477 126.1910 147.00 154.32 12.12
13478 126.2000 151.00 155.60 12.29
13479 126.2090 164.00 157.01 12.81
13480 126.2180 163.00 158.50 12.77
13481 126.2270 134.00 159.98 11.58
13482 126.2360 169.00 161.36 13.00
13483 126.2450 158.00 162.58 12.57
13484 126.2540 155.00 163.57 12.45
13485 126.2630 152.00 164.31 12.33
13486 126.2720 167.00 164.78 12.92
13487 126.2810 175.00 165.01 13.23
13488 126.2900 151.00 165.04 12.29
13489 126.2990 176.00 164.93 13.27
13490 126.3080 160.00 164.74 12.65
13491 126.3170 200.00 164.55 14.14
13492 126.3260 190.00 164.45 13.78
13493 126.3350 178.00 164.53 13.34
13494 126.3440 153.00 164.89 12.37
13495 126.3530 170.00 165.60 13.04
13496 126.3620 155.00 166.75 12.45
13497 126.3710 157.00 168.39 12.53
13498 126.3800 164.00 170.57 12.81
13499 126.3890 183.00 173.30 13.53
13500 126.3980 172.00 176.55 13.11
13501 126.4070 186.00 180.29 13.64
13502 126.4160 182.00 184.41 13.49
13503 126.4250 188.00 188.79 13.71
13504 126.4340 184.00 193.25 13.56
13505 126.4430 187.00 197.54 13.67
13506 126.4520 191.00 201.38 13.82
13507 126.4610 191.00 204.47 13.82
13508 126.4700 203.00 206.50 14.25
13509 126.4790 202.00 207.22 14.21
13510 126.4880 201.00 206.48 14.18
13511 126.4970 197.00 204.27 14.04
13512 126.5060 186.00 200.72 13.64
13513 126.5150 182.00 196.04 13.49
13514 126.5240 175.00 190.51 13.23
13515 126.5330 165.00 184.42 12.85
13516 126.5420 166.00 178.03 12.88
13517 126.5510 161.00 171.57 12.69
13518 126.5600 149.00 165.21 12.21
13519 126.5690 150.00 159.09 12.25
13520 126.5780 147.00 153.34 12.12
13521 126.5870 146.00 148.00 12.08
13522 126.5960 132.00 143.14 11.49
13523 126.6050 133.00 138.81 11.53
13524 126.6140 136.00 134.98 11.66
13525 126.6230 116.00 131.66 10.77
13526 126.6320 120.00 128.86 10.95
13527 126.6410 112.00 126.54 10.58
13528 126.6500 133.00 124.68 11.53
13529 126.6590 117.00 123.27 10.82
13530 126.6680 119.00 122.27 10.91
13531 126.6770 132.00 121.66 11.49
13532 126.6860 127.00 121.43 11.27
13533 126.6950 130.00 121.55 11.40
13534 126.7040 102.00 122.03 10.10
13535 126.7130 131.00 123.02 11.45
13536 126.7220 134.00 124.17 11.58
13537 126.7310 115.00 125.66 10.72
13538 126.7400 120.00 127.49 10.95
13539 126.7490 132.00 129.66 11.49
13540 126.7580 114.00 132.17 10.68
13541 126.7670 116.00 135.01 10.77
13542 126.7760 129.00 138.16 11.36
13543 126.7850 132.00 141.62 11.49
13544 126.7940 136.00 145.33 11.66
13545 126.8030 139.00 149.27 11.79
13546 126.8120 143.00 153.36 11.96
13547 126.8210 135.00 157.57 11.62
13548 126.8300 139.00 161.81 11.79
13549 126.8390 147.00 165.97 12.12
13550 126.8480 159.00 169.97 12.61
13551 126.8570 163.00 173.69 12.77
13552 126.8660 178.00 177.01 13.34
13553 126.8750 179.00 179.81 13.38
13554 126.8830 192.00 181.98 13.86
13555 126.8920 178.00 183.42 13.34
13556 126.9010 186.00 184.11 13.64
13557 126.9100 200.00 184.06 14.14
13558 126.9190 187.00 183.34 13.67
13559 126.9280 183.00 182.07 13.53
13560 126.9370 183.00 180.38 13.53
13561 126.9460 179.00 178.42 13.38
13562 126.9550 173.00 176.31 13.15
13563 126.9640 174.00 174.15 13.19
13564 126.9730 180.00 172.04 13.42
13565 126.9820 172.00 170.05 13.11
13566 126.9910 161.00 168.25 12.69
13567 127.0000 155.00 166.68 12.45
13568 127.0090 160.00 165.39 12.65
13569 127.0180 168.00 164.38 12.96
13570 127.0270 146.00 163.68 12.08
13571 127.0360 147.00 163.27 12.12
13572 127.0450 171.00 163.10 13.08
13573 127.0540 159.00 163.18 12.61
13574 127.0630 155.00 163.43 12.45
13575 127.0720 164.00 163.75 12.81
13576 127.0810 146.00 164.08 12.08
13577 127.0900 161.00 164.30 12.69
13578 127.0990 158.00 164.37 12.57
13579 127.1080 168.00 164.20 12.96
13580 127.1170 180.00 163.75 13.42
13581 127.1260 169.00 163.02 13.00
13582 127.1350 161.00 162.02 12.69
13583 127.1440 179.00 160.79 13.38
13584 127.1530 171.00 159.38 13.08
13585 127.1620 155.00 157.85 12.45
13586 127.1710 179.00 156.25 13.38
13587 127.1800 147.00 154.62 12.12
13588 127.1890 148.00 152.98 12.17
13589 127.1980 147.00 151.33 12.12
13590 127.2070 166.00 149.71 12.88
13591 127.2160 147.00 148.10 12.12
13592 127.2250 155.00 146.49 12.45
13593 127.2340 139.00 144.86 11.79
13594 127.2430 138.00 143.20 11.75
13595 127.2520 137.00 141.51 11.70
13596 127.2610 152.00 139.79 12.33
13597 127.2700 152.00 138.04 12.33
13598 127.2790 149.00 136.29 12.21
13599 127.2880 161.00 134.57 12.69
13600 127.2970 146.00 132.91 12.08
13601 127.3060 144.00 131.32 12.00
13602 127.3150 150.00 129.84 12.25
13603 127.3240 137.00 128.49 11.70
13604 127.3330 132.00 127.30 11.49
13605 127.3420 131.00 126.27 11.45
13606 127.3510 124.00 125.42 11.14
13607 127.3600 125.00 124.74 11.18
13608 127.3690 124.00 124.23 11.14
13609 127.3780 126.00 123.89 11.23
13610 127.3870 124.00 123.74 11.14
13611 127.3960 112.00 123.66 10.58
13612 127.4050 121.00 123.68 11.00
13613 127.4140 129.00 123.72 11.36
13614 127.4230 116.00 123.78 10.77
13615 127.4320 129.00 123.78 11.36
13616 127.4410 141.00 123.67 11.87
13617 127.4500 133.00 123.42 11.53
13618 127.4590 123.00 123.00 11.09
13619 127.4680 119.00 122.41 10.91
13620 127.4770 126.00 121.68 11.23
13621 127.4860 123.00 120.85 11.09
13622 127.4950 116.00 119.98 10.77
13623 127.5040 107.00 119.10 10.34
13624 127.5130 124.00 118.28 11.14
13625 127.5220 104.00 117.54 10.20
13626 127.5310 104.00 116.92 10.20
13627 127.5400 115.00 116.44 10.72
13628 127.5490 105.00 116.14 10.25
13629 127.5580 116.00 116.04 10.77
13630 127.5670 113.00 116.14 10.63
13631 127.5760 138.00 116.48 11.75
13632 127.5850 119.00 117.08 10.91
13633 127.5940 115.00 117.95 10.72
13634 127.6030 127.00 119.13 11.27
13635 127.6120 122.00 120.64 11.05
13636 127.6210 133.00 122.51 11.53
13637 127.6300 131.00 124.77 11.45
13638 127.6390 144.00 127.46 12.00
13639 127.6480 123.00 130.58 11.09
13640 127.6570 126.00 134.18 11.23
13641 127.6660 126.00 138.27 11.23
13642 127.6750 144.00 142.86 12.00
13643 127.6840 144.00 147.95 12.00
13644 127.6930 148.00 153.51 12.17
13645 127.7020 154.00 159.51 12.41
13646 127.7110 153.00 166.08 12.37
13647 127.7200 160.00 172.78 12.65
13648 127.7290 157.00 179.67 12.53
13649 127.7380 166.00 186.59 12.88
13650 127.7470 176.00 193.33 13.27
13651 127.7560 187.00 199.65 13.67
13652 127.7640 211.00 205.25 14.53
13653 127.7730 212.00 209.83 14.56
13654 127.7820 198.00 213.07 14.07
13655 127.7910 209.00 214.80 14.46
13656 127.8000 214.00 214.78 14.63
13657 127.8090 199.00 213.10 14.11
13658 127.8180 197.00 209.92 14.04
13659 127.8270 202.00 205.51 14.21
13660 127.8360 196.00 200.20 14.00
13661 127.8450 197.00 194.32 14.04
13662 127.8540 207.00 188.21 14.39
13663 127.8630 195.00 182.12 13.96
13664 127.8720 187.00 176.27 13.67
13665 127.8810 190.00 170.85 13.78
13666 127.8900 190.00 165.98 13.78
13667 127.8990 157.00 161.77 12.53
13668 127.9080 160.00 158.30 12.65
13669 127.9170 185.00 155.60 13.60
13670 127.9260 167.00 153.73 12.92
13671 127.9350 145.00 152.67 12.04
13672 127.9440 150.00 152.44 12.25
13673 127.9530 165.00 153.02 12.85
13674 127.9620 154.00 154.38 12.41
13675 127.9710 146.00 156.47 12.08
13676 127.9800 167.00 159.27 12.92
13677 127.9890 143.00 162.69 11.96
13678 127.9980 169.00 166.68 13.00
13679 128.0070 177.00 171.15 13.30
13680 128.0160 167.00 175.99 12.92
13681 128.0250 192.00 181.08 13.86
13682 128.0340 210.00 186.33 14.49
13683 128.0430 213.00 191.58 14.59
13684 128.0520 195.00 196.68 13.96
13685 128.0610 210.00 201.48 14.49
13686 128.0700 208.00 205.82 14.42
13687 128.0790 215.00 209.58 14.66
13688 128.0880 235.00 212.58 15.33
13689 128.0970 236.00 214.71 15.36
13690 128.1060 224.00 215.85 14.97
13691 128.1150 224.00 216.04 14.97
13692 128.1240 231.00 215.06 15.20
13693 128.1330 247.00 213.07 15.72
13694 128.1420 246.00 210.18 15.68
13695 128.1510 218.00 206.55 14.76
13696 128.1600 232.00 202.34 15.23
13697 128.1690 212.00 197.73 14.56
13698 128.1780 198.00 192.91 14.07
13699 128.1870 200.00 188.00 14.14
13700 128.1960 191.00 183.13 13.82
13701 128.2050 197.00 178.39 14.04
13702 128.2140 195.00 173.84 13.96
13703 128.2230 179.00 169.55 13.38
13704 128.2320 168.00 165.55 12.96
13705 128.2410 170.00 161.86 13.04
13706 128.2500 172.00 158.50 13.11
13707 128.2590 164.00 155.50 12.81
13708 128.2680 157.00 152.85 12.53
13709 128.2770 147.00 150.56 12.12
13710 128.2860 144.00 148.60 12.00
13711 128.2950 144.00 146.96 12.00
13712 128.3040 140.00 145.62 11.83
13713 128.3130 145.00 144.54 12.04
13714 128.3220 138.00 143.67 11.75
13715 128.3310 128.00 142.99 11.31
13716 128.3400 154.00 142.45 12.41
13717 128.3490 157.00 142.01 12.53
13718 128.3580 136.00 141.64 11.66
13719 128.3670 140.00 141.31 11.83
13720 128.3760 150.00 140.98 12.25
13721 128.3850 160.00 140.65 12.65
13722 128.3940 132.00 140.28 11.49
13723 128.4030 161.00 139.89 12.69
13724 128.4120 150.00 139.46 12.25
13725 128.4210 144.00 139.02 12.00
13726 128.4300 167.00 138.58 12.92
13727 128.4390 139.00 138.16 11.79
13728 128.4480 140.00 137.79 11.83
13729 128.4570 140.00 137.48 11.83
13730 128.4660 136.00 137.25 11.66
13731 128.4750 143.00 137.11 11.96
13732 128.4840 149.00 137.05 12.21
13733 128.4930 131.00 137.08 11.45
13734 128.5020 134.00 137.17 11.58
13735 128.5110 138.00 137.30 11.75
13736 128.5200 137.00 137.42 11.70
13737 128.5290 144.00 137.49 12.00
13738 128.5380 143.00 137.47 11.96
13739 128.5470 141.00 137.31 11.87
13740 128.5560 129.00 136.98 11.36
13741 128.5650 129.00 136.47 11.36
13742 128.5740 147.00 135.77 12.12
13743 128.5830 139.00 134.92 11.79
13744 128.5920 131.00 133.93 11.45
13745 128.6010 133.00 132.86 11.53
13746 128.6100 140.00 131.74 11.83
13747 128.6190 159.00 130.63 12.61
13748 128.6280 153.00 129.55 12.37
13749 128.6360 141.00 128.54 11.87
13750 128.6450 133.00 127.61 11.53
13751 128.6540 126.00 126.78 11.23
13752 128.6630 134.00 126.06 11.58
13753 128.6720 134.00 125.46 11.58
13754 128.6810 130.00 124.98 11.40
13755 128.6900 124.00 124.62 11.14
13756 128.6990 112.00 124.37 10.58
13757 128.7080 117.00 124.22 10.82
13758 128.7170 120.00 124.15 10.95
13759 128.7260 116.00 124.16 10.77
13760 128.7350 112.00 124.21 10.58
13761 128.7440 118.00 124.29 10.86
13762 128.7530 118.00 124.37 10.86
13763 128.7620 112.00 124.43 10.58
13764 128.7710 112.00 124.46 10.58
13765 128.7800 102.00 124.46 10.10
13766 128.7890 122.00 124.41 11.05
13767 128.7980 135.00 124.33 11.62
13768 128.8070 118.00 124.23 10.86
13769 128.8160 115.00 124.13 10.72
13770 128.8250 113.00 124.07 10.63
13771 128.8340 121.00 124.03 11.00
13772 128.8430 120.00 124.06 10.95
13773 128.8520 130.00 124.15 11.40
13774 128.8610 122.00 124.36 11.05
13775 128.8700 113.00 124.64 10.63
13776 128.8790 137.00 125.07 11.70
13777 128.8880 130.00 125.66 11.40
13778 128.8970 116.00 126.40 10.77
13779 128.9060 133.00 127.29 11.53
13780 128.9150 133.00 128.34 11.53
13781 128.9240 126.00 129.56 11.23
13782 128.9330 124.00 130.95 11.14
13783 128.9420 130.00 132.50 11.40
13784 128.9510 133.00 134.22 11.53
13785 128.9600 131.00 136.11 11.45
13786 128.9690 119.00 138.17 10.91
13787 128.9780 124.00 140.39 11.14
13788 128.9870 141.00 142.76 11.87
13789 128.9960 133.00 145.23 11.53
13790 129.0050 139.00 147.91 11.79
13791 129.0140 145.00 150.70 12.04
13792 129.0230 137.00 153.61 11.70
13793 129.0320 132.00 156.60 11.49
13794 129.0410 139.00 159.63 11.79
13795 129.0500 150.00 162.66 12.25
13796 129.0590 164.00 165.64 12.81
13797 129.0680 164.00 168.53 12.81
13798 129.0770 167.00 171.29 12.92
13799 129.0860 172.00 173.90 13.11
13800 129.0950 166.00 176.44 12.88
13801 129.1040 174.00 178.74 13.19
13802 129.1130 175.00 180.93 13.23
13803 129.1220 183.00 183.04 13.53
13804 129.1310 191.00 185.13 13.82
13805 129.1400 167.00 187.25 12.92
13806 129.1490 178.00 189.44 13.34
13807 129.1580 189.00 191.84 13.75
13808 129.1670 194.00 194.28 13.93
13809 129.1760 173.00 196.85 13.15
13810 129.1850 172.00 199.56 13.11
13811 129.1940 195.00 202.40 13.96
13812 129.2030 222.00 205.35 14.90
13813 129.2120 202.00 208.47 14.21
13814 129.2210 219.00 211.58 14.80
13815 129.2300 219.00 214.72 14.80
13816 129.2390 200.00 217.84 14.14
13817 129.2480 218.00 220.89 14.76
13818 129.2570 215.00 223.82 14.66
13819 129.2660 248.00 226.52 15.75
13820 129.2750 243.00 228.91 15.59
13821 129.2840 215.00 230.86 14.66
13822 129.2930 256.00 232.26 16.00
13823 129.3020 243.00 232.97 15.59
13824 129.3110 231.00 232.89 15.20
13825 129.3200 217.00 231.92 14.73
13826 129.3290 273.00 230.00 16.52
13827 129.3380 255.00 227.15 15.97
13828 129.3470 231.00 223.45 15.20
13829 129.3560 233.00 218.97 15.26
13830 129.3650 253.00 213.90 15.91
13831 129.3740 236.00 208.41 15.36
13832 129.3830 229.00 202.65 15.13
13833 129.3920 231.00 196.79 15.20
13834 129.4010 214.00 190.98 14.63
13835 129.4100 213.00 185.31 14.59
13836 129.4190 213.00 179.87 14.59
13837 129.4280 194.00 174.77 13.93
13838 129.4370 199.00 170.05 14.11
13839 129.4460 197.00 165.74 14.04
13840 129.4550 183.00 161.90 13.53
13841 129.4640 178.00 158.52 13.34
13842 129.4730 186.00 155.63 13.64
13843 129.4820 180.00 153.21 13.42
13844 129.4910 170.00 151.34 13.04
13845 129.5000 158.00 149.98 12.57
13846 129.5080 151.00 149.16 12.29
13847 129.5180 175.00 148.86 13.23
13848 129.5260 171.00 149.09 13.08
13849 129.5350 148.00 149.87 12.17
13850 129.5440 148.00 151.21 12.17
13851 129.5530 142.00 153.13 11.92
13852 129.5620 164.00 155.63 12.81
13853 129.5710 165.00 158.75 12.85
13854 129.5800 164.00 162.49 12.81
13855 129.5890 163.00 166.88 12.77
13856 129.5980 182.00 171.93 13.49
13857 129.6070 182.00 177.65 13.49
13858 129.6160 146.00 184.05 12.08
13859 129.6250 161.00 191.13 12.69
13860 129.6340 172.00 198.88 13.11
13861 129.6430 202.00 207.26 14.21
13862 129.6520 226.00 216.24 15.03
13863 129.6610 222.00 225.77 14.90
13864 129.6700 178.00 235.74 13.34
13865 129.6790 224.00 246.08 14.97
13866 129.6880 235.00 256.65 15.33
13867 129.6970 251.00 267.26 15.84
13868 129.7060 267.00 277.70 16.34
13869 129.7150 288.00 287.76 16.97
13870 129.7240 267.00 297.15 16.34
13871 129.7330 279.00 305.61 16.70
13872 129.7420 298.00 312.84 17.26
13873 129.7510 296.00 318.62 17.20
13874 129.7600 328.00 322.73 18.11
13875 129.7690 337.00 325.09 18.36
13876 129.7780 348.00 325.65 18.65
13877 129.7870 323.00 324.49 17.97
13878 129.7960 328.00 321.74 18.11
13879 129.8050 366.00 317.66 19.13
13880 129.8140 346.00 312.47 18.60
13881 129.8230 347.00 306.48 18.63
13882 129.8320 322.00 299.96 17.94
13883 129.8410 302.00 293.15 17.38
13884 129.8500 304.00 286.29 17.44
13885 129.8590 303.00 279.54 17.41
13886 129.8680 276.00 273.00 16.61
13887 129.8770 255.00 266.72 15.97
13888 129.8860 259.00 260.68 16.09
13889 129.8950 260.00 254.86 16.12
13890 129.9040 264.00 249.15 16.25
13891 129.9130 263.00 243.41 16.22
13892 129.9220 250.00 237.47 15.81
13893 129.9310 244.00 231.25 15.62
13894 129.9400 238.00 224.69 15.43
13895 129.9490 229.00 217.79 15.13
13896 129.9580 218.00 210.63 14.76
13897 129.9670 206.00 203.34 14.35
13898 129.9760 197.00 196.06 14.04
13899 129.9850 176.00 188.92 13.27
13900 129.9940 182.00 182.05 13.49
13901 130.0030 192.00 175.55 13.86
13902 130.0120 175.00 169.48 13.23
13903 130.0210 173.00 163.88 13.15
13904 130.0300 177.00 158.79 13.30
13905 130.0390 162.00 154.21 12.73
13906 130.0480 152.00 150.15 12.33
13907 130.0570 154.00 146.60 12.41
13908 130.0660 144.00 143.54 12.00
13909 130.0750 134.00 140.94 11.58
13910 130.0840 139.00 138.75 11.79
13911 130.0930 132.00 137.01 11.49
13912 130.1020 153.00 135.65 12.37
13913 130.1110 137.00 134.66 11.70
13914 130.1200 154.00 134.00 12.41
13915 130.1290 138.00 133.65 11.75
13916 130.1380 128.00 133.60 11.31
13917 130.1470 118.00 133.81 10.86
13918 130.1560 145.00 134.29 12.04
13919 130.1650 143.00 135.01 11.96
13920 130.1740 127.00 135.98 11.27
13921 130.1830 123.00 137.18 11.09
13922 130.1920 145.00 138.59 12.04
13923 130.2010 153.00 140.23 12.37
13924 130.2100 128.00 142.07 11.31
13925 130.2190 139.00 144.11 11.79
13926 130.2280 149.00 146.35 12.21
13927 130.2370 145.00 148.77 12.04
13928 130.2460 149.00 151.36 12.21
13929 130.2550 140.00 154.10 11.83
13930 130.2640 130.00 156.98 11.40
13931 130.2730 147.00 159.97 12.12
13932 130.2820 154.00 163.07 12.41
13933 130.2910 169.00 166.21 13.00
13934 130.3000 165.00 169.39 12.85
13935 130.3090 151.00 172.56 12.29
13936 130.3180 162.00 175.68 12.73
13937 130.3270 168.00 178.72 12.96
13938 130.3360 159.00 181.63 12.61
13939 130.3450 169.00 184.36 13.00
13940 130.3540 195.00 186.86 13.96
13941 130.3630 196.00 189.15 14.00
13942 130.3720 191.00 191.01 13.82
13943 130.3810 193.00 192.63 13.89
13944 130.3890 193.00 193.94 13.89
13945 130.3980 208.00 194.94 14.42
13946 130.4070 213.00 195.65 14.59
13947 130.4160 208.00 196.10 14.42
13948 130.4250 199.00 196.32 14.11
13949 130.4340 210.00 196.36 14.49
13950 130.4430 203.00 196.25 14.25
13951 130.4520 203.00 196.02 14.25
13952 130.4610 203.00 195.69 14.25
13953 130.4700 200.00 195.28 14.14
13954 130.4790 205.00 194.80 14.32
13955 130.4880 194.00 194.23 13.93
13956 130.4970 200.00 193.59 14.14
13957 130.5060 178.00 192.86 13.34
13958 130.5150 194.00 192.02 13.93
13959 130.5240 193.00 191.10 13.89
13960 130.5330 191.00 190.07 13.82
13961 130.5420 186.00 188.96 13.64
13962 130.5510 188.00 187.78 13.71
13963 130.5600 189.00 186.58 13.75
13964 130.5690 192.00 185.31 13.86
13965 130.5780 173.00 184.01 13.15
13966 130.5870 191.00 182.68 13.82
13967 130.5960 193.00 181.30 13.89
13968 130.6050 175.00 179.88 13.23
13969 130.6140 181.00 178.37 13.45
13970 130.6230 167.00 176.77 12.92
13971 130.6320 184.00 175.04 13.56
13972 130.6410 175.00 173.18 13.23
13973 130.6500 176.00 171.19 13.27
13974 130.6590 150.00 169.10 12.25
13975 130.6680 155.00 166.95 12.45
13976 130.6770 163.00 164.77 12.77
13977 130.6860 175.00 162.62 13.23
13978 130.6950 167.00 160.55 12.92
13979 130.7040 176.00 158.62 13.27
13980 130.7130 159.00 156.86 12.61
13981 130.7220 165.00 155.33 12.85
13982 130.7310 164.00 154.05 12.81
13983 130.7400 151.00 153.04 12.29
13984 130.7490 143.00 152.32 11.96
13985 130.7580 139.00 151.92 11.79
13986 130.7670 149.00 151.82 12.21
13987 130.7760 160.00 152.04 12.65
13988 130.7850 163.00 152.56 12.77
13989 130.7940 160.00 153.38 12.65
13990 130.8030 155.00 154.48 12.45
13991 130.8120 145.00 155.82 12.04
13992 130.8210 149.00 157.38 12.21
13993 130.8300 159.00 159.13 12.61
13994 130.8390 157.00 161.02 12.53
13995 130.8480 153.00 163.02 12.37
13996 130.8570 142.00 165.08 11.92
13997 130.8660 150.00 167.19 12.25
13998 130.8750 165.00 169.31 12.85
13999 130.8840 164.00 171.48 12.81
14000 130.8930 169.00 173.68 13.00
14001 130.9020 190.00 175.95 13.78
14002 130.9110 160.00 178.30 12.65
14003 130.9200 179.00 180.75 13.38
14004 130.9290 174.00 183.30 13.19
14005 130.9380 174.00 185.97 13.19
14006 130.9470 146.00 188.74 12.08
14007 130.9560 165.00 191.58 12.85
14008 130.9650 157.00 194.47 12.53
14009 130.9740 199.00 197.36 14.11
14010 130.9830 211.00 200.22 14.53
14011 130.9920 185.00 203.02 13.60
14012 131.0010 207.00 205.72 14.39
14013 131.0100 203.00 208.30 14.25
14014 131.0190 212.00 210.74 14.56
14015 131.0280 180.00 213.04 13.42
14016 131.0370 204.00 215.18 14.28
14017 131.0460 193.00 217.16 13.89
14018 131.0550 194.00 218.97 13.93
14019 131.0640 191.00 220.59 13.82
14020 131.0730 211.00 221.99 14.53
14021 131.0820 198.00 223.12 14.07
14022 131.0910 198.00 223.97 14.07
14023 131.1000 197.00 224.46 14.04
14024 131.1090 226.00 224.56 15.03
14025 131.1180 228.00 224.20 15.10
14026 131.1270 215.00 223.27 14.66
14027 131.1360 207.00 221.87 14.39
14028 131.1450 208.00 219.92 14.42
14029 131.1540 204.00 217.42 14.28
14030 131.1630 201.00 214.39 14.18
14031 131.1720 206.00 210.88 14.35
14032 131.1810 216.00 206.95 14.70
14033 131.1900 215.00 202.69 14.66
14034 131.1990 207.00 198.16 14.39
14035 131.2080 203.00 193.45 14.25
14036 131.2170 195.00 188.64 13.96
14037 131.2260 181.00 183.81 13.45
14038 131.2350 172.00 179.01 13.11
14039 131.2440 173.00 174.29 13.15
14040 131.2530 172.00 169.70 13.11
14041 131.2620 166.00 165.27 12.88
14042 131.2700 174.00 161.03 13.19
14043 131.2790 180.00 157.00 13.42
14044 131.2880 179.00 153.20 13.38
14045 131.2970 173.00 149.62 13.15
14046 131.3060 162.00 146.27 12.73
14047 131.3150 158.00 143.17 12.57
14048 131.3240 163.00 140.30 12.77
14049 131.3330 138.00 137.66 11.75
14050 131.3420 127.00 135.26 11.27
14051 131.3510 148.00 133.07 12.17
14052 131.3600 154.00 131.09 12.41
14053 131.3690 141.00 129.31 11.87
14054 131.3780 116.00 127.72 10.77
14055 131.3870 121.00 126.40 11.00
14056 131.3960 124.00 125.16 11.14
14057 131.4050 121.00 124.08 11.00
14058 131.4140 129.00 123.15 11.36
14059 131.4230 119.00 122.35 10.91
14060 131.4320 127.00 121.66 11.27
14061 131.4410 122.00 121.11 11.05
14062 131.4500 110.00 120.67 10.49
14063 131.4590 112.00 120.34 10.58
14064 131.4680 109.00 120.10 10.44
14065 131.4770 100.00 119.96 10.00
14066 131.4860 115.00 119.91 10.72
14067 131.4950 121.00 119.95 11.00
14068 131.5040 130.00 120.07 11.40
14069 131.5130 126.00 120.28 11.23
14070 131.5220 117.00 120.57 10.82
14071 131.5310 117.00 120.95 10.82
14072 131.5400 118.00 121.41 10.86
14073 131.5490 119.00 121.96 10.91
14074 131.5580 125.00 122.60 11.18
14075 131.5670 122.00 123.33 11.05
14076 131.5760 131.00 124.16 11.45
14077 131.5850 145.00 125.08 12.04
14078 131.5940 134.00 126.11 11.58
14079 131.6030 127.00 127.25 11.27
14080 131.6120 147.00 128.51 12.12
14081 131.6210 141.00 129.89 11.87
14082 131.6300 122.00 131.41 11.05
14083 131.6390 125.00 133.07 11.18
14084 131.6480 129.00 134.90 11.36
14085 131.6570 141.00 136.93 11.87
14086 131.6660 152.00 139.18 12.33
14087 131.6750 146.00 141.70 12.08
14088 131.6840 145.00 144.53 12.04
14089 131.6930 149.00 147.73 12.21
14090 131.7020 156.00 151.35 12.49
14091 131.7110 149.00 155.47 12.21
14092 131.7200 137.00 160.13 11.70
14093 131.7290 142.00 165.41 11.92
14094 131.7380 165.00 171.38 12.85
14095 131.7470 157.00 178.00 12.53
14096 131.7560 170.00 185.36 13.04
14097 131.7650 192.00 193.46 13.86
14098 131.7740 178.00 202.31 13.34
14099 131.7830 202.00 211.88 14.21
14100 131.7920 199.00 222.13 14.11
14101 131.8010 181.00 232.96 13.45
14102 131.8100 240.00 244.29 15.49
14103 131.8190 217.00 255.94 14.73
14104 131.8280 237.00 267.73 15.39
14105 131.8370 244.00 279.38 15.62
14106 131.8460 294.00 290.61 17.15
14107 131.8550 287.00 301.05 16.94
14108 131.8640 320.00 310.39 17.89
14109 131.8730 288.00 318.31 16.97
14110 131.8820 310.00 324.57 17.61
14111 131.8910 323.00 329.05 17.97
14112 131.9000 318.00 331.75 17.83
14113 131.9090 312.00 332.83 17.66
14114 131.9180 301.00 332.48 17.35
14115 131.9270 308.00 330.94 17.55
14116 131.9360 304.00 328.49 17.44
14117 131.9450 288.00 325.33 16.97
14118 131.9540 290.00 321.63 17.03
14119 131.9630 297.00 317.50 17.23
14120 131.9720 303.00 313.01 17.41
14121 131.9810 299.00 308.23 17.29
14122 131.9900 294.00 303.20 17.15
14123 131.9990 301.00 297.95 17.35
14124 132.0080 297.00 292.52 17.23
14125 132.0170 298.00 286.94 17.26
14126 132.0260 289.00 281.25 17.00
14127 132.0350 282.00 275.44 16.79
14128 132.0440 273.00 269.53 16.52
14129 132.0530 262.00 263.52 16.19
14130 132.0620 274.00 257.29 16.55
14131 132.0710 250.00 250.90 15.81
14132 132.0800 238.00 244.29 15.43
14133 132.0890 279.00 237.47 16.70
14134 132.0980 268.00 230.48 16.37
14135 132.1070 248.00 223.36 15.75
14136 132.1160 252.00 216.18 15.87
14137 132.1240 267.00 209.02 16.34
14138 132.1330 253.00 201.97 15.91
14139 132.1420 237.00 195.09 15.39
14140 132.1510 220.00 188.46 14.83
14141 132.1600 191.00 182.12 13.82
14142 132.1690 190.00 176.07 13.78
14143 132.1780 203.00 170.39 14.25
14144 132.1870 156.00 165.07 12.49
14145 132.1960 186.00 160.13 13.64
14146 132.2050 203.00 155.57 14.25
14147 132.2140 174.00 151.36 13.19
14148 132.2230 150.00 147.50 12.25
14149 132.2320 153.00 143.98 12.37
14150 132.2410 149.00 140.78 12.21
14151 132.2500 152.00 137.88 12.33
14152 132.2590 143.00 135.26 11.96
14153 132.2680 161.00 132.88 12.69
14154 132.2770 145.00 130.74 12.04
14155 132.2860 127.00 128.80 11.27
14156 132.2950 134.00 127.05 11.58
14157 132.3040 130.00 125.46 11.40
14158 132.3130 138.00 124.03 11.75
14159 132.3220 131.00 122.72 11.45
14160 132.3310 126.00 121.53 11.23
14161 132.3400 117.00 120.44 10.82
14162 132.3490 116.00 119.44 10.77
14163 132.3580 113.00 118.53 10.63
14164 132.3670 116.00 117.68 10.77
14165 132.3760 119.00 116.91 10.91
14166 132.3850 127.00 116.19 11.27
14167 132.3940 125.00 115.53 11.18
14168 132.4030 129.00 114.92 11.36
14169 132.4120 120.00 114.36 10.95
14170 132.4210 111.00 113.85 10.54
14171 132.4300 118.00 113.38 10.86
14172 132.4390 111.00 112.96 10.54
14173 132.4480 108.00 112.57 10.39
14174 132.4570 108.00 112.24 10.39
14175 132.4660 102.00 111.94 10.10
14176 132.4750 99.00 111.68 9.95
14177 132.4840 110.00 111.42 10.49
14178 132.4930 119.00 111.24 10.91
14179 132.5020 105.00 111.22 10.25
14180 132.5110 110.00 111.12 10.49
14181 132.5200 122.00 111.05 11.05
14182 132.5290 114.00 111.02 10.68
14183 132.5380 108.00 111.02 10.39
14184 132.5470 110.00 111.06 10.49
14185 132.5560 112.00 111.12 10.58
14186 132.5650 108.00 111.21 10.39
14187 132.5740 112.00 111.32 10.58
14188 132.5830 114.00 111.45 10.68
14189 132.5920 125.00 111.60 11.18
14190 132.6010 120.00 111.74 10.95
14191 132.6100 111.00 111.89 10.54
14192 132.6190 108.00 112.02 10.39
14193 132.6280 126.00 112.14 11.23
14194 132.6370 118.00 112.23 10.86
14195 132.6460 89.00 112.29 9.43
14196 132.6550 109.00 112.31 10.44
14197 132.6640 110.00 112.30 10.49
14198 132.6730 115.00 112.26 10.72
14199 132.6820 109.00 112.15 10.44
14200 132.6910 99.00 112.07 9.95
14201 132.7000 106.00 111.99 10.30
14202 132.7090 127.00 111.91 11.27
14203 132.7180 94.00 111.85 9.70
14204 132.7270 105.00 111.83 10.25
14205 132.7360 97.00 111.84 9.85
14206 132.7450 99.00 111.90 9.95
14207 132.7540 112.00 112.03 10.58
14208 132.7630 125.00 112.22 11.18
14209 132.7720 104.00 112.50 10.20
14210 132.7810 97.00 112.86 9.85
14211 132.7900 99.00 113.32 9.95
14212 132.7990 120.00 113.85 10.95
14213 132.8080 118.00 114.53 10.86
14214 132.8170 105.00 115.34 10.25
14215 132.8260 115.00 116.29 10.72
14216 132.8350 122.00 117.37 11.05
14217 132.8440 113.00 118.60 10.63
14218 132.8530 107.00 119.96 10.34
14219 132.8620 112.00 121.47 10.58
14220 132.8710 123.00 123.10 11.09
14221 132.8800 124.00 124.86 11.14
14222 132.8890 122.00 126.71 11.05
14223 132.8980 124.00 128.64 11.14
14224 132.9070 126.00 130.62 11.23
14225 132.9160 125.00 132.60 11.18
14226 132.9250 122.00 134.55 11.05
14227 132.9340 127.00 136.41 11.27
14228 132.9430 127.00 138.12 11.27
14229 132.9520 131.00 139.60 11.45
14230 132.9610 147.00 140.79 12.12
14231 132.9700 146.00 141.61 12.08
14232 132.9790 126.00 142.01 11.23
14233 132.9880 131.00 141.94 11.45
14234 132.9960 124.00 141.42 11.14
14235 133.0050 137.00 140.47 11.70
14236 133.0140 145.00 139.15 12.04
14237 133.0230 129.00 137.54 11.36
14238 133.0320 129.00 135.73 11.36
14239 133.0410 137.00 133.81 11.70
14240 133.0500 135.00 131.85 11.62
14241 133.0590 142.00 129.91 11.92
14242 133.0680 131.00 128.06 11.45
14243 133.0770 111.00 126.33 10.54
14244 133.0860 130.00 124.76 11.40
14245 133.0950 138.00 123.31 11.75
14246 133.1040 137.00 122.14 11.70
14247 133.1130 124.00 121.20 11.14
14248 133.1220 100.00 120.50 10.00
14249 133.1310 112.00 120.06 10.58
14250 133.1400 109.00 119.87 10.44
14251 133.1490 122.00 119.95 11.05
14252 133.1580 127.00 120.31 11.27
14253 133.1670 121.00 120.94 11.00
14254 133.1760 123.00 121.86 11.09
14255 133.1850 127.00 123.06 11.27
14256 133.1940 122.00 124.55 11.05
14257 133.2030 128.00 126.32 11.31
14258 133.2120 120.00 128.37 10.95
14259 133.2210 125.00 130.70 11.18
14260 133.2300 127.00 133.28 11.27
14261 133.2390 123.00 136.11 11.09
14262 133.2480 119.00 139.17 10.91
14263 133.2570 141.00 142.38 11.87
14264 133.2660 128.00 145.94 11.31
14265 133.2750 127.00 149.42 11.27
14266 133.2840 135.00 152.91 11.62
14267 133.2930 127.00 156.35 11.27
14268 133.3020 127.00 159.61 11.27
14269 133.3110 144.00 162.58 12.00
14270 133.3200 145.00 165.14 12.04
14271 133.3290 138.00 167.16 11.75
14272 133.3380 144.00 168.55 12.00
14273 133.3470 142.00 169.24 11.92
14274 133.3560 151.00 169.18 12.29
14275 133.3650 172.00 168.42 13.11
14276 133.3740 165.00 167.02 12.85
14277 133.3830 159.00 165.10 12.61
14278 133.3920 171.00 162.76 13.08
14279 133.4010 164.00 160.16 12.81
14280 133.4100 155.00 157.41 12.45
14281 133.4190 183.00 154.63 13.53
14282 133.4280 200.00 151.91 14.14
14283 133.4370 166.00 149.36 12.88
14284 133.4460 168.00 146.99 12.96
14285 133.4550 144.00 144.90 12.00
14286 133.4640 147.00 143.13 12.12
14287 133.4730 155.00 141.68 12.45
14288 133.4820 145.00 140.59 12.04
14289 133.4910 125.00 139.85 11.18
14290 133.5000 155.00 139.46 12.45
14291 133.5090 138.00 139.43 11.75
14292 133.5180 132.00 139.73 11.49
14293 133.5270 116.00 140.34 10.77
14294 133.5360 149.00 141.24 12.21
14295 133.5450 144.00 142.38 12.00
14296 133.5540 144.00 143.73 12.00
14297 133.5630 126.00 145.21 11.23
14298 133.5720 135.00 146.77 11.62
14299 133.5810 130.00 148.34 11.40
14300 133.5900 144.00 149.81 12.00
14301 133.5990 150.00 151.10 12.25
14302 133.6080 137.00 152.12 11.70
14303 133.6170 124.00 152.78 11.14
14304 133.6260 124.00 153.01 11.14
14305 133.6350 154.00 152.76 12.41
14306 133.6440 176.00 152.02 13.27
14307 133.6530 150.00 150.82 12.25
14308 133.6620 145.00 149.20 12.04
14309 133.6710 142.00 147.22 11.92
14310 133.6800 134.00 144.97 11.58
14311 133.6890 153.00 142.53 12.37
14312 133.6980 146.00 139.96 12.08
14313 133.7070 129.00 137.35 11.36
14314 133.7160 121.00 134.73 11.00
14315 133.7250 124.00 132.17 11.14
14316 133.7340 122.00 129.68 11.05
14317 133.7430 118.00 127.32 10.86
14318 133.7520 114.00 125.08 10.68
14319 133.7610 113.00 122.98 10.63
14320 133.7700 124.00 121.04 11.14
14321 133.7790 128.00 119.25 11.31
14322 133.7880 116.00 117.62 10.77
14323 133.7970 113.00 116.15 10.63
14324 133.8060 103.00 114.83 10.15
14325 133.8150 89.00 113.65 9.43
14326 133.8240 96.00 112.60 9.80
14327 133.8330 97.00 111.67 9.85
14328 133.8420 105.00 110.86 10.25
14329 133.8500 114.00 110.16 10.68
14330 133.8590 110.00 109.54 10.49
14331 133.8680 122.00 109.01 11.05
14332 133.8770 112.00 108.56 10.58
14333 133.8860 118.00 108.17 10.86
14334 133.8950 100.00 107.84 10.00
14335 133.9040 95.00 107.56 9.75
14336 133.9130 96.00 107.33 9.80
14337 133.9220 104.00 107.11 10.20
14338 133.9310 104.00 106.94 10.20
14339 133.9400 97.00 106.81 9.85
14340 133.9490 111.00 106.69 10.54
14341 133.9580 110.00 106.61 10.49
14342 133.9670 98.00 106.56 9.90
14343 133.9760 93.00 106.52 9.64
14344 133.9850 120.00 106.50 10.95
14345 133.9940 102.00 106.50 10.10
14346 134.0030 123.00 106.52 11.09
14347 134.0120 114.00 106.55 10.68
14348 134.0210 109.00 106.60 10.44
14349 134.0300 104.00 106.67 10.20
14350 134.0390 115.00 106.76 10.72
14351 134.0480 103.00 106.85 10.15
14352 134.0570 94.00 106.99 9.70
14353 134.0660 101.00 107.15 10.05
14354 134.0750 99.00 107.33 9.95
14355 134.0840 107.00 107.55 10.34
14356 134.0930 111.00 107.80 10.54
14357 134.1020 110.00 108.08 10.49
14358 134.1110 124.00 108.41 11.14
14359 134.1200 113.00 108.78 10.63
14360 134.1290 104.00 109.21 10.20
14361 134.1380 118.00 109.70 10.86
14362 134.1470 111.00 110.26 10.54
14363 134.1560 105.00 110.91 10.25
14364 134.1650 110.00 111.65 10.49
14365 134.1740 116.00 112.50 10.77
14366 134.1830 115.00 113.47 10.72
14367 134.1920 115.00 114.59 10.72
14368 134.2010 119.00 115.86 10.91
14369 134.2100 118.00 117.32 10.86
14370 134.2190 120.00 118.97 10.95
14371 134.2280 107.00 120.85 10.34
14372 134.2370 111.00 122.96 10.54
14373 134.2460 126.00 125.34 11.23
14374 134.2550 121.00 128.10 11.00
14375 134.2640 127.00 131.05 11.27
14376 134.2730 119.00 134.30 10.91
14377 134.2820 125.00 137.87 11.18
14378 134.2910 121.00 141.71 11.00
14379 134.3000 128.00 145.90 11.31
14380 134.3090 137.00 150.38 11.70
14381 134.3180 133.00 155.15 11.53
14382 134.3270 143.00 160.15 11.96
14383 134.3360 131.00 165.35 11.45
14384 134.3450 138.00 170.68 11.75
14385 134.3540 143.00 176.05 11.96
14386 134.3630 134.00 181.37 11.58
14387 134.3720 150.00 186.52 12.25
14388 134.3810 164.00 191.34 12.81
14389 134.3900 187.00 195.70 13.67
14390 134.3990 143.00 199.42 11.96
14391 134.4080 146.00 202.35 12.08
14392 134.4170 139.00 204.39 11.79
14393 134.4260 155.00 205.45 12.45
14394 134.4350 171.00 205.50 13.08
14395 134.4440 176.00 204.56 13.27
14396 134.4530 178.00 202.71 13.34
14397 134.4620 208.00 200.05 14.42
14398 134.4710 200.00 196.72 14.14
14399 134.4800 180.00 192.85 13.42
14400 134.4890 185.00 188.59 13.60
14401 134.4980 201.00 184.08 14.18
14402 134.5070 210.00 179.47 14.49
14403 134.5160 191.00 174.82 13.82
14404 134.5250 191.00 170.21 13.82
14405 134.5340 197.00 165.79 14.04
14406 134.5430 190.00 161.57 13.78
14407 134.5520 180.00 157.61 13.42
14408 134.5610 171.00 153.93 13.08
14409 134.5700 169.00 150.55 13.00
14410 134.5790 157.00 147.48 12.53
14411 134.5880 162.00 144.73 12.73
14412 134.5970 174.00 142.29 13.19
14413 134.6060 157.00 140.17 12.53
14414 134.6150 144.00 138.34 12.00
14415 134.6240 156.00 136.79 12.49
14416 134.6330 155.00 135.51 12.45
14417 134.6420 139.00 134.47 11.79
14418 134.6510 135.00 133.66 11.62
14419 134.6600 137.00 133.03 11.70
14420 134.6690 125.00 132.45 11.18
14421 134.6780 148.00 132.09 12.17
14422 134.6870 146.00 131.81 12.08
14423 134.6960 129.00 131.56 11.36
14424 134.7050 137.00 131.32 11.70
14425 134.7130 118.00 131.06 10.86
14426 134.7220 134.00 130.77 11.58
14427 134.7310 130.00 130.45 11.40
14428 134.7400 148.00 130.19 12.17
14429 134.7490 138.00 129.85 11.75
14430 134.7580 124.00 129.52 11.14
14431 134.7670 165.00 129.24 12.85
14432 134.7760 143.00 129.03 11.96
14433 134.7850 135.00 128.91 11.62
14434 134.7940 141.00 128.90 11.87
14435 134.8030 120.00 129.00 10.95
14436 134.8120 123.00 129.23 11.09
14437 134.8210 123.00 129.59 11.09
14438 134.8300 130.00 130.08 11.40
14439 134.8390 131.00 130.70 11.45
14440 134.8480 112.00 131.44 10.58
14441 134.8570 140.00 132.28 11.83
14442 134.8660 121.00 133.22 11.00
14443 134.8750 137.00 134.23 11.70
14444 134.8840 144.00 135.29 12.00
14445 134.8930 140.00 136.39 11.83
14446 134.9020 145.00 137.50 12.04
14447 134.9110 144.00 138.60 12.00
14448 134.9200 153.00 139.68 12.37
14449 134.9290 147.00 140.73 12.12
14450 134.9380 150.00 141.75 12.25
14451 134.9470 150.00 142.64 12.25
14452 134.9560 152.00 143.57 12.33
14453 134.9650 148.00 144.46 12.17
14454 134.9740 148.00 145.28 12.17
14455 134.9830 154.00 146.03 12.41
14456 134.9920 151.00 146.68 12.29
14457 135.0010 145.00 147.19 12.04
14458 135.0100 146.00 147.54 12.08
14459 135.0190 145.00 147.68 12.04
14460 135.0280 145.00 147.59 12.04
14461 135.0370 152.00 147.25 12.33
14462 135.0460 157.00 146.64 12.53
14463 135.0550 155.00 145.79 12.45
14464 135.0640 146.00 144.71 12.08
14465 135.0730 137.00 143.46 11.70
14466 135.0820 154.00 142.07 12.41
14467 135.0910 167.00 140.65 12.92
14468 135.1000 159.00 139.18 12.61
14469 135.1090 154.00 137.74 12.41
14470 135.1180 144.00 136.38 12.00
14471 135.1270 132.00 135.16 11.49
14472 135.1360 126.00 134.10 11.23
14473 135.1450 135.00 133.26 11.62
14474 135.1540 147.00 132.65 12.12
14475 135.1630 133.00 132.31 11.53
14476 135.1720 127.00 132.25 11.27
14477 135.1810 128.00 132.50 11.31
14478 135.1900 137.00 133.07 11.70
14479 135.1990 112.00 133.98 10.58
14480 135.2080 135.00 135.20 11.62
14481 135.2170 122.00 136.76 11.05
14482 135.2260 128.00 138.65 11.31
14483 135.2350 124.00 140.81 11.14
14484 135.2440 154.00 143.25 12.41
14485 135.2530 130.00 145.91 11.40
14486 135.2620 148.00 148.74 12.17
14487 135.2710 132.00 151.68 11.49
14488 135.2800 145.00 154.65 12.04
14489 135.2890 157.00 157.55 12.53
14490 135.2980 143.00 160.25 11.96
14491 135.3070 161.00 162.65 12.69
14492 135.3160 146.00 164.62 12.08
14493 135.3250 144.00 166.03 12.00
14494 135.3340 156.00 166.83 12.49
14495 135.3430 163.00 166.97 12.77
14496 135.3520 154.00 166.46 12.41
14497 135.3610 168.00 165.36 12.96
14498 135.3700 167.00 163.79 12.92
14499 135.3790 159.00 161.85 12.61
14500 135.3880 174.00 159.67 13.19
14501 135.3970 177.00 157.38 13.30
14502 135.4060 177.00 155.07 13.30
14503 135.4150 156.00 152.84 12.49
14504 135.4240 162.00 150.76 12.73
14505 135.4330 170.00 148.86 13.04
14506 135.4420 159.00 147.18 12.61
14507 135.4510 160.00 145.75 12.65
14508 135.4600 165.00 144.56 12.85
14509 135.4690 161.00 143.60 12.69
14510 135.4780 153.00 142.86 12.37
14511 135.4870 149.00 142.23 12.21
14512 135.4960 147.00 141.82 12.12
14513 135.5050 135.00 141.52 11.62
14514 135.5140 126.00 141.29 11.23
14515 135.5230 140.00 141.10 11.83
14516 135.5320 147.00 140.92 12.12
14517 135.5410 134.00 140.75 11.58
14518 135.5500 139.00 140.59 11.79
14519 135.5590 131.00 140.43 11.45
14520 135.5680 143.00 140.30 11.96
14521 135.5760 159.00 140.23 12.61
14522 135.5850 146.00 140.22 12.08
14523 135.5940 136.00 140.30 11.66
14524 135.6030 137.00 140.48 11.70
14525 135.6120 148.00 140.78 12.17
14526 135.6210 137.00 141.20 11.70
14527 135.6300 158.00 141.73 12.57
14528 135.6390 150.00 142.39 12.25
14529 135.6480 150.00 143.15 12.25
14530 135.6570 154.00 144.01 12.41
14531 135.6660 149.00 144.96 12.21
14532 135.6750 150.00 145.97 12.25
14533 135.6840 145.00 147.03 12.04
14534 135.6930 138.00 148.11 11.75
14535 135.7020 159.00 149.21 12.61
14536 135.7110 139.00 150.32 11.79
14537 135.7200 152.00 151.39 12.33
14538 135.7290 153.00 152.42 12.37
14539 135.7380 160.00 153.39 12.65
14540 135.7470 157.00 154.27 12.53
14541 135.7560 159.00 155.05 12.61
14542 135.7650 161.00 155.70 12.69
14543 135.7740 160.00 156.21 12.65
14544 135.7830 159.00 156.54 12.61
14545 135.7920 174.00 156.69 13.19
14546 135.8010 167.00 156.64 12.92
14547 135.8100 164.00 156.39 12.81
14548 135.8190 155.00 155.93 12.45
14549 135.8280 176.00 155.29 13.27
14550 135.8370 190.00 154.48 13.78
14551 135.8460 174.00 153.52 13.19
14552 135.8550 164.00 152.44 12.81
14553 135.8640 166.00 151.26 12.88
14554 135.8730 178.00 150.03 13.34
14555 135.8820 175.00 148.76 13.23
14556 135.8910 156.00 147.50 12.49
14557 135.9000 146.00 146.27 12.08
14558 135.9090 148.00 145.09 12.17
14559 135.9180 157.00 143.98 12.53
14560 135.9270 157.00 142.98 12.53
14561 135.9360 159.00 142.09 12.61
14562 135.9450 162.00 141.34 12.73
14563 135.9540 154.00 140.74 12.41
14564 135.9630 152.00 140.32 12.33
14565 135.9720 156.00 140.10 12.49
14566 135.9810 145.00 140.08 12.04
14567 135.9900 151.00 140.29 12.29
14568 135.9990 141.00 140.74 11.87
14569 136.0080 132.00 141.44 11.49
14570 136.0170 144.00 142.41 12.00
14571 136.0260 131.00 143.65 11.45
14572 136.0350 131.00 145.16 11.45
14573 136.0440 143.00 146.93 11.96
14574 136.0530 155.00 148.97 12.45
14575 136.0620 162.00 151.25 12.73
14576 136.0710 139.00 153.74 11.79
14577 136.0800 139.00 156.41 11.79
14578 136.0890 149.00 159.21 12.21
14579 136.0980 147.00 162.09 12.12
14580 136.1070 164.00 164.96 12.81
14581 136.1160 150.00 167.74 12.25
14582 136.1250 152.00 170.34 12.33
14583 136.1340 151.00 172.65 12.29
14584 136.1430 170.00 174.58 13.04
14585 136.1520 169.00 176.07 13.00
14586 136.1610 172.00 177.06 13.11
14587 136.1700 176.00 177.54 13.27
14588 136.1790 181.00 177.53 13.45
14589 136.1880 169.00 177.08 13.00
14590 136.1970 154.00 176.26 12.41
14591 136.2060 159.00 175.15 12.61
14592 136.2150 144.00 173.79 12.00
14593 136.2240 164.00 172.28 12.81
14594 136.2330 176.00 170.64 13.27
14595 136.2420 173.00 168.94 13.15
14596 136.2510 155.00 167.20 12.45
14597 136.2600 152.00 165.65 12.33
14598 136.2690 156.00 163.94 12.49
14599 136.2780 170.00 162.28 13.04
14600 136.2870 183.00 160.70 13.53
14601 136.2960 175.00 159.22 13.23
14602 136.3050 173.00 157.86 13.15
14603 136.3140 169.00 156.64 13.00
14604 136.3230 162.00 155.57 12.73
14605 136.3320 168.00 154.62 12.96
14606 136.3410 170.00 153.88 13.04
14607 136.3500 165.00 153.32 12.85
14608 136.3590 163.00 152.93 12.77
14609 136.3680 156.00 152.72 12.49
14610 136.3770 158.00 152.67 12.57
14611 136.3860 162.00 152.78 12.73
14612 136.3950 151.00 153.02 12.29
14613 136.4040 161.00 153.38 12.69
14614 136.4130 158.00 153.84 12.57
14615 136.4210 153.00 154.37 12.37
14616 136.4300 152.00 154.93 12.33
14617 136.4390 162.00 155.51 12.73
14618 136.4480 145.00 156.06 12.04
14619 136.4570 166.00 156.57 12.88
14620 136.4660 165.00 156.99 12.85
14621 136.4750 162.00 157.30 12.73
14622 136.4840 158.00 157.48 12.57
14623 136.4930 156.00 157.50 12.49
14624 136.5020 162.00 157.35 12.73
14625 136.5110 156.00 157.01 12.49
14626 136.5200 162.00 156.47 12.73
14627 136.5290 153.00 155.72 12.37
14628 136.5380 146.00 154.77 12.08
14629 136.5470 168.00 153.61 12.96
14630 136.5560 167.00 152.26 12.92
14631 136.5650 154.00 150.72 12.41
14632 136.5740 164.00 149.02 12.81
14633 136.5830 177.00 147.18 13.30
14634 136.5920 163.00 145.24 12.77
14635 136.6010 165.00 143.22 12.85
14636 136.6100 176.00 141.14 13.27
14637 136.6190 169.00 139.04 13.00
14638 136.6280 152.00 136.95 12.33
14639 136.6370 151.00 134.88 12.29
14640 136.6460 156.00 132.85 12.49
14641 136.6550 154.00 130.89 12.41
14642 136.6640 151.00 129.01 12.29
14643 136.6730 133.00 127.22 11.53
14644 136.6820 133.00 125.52 11.53
14645 136.6910 140.00 123.93 11.83
14646 136.7000 141.00 122.46 11.87
14647 136.7090 130.00 121.06 11.40
14648 136.7180 127.00 119.81 11.27
14649 136.7270 123.00 118.69 11.09
14650 136.7360 121.00 117.68 11.00
14651 136.7450 127.00 116.79 11.27
14652 136.7540 124.00 116.02 11.14
14653 136.7630 119.00 115.37 10.91
14654 136.7720 117.00 114.83 10.82
14655 136.7810 111.00 114.41 10.54
14656 136.7900 113.00 114.10 10.63
14657 136.7990 140.00 113.91 11.83
14658 136.8080 134.00 113.83 11.58
14659 136.8170 122.00 113.86 11.05
14660 136.8260 131.00 113.99 11.45
14661 136.8350 127.00 114.23 11.27
14662 136.8440 111.00 114.57 10.54
14663 136.8530 122.00 115.01 11.05
14664 136.8620 121.00 115.55 11.00
14665 136.8710 122.00 116.19 11.05
14666 136.8800 122.00 116.91 11.05
14667 136.8890 107.00 117.73 10.34
14668 136.8980 125.00 118.63 11.18
14669 136.9070 119.00 119.60 10.91
14670 136.9160 130.00 120.65 11.40
14671 136.9250 104.00 121.76 10.20
14672 136.9340 119.00 122.97 10.91
14673 136.9430 119.00 124.18 10.91
14674 136.9520 121.00 125.43 11.00
14675 136.9610 125.00 126.68 11.18
14676 136.9700 109.00 127.95 10.44
14677 136.9790 125.00 129.19 11.18
14678 136.9880 128.00 130.39 11.31
14679 136.9970 130.00 131.53 11.40
14680 137.0060 128.00 132.58 11.31
14681 137.0150 144.00 133.51 12.00
14682 137.0240 137.00 134.30 11.70
14683 137.0330 130.00 134.93 11.40
14684 137.0420 141.00 135.38 11.87
14685 137.0510 127.00 135.68 11.27
14686 137.0600 138.00 135.73 11.75
14687 137.0690 155.00 135.59 12.45
14688 137.0780 150.00 135.25 12.25
14689 137.0870 137.00 134.74 11.70
14690 137.0960 142.00 134.07 11.92
14691 137.1050 139.00 133.26 11.79
14692 137.1140 141.00 132.35 11.87
14693 137.1230 145.00 131.34 12.04
14694 137.1320 134.00 130.27 11.58
14695 137.1410 131.00 129.16 11.45
14696 137.1500 153.00 128.02 12.37
14697 137.1590 151.00 126.88 12.29
14698 137.1680 135.00 125.75 11.62
14699 137.1770 148.00 124.64 12.17
14700 137.1860 157.00 123.57 12.53
14701 137.1950 152.00 122.56 12.33
14702 137.2040 147.00 121.60 12.12
14703 137.2130 139.00 120.72 11.79
14704 137.2220 135.00 119.93 11.62
14705 137.2310 135.00 119.22 11.62
14706 137.2400 140.00 118.62 11.83
14707 137.2490 137.00 118.12 11.70
14708 137.2580 121.00 117.74 11.00
14709 137.2660 132.00 117.48 11.49
14710 137.2750 130.00 117.34 11.40
14711 137.2840 130.00 117.33 11.40
14712 137.2930 118.00 117.46 10.86
14713 137.3020 133.00 117.72 11.53
14714 137.3110 146.00 118.12 12.08
14715 137.3200 127.00 118.67 11.27
14716 137.3290 128.00 119.36 11.31
14717 137.3380 153.00 120.19 12.37
14718 137.3470 122.00 121.19 11.05
14719 137.3560 137.00 122.32 11.70
14720 137.3650 122.00 123.58 11.05
14721 137.3740 112.00 124.99 10.58
14722 137.3830 115.00 126.53 10.72
14723 137.3920 145.00 128.19 12.04
14724 137.4010 128.00 129.97 11.31
14725 137.4100 131.00 131.85 11.45
14726 137.4190 129.00 133.82 11.36
14727 137.4280 122.00 135.86 11.05
14728 137.4370 139.00 137.95 11.79
14729 137.4460 130.00 140.07 11.40
14730 137.4550 138.00 142.14 11.75
14731 137.4640 142.00 144.24 11.92
14732 137.4730 137.00 146.31 11.70
14733 137.4820 142.00 148.34 11.92
14734 137.4910 129.00 150.32 11.36
14735 137.5000 143.00 152.26 11.96
14736 137.5090 148.00 154.16 12.17
14737 137.5180 151.00 156.02 12.29
14738 137.5270 148.00 157.85 12.17
14739 137.5360 140.00 159.65 11.83
14740 137.5450 155.00 161.43 12.45
14741 137.5540 156.00 163.17 12.49
14742 137.5630 139.00 164.87 11.79
14743 137.5720 147.00 166.61 12.12
14744 137.5810 150.00 168.17 12.25
14745 137.5900 148.00 169.63 12.17
14746 137.5990 162.00 170.98 12.73
14747 137.6080 171.00 172.19 13.08
14748 137.6170 168.00 173.25 12.96
14749 137.6260 161.00 174.15 12.69
14750 137.6350 175.00 174.88 13.23
14751 137.6440 174.00 175.42 13.19
14752 137.6530 180.00 175.79 13.42
14753 137.6620 190.00 175.96 13.78
14754 137.6710 185.00 175.95 13.60
14755 137.6800 175.00 175.76 13.23
14756 137.6890 175.00 175.38 13.23
14757 137.6980 174.00 174.80 13.19
14758 137.7070 189.00 174.04 13.75
14759 137.7160 168.00 173.10 12.96
14760 137.7250 189.00 171.98 13.75
14761 137.7340 163.00 170.69 12.77
14762 137.7430 185.00 169.22 13.60
14763 137.7520 182.00 167.60 13.49
14764 137.7610 180.00 165.83 13.42
14765 137.7700 167.00 163.95 12.92
14766 137.7790 184.00 161.96 13.56
14767 137.7880 189.00 159.90 13.75
14768 137.7970 184.00 157.79 13.56
14769 137.8060 157.00 155.65 12.53
14770 137.8150 163.00 153.52 12.77
14771 137.8240 178.00 151.41 13.34
14772 137.8330 166.00 149.34 12.88
14773 137.8420 155.00 147.35 12.45
14774 137.8510 144.00 145.44 12.00
14775 137.8600 174.00 143.64 13.19
14776 137.8690 164.00 141.97 12.81
14777 137.8780 182.00 140.44 13.49
14778 137.8870 151.00 139.05 12.29
14779 137.8960 155.00 137.84 12.45
14780 137.9050 145.00 136.80 12.04
14781 137.9140 143.00 135.95 11.96
14782 137.9230 144.00 135.30 12.00
14783 137.9320 148.00 134.86 12.17
14784 137.9410 159.00 134.64 12.61
14785 137.9500 145.00 134.70 12.04
14786 137.9590 128.00 134.93 11.31
14787 137.9680 132.00 135.41 11.49
14788 137.9770 132.00 136.12 11.49
14789 137.9860 139.00 137.07 11.79
14790 137.9950 151.00 138.27 12.29
14791 138.0040 156.00 139.68 12.49
14792 138.0130 152.00 141.36 12.33
14793 138.0220 140.00 143.26 11.83
14794 138.0310 140.00 145.40 11.83
14795 138.0400 149.00 147.76 12.21
14796 138.0490 147.00 150.31 12.12
14797 138.0580 153.00 153.04 12.37
14798 138.0670 164.00 155.91 12.81
14799 138.0760 158.00 158.90 12.57
14800 138.0850 160.00 161.97 12.65
14801 138.0940 155.00 165.07 12.45
14802 138.1030 165.00 168.16 12.85
14803 138.1120 170.00 171.17 13.04
14804 138.1200 166.00 174.07 12.88
14805 138.1290 175.00 176.79 13.23
14806 138.1380 167.00 179.30 12.92
14807 138.1470 154.00 181.57 12.41
14808 138.1560 152.00 183.58 12.33
14809 138.1650 161.00 185.31 12.69
14810 138.1740 185.00 186.73 13.60
14811 138.1830 159.00 187.96 12.61
14812 138.1920 178.00 188.90 13.34
14813 138.2010 168.00 189.60 12.96
14814 138.2100 179.00 190.07 13.38
14815 138.2190 190.00 190.31 13.78
14816 138.2280 180.00 190.34 13.42
14817 138.2370 211.00 190.16 14.53
14818 138.2460 202.00 189.77 14.21
14819 138.2550 196.00 189.19 14.00
14820 138.2640 186.00 188.41 13.64
14821 138.2730 200.00 187.46 14.14
14822 138.2820 202.00 186.33 14.21
14823 138.2910 194.00 185.03 13.93
14824 138.3000 189.00 183.55 13.75
14825 138.3090 203.00 181.90 14.25
14826 138.3180 196.00 180.08 14.00
14827 138.3270 207.00 178.09 14.39
14828 138.3360 190.00 175.96 13.78
14829 138.3450 181.00 173.68 13.45
14830 138.3540 192.00 171.28 13.86
14831 138.3630 177.00 168.79 13.30
14832 138.3720 171.00 166.24 13.08
14833 138.3810 184.00 163.65 13.56
14834 138.3900 179.00 161.05 13.38
14835 138.3990 177.00 158.45 13.30
14836 138.4080 185.00 155.88 13.60
14837 138.4170 169.00 153.35 13.00
14838 138.4260 160.00 150.88 12.65
14839 138.4350 181.00 148.48 13.45
14840 138.4440 188.00 146.16 13.71
14841 138.4530 179.00 143.93 13.38
14842 138.4620 164.00 141.79 12.81
14843 138.4710 149.00 139.76 12.21
14844 138.4800 144.00 137.84 12.00
14845 138.4890 142.00 136.05 11.92
14846 138.4980 141.00 134.38 11.87
14847 138.5070 134.00 132.84 11.58
14848 138.5160 150.00 131.44 12.25
14849 138.5250 163.00 130.17 12.77
14850 138.5340 159.00 129.04 12.61
14851 138.5430 145.00 128.05 12.04
14852 138.5520 138.00 127.20 11.75
14853 138.5610 139.00 126.49 11.79
14854 138.5700 137.00 125.91 11.70
14855 138.5790 135.00 125.46 11.62
14856 138.5880 122.00 125.14 11.05
14857 138.5970 128.00 124.93 11.31
14858 138.6060 118.00 124.83 10.86
14859 138.6150 117.00 124.84 10.82
14860 138.6240 122.00 124.94 11.05
14861 138.6330 121.00 125.12 11.00
14862 138.6420 132.00 125.38 11.49
14863 138.6510 118.00 125.69 10.86
14864 138.6600 115.00 126.04 10.72
14865 138.6690 122.00 126.41 11.05
14866 138.6780 149.00 126.78 12.21
14867 138.6870 121.00 127.13 11.00
14868 138.6960 126.00 127.43 11.23
14869 138.7050 110.00 127.66 10.49
14870 138.7140 122.00 127.79 11.05
14871 138.7230 129.00 127.83 11.36
14872 138.7320 121.00 127.75 11.00
14873 138.7410 116.00 127.55 10.77
14874 138.7500 124.00 127.23 11.14
14875 138.7590 133.00 126.80 11.53
14876 138.7680 148.00 126.26 12.17
14877 138.7770 146.00 125.65 12.08
14878 138.7860 121.00 124.97 11.00
14879 138.7950 132.00 124.24 11.49
14880 138.8040 136.00 123.49 11.66
14881 138.8130 119.00 122.72 10.91
14882 138.8220 131.00 121.96 11.45
14883 138.8310 140.00 121.21 11.83
14884 138.8400 132.00 120.50 11.49
14885 138.8490 122.00 119.82 11.05
14886 138.8580 118.00 119.18 10.86
14887 138.8670 131.00 118.60 11.45
14888 138.8760 136.00 118.06 11.66
14889 138.8850 125.00 117.59 11.18
14890 138.8940 118.00 117.18 10.86
14891 138.9030 112.00 116.83 10.58
14892 138.9120 111.00 116.54 10.54
14893 138.9210 111.00 116.31 10.54
14894 138.9300 123.00 116.15 11.09
14895 138.9390 124.00 116.05 11.14
14896 138.9480 107.00 116.01 10.34
14897 138.9570 118.00 116.03 10.86
14898 138.9650 110.00 116.12 10.49
14899 138.9740 132.00 116.27 11.49
14900 138.9830 128.00 116.48 11.31
14901 138.9920 109.00 116.76 10.44
14902 139.0010 111.00 117.10 10.54
14903 139.0100 113.00 117.50 10.63
14904 139.0190 130.00 117.98 11.40
14905 139.0280 127.00 118.54 11.27
14906 139.0370 126.00 119.17 11.23
14907 139.0460 129.00 119.87 11.36
14908 139.0550 139.00 120.68 11.79
14909 139.0640 136.00 121.61 11.66
14910 139.0730 128.00 122.65 11.31
14911 139.0820 130.00 123.82 11.40
14912 139.0910 130.00 125.15 11.40
14913 139.1000 143.00 126.63 11.96
14914 139.1090 122.00 128.30 11.05
14915 139.1180 113.00 130.18 10.63
14916 139.1270 130.00 132.30 11.40
14917 139.1360 123.00 134.68 11.09
14918 139.1450 114.00 137.35 10.68
14919 139.1540 144.00 140.34 12.00
14920 139.1630 128.00 143.69 11.31
14921 139.1720 145.00 147.45 12.04
14922 139.1810 148.00 151.61 12.17
14923 139.1900 129.00 156.21 11.36
14924 139.1990 136.00 161.28 11.66
14925 139.2080 157.00 166.82 12.53
14926 139.2170 159.00 172.88 12.61
14927 139.2260 163.00 179.45 12.77
14928 139.2350 152.00 186.51 12.33
14929 139.2440 161.00 194.05 12.69
14930 139.2530 171.00 202.02 13.08
14931 139.2620 178.00 210.41 13.34
14932 139.2710 172.00 219.11 13.11
14933 139.2800 162.00 228.05 12.73
14934 139.2890 172.00 237.10 13.11
14935 139.2980 181.00 246.12 13.45
14936 139.3070 195.00 254.89 13.96
14937 139.3160 218.00 263.24 14.76
14938 139.3250 230.00 270.91 15.17
14939 139.3340 235.00 277.64 15.33
14940 139.3430 239.00 283.17 15.46
14941 139.3520 271.00 287.28 16.46
14942 139.3610 272.00 289.79 16.49
14943 139.3700 272.00 290.60 16.49
14944 139.3790 271.00 289.69 16.46
14945 139.3880 281.00 287.14 16.76
14946 139.3970 269.00 283.12 16.40
14947 139.4060 264.00 277.81 16.25
14948 139.4150 260.00 271.48 16.12
14949 139.4240 245.00 264.35 15.65
14950 139.4330 270.00 256.66 16.43
14951 139.4420 256.00 248.62 16.00
14952 139.4510 256.00 240.42 16.00
14953 139.4600 260.00 232.22 16.12
14954 139.4690 224.00 224.13 14.97
14955 139.4780 219.00 216.26 14.80
14956 139.4870 239.00 208.69 15.46
14957 139.4960 237.00 201.48 15.39
14958 139.5050 210.00 194.67 14.49
14959 139.5140 185.00 188.29 13.60
14960 139.5230 200.00 182.34 14.14
14961 139.5320 220.00 176.83 14.83
14962 139.5410 165.00 171.74 12.85
14963 139.5500 181.00 167.07 13.45
14964 139.5590 167.00 162.80 12.92
14965 139.5680 159.00 158.91 12.61
14966 139.5770 173.00 155.36 13.15
14967 139.5860 162.00 152.13 12.73
14968 139.5950 164.00 149.21 12.81
14969 139.6040 147.00 146.55 12.12
14970 139.6130 151.00 144.15 12.29
14971 139.6220 148.00 141.97 12.17
14972 139.6310 141.00 140.00 11.87
14973 139.6400 140.00 138.23 11.83
14974 139.6490 137.00 136.62 11.70
14975 139.6580 134.00 135.18 11.58
14976 139.6670 147.00 133.88 12.12
14977 139.6760 144.00 132.71 12.00
14978 139.6850 143.00 131.66 11.96
14979 139.6940 130.00 130.74 11.40
14980 139.7030 116.00 129.91 10.77
14981 139.7120 127.00 129.19 11.27
14982 139.7210 128.00 128.55 11.31
14983 139.7300 125.00 128.00 11.18
14984 139.7390 124.00 127.54 11.14
14985 139.7480 114.00 127.14 10.68
14986 139.7570 110.00 126.82 10.49
14987 139.7660 113.00 126.56 10.63
14988 139.7750 108.00 126.37 10.39
14989 139.7840 110.00 126.23 10.49
14990 139.7930 113.00 126.15 10.63
14991 139.8020 116.00 126.21 10.77
14992 139.8110 128.00 126.23 11.31
14993 139.8190 124.00 126.31 11.14
14994 139.8280 130.00 126.42 11.40
14995 139.8370 115.00 126.58 10.72
14996 139.8460 111.00 126.78 10.54
14997 139.8550 119.00 127.02 10.91
14998 139.8640 107.00 127.26 10.34
14999 139.8730 97.00 127.56 9.85
15000 139.8820 114.00 127.88 10.68
loop_
_refln_index_h
_refln_index_k
_refln_index_l
_refln_F_squared_calc
_refln_F_squared_meas
_refln_F_squared_sigma
_refln_observed_status
_refln_d_spacing
-2 0 0 5620.90 5621.46 129.80 o 7.392745
2 0 0 5620.90 5621.46 127.67 o 7.392745
1 1 0 42103.07 40926.25 841.04 o 6.171902
-1 1 0 42103.10 40926.29 848.65 o 6.171902
0 1 1 7678.38 6334.96 161.31 o 5.194480
1 1 1 4756.98 4288.58 102.98 o 4.900828
-1 1 1 4756.97 4288.58 106.13 o 4.900828
2 1 1 2535.52 2440.33 70.12 o 4.250195
-2 1 1 2535.52 2440.33 74.66 o 4.250195
0 0 2 1015.56 1588.44 186.49 o 4.031307
-3 1 0 9494.02 10014.69 237.39 o 3.988951
3 1 0 9494.04 10014.71 240.86 o 3.988951
1 0 2 6991.92 7307.07 200.36 o 3.889332
-1 0 2 6991.92 7307.07 211.96 o 3.889332
-4 0 0 121963.84 123927.02 2529.77 o 3.696372
4 0 0 121963.84 123927.02 2510.15 o 3.696372
-3 1 1 19930.79 19089.13 408.69 o 3.575308
3 1 1 19930.79 19089.13 412.65 o 3.575308
2 0 2 97134.92 97552.70 2046.18 o 3.539288
-2 0 2 97134.95 97552.73 2018.13 o 3.539288
0 1 2 1864.37 1750.97 110.23 o 3.466654
0 2 0 7152.53 8542.17 331.09 o 3.395972
-1 1 2 11572.12 11024.95 259.56 o 3.375125
1 1 2 11572.12 11024.96 257.66 o 3.375125
2 1 2 42292.29 42403.13 900.04 o 3.138700
-2 1 2 42292.29 42403.14 897.84 o 3.138700
0 2 1 18062.23 17567.02 401.74 o 3.129683
3 0 2 66540.00 70109.72 1502.90 o 3.120400
-3 0 2 66540.03 70109.78 1485.65 o 3.120400
2 2 0 14.04 14.34 3.32 o 3.085951
-2 2 0 14.03 14.34 0.31 o 3.085951
-1 2 1 43542.61 44169.83 950.65 o 3.061841
1 2 1 43542.61 44169.84 933.64 o 3.061841
-4 1 1 21505.60 20856.86 449.49 o 3.011688
4 1 1 21505.65 20856.90 460.29 o 3.011688
-2 2 1 65812.99 64937.29 1369.22 o 2.882058
2 2 1 65812.95 64937.25 1356.63 o 2.882058
-3 1 2 41358.05 41283.73 894.46 o 2.835471
3 1 2 41358.00 41283.67 878.43 o 2.835471
4 0 2 2098.92 1794.15 58.13 o 2.724457
-4 0 2 2098.92 1794.16 95.11 o 2.724457
5 1 0 93505.96 85111.34 1776.58 o 2.711270
-5 1 0 93506.04 85111.41 1793.98 o 2.711270
-3 2 1 7227.69 6743.68 187.61 o 2.642002
3 2 1 7227.69 6743.68 203.72 o 2.642002
0 2 2 308.41 350.40 107.27 o 2.597240
5 1 1 11222.77 11415.36 262.50 o 2.569858
-5 1 1 11222.80 11415.38 283.66 o 2.569858
1 2 2 9393.02 9412.07 264.85 o 2.558073
-1 2 2 9393.01 9412.06 258.13 o 2.558073
4 1 2 2194.55 2681.53 139.28 o 2.528608
-4 1 2 2194.56 2681.55 97.29 o 2.528608
-4 2 0 766.80 396.47 77.81 o 2.500782
4 2 0 766.79 396.47 91.89 o 2.500782
0 1 3 1.13 0.56 1.13 o 2.499009
6 0 0 40825.55 43967.84 967.20 o 2.464248
-6 0 0 40825.55 43967.84 953.22 o 2.464248
-1 1 3 8881.53 9577.85 214.07 o 2.464061
1 1 3 8881.51 9577.83 207.07 o 2.464061
2 2 2 16893.26 17026.93 419.05 o 2.450414
-2 2 2 16893.26 17026.93 425.09 o 2.450414
4 2 1 13089.20 13184.76 352.01 o 2.388525
-4 2 1 13089.19 13184.75 320.83 o 2.388525
-5 0 2 1080.17 1085.71 46.05 o 2.384391
5 0 2 1080.16 1085.70 24.35 o 2.384391
2 1 3 6891.43 7068.79 218.77 o 2.367407
-2 1 3 6891.40 7068.75 245.76 o 2.367407
3 2 2 4076.33 3281.76 153.41 o 2.297712
-3 2 2 4076.32 3281.75 153.23 o 2.297712
5 1 2 1756.48 1314.68 88.50 o 2.249782
-5 1 2 1756.48 1314.68 98.59 o 2.249782
-1 3 0 511.75 30.82 71.90 < 2.237898
1 3 0 511.76 30.82 49.32 < 2.237898
-3 1 3 3016.18 3257.55 75.06 o 2.228858
3 1 3 3016.19 3257.56 99.39 o 2.228858
6 1 1 8329.73 8736.72 237.11 o 2.226419
-6 1 1 8329.75 8736.74 214.85 o 2.226419
0 3 1 12276.77 11303.15 451.71 o 2.179679
-1 3 1 6335.90 6071.00 204.13 o 2.156373
1 3 1 6335.90 6071.00 232.23 o 2.156373
-5 2 1 29432.81 29607.58 696.70 o 2.149408
5 2 1 29432.74 29607.51 671.73 o 2.149408
-4 2 2 1486.42 1396.85 131.58 o 2.125097
4 2 2 1486.41 1396.84 125.19 o 2.125097
0 2 3 39957.80 37984.42 1006.21 o 2.107437
-6 0 2 4647.83 5247.91 184.51 o 2.102542
6 0 2 4647.84 5247.92 232.10 o 2.102542
-2 3 1 8876.27 8157.38 286.62 o 2.090699
2 3 1 8876.26 8157.38 261.41 o 2.090699
1 2 3 4229.99 4743.63 199.76 o 2.086350
-1 2 3 4230.00 4743.64 174.21 o 2.086350
4 1 3 2882.28 3368.95 211.73 o 2.070272
-4 1 3 2882.28 3368.95 179.48 o 2.070272
-3 3 0 1990.53 4683.19 578.34 o 2.057301
3 3 0 1990.53 4683.19 603.32 o 2.057301
-2 2 3 10369.65 12521.47 410.79 o 2.026696
2 2 3 10369.63 12521.45 411.36 o 2.026696
7 1 0 3549.16 4619.67 206.24 o 2.016931
-7 1 0 3549.16 4619.69 202.70 o 2.016931
0 0 4 2445.39 3131.35 141.61 o 2.015653
6 1 2 5340.80 7079.86 236.12 o 2.008506
-6 1 2 5340.83 7079.89 262.56 o 2.008506
-1 0 4 36715.56 38924.93 983.27 o 1.997180
1 0 4 36715.59 38924.96 975.93 o 1.997180
6 2 0 8210.58 8897.92 200.11 o 1.994476
-6 2 0 8210.57 8897.92 203.31 o 1.994476
-3 3 1 34737.36 37929.88 855.39 o 1.993428
3 3 1 34737.38 37929.91 895.83 o 1.993428
0 3 2 252.14 839.27 247.72 o 1.973989
7 1 1 22481.48 23761.52 533.83 o 1.956638
-7 1 1 22481.45 23761.48 560.32 o 1.956638
1 3 2 2396.31 2540.13 61.84 o 1.956628
-1 3 2 2396.32 2540.14 57.28 o 1.956628
-5 2 2 2731.62 3141.51 126.08 o 1.951421
5 2 2 2731.59 3141.48 134.02 o 1.951421
-2 0 4 8416.21 9066.33 416.07 o 1.944666
2 0 4 8416.19 9066.31 395.72 o 1.944666
-3 2 3 16543.28 17472.22 395.70 o 1.937719
3 2 3 16543.22 17472.15 424.96 o 1.937719
-6 2 1 20329.70 20646.11 468.27 o 1.936116
6 2 1 20329.75 20646.16 473.11 o 1.936116
0 1 4 104834.79 103786.09 2363.06 o 1.932355
-1 1 4 15554.69 15411.04 462.15 o 1.916060
1 1 4 15554.65 15411.00 469.81 o 1.916060
-5 1 3 12673.67 13297.42 396.26 o 1.908712
5 1 3 12673.70 13297.45 386.18 o 1.908712
-2 3 2 1866.91 1937.11 60.93 o 1.907171
2 3 2 1866.91 1937.11 57.49 o 1.907171
-4 3 1 38596.96 40498.78 999.26 o 1.877553
4 3 1 38596.94 40498.75 947.30 o 1.877553
7 0 2 48350.61 49510.21 1163.46 o 1.870955
-7 0 2 48350.62 49510.22 1174.60 o 1.870955
2 1 4 2598.29 2636.64 69.72 o 1.869544
-2 1 4 2598.29 2636.64 58.70 o 1.869544
3 0 4 2968.35 2666.31 192.98 o 1.865655
-3 0 4 2968.34 2666.31 196.07 o 1.865655
-8 0 0 16583.12 14492.38 486.24 o 1.848186
8 0 0 16583.12 14492.38 450.85 o 1.848186
3 3 2 2984.86 2937.83 67.58 o 1.832471
-3 3 2 2984.85 2937.82 68.40 o 1.832471
-4 2 3 65467.68 64303.89 1471.08 o 1.830786
4 2 3 65467.71 64303.91 1439.08 o 1.830786
-7 1 2 39066.15 42550.30 972.12 o 1.803769
7 1 2 39066.03 42550.18 978.23 o 1.803769
-3 1 4 4469.05 5503.53 178.78 o 1.799019
3 1 4 4469.06 5503.55 167.12 o 1.799019
5 3 0 13488.12 16932.37 557.80 o 1.797627
-5 3 0 13488.10 16932.35 565.68 o 1.797627
-6 2 2 5068.39 5989.11 294.48 o 1.787654
6 2 2 5068.39 5989.12 276.08 o 1.787654
-4 0 4 10401.74 13997.48 700.37 o 1.769644
4 0 4 10401.72 13997.46 704.58 o 1.769644
-6 1 3 2212.81 2315.08 63.66 o 1.754647
6 1 3 2212.82 2315.09 60.18 o 1.754647
5 3 1 22066.16 23116.62 630.58 o 1.754547
-5 3 1 22066.21 23116.67 613.71 o 1.754547
7 2 1 5289.13 5943.05 207.00 o 1.750788
-7 2 1 5289.13 5943.04 223.96 o 1.750788
-8 1 1 8732.66 8443.85 225.70 o 1.741255
8 1 1 8732.70 8443.89 257.62 o 1.741255
4 3 2 3497.40 3393.60 98.55 o 1.741248
-4 3 2 3497.40 3393.59 97.37 o 1.741248
0 2 4 248.50 226.85 11.58 o 1.733327
0 3 3 15518.45 14235.65 670.83 o 1.731493
-1 2 4 7185.31 7163.60 178.61 o 1.721538
1 2 4 7185.33 7163.62 178.31 o 1.721538
-1 3 3 45419.07 45123.66 1067.72 o 1.719741
1 3 3 45419.09 45123.67 1090.80 o 1.719741
5 2 3 19200.56 19010.18 505.78 o 1.716202
-5 2 3 19200.56 19010.18 491.09 o 1.716202
4 1 4 24520.11 27094.70 716.72 o 1.712471
-4 1 4 24520.16 27094.75 734.51 o 1.712471
0 4 0 75088.86 78690.27 2439.99 o 1.697986
2 2 4 2788.64 2891.09 90.33 o 1.687562
-2 2 4 2788.64 2891.09 93.37 o 1.687562
-2 3 3 18667.07 19719.06 613.63 o 1.685870
2 3 3 18667.05 19719.02 578.86 o 1.685870
-8 0 2 42978.32 38072.44 956.13 o 1.680041
8 0 2 42978.30 38072.43 985.81 o 1.680041
5 0 4 96340.26 93189.61 2274.57 o 1.665532
-5 0 4 96340.26 93189.60 2261.46 o 1.665532
0 4 1 4483.81 3671.84 247.68 o 1.661539
-2 4 0 440.72 111.59 70.11 < 1.654896
2 4 0 440.72 111.59 65.90 < 1.654896
1 4 1 11170.92 10054.38 438.27 o 1.651146
-1 4 1 11170.94 10054.40 404.09 o 1.651146
-5 3 2 6.11 3.94 1.26 o 1.641794
5 3 2 6.11 3.94 0.06 o 1.641794
-7 2 2 3822.50 3185.16 176.61 o 1.638714
7 2 2 3822.51 3185.17 172.37 o 1.638714
3 2 4 4367.14 4631.13 123.85 o 1.635149
-3 2 4 4367.13 4631.12 117.84 o 1.635149
3 3 3 16193.09 17509.81 411.80 o 1.633610
-3 3 3 16193.08 17509.80 411.49 o 1.633610
6 3 1 24446.32 26516.59 633.81 o 1.632649
-6 3 1 24446.28 26516.55 596.44 o 1.632649
-8 1 2 21459.16 22856.85 544.26 o 1.630888
8 1 2 21459.15 22856.83 546.90 o 1.630888
-8 2 0 1620.10 1194.41 60.52 o 1.623350
8 2 0 1620.09 1194.41 63.40 o 1.623350
2 4 1 13808.65 11032.05 418.04 o 1.621099
-2 4 1 13808.64 11032.04 417.55 o 1.621099
5 1 4 3240.18 2911.84 201.48 o 1.617606
-5 1 4 3240.19 2911.85 196.63 o 1.617606
7 1 3 673.99 217.14 86.51 < 1.613177
-7 1 3 674.00 217.15 100.49 < 1.613177
-6 2 3 17201.44 16898.25 512.26 o 1.601618
6 2 3 17201.37 16898.18 534.98 o 1.601618
9 1 0 53692.94 46367.05 1093.57 o 1.596786
-9 1 0 53692.88 46367.00 1088.81 o 1.596786
8 2 1 21904.22 20559.70 561.46 o 1.591413
-8 2 1 21904.17 20559.65 541.59 o 1.591413
3 4 1 8264.29 6860.89 349.17 o 1.574472
-3 4 1 8264.28 6860.89 374.29 o 1.574472
4 2 4 32.12 21.75 2.41 o 1.569350
-4 2 4 32.12 21.75 1.98 o 1.569350
0 1 5 1812.73 1218.66 100.10 o 1.568912
-4 3 3 4044.96 2601.58 202.51 o 1.567989
4 3 3 4044.96 2601.58 188.00 o 1.567989
9 1 1 508.34 303.22 23.74 o 1.566362
-9 1 1 508.34 303.22 38.08 o 1.566362
0 4 2 442.22 208.55 35.29 o 1.564841
-6 0 4 13538.14 13223.49 465.47 o 1.560200
6 0 4 13538.17 13223.52 453.95 o 1.560200
-1 1 5 9490.91 9248.46 323.82 o 1.560153
1 1 5 9490.90 9248.45 320.81 o 1.560153
-1 4 2 2038.03 1332.18 190.11 o 1.556150
1 4 2 2038.03 1332.18 187.91 o 1.556150
7 3 0 6751.85 6427.01 312.92 o 1.544429
-7 3 0 6751.86 6427.02 315.15 o 1.544429
-4 4 0 11853.00 11865.89 546.22 o 1.542975
4 4 0 11853.03 11865.91 556.80 o 1.542975
6 3 2 41.99 44.94 3.98 o 1.540636
-6 3 2 41.99 44.94 3.13 o 1.540636
2 1 5 20270.03 22227.32 699.42 o 1.534731
-2 1 5 20270.00 22227.29 700.97 o 1.534731
2 4 2 33502.71 28224.01 812.49 o 1.530921
-2 4 2 33502.72 28224.01 808.27 o 1.530921
-9 0 2 2433.89 2930.92 105.04 o 1.521355
9 0 2 2433.87 2930.91 91.08 o 1.521355
-6 1 4 12681.23 15472.82 500.53 o 1.520596
6 1 4 12681.21 15472.79 497.50 o 1.520596
-7 3 1 36942.40 39657.29 1011.77 o 1.516850
7 3 1 36942.52 39657.42 982.90 o 1.516850
4 4 1 6530.50 6950.57 178.01 o 1.515474
-4 4 1 6530.51 6950.59 185.41 o 1.515474
8 2 2 9377.23 10964.06 372.90 o 1.505844
-8 2 2 9377.25 10964.07 369.44 o 1.505844
0 3 4 8670.21 10015.90 342.67 o 1.505453
1 3 4 3460.12 3378.40 124.58 o 1.497709
-1 3 4 3460.13 3378.41 117.01 o 1.497709
-5 2 4 4621.87 4556.62 115.29 o 1.495370
5 2 4 4621.85 4556.60 113.53 o 1.495370
-3 1 5 5257.06 5146.80 124.33 o 1.494990
3 1 5 5257.09 5146.82 126.28 o 1.494990
5 3 3 50009.32 47677.46 1141.51 o 1.494192
-5 3 3 50009.29 47677.42 1119.36 o 1.494192
-7 2 3 15191.37 14093.26 350.48 o 1.491868
7 2 3 15191.34 14093.24 341.59 o 1.491868
-3 4 2 27757.97 25690.34 642.12 o 1.491467
3 4 2 27757.95 25690.31 640.00 o 1.491467
8 1 3 3763.28 3909.41 193.83 o 1.485957
-8 1 3 3763.28 3909.41 181.51 o 1.485957
-9 1 2 1532.96 1615.71 78.88 o 1.484568
9 1 2 1532.97 1615.71 78.83 o 1.484568
-10 0 0 95184.05 84994.35 2019.60 o 1.478549
10 0 0 95184.05 84994.37 2045.46 o 1.478549
2 3 4 1011.07 822.19 40.96 o 1.475176
-2 3 4 1011.07 822.19 45.58 o 1.475176
-7 0 4 1951.90 1974.57 193.11 o 1.458224
7 0 4 1951.88 1974.56 169.05 o 1.458224
0 2 5 1708.10 1818.73 56.33 o 1.456649
9 2 1 25905.83 26184.60 674.60 o 1.454608
-9 2 1 25905.80 26184.56 718.55 o 1.454608
-1 2 5 6409.49 6326.91 220.05 o 1.449631
1 2 5 6409.52 6326.94 222.07 o 1.449631
5 4 1 13042.45 12819.96 469.35 o 1.448539
-5 4 1 13042.46 12819.97 429.86 o 1.448539
4 1 5 1399.24 1241.38 130.62 o 1.444206
-4 1 5 1399.24 1241.38 134.07 o 1.444206
-7 3 2 1907.23 1665.15 147.73 o 1.442213
7 3 2 1907.25 1665.17 145.23 o 1.442213
4 4 2 1389.24 1210.65 106.50 o 1.441029
-4 4 2 1389.25 1210.66 117.39 o 1.441029
-3 3 4 435.06 395.12 44.40 o 1.439781
3 3 4 435.06 395.12 41.43 o 1.439781
0 4 3 15415.10 17881.49 1001.02 o 1.435485
2 2 5 8875.48 10456.44 456.15 o 1.429170
-2 2 5 8875.48 10456.45 483.89 o 1.429170
-1 4 3 2079.99 2449.44 112.26 o 1.428767
1 4 3 2080.01 2449.46 107.29 o 1.428767
7 1 4 4974.78 5760.42 345.06 o 1.425734
-7 1 4 4974.76 5760.39 321.51 o 1.425734
-10 1 1 3392.45 4094.42 218.75 o 1.422064
10 1 1 3392.46 4094.43 180.62 o 1.422064
6 2 4 703.69 709.01 33.14 o 1.417735
-6 2 4 703.69 709.01 37.73 o 1.417735
-6 3 3 9270.69 9417.26 462.54 o 1.416731
6 3 3 9270.69 9417.27 427.60 o 1.416731
-8 3 1 10501.83 11332.19 410.60 o 1.409654
8 3 1 10501.79 11332.15 422.33 o 1.409654
2 4 3 4344.21 4700.00 165.72 o 1.409165
-2 4 3 4344.22 4700.01 179.10 o 1.409165
6 4 0 15278.03 15767.38 448.65 o 1.398200
-6 4 0 15278.03 15767.37 445.92 o 1.398200
-3 2 5 37425.01 38615.14 1054.40 o 1.396914
3 2 5 37425.00 38615.14 1064.17 o 1.396914
4 3 4 1207.63 1274.24 51.69 o 1.394251
-4 3 4 1207.63 1274.24 54.71 o 1.394251
-8 2 3 21231.21 21791.75 614.60 o 1.389535
8 2 3 21231.21 21791.75 634.51 o 1.389535
9 2 2 994.13 1012.63 30.90 o 1.388400
-9 2 2 994.14 1012.63 27.39 o 1.388400
-10 0 2 10544.92 10683.07 320.04 o 1.388130
10 0 2 10544.93 10683.08 338.72 o 1.388130
-5 1 5 1450.49 1432.66 101.88 o 1.385928
5 1 5 1450.49 1432.65 79.32 o 1.385928
-5 4 2 1191.03 1345.83 174.89 o 1.383120
5 4 2 1191.03 1345.83 167.87 o 1.383120
-3 4 3 7405.47 6941.71 239.87 o 1.378215
3 4 3 7405.49 6941.73 251.21 o 1.378215
-6 4 1 13537.69 12605.35 454.65 o 1.377638
6 4 1 13537.68 12605.34 442.21 o 1.377638
-9 1 3 16296.86 17614.60 581.61 o 1.372766
9 1 3 16296.88 17614.61 569.58 o 1.372766
8 0 4 11083.18 10504.45 540.54 o 1.362228
-8 0 4 11083.19 10504.46 573.00 o 1.362228
10 1 2 8797.91 10693.53 394.30 o 1.360016
-10 1 2 8797.89 10693.51 372.08 o 1.360016
-10 2 0 12948.63 13101.58 429.94 o 1.355635
10 2 0 12948.57 13101.51 432.80 o 1.355635
-4 2 5 12232.92 12350.67 404.96 o 1.355216
4 2 5 12232.92 12350.67 411.79 o 1.355216
-1 5 0 28064.98 28723.54 1159.10 o 1.352692
1 5 0 28065.00 28723.56 1169.88 o 1.352692
-8 3 2 242.94 260.02 57.19 o 1.349149
8 3 2 242.95 260.03 75.08 o 1.349149
0 0 6 7815.90 8420.99 1058.77 o 1.343769
-5 3 4 1105.93 1288.77 103.70 o 1.341600
5 3 4 1105.93 1288.77 101.50 o 1.341600
-7 2 4 80.89 86.23 3.38 o 1.339918
7 2 4 80.89 86.23 3.17 o 1.339918
0 5 1 2054.36 2215.89 78.79 o 1.339510
-7 3 3 904.58 1000.26 25.99 o 1.339070
7 3 3 904.59 1000.27 32.77 o 1.339070
1 0 6 11455.70 12731.59 379.99 o 1.338253
-1 0 6 11455.69 12731.59 342.76 o 1.338253
-4 4 3 22663.61 25369.29 691.93 o 1.338122
4 4 3 22663.59 25369.27 686.59 o 1.338122
10 2 1 10406.24 11617.55 334.63 o 1.336870
-10 2 1 10406.25 11617.56 306.27 o 1.336870
8 1 4 8303.60 9075.60 280.61 o 1.335629
-8 1 4 8303.59 9075.59 293.53 o 1.335629
1 5 1 1571.42 1564.40 81.27 o 1.334047
-1 5 1 1571.41 1564.39 85.14 o 1.334047
9 3 0 1877.20 2156.11 372.55 o 1.329650
-9 3 0 1877.21 2156.11 385.29 o 1.329650
6 1 5 8939.65 8486.84 338.97 o 1.323447
-6 1 5 8939.65 8486.85 341.45 o 1.323447
2 0 6 22458.66 23053.08 904.64 o 1.322105
-2 0 6 22458.63 23053.05 862.82 o 1.322105
6 4 2 4296.87 4597.13 180.51 o 1.321001
-6 4 2 4296.87 4597.12 181.86 o 1.321001
11 1 0 4436.00 5349.03 274.91 o 1.318563
-11 1 0 4436.00 5349.03 286.77 o 1.318563
0 1 6 638.11 770.19 39.56 o 1.318217
2 5 1 2090.94 2522.65 126.80 o 1.318049
-2 5 1 2090.94 2522.65 141.70 o 1.318049
0 3 5 2580.19 2725.14 113.44 o 1.313427
-1 1 6 10600.36 11079.82 461.73 o 1.313009
1 1 6 10600.38 11079.84 450.87 o 1.313009
9 3 1 4373.44 4575.78 176.81 o 1.311930
-9 3 1 4373.40 4575.75 197.73 o 1.311930
3 5 0 6430.45 6110.57 233.23 o 1.309558
-3 5 0 6430.44 6110.56 243.49 o 1.309558
1 3 5 22117.12 22048.09 747.98 o 1.308275
-1 3 5 22117.12 22048.09 724.98 o 1.308275
-5 2 5 5486.84 6050.36 213.76 o 1.306715
5 2 5 5486.85 6050.38 216.44 o 1.306715
7 4 1 3832.12 4201.99 189.29 o 1.305915
-7 4 1 3832.12 4201.99 172.23 o 1.305915
11 1 1 7232.77 7721.66 288.70 o 1.301276
-11 1 1 7232.75 7721.65 288.16 o 1.301276
0 4 4 90.68 96.41 3.34 o 1.298620
2 1 6 31297.66 34271.09 993.22 o 1.297747
-2 1 6 31297.66 34271.09 991.02 o 1.297747
-3 0 6 27974.27 32258.84 1062.99 o 1.296444
3 0 6 27974.27 32258.85 958.22 o 1.296444
9 2 3 204.40 232.29 8.58 o 1.295666
-9 2 3 204.39 232.29 8.92 o 1.295666
-1 4 4 9452.14 9927.21 303.80 o 1.293640
1 4 4 9452.17 9927.23 291.76 o 1.293640
-2 3 5 24026.61 25176.88 762.97 o 1.293176
2 3 5 24026.65 25176.92 764.03 o 1.293176
-3 5 1 3884.86 4070.22 123.46 o 1.292619
3 5 1 3884.86 4070.22 129.53 o 1.292619
5 4 3 2959.75 3217.90 118.59 o 1.291371
-5 4 3 2959.76 3217.92 117.13 o 1.291371
0 5 2 1225.90 1584.70 222.59 o 1.287273
-10 2 2 4104.06 4233.92 278.60 o 1.284929
10 2 2 4104.03 4233.88 269.12 o 1.284929
-6 3 4 13.00 12.66 0.97 o 1.284686
6 3 4 13.01 12.66 1.02 o 1.284686
1 5 2 10557.41 9023.81 515.71 o 1.282422
-1 5 2 10557.42 9023.82 518.24 o 1.282422
2 4 4 3462.11 2939.45 316.75 o 1.279036
-2 4 4 3462.12 2939.46 347.24 o 1.279036
-11 0 2 9429.65 10134.44 378.21 o 1.275124
11 0 2 9429.66 10134.44 358.35 o 1.275124
3 1 6 10097.85 10330.17 295.76 o 1.273453
-3 1 6 10097.88 10330.21 288.56 o 1.273453
9 0 4 43160.16 44048.28 1245.07 o 1.273442
-9 0 4 43160.24 44048.36 1231.66 o 1.273442
10 1 3 4849.56 4975.95 152.04 o 1.272506
-10 1 3 4849.53 4975.92 142.65 o 1.272506
3 3 5 12798.01 12774.26 414.49 o 1.269132
-3 3 5 12798.03 12774.28 423.43 o 1.269132
2 5 2 20521.47 20729.38 695.11 o 1.268191
-2 5 2 20521.46 20729.36 699.95 o 1.268191
8 2 4 645.49 739.23 44.61 o 1.264304
-8 2 4 645.49 739.23 32.27 o 1.264304
-8 3 3 4999.19 5671.71 280.98 o 1.263592
8 3 3 4999.21 5671.73 257.85 o 1.263592
-4 0 6 11432.77 12805.16 607.30 o 1.262905
4 0 6 11432.75 12805.14 674.61 o 1.262905
9 3 2 370.43 416.14 20.55 o 1.262738
-9 3 2 370.44 416.14 21.44 o 1.262738
-7 1 5 6617.74 6919.07 344.29 o 1.259480
7 1 5 6617.72 6919.05 347.22 o 1.259480
4 5 1 1548.79 1596.27 80.40 o 1.259368
-4 5 1 1548.79 1596.27 76.29 o 1.259368
-7 4 2 14114.11 13487.15 557.50 o 1.257371
7 4 2 14114.13 13487.17 553.54 o 1.257371
-3 4 4 316.22 326.76 8.26 o 1.255759
3 4 4 316.22 326.76 11.22 o 1.255759
-6 2 5 35883.06 36833.67 970.14 o 1.253956
6 2 5 35883.09 36833.70 990.43 o 1.253956
-11 1 2 14095.37 14426.85 382.05 o 1.253229
11 1 2 14095.34 14426.82 381.11 o 1.253229
-9 1 4 1970.97 1843.66 75.04 o 1.251633
9 1 4 1970.97 1843.66 80.10 o 1.251633
8 4 0 937.34 984.19 67.97 o 1.250391
-8 4 0 937.33 984.18 67.19 o 1.250391
0 2 6 4532.96 4624.26 397.66 o 1.249504
3 5 2 37412.05 37264.23 1155.86 o 1.245490
-3 5 2 37412.07 37264.27 1160.15 o 1.245490
1 2 6 3356.69 3344.67 98.22 o 1.245066
-1 2 6 3356.68 3344.66 108.27 o 1.245066
-4 1 6 3402.67 3339.50 195.57 o 1.241624
4 1 6 3402.68 3339.51 184.00 o 1.241624
-6 4 3 10333.72 10648.54 511.36 o 1.240378
6 4 3 10333.75 10648.56 516.21 o 1.240378
-4 3 5 5379.04 5368.25 257.13 o 1.237618
4 3 5 5379.03 5368.25 258.22 o 1.237618
8 4 1 5559.23 5277.33 138.88 o 1.235620
-8 4 1 5559.22 5277.33 150.48 o 1.235620
-11 2 1 15649.47 15135.98 405.44 o 1.235049
11 2 1 15649.48 15135.99 410.93 o 1.235049
-5 5 0 62259.52 60609.29 1628.12 o 1.234380
5 5 0 62259.58 60609.34 1645.77 o 1.234380
-12 0 0 18627.96 16514.77 698.72 o 1.232124
12 0 0 18627.96 16514.78 703.04 o 1.232124
2 2 6 232.79 211.29 8.72 o 1.232031
-2 2 6 232.78 211.29 9.22 o 1.232031
7 3 4 81.84 99.22 9.94 o 1.225934
-7 3 4 81.84 99.22 6.76 o 1.225934
4 4 4 2745.35 2957.94 158.30 o 1.225207
-4 4 4 2745.34 2957.93 141.36 o 1.225207
-10 3 1 11613.30 11857.38 499.24 o 1.223599
10 3 1 11613.35 11857.43 502.59 o 1.223599
-5 0 6 3533.96 3560.31 160.27 o 1.223379
5 0 6 3533.96 3560.31 150.32 o 1.223379
-5 5 1 753.22 595.10 217.17 < 1.220163
5 5 1 753.22 595.10 203.44 < 1.220163
4 5 2 1704.90 1023.03 403.61 < 1.215664
-4 5 2 1704.89 1023.03 364.97 < 1.215664
0 5 3 765.31 825.38 44.36 o 1.212330
3 2 6 4310.50 4781.29 179.92 o 1.211186
-3 2 6 4310.49 4781.27 165.39 o 1.211186
-10 2 3 17311.27 18922.59 698.37 o 1.210372
10 2 3 17311.32 18922.63 653.91 o 1.210372
1 5 3 672.17 677.68 43.38 o 1.208276
-1 5 3 672.19 677.70 52.45 o 1.208276
-5 1 6 5920.61 5312.81 479.38 o 1.204004
5 1 6 5920.61 5312.81 478.91 o 1.204004
5 3 5 3071.31 3020.79 104.44 o 1.200351
-5 3 5 3071.32 3020.81 100.58 o 1.200351
7 2 5 32685.83 31467.39 1000.60 o 1.199145
-7 2 5 32685.78 31467.34 1029.53 o 1.199145
-12 1 1 806.20 771.17 22.35 o 1.198860
12 1 1 806.20 771.17 27.73 o 1.198860
2 5 3 2025.65 1955.58 95.14 o 1.196351
-2 5 3 2025.65 1955.58 85.59 o 1.196351
8 1 5 5862.78 5878.63 285.28 o 1.196069
-8 1 5 5862.74 5878.59 282.80 o 1.196069
8 4 2 19054.63 19393.10 648.97 o 1.194262
-8 4 2 19054.65 19393.12 633.24 o 1.194262
11 2 2 2373.05 2472.15 80.27 o 1.193747
-11 2 2 2373.05 2472.15 76.04 o 1.193747
-9 2 4 5139.04 5510.90 149.75 o 1.192367
9 2 4 5139.08 5510.94 152.93 o 1.192367
-10 0 4 5114.79 5525.35 152.92 o 1.192195
10 0 4 5114.75 5525.30 155.85 o 1.192195
9 3 3 37971.19 40998.08 1130.30 o 1.191769
-9 3 3 37971.08 40997.95 1135.27 o 1.191769
5 4 4 35476.27 37598.06 1179.27 o 1.189017
-5 4 4 35476.25 37598.04 1163.45 o 1.189017
7 4 3 7422.52 7819.40 298.97 o 1.187255
-7 4 3 7422.53 7819.42 310.52 o 1.187255
11 1 3 2624.37 2286.31 179.53 o 1.183766
-11 1 3 2624.35 2286.29 171.58 o 1.183766
-4 2 6 2404.09 2048.69 156.63 o 1.183704
4 2 6 2404.07 2048.67 156.47 o 1.183704
-10 3 2 848.45 729.24 54.99 o 1.183398
10 3 2 848.44 729.24 57.75 o 1.183398
-5 5 2 4655.96 4572.22 245.28 o 1.180289
5 5 2 4655.95 4572.21 234.75 o 1.180289
6 0 6 6799.06 6783.57 330.52 o 1.179763
-6 0 6 6799.07 6783.58 342.31 o 1.179763
-12 0 2 23275.78 21245.75 763.33 o 1.178316
12 0 2 23275.79 21245.77 773.88 o 1.178316
-3 5 3 1003.24 887.37 36.95 o 1.177237
3 5 3 1003.23 887.36 29.49 o 1.177237
6 5 1 1136.66 927.79 40.63 o 1.176878
-6 5 1 1136.67 927.79 42.91 o 1.176878
-10 1 4 40361.11 46585.18 1324.38 o 1.174243
10 1 4 40361.12 46585.19 1327.43 o 1.174243
0 4 5 876.63 879.57 71.11 o 1.169272
9 4 1 6511.44 6474.53 526.63 o 1.168215
-9 4 1 6511.40 6474.48 494.60 o 1.168215
8 3 4 22.18 21.85 1.50 o 1.167227
-8 3 4 22.18 21.84 1.50 o 1.167227
1 4 5 2832.68 2037.86 364.14 o 1.165633
-1 4 5 2832.68 2037.86 366.51 o 1.165633
-6 1 6 5113.79 5453.15 237.10 o 1.162358
6 1 6 5113.76 5453.13 248.92 o 1.162358
-12 1 2 14502.63 14648.41 496.86 o 1.160974
12 1 2 14502.62 14648.40 501.33 o 1.160974
-6 3 5 13472.55 11976.22 515.48 o 1.159070
6 3 5 13472.53 11976.21 525.89 o 1.159070
-12 2 0 1605.02 1472.54 79.30 o 1.158246
12 2 0 1605.03 1472.54 86.56 o 1.158246
11 3 0 251.97 161.00 20.77 o 1.155784
-11 3 0 251.96 161.00 22.87 o 1.155784
0 3 6 233.68 145.22 19.92 o 1.155551
2 4 5 6459.20 4005.31 508.54 o 1.154915
-2 4 5 6459.21 4005.32 530.11 o 1.154915
1 3 6 1179.81 606.61 162.60 o 1.152038
-1 3 6 1179.81 606.60 174.25 o 1.152038
4 5 3 1053.28 541.56 152.37 o 1.151955
-4 5 3 1053.29 541.56 143.68 o 1.151955
-5 2 6 255.77 143.88 36.74 o 1.150973
5 2 6 255.77 143.88 27.95 o 1.150973
-6 4 4 6572.71 5466.08 393.42 o 1.148856
6 4 4 6572.73 5466.09 354.75 o 1.148856
-12 2 1 24234.86 24369.04 747.35 o 1.146476
12 2 1 24234.80 24368.98 720.31 o 1.146476
-11 3 1 13705.58 13468.74 533.20 o 1.144089
11 3 1 13705.55 13468.71 539.37 o 1.144089
-8 2 5 899.74 882.44 30.35 o 1.144035
8 2 5 899.74 882.43 41.01 o 1.144035
7 5 0 3765.23 3028.69 175.17 o 1.142515
-7 5 0 3765.25 3028.70 178.90 o 1.142515
2 3 6 2793.04 1984.74 158.02 o 1.141688
-2 3 6 2793.04 1984.74 152.75 o 1.141688
-6 5 2 4522.53 3219.96 296.22 o 1.140977
6 5 2 4522.53 3219.95 277.57 o 1.140977
-3 4 5 12276.51 10219.28 652.79 o 1.137692
3 4 5 12276.50 10219.26 675.24 o 1.137692
0 1 7 11623.91 11373.38 594.51 o 1.135589
-9 1 5 5801.96 5830.30 216.88 o 1.134621
9 1 5 5801.98 5830.32 207.70 o 1.134621
-7 0 6 24898.92 24765.84 850.69 o 1.133775
7 0 6 24898.88 24765.79 861.03 o 1.133775
8 4 3 9992.72 9826.16 323.03 o 1.133695
-8 4 3 9992.71 9826.16 321.03 o 1.133695
11 2 3 3645.43 3605.43 125.10 o 1.133254
-11 2 3 3645.43 3605.43 114.80 o 1.133254
9 4 2 929.65 917.97 30.66 o 1.133079
-9 4 2 929.65 917.96 30.19 o 1.133079
1 1 7 128.72 126.20 4.66 o 1.132254
-1 1 7 128.72 126.20 5.57 o 1.132254
0 6 0 53136.93 50229.32 2341.31 o 1.131991
7 5 1 1342.31 1249.81 65.79 o 1.131214
-7 5 1 1342.31 1249.82 65.11 o 1.131214
0 5 4 51463.88 44367.36 1906.41 o 1.126463
3 3 6 1020.66 994.13 41.52 o 1.125042
-3 3 6 1020.66 994.13 45.65 o 1.125042
-10 2 4 169.05 169.86 9.26 o 1.124891
10 2 4 169.05 169.86 7.50 o 1.124891
-10 3 3 5335.22 5443.78 274.41 o 1.124389
10 3 3 5335.25 5443.81 288.52 o 1.124389
1 5 4 4916.70 4288.16 154.58 o 1.123208
-1 5 4 4916.69 4288.14 160.13 o 1.123208
2 1 7 2377.68 1887.13 67.78 o 1.122424
-2 1 7 2377.69 1887.13 67.70 o 1.122424
13 1 0 20684.68 15824.45 552.00 o 1.121727
-13 1 0 20684.67 15824.44 552.26 o 1.121727
-5 5 3 4327.88 3338.33 116.70 o 1.121722
5 5 3 4327.85 3338.30 114.21 o 1.121722
0 6 1 7395.63 5547.21 211.17 o 1.120996
2 6 0 400.02 357.59 20.45 o 1.118949
-2 6 0 400.03 357.59 15.39 o 1.118949
-7 1 6 8313.71 7556.03 353.68 o 1.118301
7 1 6 8313.70 7556.03 326.66 o 1.118301
11 0 4 6540.31 5953.25 281.23 o 1.118294
-11 0 4 6540.33 5953.27 257.45 o 1.118294
1 6 1 7623.97 7054.39 323.85 o 1.117788
-1 6 1 7623.95 7054.38 307.61 o 1.117788
7 3 5 10699.73 9823.42 326.97 o 1.115372
-7 3 5 10699.74 9823.43 327.81 o 1.115372
-10 4 0 36545.15 33804.84 1130.11 o 1.115058
10 4 0 36545.19 33804.86 1128.65 o 1.115058
-4 4 5 6724.48 6209.95 205.98 o 1.114824
4 4 5 6724.47 6209.94 195.51 o 1.114824
-6 2 6 1007.50 944.73 35.49 o 1.114429
6 2 6 1007.50 944.73 26.93 o 1.114429
2 5 4 139.23 129.99 6.42 o 1.113609
-2 5 4 139.23 129.99 3.34 o 1.113609
12 2 2 5631.56 5288.23 252.83 o 1.113210
-12 2 2 5631.56 5288.23 255.87 o 1.113210
-13 1 1 4503.24 4220.91 230.04 o 1.111026
13 1 1 4503.25 4220.91 269.01 o 1.111026
11 3 2 26.98 25.18 1.30 o 1.111024
-11 3 2 26.98 25.19 2.24 o 1.111024
9 3 4 42.00 36.43 2.64 o 1.109911
-9 3 4 42.01 36.44 2.63 o 1.109911
-2 6 1 7044.52 5272.30 540.64 o 1.108326
2 6 1 7044.53 5272.30 517.57 o 1.108326
3 1 7 568.17 526.92 42.83 o 1.106594
-3 1 7 568.17 526.92 40.42 o 1.106594
7 4 4 3289.69 3122.40 174.71 o 1.106262
-7 4 4 3289.67 3122.38 166.33 o 1.106262
-12 1 3 6965.74 6587.80 330.32 o 1.105102
12 1 3 6965.71 6587.77 319.50 o 1.105102
-10 4 1 2495.69 2453.09 108.70 o 1.104545
10 4 1 2495.68 2453.09 105.17 o 1.104545
-11 1 4 8045.84 7681.55 422.02 o 1.103437
11 1 4 8045.86 7681.57 426.17 o 1.103437
-4 3 6 291.22 271.33 14.18 o 1.102914
4 3 6 291.22 271.33 17.07 o 1.102914
-7 5 2 31733.93 31279.17 1146.17 o 1.099222
7 5 2 31733.88 31279.12 1155.37 o 1.099222
-3 5 4 2796.19 2840.86 103.72 o 1.098144
3 5 4 2796.19 2840.85 112.82 o 1.098144
13 0 2 9817.47 8737.88 559.95 o 1.094616
-13 0 2 9817.48 8737.89 569.87 o 1.094616
-3 6 1 657.01 526.29 74.82 o 1.093078
3 6 1 657.01 526.29 79.71 o 1.093078
0 2 7 2874.39 2198.26 450.95 o 1.090771
9 2 5 878.61 681.82 88.19 o 1.089913
-9 2 5 878.61 681.82 104.76 o 1.089913
0 6 2 688.09 537.51 76.10 o 1.089840
1 2 7 17545.10 15836.50 623.11 o 1.087815
-1 2 7 17545.12 15836.52 616.51 o 1.087815
-6 5 3 1420.71 1285.73 47.25 o 1.087814
6 5 3 1420.72 1285.74 52.07 o 1.087814
-5 4 5 1368.52 1241.63 45.63 o 1.087353
5 4 5 1368.53 1241.64 45.37 o 1.087353
1 6 2 5743.53 5257.36 194.64 o 1.086891
-1 6 2 5743.52 5257.35 193.95 o 1.086891
8 0 6 16640.19 15245.89 614.48 o 1.086857
-8 0 6 16640.18 15245.89 610.46 o 1.086857
-4 1 7 13499.52 13143.26 622.29 o 1.085517
4 1 7 13499.54 13143.28 624.30 o 1.085517
8 5 1 1218.69 1189.09 66.08 o 1.084600
-8 5 1 1218.68 1189.08 71.10 o 1.084600
4 6 0 29902.28 30622.86 1474.47 o 1.082373
-4 6 0 29902.31 30622.89 1494.52 o 1.082373
-9 4 3 1536.62 1648.02 63.11 o 1.080962
9 4 3 1536.61 1648.02 56.97 o 1.080962
-13 1 2 9568.15 10255.02 409.03 o 1.080671
13 1 2 9568.18 10255.04 406.04 o 1.080671
2 2 7 2078.15 2111.38 80.73 o 1.079089
-2 2 7 2078.15 2111.38 82.12 o 1.079089
2 6 2 22378.24 23797.76 820.93 o 1.078187
-2 6 2 22378.23 23797.75 824.81 o 1.078187
-4 5 4 17463.77 18552.05 632.34 o 1.077537
4 5 4 17463.78 18552.06 614.75 o 1.077537
-5 3 6 44.91 49.07 1.71 o 1.076293
5 3 6 44.91 49.08 2.04 o 1.076293
-10 1 5 3609.38 3794.15 190.71 o 1.076020
10 1 5 3609.39 3794.16 184.53 o 1.076020
-7 2 6 5006.49 4926.54 228.03 o 1.075424
7 2 6 5006.48 4926.53 246.66 o 1.075424
-10 4 2 6214.48 6142.16 279.00 o 1.074704
10 4 2 6214.47 6142.15 265.92 o 1.074704
8 1 6 18724.37 19557.41 732.86 o 1.073203
-8 1 6 18724.37 19557.40 720.09 o 1.073203
-4 6 1 494.00 514.55 19.90 o 1.072749
4 6 1 494.01 514.55 17.18 o 1.072749
12 3 1 6302.73 6559.80 233.04 o 1.072614
-12 3 1 6302.72 6559.80 252.89 o 1.072614
8 3 5 13155.93 14368.66 687.58 o 1.070614
-8 3 5 13155.90 14368.63 690.09 o 1.070614
-13 2 1 6810.75 7386.67 368.43 o 1.068949
13 2 1 6810.76 7386.68 378.64 o 1.068949
3 2 7 7821.36 9334.59 510.99 o 1.065000
-3 2 7 7821.36 9334.60 513.05 o 1.065000
-3 6 2 9571.73 11637.55 605.69 o 1.064133
3 6 2 9571.74 11637.56 615.25 o 1.064133
12 2 3 338.21 413.82 17.52 o 1.063670
-12 2 3 338.21 413.82 29.26 o 1.063670
-8 4 4 1484.20 1856.97 105.69 o 1.062549
8 4 4 1484.19 1856.96 97.72 o 1.062549
-11 2 4 475.93 588.42 40.83 o 1.062185
11 2 4 475.93 588.43 32.53 o 1.062185
-11 3 3 7229.32 8935.01 537.74 o 1.061763
11 3 3 7229.34 8935.03 571.49 o 1.061763
-5 1 7 1287.52 1735.47 257.09 o 1.060108
5 1 7 1287.50 1735.45 265.22 o 1.060108
-6 4 5 7102.05 6871.77 224.95 o 1.056384
6 4 5 7102.11 6871.83 227.63 o 1.056384
-8 5 2 19212.40 18549.16 616.53 o 1.056306
8 5 2 19212.45 18549.20 611.49 o 1.056306
-14 0 0 20812.07 19988.84 698.00 o 1.056106
14 0 0 20812.07 19988.85 632.43 o 1.056106
-10 3 4 2579.70 2445.55 104.57 o 1.054875
10 3 4 2579.71 2445.56 100.88 o 1.054875
0 4 6 1661.28 1929.48 180.02 o 1.053718
-5 5 4 1157.75 1177.11 105.83 o 1.052672
5 5 4 1157.74 1177.09 126.60 o 1.052672
-7 5 3 553.75 555.83 40.45 o 1.051448
7 5 3 553.74 555.82 50.36 o 1.051448
-12 0 4 7871.65 7809.22 684.98 o 1.051271
12 0 4 7871.69 7809.26 603.93 o 1.051271
1 4 6 1989.15 1982.52 163.22 o 1.051053
-1 4 6 1989.15 1982.51 155.59 o 1.051053
5 6 1 431.55 353.68 42.20 o 1.048206
-5 6 1 431.54 353.67 29.33 o 1.048206
9 5 0 23994.05 21423.03 1302.23 o 1.046869
-9 5 0 23994.08 21423.06 1278.74 o 1.046869
-6 3 6 201.77 189.16 8.60 o 1.046233
6 3 6 201.78 189.16 11.12 o 1.046233
-4 2 7 652.03 614.94 34.04 o 1.046172
4 2 7 652.02 614.94 34.86 o 1.046172
4 6 2 2799.65 2837.90 164.11 o 1.045350
-4 6 2 2799.66 2837.92 182.82 o 1.045350
12 3 2 967.55 1026.45 66.24 o 1.045224
-12 3 2 967.56 1026.45 63.69 o 1.045224
11 4 1 4195.24 4499.55 289.53 o 1.045005
-11 4 1 4195.24 4499.55 304.68 o 1.045005
0 6 3 1829.64 1683.84 186.01 o 1.043228
2 4 6 3823.80 3607.93 373.25 o 1.043175
-2 4 6 3823.81 3607.94 378.22 o 1.043175
-13 2 2 1089.10 1036.54 147.40 o 1.041832
13 2 2 1089.11 1036.55 155.30 o 1.041832
1 6 3 494.31 545.51 53.24 o 1.040640
-1 6 3 494.31 545.51 48.27 o 1.040640
-9 0 6 4944.57 5634.73 504.43 o 1.040133
9 0 6 4944.57 5634.72 475.95 o 1.040133
-12 1 4 7914.10 8211.12 460.40 o 1.038900
12 1 4 7914.14 8211.16 491.45 o 1.038900
0 5 5 426.42 443.26 24.21 o 1.038896
9 5 1 369.41 374.62 24.39 o 1.038155
-9 5 1 369.41 374.62 19.19 o 1.038155
-10 2 5 2750.74 2657.87 183.35 o 1.037663
10 2 5 2750.72 2657.85 192.44 o 1.037663
-1 5 5 1042.06 1110.47 46.68 o 1.036341
1 5 5 1042.05 1110.46 40.18 o 1.036341
13 1 3 7714.22 7651.25 265.87 o 1.035177
-13 1 3 7714.28 7651.31 260.83 o 1.035177
8 2 6 2480.72 2460.28 81.34 o 1.035136
-8 2 6 2480.74 2460.29 86.45 o 1.035136
-14 1 1 8167.02 8086.71 289.74 o 1.034933
14 1 1 8167.05 8086.74 268.70 o 1.034933
2 6 3 803.88 731.54 75.74 o 1.032993
-2 6 3 803.88 731.54 74.55 o 1.032993
-6 1 7 3925.92 3840.51 202.02 o 1.031348
6 1 7 3925.90 3840.48 207.80 o 1.031348
-3 4 6 12859.26 12668.54 490.27 o 1.030431
3 4 6 12859.24 12668.53 495.40 o 1.030431
-10 4 3 12866.60 12521.98 479.67 o 1.029929
10 4 3 12866.60 12521.97 478.58 o 1.029929
2 5 5 998.17 963.35 36.00 o 1.028787
-2 5 5 998.17 963.34 35.47 o 1.028787
-6 6 0 12468.38 12017.89 497.40 o 1.028650
6 6 0 12468.36 12017.87 507.97 o 1.028650
-9 1 6 9442.14 8983.78 411.65 o 1.028147
9 1 6 9442.13 8983.78 424.65 o 1.028147
0 3 7 31102.67 32804.28 1393.73 o 1.026585
9 3 5 5266.20 5470.73 235.17 o 1.025869
-9 3 5 5266.17 5470.70 245.19 o 1.025869
-6 5 4 12561.65 12633.30 450.70 o 1.024497
6 5 4 12561.60 12633.26 440.29 o 1.024497
1 3 7 419.87 429.75 14.45 o 1.024119
-1 3 7 419.88 429.76 15.32 o 1.024119
-5 2 7 23480.63 24392.38 825.29 o 1.023370
5 2 7 23480.65 24392.40 825.58 o 1.023370
-7 4 5 10432.56 10850.96 366.41 o 1.022986
7 4 5 10432.59 10850.99 372.23 o 1.022986
5 6 2 1829.22 1898.07 70.41 o 1.022601
-5 6 2 1829.22 1898.07 66.64 o 1.022601
-14 0 2 2062.97 2239.64 108.21 o 1.021630
14 0 2 2062.99 2239.66 117.88 o 1.021630
11 1 5 10874.18 12086.54 564.81 o 1.020751
-11 1 5 10874.20 12086.56 570.50 o 1.020751
-3 6 3 2333.92 2606.63 113.25 o 1.020614
3 6 3 2333.93 2606.64 125.23 o 1.020614
-6 6 1 92.11 103.60 6.00 o 1.020379
6 6 1 92.11 103.60 4.55 o 1.020379
-11 4 2 1001.80 1144.03 70.18 o 1.019628
11 4 2 1001.82 1144.05 45.69 o 1.019628
9 4 4 6125.11 6518.03 482.46 o 1.018767
-9 4 4 6125.17 6518.08 478.48 o 1.018767
2 3 7 6967.44 6969.23 534.57 o 1.016828
-2 3 7 6967.45 6969.24 530.68 o 1.016828
-3 5 5 1926.91 1918.86 148.68 o 1.016557
3 5 5 1926.92 1918.88 150.65 o 1.016557
13 3 0 1822.66 1835.40 143.67 o 1.016309
-13 3 0 1822.69 1835.42 145.11 o 1.016309
-7 3 6 1456.05 1368.58 130.92 o 1.013759
7 3 6 1456.07 1368.60 126.63 o 1.013759
-8 5 3 105.20 98.07 9.73 o 1.013703
8 5 3 105.20 98.07 10.01 o 1.013703
-4 4 6 5218.09 4831.74 445.52 o 1.013348
4 4 6 5218.08 4831.72 462.94 o 1.013348
9 5 2 1822.76 1677.30 146.76 o 1.013261
-9 5 2 1822.75 1677.30 172.14 o 1.013261
-14 1 2 1171.09 1323.89 162.44 o 1.010265
14 1 2 1171.10 1323.91 181.29 o 1.010265
-14 2 0 4479.30 4629.70 191.97 o 1.008466
14 2 0 4479.26 4629.66 187.37 o 1.008466
-13 3 1 10403.20 10759.20 433.74 o 1.008330
13 3 1 10403.22 10759.23 434.59 o 1.008330
0 0 8 25301.39 25814.27 1099.72 o 1.007827
1 0 8 20345.82 21449.33 1293.36 o 1.005494
-1 0 8 20345.82 21449.34 1297.10 o 1.005494
3 3 7 1478.64 1630.87 73.32 o 1.005014
-3 3 7 1478.64 1630.87 70.92 o 1.005014
12 2 4 802.95 933.05 45.06 o 1.004253
-12 2 4 802.96 933.07 35.50 o 1.004253
-4 6 3 3546.53 4063.94 189.13 o 1.004007
4 6 3 3546.53 4063.93 168.62 o 1.004007
12 3 3 11370.27 13035.32 573.10 o 1.003896
-12 3 3 11370.23 13035.29 602.31 o 1.003896
-11 3 4 653.37 743.76 47.88 o 1.002647
11 3 4 653.36 743.75 49.22 o 1.002647
-13 2 3 3039.54 2948.66 181.22 o 1.000889
13 2 3 3039.56 2948.68 229.40 o 1.000889
-14 2 1 1722.22 1668.64 119.92 o 1.000668
14 2 1 1722.17 1668.59 110.41 o 1.000668
-7 1 7 1856.82 1827.61 133.75 o 1.000200
7 1 7 1856.82 1827.61 129.18 o 1.000200
-4 5 5 1485.53 1455.45 95.67 o 1.000144
4 5 5 1485.54 1455.46 98.37 o 1.000144
2 0 8 7413.34 7787.20 921.93 o 0.998590
-2 0 8 7413.33 7787.19 818.86 o 0.998590
-6 2 7 72.26 80.58 4.35 o 0.997427
6 2 7 72.26 80.58 5.16 o 0.997427
12 4 0 6369.85 7074.44 432.20 o 0.997238
-12 4 0 6369.84 7074.43 421.15 o 0.997238
0 1 8 2451.39 2693.40 161.39 o 0.996911
-6 6 2 8455.44 9323.28 556.67 o 0.996714
6 6 2 8455.44 9323.27 554.18 o 0.996714
1 1 8 7263.19 7573.78 417.76 o 0.994653
-1 1 8 7263.18 7573.76 415.27 o 0.994653
9 2 6 545.30 568.99 31.18 o 0.994530
-9 2 6 545.30 568.99 30.59 o 0.994530
-10 0 6 8095.27 8387.08 445.20 o 0.994431
10 0 6 8095.26 8387.07 474.26 o 0.994431
-7 5 4 4687.21 4825.30 243.33 o 0.993948
7 5 4 4687.25 4825.34 268.70 o 0.993948
-10 5 1 770.48 820.32 79.55 o 0.992702
10 5 1 770.47 820.31 73.57 o 0.992702
-5 4 6 1896.56 2076.44 185.33 o 0.992584
5 4 6 1896.59 2076.47 160.05 o 0.992584
13 0 4 18746.54 17847.45 682.78 o 0.990538
-13 0 4 18746.57 17847.47 696.81 o 0.990538
-7 6 1 942.91 897.84 29.88 o 0.990186
7 6 1 942.91 897.84 27.62 o 0.990186
12 4 1 9621.32 9388.92 284.29 o 0.989696
-12 4 1 9621.23 9388.83 273.05 o 0.989696
-4 3 7 40439.73 39373.34 1123.91 o 0.989145
4 3 7 40439.71 39373.33 1128.14 o 0.989145
8 4 5 5332.61 5338.05 156.02 o 0.988124
-8 4 5 5332.64 5338.07 160.43 o 0.988124
2 1 8 9574.59 9731.00 316.04 o 0.987969
-2 1 8 9574.58 9731.00 316.27 o 0.987969
11 2 5 10505.88 10670.19 344.85 o 0.987832
-11 2 5 10505.90 10670.21 357.30 o 0.987832
3 0 8 5863.40 5994.09 207.87 o 0.987394
-3 0 8 5863.41 5994.10 252.58 o 0.987394
0 6 4 2357.68 2407.42 90.41 o 0.986995
13 3 2 2014.51 1655.41 91.83 o 0.985475
-13 3 2 2014.53 1655.42 86.39 o 0.985475
1 6 4 17950.21 15780.12 681.97 o 0.984803
-1 6 4 17950.26 15780.17 670.69 o 0.984803
-10 1 6 5018.71 4716.08 226.57 o 0.983941
10 1 6 5018.71 4716.07 225.64 o 0.983941
5 6 3 6214.66 5727.30 272.00 o 0.983801
-5 6 3 6214.66 5727.31 264.96 o 0.983801
-10 3 5 4082.20 4421.98 347.86 o 0.981944
10 3 5 4082.20 4421.98 373.57 o 0.981944
11 4 3 3345.40 3792.35 280.67 o 0.981153
-11 4 3 3345.41 3792.36 290.83 o 0.981153
13 1 4 945.05 1033.92 97.45 o 0.980169
-13 1 4 945.04 1033.91 115.86 o 0.980169
-5 5 5 1025.67 1110.42 91.34 o 0.980166
5 5 5 1025.67 1110.41 98.90 o 0.980166
-8 3 6 1625.82 1568.59 170.12 o 0.979802
8 3 6 1625.82 1568.59 166.73 o 0.979802
14 2 2 516.44 439.24 48.98 o 0.978319
-14 2 2 516.45 439.24 55.33 o 0.978319
2 6 4 3796.50 3364.71 347.99 o 0.978314
-2 6 4 3796.51 3364.71 335.47 o 0.978314
3 1 8 3571.86 3690.42 324.97 o 0.977122
-3 1 8 3571.86 3690.41 338.21 o 0.977122
-10 4 4 521.42 574.88 20.12 o 0.975710
10 4 4 521.43 574.89 19.57 o 0.975710
15 1 0 24237.13 26664.93 943.05 o 0.975480
-15 1 0 24237.14 26664.93 930.07 o 0.975480
9 5 3 311.78 343.69 11.24 o 0.975477
-9 5 3 311.76 343.68 13.06 o 0.975477
-14 1 3 206.00 208.00 27.10 o 0.972802
14 1 3 206.00 208.00 29.10 o 0.972802
-4 0 8 6256.19 6616.51 789.96 o 0.972333
4 0 8 6256.20 6616.52 823.58 o 0.972333
10 5 2 5895.33 4779.36 413.58 o 0.970870
-10 5 2 5895.31 4779.35 392.53 o 0.970870
-5 3 7 1330.77 1251.46 50.21 o 0.969806
5 3 7 1330.78 1251.47 49.61 o 0.969806
-7 2 7 0.90 0.86 0.08 o 0.969170
7 2 7 0.90 0.86 0.07 o 0.969170
-12 1 5 7926.76 7528.68 235.11 o 0.969019
12 1 5 7926.77 7528.69 233.38 o 0.969019
-6 4 6 1564.82 1502.96 50.04 o 0.968860
6 4 6 1564.82 1502.95 38.36 o 0.968860
-7 6 2 12475.90 12013.92 344.06 o 0.968516
7 6 2 12475.89 12013.92 346.13 o 0.968516
15 1 1 6364.99 6128.07 180.87 o 0.968418
-15 1 1 6365.03 6128.11 176.16 o 0.968418
1 7 0 13610.98 13058.71 379.87 o 0.968195
-1 7 0 13610.99 13058.72 384.67 o 0.968195
12 4 2 12469.19 11998.86 350.10 o 0.968058
-12 4 2 12469.16 11998.83 341.81 o 0.968058
-3 6 4 6731.24 6459.13 189.50 o 0.967779
3 6 4 6731.27 6459.16 184.45 o 0.967779
8 1 7 3270.77 3149.61 102.87 o 0.967544
-8 1 7 3270.75 3149.59 101.97 o 0.967544
0 2 8 4104.03 3626.31 263.36 o 0.966177
8 6 0 14561.12 12284.36 1014.54 o 0.965315
-8 6 0 14561.13 12284.38 1032.54 o 0.965315
1 2 8 1684.60 1601.54 145.02 o 0.964121
-1 2 8 1684.61 1601.55 159.73 o 0.964121
0 7 1 4748.94 4435.49 377.03 o 0.963327
-4 1 8 6708.61 5894.35 382.96 o 0.962520
4 1 8 6708.61 5894.36 397.75 o 0.962520
-8 5 4 6935.62 5947.40 356.05 o 0.961881
8 5 4 6935.60 5947.37 338.02 o 0.961881
1 7 1 4589.75 3911.72 267.04 o 0.961289
-1 7 1 4589.73 3911.71 285.35 o 0.961289
-6 6 3 2335.29 2032.17 162.30 o 0.960686
6 6 3 2335.30 2032.18 163.82 o 0.960686
-8 6 1 2783.65 2584.09 180.59 o 0.958470
8 6 1 2783.65 2584.09 194.64 o 0.958470
2 2 8 203.74 175.80 12.48 o 0.958030
-2 2 8 203.74 175.80 11.80 o 0.958030
-15 0 2 7461.50 6470.02 436.87 o 0.957492
15 0 2 7461.53 6470.04 424.58 o 0.957492
-6 5 5 2942.59 2532.86 164.11 o 0.957300
6 5 5 2942.60 2532.87 161.91 o 0.957300
11 5 0 5352.19 4527.76 460.14 o 0.955447
-11 5 0 5352.19 4527.76 461.61 o 0.955447
0 5 6 1341.90 1055.85 92.45 o 0.955315
2 7 1 1498.21 1278.95 125.47 o 0.955251
-2 7 1 1498.22 1278.95 134.14 o 0.955251
-10 2 6 1546.62 1244.72 90.93 o 0.954356
10 2 6 1546.61 1244.71 90.27 o 0.954356
-5 0 8 3863.74 3264.02 229.39 o 0.953945
5 0 8 3863.73 3264.02 219.86 o 0.953945
-4 6 4 2012.61 1745.19 106.03 o 0.953586
4 6 4 2012.61 1745.18 100.63 o 0.953586
12 3 4 1060.70 917.06 60.35 o 0.953490
-12 3 4 1060.70 917.05 55.73 o 0.953490
1 5 6 8500.80 7345.90 403.11 o 0.953327
-1 5 6 8500.80 7345.90 419.92 o 0.953327
0 4 7 25.96 22.10 1.28 o 0.953193
9 4 5 315.28 269.98 13.19 o 0.952621
-9 4 5 315.29 269.98 13.73 o 0.952621
-3 7 0 5395.21 4962.72 221.62 o 0.952004
3 7 0 5395.22 4962.73 226.09 o 0.952004
-1 4 7 15415.88 15106.27 416.37 o 0.951219
1 4 7 15415.87 15106.26 411.81 o 0.951219
13 2 4 1478.75 1458.17 40.73 o 0.950913
-13 2 4 1478.74 1458.15 41.03 o 0.950913
-13 3 3 18911.59 18724.68 507.91 o 0.950610
13 3 3 18911.56 18724.66 516.90 o 0.950610
14 3 1 18503.27 18420.17 515.54 o 0.950420
-14 3 1 18503.27 18420.17 497.98 o 0.950420
11 0 6 12639.58 12570.06 347.42 o 0.950318
-11 0 6 12639.55 12570.03 348.89 o 0.950318
-11 5 1 505.13 431.51 15.90 o 0.948808
11 5 1 505.14 431.51 14.53 o 0.948808
3 2 8 1865.21 1675.36 54.35 o 0.948130
-3 2 8 1865.22 1675.36 50.34 o 0.948130
15 1 2 7566.54 6708.01 216.34 o 0.948117
-15 1 2 7566.55 6708.01 217.75 o 0.948117
-6 3 7 17439.79 15741.55 480.73 o 0.947642
6 3 7 17439.79 15741.55 484.38 o 0.947642
2 5 6 23385.83 21061.64 644.62 o 0.947437
-2 5 6 23385.84 21061.66 646.65 o 0.947437
-3 7 1 11104.96 10598.27 367.80 o 0.945436
3 7 1 11104.93 10598.25 386.92 o 0.945436
2 4 7 63.52 63.01 1.70 o 0.945368
-2 4 7 63.52 63.01 2.14 o 0.945368
9 3 6 381.28 381.56 13.26 o 0.945157
-9 3 6 381.28 381.56 10.12 o 0.945157
-5 1 8 13284.07 13363.04 386.03 o 0.944673
5 1 8 13284.12 13363.09 380.23 o 0.944673
-14 2 3 30416.92 30756.17 875.06 o 0.944182
14 2 3 30416.93 30756.19 866.85 o 0.944182
0 7 2 986.75 1004.24 31.21 o 0.943339
7 4 6 12939.00 12740.19 440.69 o 0.942900
-7 4 6 12939.00 12740.20 416.24 o 0.942900
1 7 2 4833.41 4831.84 209.39 o 0.941424
-1 7 2 4833.41 4831.84 205.45 o 0.941424
11 1 6 2970.19 2975.65 122.76 o 0.941150
-11 1 6 2970.18 2975.65 122.33 o 0.941150
12 2 5 9842.06 9804.92 362.98 o 0.940722
-12 2 5 9842.00 9804.87 363.20 o 0.940722
15 2 1 4382.95 4485.69 154.15 o 0.940172
-15 2 1 4382.94 4485.69 158.46 o 0.940172
11 3 5 13767.52 14029.35 462.68 o 0.939402
-11 3 5 13767.57 14029.41 465.18 o 0.939402
8 2 7 1186.21 1208.15 42.41 o 0.939372
-8 2 7 1186.23 1208.16 39.80 o 0.939372
-8 6 2 13315.81 13550.77 458.42 o 0.938776
8 6 2 13315.83 13550.78 451.43 o 0.938776
-13 4 1 4659.83 4897.19 167.16 o 0.938527
13 4 1 4659.84 4897.20 167.82 o 0.938527
-3 5 6 8286.87 8168.96 290.52 o 0.937859
3 5 6 8286.88 8168.97 302.31 o 0.937859
-10 5 3 846.07 801.94 34.39 o 0.937481
10 5 3 846.06 801.93 32.07 o 0.937481
5 6 4 25288.77 23734.68 843.73 o 0.936222
-5 6 4 25288.85 23734.76 841.09 o 0.936222
-3 4 7 4970.58 4658.77 162.88 o 0.935851
3 4 7 4970.60 4658.80 164.53 o 0.935851
2 7 2 6779.66 6427.01 231.41 o 0.935751
-2 7 2 6779.65 6427.00 227.68 o 0.935751
-14 0 4 2539.78 2559.21 98.76 o 0.935477
14 0 4 2539.77 2559.19 97.04 o 0.935477
-7 6 3 2623.89 2504.78 92.36 o 0.935361
7 6 3 2623.89 2504.78 95.58 o 0.935361
12 4 3 1750.41 1720.64 67.65 o 0.934948
-12 4 3 1750.41 1720.65 75.76 o 0.934948
-4 2 8 2034.54 2002.46 98.54 o 0.934772
4 2 8 2034.55 2002.47 93.63 o 0.934772
-9 1 7 459.77 386.09 35.14 o 0.934139
9 1 7 459.77 386.09 34.49 o 0.934139
11 4 4 2101.34 1679.69 135.22 o 0.933939
-11 4 4 2101.33 1679.68 134.72 o 0.933939
-6 0 8 6533.27 4740.26 384.00 o 0.932827
6 0 8 6533.28 4740.26 413.60 o 0.932827
-7 5 5 2022.71 1572.78 113.08 o 0.932235
7 5 5 2022.70 1572.77 119.34 o 0.932235
-4 7 1 8087.23 6343.53 497.94 o 0.932190
4 7 1 8087.26 6343.55 465.07 o 0.932190
14 3 2 179.31 179.92 17.35 o 0.931209
-14 3 2 179.31 179.92 16.39 o 0.931209
-11 5 2 11141.14 10215.01 670.30 o 0.929692
11 5 2 11141.12 10214.99 654.29 o 0.929692
9 5 4 2175.42 2013.17 142.58 o 0.929040
-9 5 4 2175.39 2013.14 125.31 o 0.929040
-14 1 4 11248.93 10828.12 529.91 o 0.926728
14 1 4 11248.93 10828.11 502.12 o 0.926728
-3 7 2 2114.04 2010.44 96.99 o 0.926519
3 7 2 2114.03 2010.44 94.90 o 0.926519
0 6 5 22.92 21.64 0.98 o 0.926491
9 6 1 2151.17 2003.69 99.75 o 0.925966
-9 6 1 2151.20 2003.72 100.85 o 0.925966
-4 5 6 4202.90 3712.80 216.19 o 0.924924
4 5 6 4202.92 3712.81 200.49 o 0.924924
1 6 5 338.05 292.72 15.37 o 0.924678
-1 6 5 338.05 292.71 17.72 o 0.924678
-6 1 8 10423.55 9502.79 574.35 o 0.924152
6 1 8 10423.57 9502.81 581.83 o 0.924152
-16 0 0 2536.85 2357.66 141.47 o 0.924093
16 0 0 2536.85 2357.66 145.03 o 0.924093
-7 3 7 1555.99 1414.81 97.92 o 0.923309
7 3 7 1555.98 1414.80 94.75 o 0.923309
-4 4 7 55.20 48.84 3.83 o 0.922998
4 4 7 55.20 48.84 3.17 o 0.922998
5 7 0 7898.32 5906.82 852.76 o 0.921918
-5 7 0 7898.33 5906.83 868.36 o 0.921918
15 2 2 590.52 454.08 62.89 o 0.921563
-15 2 2 590.52 454.08 67.11 o 0.921563
13 1 5 205.44 207.58 24.63 o 0.920839
-13 1 5 205.43 207.57 16.14 o 0.920839
0 3 8 127.21 124.64 10.42 o 0.920720
-13 4 2 6394.12 6426.99 566.81 o 0.920014
13 4 2 6394.12 6426.98 580.65 o 0.920014
2 6 5 152.03 153.58 14.09 o 0.919300
-2 6 5 152.02 153.57 18.22 o 0.919300
1 3 8 52.46 51.09 5.28 o 0.918940
-1 3 8 52.46 51.09 6.28 o 0.918940
-5 2 8 121.83 72.04 21.23 o 0.918399
5 2 8 121.83 72.04 25.69 o 0.918399
-10 4 5 1756.19 1585.25 116.97 o 0.917139
10 4 5 1756.19 1585.25 108.82 o 0.917139
15 1 3 2810.18 2539.12 187.34 o 0.916947
-15 1 3 2810.19 2539.14 191.68 o 0.916947
-6 6 4 3116.27 2893.37 142.73 o 0.916235
6 6 4 3116.29 2893.39 157.58 o 0.916235
5 7 1 4746.68 4352.08 238.99 o 0.915950
-5 7 1 4746.68 4352.09 240.91 o 0.915950
8 4 6 7810.67 7164.42 400.81 o 0.915393
-8 4 6 7810.66 7164.42 397.54 o 0.915393
11 2 6 3351.35 3017.07 180.25 o 0.915160
-11 2 6 3351.37 3017.08 179.62 o 0.915160
-4 7 2 2534.85 1875.36 241.52 o 0.914042
4 7 2 2534.85 1875.36 230.74 o 0.914042
2 3 8 132.33 93.54 16.16 o 0.913661
-2 3 8 132.32 93.54 12.29 o 0.913661
0 7 3 4628.40 3374.34 666.67 o 0.912623
1 7 3 11131.13 10011.14 551.56 o 0.910889
-1 7 3 11131.17 10011.18 533.29 o 0.910889
-3 6 5 1904.08 1746.96 72.07 o 0.910542
3 6 5 1904.06 1746.95 78.07 o 0.910542
-10 3 6 81.50 76.16 3.50 o 0.910473
10 3 6 81.50 76.16 3.71 o 0.910473
16 1 1 3005.84 2756.31 113.62 o 0.909808
-16 1 1 3005.84 2756.31 106.34 o 0.909808
-7 0 8 8473.29 7621.52 293.16 o 0.909590
7 0 8 8473.31 7621.54 282.58 o 0.909590
5 5 6 6765.97 6482.16 198.61 o 0.909055
-5 5 6 6765.96 6482.16 193.31 o 0.909055
9 2 7 31741.44 30432.38 965.69 o 0.908711
-9 2 7 31741.45 30432.38 962.03 o 0.908711
-8 6 3 1874.93 1793.99 57.14 o 0.908490
8 6 3 1874.92 1793.99 55.01 o 0.908490
9 6 2 846.94 821.28 26.31 o 0.908172
-9 6 2 846.94 821.28 25.13 o 0.908172
-12 0 6 4477.47 4438.66 150.43 o 0.908152
12 0 6 4477.44 4438.63 151.60 o 0.908152
-13 3 4 71.60 76.73 3.63 o 0.907482
13 3 4 71.59 76.73 2.20 o 0.907482
-5 4 7 21763.29 23139.34 852.24 o 0.907226
5 4 7 21763.27 23139.30 849.52 o 0.907226
12 5 1 745.12 759.09 30.82 o 0.906834
-12 5 1 745.12 759.09 35.40 o 0.906834
2 7 3 6306.58 6242.05 425.95 o 0.905747
-2 7 3 6306.56 6242.03 455.20 o 0.905747
-8 5 5 157.24 154.41 12.55 o 0.905625
8 5 5 157.24 154.41 9.22 o 0.905625
3 3 8 560.55 513.98 48.22 o 0.905062
-3 3 8 560.55 513.98 52.05 o 0.905062
15 3 0 3021.35 3116.34 501.91 o 0.903757
-15 3 0 3021.34 3116.33 475.26 o 0.903757
14 2 4 48.05 40.68 4.71 o 0.901885
-14 2 4 48.05 40.68 2.10 o 0.901885
14 3 3 647.77 600.44 33.20 o 0.901626
-14 3 3 647.75 600.42 32.40 o 0.901626
-7 1 8 3170.56 2911.50 174.69 o 0.901542
7 1 8 3170.56 2911.50 164.45 o 0.901542
-16 0 2 8685.33 8941.56 366.04 o 0.900731
16 0 2 8685.33 8941.56 342.02 o 0.900731
10 1 7 2803.01 2879.05 110.74 o 0.900612
-10 1 7 2802.97 2879.00 112.05 o 0.900612
-11 5 3 855.22 882.64 34.17 o 0.900249
11 5 3 855.22 882.65 28.78 o 0.900249
-12 1 6 10007.37 10450.32 390.94 o 0.900141
12 1 6 10007.37 10450.32 386.29 o 0.900141
-6 2 8 1168.97 1232.31 42.42 o 0.899509
6 2 8 1168.96 1232.30 35.63 o 0.899509
-10 6 0 29496.60 31823.11 888.84 o 0.898814
10 6 0 29496.59 31823.09 910.58 o 0.898814
5 7 2 3.99 4.29 0.38 o 0.898717
-5 7 2 3.99 4.29 0.13 o 0.898717
-4 6 5 2582.51 2732.46 78.45 o 0.898691
4 6 5 2582.51 2732.46 75.31 o 0.898691
12 3 5 17889.21 19092.58 536.37 o 0.898612
-12 3 5 17889.23 19092.61 532.57 o 0.898612
15 3 1 10797.37 11328.05 315.81 o 0.898132
-15 3 1 10797.35 11328.03 303.44 o 0.898132
8 3 7 18242.65 18632.55 505.64 o 0.897435
-8 3 7 18242.74 18632.64 505.47 o 0.897435
-3 7 3 4995.64 5055.50 134.38 o 0.897367
3 7 3 4995.64 5055.50 143.09 o 0.897367
-6 7 1 6477.06 6422.63 179.63 o 0.897208
6 7 1 6477.07 6422.65 184.72 o 0.897208
-14 4 0 6194.62 6064.99 178.85 o 0.896793
14 4 0 6194.65 6065.03 156.83 o 0.896793
-13 2 5 8369.58 8327.75 236.26 o 0.896453
13 2 5 8369.55 8327.72 242.15 o 0.896453
-10 5 4 35026.20 34990.46 1023.17 o 0.896039
10 5 4 35026.22 34990.48 1021.22 o 0.896039
-7 6 4 808.31 759.87 39.33 o 0.894188
7 6 4 808.32 759.88 36.99 o 0.894188
12 4 4 2134.64 1989.15 86.50 o 0.893827
-12 4 4 2134.61 1989.13 85.40 o 0.893827
-4 3 8 2293.49 2139.41 83.87 o 0.893421
4 3 8 2293.49 2139.41 88.89 o 0.893421
-10 6 1 2130.90 1993.63 76.78 o 0.893280
10 6 1 2130.90 1993.62 85.66 o 0.893280
-16 1 2 5070.87 4813.11 195.60 o 0.892913
16 1 2 5070.86 4813.10 189.63 o 0.892913
15 2 3 5370.74 5089.93 211.56 o 0.892862
-15 2 3 5370.75 5089.94 202.49 o 0.892862
16 2 0 371.83 374.49 23.35 o 0.891670
-16 2 0 371.83 374.49 23.33 o 0.891670
-13 4 3 2160.92 2145.73 125.20 o 0.891453
13 4 3 2160.91 2145.72 113.55 o 0.891453
14 4 1 891.13 891.04 50.50 o 0.891297
-14 4 1 891.13 891.04 46.79 o 0.891297
-6 5 6 5851.41 6311.01 277.08 o 0.890724
6 5 6 5851.41 6311.01 262.46 o 0.890724
12 5 2 14648.21 16080.75 720.07 o 0.890101
-12 5 2 14648.25 16080.79 728.17 o 0.890101
-6 4 7 110.74 134.01 8.71 o 0.889004
6 4 7 110.73 134.00 7.57 o 0.889004
0 1 9 14.58 16.47 3.16 o 0.888154
9 4 6 2660.96 2746.65 107.48 o 0.886951
-9 4 6 2660.95 2746.65 122.15 o 0.886951
1 1 9 644.35 657.54 24.03 o 0.886556
-1 1 9 644.35 657.54 27.79 o 0.886556
-16 2 1 8661.07 8891.07 321.24 o 0.886267
16 2 1 8661.06 8891.05 307.51 o 0.886267
-4 7 3 477.29 495.23 15.83 o 0.886017
4 7 3 477.29 495.24 16.64 o 0.886017
15 0 4 23066.94 24012.29 908.28 o 0.885490
-15 0 4 23066.99 24012.34 872.80 o 0.885490
8 0 8 4184.15 4516.81 211.39 o 0.884822
-8 0 8 4184.16 4516.82 213.69 o 0.884822
5 6 5 640.28 688.69 51.43 o 0.884113
-5 6 5 640.27 688.68 46.15 o 0.884113
11 4 5 4769.44 4625.29 278.53 o 0.882190
-11 4 5 4769.43 4625.27 270.69 o 0.882190
-15 3 2 1015.79 982.67 55.49 o 0.881868
15 3 2 1015.79 982.68 59.35 o 0.881868
2 1 9 6332.90 6104.56 355.10 o 0.881813
-2 1 9 6332.90 6104.55 350.51 o 0.881813
-7 7 0 3317.13 3209.90 195.42 o 0.881700
7 7 0 3317.13 3209.89 178.29 o 0.881700
-6 7 2 4260.68 4252.21 289.35 o 0.880993
6 7 2 4260.67 4252.20 280.94 o 0.880993
9 6 3 125.25 131.05 10.04 o 0.880667
-9 6 3 125.25 131.04 10.43 o 0.880667
-5 3 8 1755.22 1911.50 181.73 o 0.879094
5 3 8 1755.21 1911.49 175.57 o 0.879094
-7 2 8 2905.08 2951.11 218.48 o 0.878620
7 2 8 2905.07 2951.10 229.93 o 0.878620
0 5 7 616.14 595.61 37.95 o 0.878505
15 1 4 1112.27 1054.72 60.12 o 0.878059
-15 1 4 1112.26 1054.71 67.29 o 0.878059
9 5 5 789.50 771.31 44.96 o 0.878057
-9 5 5 789.51 771.32 37.94 o 0.878057
-10 2 7 1801.31 1751.00 93.63 o 0.877759
10 2 7 1801.30 1750.99 95.96 o 0.877759
8 1 8 5005.18 4679.26 236.04 o 0.877408
-8 1 8 5005.17 4679.25 230.82 o 0.877408
12 2 6 945.19 897.24 43.83 o 0.877324
-12 2 6 945.20 897.24 41.26 o 0.877324
-10 6 2 4300.79 4073.42 180.18 o 0.877273
10 6 2 4300.78 4073.41 185.18 o 0.877273
1 5 7 106.98 103.43 4.74 o 0.876959
-1 5 7 106.98 103.43 4.31 o 0.876959
-7 7 1 13473.10 13415.00 639.64 o 0.876475
7 7 1 13473.11 13415.01 626.93 o 0.876475
11 3 6 346.87 348.65 18.02 o 0.876252
-11 3 6 346.87 348.65 16.05 o 0.876252
-14 1 5 582.01 577.98 34.11 o 0.876105
14 1 5 582.01 577.98 28.80 o 0.876105
14 4 2 1930.68 2029.26 132.81 o 0.875394
-14 4 2 1930.69 2029.26 151.53 o 0.875394
0 7 4 9203.22 8427.78 641.12 o 0.874259
3 1 9 5399.95 4871.58 402.27 o 0.874074
-3 1 9 5399.94 4871.57 393.43 o 0.874074
1 7 4 864.89 823.66 45.42 o 0.872735
-1 7 4 864.89 823.66 48.88 o 0.872735
2 5 7 11.56 11.03 0.92 o 0.872367
-2 5 7 11.56 11.03 0.53 o 0.872367
-13 5 0 10579.71 10019.99 556.01 o 0.872040
13 5 0 10579.70 10019.98 564.91 o 0.872040
5 7 3 8971.25 8513.66 468.43 o 0.872037
-5 7 3 8971.23 8513.64 474.31 o 0.872037
16 2 2 2901.14 2798.36 171.48 o 0.870627
-16 2 2 2901.16 2798.38 173.85 o 0.870627
-8 6 4 2340.24 2294.88 130.18 o 0.870624
8 6 4 2340.25 2294.89 133.43 o 0.870624
9 3 7 495.83 480.89 30.62 o 0.870586
-9 3 7 495.83 480.89 29.01 o 0.870586
-7 5 6 4016.30 3904.59 241.57 o 0.870428
7 5 6 4016.33 3904.62 230.08 o 0.870428
-7 4 7 530.61 542.04 37.45 o 0.868822
7 4 7 530.62 542.05 44.42 o 0.868822
2 7 4 1424.82 1357.61 97.27 o 0.868209
-2 7 4 1424.83 1357.62 94.24 o 0.868209
13 0 6 10021.98 9742.39 751.83 o 0.868135
-13 0 6 10021.96 9742.37 739.49 o 0.868135
11 1 7 19.98 18.52 1.09 o 0.867452
-11 1 7 19.98 18.52 1.23 o 0.867452
-6 6 5 4129.60 3871.91 217.16 o 0.867223
6 6 5 4129.57 3871.88 220.26 o 0.867223
-13 5 1 282.28 256.75 14.00 o 0.866984
13 5 1 282.29 256.76 17.05 o 0.866984
16 1 3 1170.24 1008.78 69.58 o 0.866733
-16 1 3 1170.22 1008.77 65.30 o 0.866733
0 4 8 10119.85 8522.34 509.70 o 0.866664
0 2 9 599.92 518.65 30.92 o 0.866214
0 6 6 9324.27 7924.26 341.60 o 0.865747
1 4 8 7438.06 6554.97 261.06 o 0.865178
-1 4 8 7438.06 6554.97 276.14 o 0.865178
-3 5 7 368.22 329.96 13.40 o 0.864873
3 5 7 368.22 329.96 13.16 o 0.864873
1 2 9 13593.06 12442.16 505.43 o 0.864731
-1 2 9 13593.03 12442.15 506.29 o 0.864731
14 3 4 182.54 167.19 5.82 o 0.864578
-14 3 4 182.53 167.19 7.03 o 0.864578
1 6 6 6780.23 6303.03 228.80 o 0.864266
-1 6 6 6780.22 6303.02 226.23 o 0.864266
12 5 3 1197.32 1128.83 45.05 o 0.864160
-12 5 3 1197.32 1128.84 40.98 o 0.864160
-4 1 9 3926.48 3852.82 156.28 o 0.863575
4 1 9 3926.48 3852.82 161.09 o 0.863575
-11 5 4 7052.99 6724.84 243.55 o 0.863363
11 5 4 7052.97 6724.82 249.10 o 0.863363
-17 1 0 10431.03 9684.91 405.72 o 0.862690
17 1 0 10431.05 9684.92 405.51 o 0.862690
-6 3 8 1669.35 1529.05 61.03 o 0.862485
6 3 8 1669.36 1529.06 63.28 o 0.862485
-7 7 2 4243.08 3851.64 165.22 o 0.861340
7 7 2 4243.06 3851.62 170.22 o 0.861340
13 1 6 6620.30 6039.02 270.68 o 0.861129
-13 1 6 6620.34 6039.05 276.92 o 0.861129
-11 6 1 2105.05 1973.42 80.74 o 0.860895
11 6 1 2105.07 1973.44 84.24 o 0.860895
-3 7 4 2195.33 2064.13 86.97 o 0.860821
3 7 4 2195.33 2064.13 78.08 o 0.860821
2 4 8 956.07 904.86 41.51 o 0.860769
-2 4 8 956.07 904.86 31.52 o 0.860769
2 2 9 8778.73 8826.03 369.97 o 0.860328
-2 2 9 8778.72 8826.01 367.65 o 0.860328
2 6 6 4730.24 4687.90 199.65 o 0.859871
-2 6 6 4730.24 4687.89 199.11 o 0.859871
-13 3 5 1865.36 1862.74 88.05 o 0.859790
13 3 5 1865.38 1862.75 88.43 o 0.859790
-9 0 8 4653.41 4850.13 368.16 o 0.859058
9 0 8 4653.41 4850.13 372.25 o 0.859058
-10 4 6 1350.09 1284.31 51.82 o 0.858101
10 4 6 1350.12 1284.33 53.09 o 0.858101
17 1 1 6445.59 6154.74 264.97 o 0.857794
-17 1 1 6445.57 6154.71 252.63 o 0.857794
15 2 4 2450.06 2662.15 91.54 o 0.856841
-15 2 4 2450.05 2662.15 100.24 o 0.856841
15 3 3 11880.95 12851.98 473.10 o 0.856619
-15 3 3 11880.93 12851.96 467.51 o 0.856619
8 2 8 1833.75 1991.49 72.05 o 0.856236
-8 2 8 1833.75 1991.49 77.30 o 0.856236
-6 7 3 2231.45 2431.54 97.48 o 0.855818
6 7 3 2231.45 2431.55 91.76 o 0.855818
-13 4 4 3236.53 3543.07 158.43 o 0.855596
13 4 4 3236.51 3543.05 147.39 o 0.855596
14 2 5 3014.91 2981.60 177.22 o 0.855025
-14 2 5 3014.91 2981.60 193.52 o 0.855025
-4 5 7 928.88 893.18 50.18 o 0.854698
4 5 7 928.88 893.18 49.77 o 0.854698
-8 7 1 2496.47 2173.86 139.78 o 0.854250
8 7 1 2496.46 2173.86 144.96 o 0.854250
-3 4 8 1976.64 1773.82 74.87 o 0.853567
3 4 8 1976.65 1773.83 72.80 o 0.853567
3 2 9 7222.87 6831.04 248.14 o 0.853137
-3 2 9 7222.88 6831.05 259.40 o 0.853137
-3 6 6 11772.35 11878.27 404.98 o 0.852691
3 6 6 11772.36 11878.28 392.86 o 0.852691
-10 6 3 2198.22 2244.48 74.45 o 0.852407
10 6 3 2198.26 2244.51 74.02 o 0.852407
-13 5 2 9000.21 9273.12 318.84 o 0.852326
13 5 2 9000.22 9273.12 310.06 o 0.852326
-9 1 8 6279.13 6578.81 230.77 o 0.852268
9 1 8 6279.13 6578.81 226.82 o 0.852268
-16 3 1 7422.10 7322.47 212.77 o 0.850790
16 3 1 7422.06 7322.42 220.82 o 0.850790
-4 7 4 9405.87 9360.83 267.08 o 0.850786
4 7 4 9405.85 9360.81 276.21 o 0.850786
14 4 3 16431.48 16265.85 479.55 o 0.850683
-14 4 3 16431.43 16265.81 466.55 o 0.850683
-5 1 9 321.31 317.04 10.81 o 0.850616
5 1 9 321.31 317.04 8.12 o 0.850616
17 0 2 6845.40 7132.71 218.81 o 0.850174
-17 0 2 6845.37 7132.69 230.37 o 0.850174
-10 5 5 341.83 339.17 11.15 o 0.850039
10 5 5 341.83 339.17 9.06 o 0.850039
0 8 0 836.82 804.82 38.67 o 0.848993
-8 5 6 15131.67 14701.16 541.60 o 0.848648
8 5 6 15131.67 14701.17 550.83 o 0.848648
-7 6 5 2067.86 2018.78 75.57 o 0.848458
7 6 5 2067.87 2018.79 73.88 o 0.848458
12 4 5 6698.78 6573.77 236.12 o 0.848150
-12 4 5 6698.79 6573.78 244.67 o 0.848150
15 4 1 4611.36 4602.32 171.50 o 0.847746
-15 4 1 4611.35 4602.31 171.51 o 0.847746
8 4 7 45.66 41.09 1.39 o 0.847160
-8 4 7 45.67 41.09 1.50 o 0.847160
11 2 7 4140.13 3648.32 139.92 o 0.846976
-11 2 7 4140.11 3648.30 137.58 o 0.846976
-11 6 2 8825.90 7928.93 274.62 o 0.846539
11 6 2 8825.88 7928.91 281.67 o 0.846539
16 2 3 770.58 690.98 26.10 o 0.846306
-16 2 3 770.57 690.97 25.01 o 0.846306
9 6 4 21876.17 19708.36 704.86 o 0.846047
-9 6 4 21876.20 19708.37 700.15 o 0.846047
0 8 1 1590.86 1396.81 56.47 o 0.844325
-7 3 8 252.16 229.56 7.76 o 0.844019
7 3 8 252.17 229.56 6.56 o 0.844019
-4 4 8 2760.99 2597.84 75.89 o 0.843781
4 4 8 2760.99 2597.85 73.78 o 0.843781
-17 1 2 9736.87 9033.10 261.35 o 0.843590
17 1 2 9736.84 9033.07 272.11 o 0.843590
2 8 0 687.18 646.15 19.69 o 0.843449
-2 8 0 687.18 646.15 20.63 o 0.843449
-4 2 9 466.05 441.68 12.26 o 0.843366
4 2 9 466.06 441.68 13.33 o 0.843366
-10 3 7 18923.30 17978.34 520.85 o 0.843255
10 3 7 18923.27 17978.30 510.94 o 0.843255
1 8 1 6968.21 6898.41 203.95 o 0.842952
-1 8 1 6968.22 6898.42 210.22 o 0.842952
-4 6 6 6724.61 6428.62 182.62 o 0.842935
4 6 6 6724.61 6428.62 187.68 o 0.842935
12 3 6 231.74 226.98 6.78 o 0.842869
-12 3 6 231.74 226.98 6.98 o 0.842869
5 5 7 511.02 558.15 21.33 o 0.842128
-5 5 7 511.02 558.15 21.52 o 0.842128
-13 2 6 797.53 624.56 100.34 o 0.841087
13 2 6 797.53 624.56 87.44 o 0.841087
-8 7 2 1619.81 1323.44 113.97 o 0.840219
8 7 2 1619.81 1323.44 115.47 o 0.840219
16 0 4 5457.44 4553.66 406.56 o 0.840021
-16 0 4 5457.48 4553.69 423.59 o 0.840021
2 8 1 12382.82 9972.44 602.01 o 0.838872
-2 8 1 12382.82 9972.44 599.41 o 0.838872
5 7 4 520.22 417.78 20.58 o 0.838386
-5 7 4 520.23 417.78 24.21 o 0.838386
17 2 1 3495.10 3084.89 197.70 o 0.837979
-17 2 1 3495.13 3084.92 189.75 o 0.837979
-7 7 3 228.77 200.31 14.61 o 0.837768
7 7 3 228.77 200.31 11.95 o 0.837768
-16 3 2 30.00 22.68 2.21 o 0.836926
16 3 2 30.00 22.68 3.31 o 0.836926
-6 1 9 11425.06 8599.63 428.66 o 0.835542
6 1 9 11425.06 8599.63 432.89 o 0.835542
9 7 0 18283.21 13961.81 675.52 o 0.835446
-9 7 0 18283.19 13961.79 676.55 o 0.835446
-12 1 7 338.39 267.69 15.49 o 0.835028
12 1 7 338.39 267.69 12.81 o 0.835028
15 1 5 1742.50 1935.28 97.55 o 0.834643
-15 1 5 1742.49 1935.26 100.70 o 0.834643
-15 4 2 2636.94 2736.78 151.25 o 0.834028
15 4 2 2636.93 2736.77 155.55 o 0.834028
16 1 4 1963.62 1892.43 107.56 o 0.833669
-16 1 4 1963.63 1892.44 113.60 o 0.833669
12 6 0 4652.03 4365.27 221.91 o 0.833594
-12 6 0 4652.01 4365.26 219.47 o 0.833594
0 3 9 175.59 170.76 7.82 o 0.833003
9 2 8 436.63 419.77 22.31 o 0.832824
-9 2 8 436.63 419.76 18.92 o 0.832824
-10 0 8 16908.72 15800.69 841.90 o 0.832766
10 0 8 16908.72 15800.69 866.41 o 0.832766
-3 8 1 3955.45 3908.10 177.85 o 0.832201
3 8 1 3955.45 3908.11 194.17 o 0.832201
1 3 9 2606.94 2862.80 124.94 o 0.831684
-1 3 9 2606.94 2862.79 123.50 o 0.831684
-5 4 8 1065.29 1149.31 50.65 o 0.831681
5 4 8 1065.30 1149.32 45.74 o 0.831681
12 5 4 6671.42 6717.00 302.99 o 0.831379
-12 5 4 6671.39 6716.98 292.07 o 0.831379
0 7 5 884.59 893.63 37.95 o 0.831377
-5 2 9 716.78 733.27 33.35 o 0.831283
5 2 9 716.77 733.27 32.70 o 0.831283
9 7 1 632.50 616.16 24.62 o 0.830997
-9 7 1 632.50 616.17 26.99 o 0.830997
5 6 6 1263.02 1247.59 49.44 o 0.830870
-5 6 6 1263.02 1247.58 47.98 o 0.830870
0 8 2 300.79 290.19 12.15 o 0.830770
-14 0 6 10343.14 9744.95 436.83 o 0.830349
14 0 6 10343.15 9744.96 458.55 o 0.830349
1 7 5 9460.54 9299.73 366.44 o 0.830066
-1 7 5 9460.50 9299.69 362.77 o 0.830066
-13 5 3 941.29 958.25 42.26 o 0.829467
13 5 3 941.30 958.27 38.37 o 0.829467
1 8 2 1585.23 1644.85 74.83 o 0.829461
-1 8 2 1585.24 1644.85 72.75 o 0.829461
14 5 1 345.45 359.34 16.21 o 0.829342
-14 5 1 345.46 359.34 15.38 o 0.829342
11 4 6 4725.89 4948.38 214.33 o 0.829273
-11 4 6 4725.90 4948.39 213.62 o 0.829273
12 6 1 2888.17 3187.00 140.01 o 0.829174
-12 6 1 2888.17 3187.01 155.65 o 0.829174
-8 6 5 43.32 49.48 3.00 o 0.828249
8 6 5 43.32 49.48 2.27 o 0.828249
2 3 9 8012.48 8664.09 579.69 o 0.827765
-2 3 9 8012.49 8664.10 568.80 o 0.827765
-6 5 7 20.56 20.20 1.83 o 0.827493
6 5 7 20.56 20.20 1.75 o 0.827493
-4 8 0 540.30 565.95 38.92 o 0.827448
4 8 0 540.29 565.94 41.31 o 0.827448
-10 1 8 2243.87 2064.38 98.29 o 0.826576
10 1 8 2243.87 2064.37 101.44 o 0.826576
2 7 5 12000.44 11830.53 485.14 o 0.826169
-2 7 5 12000.45 11830.54 492.86 o 0.826169
9 5 6 9027.28 8823.39 357.88 o 0.825837
-9 5 6 9027.30 8823.41 343.31 o 0.825837
2 8 2 114.37 114.73 5.13 o 0.825573
-2 8 2 114.36 114.72 4.56 o 0.825573
17 2 2 2633.57 2642.21 105.00 o 0.824722
-17 2 2 2633.55 2642.19 104.01 o 0.824722
15 3 4 88.09 89.58 2.92 o 0.824658
-15 3 4 88.09 89.58 3.89 o 0.824658
9 4 7 11570.25 11832.49 448.30 o 0.824466
-9 4 7 11570.19 11832.43 463.52 o 0.824466
-14 1 6 2253.67 2277.43 95.21 o 0.824213
14 1 6 2253.69 2277.46 93.04 o 0.824213
-11 6 3 544.68 544.09 21.09 o 0.824131
11 6 3 544.68 544.09 20.83 o 0.824131
8 3 8 187.66 187.97 7.10 o 0.824118
-8 3 8 187.66 187.97 7.82 o 0.824118
-6 7 4 3336.00 3327.84 129.46 o 0.823942
6 7 4 3335.99 3327.83 136.32 o 0.823942
-4 8 1 2793.58 2944.62 220.81 o 0.823124
4 8 1 2793.58 2944.62 229.50 o 0.823124
14 3 5 666.04 713.04 54.36 o 0.823038
-14 3 5 666.04 713.04 51.16 o 0.823038
-11 5 5 278.87 228.63 7.87 o 0.821990
11 5 5 278.87 228.63 7.92 o 0.821990
18 0 0 23337.68 19322.62 669.67 o 0.821416
-18 0 0 23337.68 19322.63 684.79 o 0.821416
17 1 3 1233.95 1023.72 35.57 o 0.821409
-17 1 3 1233.95 1023.71 35.52 o 0.821409
3 3 9 12017.95 10030.62 343.96 o 0.821354
-3 3 9 12017.97 10030.63 352.36 o 0.821354
-10 6 4 1710.21 1414.17 48.54 o 0.820897
10 6 4 1710.21 1414.17 50.64 o 0.820897
