#------------------------------------------------------------------------------
#$Date: 2015-06-04 14:10:47 +0300 (Thu, 04 Jun 2015) $
#$Revision: 137937 $
#$URL: svn://www.crystallography.net/cod/cif/4/34/31/4343192.cif $
#------------------------------------------------------------------------------
#
# This file is available in the Crystallography Open Database (COD),
# http://www.crystallography.net/
#
# All data on this site have been placed in the public domain by the
# contributors.
#
data_4343192
loop_
_publ_author_name
'Sinha, Indranil'
'Hepp, Alexander'
'Schirmer, Birgitta'
'K\"osters, Jutta'
'Neugebauer, Johannes'
'M\"uller, Jens'
_publ_section_title
;
 Regioselectivity of the C-metalation of 6-furylpurine: importance of
 directing effects.
;
_journal_issue                   9
_journal_name_full               'Inorganic chemistry'
_journal_page_first              4183
_journal_page_last               4185
_journal_paper_doi               10.1021/acs.inorgchem.5b00450
_journal_volume                  54
_journal_year                    2015
_chemical_formula_sum            'C10 H11 Cl Hg N4 O7'
_chemical_formula_weight         535.27
_chemical_name_systematic
;
 ?
;
_space_group_crystal_system      triclinic
_space_group_IT_number           2
_space_group_name_Hall           '-P 1'
_space_group_name_H-M_alt        'P -1'
_symmetry_space_group_name_Hall  '-P 1'
_symmetry_space_group_name_H-M   'P -1'
_atom_sites_solution_hydrogens   mixed
_audit_creation_method           SHELXL-2013
_cell_angle_alpha                110.039(2)
_cell_angle_beta                 96.654(2)
_cell_angle_gamma                100.234(2)
_cell_formula_units_Z            2
_cell_length_a                   7.9691(6)
_cell_length_b                   8.4518(6)
_cell_length_c                   11.3366(8)
_cell_measurement_reflns_used    6929
_cell_measurement_temperature    90(2)
_cell_measurement_theta_max      30.06
_cell_measurement_theta_min      2.64
_cell_volume                     692.90(9)
_computing_cell_refinement       'Bruker SAINT'
_computing_data_collection       'Bruker APEX2'
_computing_data_reduction        'Bruker SAINT'
_computing_structure_refinement  'SHELXL-2013 (Sheldrick, 2013)'
_computing_structure_solution    'SHELXS-97 (Sheldrick 2008)'
_diffrn_ambient_temperature      90(2)
_diffrn_measured_fraction_theta_full 0.956
_diffrn_measured_fraction_theta_max 0.965
_diffrn_measurement_device_type  'Photon 100 CMOS-detector'
_diffrn_measurement_method       'omega scan'
_diffrn_radiation_type           MoK\a
_diffrn_radiation_wavelength     0.71073
_diffrn_reflns_av_R_equivalents  0.0419
_diffrn_reflns_av_unetI/netI     0.0481
_diffrn_reflns_laue_measured_fraction_full 0.956
_diffrn_reflns_laue_measured_fraction_max 0.965
_diffrn_reflns_limit_h_max       11
_diffrn_reflns_limit_h_min       -11
_diffrn_reflns_limit_k_max       11
_diffrn_reflns_limit_k_min       -11
_diffrn_reflns_limit_l_max       15
_diffrn_reflns_limit_l_min       -15
_diffrn_reflns_number            7221
_diffrn_reflns_point_group_measured_fraction_full 0.956
_diffrn_reflns_point_group_measured_fraction_max 0.965
_diffrn_reflns_theta_full        25.242
_diffrn_reflns_theta_max         30.057
_diffrn_reflns_theta_min         2.633
_diffrn_source                   Microfocus
_exptl_absorpt_coefficient_mu    11.345
_exptl_absorpt_correction_T_max  0.7460
_exptl_absorpt_correction_T_min  0.3232
_exptl_absorpt_correction_type   multi-scan
_exptl_absorpt_process_details   'SADABS V2008/1 (Bruker AXS)'
_exptl_crystal_colour            yellow
_exptl_crystal_density_diffrn    2.566
_exptl_crystal_description       block
_exptl_crystal_F_000             504
_exptl_crystal_size_max          0.250
_exptl_crystal_size_mid          0.170
_exptl_crystal_size_min          0.130
_refine_diff_density_max         3.354
_refine_diff_density_min         -1.599
_refine_diff_density_rms         0.216
_refine_ls_extinction_method     none
_refine_ls_goodness_of_fit_ref   1.108
_refine_ls_hydrogen_treatment    mixed
_refine_ls_matrix_type           full
_refine_ls_number_parameters     225
_refine_ls_number_reflns         3918
_refine_ls_number_restraints     6
_refine_ls_restrained_S_all      1.108
_refine_ls_R_factor_all          0.0272
_refine_ls_R_factor_gt           0.0265
_refine_ls_shift/su_max          0.001
_refine_ls_shift/su_mean         0.000
_refine_ls_structure_factor_coef Fsqd
_refine_ls_weighting_details
'w=1/[\s^2^(Fo^2^)+(0.0271P)^2^+1.1424P] where P=(Fo^2^+2Fc^2^)/3'
_refine_ls_weighting_scheme      calc
_refine_ls_wR_factor_gt          0.0700
_refine_ls_wR_factor_ref         0.0705
_reflns_Friedel_coverage         0.000
_reflns_number_gt                3837
_reflns_number_total             3918
_reflns_threshold_expression     'I > 2\s(I)'
_cod_data_source_file            ic5b00450_si_004.cif
_cod_data_source_block           sadp-1
_cod_database_code               4343192
_shelx_space_group_comment
;
The symmetry employed for this shelxl refinement is uniquely defined
by the following loop, which should always be used as a source of
symmetry information in preference to the above space-group names.
They are only intended as comments.
;
_shelx_estimated_absorpt_t_min   0.164
_shelx_estimated_absorpt_t_max   0.320
_shelxl_version_number           2013-4
_shelx_res_file
;
TITL sadp-1 in P-1
CELL 0.71073 7.9691 8.4518 11.3366 110.039 96.654 100.234
ZERR 2.00 0.0006 0.0006 0.0008 0.002 0.002 0.002
LATT 1
SFAC C  H  N  O  Cl Hg
UNIT 20  22  8  14  2  2
L.S. 20
ACTA
BOND $H
FMAP 2
PLAN 10
HTAB O1X O1W_$9
HTAB O1X O1_$8
HTAB O1X N1_$7
HTAB O1W N3_$6
HTAB O1W O4_$5
HTAB O1W O1_$4
HTAB C4* O2_$3
HTAB C9 O3_$2
HTAB C8 O3_$1
HTAB C8 O1_$1
HTAB O1X O1W_$9
HTAB O1X O1_$8
HTAB O1X N1_$7
HTAB O1W N3_$6
HTAB O1W O4_$5
HTAB O1W O1_$4
HTAB C4* O2_$3
HTAB C9 O3_$2
HTAB C8 O3_$1
HTAB C8 O1_$1
HTAB O1X O1W_$9
HTAB O1X O1_$8
HTAB O1X N1_$7
HTAB O1W N3_$6
HTAB O1W O4_$5
HTAB O1W O1_$4
HTAB C4* O2_$3
HTAB C9 O3_$2
HTAB C8 O3_$1
HTAB C8 O1_$1
SIZE 0.130 0.170 0.250
CONF
DANG 1.33 H1X H2X
DANG 1.33 H1W H2W
HTAB
EQIV $1 -x+1, -y+1, -z
HTAB C8 O1_$1
HTAB C8 O3_$1
EQIV $2 -x+1, -y+2, -z
HTAB C9 O3_$2
EQIV $3 x-1, y, z
HTAB C4* O2_$3
EQIV $4 -x+1, -y, -z+1
HTAB O1W O1_$4
EQIV $5 x, y, z+1
HTAB O1W O4_$5
EQIV $6 -x+1, -y+2, -z+1
HTAB O1W N3_$6
EQIV $7 -x, -y+1, -z+1
HTAB O1X N1_$7
EQIV $8 -x+1, -y+1, -z+1
HTAB O1X O1_$8
EQIV $9 x, y+1, z
HTAB O1X O1W_$9
HTAB C8 O1_$1
HTAB C8 O3_$1
HTAB C9 O3_$2
HTAB C4* O2_$3
HTAB O1W O1_$4
HTAB O1W O4_$5
HTAB O1W N3_$6
HTAB O1X N1_$7
HTAB O1X O1_$8
HTAB O1X O1W_$9
HTAB C8 O1_$1
HTAB C8 O3_$1
HTAB C9 O3_$2
HTAB C4* O2_$3
HTAB O1W O1_$4
HTAB O1W O4_$5
HTAB O1W N3_$6
HTAB O1X N1_$7
HTAB O1X O1_$8
HTAB O1X O1W_$9
DFIX 0.84 O1W H1W
DFIX 0.84 O1W H2W
DFIX 0.84 O1X H1X
DFIX 0.84 O1X H2X
TEMP -183.150
WGHT    0.027100    1.142400
FVAR       0.11513
HG1   6    0.343515    1.015235    0.345408    11.00000    0.01229    0.01035 =
         0.00887    0.00446   -0.00088   -0.00009
N1    3    0.240931    0.391032    0.565817    11.00000    0.01213    0.01429 =
         0.01365    0.00558    0.00147    0.00196
C2    1    0.286750    0.321815    0.650060    11.00000    0.01654    0.01404 =
         0.01622    0.00823    0.00298    0.00129
AFIX  43
H2    2    0.214728    0.213389    0.638985    11.00000   -1.20000
AFIX   0
N3    3    0.578122    1.614536    0.251076    11.00000    0.01507    0.01279 =
         0.01349    0.00676    0.00266    0.00235
C4    1    0.484327    1.463871    0.243690    11.00000    0.01047    0.01645 =
         0.01031    0.00305    0.00084    0.00397
C5    1    0.518540    1.375280    0.325359    11.00000    0.01153    0.01177 =
         0.00862    0.00407    0.00310    0.00244
C6    1    0.335060    0.546307    0.576525    11.00000    0.01098    0.01335 =
         0.01096    0.00408    0.00277    0.00220
N7    3    0.387261    1.226171    0.286381    11.00000    0.01363    0.01309 =
         0.01119    0.00561   -0.00096    0.00215
C8    1    0.281851    1.226967    0.187169    11.00000    0.01444    0.01297 =
         0.01220    0.00491   -0.00103    0.00143
AFIX  43
H8    2    0.179552    1.139325    0.142475    11.00000   -1.20000
AFIX   0
N9    3    0.335667    1.364992    0.157044    11.00000    0.01588    0.01117 =
         0.00944    0.00446    0.00011    0.00277
C9    1    0.258257    1.399700    0.047925    11.00000    0.01901    0.02166 =
         0.01246    0.01054   -0.00012    0.00511
AFIX 137
H9C   2    0.343046    1.404924   -0.007517    11.00000   -1.50000
H9B   2    0.224358    1.510575    0.078562    11.00000   -1.50000
H9A   2    0.155424    1.306889   -0.000490    11.00000   -1.50000
AFIX   0
O1*   4    0.361645    0.770269    0.485918    11.00000    0.01574    0.01123 =
         0.00907    0.00513   -0.00101    0.00173
C2*   1    0.272902    0.612744    0.482611    11.00000    0.01293    0.01239 =
         0.01159    0.00410    0.00218    0.00170
C3*   1    0.130589    0.545747    0.385771    11.00000    0.00998    0.01268 =
         0.01309    0.00507   -0.00002   -0.00081
AFIX  43
H3*   2    0.048534    0.438810    0.363143    11.00000   -1.20000
AFIX   0
C4*   1    0.130172    0.669144    0.325405    11.00000    0.00833    0.01535 =
         0.01181    0.00407   -0.00117   -0.00069
AFIX  43
H4*   2    0.046906    0.660215    0.254920    11.00000   -1.20000
AFIX   0
C5*   1    0.271723    0.801821    0.388104    11.00000    0.01026    0.01444 =
         0.01034    0.00420   -0.00002    0.00156
CL1   5    0.774091    0.212018    0.036713    11.00000    0.01595    0.01442 =
         0.01097    0.00294    0.00116    0.00128
O1    4    0.831478    0.083694    0.074489    11.00000    0.10377    0.04207 =
         0.02762    0.02130    0.01868    0.04133
O2    4    0.858312    0.380772    0.126329    11.00000    0.04325    0.02041 =
         0.01422   -0.00191   -0.00195   -0.01033
O3    4    0.811971    0.190409   -0.088699    11.00000    0.03378    0.02075 =
         0.01061    0.00619    0.00236   -0.00291
O4    4    0.591685    0.188618    0.031469    11.00000    0.01785    0.08350 =
         0.03406   -0.02193    0.00660   -0.00276
O1W   4    0.368759    0.047791    0.766594    11.00000    0.02690    0.01837 =
         0.02017    0.00989    0.00504    0.00529
H1W   2    0.402498    0.029939    0.832974    11.00000    0.07177
H2W   2    0.403081    0.155979    0.790985    11.00000    0.04603
O1X   4   -0.005912    0.916633    0.650713    11.00000    0.02095    0.02777 =
         0.02858    0.00287   -0.00306    0.00651
H1X   2   -0.016950    0.826164    0.586992    11.00000    0.06309
H2X   2    0.089457    0.939670    0.698567    11.00000    0.07319
HKLF 4 1 1 0 0 0 1 0 0 0 1

REM  sadp-1 in P-1
REM R1 =  0.0265 for    3837 Fo > 4sig(Fo)  and  0.0272 for all    3918 data
REM    225 parameters refined using      6 restraints

END

WGHT      0.0271      1.1432

REM Instructions for potential hydrogen bonds
HTAB C8 O1_$1
HTAB C8 O3_$1
HTAB C9 O3_$2
HTAB C4* O2_$3
HTAB O1W O1_$4
HTAB O1W O4_$5
HTAB O1W N3_$6
HTAB O1X N1_$7
HTAB O1X O1_$8
HTAB O1X O1W_$9

REM Highest difference peak  3.354,  deepest hole -1.599,  1-sigma level  0.216
Q1    1   0.3641  0.9789  0.2812  11.00000  0.05    3.35
Q2    1   0.3265  1.0584  0.4159  11.00000  0.05    3.13
Q3    1   0.0138  0.3132  0.3626  11.00000  0.05    1.90
Q4    1   0.3226  0.9230  0.3449  11.00000  0.05    1.14
Q5    1   0.6107  0.1163  0.0232  11.00000  0.05    0.84
Q6    1   0.1921  0.5601  0.4412  11.00000  0.05    0.80
Q7    1   0.3529  1.0976  0.3431  11.00000  0.05    0.79
Q8    1   0.5000  1.0000  0.5000  10.50000  0.05    0.76
Q9    1   0.6104  0.0360  0.8064  11.00000  0.05    0.74
Q10   1   0.2179  0.7356  0.3450  11.00000  0.05    0.71
;
_shelx_res_checksum              94806
_shelx_hkl_file
;
  -1   0   0  155.68    9.69
  -1   0   0  172.20    9.10
  -2   0   0  194.23   10.81
  -2   0   0  177.40   10.80
  -2   0   0  190.62   10.16
   2   0   0  171.60   10.81
   2   0   0  181.59   10.16
  -3   0   0  234.40   12.68
  -3   0   0  220.70   13.49
  -3   0   0  236.41   13.49
   3   0   0  223.28   12.68
  -4   0   0   87.28    5.17
  -4   0   0   85.69    5.17
  -4   0   0   91.61    4.85
   4   0   0   84.39    4.84
  -5   0   0    0.90    0.11
   5   0   0    0.60    0.13
  -6   0   0   89.06    5.39
   6   0   0   94.95    5.05
   6   0   0   88.05    6.20
  -7   0   0   58.50    3.63
   7   0   0   62.80    3.39
   7   0   0   60.49    4.18
  -8   0   0    6.06    0.48
   8   0   0    6.72    0.42
  -9   0   0   40.12    2.46
 -10   0   0   32.00    1.92
 -10   0   0   29.13    1.80
 -11   1   0    0.65    0.25
 -10   1   0   31.90    1.98
   9  -1   0   33.69    1.92
  -9   1   0   33.18    2.06
   8  -1   0   -0.01    0.08
  -8   1   0    0.14    0.11
   7  -1   0   54.42    2.97
  -7   1   0   51.24    3.17
   6  -1   0   86.04    4.94
  -6   1   0   96.12    5.29
  -6   1   0   83.86    5.26
   5  -1   0    1.09    0.12
   5  -1   0    1.24    0.12
  -5   1   0    1.26    0.18
  -5   1   0    1.15    0.12
   4  -1   0   35.89    2.22
   4  -1   0   37.49    2.10
  -4   1   0   38.91    2.10
  -4   1   0   37.48    2.24
   3  -1   0  268.56   16.72
   3  -1   0  283.90   15.72
  -3   1   0  284.74   15.70
  -3   1   0  296.27   16.72
   2  -1   0  126.01    7.50
  -2   1   0  136.74    7.51
  -2   1   0  131.55    7.06
  -2   1   0  114.88    8.63
   1  -1   0   98.94    6.04
  -1   1   0  105.88    6.04
   0  -1   0  163.84    8.93
   0   1   0  158.28    9.54
  -1  -1   0   12.91    0.81
  -1  -1   0   13.34    0.75
   1   1   0   13.33    0.81
   1   1   0   14.23    0.75
  -2  -1   0    2.13    0.15
   2   1   0    2.51    0.15
   2   1   0    2.26    0.17
  -3  -1   0  241.32   13.10
  -3  -1   0  225.89   13.94
  -3  -1   0  230.51   13.95
   3   1   0  225.51   13.10
   3   1   0  258.25   13.94
  -4  -1   0  177.31   11.06
  -4  -1   0  198.19   10.38
  -4  -1   0  182.70   11.06
   4   1   0  191.13   10.37
  -5  -1   0    2.97    0.26
  -5  -1   0    3.88    0.24
  -5  -1   0    3.35    0.28
   5   1   0    3.40    0.22
  -6  -1   0   95.74    6.23
  -6  -1   0  114.70    5.84
   6   1   0  104.18    5.83
  -7  -1   0   81.05    5.06
   7   1   0   86.36    4.73
   7   1   0   86.99    5.82
  -8  -1   0    1.07    0.25
   8   1   0    0.89    0.15
   8   1   0    1.18    0.24
  -9  -1   0   34.32    2.06
  -9  -1   0   35.74    2.21
   9   1   0   36.89    2.03
 -11   2   0    0.62    0.25
 -10   2   0   35.80    2.15
 -10   2   0   33.86    2.04
   9  -2   0   56.80    3.13
  -9   2   0   53.95    3.16
  -9   2   0   55.33    3.34
   8  -2   0    1.17    0.16
  -8   2   0    1.25    0.21
   7  -2   0   29.53    1.77
   7  -2   0   29.27    1.68
   6  -2   0  119.06    7.33
   6  -2   0  123.89    6.90
  -6   2   0  129.34    7.37
   5  -2   0   78.36    4.26
   5  -2   0   73.98    4.52
  -5   2   0   76.85    4.55
   4  -2   0   36.91    2.32
  -4   2   0   40.55    2.35
  -4   2   0   39.70    2.19
   3  -2   0  276.46   15.67
   3  -2   0  273.98   16.66
  -3   2   0  293.26   15.64
  -3   2   0  286.18   16.66
   2  -2   0    2.95    0.20
   1  -2   0   85.88    5.33
   1  -2   0   97.02    5.69
  -1   2   0  106.57    5.69
  -1   2   0   91.03    5.33
  -1   2   0  100.04    5.34
   0  -2   0  135.85    7.51
   0  -2   0  139.70    8.00
   0   2   0  128.91    7.51
   0   2   0  136.90    8.00
  -1  -2   0   33.72    1.89
   1   2   0   31.97    1.89
   1   2   0   36.48    2.03
  -2  -2   0    0.59    0.09
   2   2   0    0.54    0.05
  -3  -2   0  112.17    5.91
  -3  -2   0   97.31    6.31
   3   2   0  110.30    6.30
   3   2   0  106.29    5.90
  -4  -2   0  143.68    9.52
  -4  -2   0  172.88    8.92
   4   2   0  171.82    9.51
   4   2   0  155.29    8.91
  -5  -2   0    0.78    0.15
  -5  -2   0    0.15    0.06
   5   2   0    0.30    0.07
  -6  -2   0  129.08    8.40
  -6  -2   0  154.06    7.87
  -7  -2   0   62.09    3.87
   7   2   0   66.46    3.59
  -8  -2   0    0.64    0.18
   8   2   0    0.54    0.18
   8   2   0    0.88    0.15
  -9  -2   0   17.52    1.23
   9   2   0   19.30    1.37
 -10  -2   0   31.80    2.04
 -11   3   0    0.45    0.25
 -10   3   0   16.92    1.07
 -10   3   0   16.78    1.10
   9  -3   0   47.53    2.64
  -9   3   0   45.06    2.80
  -9   3   0   46.49    2.66
   8  -3   0   13.71    0.86
   7  -3   0   28.94    1.64
   7  -3   0   28.26    1.72
   6  -3   0  181.27   10.00
   6  -3   0  178.97   10.63
   5  -3   0   28.40    1.61
  -5   3   0   28.28    1.74
   4  -3   0   58.04    3.63
   4  -3   0   61.34    3.42
  -4   3   0   64.22    3.65
   3  -3   0  181.37   10.25
   3  -3   0  173.17   10.92
  -3   3   0  197.25   10.93
  -3   3   0  187.95   10.25
   2  -3   0  123.62    7.32
   2  -3   0  126.35    7.81
  -2   3   0  144.82    7.81
  -2   3   0  130.66    7.33
  -2   3   0  135.66    7.33
  -1   3   0    3.17    0.21
  -1   3   0    3.44    0.21
  -1   3   0    3.60    0.25
   0  -3   0  195.35    9.96
   0  -3   0  179.65   10.61
   0   3   0  196.06   10.61
   0   3   0  170.60    9.96
   0   3   0  157.00    9.95
  -1  -3   0  174.85   10.21
  -1  -3   0  173.14    9.56
   1   3   0  159.24    9.57
   1   3   0  184.26   10.20
   2   3   0    5.56    0.38
  -3  -3   0  178.05   11.07
   3   3   0  196.12   10.35
  -4  -3   0   93.17    6.21
  -4  -3   0  112.87    5.80
   4   3   0  107.16    5.79
  -5  -3   0    7.35    0.42
  -5  -3   0    6.15    0.49
   5   3   0    6.73    0.40
  -6  -3   0   30.00    2.00
  -6  -3   0   35.98    1.84
   6   3   0   31.41    1.82
  -7  -3   0   36.84    2.32
   7   3   0   38.12    2.10
  -8  -3   0   11.11    0.81
  -9  -3   0   12.36    0.96
   9   3   0   13.83    1.03
 -11   4   0    1.11    0.27
 -10   4   0   10.14    0.72
 -10   4   0    9.86    0.71
   9  -4   0   43.82    2.54
  -9   4   0   40.46    2.43
   8  -4   0   11.10    0.67
   8  -4   0   10.61    0.69
  -8   4   0   10.36    0.69
   7  -4   0   45.55    2.68
   7  -4   0   44.56    2.54
  -7   4   0   44.25    2.55
   6  -4   0  115.91    6.43
   6  -4   0  114.96    6.83
   5  -4   0   24.99    1.47
   5  -4   0   23.92    1.55
  -5   4   0   28.47    1.59
   4  -4   0   25.26    1.61
   4  -4   0   25.07    1.50
  -4   4   0   29.03    1.62
  -4   4   0   26.63    1.51
   3  -4   0  145.62    9.19
  -3   4   0  151.49    8.63
  -3   4   0  172.87    9.21
  -3   4   0  152.34    8.63
   2  -4   0  134.73    8.60
  -2   4   0  143.41    8.07
  -2   4   0  144.16    8.07
  -2   4   0  159.84    8.61
   1  -4   0    0.16    0.07
  -1   4   0    0.26    0.05
  -1   4   0    0.32    0.09
  -1   4   0    0.29    0.05
   0  -4   0  115.72    7.41
   0   4   0  123.91    6.93
   0   4   0  122.57    6.93
   0   4   0  137.95    7.40
  -1  -4   0  260.14   15.40
  -1  -4   0  268.21   14.43
   1   4   0  273.11   15.39
   1   4   0  241.80   14.43
  -2  -4   0    0.73    0.14
  -3  -4   0  132.37    7.86
  -4  -4   0   96.03    5.73
  -5  -4   0    6.89    0.52
  -6  -4   0   24.28    1.55
  -7  -4   0   80.53    4.86
  -8  -4   0    9.82    0.77
  -9  -4   0   12.51    0.98
   9   4   0   12.83    1.01
  10  -5   0   31.16    1.82
 -10   5   0   28.02    1.77
   9  -5   0   44.33    2.62
  -9   5   0   42.60    2.51
   8  -5   0    3.38    0.27
  -8   5   0    2.68    0.30
   7  -5   0   26.31    1.60
   6  -5   0   32.51    1.97
   5  -5   0   18.13    1.12
  -5   5   0   18.00    1.05
   4  -5   0    5.75    0.40
  -4   5   0    5.75    0.37
   3  -5   0  139.68    8.31
  -3   5   0  140.96    7.79
   2  -5   0  165.62   10.23
  -2   5   0  174.50    9.59
  -2   5   0  178.83    9.59
   1  -5   0   21.53    1.36
  -1   5   0   22.85    1.25
  -1   5   0   21.84    1.25
   0  -5   0  278.55   16.68
   0   5   0  269.81   15.64
   0   5   0  298.95   15.63
  -1  -5   0  131.92    8.04
   1   5   0  140.87    7.50
   1   5   0  133.36    7.50
  -2  -5   0    8.50    0.59
  -3  -5   0   40.57    2.48
  -4  -5   0   58.76    3.56
  -5  -5   0   10.77    0.76
  -6  -5   0   15.72    1.07
  -7  -5   0   60.65    3.72
  -8  -5   0    7.56    0.72
 -10   6   0    5.04    0.48
  -9   6   0   30.59    1.80
   8  -6   0   14.28    0.90
  -8   6   0   13.67    0.88
   7  -6   0    8.12    0.56
   6  -6   0   61.92    3.71
   5  -6   0   85.21    5.04
  -5   6   0   83.82    4.73
   4  -6   0    0.93    0.17
  -4   6   0    0.88    0.13
   3  -6   0  109.00    6.62
  -3   6   0  113.87    6.20
   2  -6   0  107.12    6.48
  -2   6   0  111.01    6.06
   1  -6   0    1.14    0.17
  -1   6   0    1.89    0.14
  -1   6   0    1.42    0.12
   0  -6   0   52.51    3.30
   0   6   0   54.29    3.05
   0   6   0   57.69    3.06
  -1  -6   0   70.29    4.36
   1   6   0   76.46    4.03
   1   6   0   71.02    4.03
  -2  -6   0   13.98    0.93
  -3  -6   0   18.43    1.20
  -4  -6   0  104.01    6.24
  -5  -6   0   12.50    0.90
  -6  -6   0   20.97    1.41
  -7  -6   0   38.43    2.44
 -10   7   0   12.69    0.87
   9  -7   0   28.25    1.70
  -9   7   0   26.60    1.64
  -8   7   0   24.48    1.46
   7  -7   0    0.50    0.14
   6  -7   0   52.04    3.13
  -6   7   0   51.88    2.94
   5  -7   0   61.50    3.70
  -4   7   0    1.44    0.16
   3  -7   0   66.92    4.12
  -3   7   0   70.41    3.84
   2  -7   0   43.91    2.77
  -2   7   0   47.59    2.57
   1  -7   0    0.05    0.10
  -1   7   0    0.20    0.05
   0   7   0    9.87    0.58
   1   7   0   58.88    3.13
   1   7   0   53.63    3.13
  -3  -7   0   26.57    1.70
  -4  -7   0   73.48    4.50
  -5  -7   0    6.19    0.58
  -6  -7   0   13.31    1.01
   9  -8   0   30.14    1.84
  -9   8   0   28.92    1.75
   8  -8   0   24.32    1.50
  -8   8   0   23.27    1.42
   7  -8   0    5.36    0.47
  -7   8   0    5.30    0.41
   6  -8   0   46.71    2.82
  -6   8   0   45.96    2.64
  -5   8   0   39.00    2.22
  -4   8   0    1.16    0.16
  -3   8   0   37.44    2.12
  -2   8   0   40.02    2.25
   1  -8   0    6.05    0.49
  -1   8   0    6.17    0.38
   0  -8   0   32.36    1.99
   0   8   0   31.11    1.78
  -1  -8   0  124.11    7.26
   1   8   0  117.55    6.69
  -3  -8   0   26.03    1.70
  -4  -8   0   42.73    2.70
  -5  -8   0    9.08    0.80
   8  -9   0   14.89    1.02
  -8   9   0   14.68    0.94
   7  -9   0    1.38    0.35
  -7   9   0    1.01    0.25
  -6   9   0   36.17    2.08
   5  -9   0   29.61    1.86
  -5   9   0   29.23    1.70
   4  -9   0    0.09    0.16
  -4   9   0    0.12    0.09
  -3   9   0   16.38    0.96
   2  -9   0   56.74    3.58
  -2   9   0   59.80    3.27
   1  -9   0   10.94    0.78
  -1   9   0    9.95    0.62
   0  -9   0   33.43    2.10
   0   9   0   32.95    1.86
  -1  -9   0   65.38    4.01
  -2  -9   0    6.48    0.62
  -3  -9   0   16.91    1.22
  -4  -9   0   36.75    2.38
   7 -10   0    0.33    0.25
  -7  10   0    0.37    0.15
   6 -10   0    5.67    0.57
  -6  10   0    5.52    0.43
   5 -10   0   22.52    1.44
  -5  10   0   20.96    1.28
   4 -10   0   10.99    0.83
   3 -10   0   16.12    1.10
  -3  10   0   15.50    0.93
  -2  10   0   33.05    1.88
   1 -10   0    6.92    0.63
   0 -10   0   22.02    1.49
  -1 -10   0   33.14    2.14
  -2 -10   0    4.38    0.62
   4 -11   0    2.96    0.50
  -4  11   0    2.40    0.30
   3 -11   0   16.87    1.22
   2 -11   0   25.70    1.72
   1 -11   0    4.72    0.60
   0 -11   1    7.75    0.76
   1 -11   1   49.50    3.10
   2 -11   1   14.86    1.09
  -3  11  -1    3.54    0.32
   3 -11   1    3.37    0.51
  -4  11  -1   28.86    1.73
   4 -11   1   31.60    1.95
  -5  11  -1   13.68    0.87
   5 -11   1   14.37    1.05
  -3 -10   1    4.25    0.64
  -2 -10   1   64.55    4.00
  -1 -10   1   18.64    1.32
   0 -10   1    8.54    0.70
   1 -10   1   49.24    3.05
  -2  10  -1   18.58    1.14
   2 -10   1   21.35    1.33
   3 -10   1    2.84    0.40
  -4  10  -1   42.01    2.43
   4 -10   1   43.60    2.65
  -5  10  -1   29.48    1.77
   5 -10   1   32.05    1.95
  -6  10  -1    2.32    0.27
   6 -10   1    1.99    0.41
  -7  10  -1   17.75    1.14
   7 -10   1   19.79    1.26
  -4  -9   1   25.83    1.75
  -3  -9   1   12.21    0.94
  -2  -9   1   71.37    4.36
  -1  -9   1   17.56    1.21
   0   9  -1    6.79    0.41
  -1   9  -1   54.10    3.06
   1  -9   1   55.63    3.35
  -2   9  -1   28.43    1.66
   2  -9   1   30.19    1.84
  -3   9  -1    3.04    0.25
   3  -9   1    3.28    0.34
   4  -9   1   16.65    1.10
  -5   9  -1   29.52    1.70
   5  -9   1   29.42    1.85
  -6   9  -1    0.38    0.12
   6  -9   1    0.43    0.20
  -7   9  -1   16.63    1.05
   7  -9   1   17.72    1.13
  -8   9  -1   15.33    0.97
  -6  -8   1   13.57    1.06
  -5  -8   1   94.24    5.72
  -4  -8   1   24.40    1.63
  -3  -8   1   12.08    0.88
  -2  -8   1   82.13    4.97
  -1   8  -1   33.77    1.90
  -2   8  -1   84.75    4.31
   2  -8   1   69.70    4.64
  -3   8  -1    1.02    0.14
   3  -8   1    1.32    0.22
  -4   8  -1   88.92    4.95
   4  -8   1   88.28    5.30
  -5   8  -1   52.06    2.98
   5  -8   1   53.10    3.18
  -6   8  -1    1.16    0.19
   6  -8   1    0.48    0.17
  -7   8  -1   11.70    0.75
  -8   8  -1   27.18    1.65
   8  -8   1   28.63    1.73
  -9   8  -1    3.46    0.39
  -7  -7   1   11.29    0.95
  -6  -7   1   10.78    0.87
  -5  -7   1   44.93    2.81
  -4  -7   1   22.64    1.49
   0   7  -1    6.00    0.35
   0   7  -1    5.57    0.34
   0  -7   1    5.42    0.44
  -1   7  -1  103.89    5.51
  -1   7  -1   98.39    5.50
   1  -7   1   94.71    5.91
  -2   7  -1  135.41    7.39
   2  -7   1  130.88    7.91
  -3   7  -1    0.28    0.07
   3  -7   1    0.36    0.11
  -4   7  -1   31.54    1.79
   4  -7   1   31.39    1.92
  -5   7  -1   38.51    2.26
   5  -7   1   41.23    2.42
  -6   7  -1    7.18    0.50
   6  -7   1    7.97    0.54
  -7   7  -1   14.52    0.94
   7  -7   1   15.79    0.97
  -8   7  -1   35.62    2.13
   8  -7   1   38.03    2.24
  -9   7  -1    9.51    0.67
 -10   7  -1    2.55    0.39
  -8  -6   1   51.37    3.23
  -7  -6   1   12.60    0.96
  -6  -6   1   17.11    1.18
  -5  -6   1   63.74    3.89
  -4  -6   1   13.31    0.92
  -3  -6   1    2.38    0.29
  -2  -6   1   46.29    2.82
  -1  -6   1  126.18    7.51
   0   6  -1    0.48    0.09
   0   6  -1    0.68    0.07
   0  -6   1    0.65    0.15
  -1   6  -1  123.57    6.94
  -1   6  -1  132.54    6.94
   1  -6   1  119.30    7.43
  -2   6  -1   57.48    3.09
   2  -6   1   52.95    3.31
  -3   6  -1    1.37    0.13
   3  -6   1    1.28    0.16
  -4   6  -1   19.34    1.10
   4  -6   1   18.77    1.18
  -5   6  -1   82.30    4.77
   5  -6   1   87.39    5.08
   5  -6   1   86.38    4.77
   6  -6   1   16.52    0.99
   6  -6   1   17.07    1.05
   7  -6   1   17.29    1.08
  -8   6  -1   69.48    4.07
   8  -6   1   74.41    4.29
  -9   6  -1    9.08    0.67
   9  -6   1   10.50    0.66
 -10   6  -1   13.88    0.92
  -8  -5   1   41.32    2.61
  -7  -5   1   23.71    1.55
  -6  -5   1    3.40    0.39
  -5  -5   1   44.54    2.74
  -4  -5   1   98.39    5.89
  -3  -5   1    4.09    0.34
  -2  -5   1  118.80    7.07
  -1  -5   1  138.84    8.24
   0   5  -1    2.33    0.15
   0   5  -1    2.62    0.16
   0  -5   1    2.15    0.21
  -1   5  -1   79.81    4.43
  -1   5  -1   74.69    4.13
  -1   5  -1   72.45    4.13
   1  -5   1   70.60    4.42
  -2   5  -1  139.16    7.50
  -2   5  -1  126.57    7.03
   2  -5   1  114.03    7.49
  -3   5  -1    5.72    0.38
   3  -5   1    5.03    0.36
   3  -5   1    4.68    0.32
  -4   5  -1   30.25    1.71
   4  -5   1   26.68    1.70
   4  -5   1   27.27    1.59
   5  -5   1  121.93    6.57
   5  -5   1  113.91    6.98
   6  -5   1   27.52    1.66
   7  -5   1   10.70    0.68
   8  -5   1   44.26    2.67
   8  -5   1   45.12    2.55
  -9   5  -1    7.26    0.56
   9  -5   1    7.29    0.52
   9  -5   1    7.96    0.52
 -10   5  -1    0.61    0.20
  -9  -4   1    9.82    0.84
  -8  -4   1   32.94    2.09
  -7  -4   1   38.65    2.41
  -6  -4   1    3.25    0.36
  -5  -4   1   65.67    3.96
  -4  -4   1  183.68   10.89
  -3  -4   1   -0.02    0.08
  -2  -4   1  146.21    8.66
   1   4  -1  287.63   15.89
  -1  -4   1  250.84   15.89
   0   4  -1   21.92    1.24
   0   4  -1   20.04    1.14
   0  -4   1   18.95    1.24
  -1   4  -1   55.70    3.12
  -1   4  -1   56.81    3.12
  -1   4  -1   60.62    3.34
   1  -4   1   53.93    3.33
   1  -4   1   53.25    3.11
  -2   4  -1  215.68   11.55
  -2   4  -1  221.87   12.31
   2  -4   1  203.63   12.30
   2  -4   1  192.63   11.55
  -3   4  -1   76.00    4.14
  -3   4  -1   68.53    3.88
   3  -4   1   68.64    3.88
   3  -4   1   65.33    4.13
  -4   4  -1   10.68    0.63
   4  -4   1    8.90    0.60
   4  -4   1    9.44    0.57
  -5   4  -1  173.79    9.54
   5  -4   1  148.43    9.51
   5  -4   1  161.06    8.95
  -6   4  -1   15.65    0.97
   6  -4   1   14.47    0.91
   6  -4   1   14.74    0.88
   7  -4   1    7.60    0.50
   7  -4   1    7.93    0.50
   8  -4   1   33.18    1.87
   8  -4   1   31.92    1.96
  -9   4  -1   18.59    1.21
   9  -4   1   20.22    1.19
   9  -4   1   18.95    1.15
 -10   4  -1    0.81    0.20
  10  -4   1    1.00    0.23
   9   3  -1    3.25    0.42
  -9  -3   1    3.29    0.47
  -8  -3   1   48.47    2.97
  -7  -3   1   46.59    2.69
  -7  -3   1   49.23    2.93
  -6  -3   1   13.22    0.82
  -6  -3   1   13.53    0.94
  -6  -3   1   16.06    0.83
  -5  -3   1  170.31   10.10
  -4  -3   1  118.29    7.03
   3   3  -1    0.44    0.10
  -3  -3   1    0.35    0.11
   2   3  -1   47.46    2.83
   1   3  -1  176.35    9.94
  -1  -3   1  160.24    9.94
   0   3  -1   49.01    2.75
   0   3  -1   50.07    2.75
   0   3  -1   51.94    2.94
   0  -3   1   46.54    2.94
  -1   3  -1   10.20    0.61
  -1   3  -1   10.41    0.57
   1  -3   1    9.39    0.61
   1  -3   1    9.89    0.57
  -2   3  -1  237.54   13.32
  -2   3  -1  255.56   14.18
   2  -3   1  241.92   13.35
   2  -3   1  226.26   14.20
  -3   3  -1   47.92    2.70
  -3   3  -1   51.50    2.88
   3  -3   1   47.77    2.70
   3  -3   1   46.26    2.87
  -4   3  -1   59.05    3.35
   4  -3   1   53.26    3.33
  -5   3  -1  109.03    7.72
  -5   3  -1  117.08    6.74
   5  -3   1  112.38    6.71
   5  -3   1  115.63    6.32
  -6   3  -1    9.68    0.67
   6  -3   1    9.79    0.59
   7  -3   1    7.52    0.48
   7  -3   1    7.30    0.48
  -8   3  -1   56.37    3.35
   8  -3   1   55.43    3.33
  -9   3  -1   27.12    1.72
   9  -3   1   28.85    1.63
 -10   3  -1    1.47    0.26
  10  -3   1    2.28    0.26
 -11   3  -1   32.61    1.96
  10   2  -1   32.66    2.24
 -10  -2   1   29.30    1.98
   9   2  -1    0.51    0.19
  -9  -2   1    0.11    0.15
  -9  -2   1    0.10    0.21
  -8  -2   1   58.17    3.34
  -8  -2   1   51.80    3.09
   7   2  -1   95.84    5.19
  -7  -2   1   91.07    5.20
  -7  -2   1   92.92    5.58
   6   2  -1    1.22    0.12
  -6  -2   1    1.34    0.16
  -6  -2   1    1.17    0.19
   5   2  -1   63.98    3.70
  -5  -2   1   61.88    3.98
  -5  -2   1   73.75    3.71
   4   2  -1   83.32    4.71
  -4  -2   1   78.47    5.05
  -4  -2   1   93.57    4.72
  -4  -2   1   84.43    5.05
   3   2  -1    4.41    0.31
   3   2  -1    4.13    0.26
  -3  -2   1    4.55    0.26
  -3  -2   1    4.62    0.32
   2   2  -1   45.38    2.59
  -2  -2   1   41.68    2.59
   1   2  -1  295.25   17.13
  -1  -2   1  284.02   17.13
   0   2  -1   84.34    4.86
   0   2  -1   83.15    4.55
   0  -2   1   82.32    4.86
   0  -2   1   78.50    4.55
  -1   2  -1   84.31    4.80
  -1   2  -1   79.81    4.51
   1  -2   1   80.81    4.80
   1  -2   1   80.36    4.51
  -2   2  -1  237.64   12.63
  -2   2  -1  236.89   13.42
   2  -2   1  211.31   13.42
   2  -2   1  224.47   12.64
  -3   2  -1   24.61    1.33
  -3   2  -1   23.16    1.42
   3  -2   1   22.61    1.41
   3  -2   1   24.44    1.34
  -4   2  -1   21.23    1.45
  -4   2  -1   22.05    1.19
  -4   2  -1   20.44    1.27
   4  -2   1   20.53    1.19
   4  -2   1   19.65    1.25
  -5   2  -1   99.86    6.06
   5  -2   1  106.23    5.68
   5  -2   1  100.03    6.03
  -6   2  -1   64.52    3.82
   6  -2   1   62.09    3.78
   6  -2   1   64.79    3.57
  -7   2  -1    0.28    0.09
   7  -2   1    0.10    0.07
  -8   2  -1   73.22    4.37
  -9   2  -1   47.53    2.90
   9  -2   1   48.64    2.73
  10  -2   1    1.22    0.23
 -11   2  -1   24.54    1.52
 -10  -1   1   37.20    2.28
 -10  -1   1   42.09    2.47
  -9  -1   1    0.34    0.18
  -9  -1   1    0.68    0.16
  -8  -1   1   40.11    2.31
  -8  -1   1   41.21    2.49
   7   1  -1   45.32    2.49
  -7  -1   1   43.52    2.69
  -6  -1   1    1.07    0.15
  -6  -1   1    1.22    0.17
   5   1  -1   31.40    1.83
  -5  -1   1   30.22    1.98
  -5  -1   1   36.53    1.84
   4   1  -1   74.59    4.15
  -4  -1   1   80.79    4.15
  -4  -1   1   69.62    4.44
  -4  -1   1   73.94    4.44
   3   1  -1   54.93    3.11
  -3  -1   1   54.26    3.33
  -3  -1   1   59.91    3.11
  -3  -1   1   54.62    3.32
   2   1  -1   59.62    3.34
  -2  -1   1   59.94    3.57
  -2  -1   1   61.29    3.57
   1   1  -1  279.51   15.97
  -1  -1   1  260.42   15.96
   0   1  -1    4.05    0.25
   0  -1   1    3.14    0.23
  -1   1  -1  126.65    7.05
   1  -1   1  125.22    6.64
   1  -1   1  106.91    7.05
  -2   1  -1  135.18    7.10
  -2   1  -1  131.19    7.56
   2  -1   1  121.48    7.55
   2  -1   1  123.75    7.11
  -3   1  -1   68.33    4.20
  -3   1  -1   76.60    3.95
   3  -1   1   70.55    3.95
   3  -1   1   68.51    4.19
  -4   1  -1    1.68    0.14
  -4   1  -1    1.81    0.16
   4  -1   1    1.82    0.13
  -5   1  -1   81.34    4.64
  -5   1  -1   76.17    4.62
   5  -1   1   76.48    4.35
  -6   1  -1   99.73    5.72
   6  -1   1   92.72    5.36
  -7   1  -1    2.89    0.25
   7  -1   1    2.65    0.22
  -8   1  -1   57.24    3.49
   8  -1   1   59.34    3.28
  -9   1  -1   22.22    1.41
   9  -1   1   22.75    1.31
 -10   1  -1    0.65    0.21
  10  -1   1    0.34    0.12
 -10   0   1   28.85    1.74
 -10   0   1   25.64    1.61
  -9   0   1    1.43    0.28
  -9   0   1    1.58    0.30
  -8   0   1   46.58    2.66
  -8   0   1   47.11    2.84
   7   0  -1   58.44    3.23
   7   0  -1   58.74    3.98
  -7   0   1   56.00    3.46
   6   0  -1   16.23    1.14
   6   0  -1   16.17    0.92
  -6   0   1   15.38    1.00
   5   0  -1   33.97    2.18
  -5   0   1   38.69    2.21
  -5   0   1   37.85    2.05
  -5   0   1   35.74    2.20
   4   0  -1  206.58   11.88
   4   0  -1  202.82   12.65
  -4   0   1  233.88   11.88
   3   0  -1  138.06    8.21
   3   0  -1  134.27    7.70
  -3   0   1  142.67    8.21
  -3   0   1  141.05    7.70
   2   0  -1   99.45    6.08
   2   0  -1  107.16    6.48
  -2   0   1  106.70    6.08
  -2   0   1  119.95    6.08
  -2   0   1  115.77    6.48
   1   0  -1  277.41   17.10
   1   0  -1  295.82   16.05
  -1   0   1  295.93   16.05
  -1   0  -1   33.20    1.99
  -1   0  -1   36.82    1.87
   1   0   1   33.67    1.87
   1   0   1   28.61    2.29
   1   0   1   34.26    1.99
  -2   0  -1  120.40    7.33
   2   0   1  129.01    6.90
   2   0   1  112.91    8.44
   2   0   1  134.61    7.34
  -3   0  -1  217.76   11.39
  -3   0  -1  211.57   12.12
   3   0   1  188.51   13.95
   3   0   1  204.79   11.40
  -4   0  -1   18.44    1.06
  -4   0  -1   19.06    1.00
  -4   0  -1   17.15    1.06
   4   0   1   15.27    1.22
   4   0   1   17.23    0.99
  -5   0  -1  224.79   11.38
  -5   0  -1  195.91   12.11
  -5   0  -1  214.97   12.12
   5   0   1  183.11   13.94
   5   0   1  207.40   11.37
  -6   0  -1   83.00    4.88
   6   0   1   78.88    5.62
   6   0   1   84.41    4.58
  -7   0  -1    2.05    0.23
   7   0   1    2.27    0.19
  -8   0  -1   26.16    1.68
   8   0   1   28.10    1.56
  -9   0  -1   36.42    2.24
 -10   0  -1    3.87    0.46
  10   0   1    4.43    0.36
 -11   1   1   27.45    1.77
 -11   1   1   31.38    1.88
 -10   1   1   14.97    1.03
 -10   1   1   17.07    1.08
  -9   1   1    0.35    0.14
  -9   1   1    0.86    0.24
  -8   1   1   29.25    1.76
  -8   1   1   27.72    1.65
   7  -1  -1  103.86    5.77
   7  -1  -1  101.53    6.13
  -7   1   1  100.89    6.15
  -7   1   1  107.83    5.79
   6  -1  -1   46.79    2.60
   6  -1  -1   46.03    2.77
   5  -1  -1   66.28    3.80
  -5   1   1   65.94    3.80
  -5   1   1   72.61    4.07
   4  -1  -1  252.98   15.24
   4  -1  -1  248.49   14.33
  -4   1   1  252.81   14.32
  -4   1   1  280.06   15.26
   3  -1  -1   87.08    5.40
   3  -1  -1   90.34    5.07
  -3   1   1   94.04    5.07
  -3   1   1   93.67    5.41
   2  -1  -1  198.73   11.82
  -2   1   1  201.78   11.11
   1  -1  -1  155.54    9.88
   1  -1  -1  175.33    9.27
  -1   1   1  170.27    9.87
  -1   1   1  167.28    9.28
   0  -1  -1   79.95    4.44
   0  -1  -1   82.58    4.73
   0   1   1   84.39    4.73
   0   1   1   73.76    4.45
  -1  -1  -1    2.09    0.14
  -1  -1  -1    2.00    0.15
   1   1   1    2.26    0.15
   1   1   1    2.09    0.14
  -2  -1  -1  221.32   11.63
  -2  -1  -1  202.63   12.39
   2   1   1  201.52   11.63
   2   1   1  213.59   12.37
  -3  -1  -1  231.34   11.64
  -3  -1  -1  191.56   12.39
   3   1   1  222.91   12.39
   3   1   1  194.74   11.63
  -4  -1  -1   25.87    1.34
  -4  -1  -1   21.16    1.42
  -4  -1  -1   22.00    1.43
   4   1   1   23.40    1.33
   4   1   1   25.25    1.43
  -5  -1  -1  131.85    6.53
  -5  -1  -1  110.51    6.95
  -5  -1  -1  109.74    6.95
  -6  -1  -1   59.83    3.72
   6   1   1   62.87    4.28
   6   1   1   63.67    3.47
  -7  -1  -1    0.27    0.13
   7   1   1    0.26    0.07
  -8  -1  -1   20.49    1.33
   8   1   1   21.52    1.21
   9   1   1   26.79    1.54
 -10  -1  -1    7.49    0.66
 -11   2   1    8.39    0.70
 -11   2   1    9.18    0.71
 -10   2   1   24.79    1.56
 -10   2   1   24.34    1.48
  -9   2   1    9.99    0.67
  -9   2   1    9.89    0.69
   8  -2  -1   31.98    1.89
  -8   2   1   30.45    1.81
   7  -2  -1   64.68    3.68
   7  -2  -1   67.19    3.91
  -7   2   1   65.06    3.69
   6  -2  -1    8.51    0.55
   6  -2  -1    8.32    0.52
  -6   2   1    8.96    0.54
   5  -2  -1   58.95    3.72
   5  -2  -1   59.47    3.50
  -5   2   1   68.14    3.76
  -5   2   1   64.40    3.51
   4  -2  -1  127.85    7.84
   4  -2  -1  126.46    7.36
  -4   2   1  135.65    7.37
  -4   2   1  128.74    7.36
  -4   2   1  144.29    7.86
   3  -2  -1   52.32    3.14
  -3   2   1   55.07    2.95
  -3   2   1   53.75    2.94
  -3   2   1   47.84    3.59
  -3   2   1   55.27    3.15
   2  -2  -1    5.43    0.35
  -2   2   1    5.38    0.35
  -2   2   1    4.87    0.31
   1  -2  -1   25.01    1.60
  -1   2   1   27.81    1.60
  -1   2   1   26.65    1.50
   0  -2  -1  211.10   12.66
   0  -2  -1  215.45   11.89
   0   2   1  225.81   12.67
   0   2   1  205.71   11.89
  -1  -2  -1    0.33    0.05
   1   2   1    0.23    0.04
   1   2   1    0.34    0.07
  -2  -2  -1  156.61    8.42
  -2  -2  -1  148.71    8.98
   2   2   1  159.16    8.97
   2   2   1  142.83    8.41
  -3  -2  -1  100.55    5.21
  -3  -2  -1   88.19    5.56
   3   2   1   89.53    5.20
   3   2   1   96.74    5.55
  -4  -2  -1    5.47    0.41
  -4  -2  -1    6.60    0.37
   4   2   1    5.50    0.36
   4   2   1    6.33    0.41
  -5  -2  -1   31.63    2.14
  -5  -2  -1   40.25    2.00
   5   2   1   34.24    1.98
  -6  -2  -1   36.11    2.38
  -6  -2  -1   43.08    2.23
   6   2   1   38.59    2.20
  -7  -2  -1    0.42    0.16
   7   2   1    0.43    0.14
   7   2   1    0.52    0.12
  -8  -2  -1   29.66    1.94
   8   2   1   32.16    2.21
   8   2   1   31.45    1.77
  -9  -2  -1   65.03    3.95
 -11   3   1   15.94    1.07
 -10   3   1   46.68    2.64
 -10   3   1   44.67    2.78
   9  -3  -1    7.53    0.51
  -9   3   1    7.19    0.54
   8  -3  -1   36.42    2.17
  -8   3   1   35.63    2.07
   7  -3  -1   78.64    4.59
  -7   3   1   75.90    4.34
   6  -3  -1   21.44    1.34
  -6   3   1   22.68    1.28
   5  -3  -1   20.35    1.32
  -5   3   1   23.99    1.37
  -5   3   1   21.26    1.25
  -4   3   1   76.40    4.21
  -4   3   1   80.64    4.51
  -4   3   1   69.74    5.13
   3  -3  -1   49.51    3.06
  -3   3   1   54.10    3.07
  -3   3   1   50.55    2.86
   2  -3  -1   12.31    0.79
  -2   3   1   12.92    0.73
  -2   3   1   13.92    0.80
  -2   3   1   11.72    0.73
   1  -3  -1  144.84    7.57
   1  -3  -1  127.44    8.07
  -1   3   1  147.49    8.07
  -1   3   1  125.68    7.56
   0  -3  -1  202.61   10.95
   0   3   1  192.96   10.95
  -1  -3  -1    9.44    0.55
  -1  -3  -1    9.24    0.61
   1   3   1   10.42    0.60
   1   3   1    8.83    0.54
  -2  -3  -1  140.09    8.52
  -2  -3  -1  142.57    7.98
   2   3   1  155.72    8.51
   2   3   1  137.55    7.97
  -3  -3  -1   45.20    2.85
  -3  -3  -1   49.97    2.65
   3   3   1   46.91    2.64
  -4  -3  -1    5.01    0.30
  -4  -3  -1    4.70    0.35
   4   3   1    4.08    0.27
  -5  -3  -1   45.42    3.02
  -5  -3  -1   56.12    2.82
   5   3   1   48.71    2.79
  -6  -3  -1   94.61    5.81
   6   3   1   99.96    5.41
  -7  -3  -1    8.05    0.63
   7   3   1    8.77    0.51
  -8  -3  -1   30.76    2.08
   8   3   1   35.88    2.37
  -9  -3  -1   40.96    2.67
   9   3   1   44.80    3.03
 -11   4   1   10.93    0.82
  10  -4  -1   43.19    2.58
 -10   4   1   42.06    2.48
   9  -4  -1    3.85    0.33
   8  -4  -1   12.83    0.82
  -8   4   1   12.68    0.80
   7  -4  -1   41.33    2.53
  -7   4   1   42.89    2.40
   6  -4  -1   33.46    2.02
   5  -4  -1    4.61    0.33
  -5   4   1    4.52    0.31
  -5   4   1    4.56    0.35
   4  -4  -1   92.63    5.67
  -4   4   1   98.41    5.32
   3  -4  -1   66.63    4.15
  -3   4   1   67.48    3.89
  -3   4   1   75.37    4.17
   2  -4  -1    7.95    0.55
  -2   4   1    9.43    0.56
  -2   4   1    8.24    0.50
  -2   4   1    8.16    0.50
   1  -4  -1  166.56    8.28
   1  -4  -1  135.31    8.82
  -1   4   1  160.26    8.82
  -1   4   1  139.75    8.26
  -1   4   1  143.93    8.26
   0  -4  -1   96.02    5.23
   0  -4  -1   88.06    5.59
   0   4   1   92.04    5.23
   0   4   1  100.75    5.59
  -1  -4  -1   10.80    0.61
   1   4   1   10.05    0.60
  -2  -4  -1   61.99    3.72
  -2  -4  -1   62.82    3.46
   2   4   1   61.49    3.45
  -3  -4  -1  120.42    6.79
  -3  -4  -1  120.70    7.28
   3   4   1  126.09    6.78
  -4  -4  -1   45.70    2.71
  -4  -4  -1   47.84    2.94
   4   4   1   51.68    2.70
  -5  -4  -1   25.58    1.70
  -5  -4  -1   28.83    1.55
  -6  -4  -1  103.51    6.48
   6   4   1  113.00    6.01
  -7  -4  -1    7.65    0.62
  -8  -4  -1   20.15    1.40
   8   4   1   21.56    1.54
  10  -5  -1   18.08    1.13
 -10   5   1   17.41    1.13
  -9   5   1    3.01    0.33
   8  -5  -1    5.95    0.43
  -8   5   1    5.79    0.44
   7  -5  -1   46.07    2.77
   6  -5  -1   30.31    1.86
  -6   5   1   30.93    2.11
   5  -5  -1    8.73    0.59
  -5   5   1    9.03    0.55
   4  -5  -1  129.01    7.74
  -4   5   1  132.04    7.26
   3  -5  -1   80.20    4.89
  -3   5   1   84.12    4.58
   2  -5  -1   10.57    0.72
  -2   5   1   11.65    0.66
  -2   5   1   11.15    0.65
   1  -5  -1  138.62    8.70
  -1   5   1  155.07    8.15
   0  -5  -1   95.50    4.97
   0  -5  -1   83.73    5.32
   0   5   1   88.96    4.96
   0   5   1   88.69    4.96
  -1  -5  -1    1.21    0.18
  -1  -5  -1    1.33    0.13
   1   5   1    1.17    0.10
  -2  -5  -1   73.22    4.40
  -2  -5  -1   75.80    4.08
   2   5   1   70.93    4.07
  -3  -5  -1  100.43    6.39
   3   5   1  113.66    5.94
  -4  -5  -1    1.51    0.25
  -5  -5  -1   59.07    3.59
  -6  -5  -1   52.24    3.21
  -7  -5  -1    5.62    0.57
  -8  -5  -1    5.26    0.62
  10  -6  -1   15.00    1.00
 -10   6   1   14.70    0.97
   9  -6  -1    8.18    0.58
  -9   6   1    7.94    0.59
  -8   6   1    3.46    0.34
   7  -6  -1   47.83    2.89
  -7   6   1   48.13    2.74
   6  -6  -1   42.81    2.59
   5  -6  -1    1.40    0.22
  -5   6   1    1.73    0.18
   4  -6  -1   88.77    5.40
  -4   6   1   92.47    5.06
   3  -6  -1   34.67    2.15
  -3   6   1   35.92    1.99
   2  -6  -1    0.18    0.09
  -2   6   1    0.14    0.05
   1  -6  -1   37.30    2.39
  -1   6   1   41.20    2.20
   0  -6  -1   87.04    5.56
   0   6   1   98.99    5.18
  -1  -6  -1    4.96    0.41
   1   6   1    4.89    0.31
   1   6   1    5.31    0.32
  -2  -6  -1   74.37    4.50
  -2  -6  -1   76.68    4.17
   2   6   1   73.38    4.15
  -3  -6  -1   79.90    4.81
  -4  -6  -1    3.36    0.38
  -6  -6  -1   33.67    2.14
  -7  -6  -1    5.88    0.63
  -9   7   1   19.34    1.20
   8  -7  -1    1.75    0.30
  -8   7   1    1.85    0.27
   7  -7  -1   55.35    3.30
  -7   7   1   53.98    3.10
  -6   7   1   22.77    1.33
   5  -7  -1    4.48    0.39
   4  -7  -1   25.97    1.63
  -4   7   1   26.29    1.50
   3  -7  -1   31.33    1.97
  -3   7   1   32.66    1.82
   2  -7  -1    9.48    0.68
  -2   7   1   10.10    0.59
   1  -7  -1   43.24    2.67
  -1   7   1   44.40    2.46
   0   7   1   74.69    4.16
  -2  -7  -1   23.06    1.49
  -3  -7  -1   57.66    3.53
  -4  -7  -1   10.33    0.80
  -5  -7  -1    7.27    0.66
  -6  -7  -1   31.97    2.08
   9  -8  -1   14.57    0.97
  -9   8   1   13.52    0.91
   8  -8  -1    1.29    0.24
  -8   8   1    1.17    0.27
   7  -8  -1   27.67    1.75
  -7   8   1   27.90    1.63
   6  -8  -1   13.22    0.86
  -6   8   1   11.59    0.77
   5  -8  -1    0.41    0.17
  -5   8   1    0.33    0.09
   4  -8  -1   32.88    2.04
   3  -8  -1   55.43    3.36
  -3   8   1   55.08    3.10
   2  -8  -1    3.08    0.33
  -2   8   1    2.56    0.22
   1  -8  -1   35.79    2.20
  -1   8   1   34.97    1.99
   0  -8  -1   48.09    2.92
   0   8   1   46.76    2.65
   1   8   1    2.99    0.21
  -2  -8  -1   27.44    1.78
  -3  -8  -1   22.24    1.49
  -4  -8  -1   11.15    0.88
  -5  -8  -1    2.22    0.51
   8  -9  -1    0.30    0.25
  -8   9   1    0.30    0.16
   7  -9  -1   19.53    1.29
  -7   9   1   19.17    1.17
   6  -9  -1   37.82    2.35
  -6   9   1   37.50    2.16
   5  -9  -1    3.01    0.40
  -5   9   1    2.38    0.26
   4  -9  -1   31.18    1.98
  -4   9   1   31.75    1.80
   3  -9  -1   36.25    2.27
   2  -9  -1    1.81    0.33
  -2   9   1    1.68    0.19
   1  -9  -1   50.53    3.05
  -1   9   1   48.22    2.76
   0  -9  -1   55.93    3.44
  -1  -9  -1    4.52    0.50
  -2  -9  -1    8.57    0.75
  -3  -9  -1   57.02    3.55
   6 -10  -1   11.37    0.87
  -6  10   1   11.10    0.73
   5 -10  -1    0.78    0.28
  -5  10   1    0.50    0.14
   4 -10  -1   19.14    1.28
  -4  10   1   18.36    1.11
   3 -10  -1   39.57    2.47
  -3  10   1   38.87    2.23
   2 -10  -1    4.38    0.51
   1 -10  -1   10.48    0.84
   0 -10  -1   28.10    1.87
  -1 -10  -1   17.36    1.26
  -1 -11   2   14.85    1.14
   0 -11   2   34.48    2.23
   1 -11   2   13.43    1.01
   2 -11   2    1.50    0.32
  -3  11  -2   24.68    1.49
   3 -11   2   27.53    1.70
  -4  11  -2   24.07    1.46
   4 -11   2   26.56    1.65
  -5  11  -2    0.02    0.13
   5 -11   2   -0.09    0.25
  -3 -10   2   50.34    3.18
  -2 -10   2    7.98    0.74
  -1 -10   2    8.33    0.72
   0 -10   2   26.76    1.75
   1 -10   2   21.92    1.44
  -2  10  -2    0.38    0.09
   2 -10   2    0.15    0.21
   3 -10   2   43.04    2.66
  -4  10  -2   54.30    3.06
  -5  10  -2    0.48    0.12
  -6  10  -2   32.42    1.93
   6 -10   2   34.46    2.11
  -7  10  -2   28.49    1.78
   7 -10   2   32.61    1.92
  -5  -9   2   12.88    1.05
  -4  -9   2    8.47    0.76
  -3  -9   2   39.68    2.52
  -2  -9   2   18.72    1.28
  -1  -9   2    1.63    0.33
   0  -9   2   49.86    3.07
  -1   9  -2   50.05    2.85
   1  -9   2   52.04    3.12
  -2   9  -2    6.59    0.42
   2  -9   2    6.94    0.53
  -3   9  -2   47.48    2.76
   3  -9   2   50.75    3.00
  -5   9  -2    1.58    0.21
  -6   9  -2   11.16    0.72
   6  -9   2   11.32    0.79
  -7   9  -2   15.57    1.03
   7  -9   2   18.01    1.10
  -8   9  -2    6.03    0.49
  -6  -8   2   50.90    3.21
  -5  -8   2   16.31    1.18
  -4  -8   2    8.91    0.74
  -3  -8   2   34.36    2.18
  -2  -8   2   48.66    3.00
  -1  -8   2    0.29    0.16
   0   8  -2   87.20    4.84
  -1   8  -2   90.77    4.99
   1  -8   2   88.85    5.38
  -2   8  -2    0.25    0.06
   2  -8   2    0.21    0.12
  -3   8  -2   44.16    2.52
   3  -8   2   45.55    2.72
  -4   8  -2   52.79    2.99
   4  -8   2   53.46    3.21
   5  -8   2    2.14    0.27
  -6   8  -2   12.52    0.80
   6  -8   2   13.42    0.86
  -7   8  -2   35.92    2.18
   7  -8   2   39.99    2.31
  -8   8  -2    4.94    0.42
   8  -8   2    4.89    0.41
  -9   8  -2    9.92    0.70
  -7  -7   2   13.89    1.08
  -6  -7   2   34.90    2.24
  -5  -7   2   19.00    1.30
  -4  -7   2    1.70    0.33
  -1  -7   2    1.09    0.21
   0   7  -2  111.55    5.64
   0   7  -2   97.56    5.63
   0  -7   2   95.59    6.06
  -1   7  -2   58.84    3.11
  -1   7  -2   53.56    3.11
   1  -7   2   54.85    3.36
  -2   7  -2    1.00    0.11
   2  -7   2    0.77    0.16
  -3   7  -2   24.99    1.44
   3  -7   2   25.43    1.55
  -4   7  -2   71.70    4.13
   4  -7   2   72.61    4.41
   4  -7   2   77.18    4.13
  -5   7  -2   22.83    1.38
   5  -7   2   24.14    1.47
   5  -7   2   24.26    1.38
  -6   7  -2   24.23    1.48
   6  -7   2   25.58    1.56
   6  -7   2   26.51    1.48
  -7   7  -2   75.32    4.54
   7  -7   2   82.78    4.54
   7  -7   2   83.65    4.80
  -8   7  -2    3.78    0.37
   8  -7   2    4.44    0.35
   8  -7   2    4.38    0.35
  -9   7  -2   15.79    1.01
 -10   7  -2   28.80    1.74
  -8  -6   2   11.42    0.94
  -7  -6   2    4.20    0.51
  -6  -6   2   37.02    2.33
  -5  -6   2   40.76    2.53
  -4  -6   2    1.32    0.25
  -2  -6   2   46.66    2.84
  -1  -6   2    8.45    0.59
   0   6  -2   71.26    4.04
   0   6  -2   79.04    4.05
   0  -6   2   68.03    4.35
  -1   6  -2   45.95    2.59
  -1   6  -2   49.63    2.59
   1  -6   2   43.51    2.79
  -2   6  -2    5.07    0.31
  -2   6  -2    4.85    0.31
   2  -6   2    4.74    0.30
   2  -6   2    4.53    0.34
   3  -6   2   34.16    1.86
   3  -6   2   31.45    1.98
   4  -6   2  150.65    8.00
   4  -6   2  137.05    8.51
   5  -6   2    7.55    0.48
   5  -6   2    7.37    0.50
   6  -6   2   54.71    3.35
   6  -6   2   57.62    3.17
   7  -6   2   68.50    4.07
   8  -6   2   19.33    1.19
   8  -6   2   20.43    1.22
   9  -6   2    1.68    0.24
 -10   6  -2   21.31    1.39
  10  -6   2   23.98    1.37
  -8  -5   2   18.52    1.29
  -7  -5   2    1.32    0.35
  -6  -5   2   66.28    4.03
  -5  -5   2   52.64    3.21
  -4  -5   2    8.06    0.59
  -3  -5   2  112.79    6.72
  -2  -5   2   55.41    3.34
  -1  -5   2    2.20    0.21
   0   5  -2   68.38    3.59
   0   5  -2   63.80    3.58
   0  -5   2   61.52    3.85
  -1   5  -2  129.81    7.34
  -1   5  -2  127.40    6.87
   1  -5   2  115.27    7.33
   1  -5   2  122.95    6.87
  -2   5  -2   46.86    2.53
  -2   5  -2   47.55    2.70
   2  -5   2   40.94    2.69
  -3   5  -2  111.50    6.30
   3  -5   2  109.37    5.91
   3  -5   2   97.95    6.29
  -4   5  -2  244.08   13.84
   4  -5   2  234.42   13.00
   4  -5   2  224.89   13.83
  -5   5  -2   10.95    0.68
   5  -5   2    9.77    0.62
  -6   5  -2   45.51    2.59
   6  -5   2   40.32    2.55
   7  -5   2   44.86    2.68
   8  -5   2    6.97    0.51
   8  -5   2    8.12    0.50
   9  -5   2    7.89    0.54
  10  -5   2   29.78    1.75
  -9  -4   2   31.65    2.05
  -8  -4   2   24.67    1.61
  -7  -4   2    1.13    0.29
  -6  -4   2   60.21    3.65
  -5  -4   2   50.77    3.08
  -4  -4   2    1.69    0.21
  -3  -4   2   81.77    4.88
  -2  -4   2  208.09   12.30
   1   4  -2   65.18    3.88
   0   4  -2  108.90    6.27
   0   4  -2  112.89    5.87
   0  -4   2   97.92    6.27
   0  -4   2  103.92    5.87
  -1   4  -2  291.52   16.61
  -1   4  -2  290.18   15.60
   1  -4   2  276.44   16.61
   1  -4   2  268.90   15.62
  -2   4  -2   60.70    3.25
  -2   4  -2   61.28    3.46
   2  -4   2   54.10    3.46
   2  -4   2   57.04    3.25
  -3   4  -2   82.97    4.70
  -3   4  -2   80.65    4.42
   3  -4   2   73.54    4.70
   3  -4   2   80.39    4.42
  -4   4  -2   70.55    3.91
   4  -4   2   61.18    3.90
   4  -4   2   65.69    3.68
  -5   4  -2   16.70    1.00
   5  -4   2   15.60    0.98
  -6   4  -2    0.96    0.22
   6  -4   2    0.86    0.13
   6  -4   2    0.86    0.11
  -7   4  -2   44.30    2.70
   7  -4   2   44.71    2.65
   8  -4   2   77.75    4.61
   8  -4   2   78.01    4.38
  -9   4  -2    0.52    0.15
   9  -4   2    0.26    0.12
  10  -4   2   39.53    2.28
  10   3  -2    1.42    0.38
 -10  -3   2    1.33    0.34
  -9  -3   2   57.56    3.53
  -8  -3   2   41.67    2.58
  -7  -3   2    3.15    0.34
  -7  -3   2    3.10    0.26
  -6  -3   2   99.90    4.95
  -6  -3   2   84.93    5.33
  -6  -3   2   82.22    4.95
  -5  -3   2   66.37    3.98
  -4  -3   2    1.33    0.17
   3   3  -2  149.21    8.02
  -3  -3   2  121.74    8.02
   2   3  -2  128.59    7.06
  -2  -3   2  110.08    7.06
   1   3  -2   20.95    1.27
   0   3  -2  203.88   11.33
   0   3  -2  199.95   10.64
   0  -3   2  182.31   10.64
   0  -3   2  182.21   11.33
  -1   3  -2  341.99   19.53
  -1   3  -2  340.59   18.34
   1  -3   2  322.71   18.35
   1  -3   2  317.71   19.52
  -2   3  -2   39.60    2.12
  -2   3  -2   38.57    2.25
   2  -3   2   36.15    2.25
   2  -3   2   37.14    2.12
  -3   3  -2  125.59    6.66
   3  -3   2  113.60    7.07
   3  -3   2  120.49    6.66
  -4   3  -2  109.58    6.18
   4  -3   2  103.14    5.82
   4  -3   2  100.64    6.17
  -5   3  -2   92.21    5.37
   5  -3   2   89.58    5.05
   5  -3   2   89.85    5.35
  -6   3  -2    1.59    0.23
   6  -3   2    1.40    0.13
   6  -3   2    1.43    0.15
  -7   3  -2   78.40    4.70
   7  -3   2   78.61    4.40
  -8   3  -2   46.77    2.82
   8  -3   2   47.24    2.67
  -9   3  -2    3.07    0.30
  10  -3   2   26.13    1.54
  10   2  -2    3.42    0.44
 -10  -2   2    2.59    0.49
   9   2  -2   43.58    2.71
  -9  -2   2   33.49    2.18
  -9  -2   2   38.15    2.39
  -8  -2   2   17.65    1.13
  -8  -2   2   16.56    1.01
  -7  -2   2    2.14    0.23
  -7  -2   2    1.45    0.19
  -7  -2   2    1.64    0.24
  -6  -2   2   38.73    2.29
  -6  -2   2   45.82    2.30
  -6  -2   2   38.02    2.48
  -5  -2   2   90.13    5.13
  -5  -2   2  101.51    5.13
  -5  -2   2   85.12    5.49
  -4  -2   2   14.16    0.83
  -4  -2   2   13.94    0.92
  -4  -2   2   15.85    0.83
  -3  -2   2  116.75    6.25
  -3  -2   2  110.69    6.25
  -3  -2   2  111.38    6.68
   2   2  -2  247.26   13.67
  -2  -2   2  234.73   13.67
  -2  -2   2  213.18   13.67
   1   2  -2   13.48    0.80
  -1  -2   2   12.89    0.81
   0   2  -2  284.20   16.94
   0   2  -2  294.34   15.90
   0  -2   2  281.62   15.91
   0  -2   2  287.83   16.95
   1  -2   2  119.02    6.96
   1  -2   2  116.40    6.55
  -2   2  -2   55.94    2.92
  -2   2  -2   52.39    3.09
   2  -2   2   50.99    3.09
   2  -2   2   49.99    2.92
  -3   2  -2   20.25    1.18
   3  -2   2   20.03    1.12
   3  -2   2   18.82    1.17
  -4   2  -2  182.25   14.04
  -4   2  -2  226.30   11.48
   4  -2   2  215.75   11.48
   4  -2   2  203.71   12.19
  -5   2  -2  131.81    7.38
  -5   2  -2  116.25    7.40
   5  -2   2  126.95    6.95
  -6   2  -2   21.56    1.28
  -6   2  -2   20.68    1.31
   6  -2   2   21.17    1.22
  -7   2  -2  120.75    7.21
  -7   2  -2  124.83    7.24
   7  -2   2  119.92    6.79
  -8   2  -2   44.49    2.67
  -9   2  -2    4.76    0.38
   9  -2   2    4.29    0.35
  10  -2   2   23.77    1.40
 -10  -1   2    0.97    0.26
 -10  -1   2    1.07    0.21
   9   1  -2   40.75    2.57
  -9  -1   2   33.47    2.08
  -9  -1   2   34.85    2.25
  -8  -1   2   56.71    3.40
  -8  -1   2   55.67    3.17
  -7  -1   2    3.12    0.31
  -7  -1   2    3.51    0.27
  -6  -1   2   56.62    3.61
  -6  -1   2   64.69    3.37
  -6  -1   2   59.40    3.37
  -5  -1   2   93.09    4.83
  -5  -1   2   85.72    4.83
  -5  -1   2   81.58    5.17
  -4  -1   2   37.33    2.24
  -4  -1   2   41.51    2.41
  -4  -1   2   41.27    2.24
   3   1  -2  104.10    6.74
  -3  -1   2  123.52    6.76
  -3  -1   2  113.17    6.76
  -3  -1   2  116.15    6.33
   2   1  -2  135.85    8.29
   2   1  -2  143.90    7.77
  -2  -1   2  148.72    8.29
  -2  -1   2  132.97    7.77
  -1  -1   2   14.05    0.83
  -1  -1   2   13.52    0.78
   0   1  -2    1.61    0.11
   0   1  -2    1.66    0.10
   0  -1   2    1.49    0.11
   0  -1   2    1.53    0.10
  -1   1  -2  109.58    6.09
  -2   1  -2  176.26    9.76
  -3   1  -2   94.39    5.30
  -3   1  -2   84.04    6.11
  -3   1  -2   89.21    5.30
   3  -1   2   91.27    4.99
  -4   1  -2  227.01   13.91
  -4   1  -2  251.46   13.08
  -4   1  -2  229.62   13.92
  -5   1  -2  100.14    5.70
  -5   1  -2   94.41    5.69
   5  -1   2   94.20    5.36
  -6   1  -2    9.51    0.64
  -6   1  -2   11.21    0.68
   6  -1   2    9.96    0.61
  -7   1  -2   91.20    5.52
   7  -1   2   94.65    5.19
  -8   1  -2   50.77    3.12
   8  -1   2   53.29    2.94
  -9   1  -2    2.02    0.29
   9  -1   2    1.77    0.23
  10  -1   2   19.23    1.15
 -11   0   2   15.09    1.04
 -11   0   2   13.77    0.98
 -10   0   2    3.45    0.41
  -9   0   2   24.83    1.59
  -9   0   2   25.52    1.48
   8   0  -2   53.40    3.46
  -8   0   2   48.05    3.02
  -8   0   2   48.28    2.83
   7   0  -2    2.75    0.28
  -7   0   2    2.55    0.23
  -7   0   2    2.36    0.26
   6   0  -2   79.22    4.68
  -6   0   2   76.21    4.70
  -6   0   2   81.25    4.41
   5   0  -2  208.96   12.62
  -5   0   2  218.61   11.85
   4   0  -2    3.72    0.24
  -4   0   2    3.03    0.25
  -4   0   2    3.10    0.21
  -4   0   2    3.35    0.22
   3   0  -2  152.70    9.44
  -3   0   2  163.39    8.86
  -3   0   2  154.62    8.85
  -3   0   2  168.86    9.44
   2   0  -2   14.08    0.92
  -2   0   2   16.11    0.86
   1   0  -2   57.14    3.13
  -1   0   2   54.86    3.13
  -1   0   2   57.35    3.34
   0   0  -2   10.95    0.64
   0   0  -2   11.43    0.68
   0   0   2   11.06    0.64
  -1   0  -2  365.52   21.28
  -1   0  -2  376.46   20.01
  -1   0  -2  322.88   24.48
   1   0   2  377.54   21.27
  -2   0  -2  244.18   12.48
  -2   0  -2  220.64   13.28
   2   0   2  221.86   13.27
   2   0   2  214.56   12.50
  -3   0  -2    0.53    0.07
   3   0   2    0.33    0.07
   3   0   2    0.41    0.07
   3   0   2    0.27    0.09
  -4   0  -2  141.63    8.26
  -4   0  -2  147.45    8.27
   4   0   2  147.10    7.76
   4   0   2  123.46    9.51
  -5   0  -2   77.54    4.51
  -5   0  -2   73.79    4.51
   5   0   2   76.61    4.23
  -6   0  -2    1.46    0.18
  -6   0  -2    1.34    0.23
   6   0   2    1.90    0.16
  -7   0  -2   21.77    1.36
   7   0   2   22.28    1.27
  -8   0  -2   38.87    2.51
   8   0   2   44.20    2.35
  -9   0  -2    9.65    0.69
   9   0   2    9.41    0.60
  10   0   2   18.62    1.11
 -11   1   2   19.01    1.24
 -11   1   2   20.19    1.32
 -10   1   2    0.21    0.20
 -10   1   2    0.26    0.17
  -9   1   2   26.36    1.65
  -9   1   2   26.48    1.56
   8  -1  -2   54.34    3.23
  -8   1   2   52.37    3.26
  -8   1   2   55.55    3.06
   7  -1  -2    8.83    0.57
  -7   1   2    8.87    0.56
   6  -1  -2   56.13    3.34
  -6   1   2   56.10    3.15
   5  -1  -2  129.57    9.88
   5  -1  -2  140.29    8.59
  -5   1   2  147.89    8.08
  -5   1   2  164.27    8.63
   4  -1  -2   30.38    1.91
   4  -1  -2   28.51    2.18
  -4   1   2   32.77    1.79
  -4   1   2   35.57    1.93
  -4   1   2   32.11    1.79
   3  -1  -2   64.53    4.85
   3  -1  -2   71.43    4.23
  -3   1   2   73.80    3.97
  -3   1   2   68.36    3.97
  -3   1   2   79.17    4.25
   2  -1  -2  854.77   56.00
   2  -1  -2 1000.00   52.59
  -2   1   2  993.32   56.02
   1  -1  -2  460.98   24.14
   1  -1  -2  409.37   25.70
  -1   1   2  422.49   24.14
  -1   1   2  449.00   25.72
   0  -1  -2  104.84    6.08
   0   1   2  100.54    5.71
  -1  -1  -2  482.15   27.80
  -1  -1  -2  461.32   26.11
   1   1   2  427.85   26.10
   1   1   2  512.27   27.82
  -2  -1  -2  149.95    9.04
  -2  -1  -2  165.57    8.49
   2   1   2  138.85    8.48
   2   1   2  158.55    9.04
  -3  -1  -2   22.33    1.49
  -3  -1  -2   27.86    1.40
   3   1   2   25.06    1.48
   3   1   2   23.26    1.39
  -4  -1  -2  130.65    6.48
  -4  -1  -2  104.75    6.90
   4   1   2  105.55    6.47
   4   1   2  125.59    6.90
  -5  -1  -2   52.57    3.15
  -5  -1  -2   52.61    3.15
   5   1   2   51.49    3.63
   5   1   2   54.03    2.95
  -6  -1  -2   24.15    1.53
   6   1   2   24.93    1.77
   6   1   2   25.79    1.42
  -7  -1  -2   26.49    1.68
   7   1   2   26.60    1.93
   7   1   2   28.62    1.55
  -8  -1  -2   84.60    5.22
   8   1   2   89.89    4.87
  -9  -1  -2    2.79    0.37
 -11   2   2   22.30    1.48
 -11   2   2   23.34    1.42
 -10   2   2    1.93    0.34
 -10   2   2    1.49    0.33
  -9   2   2   29.59    1.88
  -9   2   2   31.61    1.79
   8  -2  -2   58.20    3.46
  -8   2   2   57.66    3.28
   7  -2  -2    0.72    0.13
  -7   2   2    0.56    0.12
   6  -2  -2   26.62    1.62
  -6   2   2   27.05    1.54
   5  -2  -2   99.15    6.01
  -5   2   2  103.87    5.66
  -4   2   2   52.73    2.97
  -4   2   2   48.32    2.76
  -4   2   2   46.99    2.75
   3  -2  -2    7.95    0.54
  -3   2   2    7.78    0.49
  -3   2   2    9.65    0.56
  -3   2   2    8.60    0.50
   2  -2  -2  104.69    6.52
   2  -2  -2  118.27    6.12
  -2   2   2  110.86    6.52
  -2   2   2  106.62    6.11
   1  -2  -2  101.07    5.51
   1  -2  -2   93.85    5.87
  -1   2   2   97.98    5.50
  -1   2   2  104.17    5.87
   0  -2  -2    5.90    0.40
   0  -2  -2    6.14    0.37
   0   2   2    6.82    0.40
   0   2   2    6.10    0.37
  -1  -2  -2  381.72   22.38
  -1  -2  -2  372.97   20.98
   1   2   2  346.16   21.00
   1   2   2  414.63   22.35
  -2  -2  -2  111.71    5.82
  -2  -2  -2  100.55    6.21
   2   2   2   97.70    5.81
   2   2   2  109.51    6.20
  -3  -2  -2    0.80    0.13
  -3  -2  -2    0.99    0.11
   3   2   2    0.69    0.12
   3   2   2    0.98    0.09
  -4  -2  -2   64.92    3.19
  -4  -2  -2   51.81    3.40
   4   2   2   53.97    3.17
  -5  -2  -2  172.10    8.32
  -5  -2  -2  130.40    8.86
   5   2   2  146.35    8.30
  -6  -2  -2    9.48    0.66
   6   2   2    9.88    0.58
  -7  -2  -2   64.94    4.13
   7   2   2   72.02    4.76
   7   2   2   69.64    3.85
  -8  -2  -2   48.90    3.15
   8   2   2   52.61    2.92
   8   2   2   54.16    3.62
  -9  -2  -2    5.71    0.55
 -11   3   2   35.33    2.19
 -11   3   2   34.83    2.08
  10  -3  -2    1.57    0.24
 -10   3   2    1.94    0.34
  -9   3   2   16.57    1.03
   8  -3  -2   47.06    2.84
  -8   3   2   47.56    2.70
   7  -3  -2   30.63    1.88
  -7   3   2   31.55    1.79
   6  -3  -2    8.60    0.53
  -6   3   2    7.50    0.51
   5  -3  -2  131.09    8.16
  -5   3   2  144.88    7.67
   4  -3  -2   12.67    0.82
  -4   3   2   13.43    0.76
   3  -3  -2   15.59    1.00
  -3   3   2   16.24    0.93
  -3   3   2   16.77    1.01
   2  -3  -2  187.78    9.87
   2  -3  -2  165.69   10.52
  -2   3   2  183.69   10.52
  -2   3   2  174.92    9.86
   1  -3  -2   63.84    3.58
  -1   3   2   60.80    3.58
  -1   3   2   68.40    3.83
   0  -3  -2   28.87    1.68
   0   3   2   28.63    1.68
   0   3   2   31.91    1.81
  -1  -3  -2   73.79    4.12
  -1  -3  -2   68.80    4.41
   1   3   2   71.99    4.12
   1   3   2   81.87    4.41
  -2  -3  -2   54.73    3.04
  -2  -3  -2   55.51    3.26
   2   3   2   58.08    3.25
   2   3   2   49.69    3.03
  -3  -3  -2   32.29    1.71
  -3  -3  -2   28.20    1.84
   3   3   2   29.91    1.69
  -4  -3  -2  138.43    6.82
  -4  -3  -2  111.35    7.28
   4   3   2  118.07    6.80
  -5  -3  -2  189.23    9.34
  -5  -3  -2  152.49    9.96
   5   3   2  162.11    9.31
  -6  -3  -2    3.15    0.33
   6   3   2    3.51    0.24
  -7  -3  -2   43.05    2.77
   7   3   2   45.29    2.54
   7   3   2   47.61    3.17
  -8  -3  -2   38.98    2.49
   8   3   2   41.35    2.83
  -9  -3  -2    2.94    0.51
  11  -4  -2   21.53    1.30
 -11   4   2   19.61    1.34
 -11   4   2   20.03    1.30
  10  -4  -2    3.95    0.36
 -10   4   2    4.00    0.43
   9  -4  -2    6.06    0.44
  -9   4   2    5.48    0.46
   8  -4  -2   67.82    4.05
  -8   4   2   67.74    3.83
   7  -4  -2   25.05    1.56
  -7   4   2   25.77    1.48
   6  -4  -2   16.96    1.09
  -6   4   2   17.98    1.03
   5  -4  -2  120.35    7.32
  -5   4   2  126.61    6.87
   4  -4  -2   61.30    3.80
  -4   4   2   65.83    3.56
   3  -4  -2    1.08    0.15
  -3   4   2    1.04    0.11
   2  -4  -2  182.28   11.67
   2  -4  -2  222.46   10.96
  -2   4   2  190.93   10.94
  -2   4   2  194.55   10.95
   1  -4  -2   81.10    4.36
  -1   4   2   75.26    4.35
   0  -4  -2    2.64    0.20
   0   4   2    2.80    0.18
  -1  -4  -2   75.01    4.49
  -1  -4  -2   78.22    4.19
   1   4   2   72.61    4.18
  -2  -4  -2  129.39    7.53
  -2  -4  -2  126.65    7.03
   2   4   2  124.08    7.02
  -3  -4  -2    3.20    0.29
  -3  -4  -2    3.26    0.25
   3   4   2    3.10    0.20
  -4  -4  -2   74.59    4.59
  -4  -4  -2   75.09    4.28
   4   4   2   80.02    4.26
  -5  -4  -2   55.37    3.36
  -6  -4  -2    7.79    0.62
   6   4   2    8.19    0.49
  -7  -4  -2   14.15    0.99
  -8  -4  -2   38.90    2.52
   8   4   2   41.56    2.84
  10  -5  -2    7.84    0.60
 -10   5   2    8.68    0.63
   9  -5  -2    7.18    0.51
  -9   5   2    6.25    0.51
  -8   5   2   66.42    3.79
   7  -5  -2   20.65    1.29
   6  -5  -2   13.22    0.86
   5  -5  -2   86.96    5.26
  -5   5   2   89.64    4.93
   4  -5  -2   43.83    2.64
  -4   5   2   43.47    2.46
   3  -5  -2    0.95    0.16
  -3   5   2    0.54    0.10
   2  -5  -2   67.49    4.17
  -2   5   2   72.09    3.89
   1  -5  -2  124.36    8.00
   1  -5  -2  145.12    7.50
  -1   5   2  135.22    7.49
   0  -5  -2   19.30    1.28
   0  -5  -2   21.81    1.18
  -1  -5  -2  115.75    6.91
  -1  -5  -2  117.06    6.45
   1   5   2  115.39    6.44
  -2  -5  -2  168.96    9.95
  -2  -5  -2  168.70    9.30
   2   5   2  165.27    9.29
  -3  -5  -2   12.68    0.78
  -3  -5  -2   13.25    0.89
   3   5   2   13.67    0.76
  -4  -5  -2   45.34    2.84
   4   5   2   47.05    2.58
  -5  -5  -2   62.23    3.96
   5   5   2   68.33    3.64
  -6  -5  -2   13.28    0.94
  -7  -5  -2    4.05    0.50
  10  -6  -2    5.68    0.49
 -10   6   2    5.62    0.50
  -9   6   2    8.06    0.58
   8  -6  -2   30.75    1.92
  -8   6   2   31.56    1.82
  -7   6   2    6.73    0.47
   6  -6  -2    4.00    0.36
  -6   6   2    4.08    0.31
   5  -6  -2   52.87    3.24
  -5   6   2   54.28    3.02
   4  -6  -2   64.13    3.89
  -4   6   2   65.03    3.62
   3  -6  -2    0.29    0.11
  -3   6   2    0.23    0.06
   2  -6  -2  143.67    8.79
  -2   6   2  152.42    8.22
   1  -6  -2  128.94    7.92
  -1   6   2  137.30    7.39
   0  -6  -2    0.51    0.14
   0   6   2    0.28    0.06
  -1  -6  -2   71.85    4.44
  -1  -6  -2   75.84    4.12
   1   6   2   73.43    4.10
  -2  -6  -2   56.07    3.32
  -2  -6  -2   55.79    3.06
   2   6   2   51.96    3.04
  -3  -6  -2    5.63    0.47
   3   6   2    5.34    0.33
  -4  -6  -2    9.63    0.73
  -5  -6  -2   42.41    2.64
  -6  -6  -2   24.53    1.62
  -7  -6  -2    1.91    0.52
   9  -7  -2    4.58    0.46
  -9   7   2    4.34    0.42
  -8   7   2   33.71    1.96
   7  -7  -2   29.72    1.86
  -7   7   2   30.14    1.74
   6  -7  -2    0.27    0.16
  -6   7   2    0.21    0.10
  -5   7   2   37.83    2.16
  -4   7   2   69.75    3.91
  -3   7   2    3.92    0.28
  -2   7   2   54.85    3.07
  -1   7   2   68.07    3.80
   0   7   2    5.27    0.34
  -1  -7  -2   19.93    1.30
   1   7   2   19.89    1.13
  -2  -7  -2   60.84    3.63
   2   7   2   58.08    3.31
  -3  -7  -2   18.76    1.27
  -4  -7  -2    6.58    0.61
  -5  -7  -2   49.65    3.10
  -6  -7  -2   18.20    1.31
   9  -8  -2    0.21    0.24
  -9   8   2   -0.09    0.15
   8  -8  -2   19.28    1.25
  -8   8   2   18.61    1.16
   7  -8  -2   27.52    1.73
  -7   8   2   26.84    1.59
   6  -8  -2    0.41    0.20
  -6   8   2    0.40    0.12
   5  -8  -2   31.82    2.05
  -5   8   2   33.55    1.88
   4  -8  -2   47.80    2.99
  -4   8   2   49.95    2.76
   3  -8  -2    0.20    0.17
   2  -8  -2   17.40    1.17
  -2   8   2   17.79    1.02
   1  -8  -2   27.82    1.74
  -1   8   2   26.68    1.55
   0   8   2   10.67    0.64
  -1  -8  -2    5.78    0.55
   1   8   2    6.17    0.38
  -2  -8  -2   60.67    3.73
  -3  -8  -2   26.29    1.74
  -4  -8  -2    6.57    0.68
   7  -9  -2   26.70    1.73
  -7   9   2   26.88    1.58
   6  -9  -2    0.02    0.21
  -6   9   2    0.09    0.12
   5  -9  -2   28.40    1.84
  -5   9   2   29.07    1.67
   4  -9  -2   32.76    2.08
  -4   9   2   33.06    1.89
   3  -9  -2    1.39    0.34
  -3   9   2    1.25    0.19
   2  -9  -2   15.20    1.07
   1  -9  -2   63.99    3.78
  -1   9   2   59.41    3.45
   0  -9  -2   15.69    1.12
  -1  -9  -2    7.55    0.68
  -2  -9  -2   50.97    3.19
  -3  -9  -2   18.77    1.35
  -6  10   2    0.40    0.14
   5 -10  -2   14.11    1.03
  -5  10   2   13.44    0.86
   4 -10  -2   31.69    2.00
  -4  10   2   30.15    1.78
   3 -10  -2    7.65    0.68
  -3  10   2    6.72    0.49
   2 -10  -2   10.68    0.83
  -2  10   2    9.11    0.61
   1 -10  -2   49.08    3.08
   0 -10  -2   16.48    1.21
  -1 -11   3   31.68    2.09
   0 -11   3   16.16    1.17
   1 -11   3    0.36    0.25
   2 -11   3   35.27    2.24
  -3  11  -3   31.24    1.86
   3 -11   3   34.41    2.08
  -4  11  -3    0.35    0.13
   4 -11   3    0.63    0.24
  -5  11  -3   28.25    1.75
   5 -11   3   32.36    1.93
  -6  11  -3   15.88    0.99
  -3 -10   3    9.38    0.85
  -2 -10   3    4.40    0.54
  -1 -10   3   46.24    2.89
   0 -10   3   40.16    2.52
   1 -10   3    0.97    0.24
  -2  10  -3   59.51    3.33
   3 -10   3   43.52    2.68
  -4  10  -3    1.54    0.21
   4 -10   3    1.64    0.33
  -5  10  -3   29.93    1.81
   5 -10   3   33.20    1.97
  -6  10  -3   33.08    2.05
   6 -10   3   38.18    2.21
  -7  10  -3    5.38    0.46
  -5  -9   3    5.09    0.66
  -4  -9   3   42.09    2.68
  -3  -9   3   27.73    1.82
  -2  -9   3    1.76    0.36
  -1  -9   3   65.05    4.01
   0  -9   3   59.37    3.62
  -1   9  -3    4.66    0.33
   1  -9   3    6.27    0.46
  -2   9  -3   80.17    4.47
  -3   9  -3   46.99    2.65
   4  -9   3    3.45    0.34
  -5   9  -3   17.17    0.99
   5  -9   3   16.02    1.08
  -6   9  -3   40.00    2.11
   6  -9   3   33.11    2.23
  -7   9  -3    5.00    0.42
  -8   9  -3   11.22    0.76
  -6  -8   3   21.78    1.53
  -5  -8   3    3.07    0.49
  -4  -8   3   58.64    3.62
  -3  -8   3   45.37    2.85
  -2  -8   3    2.62    0.35
   0   8  -3   36.49    2.00
   0  -8   3   35.00    2.21
  -1   8  -3    0.34    0.09
   1  -8   3    0.52    0.14
  -2   8  -3   10.09    0.61
   2  -8   3   10.37    0.69
  -3   8  -3   38.84    2.25
   3  -8   3   40.84    2.42
  -4   8  -3    9.10    0.59
   4  -8   3    9.72    0.65
   4  -8   3    9.97    0.60
   5  -8   3   26.81    1.53
   5  -8   3   25.75    1.62
   6  -8   3   48.58    2.71
   6  -8   3   46.54    2.86
  -7   8  -3   12.58    0.83
   7  -8   3   13.53    0.83
   7  -8   3   13.48    0.86
  -8   8  -3    7.53    0.59
   8  -8   3    8.75    0.58
  -9   8  -3   16.49    1.06
  -7  -7   3   63.64    3.94
  -6  -7   3   30.29    1.97
  -5  -7   3    1.71    0.35
  -4  -7   3  101.39    6.10
  -2  -7   3    1.97    0.28
  -1  -7   3   59.64    3.61
   0   7  -3   72.44    3.56
   0   7  -3   60.49    3.55
   0  -7   3   58.64    3.84
  -1   7  -3   20.95    1.12
  -1   7  -3   18.92    1.11
   1  -7   3   18.90    1.23
   2  -7   3   92.04    5.05
   2  -7   3   89.33    5.40
   3  -7   3  157.31    9.73
   3  -7   3  171.65    9.14
   4  -7   3   14.84    0.86
   4  -7   3   13.96    0.91
   5  -7   3   35.46    2.19
   5  -7   3   37.22    2.08
   6  -7   3   62.74    3.83
   6  -7   3   65.89    3.63
   7  -7   3    8.29    0.55
   8  -7   3   10.65    0.70
   9  -7   3   23.47    1.41
  -8  -6   3    1.83    0.51
  -7  -6   3   37.85    2.41
  -6  -6   3   35.28    2.24
  -5  -6   3    3.82    0.41
  -2  -6   3    0.84    0.18
  -1  -6   3   57.50    3.46
   0   6  -3  188.59    9.46
   0   6  -3  161.04    9.46
   0  -6   3  162.80   10.12
  -1   6  -3   40.95    2.14
   1  -6   3   37.72    2.13
   1  -6   3   35.60    2.30
  -2   6  -3   78.78    4.11
   2  -6   3   69.72    4.39
   2  -6   3   72.72    4.11
  -3   6  -3  150.05    8.57
   3  -6   3  147.48    8.04
   3  -6   3  136.76    8.56
  -4   6  -3   18.62    1.09
   4  -6   3   16.57    1.08
   4  -6   3   17.47    1.02
  -5   6  -3   44.82    2.63
   5  -6   3   42.47    2.61
   5  -6   3   43.99    2.48
  -6   6  -3   50.63    2.97
   6  -6   3   49.93    2.81
   6  -6   3   48.15    2.95
   7  -6   3   23.31    1.41
   8  -6   3    0.67    0.14
   8  -6   3    1.12    0.16
   9  -6   3   39.48    2.28
  10  -6   3   21.87    1.32
  -9  -5   3   17.09    1.26
  -8  -5   3    5.94    0.61
  -7  -5   3   72.17    4.39
  -6  -5   3   18.22    1.21
  -5  -5   3    6.09    0.49
  -4  -5   3   44.69    2.72
  -3  -5   3   65.64    3.95
  -2  -5   3    6.03    0.44
  -1  -5   3   92.36    5.50
   0   5  -3  156.75    8.29
   0   5  -3  157.13    8.86
   0  -5   3  146.87    8.29
   0  -5   3  138.18    8.86
  -1   5  -3   37.34    2.20
  -1   5  -3   38.75    2.05
   1  -5   3   36.27    2.05
   1  -5   3   34.00    2.20
  -2   5  -3  133.91    7.02
  -2   5  -3  127.44    7.48
   2  -5   3  118.14    7.48
  -3   5  -3  159.45    9.05
   3  -5   3  154.50    8.51
   3  -5   3  145.57    9.04
  -4   5  -3   14.94    0.89
   4  -5   3   14.02    0.84
   4  -5   3   14.23    0.88
  -5   5  -3   12.10    0.73
   5  -5   3   11.12    0.71
   5  -5   3   11.72    0.70
  -6   5  -3   93.18    5.47
   6  -5   3   91.39    5.45
   7  -5   3   65.59    3.89
   8  -5   3   12.83    0.81
   8  -5   3   12.73    0.79
   9  -5   3   61.54    3.49
  10  -5   3   14.65    0.93
  -9  -4   3   23.12    1.54
  -8  -4   3    2.26    0.40
  -7  -4   3   45.92    2.83
  -6  -4   3   52.94    3.23
  -5  -4   3    7.93    0.57
  -4  -4   3   68.57    4.11
  -3  -4   3  128.54    7.64
  -2  -4   3   11.01    0.72
   1   4  -3   93.49    5.54
   0   4  -3  328.33   18.00
   0   4  -3  307.51   16.90
   0  -4   3  288.18   16.91
   0  -4   3  297.09   18.01
  -1   4  -3   13.59    0.83
  -1   4  -3   14.20    0.78
   1  -4   3   12.38    0.83
   1  -4   3   14.20    0.78
  -2   4  -3  137.83    8.05
  -2   4  -3  144.28    7.56
   2  -4   3  130.88    7.56
   2  -4   3  132.22    8.04
  -3   4  -3   93.97    4.86
  -3   4  -3   87.66    5.16
   3  -4   3   81.58    5.16
   3  -4   3   85.56    4.86
  -4   4  -3   79.27    4.54
   4  -4   3   74.23    4.53
  -5   4  -3    0.47    0.13
   5  -4   3    0.70    0.08
   5  -4   3    0.58    0.12
  -6   4  -3   96.36    5.67
   6  -4   3   94.29    5.34
   6  -4   3   96.28    5.65
  -7   4  -3   44.50    2.64
   7  -4   3   43.97    2.63
  -8   4  -3    0.93    0.19
   8  -4   3    1.09    0.19
   9  -4   3   24.79    1.46
  10  -4   3   19.62    1.19
  10   3  -3   31.54    2.19
 -10  -3   3   28.99    1.98
  -9  -3   3   18.63    1.26
  -8  -3   3    2.16    0.35
  -8  -3   3    2.21    0.25
  -7  -3   3   29.11    1.66
  -7  -3   3   29.44    1.84
  -6  -3   3  141.56    7.04
  -6  -3   3  119.69    7.55
  -6  -3   3  119.30    7.04
  -5  -3   3   13.22    0.86
  -4  -3   3  111.27    6.61
  -3  -3   3  303.62   17.92
   2   3  -3   86.24    4.61
  -2  -3   3   69.28    4.62
   1   3  -3  122.52    6.80
   1   3  -3  110.26    6.37
  -1  -3   3  106.78    6.80
  -1  -3   3  120.34    6.37
   0   3  -3  306.13   17.39
   0  -3   3  289.66   16.33
   0  -3   3  288.04   17.40
  -1   3  -3   54.53    3.18
  -1   3  -3   55.73    2.99
   1  -3   3   52.80    3.18
   1  -3   3   51.75    2.99
  -2   3  -3    1.83    0.14
  -2   3  -3    1.77    0.13
   2  -3   3    2.20    0.13
   2  -3   3    1.98    0.14
  -3   3  -3  115.77    7.15
  -3   3  -3  126.76    6.74
   4  -3   3  118.00    6.82
   4  -3   3  113.52    6.44
   5  -3   3    3.12    0.20
   5  -3   3    3.04    0.23
  -6   3  -3   99.11    5.87
  -6   3  -3  100.76    5.85
   6  -3   3   97.12    5.52
  -7   3  -3   33.93    2.04
  -7   3  -3   33.35    2.00
   7  -3   3   33.01    1.91
   8  -3   3    0.66    0.16
   9  -3   3   19.68    1.18
  10  -3   3   25.62    1.51
  10   2  -3   30.47    2.09
 -10  -2   3   27.13    1.86
  -9  -2   3   25.52    1.48
  -8  -2   3    1.86    0.29
  -8  -2   3    1.41    0.22
  -7  -2   3   93.64    5.10
  -7  -2   3   89.43    5.48
  -6  -2   3  144.30    7.21
  -6  -2   3  118.88    7.71
  -6  -2   3  126.09    7.21
  -5  -2   3    2.13    0.22
  -5  -2   3    2.62    0.17
  -5  -2   3    2.19    0.17
  -4  -2   3   71.33    4.10
  -4  -2   3   79.73    4.10
  -4  -2   3   70.47    4.40
  -3  -2   3  178.53    9.81
  -3  -2   3  169.00    9.81
  -3  -2   3  184.25   10.47
   2   2  -3   31.09    1.70
  -2  -2   3   29.63    1.84
  -2  -2   3   29.41    1.70
  -2  -2   3   31.94    1.83
   1   2  -3    7.55    0.44
  -1  -2   3    7.14    0.44
  -1  -2   3    8.27    0.48
  -1  -2   3    8.02    0.49
   0   2  -3  212.26   11.30
   0  -2   3  204.43   12.00
   0  -2   3  198.82   12.01
   0  -2   3  198.69   11.30
  -1   2  -3  160.66    7.94
   1  -2   3  136.69    8.43
   1  -2   3  143.11    7.93
   1  -2   3  132.42    8.43
  -2   2  -3    9.41    0.56
  -3   2  -3  296.52   14.73
   3  -2   3  235.46   14.74
   4  -2   3   63.30    3.54
  -5   2  -3   20.82    1.19
  -5   2  -3   18.93    1.20
   5  -2   3   19.54    1.14
  -6   2  -3   96.15    5.60
  -6   2  -3   90.49    5.62
   6  -2   3   97.52    5.29
  -7   2  -3   31.04    1.80
  -7   2  -3   28.17    1.76
   7  -2   3   28.50    1.67
  -8   2  -3    0.34    0.12
   8  -2   3    0.05    0.09
  10  -2   3   35.43    2.04
 -10  -1   3   18.43    1.17
 -10  -1   3   19.81    1.28
   9   1  -3   83.74    5.12
  -9  -1   3   68.40    4.16
  -9  -1   3   70.19    4.47
  -8  -1   3    7.80    0.59
  -8  -1   3    8.11    0.52
  -7  -1   3   41.43    2.29
  -7  -1   3   39.58    2.47
  -6  -1   3   90.19    5.71
  -6  -1   3   93.52    5.34
  -6  -1   3  103.77    5.33
   5   1  -3    1.10    0.12
  -5  -1   3    0.93    0.11
  -5  -1   3    1.05    0.15
  -5  -1   3    1.14    0.12
   4   1  -3   55.11    3.41
  -4  -1   3   61.97    3.43
  -4  -1   3   57.44    3.19
  -4  -1   3   55.07    3.20
   3   1  -3  198.28   10.43
   3   1  -3  177.04   11.12
  -3  -1   3  196.83   11.13
  -3  -1   3  181.06   10.44
   2   1  -3   53.38    3.29
  -2  -1   3   58.33    3.29
  -2  -1   3   54.47    3.08
   1   1  -3    7.09    0.41
   1   1  -3    6.65    0.45
  -1  -1   3    7.57    0.42
  -1  -1   3    7.19    0.45
   0   1  -3  299.27   17.92
   0  -1   3  323.42   17.91
   0  -1   3  287.87   16.85
  -1   1  -3  132.26    6.87
   1  -1   3  115.62    6.87
  -2   1  -3    9.51    0.51
   2  -1   3    7.75    0.51
  -3   1  -3  216.71   15.20
   3  -1   3  231.43   12.42
  -4   1  -3   87.22    5.21
  -4   1  -3   98.98    4.92
  -4   1  -3   82.62    5.21
   4  -1   3   84.10    4.91
  -5   1  -3    0.92    0.11
  -5   1  -3    0.58    0.14
   5  -1   3    0.70    0.10
  -6   1  -3   67.33    3.76
  -6   1  -3   59.70    3.74
   6  -1   3   62.14    3.53
  -7   1  -3   65.81    4.32
  -7   1  -3   80.94    4.35
   7  -1   3   71.42    4.07
  -8   1  -3    4.99    0.39
   9  -1   3   42.85    2.44
  10  -1   3   42.77    2.44
 -11   0   3    1.92    0.45
 -11   0   3    2.87    0.48
 -10   0   3   21.20    1.32
 -10   0   3   22.52    1.43
  -9   0   3   48.76    2.74
  -9   0   3   47.54    2.94
   8   0  -3    0.34    0.13
  -8   0   3    0.20    0.13
  -8   0   3    0.53    0.12
   7   0  -3   27.95    1.68
   7   0  -3   28.85    1.94
  -7   0   3   26.06    1.70
  -7   0   3   27.96    1.59
   6   0  -3   69.61    4.07
  -6   0   3   67.17    3.82
   5   0  -3   12.10    0.79
  -5   0   3   12.90    0.74
  -5   0   3   12.96    0.73
   4   0  -3   10.41    0.68
  -4   0   3   10.23    0.62
  -4   0   3   10.99    0.63
  -4   0   3   11.72    0.69
   3   0  -3  164.83   10.72
   3   0  -3  188.39   10.06
  -3   0   3  188.29   10.73
  -3   0   3  185.19   10.07
   2   0  -3   74.93    4.04
   2   0  -3   66.47    4.30
  -2   0   3   76.65    4.31
  -2   0   3   72.68    4.04
   1   0  -3   26.54    1.52
  -1   0   3   27.95    1.62
  -1   0   3   26.65    1.52
   0   0  -3  343.48   20.48
   0   0   3  373.57   20.47
   0   0   3  323.29   19.24
  -1   0  -3   56.77    4.34
  -1   0  -3   71.13    3.55
  -1   0  -3   63.60    3.77
   1   0   3   58.74    3.55
   1   0   3   68.89    3.77
  -2   0  -3    0.27    0.06
  -2   0  -3    0.23    0.06
   2   0   3    0.29    0.06
  -3   0  -3  103.28    5.20
  -3   0  -3   87.80    5.52
   3   0   3   85.68    5.18
   3   0   3   96.33    5.51
  -4   0  -3   85.87    4.32
  -4   0  -3   68.42    4.57
  -4   0  -3   71.70    4.58
   4   0   3   87.86    4.58
   4   0   3   72.94    4.31
  -5   0  -3    6.29    0.41
  -5   0  -3    5.96    0.40
   5   0   3    5.73    0.37
  -6   0  -3   60.27    3.42
  -6   0  -3   55.74    3.41
   6   0   3   55.37    3.20
  -7   0  -3   62.61    3.83
   7   0   3   65.61    3.59
  -8   0  -3    2.29    0.28
   9   0   3   29.40    1.69
  10   0   3   19.39    1.16
 -11   1   3   -0.10    0.24
 -11   1   3    0.06    0.23
 -10   1   3   32.64    1.93
  -9   1   3   38.33    2.43
  -9   1   3   41.05    2.29
   8  -1  -3    5.22    0.38
  -8   1   3    5.25    0.39
   7  -1  -3   15.79    0.99
  -7   1   3   15.95    0.95
   6  -1  -3  126.58    7.50
  -6   1   3  126.89    7.05
   5  -1  -3   59.29    3.59
   5  -1  -3   58.79    4.11
  -5   1   3   62.84    3.38
   4  -1  -3    2.73    0.22
   4  -1  -3    2.58    0.21
  -4   1   3    2.57    0.18
  -4   1   3    3.13    0.25
   3  -1  -3  251.83   16.30
   3  -1  -3  304.05   15.31
  -3   1   3  296.06   16.32
  -3   1   3  253.97   15.32
   2  -1  -3  188.91   10.25
  -2   1   3  171.11   10.25
  -2   1   3  195.23   10.93
   1  -1  -3   22.87    1.28
   1  -1  -3   21.78    1.37
  -1   1   3   23.94    1.37
  -1   1   3   22.11    1.28
   0  -1  -3  215.44   12.17
   0  -1  -3  223.02   12.96
   0   1   3  208.74   12.17
   0   1   3  231.91   12.96
  -1  -1  -3   94.21    5.76
  -1  -1  -3  106.39    5.41
   1   1   3  107.06    5.75
   1   1   3   90.15    5.40
   1   1   3   89.16    6.61
  -2  -1  -3    0.12    0.05
   2   1   3    0.25    0.05
   2   1   3    0.29    0.08
  -3  -1  -3  137.53    8.30
   3   1   3  139.83    7.79
   3   1   3  153.78    8.29
   3   1   3  130.44    9.54
  -4  -1  -3  135.13    8.16
   4   1   3  153.03    8.15
   4   1   3  129.45    9.38
   4   1   3  134.06    7.65
  -5  -1  -3    8.79    0.59
  -5  -1  -3    9.17    0.60
   5   1   3    9.02    0.69
   5   1   3    9.39    0.54
  -6  -1  -3   52.92    3.25
   6   1   3   55.40    3.04
  -7  -1  -3   70.32    4.29
   7   1   3   73.14    4.01
  -8  -1  -3    3.55    0.37
   8   1   3    3.77    0.29
   9   1   3    8.76    0.57
 -11   2   3    0.48    0.25
 -11   2   3    0.08    0.22
 -10   2   3   12.53    0.83
   9  -2  -3   48.36    2.88
  -9   2   3   47.23    2.73
   8  -2  -3   26.38    1.62
  -8   2   3   26.61    1.55
   7  -2  -3   14.77    0.91
  -7   2   3   14.12    0.87
   6  -2  -3  150.16    9.16
  -6   2   3  159.51    8.61
   5  -2  -3   69.65    4.37
  -5   2   3   77.23    4.11
   4  -2  -3   35.02    2.24
  -4   2   3   39.47    2.10
   3  -2  -3  331.52   17.23
  -3   2   3  337.17   18.36
  -3   2   3  264.80   17.25
   2  -2  -3   94.14    5.02
   2  -2  -3   85.37    5.35
  -2   2   3   93.43    5.35
  -2   2   3   87.91    5.01
   1  -2  -3    8.00    0.56
   1  -2  -3    8.89    0.51
  -1   2   3    8.82    0.55
  -1   2   3    8.43    0.51
   0  -2  -3  113.47    7.25
   0  -2  -3  125.15    6.81
   0   2   3  117.93    6.80
   0   2   3  133.82    7.25
  -1  -2  -3  105.52    6.47
  -1  -2  -3  107.31    6.07
   1   2   3  121.23    6.46
   1   2   3  102.97    6.06
  -2  -2  -3    7.32    0.53
  -2  -2  -3    9.28    0.50
   2   2   3    9.04    0.53
   2   2   3    7.36    0.48
  -3  -2  -3  107.71    5.35
  -3  -2  -3   90.16    5.70
   3   2   3   97.60    5.69
   3   2   3   88.77    5.33
  -4  -2  -3  145.12    9.24
  -4  -2  -3  179.13    8.68
   4   2   3  144.20    8.65
  -5  -2  -3    2.79    0.28
   5   2   3    3.13    0.21
   5   2   3    2.81    0.29
  -6  -2  -3   46.59    2.91
   6   2   3   49.62    2.70
  -7  -2  -3   38.12    2.44
   7   2   3   41.83    2.26
  -8  -2  -3    6.76    0.57
   8   2   3    7.02    0.45
  11  -3  -3    4.21    0.41
 -11   3   3    4.33    0.50
 -11   3   3    4.73    0.51
  10  -3  -3    6.34    0.49
 -10   3   3    6.23    0.53
   9  -3  -3   38.34    2.32
  -9   3   3   38.23    2.22
  -8   3   3   13.81    0.85
   7  -3  -3   20.98    1.32
  -7   3   3   21.84    1.26
   6  -3  -3   91.93    5.62
  -6   3   3   97.40    5.29
   5  -3  -3   38.36    2.36
  -5   3   3   40.03    2.22
   4  -3  -3    0.74    0.14
  -4   3   3    0.86    0.11
   3  -3  -3   64.20    3.83
  -3   3   3   63.98    3.58
   2  -3  -3   94.14    6.01
   2  -3  -3  109.48    5.64
  -2   3   3  102.90    6.01
  -2   3   3   98.75    5.63
   1  -3  -3    1.69    0.15
   1  -3  -3    2.02    0.17
  -1   3   3    1.87    0.18
  -1   3   3    1.60    0.14
   0  -3  -3   51.99    2.97
   0  -3  -3   51.16    3.17
   0   3   3   59.13    3.17
   0   3   3   50.06    2.96
  -1  -3  -3  142.08    7.95
  -1  -3  -3  137.92    8.48
   1   3   3  156.92    8.47
   1   3   3  135.96    7.94
  -2  -3  -3   11.62    0.66
  -2  -3  -3   10.71    0.71
   2   3   3   10.56    0.64
  -3  -3  -3   69.02    4.56
  -3  -3  -3   84.02    4.28
  -4  -3  -3   57.17    3.50
   4   3   3   59.37    3.25
  -5  -3  -3    0.99    0.21
   5   3   3    1.11    0.12
  -6  -3  -3   24.79    1.59
   6   3   3   25.43    1.81
   6   3   3   25.76    1.44
  -7  -3  -3   47.62    3.09
   7   3   3   52.19    2.85
   7   3   3   52.26    3.53
  -8  -3  -3   12.35    0.90
  10  -4  -3    8.30    0.60
 -10   4   3    8.48    0.63
   9  -4  -3   60.77    3.67
  -9   4   3   61.48    3.48
  -8   4   3   22.66    1.35
   7  -4  -3   12.43    0.83
  -7   4   3   13.08    0.79
   6  -4  -3   38.63    2.34
   5  -4  -3   29.19    1.83
  -5   4   3   30.87    1.72
   4  -4  -3    1.99    0.22
  -4   4   3    2.05    0.17
   3  -4  -3   76.69    4.58
  -3   4   3   76.72    4.28
  -2   4   3   97.27    5.41
   1  -4  -3    1.92    0.17
   1  -4  -3    1.63    0.18
  -1   4   3    1.74    0.14
   0  -4  -3   70.16    4.32
   0  -4  -3   74.03    4.04
   0   4   3   72.60    4.02
  -1  -4  -3  125.33    6.80
  -1  -4  -3  119.22    7.26
  -2  -4  -3    1.93    0.23
  -2  -4  -3    2.05    0.20
  -3  -4  -3   64.89    3.95
  -3  -4  -3   67.25    3.68
   3   4   3   64.90    3.66
  -4  -4  -3   80.72    4.18
  -4  -4  -3   70.98    4.47
   4   4   3   71.83    4.14
  -5  -4  -3   12.05    0.85
   5   4   3   12.86    0.73
  -6  -4  -3    9.86    0.75
   6   4   3   10.02    0.80
   6   4   3   10.78    0.61
  -7  -4  -3   51.33    3.26
   7   4   3   55.10    3.71
  -8  -4  -3    7.59    0.69
   8   4   3    7.56    0.67
  10  -5  -3    7.66    0.58
 -10   5   3    7.24    0.59
  -9   5   3   33.00    1.93
   8  -5  -3   14.04    0.93
  -8   5   3   14.18    0.88
   6  -5  -3   29.86    1.84
   5  -5  -3   59.72    3.67
  -5   5   3   62.36    3.43
   4  -5  -3    0.21    0.11
  -4   5   3    0.41    0.11
   3  -5  -3   65.94    4.05
  -3   5   3   69.24    3.78
   2  -5  -3   83.91    5.18
  -2   5   3   89.65    4.84
   1  -5  -3    0.19    0.10
  -1   5   3    0.20    0.05
   0  -5  -3   53.88    3.34
   0   5   3   57.00    3.10
  -1  -5  -3  108.52    6.58
   1   5   3  112.23    6.13
  -2  -5  -3   25.65    1.58
  -2  -5  -3   25.33    1.44
   2   5   3   24.26    1.41
  -3  -5  -3    6.69    0.52
  -3  -5  -3    6.81    0.46
   3   5   3    6.64    0.41
  -4  -5  -3   76.97    4.70
   4   5   3   79.09    4.34
  -5  -5  -3   26.07    1.74
   5   5   3   28.55    1.55
  -6  -5  -3    7.12    0.64
  -7  -5  -3   61.56    3.87
   7   5   3   64.73    4.39
  10  -6  -3    7.42    0.57
 -10   6   3    6.08    0.55
   9  -6  -3   18.07    1.18
  -9   6   3   18.24    1.13
   8  -6  -3   16.50    1.07
  -8   6   3   16.04    1.00
   7  -6  -3    0.63    0.18
  -6   6   3   44.92    2.55
   4  -6  -3    0.45    0.15
  -4   6   3    0.27    0.08
   3  -6  -3   74.36    4.68
  -3   6   3   81.70    4.36
  -2   6   3   75.16    4.20
  -1   6   3    1.59    0.15
   0  -6  -3   34.25    2.13
   0   6   3   34.75    1.94
  -1  -6  -3   72.70    4.43
   1   6   3   74.35    4.10
  -2  -6  -3    4.25    0.39
   2   6   3    3.38    0.24
  -3  -6  -3   22.52    1.45
   3   6   3   22.07    1.26
  -4  -6  -3   65.53    4.00
  -5  -6  -3   17.32    1.20
  -6  -6  -3    6.38    0.65
   9  -7  -3   12.71    0.91
  -9   7   3   12.98    0.85
   8  -7  -3   29.45    1.84
  -8   7   3   29.05    1.72
   7  -7  -3    1.16    0.31
  -7   7   3    0.75    0.15
   6  -7  -3   44.26    2.71
   5  -7  -3   45.37    2.81
  -5   7   3   46.22    2.60
   4  -7  -3    0.90    0.19
   3  -7  -3   20.41    1.34
  -3   7   3   20.94    1.20
  -2   7   3   47.81    2.69
  -1   7   3    6.06    0.39
   0  -7  -3   22.78    1.47
   0   7   3   22.74    1.30
  -1  -7  -3   61.45    3.79
   1   7   3   63.07    3.48
   2   7   3   13.09    0.76
  -3  -7  -3   16.33    1.15
  -4  -7  -3   58.13    3.59
  -5  -7  -3    5.62    0.64
   8  -8  -3   26.56    1.73
  -8   8   3   27.48    1.61
   7  -8  -3    1.02    0.25
  -7   8   3    0.70    0.16
   6  -8  -3   19.34    1.30
  -6   8   3   20.00    1.18
   5  -8  -3   18.41    1.21
  -5   8   3   17.76    1.08
   4  -8  -3    2.49    0.38
  -4   8   3    3.04    0.26
   3  -8  -3    9.23    0.71
  -3   8   3    9.38    0.59
   2  -8  -3   41.66    2.59
   1  -8  -3   16.85    1.13
  -1   8   3   16.26    0.96
   0  -8  -3    5.63    0.52
   0   8   3    5.11    0.35
  -1  -8  -3   62.69    3.74
   1   8   3   59.20    3.40
  -2  -8  -3   14.98    1.08
  -3  -8  -3    8.46    0.74
  -4  -8  -3   27.21    1.82
   7  -9  -3   -0.44    0.25
  -7   9   3    0.13    0.13
   6  -9  -3   12.24    0.90
  -6   9   3   11.88    0.77
   5  -9  -3   25.41    1.69
  -5   9   3   26.49    1.52
   4  -9  -3    4.30    0.51
  -4   9   3    4.17    0.34
   3  -9  -3    7.44    0.66
  -3   9   3    7.60    0.50
   2  -9  -3   34.65    2.18
  -2   9   3   33.55    1.94
   1  -9  -3    7.88    0.70
   0  -9  -3   17.69    1.25
  -1  -9  -3   28.65    1.89
  -2  -9  -3    5.79    0.66
   4 -10  -3    5.54    0.65
  -4  10   3    5.61    0.44
   3 -10  -3   20.41    1.39
  -3  10   3   19.34    1.17
   2 -10  -3   50.40    3.17
   1 -10  -3    5.90    0.68
  -2 -11   4   38.54    2.50
  -1 -11   4   25.61    1.73
   0 -11   4    1.93    0.44
   1 -11   4   44.48    2.78
   2 -11   4   23.91    1.57
  -3  11  -4    0.58    0.12
   3 -11   4    0.68    0.24
   4 -11   4   16.45    1.13
  -5  11  -4   16.36    1.05
   5 -11   4   18.72    1.19
  -6  11  -4    4.27    0.41
  -4 -10   4    7.15    0.77
  -3 -10   4    4.96    0.62
  -2 -10   4   52.91    3.30
  -1 -10   4   33.68    2.15
   0 -10   4    1.66    0.36
  -1  10  -4   48.21    2.70
  -2  10  -4   27.00    1.61
   2 -10   4   30.03    1.80
   3 -10   4    0.39    0.19
  -4  10  -4   26.70    1.61
   4 -10   4   29.38    1.76
  -5  10  -4   40.93    2.49
   5 -10   4   46.72    2.68
  -6  10  -4    3.84    0.37
   6 -10   4    4.61    0.46
  -7  10  -4   18.13    1.12
  -5  -9   4   49.65    3.15
  -4  -9   4   23.05    1.58
  -3  -9   4    4.23    0.51
  -2  -9   4   49.08    3.04
  -1  -9   4   26.18    1.69
   0   9  -4    0.27    0.06
   0  -9   4    0.18    0.17
  -1   9  -4   34.78    1.95
  -2   9  -4   72.22    4.03
  -3   9  -4   10.33    0.66
   3  -9   4   11.82    0.75
   4  -9   4   42.56    2.38
   4  -9   4   41.19    2.54
  -5   9  -4   73.61    4.43
   5  -9   4   79.16    4.73
   5  -9   4   84.38    4.45
  -6   9  -4    1.91    0.28
   6  -9   4    2.35    0.31
   6  -9   4    2.71    0.27
  -7   9  -4   28.63    1.80
   7  -9   4   33.08    1.81
  -8   9  -4   23.69    1.51
   8  -9   4   26.55    1.51
  -6  -8   4    1.79    0.37
  -5  -8   4   53.86    3.35
  -4  -8   4   30.61    1.98
  -3  -8   4    2.90    0.40
  -2  -8   4   52.62    3.23
   0   8  -4    0.24    0.07
   0   8  -4    0.14    0.05
   0  -8   4    0.20    0.12
  -1   8  -4   46.03    2.57
   1  -8   4   45.90    2.79
  -2   8  -4   49.40    2.87
   2  -8   4   52.66    3.09
   2  -8   4   51.68    2.88
   3  -8   4    0.45    0.09
   3  -8   4    0.60    0.17
   4  -8   4   28.33    1.58
   4  -8   4   26.43    1.68
   5  -8   4   33.21    1.90
   5  -8   4   32.75    2.01
   6  -8   4    6.38    0.47
   6  -8   4    7.05    0.48
   7  -8   4    1.43    0.24
   8  -8   4   26.06    1.55
   9  -8   4   16.47    1.03
  -7  -7   4   27.52    1.84
  -6  -7   4    4.61    0.55
  -5  -7   4   42.31    2.65
  -2  -7   4   45.15    2.76
  -1  -7   4  118.85    7.09
   0   7  -4   20.42    1.21
   0   7  -4   24.24    1.22
   0  -7   4   19.67    1.34
  -1   7  -4   75.07    3.94
   1  -7   4   65.59    4.23
   1  -7   4   71.52    3.94
   2  -7   4  134.66    7.32
   2  -7   4  128.56    7.80
   3  -7   4    2.44    0.22
   3  -7   4    2.43    0.21
   4  -7   4   24.98    1.41
   4  -7   4   23.73    1.48
   5  -7   4   41.79    2.39
   5  -7   4   42.10    2.52
   6  -7   4   12.54    0.78
   6  -7   4   12.54    0.79
   7  -7   4    4.66    0.34
   7  -7   4    4.83    0.38
   8  -7   4   35.90    2.09
  -8  -6   4   39.71    2.55
  -7  -6   4   19.48    1.35
  -6  -6   4    0.58    0.22
  -5  -6   4   49.55    3.06
  -3  -6   4    4.37    0.39
  -2  -6   4   48.39    2.94
  -1  -6   4  126.60    7.52
   0   6  -4    2.24    0.16
   0  -6   4    1.98    0.21
   0  -6   4    2.26    0.16
  -1   6  -4   90.30    4.60
   1  -6   4   82.18    4.60
   1  -6   4   75.36    4.91
  -2   6  -4   98.74    5.70
   2  -6   4   94.06    5.34
   2  -6   4   95.31    5.69
  -3   6  -4   20.47    1.23
   3  -6   4   19.93    1.23
   3  -6   4   20.07    1.16
  -4   6  -4    8.44    0.55
   4  -6   4    8.50    0.54
   4  -6   4    8.23    0.52
  -5   6  -4  120.60    7.08
   5  -6   4  117.88    7.07
   5  -6   4  120.54    6.68
   6  -6   4   29.85    1.79
   6  -6   4   30.07    1.73
   7  -6   4   16.00    0.97
   8  -6   4   82.81    4.67
   9  -6   4   17.40    1.07
  10  -6   4    3.29    0.36
  -9  -5   4    2.67    0.54
  -8  -5   4   23.95    1.60
  -7  -5   4   31.69    2.02
  -6  -5   4    0.23    0.18
  -4  -5   4   57.85    3.52
  -3  -5   4    2.19    0.24
  -2  -5   4   59.94    3.60
   1   5  -4  126.81    7.07
  -1  -5   4  133.53    7.07
  -1  -5   4  122.70    7.58
   0   5  -4    0.58    0.11
   0  -5   4    0.87    0.12
   0  -5   4    0.47    0.07
  -1   5  -4   45.69    2.75
  -1   5  -4   50.94    2.58
   1  -5   4   44.55    2.57
   1  -5   4   42.96    2.75
  -2   5  -4   97.76    5.80
  -2   5  -4  104.63    5.46
   2  -5   4   95.95    5.46
   2  -5   4   93.85    5.80
  -3   5  -4   21.04    1.26
   3  -5   4   21.25    1.20
   3  -5   4   20.52    1.26
  -4   5  -4   19.29    1.15
   4  -5   4   18.63    1.10
   4  -5   4   18.96    1.14
  -5   5  -4  165.49    9.65
   5  -5   4  162.63    9.10
   5  -5   4  162.83    9.65
   8  -5   4   51.41    2.93
   9  -5   4   14.60    0.91
  10  -5   4    0.16    0.15
  -9  -4   4    0.35    0.27
  -8  -4   4   28.92    1.86
  -7  -4   4   51.20    3.14
  -6  -4   4    0.54    0.15
  -5  -4   4   72.60    4.37
  -4  -4   4   85.55    5.12
  -3  -4   4    0.30    0.10
  -2  -4   4   57.42    3.44
   1   4  -4  167.37    9.71
   1   4  -4  183.88   10.37
  -1  -4   4  174.97    9.72
   0   4  -4   16.04    0.86
   0   4  -4   15.82    0.93
   0  -4   4   14.76    0.87
   0  -4   4   14.14    0.93
  -1   4  -4   30.27    1.54
  -1   4  -4   27.13    1.63
   1  -4   4   25.48    1.53
   1  -4   4   26.04    1.63
  -2   4  -4  283.44   14.36
  -2   4  -4  252.82   15.27
   2  -4   4  240.96   15.26
   3  -4   4   80.24    4.54
   3  -4   4   82.53    4.80
   4  -4   4   38.18    2.16
   5  -4   4  146.47    8.15
   6  -4   4    4.03    0.31
   8  -4   4   34.42    1.98
   9  -4   4   25.45    1.50
  10  -4   4    2.04    0.29
 -10  -3   4   19.39    1.35
  -9  -3   4    1.80    0.38
  -8  -3   4   28.67    1.77
  -8  -3   4   26.95    1.59
  -7  -3   4   64.61    3.84
  -7  -3   4   62.10    3.54
  -6  -3   4    2.54    0.30
  -6  -3   4    3.19    0.21
  -6  -3   4    2.63    0.22
  -5  -3   4   42.11    2.74
  -5  -3   4   51.39    2.53
  -5  -3   4   42.17    2.53
  -4  -3   4  161.58    9.58
   3   3  -4   51.54    2.62
  -3  -3   4   46.08    2.83
  -3  -3   4   43.62    2.62
   2   3  -4   54.12    3.01
  -2  -3   4   58.14    3.24
  -2  -3   4   50.90    3.02
  -1  -3   4  230.34   13.91
  -1  -3   4  219.95   13.05
  -1  -3   4  256.99   13.90
   0   3  -4   50.55    2.77
   0   3  -4   48.23    2.60
   0  -3   4   43.41    2.77
   0  -3   4   47.37    2.77
   0  -3   4   43.73    2.60
  -1   3  -4    2.71    0.19
  -1   3  -4    2.76    0.19
   1  -3   4    2.38    0.19
   1  -3   4    3.18    0.19
  -2   3  -4  159.26    8.08
   2  -3   4  131.64    8.07
  -3   3  -4   67.49    3.41
   3  -3   4   54.30    3.40
   5  -3   4   60.54    3.40
   6  -3   4   57.84    3.25
   8  -3   4   33.25    1.91
   9  -3   4   53.52    3.04
  10  -3   4    0.20    0.13
  10   2  -4   57.33    3.68
 -10  -2   4   47.49    3.23
  -9  -2   4    0.23    0.15
  -9  -2   4    0.20    0.19
  -8  -2   4   53.63    3.25
  -8  -2   4   53.02    3.00
  -7  -2   4   57.73    3.20
  -7  -2   4   56.31    3.45
  -6  -2   4    1.70    0.17
  -5  -2   4   40.35    2.58
  -5  -2   4   42.25    2.38
  -5  -2   4   44.96    2.38
  -4  -2   4   94.18    4.94
  -4  -2   4   85.53    5.30
  -4  -2   4   87.36    4.95
   3   2  -4   21.89    1.19
  -3  -2   4   22.64    1.29
  -3  -2   4   19.05    1.19
   2   2  -4   55.30    3.62
   2   2  -4   62.41    3.38
  -2  -2   4   66.76    3.62
  -2  -2   4   63.02    3.63
  -2  -2   4   57.19    3.39
   1   2  -4  285.98   15.72
   1   2  -4  256.76   16.75
  -1  -2   4  313.36   16.74
  -1  -2   4  307.24   16.74
  -1  -2   4  255.08   15.71
   0   2  -4   73.10    3.93
   0  -2   4   72.64    4.18
   0  -2   4   71.09    4.18
   0  -2   4   65.70    3.93
  -1   2  -4   87.46    4.48
   1  -2   4   76.53    4.75
   1  -2   4   78.47    4.48
   1  -2   4   79.61    4.75
  -2   2  -4  281.21   15.57
   3  -2   4   69.52    3.88
   4  -2   4    3.03    0.22
   5  -2   4   56.74    3.18
   6  -2   4   57.37    3.22
   7  -2   4    2.29    0.22
   8  -2   4   43.73    2.49
   9  -2   4   48.09    2.73
  10  -2   4    0.13    0.13
  10   1  -4   25.96    1.70
 -10  -1   4   21.96    1.39
 -10  -1   4   21.46    1.51
   9   1  -4    0.02    0.16
  -9  -1   4    0.20    0.14
  -9  -1   4    0.46    0.19
  -8  -1   4   20.58    1.18
  -8  -1   4   19.45    1.28
  -7  -1   4   44.31    2.81
  -7  -1   4   48.35    2.62
   6   1  -4   12.85    0.81
  -6  -1   4   12.25    0.83
  -6  -1   4   13.12    0.76
   5   1  -4   17.17    1.07
  -5  -1   4   17.37    0.98
   4   1  -4  147.79    8.81
  -4  -1   4  148.65    8.26
  -4  -1   4  150.44    8.26
   3   1  -4   48.14    3.07
   3   1  -4   54.42    2.86
  -3  -1   4   55.15    3.07
  -3  -1   4   48.03    2.87
   2   1  -4  129.95    7.99
   2   1  -4  131.17    7.49
  -2  -1   4  144.10    7.99
  -2  -1   4  135.25    7.49
   1   1  -4  129.37    8.15
   1   1  -4  144.11    7.65
  -1  -1   4  149.07    8.15
  -1  -1   4  129.10    7.65
   0   1  -4   27.76    1.74
   0   1  -4   30.64    1.64
   0  -1   4   27.45    1.64
   0  -1   4   31.07    1.74
  -1   1  -4   10.72    0.73
  -1   1  -4   13.79    0.70
   1  -1   4   11.07    0.69
   1  -1   4   12.41    0.72
  -2   1  -4  263.60   13.52
   2  -1   4  224.18   13.51
  -3   1  -4   98.17    7.66
  -3   1  -4  129.82    6.26
   3  -1   4  109.80    6.25
  -4   1  -4   11.54    0.69
   4  -1   4   11.06    0.67
  -5   1  -4  125.03    7.14
  -5   1  -4  120.91    7.13
   5  -1   4  116.46    6.72
  -6   1  -4  132.16    7.29
  -6   1  -4  116.78    7.27
   6  -1   4  120.43    6.85
  -7   1  -4    1.78    0.22
   7  -1   4    2.41    0.20
  -8   1  -4   57.65    3.56
   8  -1   4   61.65    3.36
   9  -1   4   31.04    1.80
  10  -1   4    2.39    0.31
 -11   0   4   23.35    1.56
 -11   0   4   23.88    1.46
 -10   0   4   30.23    1.93
 -10   0   4   30.77    1.79
  -9   0   4    2.24    0.33
  -9   0   4    2.19    0.29
   8   0  -4   19.03    1.28
  -8   0   4   15.94    1.13
  -8   0   4   17.61    1.05
   7   0  -4   43.44    2.55
  -7   0   4   41.22    2.40
   6   0  -4   36.62    2.20
  -6   0   4   36.31    2.06
   5   0  -4   21.96    1.38
  -5   0   4   23.37    1.30
   4   0  -4  148.69    9.00
   4   0  -4  166.09    8.44
  -4   0   4  141.63    8.43
   3   0  -4   29.90    1.71
  -3   0   4   29.81    1.72
  -3   0   4   31.94    1.84
   2   0  -4   14.79    0.83
   2   0  -4   13.89    0.89
  -2   0   4   13.76    0.83
  -2   0   4   15.21    0.89
   1   0  -4   34.08    2.33
   1   0  -4   40.71    2.18
  -1   0   4   38.38    2.18
  -1   0   4   42.38    2.33
   0   0  -4  114.47    5.96
   0   0  -4  101.51    6.34
   0   0   4   96.12    5.95
   0   0   4  116.96    6.33
  -1   0  -4   46.81    2.66
  -1   0  -4   43.24    3.06
   1   0   4   44.09    2.50
  -2   0  -4  159.83   10.00
  -2   0  -4  192.75    9.41
   2   0   4  156.06    9.39
  -3   0  -4  119.57    7.64
  -3   0  -4  147.83    7.19
   3   0   4  114.62    7.18
   3   0   4  135.38    7.63
  -4   0  -4    0.04    0.07
   4   0   4    0.12    0.06
  -5   0  -4  131.79    7.88
  -5   0  -4  134.65    7.87
   5   0   4  133.18    7.40
  -6   0  -4  124.91    7.23
   6   0   4  119.13    6.79
  -7   0  -4    0.55    0.13
   7   0   4    0.28    0.09
  -8   0  -4   22.09    1.44
   8   0   4   24.51    1.35
 -11   1   4    8.92    0.71
 -11   1   4    8.91    0.75
 -10   1   4   15.52    1.05
   9  -1  -4    5.83    0.43
  -9   1   4    5.72    0.45
  -8   1   4   19.80    1.18
   7  -1  -4  104.03    6.22
  -7   1   4  105.55    5.85
   6  -1  -4   18.63    1.29
   6  -1  -4   18.03    1.14
  -6   1   4   18.36    1.07
   5  -1  -4   70.08    4.25
   5  -1  -4   71.05    4.86
  -5   1   4   72.93    3.99
   4  -1  -4   42.30    2.66
  -4   1   4   46.36    2.49
   3  -1  -4   24.85    1.39
   3  -1  -4   21.86    1.48
  -3   1   4   26.86    1.50
   2  -1  -4   14.21    0.99
   2  -1  -4   16.45    0.92
  -2   1   4   17.75    0.99
  -2   1   4   15.57    0.92
   1  -1  -4  143.47    8.94
   1  -1  -4  155.88    8.39
  -1   1   4  158.18    8.93
  -1   1   4  147.02    8.39
   0  -1  -4  189.14   11.39
   0  -1  -4  201.98   10.69
   0   1   4  205.26   11.38
   0   1   4  175.16   10.68
  -1  -1  -4    7.64    0.54
  -1  -1  -4    9.24    0.52
   1   1   4    9.21    0.54
   1   1   4    7.57    0.50
  -2  -1  -4   91.41    5.94
  -2  -1  -4  113.98    5.59
   2   1   4  105.36    5.93
   2   1   4   90.56    5.57
  -3  -1  -4  164.41   10.35
   3   1   4  175.44    9.72
   3   1   4  185.92   10.34
  -4  -1  -4    3.02    0.25
   4   1   4    2.89    0.21
   4   1   4    3.39    0.24
  -5  -1  -4   42.90    2.84
   5   1   4   46.16    2.66
   5   1   4   53.05    2.83
  -6  -1  -4   32.72    2.01
   6   1   4   33.37    1.87
  -7  -1  -4    6.70    0.50
   7   1   4    6.54    0.43
  -8  -1  -4    6.31    0.51
   9   1   4   35.99    2.06
 -11   2   4    6.47    0.59
 -11   2   4    6.27    0.61
  10  -2  -4   25.67    1.59
 -10   2   4   25.41    1.54
   9  -2  -4   21.80    1.39
  -9   2   4   23.04    1.34
  -8   2   4   20.51    1.22
   7  -2  -4   75.50    4.53
  -7   2   4   76.52    4.27
   6  -2  -4   24.64    1.54
  -6   2   4   25.62    1.45
   5  -2  -4   23.34    1.43
  -5   2   4   23.28    1.34
   4  -2  -4  287.22   17.82
  -4   2   4  316.61   16.73
   3  -2  -4  218.15   13.04
  -3   2   4  223.13   12.23
   2  -2  -4   25.57    1.63
  -2   2   4   26.20    1.51
  -2   2   4   28.52    1.63
   1  -2  -4  189.89   10.63
  -1   2   4  193.70   11.33
   0  -2  -4  199.78   12.41
   0  -2  -4  221.93   11.65
   0   2   4  197.05   14.24
   0   2   4  230.83   12.40
   0   2   4  200.99   11.64
  -1  -2  -4    5.87    0.41
  -1  -2  -4    6.30    0.38
   1   2   4    5.61    0.37
   1   2   4    6.12    0.40
   1   2   4    5.70    0.45
  -2  -2  -4  157.45    9.48
   2   2   4  146.63    8.88
   2   2   4  180.29    9.47
   2   2   4  156.42   10.88
  -3  -2  -4   77.78    4.75
   3   2   4   78.49    5.46
   3   2   4   86.25    4.74
   3   2   4   77.04    4.45
  -4  -2  -4    5.64    0.41
   4   2   4    5.36    0.35
   4   2   4    6.23    0.47
  -5  -2  -4   12.36    0.79
   5   2   4   11.41    0.70
   5   2   4   12.25    0.89
  -6  -2  -4   81.49    4.89
   6   2   4   82.22    4.57
  -7  -2  -4   13.07    0.90
   7   2   4   13.85    0.80
  -8  -2  -4   11.91    0.84
  11  -3  -4    9.12    0.66
 -11   3   4    8.78    0.71
  10  -3  -4   43.24    2.70
 -10   3   4   45.87    2.58
   9  -3  -4    3.34    0.31
  -9   3   4    2.97    0.34
  -8   3   4   20.57    1.23
   7  -3  -4   29.84    1.85
  -7   3   4   30.86    1.75
   6  -3  -4   30.71    1.90
  -6   3   4   31.53    1.78
   5  -3  -4    1.78    0.20
  -5   3   4    1.55    0.16
  -4   3   4   42.35    2.39
   3  -3  -4   50.43    3.02
  -3   3   4   49.97    2.81
   2  -3  -4    0.25    0.10
  -2   3   4    0.41    0.08
   1  -3  -4  164.22   10.33
   1  -3  -4  184.53    9.70
  -1   3   4  175.11    9.68
   0  -3  -4  156.63    9.91
   0  -3  -4  174.86    9.30
   0   3   4  171.23    9.29
  -1  -3  -4    3.57    0.29
  -1  -3  -4    4.00    0.28
   1   3   4    3.44    0.24
  -2  -3  -4   65.39    3.36
  -2  -3  -4   58.41    3.58
   2   3   4   55.46    3.33
  -3  -3  -4   96.67    5.73
   3   3   4   95.63    5.35
  -4  -3  -4   11.25    0.79
   4   3   4   12.19    0.89
   4   3   4   12.46    0.70
  -5  -3  -4   32.52    2.06
   5   3   4   33.51    1.89
   5   3   4   34.52    2.35
  -6  -3  -4   74.78    4.61
   6   3   4   78.49    4.28
  -7  -3  -4   20.65    1.38
   7   3   4   22.03    1.24
  -8  -3  -4    9.11    0.75
  10  -4  -4   25.24    1.61
 -10   4   4   26.22    1.55
  -9   4   4   10.62    0.71
   8  -4  -4    1.70    0.26
  -8   4   4    2.18    0.25
  -7   4   4   39.00    2.23
   6  -4  -4   28.22    1.74
   5  -4  -4    4.87    0.39
  -5   4   4    5.14    0.35
   4  -4  -4   70.27    4.26
  -4   4   4   71.89    3.98
   3  -4  -4   53.98    3.28
  -3   4   4   54.95    3.05
  -2   4   4    5.40    0.34
   1  -4  -4   50.54    3.21
  -1   4   4   56.01    2.99
   0  -4  -4   46.03    2.88
   0   4   4   49.25    2.67
  -1  -4  -4    7.10    0.50
   1   4   4    6.92    0.43
  -2  -4  -4   47.98    2.87
   2   4   4   46.65    2.65
  -3  -4  -4  130.14    7.74
   3   4   4  130.03    7.22
  -4  -4  -4   14.51    0.96
   4   4   4   14.36    0.84
  -5  -4  -4   30.80    2.05
   5   4   4   34.47    1.86
   5   4   4   33.51    2.32
  -6  -4  -4   77.18    4.94
   6   4   4   83.96    4.57
   6   4   4   84.86    5.65
   7   4   4    6.24    0.58
  10  -5  -4   17.70    1.17
 -10   5   4   18.24    1.14
   9  -5  -4   12.92    0.87
  -9   5   4   12.72    0.83
   8  -5  -4    0.92    0.26
  -8   5   4    0.66    0.15
   7  -5  -4   49.11    3.07
  -7   5   4   52.29    2.89
   5  -5  -4    1.47    0.23
  -5   5   4    1.31    0.16
   4  -5  -4   89.32    5.40
  -4   5   4   91.02    5.04
   3  -5  -4   42.84    2.71
  -3   5   4   46.37    2.52
   2  -5  -4    0.96    0.18
  -2   5   4    0.86    0.12
   1  -5  -4   34.73    2.21
  -1   5   4   37.47    2.04
   0  -5  -4   74.17    4.59
   0   5   4   78.81    4.27
  -1  -5  -4    5.15    0.42
   1   5   4    5.16    0.33
  -2  -5  -4   35.47    2.20
   2   5   4   35.75    2.00
  -3  -5  -4   70.04    4.13
   3   5   4   66.48    3.80
  -4  -5  -4   20.64    1.36
   4   5   4   21.03    1.19
  -5  -5  -4   19.04    1.28
   5   5   4   19.35    1.40
  -6  -5  -4   52.02    3.31
   6   5   4   55.39    3.74
   7   5   4   16.61    1.25
   9  -6  -4   19.92    1.29
  -9   6   4   19.61    1.22
   8  -6  -4    0.85    0.21
  -8   6   4    0.70    0.16
   7  -6  -4   52.45    3.22
  -7   6   4   53.24    3.01
   6  -6  -4   25.97    1.65
  -6   6   4   26.43    1.53
   5  -6  -4    1.44    0.26
  -5   6   4    0.90    0.17
  -3   6   4   51.16    2.88
  -2   6   4   21.70    1.25
  -1   6   4   50.18    2.82
   0  -6  -4  132.84    8.20
   0   6   4  142.31    7.65
  -1  -6  -4   26.24    1.68
   1   6   4   26.73    1.51
  -2  -6  -4   28.95    1.82
   2   6   4   28.73    1.63
  -3  -6  -4   79.11    4.70
   3   6   4   76.31    4.33
  -4  -6  -4   14.35    1.03
  -5  -6  -4    7.64    0.69
  -6  -6  -4   22.85    1.55
   6   6   4   22.43    1.65
   9  -7  -4    9.97    0.78
  -9   7   4   10.30    0.73
   8  -7  -4    2.21    0.38
  -8   7   4    1.64    0.29
   7  -7  -4   34.49    2.13
  -7   7   4   33.62    1.97
   6  -7  -4   19.18    1.29
  -6   7   4   20.01    1.17
  -5   7   4    0.28    0.10
   4  -7  -4   40.23    2.55
  -4   7   4   42.03    2.34
   3  -7  -4   74.49    4.50
  -2   7   4    4.66    0.33
   1  -7  -4   48.17    3.01
  -1   7   4   49.91    2.76
   0  -7  -4   48.69    3.03
   0   7   4   49.82    2.77
  -1  -7  -4    5.89    0.55
   1   7   4    5.86    0.38
  -2  -7  -4   15.07    1.01
   2   7   4   13.34    0.82
  -3  -7  -4   34.14    2.18
  -4  -7  -4   18.28    1.28
   8  -8  -4    0.00    0.23
  -8   8   4    0.20    0.16
   7  -8  -4   13.68    0.98
  -7   8   4   13.51    0.86
   6  -8  -4   21.79    1.44
  -6   8   4   21.81    1.30
   5  -8  -4   11.54    0.86
  -5   8   4   11.53    0.73
   4  -8  -4   16.95    1.17
   3  -8  -4   51.93    3.28
  -3   8   4   54.77    3.01
   2  -8  -4    6.07    0.56
  -2   8   4    5.97    0.41
   1  -8  -4   21.32    1.42
   0  -8  -4   39.69    2.46
   0   8   4   38.33    2.20
  -1  -8  -4   12.62    0.95
  -2  -8  -4    4.19    0.57
  -3  -8  -4   30.61    2.02
   6  -9  -4   25.84    1.70
  -6   9   4   25.80    1.53
   5  -9  -4    3.08    0.49
  -5   9   4    3.24    0.32
   4  -9  -4   14.94    1.09
  -4   9   4   14.80    0.91
   3  -9  -4   19.82    1.37
  -3   9   4   20.19    1.18
   2  -9  -4    4.72    0.56
  -2   9   4    4.79    0.37
   1  -9  -4    4.74    0.61
  -1   9   4    4.88    0.37
   0  -9  -4   27.53    1.83
  -1  -9  -4   23.02    1.60
  -2 -11   5   23.00    1.62
  -1 -11   5    1.67    0.36
   0 -11   5   37.21    2.37
   1 -11   5   32.11    2.06
   2 -11   5    0.61    0.24
  -3  11  -5   20.23    1.24
   3 -11   5   22.94    1.42
  -5  11  -5    1.64    0.29
   5 -11   5    2.26    0.42
  -6  11  -5   16.81    1.04
  -4 -10   5   10.15    0.92
  -3 -10   5   39.49    2.54
  -2 -10   5   19.13    1.34
  -1 -10   5    1.35    0.37
   0 -10   5   28.03    1.80
  -1  10  -5   36.21    2.10
   1 -10   5   38.66    2.33
  -2  10  -5    1.58    0.19
   2 -10   5    1.86    0.30
   3 -10   5   37.41    2.30
  -4  10  -5   52.72    2.98
  -5  10  -5    0.20    0.12
   5 -10   5    0.42    0.13
  -6  10  -5   23.43    1.48
   6 -10   5   26.91    1.50
  -7  10  -5   24.10    1.56
   7 -10   5   28.38    1.57
  -5  -9   5    9.94    0.91
  -4  -9   5    5.56    0.63
  -3  -9   5   37.29    2.38
  -2  -9   5   38.78    2.45
  -1  -9   5   -0.16    0.16
   0  -9   5   57.40    3.49
  -1   9  -5   83.49    4.65
  -2   9  -5    0.23    0.07
   2  -9   5    0.19    0.14
   2  -9   5    0.35    0.09
   3  -9   5   63.62    3.56
   3  -9   5   63.04    3.81
   4  -9   5   80.63    4.46
   4  -9   5   78.05    4.74
   5  -9   5    5.22    0.41
   5  -9   5    4.49    0.38
   6  -9   5   14.52    0.91
   7  -9   5   41.14    2.38
   8  -9   5   14.09    0.91
  -6  -8   5   33.56    2.19
  -5  -8   5   21.96    1.50
  -4  -8   5    0.92    0.24
  -3  -8   5   36.19    2.28
  -2  -8   5   82.26    4.97
   0   8  -5  130.56    6.57
   0   8  -5  112.75    6.57
   0  -8   5  111.87    7.06
   1  -8   5  103.69    6.31
   1  -8   5  108.12    5.89
   2  -8   5    4.59    0.31
   2  -8   5    4.06    0.35
   3  -8   5   29.73    1.70
   3  -8   5   29.53    1.81
   4  -8   5   69.72    3.82
   4  -8   5   66.09    4.05
   5  -8   5    7.96    0.54
   5  -8   5    8.44    0.56
   6  -8   5    7.78    0.52
   7  -8   5   52.21    2.98
   8  -8   5   21.13    1.29
   9  -8   5    6.74    0.53
  -7  -7   5    1.37    0.33
  -6  -7   5   33.18    2.14
  -5  -7   5   44.35    2.77
  -4  -7   5    0.60    0.20
  -2  -7   5   85.83    5.16
  -1  -7   5    0.50    0.14
   0   7  -5   23.99    1.25
   0  -7   5   20.24    1.38
   0  -7   5   22.04    1.25
  -1   7  -5   47.12    2.50
   1  -7   5   44.32    2.69
   1  -7   5   42.17    2.50
   2  -7   5    7.35    0.46
   2  -7   5    7.14    0.49
   3  -7   5   17.29    1.07
   3  -7   5   17.29    1.01
  -4   7  -5   69.50    4.12
   4  -7   5   69.35    3.89
   4  -7   5   69.12    4.12
   5  -7   5   37.87    2.15
   5  -7   5   37.37    2.25
   6  -7   5    4.32    0.35
   6  -7   5    4.67    0.32
   7  -7   5   66.26    3.75
   8  -7   5   11.78    0.77
   9  -7   5    3.36    0.38
  -8  -6   5   21.27    1.48
  -7  -6   5    0.23    0.22
  -6  -6   5   50.63    3.13
  -3  -6   5   66.97    4.04
  -2  -6   5   85.24    5.11
   1   6  -5    7.94    0.46
  -1  -6   5    8.26    0.56
   0   6  -5   92.36    4.89
   0  -6   5   82.88    5.24
   0  -6   5   88.70    4.89
  -1   6  -5  192.84   11.56
  -1   6  -5  210.19   10.85
   1  -6   5  190.09   11.56
   1  -6   5  189.75   10.85
  -2   6  -5   40.50    2.40
   2  -6   5   39.57    2.26
  -3   6  -5   21.13    1.28
   3  -6   5   21.08    1.28
   3  -6   5   21.21    1.22
  -4   6  -5  142.02    8.52
   4  -6   5  144.72    8.52
   4  -6   5  146.15    8.03
   5  -6   5   28.52    1.68
   5  -6   5   29.74    1.74
   6  -6   5   23.61    1.38
   7  -6   5   46.04    2.64
   8  -6   5   26.61    1.57
   9  -6   5    0.03    0.13
  -9  -5   5   14.02    1.08
  -8  -5   5   32.88    2.13
  -7  -5   5    0.01    0.18
  -6  -5   5   69.58    4.22
  -4  -5   5    0.09    0.13
  -3  -5   5   52.12    3.15
  -2  -5   5  135.04    8.02
   1   5  -5   23.45    1.27
  -1  -5   5   20.93    1.39
  -1  -5   5   23.24    1.27
   0   5  -5   29.59    1.75
   0   5  -5   30.01    1.63
   0  -5   5   28.28    1.64
   0  -5   5   28.43    1.76
  -1   5  -5  189.29    9.55
  -1   5  -5  173.16   10.16
   1  -5   5  160.11    9.55
   1  -5   5  165.86   10.17
  -2   5  -5  116.80    6.76
   2  -5   5  110.45    6.36
   2  -5   5  115.72    6.76
  -3   5  -5   63.53    3.67
   3  -5   5   60.71    3.47
   3  -5   5   61.73    3.67
   4  -5   5  153.30    8.53
   5  -5   5   24.29    1.41
   7  -5   5   40.80    2.33
   8  -5   5   40.65    2.33
   9  -5   5    0.08    0.11
  10  -5   5   22.15    1.34
  -9  -4   5   47.01    2.94
  -8  -4   5   28.17    1.82
  -7  -4   5    5.85    0.52
  -6  -4   5   37.35    2.31
  -4  -4   5    6.74    0.49
  -3  -4   5   71.84    4.30
  -2  -4   5   99.14    5.36
  -2  -4   5   94.01    5.75
   1   4  -5   36.12    2.09
  -1  -4   5   40.40    2.25
  -1  -4   5   36.06    2.10
   0   4  -5   63.83    3.41
   0   4  -5   64.23    3.63
   0  -4   5   56.80    3.41
   0  -4   5   63.08    3.63
   0  -4   5   57.81    3.64
  -1   4  -5  321.95   18.16
  -1   4  -5  331.75   17.07
   1  -4   5  275.09   17.06
   1  -4   5  303.77   18.16
  -2   4  -5   59.42    3.37
   2  -4   5   54.33    3.19
   2  -4   5   57.10    3.37
   3  -4   5   58.56    3.28
   4  -4   5  108.62    6.05
   5  -4   5   84.70    4.74
   7  -4   5   66.91    3.77
   8  -4   5   50.37    2.86
   9  -4   5    0.12    0.12
  10  -4   5   26.97    1.60
 -10  -3   5   -0.02    0.25
  -9  -3   5   42.16    2.63
  -8  -3   5   28.92    1.66
  -7  -3   5    3.43    0.36
  -6  -3   5   36.26    1.79
  -6  -3   5   29.28    1.79
  -6  -3   5   29.55    1.97
  -5  -3   5  100.19    4.97
  -5  -3   5   84.81    4.97
  -5  -3   5   83.18    5.34
  -4  -3   5   22.87    1.24
  -4  -3   5   21.28    1.25
   3   3  -5   75.39    3.89
  -3  -3   5   65.97    3.90
  -3  -3   5   68.72    4.18
   2   3  -5  218.55   11.72
  -2  -3   5  188.39   11.72
  -2  -3   5  227.74   12.49
   1   3  -5   60.29    3.35
  -1  -3   5   59.08    3.58
  -1  -3   5   64.88    3.57
  -1  -3   5   56.29    3.35
   0   3  -5  149.44    7.88
   0  -3   5  134.24    7.89
   0  -3   5  148.69    8.39
   0  -3   5  136.43    8.40
  -1   3  -5  220.18   11.55
   1  -3   5  193.62   11.55
   1  -3   5  214.39   12.28
   1  -3   5  205.28   12.29
  -2   3  -5   97.51    4.95
   2  -3   5   80.12    4.94
   3  -3   5    2.70    0.21
   4  -3   5   59.04    3.31
   5  -3   5   82.61    4.62
   6  -3   5    1.71    0.18
   7  -3   5   40.44    2.30
   9  -3   5    0.25    0.12
  10  -3   5   15.23    0.95
  10   2  -5    0.13    0.22
 -10  -2   5    0.29    0.25
  -9  -2   5   15.54    0.94
  -9  -2   5   15.12    1.06
  -8  -2   5   42.47    2.35
  -8  -2   5   40.41    2.55
  -7  -2   5   18.58    1.23
  -7  -2   5   19.49    1.11
  -6  -2   5   44.04    2.47
  -6  -2   5   40.94    2.66
  -6  -2   5   46.37    2.46
  -5  -2   5  237.81   12.50
  -5  -2   5  229.57   12.51
  -5  -2   5  209.51   13.35
   4   2  -5   81.34    4.97
   4   2  -5   93.39    4.65
  -4  -2   5   79.89    4.98
  -4  -2   5   79.72    4.65
   3   2  -5   88.39    5.57
   3   2  -5   95.58    5.22
  -3  -2   5   87.45    5.22
  -3  -2   5  104.68    5.58
   2   2  -5  206.90   12.44
   2   2  -5  220.47   11.67
  -2  -2   5  189.96   11.68
  -2  -2   5  225.64   12.44
   1   2  -5   87.47    5.38
   1   2  -5   95.47    5.05
  -1  -2   5   79.73    5.05
  -1  -2   5  101.22    5.38
   0   2  -5    0.56    0.08
   0  -2   5    0.70    0.08
   0  -2   5    0.58    0.08
  -1   2  -5  102.86    5.13
  -1   2  -5   82.22    5.44
   1  -2   5   88.84    5.13
   1  -2   5   94.80    5.44
  -2   2  -5  148.82    7.43
   2  -2   5  118.53    7.42
   3  -2   5    0.11    0.05
   5  -2   5  116.12    6.47
   6  -2   5    1.45    0.17
   8  -2   5   42.57    2.42
   9  -2   5    2.25    0.26
  10  -2   5    9.59    0.65
 -10  -1   5    0.90    0.26
 -10  -1   5    1.91    0.35
  -9  -1   5   32.54    1.87
  -9  -1   5   32.02    2.03
  -8  -1   5   55.40    3.49
  -8  -1   5   59.67    3.25
   7   1  -5   11.38    0.81
  -7  -1   5   12.64    0.85
  -7  -1   5   13.85    0.77
   6   1  -5   52.51    3.04
  -6  -1   5   48.76    2.84
   5   1  -5  134.48    7.98
  -5  -1   5  137.03    7.49
  -5  -1   5  132.75    7.48
   4   1  -5   16.33    1.08
   4   1  -5   18.66    1.00
  -4  -1   5   17.49    1.01
   3   1  -5   33.59    1.85
   3   1  -5   33.10    1.99
  -3  -1   5   32.09    1.85
   2   1  -5   96.85    5.28
   2   1  -5   88.99    5.63
  -2  -1   5  105.13    5.63
  -2  -1   5   89.05    5.28
   1   1  -5  195.63   10.28
   1   1  -5  169.36   10.95
  -1  -1   5  172.60   10.28
  -1  -1   5  204.44   10.94
   0   1  -5    9.66    0.52
   0   1  -5    7.57    0.55
   0  -1   5    9.64    0.54
   0  -1   5    7.77    0.51
  -1   1  -5  211.72   13.63
   1  -1   5  258.56   13.63
   1  -1   5  223.53   12.81
  -2   1  -5  119.89    7.91
  -2   1  -5  153.23    7.45
   2  -1   5  123.34    7.44
   2  -1   5  139.85    7.90
   3  -1   5    5.85    0.37
   4  -1   5  122.07    6.79
   5  -1   5   86.24    4.81
  -6   1  -5    1.85    0.23
   6  -1   5    1.76    0.18
  -7   1  -5   37.83    2.27
   8  -1   5   40.58    2.31
   9  -1   5    7.11    0.49
 -10   0   5   16.58    1.01
 -10   0   5   15.03    1.08
  -9   0   5   11.93    0.77
   8   0  -5   78.78    5.02
   8   0  -5   70.86    4.37
  -8   0   5   69.63    4.11
   7   0  -5    6.88    0.50
  -7   0   5    7.74    0.48
   6   0  -5   61.74    3.74
  -6   0   5   63.33    3.51
   5   0  -5  100.41    5.97
  -5   0   5  100.50    5.60
   4   0  -5   18.74    0.98
   4   0  -5   15.92    1.05
  -4   0   5   16.29    0.98
   3   0  -5    5.04    0.33
  -3   0   5    5.51    0.37
   2   0  -5  157.53   10.05
   2   0  -5  170.87    9.43
  -2   0   5  164.90    9.43
  -2   0   5  187.06   10.05
   1   0  -5  243.22   12.48
   1   0  -5  205.69   13.28
  -1   0   5  245.65   13.28
  -1   0   5  206.01   12.47
   0   0  -5    5.94    0.44
   0   0  -5    6.99    0.41
   0   0   5    5.75    0.41
   0   0   5    7.67    0.43
  -1   0  -5  229.64   14.73
  -1   0  -5  234.63   16.94
  -1   0  -5  274.46   13.85
   1   0   5  260.66   14.72
  -2   0  -5  159.04   10.05
   2   0   5  163.60    9.45
   2   0   5  188.43   10.05
  -3   0  -5    3.49    0.25
   3   0   5    3.03    0.23
   3   0   5    3.60    0.24
  -4   0  -5   85.38    5.45
   4   0   5  102.30    5.45
   4   0   5   88.71    5.13
  -5   0  -5   81.62    4.99
  -5   0  -5   83.09    4.99
   5   0   5   87.99    4.70
  -6   0  -5    5.81    0.45
   6   0   5    6.79    0.41
  -7   0  -5   21.50    1.33
   8   0   5   64.81    3.64
   9   0   5   10.14    0.66
  10  -1  -5    2.81    0.31
 -10   1   5    2.22    0.39
 -10   1   5    3.35    0.39
  -9   1   5   23.05    1.38
   8  -1  -5   51.12    3.11
  -8   1   5   52.12    2.93
   7  -1  -5    6.79    0.49
  -7   1   5    7.33    0.47
   6  -1  -5   12.93    0.82
   6  -1  -5   12.96    0.91
  -6   1   5   12.41    0.77
   5  -1  -5   58.77    3.91
   5  -1  -5   55.41    3.43
  -5   1   5   57.81    3.22
   4  -1  -5   46.91    2.94
  -4   1   5   51.10    2.75
   3  -1  -5    0.50    0.13
  -3   1   5    0.94    0.10
   2  -1  -5  242.04   13.67
   2  -1  -5  226.94   14.56
  -2   1   5  273.62   14.56
  -2   1   5  244.12   13.67
   1  -1  -5  127.91    6.89
   1  -1  -5  116.08    7.34
  -1   1   5  131.31    7.33
  -1   1   5  120.57    6.89
   0  -1  -5    2.09    0.21
   0  -1  -5    2.41    0.19
   0   1   5    2.48    0.18
   0   1   5    2.40    0.19
  -1  -1  -5  119.01    5.88
  -1  -1  -5   95.79    6.25
   1   1   5   98.70    5.86
   1   1   5  108.53    6.24
  -2  -1  -5   82.07    5.17
   2   1   5   94.32    5.16
   2   1   5   85.09    4.85
  -3  -1  -5    4.81    0.38
   3   1   5    5.75    0.36
   3   1   5    6.37    0.38
   4   1   5   48.05    2.69
   4   1   5   41.96    2.53
  -5  -1  -5   65.64    3.92
   5   1   5   65.75    3.67
  -6  -1  -5   17.92    1.16
   6   1   5   19.08    1.08
  -7  -1  -5   18.47    1.17
   8   1   5   46.94    2.66
   9   1   5    5.65    0.43
  10  -2  -5    3.54    0.36
 -10   2   5    3.54    0.41
  -9   2   5   15.86    1.00
   8  -2  -5   54.13    3.22
  -8   2   5   52.50    3.03
  -7   2   5   23.31    1.36
   6  -2  -5    0.38    0.11
  -6   2   5    0.34    0.09
   5  -2  -5   93.46    5.63
  -5   2   5   95.68    5.28
   4  -2  -5  131.71    8.00
  -4   2   5  138.14    7.50
   3  -2  -5    1.32    0.17
  -3   2   5    0.89    0.12
   2  -2  -5  193.41   11.53
  -2   2   5  196.22   10.81
   1  -2  -5  101.60    6.39
  -1   2   5  115.93    6.38
  -1   2   5  105.20    5.98
   0  -2  -5    0.45    0.12
   0   2   5    0.56    0.13
  -1  -2  -5  100.65    6.33
   1   2   5  116.45    6.32
   1   2   5  102.86    5.93
  -2  -2  -5   97.69    5.63
   2   2   5   91.58    5.26
  -3  -2  -5   22.34    1.37
   3   2   5   22.21    1.27
  -4  -2  -5   30.36    1.83
   4   2   5   29.31    1.69
  -5  -2  -5   94.42    5.78
   5   2   5   99.47    5.40
  -6  -2  -5   20.65    1.33
   6   2   5   21.49    1.22
  -7  -2  -5   12.59    0.86
   8   2   5   27.36    1.58
  10  -3  -5    6.59    0.54
 -10   3   5    7.41    0.58
   9  -3  -5    4.26    0.38
  -9   3   5    3.64    0.39
   8  -3  -5   50.96    3.13
  -8   3   5   52.58    2.95
  -7   3   5   55.72    3.16
   6  -3  -5    5.89    0.45
  -6   3   5    5.89    0.40
   5  -3  -5  188.51   11.30
  -5   3   5  193.07   10.60
   4  -3  -5   72.77    4.50
  -4   3   5   77.68    4.21
   3  -3  -5    1.92    0.22
  -3   3   5    1.83    0.16
   2  -3  -5   99.43    6.04
  -2   3   5  103.51    5.65
   1  -3  -5   59.14    3.71
  -1   3   5   64.49    3.46
   0  -3  -5    8.94    0.61
   0   3   5    9.26    0.55
   0   3   5    9.04    0.65
  -1  -3  -5   32.86    2.09
   1   3   5   35.41    1.94
   1   3   5   34.78    2.37
  -2  -3  -5  111.79    6.84
   2   3   5  118.36    7.84
   2   3   5  114.94    6.39
  -3  -3  -5   28.38    1.77
   3   3   5   29.55    2.01
   3   3   5   28.37    1.63
  -4  -3  -5   43.82    2.65
   4   3   5   42.39    2.45
   4   3   5   44.58    3.03
  -5  -3  -5   62.78    3.97
   5   3   5   68.12    4.55
   5   3   5   67.06    3.69
  -6  -3  -5   11.32    0.81
   6   3   5   11.53    0.69
  -7  -3  -5   10.22    0.77
  10  -4  -5    4.61    0.46
 -10   4   5    5.67    0.50
   9  -4  -5    2.00    0.30
  -9   4   5    1.78    0.30
   8  -4  -5   53.99    3.29
  -8   4   5   54.99    3.10
   7  -4  -5   37.03    2.29
  -7   4   5   37.75    2.15
   5  -4  -5   45.65    2.77
   4  -4  -5   37.89    2.37
  -4   4   5   39.51    2.20
   3  -4  -5    4.08    0.34
  -3   4   5    3.65    0.27
   2  -4  -5   38.54    2.46
  -2   4   5   42.22    2.28
   1  -4  -5   72.74    4.64
  -1   4   5   80.09    4.33
  -1   4   5   79.84    5.28
   0  -4  -5   28.38    1.84
   0   4   5   31.31    1.70
  -1  -4  -5   38.48    2.42
   1   4   5   40.79    2.23
  -2  -4  -5   76.15    4.61
   2   4   5   77.65    4.29
  -3  -4  -5    3.20    0.33
   3   4   5    3.39    0.32
   3   4   5    3.11    0.24
  -4  -4  -5   33.83    2.13
   4   4   5   35.67    2.41
   4   4   5   33.74    1.94
  -5  -4  -5   48.79    3.04
   5   4   5   50.67    3.46
   5   4   5   49.86    2.80
  -6  -4  -5   14.79    1.03
  -7  -4  -5    5.86    0.62
  10  -5  -5   22.73    1.50
 -10   5   5   23.73    1.43
   9  -5  -5    1.42    0.33
  -9   5   5    1.25    0.30
   8  -5  -5   44.34    2.74
  -8   5   5   45.23    2.57
   7  -5  -5   13.46    0.91
   6  -5  -5    3.27    0.35
  -4   5   5   39.16    2.22
  -3   5   5   10.88    0.66
   2  -5  -5   33.97    2.24
  -2   5   5   38.17    2.05
   1  -5  -5   90.89    5.60
  -1   5   5   95.98    5.21
   0  -5  -5    3.55    0.35
   0   5   5    3.80    0.26
  -1  -5  -5   59.06    3.65
   1   5   5   61.23    3.37
  -2  -5  -5   79.17    4.72
   2   5   5   77.59    4.37
  -3  -5  -5   16.10    1.13
   3   5   5   16.97    0.99
   3   5   5   17.81    1.24
  -4  -5  -5    8.84    0.69
   4   5   5    9.33    0.55
   4   5   5    8.37    0.72
  -5  -5  -5   33.35    2.21
   5   5   5   36.48    2.47
  -6  -5  -5   11.40    0.93
   6   5   5   13.15    0.98
   9  -6  -5    1.62    0.40
  -9   6   5    2.01    0.33
   8  -6  -5   25.69    1.62
  -8   6   5   25.04    1.51
   7  -6  -5   17.93    1.16
  -7   6   5   16.69    1.05
  -6   6   5    1.18    0.20
   5  -6  -5   16.97    1.16
  -5   6   5   18.01    1.05
   4  -6  -5   65.73    4.06
  -4   6   5   68.04    3.76
  -2   6   5   47.26    2.67
   1  -6  -5   73.36    4.44
  -1   6   5   73.50    4.11
   0  -6  -5   18.63    1.25
   0   6   5   19.45    1.11
  -1  -6  -5    4.19    0.43
   1   6   5    4.19    0.30
  -2  -6  -5   48.60    2.89
   2   6   5   44.93    2.62
  -3  -6  -5   27.71    1.73
   3   6   5   25.79    1.52
  -4  -6  -5    1.01    0.27
   4   6   5    1.08    0.28
  -5  -6  -5   45.52    2.89
   5   6   5   46.93    3.24
   8  -7  -5   13.21    0.96
  -8   7   5   13.53    0.86
   7  -7  -5   34.50    2.13
  -7   7   5   33.07    1.96
   6  -7  -5    7.38    0.63
  -6   7   5    7.41    0.52
   5  -7  -5   34.94    2.16
  -5   7   5   33.79    1.98
   4  -7  -5   74.49    4.70
  -4   7   5   80.75    4.36
   3  -7  -5    2.63    0.38
  -3   7   5    2.73    0.25
   2  -7  -5   26.88    1.74
  -2   7   5   27.03    1.55
   1  -7  -5   40.96    2.56
   0   7   5    3.27    0.26
  -1  -7  -5    8.61    0.71
   1   7   5    8.66    0.54
  -2  -7  -5   42.66    2.61
   2   7   5   40.27    2.33
  -3  -7  -5   25.95    1.73
  -4  -7  -5    2.35    0.51
   4   7   5    1.03    0.33
   7  -8  -5   34.66    2.25
  -7   8   5   36.10    2.06
   6  -8  -5    1.91    0.39
  -6   8   5    1.34    0.27
   5  -8  -5   20.76    1.40
  -5   8   5   20.90    1.24
   4  -8  -5   33.59    2.17
  -4   8   5   34.55    1.96
   3  -8  -5    1.48    0.41
  -3   8   5    1.93    0.23
   2  -8  -5    8.27    0.69
  -2   8   5    7.62    0.52
   1  -8  -5   28.13    1.83
  -1   8   5   27.47    1.60
   0  -8  -5   19.82    1.34
   0   8   5   18.57    1.12
  -1  -8  -5    2.00    0.48
  -2  -8  -5   48.75    3.07
   5  -9  -5    6.92    0.72
  -5   9   5    7.30    0.53
   4  -9  -5   16.03    1.21
  -4   9   5   16.91    1.01
   3  -9  -5    8.18    0.78
  -3   9   5    8.46    0.57
   2  -9  -5    0.44    0.31
  -2   9   5    1.02    0.24
   1  -9  -5   38.70    2.41
  -1   9   5   35.70    2.11
  -2 -11   6    0.21    0.31
  -1 -11   6   25.37    1.71
   0 -11   6   29.52    1.92
   1 -11   6    2.07    0.41
   2 -11   6   28.78    1.83
  -3  11  -6   31.65    1.81
  -4  11  -6    0.45    0.14
   4 -11   6    0.76    0.25
  -5  11  -6   13.65    0.86
  -4 -10   6   28.44    1.93
  -3 -10   6   31.54    2.09
  -2 -10   6    0.23    0.24
  -1 -10   6   43.03    2.70
  -1  10  -6    0.49    0.09
   1 -10   6    0.64    0.21
  -2  10  -6   31.31    1.87
   2 -10   6   34.74    2.05
   3 -10   6   38.34    2.19
   4 -10   6    3.98    0.41
   4 -10   6    4.75    0.38
   5 -10   6    9.36    0.64
   6 -10   6   31.21    1.84
   7 -10   6   10.18    0.71
  -5  -9   6    1.28    0.35
  -4  -9   6   42.09    2.68
  -3  -9   6   52.92    3.29
  -1  -9   6   65.57    4.00
   1  -9   6    1.26    0.25
   1  -9   6    1.38    0.16
   2  -9   6   41.42    2.34
   2  -9   6   40.99    2.51
   3  -9   6   61.46    3.50
   3  -9   6   62.75    3.73
   4  -9   6   11.21    0.73
   4  -9   6   12.10    0.77
   5  -9   6   13.06    0.86
   5  -9   6   14.66    0.90
   6  -9   6   48.57    2.78
   7  -9   6   12.08    0.80
   8  -9   6   10.46    0.74
  -6  -8   6   32.58    2.16
  -5  -8   6    0.13    0.23
  -4  -8   6   56.83    3.52
  -3  -8   6   45.79    2.85
  -2  -8   6    0.38    0.16
  -1  -8   6   30.27    1.92
   0  -8   6   81.74    4.90
   1  -8   6   26.19    1.47
   1  -8   6   25.19    1.59
   2  -8   6   38.68    2.17
   2  -8   6   38.03    2.32
   3  -8   6  111.66    6.23
   3  -8   6  111.74    6.63
   4  -8   6   20.88    1.26
   4  -8   6   21.92    1.32
   5  -8   6   31.86    1.89
   5  -8   6   33.65    1.98
   6  -8   6   67.78    3.84
   7  -8   6   16.52    1.03
   8  -8   6    4.10    0.39
  -7  -7   6   42.21    2.70
  -6  -7   6   49.27    3.09
  -5  -7   6    0.45    0.22
  -4  -7   6   67.56    4.12
  -2  -7   6    0.30    0.15
   1   7  -6   39.13    2.14
  -1  -7   6   38.97    2.15
  -1  -7   6   37.05    2.35
   0   7  -6   66.30    3.48
   0  -7   6   59.67    3.49
   0  -7   6   61.02    3.75
   1  -7   6   14.36    0.92
   1  -7   6   14.41    0.84
   2  -7   6   24.88    1.46
   2  -7   6   26.02    1.55
  -3   7  -6   58.25    3.38
   3  -7   6   55.34    3.20
   3  -7   6   56.73    3.38
  -4   7  -6   24.24    1.49
   4  -7   6   24.31    1.44
   4  -7   6   25.61    1.49
   5  -7   6    3.06    0.27
   6  -7   6   36.32    2.09
   7  -7   6   21.83    1.31
   8  -7   6    1.59    0.28
   9  -7   6   19.44    1.20
  -8  -6   6   -0.22    0.27
  -7  -6   6   47.10    2.96
  -6  -6   6   36.06    2.29
  -3  -6   6   79.92    4.81
  -2  -6   6   45.57    2.77
   1   6  -6   32.90    1.75
  -1  -6   6   31.53    1.76
  -1  -6   6   29.45    1.92
   0   6  -6  187.89    9.90
   0  -6   6  175.87    9.90
   0  -6   6  172.09   10.57
  -1   6  -6   33.08    1.93
   1  -6   6   30.71    1.81
   1  -6   6   32.50    1.94
  -2   6  -6   47.27    2.66
   2  -6   6   44.62    2.66
   2  -6   6   41.76    2.51
  -3   6  -6   61.57    3.61
   3  -6   6   59.38    3.42
   3  -6   6   61.69    3.61
   4  -6   6   19.65    1.15
   5  -6   6    6.08    0.42
   6  -6   6   30.19    1.75
   7  -6   6   22.96    1.36
   8  -6   6    0.21    0.13
   9  -6   6   36.09    2.10
  -9  -5   6   23.78    1.64
  -8  -5   6    0.22    0.25
  -7  -5   6   45.72    2.85
  -6  -5   6   47.13    2.91
  -4  -5   6   20.33    1.31
  -3  -5   6   98.34    5.88
   2   5  -6   28.04    1.54
  -2  -5   6   27.90    1.55
  -2  -5   6   26.51    1.70
   1   5  -6   63.61    3.38
  -1  -5   6   61.45    3.39
  -1  -5   6   57.18    3.64
   0   5  -6  165.58    8.83
   0  -5   6  173.66    9.41
   0  -5   6  149.82    9.42
   0  -5   6  148.18    8.84
  -1   5  -6   51.97    2.70
  -1   5  -6   49.10    2.87
   1  -5   6   43.28    2.70
   1  -5   6   45.89    2.87
   1  -5   6   50.87    2.87
   2  -5   6   20.53    1.25
   2  -5   6   21.90    1.31
   2  -5   6   23.04    1.31
   3  -5   6  103.90    5.79
   4  -5   6   52.25    2.95
   7  -5   6   58.41    3.32
   8  -5   6    0.82    0.15
   9  -5   6   25.78    1.53
  -9  -4   6   19.51    1.35
  -8  -4   6    0.41    0.21
  -7  -4   6   13.79    0.96
  -5  -4   6   11.93    0.70
   4   4  -6   51.03    2.56
  -4  -4   6   43.88    2.80
  -4  -4   6   43.10    2.57
   3   4  -6  137.99    7.19
  -3  -4   6  124.52    7.72
  -3  -4   6  127.01    7.20
   2   4  -6   14.14    0.78
  -2  -4   6   13.40    0.79
  -2  -4   6   13.49    0.87
   1   4  -6   40.63    2.26
  -1  -4   6   43.65    2.42
  -1  -4   6   38.29    2.27
  -1  -4   6   39.56    2.44
   0   4  -6  120.15    6.36
   0  -4   6  112.34    6.78
   0  -4   6  103.25    6.37
   0  -4   6  122.26    6.77
  -1   4  -6   24.19    1.28
   1  -4   6   20.20    1.28
   1  -4   6   22.89    1.34
   1  -4   6   22.44    1.35
   2  -4   6    9.44    0.57
   3  -4   6  106.45    5.93
   4  -4   6  113.67    6.34
   7  -4   6   39.74    2.27
   8  -4   6    0.42    0.12
   9  -4   6   26.60    1.57
 -10  -3   6   18.24    1.28
  -9  -3   6   18.39    1.26
  -8  -3   6    2.00    0.26
  -8  -3   6    1.91    0.35
  -7  -3   6   26.37    1.68
  -7  -3   6   26.54    1.52
  -6  -3   6  110.31    6.13
  -5  -3   6    7.28    0.46
  -5  -3   6    6.78    0.53
  -5  -3   6    7.88    0.44
   4   3  -6   58.65    2.94
  -4  -3   6   51.75    3.18
  -4  -3   6   47.69    2.95
   3   3  -6  123.06    6.42
  -3  -3   6  116.54    6.88
  -3  -3   6  107.44    6.43
   2   3  -6   38.02    2.06
  -2  -3   6   32.27    2.06
  -2  -3   6   36.27    2.22
  -2  -3   6   40.57    2.21
   1   3  -6   14.64    0.81
  -1  -3   6   12.57    0.82
  -1  -3   6   14.82    0.87
  -1  -3   6   14.37    0.88
   0   3  -6  219.27   11.63
   0  -3   6  215.67   12.38
   0  -3   6  208.71   12.39
   0  -3   6  195.74   11.64
  -1   3  -6  109.89    5.65
   1  -3   6   94.93    5.65
   1  -3   6   99.98    6.00
   2  -3   6    5.88    0.37
   4  -3   6   26.42    1.52
   5  -3   6   20.06    1.17
   7  -3   6   26.80    1.55
   8  -3   6    1.91    0.24
   9  -3   6   13.09    0.83
  10   2  -6    7.00    0.64
 -10  -2   6    5.98    0.63
  -9  -2   6   42.28    2.39
  -9  -2   6   41.09    2.59
  -8  -2   6   17.24    1.02
  -8  -2   6   16.86    1.14
  -7  -2   6   25.17    1.61
  -7  -2   6   25.86    1.47
  -6  -2   6  119.36    7.61
  -6  -2   6  136.26    7.12
   5   2  -6   21.12    1.27
  -5  -2   6   20.37    1.16
  -5  -2   6   19.88    1.29
  -5  -2   6   20.26    1.17
   4   2  -6   20.74    1.32
   4   2  -6   22.22    1.22
   3   2  -6  122.75    6.47
   3   2  -6  115.66    6.91
  -3  -2   6  110.95    6.48
   2   2  -6   70.60    4.52
   2   2  -6   80.47    4.23
  -2  -2   6   68.87    4.24
  -2  -2   6   84.17    4.52
   1   2  -6    0.58    0.10
   1   2  -6    0.66    0.09
  -1  -2   6    0.67    0.09
   0   2  -6  131.13    6.84
   0   2  -6  108.42    7.27
   0  -2   6  129.85    7.27
  -1   2  -6   65.59    4.53
  -1   2  -6   86.02    4.28
   1  -2   6   78.36    4.52
   2  -2   6    2.56    0.20
   3  -2   6   73.05    4.08
   4  -2   6   87.90    4.91
   5  -2   6    7.50    0.48
   7  -2   6   44.35    2.52
   8  -2   6    5.95    0.43
   9  -2   6   21.74    1.29
 -10  -1   6   18.23    1.10
 -10  -1   6   16.48    1.19
  -9  -1   6   65.67    3.62
  -9  -1   6   62.26    3.89
  -8  -1   6    4.42    0.44
  -8  -1   6    5.31    0.40
  -7  -1   6   35.38    2.02
   6   1  -6   57.86    3.46
  -6  -1   6   57.58    3.24
   5   1  -6    5.93    0.44
  -5  -1   6    6.81    0.41
   4   1  -6    1.52    0.17
   4   1  -6    1.45    0.14
  -4  -1   6    1.69    0.15
   3   1  -6  171.11    9.25
   3   1  -6  165.44    9.87
  -3  -1   6  163.87    9.26
   2   1  -6  133.14    7.13
   2   1  -6  114.34    7.61
  -2  -1   6  137.83    7.60
   1   1  -6   33.45    1.82
   1   1  -6   28.25    1.94
  -1  -1   6   34.72    1.93
   0   1  -6  243.39   11.87
   0   1  -6  184.17   12.63
   0  -1   6  199.11   11.86
   0  -1   6  229.09   12.62
  -1   1  -6   52.17    3.39
   1  -1   6   54.32    3.19
   1  -1   6   64.51    3.38
  -2   1  -6    0.68    0.11
   2  -1   6    0.79    0.09
   3  -1   6   76.05    4.25
   4  -1   6   47.11    2.65
   5  -1   6    7.15    0.45
   7  -1   6   63.84    3.59
   8  -1   6    7.94    0.53
   9  -1   6   24.99    1.47
 -10   0   6   13.55    0.97
   9   0  -6   48.65    2.78
  -9   0   6   46.55    2.62
  -9   0   6   42.10    2.80
   8   0  -6    3.24    0.36
   8   0  -6    3.11    0.31
  -8   0   6    3.61    0.32
  -7   0   6    7.07    0.48
   6   0  -6   45.01    2.67
  -6   0   6   43.56    2.51
   5   0  -6   52.34    3.16
  -5   0   6   52.78    2.96
   4   0  -6    2.28    0.21
  -4   0   6    2.04    0.18
   3   0  -6  182.61   11.00
  -3   0   6  189.21   10.32
   2   0  -6   39.48    2.16
   2   0  -6   34.39    2.31
  -2   0   6   36.74    2.16
  -2   0   6   43.14    2.31
   1   0  -6   12.08    0.68
   1   0  -6   10.31    0.73
  -1   0   6   12.52    0.73
  -1   0   6   11.26    0.68
   0   0  -6  126.52    7.89
   0   0   6  129.04    7.41
   0   0   6  144.33    7.88
  -1   0  -6   80.61    5.19
  -1   0  -6   72.47    4.52
   1   0   6   71.35    4.24
   1   0   6   79.59    4.50
  -2   0  -6    1.58    0.16
   2   0   6    1.72    0.14
   2   0   6    1.22    0.14
  -3   0  -6  107.93    6.95
   3   0   6  117.46    6.54
   3   0   6  127.42    6.95
  -4   0  -6  102.92    6.72
   4   0   6  107.59    6.32
   4   0   6  130.14    6.71
  -5   0  -6    2.67    0.24
   5   0   6    2.81    0.22
  -6   0  -6   65.25    3.89
   7   0   6   57.05    3.21
   8   0   6    6.10    0.44
   9   0   6    7.45    0.53
  10  -1  -6   13.79    0.88
 -10   1   6   13.18    0.87
 -10   1   6   12.04    0.92
   9  -1  -6   21.05    1.34
  -9   1   6   21.18    1.27
   8  -1  -6   10.80    0.71
  -8   1   6   10.23    0.68
  -7   1   6    0.85    0.18
   6  -1  -6   77.61    4.57
  -6   1   6   75.21    4.28
   5  -1  -6   62.08    3.84
  -5   1   6   66.21    3.60
   4  -1  -6    1.96    0.23
  -4   1   6    2.54    0.19
   3  -1  -6   81.23    4.99
  -3   1   6   86.18    4.67
   2  -1  -6   33.21    2.02
  -2   1   6   33.42    1.88
   1  -1  -6    7.83    0.57
  -1   1   6    9.04    0.56
  -1   1   6    8.51    0.52
   0  -1  -6   65.70    4.26
   0   1   6   69.26    3.98
   0   1   6   78.94    4.24
   1   1   6   91.36    5.15
   1   1   6   82.46    4.84
   2   1   6   14.41    0.90
   2   1   6   16.49    0.95
   3   1   6  102.46    5.88
   3   1   6   96.17    5.53
  -4  -1  -6  143.25    8.92
   4   1   6  161.62    8.91
   4   1   6  147.20    8.37
  -5  -1  -6    4.18    0.35
   5   1   6    4.84    0.32
  -6  -1  -6   35.00    2.13
   7   1   6   58.95    3.32
   8   1   6    6.34    0.45
  10  -2  -6    4.72    0.43
 -10   2   6    4.79    0.47
   9  -2  -6   33.56    2.08
  -9   2   6   34.05    1.97
   8  -2  -6   24.36    1.52
  -8   2   6   23.97    1.43
  -7   2   6    8.31    0.55
   6  -2  -6   55.12    3.38
  -6   2   6   57.09    3.17
   5  -2  -6   24.74    1.58
  -5   2   6   26.17    1.47
  -4   2   6    9.87    0.60
   3  -2  -6   88.25    5.25
  -3   2   6   87.74    4.91
   2  -2  -6   53.67    3.25
  -2   2   6   54.18    3.03
   1  -2  -6   22.54    1.45
  -1   2   6   24.11    1.34
   0  -2  -6   23.10    1.50
   0   2   6   25.52    1.39
  -1  -2  -6  153.04    9.29
   1   2   6  160.49    8.71
  -2  -2  -6    3.15    0.26
   2   2   6    2.57    0.21
  -3  -2  -6   52.72    3.24
   3   2   6   55.28    3.03
  -4  -2  -6   33.21    2.07
   4   2   6   34.83    1.93
  -5  -2  -6    5.04    0.43
   5   2   6    5.98    0.37
  -6  -2  -6    7.07    0.54
   7   2   6   28.60    1.64
  10  -3  -6    0.69    0.19
 -10   3   6    0.79    0.21
   9  -3  -6   43.40    2.67
  -9   3   6   43.79    2.52
   7  -3  -6    6.31    0.49
  -7   3   6    6.40    0.45
  -6   3   6  133.54    7.45
   4  -3  -6    4.17    0.35
  -4   3   6    3.90    0.29
   3  -3  -6   54.12    3.27
  -3   3   6   54.18    3.04
   2  -3  -6   91.65    5.69
  -2   3   6   98.90    5.32
   1  -3  -6    5.80    0.45
  -1   3   6    6.19    0.39
   0  -3  -6  101.76    6.42
   0   3   6  113.74    6.00
  -1  -3  -6   98.59    6.02
   1   3   6  103.49    5.63
  -2  -3  -6    3.10    0.30
   2   3   6    3.20    0.23
  -3  -3  -6   12.51    0.83
   3   3   6   12.54    0.74
  -4  -3  -6   61.68    3.79
   4   3   6   64.09    3.52
  -5  -3  -6   13.38    0.94
   5   3   6   14.64    0.83
  -6  -3  -6    5.39    0.49
  10  -4  -6    4.95    0.48
 -10   4   6    4.45    0.49
   9  -4  -6   29.83    1.83
  -9   4   6   28.51    1.73
   8  -4  -6   17.14    1.11
  -8   4   6   16.61    1.04
   7  -4  -6    1.33    0.28
  -7   4   6    1.48    0.23
   6  -4  -6   10.53    0.74
  -4   4   6    4.69    0.33
   3  -4  -6   47.69    2.91
  -3   4   6   47.65    2.69
   2  -4  -6  128.22    7.83
  -2   4   6  134.54    7.31
   1  -4  -6    0.38    0.13
  -1   4   6    0.65    0.12
   0  -4  -6   49.88    3.12
   0   4   6   53.02    2.90
  -1  -4  -6   64.02    4.02
   1   4   6   69.07    3.74
   1   4   6   67.33    4.57
  -2  -4  -6    5.94    0.49
   2   4   6    6.15    0.40
   2   4   6    6.29    0.49
  -3  -4  -6   16.34    1.10
   3   4   6   17.01    1.21
   3   4   6   16.54    0.97
  -4  -4  -6   58.34    3.57
   4   4   6   59.29    3.30
  -5  -4  -6   24.92    1.60
   9  -5  -6   18.47    1.25
  -9   5   6   19.39    1.18
   8  -5  -6    9.67    0.72
  -8   5   6    9.55    0.65
   7  -5  -6    0.25    0.17
  -7   5   6    0.21    0.12
   6  -5  -6   14.34    0.97
  -6   5   6   14.12    0.89
   5  -5  -6   51.72    3.19
  -5   5   6   52.66    2.96
   2  -5  -6   39.18    2.48
  -2   5   6   41.15    2.28
   1  -5  -6    2.26    0.30
  -1   5   6    2.24    0.21
   0  -5  -6   19.86    1.29
   0   5   6   19.55    1.40
   0   5   6   20.27    1.16
  -1  -5  -6   70.10    4.33
   1   5   6   74.02    4.92
   1   5   6   71.15    4.01
  -2  -5  -6   12.05    0.88
   2   5   6   12.38    0.75
   2   5   6   13.18    0.94
  -3  -5  -6   11.99    0.83
   3   5   6   10.86    0.68
   3   5   6   11.45    0.86
   4   5   6   76.25    5.03
   4   5   6   69.80    4.08
  -5  -5  -6   16.18    1.14
   9  -6  -6   10.29    0.79
  -9   6   6    9.38    0.70
   8  -6  -6   26.03    1.63
  -8   6   6   24.34    1.50
   7  -6  -6    2.94    0.40
  -7   6   6    2.46    0.30
   6  -6  -6   35.59    2.25
  -6   6   6   36.55    2.08
   5  -6  -6   52.99    3.24
  -4   6   6    0.47    0.11
   3  -6  -6   21.68    1.46
  -3   6   6   23.02    1.31
   2  -6  -6   29.67    1.88
   1  -6  -6    3.32    0.40
  -1   6   6    3.52    0.31
   0  -6  -6    8.44    0.68
   0   6   6    8.65    0.65
   1   6   6   47.90    3.31
  -2  -6  -6   26.52    1.74
   2   6   6   27.36    1.91
  -3  -6  -6    6.81    0.63
   3   6   6    6.62    0.58
  -4  -6  -6   61.85    3.84
   4   6   6   62.90    4.32
   8  -7  -6   23.95    1.58
  -8   7   6   23.93    1.45
   7  -7  -6    0.52    0.24
  -7   7   6    0.47    0.16
   6  -7  -6   20.69    1.39
  -6   7   6   20.52    1.24
   5  -7  -6   26.55    1.75
  -5   7   6   27.39    1.58
   4  -7  -6    2.86    0.44
  -4   7   6    2.99    0.29
   3  -7  -6   10.22    0.81
   2  -7  -6   62.37    3.87
  -2   7   6   64.08    3.56
   1  -7  -6   33.26    2.10
  -1   7   6   32.48    1.88
   0  -7  -6    6.43    0.61
   0   7   6    6.25    0.52
   0   7   6    5.92    0.42
  -1  -7  -6   74.73    4.48
   1   7   6   71.05    4.09
   1   7   6   73.88    5.02
  -2  -7  -6   18.50    1.29
   2   7   6   18.07    1.34
  -3  -7  -6    6.45    0.71
   3   7   6    6.55    0.59
   6  -8  -6   21.21    1.43
  -6   8   6   20.29    1.25
   5  -8  -6   23.03    1.57
  -5   8   6   23.72    1.39
   4  -8  -6    3.88    0.54
  -4   8   6    4.30    0.36
   3  -8  -6    7.75    0.73
  -3   8   6    7.16    0.51
   2  -8  -6   35.89    2.32
  -2   8   6   36.31    2.07
   1  -8  -6   10.50    0.86
  -1   8   6    9.70    0.64
   0  -8  -6   10.93    0.92
  -1  -8  -6   35.92    2.34
  -2 -11   7   48.53    3.08
  -1 -11   7   18.64    1.33
   0 -11   7    3.95    0.51
   1 -11   7   31.92    2.04
   2 -11   7   22.02    1.45
  -3  11  -7    0.43    0.13
   3 -11   7    0.77    0.24
  -4  11  -7   14.14    0.92
   4 -11   7   15.85    0.95
   5 -11   7   34.34    2.01
  -4 -10   7   34.71    2.31
  -3 -10   7    0.19    0.29
  -2 -10   7   44.49    2.81
  -1 -10   7   38.13    2.41
   0 -10   7    1.13    0.32
  -1  10  -7   24.84    1.48
   1 -10   7   27.59    1.67
   2 -10   7   35.84    2.05
   3 -10   7    5.20    0.46
   3 -10   7    5.72    0.42
   4 -10   7   15.30    0.96
   4 -10   7   13.75    0.91
   5 -10   7   43.39    2.50
   6 -10   7    5.58    0.48
  -5  -9   7   45.36    2.90
  -4  -9   7   22.89    1.56
  -3  -9   7    1.59    0.41
  -1  -9   7   32.21    2.04
   0  -9   7    6.20    0.40
   1  -9   7   29.55    1.83
   1  -9   7   29.06    1.67
   2  -9   7   77.97    4.54
   2  -9   7   73.77    4.25
   3  -9   7    8.01    0.55
   3  -9   7    8.57    0.58
   4  -9   7   32.60    1.97
   4  -9   7   35.81    2.08
   5  -9   7   67.29    3.81
   6  -9   7    7.47    0.55
   7  -9   7    8.22    0.61
  -6  -8   7    4.05    0.60
  -5  -8   7   42.92    2.73
  -4  -8   7   25.35    1.68
  -3  -8   7    0.83    0.24
  -2  -8   7   30.48    1.93
  -1  -8   7   81.21    5.52
  -1  -8   7  102.73    5.12
   0  -8   7    4.48    0.40
   0  -8   7    4.52    0.31
   1  -8   7   70.93    3.94
   1  -8   7   69.91    4.22
   2  -8   7  108.19    6.07
   2  -8   7  109.44    6.46
   3  -8   7   16.24    0.98
   3  -8   7   16.45    1.02
   4  -8   7   21.26    1.36
   4  -8   7   25.14    1.42
   5  -8   7   62.45    3.54
   6  -8   7   14.44    0.91
   7  -8   7    1.38    0.27
   8  -8   7   29.16    1.73
  -7  -7   7   18.97    1.36
  -6  -7   7    1.80    0.42
  -5  -7   7   16.08    1.13
  -2  -7   7   75.84    4.58
   1   7  -7  155.64    8.96
  -1  -7   7  166.34    8.97
  -1  -7   7  163.19    9.61
   0   7  -7    8.74    0.52
   0  -7   7    8.41    0.52
   0  -7   7    8.45    0.59
   1  -7   7   38.92    2.27
   1  -7   7   41.58    2.43
  -2   7  -7   85.33    5.08
   2  -7   7   83.37    4.78
   2  -7   7   87.82    5.08
  -3   7  -7   10.77    0.67
   3  -7   7   10.71    0.67
   3  -7   7   10.13    0.65
   4  -7   7   10.82    0.68
   5  -7   7   54.30    3.08
   7  -7   7    1.64    0.25
   8  -7   7   49.35    2.84
  -8  -6   7   23.73    1.64
  -7  -6   7   20.12    1.40
  -6  -6   7    2.20    0.39
  -5  -6   7   32.50    2.06
  -3  -6   7    3.79    0.37
   2   6  -7   26.99    1.52
  -2  -6   7   26.77    1.70
  -2  -6   7   27.62    1.53
   1   6  -7   50.51    2.74
  -1  -6   7   47.37    2.97
  -1  -6   7   49.54    2.75
   0   6  -7    1.91    0.16
   0  -6   7    1.92    0.21
   0  -6   7    1.62    0.17
   1  -6   7   17.43    0.98
   1  -6   7   15.56    0.99
   1  -6   7   14.87    0.93
   2  -6   7   61.91    3.35
   2  -6   7   56.06    3.35
   2  -6   7   50.89    3.16
   3  -6   7   58.32    3.16
   3  -6   7   48.30    3.01
   4  -6   7    0.52    0.11
   5  -6   7   92.53    5.19
   6  -6   7   30.99    1.80
   7  -6   7    2.98    0.31
   8  -6   7   38.17    2.21
   9  -6   7   19.68    1.21
  -9  -5   7    0.41    0.32
  -8  -5   7   13.96    1.05
  -7  -5   7   63.80    3.92
  -6  -5   7    8.84    0.69
  -4  -5   7  102.21    6.12
   3   5  -7    8.26    0.46
  -3  -5   7    7.93    0.48
  -3  -5   7    7.71    0.58
   2   5  -7   79.30    4.37
  -2  -5   7   80.99    4.39
  -2  -5   7   75.84    4.71
   1   5  -7  167.41    8.98
  -1  -5   7  161.09    9.60
  -1  -5   7  157.58    8.99
   0   5  -7   19.36    1.09
   0  -5   7   20.80    1.17
   0  -5   7   18.80    1.18
   0  -5   7   17.65    1.10
   1  -5   7    2.81    0.22
   1  -5   7    2.54    0.21
   1  -5   7    2.95    0.21
   2  -5   7  153.77    8.86
   2  -5   7  139.43    8.35
   2  -5   7  157.17    8.85
   3  -5   7   65.87    3.70
   4  -5   7   16.58    0.99
   7  -5   7    0.11    0.11
   8  -5   7   35.83    2.08
   9  -5   7   21.53    1.30
  -9  -4   7    1.93    0.45
  -8  -4   7   22.97    1.53
  -7  -4   7   47.24    2.95
  -6  -4   7    1.00    0.18
  -5  -4   7   41.65    2.50
  -5  -4   7   47.30    2.49
   4   4  -7  112.67    5.58
  -4  -4   7   91.24    5.60
  -4  -4   7   97.85    6.01
   3   4  -7    7.36    0.42
  -3  -4   7    6.75    0.44
  -3  -4   7    7.12    0.51
   2   4  -7   14.03    0.77
  -2  -4   7   12.95    0.78
  -2  -4   7   13.02    0.86
   1   4  -7  101.26    5.73
  -1  -4   7  109.53    6.11
  -1  -4   7   98.45    6.12
   0   4  -7  129.46    6.98
   0  -4   7  133.91    7.43
   0  -4   7  119.06    6.99
   0  -4   7  120.45    7.44
   1  -4   7   10.22    0.65
   1  -4   7   10.78    0.67
   1  -4   7   11.39    0.66
   2  -4   7  256.15   14.21
   3  -4   7   48.37    2.73
   4  -4   7    6.27    0.42
   6  -4   7   44.90    2.56
   7  -4   7    0.36    0.12
   8  -4   7   22.01    1.31
   9  -4   7   45.49    2.61
  -9  -3   7    0.33    0.24
  -8  -3   7   22.77    1.52
  -8  -3   7   23.82    1.37
  -7  -3   7   40.55    2.28
  -7  -3   7   39.61    2.49
  -6  -3   7    1.16    0.18
   5   3  -7   38.57    2.00
  -5  -3   7   32.69    2.02
   4   3  -7   50.16    2.67
  -4  -3   7   45.38    2.90
   3   3  -7   20.79    1.16
  -3  -3   7   19.92    1.28
   2   3  -7   11.50    0.68
   2   3  -7   11.73    0.75
  -2  -3   7   12.07    0.76
   1   3  -7  265.72   13.92
  -1  -3   7  270.40   14.82
  -1  -3   7  217.49   13.92
   0  -3   7   84.11    4.75
   0  -3   7   72.92    4.48
   0  -3   7   83.94    4.77
   1  -3   7   38.17    2.40
   1  -3   7   44.61    2.53
   1  -3   7   44.64    2.52
   2  -3   7  174.29    9.68
   3  -3   7   91.03    5.09
   4  -3   7    1.01    0.14
   5  -3   7   70.55    3.96
   6  -3   7   59.85    3.38
   8  -3   7   29.16    1.70
   9  -3   7   39.90    2.30
 -10  -2   7   30.50    1.97
  -9  -2   7    2.74    0.42
  -9  -2   7    2.79    0.36
  -8  -2   7   24.86    1.61
  -8  -2   7   25.32    1.47
  -7  -2   7   41.24    2.51
  -7  -2   7   40.14    2.31
  -6  -2   7    5.60    0.39
   5   2  -7    7.85    0.52
  -5  -2   7    7.01    0.47
   4   2  -7  115.50    6.78
  -4  -2   7  112.69    6.35
   3   2  -7   79.34    4.76
   3   2  -7   81.93    4.45
  -3  -2   7   78.45    4.46
   2   2  -7   66.17    4.13
   2   2  -7   75.59    3.86
  -2  -2   7   65.74    3.87
   1   2  -7  188.25   12.59
   1   2  -7  237.13   11.83
  -1  -2   7  191.33   11.83
  -1  -2   7  236.17   12.59
   0   2  -7   45.94    2.96
   0  -2   7   56.44    2.95
   0  -2   7   46.38    2.78
  -1   2  -7    2.90    0.23
   1  -2   7    3.27    0.21
   1  -2   7    2.72    0.22
   2  -2   7   70.57    3.95
   3  -2   7   61.89    3.47
   4  -2   7    3.83    0.28
   5  -2   7   29.49    1.69
   6  -2   7   92.11    5.16
   7  -2   7    6.24    0.45
   8  -2   7   27.12    1.58
   9  -2   7   32.61    1.89
 -10  -1   7   26.07    1.77
 -10  -1   7   28.52    1.64
  -9  -1   7    5.88    0.47
  -9  -1   7    4.60    0.51
  -8  -1   7   14.68    0.91
   7   1  -7   79.34    4.50
  -7  -1   7   70.80    4.21
  -6  -1   7   71.16    3.99
   5   1  -7   10.23    0.66
  -5  -1   7    9.46    0.60
   4   1  -7  212.57   12.57
  -4  -1   7  212.56   11.80
   3   1  -7   66.58    3.99
  -3  -1   7   66.83    3.73
   2   1  -7    9.51    0.66
  -2  -1   7   10.67    0.61
  -1  -1   7   43.74    2.65
  -1  -1   7   50.48    2.82
   0   1  -7   67.49    4.37
   0  -1   7   70.05    4.11
   0  -1   7   82.93    4.36
  -1   1  -7    1.59    0.18
   1  -1   7    1.87    0.15
   1  -1   7    1.44    0.16
  -2   1  -7   57.43    3.59
   2  -1   7   60.54    3.38
   2  -1   7   63.05    3.57
   3  -1   7  130.94    7.29
   4  -1   7   12.02    0.72
   5  -1   7   47.53    2.68
   6  -1   7   84.19    4.71
   7  -1   7    3.54    0.30
   8  -1   7   14.50    0.89
 -10   0   7   20.48    1.22
 -10   0   7   18.20    1.30
   9   0  -7    4.99    0.42
  -9   0   7    4.87    0.44
   8   0  -7    7.89    0.60
  -8   0   7    6.57    0.51
   7   0  -7   52.23    3.11
  -7   0   7   50.58    2.91
  -6   0   7   45.11    2.56
   5   0  -7   27.00    1.68
  -5   0   7   27.41    1.57
   4   0  -7  108.06    6.52
  -4   0   7  111.09    6.11
   3   0  -7   36.42    2.28
  -3   0   7   38.63    2.13
   2   0  -7    6.52    0.47
  -2   0   7    6.54    0.42
   1   0  -7   81.78    5.12
  -1   0   7   92.09    5.11
  -1   0   7   84.14    4.80
   0   0  -7  141.25    9.21
   0   0  -7  168.30   10.57
   0   0   7  168.87    9.20
   0   0   7  144.01    8.64
  -1   0  -7    1.01    0.16
   1   0   7    0.54    0.10
   1   0   7    0.41    0.11
  -2   0  -7  107.26    6.44
   2   0   7  103.00    6.04
   2   0   7  115.37    6.42
  -3   0  -7  122.83    7.84
   3   0   7  143.12    7.82
   3   0   7  131.47    7.37
  -5   0  -7   50.20    3.00
  -6   0  -7   49.19    3.09
   6   0   7   53.95    2.91
   8   0   7    3.19    0.31
  10  -1  -7   20.96    1.36
 -10   1   7   21.55    1.32
   9  -1  -7   13.46    0.86
  -9   1   7   11.73    0.85
  -8   1   7   14.16    0.89
   7  -1  -7   79.57    4.74
  -7   1   7   78.40    4.44
  -6   1   7   20.60    1.21
  -5   1   7   29.15    1.67
   4  -1  -7   54.52    3.35
  -4   1   7   56.78    3.13
   3  -1  -7   60.21    3.69
  -3   1   7   62.74    3.45
   2  -1  -7    2.03    0.23
  -2   1   7    2.19    0.18
   1  -1  -7   96.23    5.83
  -1   1   7   99.66    5.46
   0  -1  -7  240.64   14.51
   0   1   7  250.26   13.61
   1   1   7    4.30    0.31
   1   1   7    3.98    0.28
  -2  -1  -7   92.79    6.06
   2   1   7  111.03    6.05
   2   1   7  102.42    5.69
  -3  -1  -7  103.12    6.55
   3   1   7  117.26    6.54
   3   1   7  110.88    6.15
  -4  -1  -7    3.63    0.31
   4   1   7    3.93    0.28
  -5  -1  -7   14.46    0.93
  -6  -1  -7   59.58    3.73
   6   1   7   65.04    3.51
   8   1   7   10.97    0.70
  10  -2  -7   25.21    1.62
 -10   2   7   26.14    1.56
   9  -2  -7   16.27    1.10
  -9   2   7   17.14    1.05
   8  -2  -7    9.81    0.70
  -8   2   7    9.97    0.67
   7  -2  -7   41.28    2.61
  -7   2   7   44.16    2.45
  -6   2   7   15.50    0.94
  -5   2   7    2.14    0.21
   4  -2  -7   42.05    2.57
  -4   2   7   42.43    2.39
   3  -2  -7   85.53    5.19
  -3   2   7   87.92    4.85
   2  -2  -7    3.49    0.32
  -2   2   7    3.62    0.26
   1  -2  -7   85.92    5.19
  -1   2   7   87.75    4.85
   0  -2  -7  118.87    7.49
   0   2   7  133.14    7.02
  -1  -2  -7    0.92    0.18
   1   2   7    0.74    0.12
  -2  -2  -7   35.01    2.19
   2   2   7   36.92    2.04
  -3  -2  -7   51.28    3.15
   3   2   7   53.47    2.95
  -4  -2  -7   21.51    1.40
   4   2   7   22.99    1.29
  -5  -2  -7    6.33    0.50
  -6  -2  -7   57.43    3.59
   6   2   7   61.57    3.35
   7   2   7   16.00    0.96
  10  -3  -7   35.18    2.20
 -10   3   7   35.46    2.09
   9  -3  -7   12.72    0.89
  -9   3   7   12.83    0.85
   8  -3  -7    2.00    0.30
  -8   3   7    1.79    0.29
   7  -3  -7   24.49    1.55
  -7   3   7   24.52    1.45
  -6   3   7   53.21    3.02
   3  -3  -7  126.30    7.74
  -3   3   7  133.89    7.25
   2  -3  -7    0.48    0.16
  -2   3   7    1.05    0.14
   1  -3  -7  101.09    6.24
  -1   3   7  107.82    5.83
   0  -3  -7   62.82    3.93
   0   3   7   67.88    3.67
  -1  -3  -7    4.50    0.38
   1   3   7    4.35    0.31
  -2  -3  -7    5.38    0.46
   2   3   7    5.75    0.37
  -3  -3  -7   75.54    4.62
   3   3   7   78.44    4.31
  -4  -3  -7   37.47    2.31
  -5  -3  -7    5.87    0.52
   5   3   7    5.75    0.40
  -6  -3  -7   40.42    2.58
   6   3   7   43.21    2.38
   9  -4  -7   18.06    1.21
  -9   4   7   17.96    1.13
   8  -4  -7    1.20    0.31
  -8   4   7    0.68    0.16
   7  -4  -7   62.86    3.78
  -7   4   7   61.52    3.53
   6  -4  -7   65.42    3.96
  -6   4   7   65.36    3.70
   3  -4  -7   67.33    4.07
   2  -4  -7    0.40    0.16
  -2   4   7    0.37    0.09
   1  -4  -7   18.48    1.25
  -1   4   7   19.94    1.13
   0  -4  -7   46.02    2.91
   0   4   7   49.14    2.69
  -1  -4  -7   37.46    2.34
   1   4   7   38.24    2.15
  -2  -4  -7   10.35    0.74
   2   4   7    9.96    0.62
  -3  -4  -7   80.41    4.84
  -4  -4  -7   20.03    1.32
  -5  -4  -7   10.12    0.81
   5   4   7   10.82    0.66
   9  -5  -7   17.88    1.24
  -9   5   7   18.96    1.17
   8  -5  -7    1.31    0.36
  -8   5   7    1.15    0.28
   7  -5  -7   21.67    1.41
  -7   5   7   21.15    1.29
   6  -5  -7   35.55    2.27
  -6   5   7   37.04    2.10
   4  -5  -7   33.43    2.12
  -4   5   7   34.09    1.94
   3  -5  -7   34.67    2.19
  -3   5   7   35.29    2.00
   2  -5  -7   14.64    1.01
  -2   5   7   14.61    0.90
   1  -5  -7    7.04    0.58
   0  -5  -7   59.28    3.62
  -1  -5  -7   18.58    1.24
  -2  -5  -7   22.67    1.49
   3   5   7   62.07    3.49
  -4  -5  -7   16.25    1.16
   4   5   7   16.65    0.98
  -5  -5  -7    4.01    0.58
   8  -6  -7    0.41    0.25
  -8   6   7    0.21    0.17
   7  -6  -7   29.49    1.93
  -7   6   7   30.88    1.78
   6  -6  -7   19.22    1.30
  -6   6   7   19.16    1.16
   5  -6  -7    0.93    0.25
  -5   6   7    1.06    0.21
   4  -6  -7    9.61    0.75
  -4   6   7    9.44    0.62
   3  -6  -7   38.69    2.43
  -3   6   7   38.72    2.22
   2  -6  -7   17.24    1.16
  -2   6   7   16.10    0.99
   1  -6  -7   26.91    1.71
  -1   6   7   25.60    1.51
   0  -6  -7   86.77    5.24
   0   6   7   86.32    4.84
  -1  -6  -7   24.08    1.60
   1   6   7   24.23    1.40
  -2  -6  -7   11.63    0.90
   2   6   7   11.45    0.71
  -3  -6  -7   29.07    1.90
   7  -7  -7   11.45    0.90
  -7   7   7   11.34    0.77
   6  -7  -7   16.81    1.20
  -6   7   7   17.24    1.06
   5  -7  -7    7.77    0.68
  -5   7   7    7.47    0.54
   4  -7  -7    8.55    0.76
  -4   7   7    9.18    0.60
   3  -7  -7   52.66    3.25
  -3   7   7   51.84    2.96
   2  -7  -7   27.58    1.83
  -2   7   7   28.16    1.62
   1  -7  -7    5.25    0.59
  -1   7   7    5.30    0.40
   0  -7  -7   37.43    2.40
  -1  -7  -7   15.49    1.16
  -2  -7  -7    1.05    0.36
  -5   8   7   14.42    0.91
   4  -8  -7   12.22    0.99
  -4   8   7   12.16    0.78
   3  -8  -7   43.92    2.78
  -3   8   7   43.33    2.49
   2  -8  -7    3.86    0.62
  -2   8   7    4.55    0.38
   1  -8  -7   11.46    0.98
  -1   8   7   11.78    0.74
  -2 -11   8   25.12    1.74
  -1 -11   8    2.28    0.52
   0 -11   8   22.88    1.54
   1 -11   8   39.37    2.47
   3 -11   8   18.29    1.12
   4 -11   8   49.04    2.81
  -4 -10   8    0.86    0.38
  -3 -10   8   22.14    1.56
  -2 -10   8   23.95    1.62
  -1 -10   8    4.19    0.52
   0 -10   8   22.75    1.50
   1 -10   8   60.17    3.49
   1 -10   8   54.63    3.22
   2 -10   8    1.21    0.24
   3 -10   8   25.90    1.60
   3 -10   8   28.89    1.71
   4 -10   8   42.72    2.46
   5 -10   8    6.39    0.51
   6 -10   8    6.12    0.52
  -5  -9   8   20.48    1.49
  -4  -9   8    0.42    0.28
  -3  -9   8   23.19    1.56
  -1  -9   8    5.66    0.54
   0  -9   8   40.46    2.28
   1  -9   8   73.47    4.17
   1  -9   8   75.53    4.48
   2  -9   8    9.71    0.64
   2  -9   8    8.55    0.59
   3  -9   8   14.59    0.91
   3  -9   8   13.68    0.87
   4  -9   8   46.59    2.67
   5  -9   8   11.29    0.74
   6  -9   8    1.72    0.30
   7  -9   8   30.23    1.80
  -6  -8   8   22.33    1.59
  -5  -8   8   39.49    2.54
  -4  -8   8    6.34    0.63
  -3  -8   8   46.68    2.91
  -2  -8   8  103.87    6.25
  -1  -8   8    1.99    0.30
   0  -8   8   46.46    2.85
   0  -8   8   46.97    2.63
   1  -8   8   77.81    4.51
   1  -8   8   83.29    4.82
   2  -8   8   18.43    1.11
   2  -8   8   19.24    1.17
   3  -8   8   10.71    0.71
   3  -8   8   11.55    0.71
   4  -8   8   63.59    3.60
   6  -8   8    3.66    0.36
   7  -8   8   42.23    2.45
   8  -8   8   12.89    0.86
  -7  -7   8    0.63    0.33
  -6  -7   8   21.42    1.49
  -5  -7   8   62.10    3.83
  -4  -7   8    6.02    0.57
  -2  -7   8  100.95    5.61
   1   7  -8   12.20    0.71
  -1  -7   8   11.98    0.83
  -1  -7   8   12.39    0.72
   0  -7   8   19.58    1.17
   0  -7   8   21.10    1.28
   1  -7   8  128.19    7.27
   1  -7   8  116.76    6.82
   2  -7   8   46.94    2.97
   2  -7   8   52.09    3.14
   2  -7   8   58.68    3.14
   3  -7   8   17.01    1.02
   4  -7   8  100.73    5.65
   5  -7   8   40.91    2.35
   6  -7   8    2.43    0.30
   7  -7   8   39.66    2.30
   8  -7   8   24.99    1.50
  -8  -6   8   32.21    2.12
  -7  -6   8    2.77    0.50
  -6  -6   8   44.60    2.80
  -5  -6   8   80.90    4.91
  -4  -6   8    0.98    0.28
   3   6  -8   55.82    3.11
  -3  -6   8   54.63    3.40
  -3  -6   8   57.02    3.12
   2   6  -8   38.80    2.19
  -2  -6   8   40.33    2.21
  -2  -6   8   38.24    2.40
   1   6  -8   14.40    0.81
  -1  -6   8   13.92    0.92
  -1  -6   8   13.68    0.82
   0  -6   8    3.28    0.25
   0  -6   8    2.86    0.27
   1  -6   8   95.49    5.29
   1  -6   8   80.42    4.99
   1  -6   8   91.94    5.31
   2  -6   8   63.43    3.75
   2  -6   8   55.82    3.55
   2  -6   8   70.20    3.75
   3  -6   8    2.71    0.25
   4  -6   8   56.25    3.19
   5  -6   8   32.58    1.88
   6  -6   8    1.81    0.25
   7  -6   8   25.44    1.51
   8  -6   8   24.46    1.47
  -8  -5   8   43.74    2.77
  -7  -5   8    3.05    0.44
  -5  -5   8   65.09    3.59
  -5  -5   8   63.32    3.91
   4   5  -8   18.64    1.00
  -4  -5   8   16.63    1.16
  -4  -5   8   17.46    1.02
   3   5  -8    8.72    0.51
  -3  -5   8    8.97    0.53
  -3  -5   8    8.00    0.62
   2   5  -8   93.95    5.13
  -2  -5   8   90.47    5.51
  -2  -5   8   92.47    5.15
  -1  -5   8   77.22    4.32
  -1  -5   8   77.48    4.62
   0  -5   8   16.83    1.02
   0  -5   8   14.33    0.95
   0  -5   8   17.71    1.00
   1  -5   8  140.13    8.20
   1  -5   8  127.75    7.72
   1  -5   8  148.10    8.19
   2  -5   8   36.47    2.08
   3  -5   8   11.65    0.72
   4  -5   8   31.39    1.81
   7  -5   8   32.81    1.91
   8  -5   8   50.50    2.89
  -9  -4   8   32.60    2.11
  -8  -4   8   50.03    3.11
  -7  -4   8    2.85    0.39
  -7  -4   8    2.35    0.30
  -6  -4   8   16.06    0.98
  -6  -4   8   17.22    1.15
   5   4  -8   42.38    2.26
  -5  -4   8   38.12    2.28
   4   4  -8   29.35    1.55
  -4  -4   8   27.18    1.72
  -4  -4   8   25.77    1.57
   3   4  -8   14.50    0.79
  -3  -4   8   13.66    0.90
  -3  -4   8   12.66    0.80
   2   4  -8  142.55    7.66
  -2  -4   8  142.90    8.20
  -2  -4   8  128.67    7.67
  -1  -4   8  109.12    6.52
  -1  -4   8  125.02    6.95
   0  -4   8   26.24    1.67
   0  -4   8   29.43    1.78
   0  -4   8   32.18    1.76
   1  -4   8  175.37    9.83
   1  -4   8  154.18    9.26
   1  -4   8  170.32    9.84
   2  -4   8   45.99    2.60
   6  -4   8    1.95    0.23
   7  -4   8   27.93    1.63
   8  -4   8   35.13    2.04
   9  -4   8    2.71    0.33
  -9  -3   8   17.07    1.20
  -8  -3   8   16.43    1.12
  -8  -3   8   16.06    1.00
  -7  -3   8    4.33    0.36
  -6  -3   8   13.26    0.81
  -5  -3   8   74.40    4.17
  -5  -3   8   74.40    4.48
   4   3  -8   49.08    2.94
  -4  -3   8   48.44    2.75
  -4  -3   8   48.55    2.96
   3   3  -8   18.40    1.16
  -3  -3   8   19.53    1.18
  -3  -3   8   17.89    1.08
   2   3  -8  121.59    7.21
  -2  -3   8  121.41    6.76
   1   3  -8   35.83    2.14
  -1  -3   8   35.04    2.01
   0   3  -8   17.77    1.13
   0  -3   8   19.16    1.08
   1  -3   8   61.55    3.82
   1  -3   8   71.09    4.05
   1  -3   8   71.95    4.04
   2  -3   8  114.27    6.37
   3  -3   8   14.81    0.88
   5  -3   8   94.01    5.27
   6  -3   8    0.35    0.10
   7  -3   8   37.77    2.17
   8  -3   8   46.11    2.64
 -10  -2   8    0.55    0.26
  -9  -2   8   13.02    0.96
  -9  -2   8   13.00    0.85
  -8  -2   8   34.28    2.22
  -8  -2   8   36.35    2.04
   7   2  -8   20.28    1.24
  -7  -2   8   18.39    1.27
  -7  -2   8   19.29    1.15
  -6  -2   8   13.32    0.81
   5   2  -8  118.69    6.79
  -5  -2   8  109.33    6.36
   4   2  -8   57.23    3.29
  -4  -2   8   51.90    3.07
   3   2  -8   24.12    1.50
  -3  -2   8   24.38    1.40
   2   2  -8  106.89    6.56
  -2  -2   8  114.19    6.16
   1   2  -8   73.78    4.78
  -1  -2   8   76.18    4.49
  -1  -2   8   90.89    4.77
   0   2  -8    0.28    0.09
   0  -2   8    0.35    0.08
   0  -2   8    0.25    0.07
  -1   2  -8   62.07    4.20
   1  -2   8   81.57    4.19
   1  -2   8   68.51    3.96
   2  -2   8   67.22    3.77
   3  -2   8    3.87    0.29
   4  -2   8   74.88    4.20
   5  -2   8   60.22    3.40
   6  -2   8    1.16    0.18
   7  -2   8   12.80    0.79
   8  -2   8   26.58    1.56
 -10  -1   8   11.74    0.96
 -10  -1   8   13.69    0.90
  -9  -1   8    4.40    0.43
  -9  -1   8    3.46    0.48
   8   1  -8   71.15    4.14
  -8  -1   8   66.38    3.89
   7   1  -8   49.79    2.87
  -7  -1   8   44.24    2.67
  -6  -1   8   18.83    1.12
   5   1  -8  100.50    6.02
  -5  -1   8  101.56    5.65
   4   1  -8   27.63    1.66
  -4  -1   8   26.07    1.54
   3   1  -8    0.69    0.18
  -3  -1   8    1.26    0.15
   2   1  -8   30.53    1.96
  -2  -1   8   33.66    1.83
   1   1  -8   94.80    6.23
  -1  -1   8  103.53    5.85
  -1  -1   8  116.46    6.22
   0   1  -8   11.76    0.82
   0  -1   8   12.20    0.76
   0  -1   8   14.08    0.79
  -1   1  -8   50.87    3.22
   1  -1   8   51.28    3.03
   1  -1   8   59.30    3.20
  -2   1  -8  143.73    8.71
   2  -1   8  155.79    8.69
   2  -1   8  142.32    8.20
   3  -1   8   11.29    0.69
   4  -1   8   29.41    1.69
   5  -1   8   43.37    2.46
   6  -1   8    5.96    0.42
   7  -1   8    9.99    0.64
   8  -1   8   41.09    2.35
  10   0  -8   12.96    0.86
 -10   0   8   11.80    0.92
 -10   0   8   11.94    0.86
   9   0  -8   11.08    0.78
   8   0  -8   61.51    3.56
  -8   0   8   56.04    3.34
   7   0  -8   13.54    0.90
  -7   0   8   13.46    0.84
  -6   0   8   11.77    0.73
   5   0  -8   52.76    3.21
  -5   0   8   53.30    3.00
   4   0  -8   47.83    2.94
  -4   0   8   49.41    2.75
   3   0  -8    0.89    0.19
  -3   0   8    0.72    0.13
   2   0  -8   97.75    5.84
  -2   0   8   98.11    5.47
   1   0  -8  126.68    7.42
  -1   0   8  123.04    6.95
   0   0  -8    1.68    0.22
   0   0  -8    1.57    0.21
   0   0   8    1.68    0.17
   0   0   8    1.63    0.18
  -1   0  -8   80.40    4.92
   1   0   8   78.87    4.62
   1   0   8   88.51    4.90
  -2   0  -8   49.63    3.11
   2   0   8   50.90    2.92
   2   0   8   54.74    3.08
  -3   0  -8    4.21    0.36
   3   0   8    4.47    0.32
   3   0   8    4.47    0.32
  -4   0  -8   11.57    0.76
   5   0   8   57.53    3.24
   6   0   8   23.33    1.36
   7   0   8   14.51    0.89
   8   0   8   45.43    2.59
  10  -1  -8    9.59    0.70
 -10   1   8    8.58    0.70
   9  -1  -8    7.44    0.59
  -9   1   8    7.25    0.57
   8  -1  -8   36.31    2.19
  -8   1   8   34.65    2.06
   7  -1  -8   17.41    1.14
  -7   1   8   17.55    1.06
  -6   1   8    0.39    0.12
  -5   1   8   37.22    2.13
   4  -1  -8   57.74    3.50
  -4   1   8   58.18    3.27
   3  -1  -8    4.16    0.37
  -3   1   8    4.80    0.32
   2  -1  -8  116.62    7.07
  -2   1   8  121.04    6.63
   1  -1  -8   93.82    5.77
  -1   1   8   99.71    5.41
   0  -1  -8    6.30    0.46
   0   1   8    6.12    0.40
  -1  -1  -8   71.04    4.36
   1   1   8   74.62    4.08
  -2  -1  -8   58.68    3.54
   2   1   8   59.04    3.31
  -3  -1  -8   11.32    0.78
   3   1   8   12.23    0.72
  -4  -1  -8   34.08    2.08
  -5  -1  -8   69.78    4.42
   5   1   8   78.12    4.15
   7   1   8    6.36    0.46
  10  -2  -8    5.01    0.50
 -10   2   8    5.24    0.53
   9  -2  -8    1.79    0.32
  -9   2   8    1.36    0.33
   8  -2  -8   29.72    1.86
  -8   2   8   29.25    1.74
  -7   2   8   27.30    1.60
  -6   2   8    2.55    0.27
  -5   2   8   37.39    2.14
   4  -2  -8   76.61    4.60
   3  -2  -8    0.49    0.16
   2  -2  -8   90.07    5.44
  -2   2   8   91.57    5.08
   1  -2  -8   32.34    2.06
  -1   2   8   34.71    1.92
   0  -2  -8    9.77    0.70
   0   2   8   10.30    0.62
  -1  -2  -8   18.77    1.18
   1   2   8   18.05    1.07
  -2  -2  -8  107.53    6.78
   2   2   8  120.16    6.35
  -3  -2  -8   29.59    1.83
  -4  -2  -8   28.77    1.82
   4   2   8   29.60    1.68
  -5  -2  -8   69.34    4.39
   5   2   8   77.04    4.11
   6   2   8   10.65    0.67
   9  -3  -8    1.30    0.35
   8  -3  -8   19.11    1.27
  -8   3   8   19.47    1.19
   7  -3  -8   23.72    1.53
  -7   3   8   23.86    1.42
   6  -3  -8    0.51    0.19
  -6   3   8    0.43    0.12
   4  -3  -8   56.05    3.41
   3  -3  -8    2.41    0.32
   2  -3  -8   11.56    0.80
   1  -3  -8   42.81    2.64
  -1   3   8   43.30    2.44
   0  -3  -8   24.88    1.59
   0   3   8   25.35    1.45
  -1  -3  -8   15.28    1.02
  -2  -3  -8   46.05    2.82
  -3  -3  -8   13.92    0.97
   3   3   8   14.57    0.86
  -4  -3  -8   11.79    0.84
   4   3   8   11.44    0.72
  -5  -3  -8   25.23    1.62
   6   3   8    9.31    0.61
   9  -4  -8    0.39    0.23
  -9   4   8    0.31    0.18
   8  -4  -8   61.15    3.66
  -8   4   8   58.68    3.42
   7  -4  -8   66.58    4.04
  -7   4   8   66.48    3.78
   6  -4  -8    0.38    0.19
  -6   4   8    0.20    0.11
   5  -4  -8   42.57    2.64
  -5   4   8   42.26    2.44
   4  -4  -8   31.58    1.99
  -4   4   8   31.70    1.83
   3  -4  -8    4.26    0.42
  -3   4   8    4.13    0.32
   2  -4  -8   25.82    1.66
  -2   4   8   25.91    1.50
   1  -4  -8   64.99    3.95
   0  -4  -8   25.65    1.64
  -1  -4  -8   12.70    0.91
   1   4   8   13.24    0.79
  -2  -4  -8   66.49    4.11
   2   4   8   69.03    3.81
  -3  -4  -8   12.55    0.88
   3   4   8   11.57    0.74
  -4  -4  -8    6.05    0.61
   4   4   8    6.80    0.45
  -5  -4  -8   20.02    1.42
   5   4   8   21.89    1.24
   8  -5  -8   12.67    0.92
  -8   5   8   11.98    0.83
   7  -5  -8    9.62    0.75
  -7   5   8    8.69    0.64
   6  -5  -8    1.71    0.39
  -6   5   8    1.65    0.26
   5  -5  -8   11.98    0.90
  -5   5   8   12.41    0.77
   4  -5  -8   46.81    2.94
  -4   5   8   48.43    2.71
   3  -5  -8    9.24    0.76
  -3   5   8    9.55    0.62
  -2   5   8   16.40    0.99
   1  -5  -8   60.95    3.84
  -1   5   8   64.34    3.54
   0   5   8   12.70    0.78
   1   5   8   22.62    1.32
  -2  -5  -8   35.81    2.28
   2   5   8   36.31    2.06
  -3  -5  -8   15.84    1.14
  -4  -5  -8    1.16    0.36
   7  -6  -8   15.42    1.10
  -7   6   8   15.10    0.97
   6  -6  -8    5.14    0.55
  -6   6   8    3.97    0.39
   5  -6  -8    7.53    0.68
  -5   6   8    7.32    0.53
   4  -6  -8   30.60    2.02
  -4   6   8   32.16    1.83
   3  -6  -8   10.12    0.79
  -3   6   8    9.50    0.64
   2  -6  -8   12.92    0.99
  -2   6   8   13.82    0.83
   1  -6  -8   53.35    3.28
  -1   6   8   52.36    2.99
   0  -6  -8    5.18    0.58
   0   6   8    5.21    0.39
  -1  -6  -8    6.11    0.66
   1   6   8    6.81    0.47
  -2  -6  -8   30.39    1.92
   2   6   8   27.77    1.67
   6  -7  -8    4.26    0.61
  -6   7   8    4.64    0.43
   5  -7  -8   10.00    0.88
  -5   7   8   10.58    0.70
   4  -7  -8   27.64    1.84
  -4   7   8   27.78    1.63
   3  -7  -8    2.22    0.53
  -3   7   8    2.75    0.31
   2  -7  -8    7.46    0.73
  -2   7   8    7.64    0.53
   1  -7  -8   16.79    1.26
  -1   7   8   17.14    1.03
   0  -7  -8   15.60    1.14
   0   7   8   14.03    0.90
  -1 -11   9   27.88    1.85
   0 -11   9   53.02    3.29
   1 -11   9    3.92    0.52
   2 -11   9   22.75    1.48
   3 -11   9   27.86    1.65
   4 -11   9    2.53    0.39
  -3 -10   9   28.77    1.94
  -2 -10   9    0.30    0.31
  -1 -10   9   35.13    2.24
   0 -10   9   43.12    2.68
   1 -10   9    1.00    0.23
   1 -10   9    1.20    0.35
   2 -10   9   11.78    0.82
   3 -10   9   32.39    1.89
   4 -10   9   14.84    0.94
   5 -10   9    5.38    0.48
   6 -10   9   38.45    2.26
  -5  -9   9    5.75    0.75
  -4  -9   9   29.43    1.97
  -3  -9   9   64.48    3.98
  -2  -9   9    3.23    0.50
  -1  -9   9   33.21    2.10
   0  -9   9   32.58    1.86
   1  -9   9    7.42    0.54
   1  -9   9    6.43    0.47
   2  -9   9    8.11    0.57
   2  -9   9    7.62    0.54
   3  -9   9   37.86    2.18
   5  -9   9    8.43    0.61
   6  -9   9   43.07    2.50
   7  -9   9   15.97    1.04
  -6  -8   9   30.20    2.03
  -5  -8   9    0.62    0.30
  -4  -8   9   34.56    2.22
  -3  -8   9   30.55    1.99
  -2  -8   9    3.36    0.42
  -1  -8   9   12.90    0.77
   0  -8   9   63.85    3.66
   0  -8   9   57.26    3.40
   1  -8   9   27.71    1.64
   1  -8   9   25.09    1.52
   2  -8   9   19.58    1.26
   2  -8   9   23.21    1.33
   3  -8   9   82.69    4.65
   4  -8   9   24.33    1.45
   5  -8   9   11.56    0.76
   6  -8   9   36.42    2.13
   7  -8   9   15.59    1.00
  -7  -7   9   30.41    2.05
  -6  -7   9   36.87    2.39
  -5  -7   9    0.01    0.23
  -4  -7   9   31.65    2.04
  -3  -7   9   47.59    2.95
  -2  -7   9   12.48    0.85
  -2  -7   9   11.84    0.72
  -1  -7   9   23.78    1.52
  -1  -7   9   24.30    1.39
   0  -7   9  128.21    7.28
   0  -7   9  116.42    6.81
   1  -7   9   46.12    2.80
   1  -7   9   52.89    2.98
   2  -7   9   22.38    1.32
   3  -7   9   78.33    4.41
   4  -7   9   22.38    1.33
   5  -7   9    2.47    0.28
   6  -7   9   25.01    1.49
   7  -7   9   28.22    1.68
   8  -7   9    0.35    0.18
  -8  -6   9    0.59    0.32
  -7  -6   9   20.72    1.45
  -4  -6   9   25.92    1.69
  -4  -6   9   26.65    1.50
  -2  -6   9   50.08    3.00
  -2  -6   9   48.25    2.77
  -1  -6   9   19.84    1.27
  -1  -6   9   20.13    1.17
   0  -6   9  138.12    7.91
   0  -6   9  128.25    7.42
   1  -6   9   12.21    0.85
   1  -6   9   15.00    0.88
   1  -6   9   15.43    0.90
   2  -6   9   23.79    1.54
   2  -6   9   28.01    1.59
   2  -6   9   27.66    1.60
   3  -6   9   35.40    2.04
   4  -6   9   39.29    2.26
   5  -6   9    0.05    0.12
   6  -6   9   47.21    2.71
   7  -6   9   46.90    2.70
   8  -6   9    0.60    0.18
  -8  -5   9    1.06    0.33
  -7  -5   9   22.08    1.50
  -6  -5   9   37.98    2.39
  -5  -5   9    7.99    0.61
  -5  -5   9    6.50    0.47
  -4  -5   9    2.44    0.25
  -3  -5   9   41.12    2.50
  -3  -5   9   40.06    2.30
  -2  -5   9   23.97    1.47
  -2  -5   9   22.58    1.35
  -1  -5   9   35.82    2.09
  -1  -5   9   32.65    1.95
   0  -5   9   59.09    3.48
   0  -5   9   62.68    3.47
   0  -5   9   52.69    3.27
   1  -5   9   20.90    1.16
   1  -5   9   19.65    1.14
   1  -5   9   15.84    1.10
   2  -5   9    1.64    0.20
   3  -5   9   50.06    2.84
   4  -5   9   64.73    3.66
   5  -5   9    0.49    0.12
   6  -5   9   50.29    2.87
   7  -5   9   40.49    2.34
   8  -5   9    0.27    0.15
  -9  -4   9   27.64    1.84
  -8  -4   9    6.64    0.64
  -7  -4   9    9.17    0.77
  -7  -4   9   10.10    0.65
  -6  -4   9   49.03    3.07
  -6  -4   9   50.63    2.82
  -5  -4   9   31.14    1.96
  -5  -4   9   30.93    1.78
  -4  -4   9   28.51    1.77
  -4  -4   9   27.69    1.61
  -3  -4   9  169.84    9.89
  -3  -4   9  186.35   10.57
  -2  -4   9   16.54    1.04
  -2  -4   9   19.06    1.14
  -1  -4   9   14.31    0.92
  -1  -4   9   16.90    1.00
   0  -4   9   49.00    2.91
   0  -4   9   52.52    2.89
   0  -4   9   43.65    2.74
   1  -4   9   59.40    3.43
   1  -4   9   60.79    3.42
   1  -4   9   52.65    3.25
   2  -4   9    0.20    0.08
   3  -4   9   87.11    4.89
   5  -4   9    0.33    0.10
   6  -4   9   56.97    3.23
   7  -4   9   32.63    1.90
   8  -4   9    1.30    0.28
  -9  -3   9   18.60    1.30
  -8  -3   9    3.91    0.51
  -8  -3   9    4.37    0.42
  -7  -3   9    8.64    0.72
  -7  -3   9    9.47    0.62
  -6  -3   9   77.66    4.26
  -6  -3   9   73.85    4.58
   5   3  -9   18.70    1.18
  -5  -3   9   18.05    1.09
   4   3  -9   17.93    1.12
  -4  -3   9   17.82    1.14
  -4  -3   9   16.81    1.03
   3   3  -9   58.77    3.59
  -3  -3   9   60.63    3.36
   2   3  -9   38.23    2.33
  -2  -3   9   38.67    2.19
   1   3  -9    0.70    0.17
  -1  -3   9    0.36    0.09
   0  -3   9  112.92    7.09
   0  -3   9  141.51    7.53
  -1   3  -9   80.27    5.62
   1  -3   9   96.18    5.32
   1  -3   9  108.62    5.62
   2  -3   9    0.06    0.08
   5  -3   9    0.40    0.11
   6  -3   9   19.89    1.19
   7  -3   9   36.94    2.13
   8  -3   9   22.19    1.33
  -9  -2   9   24.94    1.66
  -9  -2   9   25.17    1.51
  -8  -2   9    7.33    0.64
  -8  -2   9    7.24    0.55
   7   2  -9   20.30    1.20
  -7  -2   9   17.91    1.11
  -7  -2   9   16.87    1.22
   6   2  -9   51.74    3.01
  -6  -2   9   47.28    2.81
   5   2  -9    6.26    0.47
  -5  -2   9    5.42    0.41
   4   2  -9    3.89    0.36
  -4  -2   9    4.21    0.31
   3   2  -9   77.06    4.66
  -3  -2   9   78.61    4.37
   2   2  -9   53.48    3.33
  -2  -2   9   57.17    3.12
   1   2  -9    1.88    0.22
  -1  -2   9    1.84    0.19
   0   2  -9  114.12    7.38
   0  -2   9  134.60    6.94
   4  -2   9   41.04    2.34
   5  -2   9    6.16    0.43
   6  -2   9   16.37    0.99
   7  -2   9   50.87    2.90
   8  -2   9    7.22    0.52
   9   1  -9   41.02    2.36
  -9  -1   9   35.12    2.39
   8   1  -9    5.72    0.49
  -8  -1   9    5.49    0.47
  -7  -1   9    7.75    0.55
   6   1  -9   42.89    2.56
  -6  -1   9   40.50    2.38
   5   1  -9   32.16    1.97
  -5  -1   9   31.38    1.83
   4   1  -9    2.71    0.31
  -4  -1   9    3.16    0.26
   3   1  -9  105.45    6.45
  -3  -1   9  110.91    6.04
   2   1  -9   59.34    3.66
  -2  -1   9   62.47    3.43
   1   1  -9    0.39    0.13
   0   1  -9   83.89    5.29
   0  -1   9   87.32    4.97
   0  -1   9   95.13    5.27
   1  -1   9   40.55    2.30
   1  -1   9   36.42    2.19
  -2   1  -9    0.30    0.13
   2  -1   9    0.27    0.09
  -3   1  -9   17.55    1.09
   4  -1   9   60.42    3.41
   5  -1   9   31.11    1.79
   6  -1   9   23.22    1.37
   7  -1   9   56.84    3.22
   9   0  -9   46.91    2.75
  -9   0   9   42.29    2.58
   8   0  -9   23.68    1.47
  -8   0   9   21.96    1.37
   7   0  -9    0.73    0.20
  -7   0   9    0.65    0.15
   6   0  -9   62.45    3.73
  -6   0   9   60.65    3.48
   5   0  -9   58.26    3.57
  -5   0   9   59.62    3.33
   4   0  -9    0.63    0.16
  -4   0   9    1.17    0.18
   3   0  -9   63.96    3.86
  -3   0   9   64.25    3.61
   2   0  -9   51.55    3.11
  -2   0   9   51.07    2.90
   1   0  -9    0.62    0.14
   1   0  -9    0.37    0.12
  -1   0   9    0.12    0.07
   0   0  -9   45.50    2.72
   0   0   9   44.38    2.55
  -1   0  -9   51.90    3.19
   1   0   9   54.05    2.99
  -2   0  -9   23.15    1.42
   2   0   9   23.78    1.39
   2   0   9   21.54    1.32
  -3   0  -9   21.59    1.34
   4   0   9  101.54    5.68
   6   0   9   24.17    1.41
   7   0   9   50.30    2.86
   9  -1  -9   15.52    1.05
  -9   1   9   15.01    1.00
   8  -1  -9   15.28    1.05
  -8   1   9   16.04    1.00
   7  -1  -9    1.06    0.29
  -7   1   9    0.45    0.15
   6  -1  -9   55.84    3.44
  -6   1   9   57.33    3.21
   5  -1  -9   54.77    3.28
  -5   1   9   52.92    3.05
   4  -1  -9    3.38    0.35
  -4   1   9    3.22    0.28
   3  -1  -9   88.66    5.23
  -3   1   9   85.65    4.89
   2  -1  -9   47.21    2.88
   1  -1  -9    0.71    0.17
   0  -1  -9   29.09    1.81
   0   1   9   29.40    1.68
  -1  -1  -9   91.30    5.19
   1   1   9   82.41    4.86
  -2  -1  -9   12.66    0.85
  -3  -1  -9   54.26    3.33
   3   1   9   55.95    3.11
  -4  -1  -9   75.55    4.63
   4   1   9   79.00    4.34
   5   1   9    6.72    0.46
   6   1   9    7.74    0.52
   9  -2  -9   27.24    1.70
  -9   2   9   25.80    1.61
   8  -2  -9   20.41    1.36
  -8   2   9   20.77    1.27
   7  -2  -9    3.43    0.40
  -7   2   9    3.23    0.34
  -6   2   9   46.16    2.64
   5  -2  -9   37.01    2.31
  -5   2   9   37.51    2.14
   4  -2  -9    0.66    0.19
   3  -2  -9   39.59    2.44
   2  -2  -9   69.77    4.21
   1  -2  -9   22.46    1.43
   0  -2  -9   37.48    2.31
  -1  -2  -9  136.22    8.11
  -2  -2  -9   10.10    0.71
   2   2   9    9.60    0.62
  -3  -2  -9   27.67    1.80
   3   2   9   29.82    1.66
  -4  -2  -9   50.39    3.09
   4   2   9   51.31    2.89
   5   2   9   13.65    0.84
   6   2   9    4.29    0.36
   9  -3  -9   24.21    1.58
  -9   3   9   23.92    1.48
   8  -3  -9   14.72    1.04
  -8   3   9   14.97    0.96
   7  -3  -9    1.00    0.25
  -7   3   9    0.67    0.17
   6  -3  -9   27.87    1.82
  -6   3   9   29.08    1.67
   5  -3  -9   26.24    1.68
  -5   3   9   25.40    1.54
   4  -3  -9    0.59    0.19
   3  -3  -9   13.86    0.95
  -3   3   9   13.66    0.84
   2  -3  -9   74.35    4.60
  -2   3   9   78.11    4.29
   1  -3  -9   11.84    0.87
  -1   3   9   12.68    0.76
   0  -3  -9   44.01    2.70
   0   3   9   43.53    2.48
  -1  -3  -9   69.54    4.30
   1   3   9   72.53    3.99
  -2  -3  -9    7.82    0.63
   2   3   9    7.63    0.51
  -3  -3  -9    5.41    0.51
   3   3   9    4.88    0.38
  -4  -3  -9   34.16    2.21
   4   3   9   36.28    2.02
   5   3   9   19.12    1.14
   8  -4  -9   23.63    1.51
  -8   4   9   22.03    1.39
   7  -4  -9    1.09    0.28
  -7   4   9    1.17    0.27
   6  -4  -9   18.56    1.23
  -6   4   9   17.31    1.09
   5  -4  -9   53.02    3.16
  -5   4   9   49.37    2.92
   4  -4  -9    7.22    0.63
  -4   4   9    7.83    0.52
   3  -4  -9   29.39    1.88
   2  -4  -9   79.52    4.85
  -2   4   9   81.06    4.51
   1  -4  -9    3.13    0.43
  -1   4   9    3.62    0.30
   0  -4  -9   13.33    0.95
   0   4   9   13.08    0.80
  -1  -4  -9   38.63    2.44
   1   4   9   39.46    2.23
  -2  -4  -9   17.56    1.21
   3   4   9    0.90    0.22
  -4  -4  -9   30.14    1.96
   4   4   9   30.55    1.75
   7  -5  -9    1.37    0.32
  -7   5   9    1.45    0.32
   6  -5  -9   17.64    1.22
  -6   5   9   17.42    1.09
   5  -5  -9   50.45    3.06
  -5   5   9   48.25    2.82
   4  -5  -9    2.64    0.45
  -4   5   9    2.61    0.29
   3  -5  -9   15.92    1.14
  -3   5   9   16.47    0.99
   2  -5  -9   41.44    2.55
  -2   5   9   39.71    2.32
   1  -5  -9   11.38    0.88
  -1   5   9   11.42    0.72
   0  -5  -9    4.72    0.53
   0   5   9    3.54    0.32
  -1  -5  -9   36.44    2.31
   1   5   9   35.93    2.07
  -2  -5  -9   26.00    1.65
   2   5   9   23.46    1.43
  -3  -5  -9    1.19    0.36
   3   5   9    0.66    0.16
   6  -6  -9   16.57    1.21
  -6   6   9   16.77    1.06
   5  -6  -9   29.30    1.93
  -5   6   9   29.63    1.74
   4  -6  -9    4.24    0.56
  -4   6   9    4.44    0.39
   3  -6  -9    5.02    0.60
  -3   6   9    5.05    0.42
   2  -6  -9   29.97    1.94
  -2   6   9   28.77    1.71
   1  -6  -9    8.76    0.77
  -1   6   9    7.71    0.55
   0  -6  -9    3.74    0.60
   0   6   9    2.76    0.31
  -1  -6  -9   44.09    2.76
   1   6   9   42.30    2.46
   0 -11  10   -0.16    0.29
   1 -11  10   21.41    1.43
   3 -11  10   12.76    0.85
  -3 -10  10    0.91    0.37
  -2 -10  10   34.97    2.27
  -1 -10  10   29.04    1.90
   0 -10  10    9.98    0.78
   1 -10  10   10.25    0.74
   1 -10  10    9.08    0.64
   2 -10  10   48.52    2.77
   3 -10  10   16.84    1.05
   4 -10  10   16.44    1.05
   5 -10  10   64.69    3.70
  -5  -9  10   31.18    2.12
  -4  -9  10   21.65    1.54
  -3  -9  10    0.74    0.32
  -2  -9  10   13.74    1.03
  -1  -9  10   42.30    2.63
   0  -9  10    6.42    0.46
   1  -9  10   16.62    1.07
   1  -9  10   19.03    1.16
   2  -9  10   73.64    4.13
   2  -9  10   64.08    3.89
   3  -9  10   21.31    1.29
   4  -9  10   12.81    0.85
   5  -9  10   41.27    2.40
   6  -9  10   11.89    0.83
  -6  -8  10   -0.13    0.34
  -5  -8  10   21.65    1.52
  -4  -8  10   35.84    2.30
  -2  -8  10   17.49    1.04
  -2  -8  10   17.84    1.21
  -1  -8  10   82.01    4.59
   0  -8  10   27.67    1.64
   0  -8  10   24.43    1.51
   1  -8  10   15.42    1.02
   1  -8  10   18.41    1.09
   2  -8  10   82.67    4.62
   2  -8  10   72.31    4.37
   3  -8  10   12.71    0.81
   4  -8  10    3.38    0.34
   5  -8  10   25.72    1.54
   6  -8  10   32.92    1.95
   7  -8  10    1.82    0.36
  -7  -7  10   20.98    1.51
  -6  -7  10    2.06    0.50
  -5  -7  10   13.84    1.05
  -4  -7  10   60.95    3.76
  -3  -7  10   17.30    1.01
  -3  -7  10   17.10    1.18
  -2  -7  10   30.51    1.75
  -1  -7  10  111.53    6.42
  -1  -7  10  118.59    6.87
   0  -7  10   17.19    1.09
   0  -7  10   19.25    1.17
   1  -7  10   19.92    1.17
   1  -7  10   17.53    1.12
   2  -7  10   73.51    3.99
   2  -7  10   60.34    3.78
   3  -7  10   29.35    1.72
   5  -7  10   47.14    2.71
   6  -7  10   33.20    1.95
   7  -7  10    0.15    0.16
  -7  -6  10   24.95    1.70
  -6  -6  10    8.83    0.77
  -5  -6  10   15.77    1.12
  -4  -6  10  104.60    6.32
  -4  -6  10  105.45    5.86
  -3  -6  10   27.00    1.56
  -2  -6  10   37.17    2.21
  -2  -6  10   34.15    2.04
  -1  -6  10  120.04    6.92
  -1  -6  10  112.18    6.48
   0  -6  10   25.81    1.54
   0  -6  10   23.68    1.44
   1  -6  10    5.42    0.38
   1  -6  10    4.47    0.37
   2  -6  10   81.08    4.56
   3  -6  10   74.53    4.21
   4  -6  10    0.47    0.13
   5  -6  10   61.77    3.51
   6  -6  10   48.32    2.78
   7  -6  10    1.41    0.31
  -8  -5  10   12.81    1.02
  -7  -5  10   49.15    3.08
  -6  -5  10    4.28    0.51
  -5  -5  10   29.77    1.80
  -5  -5  10   33.07    2.00
  -4  -5  10   69.53    4.02
  -4  -5  10   62.43    3.70
  -3  -5  10    4.78    0.43
  -3  -5  10    4.14    0.34
  -2  -5  10    9.00    0.61
  -2  -5  10   10.34    0.69
  -1  -5  10   35.40    2.10
  -1  -5  10   33.00    1.96
   0  -5  10   47.87    2.69
   0  -5  10   41.17    2.53
   1  -5  10    7.58    0.50
   1  -5  10    6.56    0.49
   1  -5  10    7.62    0.48
   2  -5  10   77.08    4.34
   3  -5  10   68.77    3.88
   4  -5  10    1.63    0.23
   5  -5  10   43.79    2.51
   6  -5  10   26.34    1.56
   7  -5  10    1.48    0.27
  -8  -4  10   14.90    1.11
  -7  -4  10   54.74    3.38
  -6  -4  10   16.04    1.11
  -6  -4  10   15.64    0.97
  -5  -4  10    9.11    0.70
  -5  -4  10    8.83    0.59
  -4  -4  10   64.71    3.64
  -3  -4  10   19.74    1.20
  -3  -4  10   21.10    1.31
  -2  -4  10    1.73    0.22
  -2  -4  10    2.08    0.26
  -1  -4  10   67.15    3.72
  -1  -4  10   56.63    3.48
   0  -4  10   97.29    5.53
   0  -4  10   82.45    5.20
   0  -4  10   99.01    5.51
   1  -4  10    0.91    0.17
   1  -4  10    1.08    0.19
   1  -4  10    0.96    0.16
   2  -4  10   91.62    5.14
   3  -4  10   34.96    2.02
   4  -4  10    0.15    0.09
   5  -4  10   27.33    1.60
   6  -4  10   50.56    2.89
   7  -4  10    6.49    0.50
  -9  -3  10    5.11    0.61
  -8  -3  10    9.45    0.83
  -8  -3  10   10.97    0.73
  -7  -3  10   32.17    2.11
  -7  -3  10   34.08    1.93
  -6  -3  10   10.46    0.69
   5   3 -10   11.00    0.72
  -5  -3  10    9.61    0.65
  -5  -3  10    9.56    0.73
   4   3 -10   62.76    3.77
  -4  -3  10   62.12    3.52
   3   3 -10   66.06    3.90
  -3  -3  10   63.57    3.65
   2   3 -10    0.64    0.16
   1   3 -10  125.90    7.90
  -1  -3  10  140.33    7.43
   0   3 -10   86.73    5.37
   0  -3  10   93.89    5.06
  -1   3 -10    6.76    0.53
   1  -3  10    9.42    0.52
   1  -3  10    7.85    0.53
   2  -3  10   90.77    5.12
   4  -3  10    8.17    0.55
   5  -3  10   13.51    0.84
   6  -3  10   51.69    2.95
   7  -3  10   15.49    0.97
  -9  -2  10    2.30    0.50
  -8  -2  10    8.94    0.76
  -8  -2  10    9.12    0.67
   7   2 -10   44.62    2.60
  -7  -2  10   39.80    2.42
   6   2 -10   26.45    1.62
  -6  -2  10   24.24    1.49
   5   2 -10    1.46    0.28
  -5  -2  10    1.57    0.23
   4   2 -10   68.34    4.08
  -4  -2  10   66.86    3.81
   3   2 -10   60.89    3.69
  -3  -2  10   61.38    3.45
   2   2 -10    3.04    0.33
  -2  -2  10    3.41    0.27
   1   2 -10   82.90    5.26
  -1  -2  10   93.18    4.94
   0   2 -10   80.75    5.11
   0  -2  10   90.61    4.81
  -1   2 -10    4.38    0.37
   1  -2  10    4.83    0.33
  -2   2 -10   25.09    1.66
   2  -2  10   29.71    1.65
   4  -2  10   14.54    0.89
   5  -2  10   30.74    1.78
   6  -2  10   88.43    4.97
   7  -2  10    6.42    0.48
   9   1 -10    8.65    0.64
  -9  -1  10    7.35    0.70
  -9  -1  10    7.20    0.64
   8   1 -10    4.40    0.45
  -8  -1  10    3.18    0.42
   7   1 -10   47.29    2.82
  -7  -1  10   44.25    2.63
   6   1 -10   53.10    3.23
  -6  -1  10   52.69    3.01
   5   1 -10    4.46    0.42
  -5  -1  10    4.70    0.37
   4   1 -10  102.10    6.17
  -4  -1  10  104.04    5.77
   3   1 -10   71.01    4.29
  -3  -1  10   71.45    4.01
   2   1 -10    1.42    0.25
  -2  -1  10    1.02    0.18
   1   1 -10   61.38    3.70
  -1  -1  10   61.39    3.46
   0   1 -10   41.78    2.54
  -1   1 -10    0.49    0.15
  -3   1 -10   90.22    5.48
   3  -1  10   94.19    5.17
   4  -1  10   11.60    0.73
   5  -1  10   23.06    1.36
   6  -1  10   37.09    2.13
   7  -1  10    4.29    0.39
   9   0 -10   29.33    1.83
  -9   0  10   27.89    1.72
   8   0 -10    1.98    0.37
  -8   0  10    1.89    0.35
   7   0 -10   61.08    3.63
  -7   0  10   58.18    3.39
   6   0 -10   37.23    2.33
  -6   0  10   37.11    2.15
   5   0 -10    3.28    0.37
  -5   0  10    3.01    0.30
   4   0 -10   34.09    2.12
  -4   0  10   34.10    1.97
   3   0 -10   48.72    2.95
  -3   0  10   47.94    2.74
   2   0 -10    6.82    0.49
   2   0 -10    5.47    0.48
  -2   0  10    5.61    0.41
   1   0 -10   15.61    1.03
   0   0 -10  112.59    6.71
  -1   0 -10   39.89    2.43
  -2   0 -10   20.14    1.27
   2   0  10   20.09    1.19
  -3   0 -10   80.02    4.96
   3   0  10   86.39    4.67
   4   0  10    4.84    0.38
   5   0  10   11.16    0.71
   6   0  10   32.79    1.90
   9  -1 -10   18.87    1.27
  -9   1  10   18.86    1.20
   8  -1 -10    4.62    0.48
  -8   1  10    3.82    0.43
   7  -1 -10   44.41    2.72
  -7   1  10   43.39    2.53
   6  -1 -10   34.62    2.11
  -6   1  10   32.66    1.96
   5  -1 -10    1.10    0.30
  -5   1  10    0.85    0.21
   4  -1 -10   32.28    2.00
  -4   1  10   31.67    1.85
   3  -1 -10   62.26    3.78
   2  -1 -10   10.98    0.78
   1  -1 -10   31.80    1.98
   0  -1 -10   90.80    5.58
   0   1  10   95.52    5.22
  -1  -1 -10    5.55    0.50
   1   1  10    6.70    0.43
  -2  -1 -10   17.36    1.13
   2   1  10   17.09    1.03
  -3  -1 -10   49.66    3.07
   3   1  10   51.62    2.89
   4   1  10   16.04    0.97
   5   1  10    3.45    0.32
   6   1  10   38.39    2.21
   9  -2 -10   15.33    1.06
  -9   2  10   14.43    1.00
   8  -2 -10    0.89    0.26
  -8   2  10    0.55    0.18
   7  -2 -10   21.64    1.43
  -7   2  10   21.64    1.32
   6  -2 -10   27.10    1.71
  -6   2  10   26.18    1.58
   4  -2 -10   25.13    1.55
  -4   2  10   22.78    1.41
   3  -2 -10   92.80    5.58
   2  -2 -10    2.23    0.36
  -2   2  10    2.38    0.25
   1  -2 -10   63.46    3.93
  -1   2  10   66.10    3.66
   0  -2 -10   66.77    4.23
   0   2  10   73.21    3.94
  -1  -2 -10    3.08    0.42
   1   2  10    3.65    0.30
  -2  -2 -10   20.31    1.34
  -3  -2 -10   44.40    2.84
   3   2  10   48.24    2.64
   4   2  10   24.15    1.42
   5   2  10    0.29    0.13
   8  -3 -10    0.29    0.25
  -8   3  10    0.06    0.18
   7  -3 -10   11.37    0.88
  -7   3  10   11.67    0.78
   6  -3 -10   41.00    2.52
  -6   3  10   39.52    2.33
   5  -3 -10    4.19    0.49
  -5   3  10    4.25    0.37
   4  -3 -10   33.06    2.05
  -4   3  10   31.77    1.88
   3  -3 -10   60.25    3.66
  -3   3  10   59.54    3.40
   2  -3 -10    8.03    0.66
   1  -3 -10   15.97    1.10
   0  -3 -10   60.67    3.70
  -1  -3 -10   20.34    1.38
   1   3  10   20.99    1.23
  -2  -3 -10    3.27    0.49
   2   3  10    3.57    0.32
  -3  -3 -10   56.24    3.45
   3   3  10   56.29    3.19
   4   3  10   30.67    1.78
   7  -4 -10   24.78    1.62
  -7   4  10   23.76    1.47
   6  -4 -10   46.79    2.86
  -6   4  10   44.59    2.63
   5  -4 -10    5.61    0.58
  -5   4  10    5.72    0.45
   4  -4 -10   11.35    0.85
  -4   4  10   10.60    0.71
   3  -4 -10   36.48    2.32
  -3   4  10   37.00    2.12
   2  -4 -10    8.21    0.69
  -2   4  10    8.22    0.56
   1  -4 -10    5.03    0.55
  -1   4  10    4.82    0.39
   0  -4 -10   16.22    1.17
   0   4  10   16.33    0.99
  -1  -4 -10   22.07    1.52
   1   4  10   23.32    1.34
  -2  -4 -10    0.94    0.31
   2   4  10    0.54    0.14
  -3  -4 -10   36.31    2.30
   3   4  10   35.22    2.06
   6  -5 -10   22.83    1.53
  -6   5  10   22.25    1.37
   5  -5 -10    2.39    0.49
  -5   5  10    2.47    0.32
   4  -5 -10   14.46    1.11
  -4   5  10   15.65    0.95
   3  -5 -10   31.49    2.02
  -3   5  10   30.62    1.81
   2  -5 -10   15.26    1.12
  -2   5  10   15.54    0.96
   1  -5 -10    1.12    0.33
  -1   5  10    0.87    0.24
   0  -5 -10   44.42    2.74
   0   5  10   42.29    2.47
  -1  -5 -10   32.56    2.06
   1   5  10   30.22    1.81
   4  -6 -10    4.55    0.65
  -4   6  10    3.92    0.41
   3  -6 -10   26.66    1.75
  -3   6  10   25.47    1.54
   2  -6 -10   20.39    1.43
  -2   6  10   19.71    1.21
  -2 -10  11   39.27    2.52
  -1 -10  11   15.91    1.18
   0 -10  11    9.41    0.78
   1 -10  11   53.92    3.07
   3 -10  11    8.05    0.62
   4 -10  11   30.03    1.80
  -4  -9  11    0.62    0.39
  -3  -9  11   14.00    1.09
  -2  -9  11   53.76    3.35
  -1  -9  11   10.75    0.83
   0  -9  11   19.41    1.17
   1  -9  11   55.04    3.41
   1  -9  11   65.53    3.64
   2  -9  11   11.50    0.77
   3  -9  11    5.03    0.46
   4  -9  11   30.01    1.79
   5  -9  11   12.17    0.85
  -5  -8  11   47.52    3.03
  -4  -8  11   13.94    1.07
  -3  -8  11   18.01    1.27
  -2  -8  11   55.49    3.41
  -1  -8  11    7.31    0.51
   0  -8  11    9.27    0.65
   0  -8  11   10.75    0.73
   1  -8  11   40.85    2.29
   1  -8  11   34.06    2.16
   2  -8  11   16.22    1.01
   3  -8  11    0.64    0.18
   4  -8  11   40.27    2.34
   5  -8  11   42.14    2.45
   6  -8  11    0.73    0.20
  -6  -7  11   11.87    1.00
  -5  -7  11   40.10    2.56
  -4  -7  11    9.87    0.81
  -3  -7  11   15.34    0.92
  -3  -7  11   14.86    1.07
  -2  -7  11   54.16    3.07
  -1  -7  11   17.81    1.10
  -1  -7  11   18.88    1.21
   0  -7  11    6.74    0.50
   0  -7  11    5.62    0.45
   1  -7  11   60.16    3.74
   1  -7  11   72.05    3.96
   2  -7  11   43.85    2.52
   3  -7  11    1.58    0.27
   4  -7  11   52.89    3.03
   5  -7  11   29.42    1.75
   6  -7  11    0.08    0.15
  -7  -6  11    4.28    0.63
  -6  -6  11   19.98    1.40
  -5  -6  11   51.91    3.23
  -4  -6  11    7.72    0.66
  -4  -6  11    7.84    0.55
  -3  -6  11   17.31    1.07
  -3  -6  11   18.19    1.20
  -2  -6  11   58.65    3.53
  -2  -6  11   57.25    3.28
  -1  -6  11   57.48    3.32
  -1  -6  11   51.78    3.10
   0  -6  11    1.00    0.23
   0  -6  11    0.95    0.22
   1  -6  11  104.38    5.78
   1  -6  11   90.07    5.46
   2  -6  11   48.01    2.75
   3  -6  11    2.29    0.29
   4  -6  11   34.84    2.03
   5  -6  11   24.82    1.49
   6  -6  11    0.27    0.15
   7  -6  11   11.63    0.79
  -7  -5  11    8.08    0.76
  -6  -5  11   17.21    1.22
  -5  -5  11   53.07    3.22
  -5  -5  11   51.00    2.95
  -4  -5  11   24.42    1.53
  -4  -5  11   22.57    1.38
  -3  -5  11    1.02    0.22
  -2  -5  11   63.68    3.71
  -2  -5  11   58.77    3.46
  -1  -5  11   47.34    2.92
  -1  -5  11   55.40    3.11
   0  -5  11   13.49    0.82
   0  -5  11   11.17    0.78
   1  -5  11   61.50    3.49
   2  -5  11   36.19    2.09
   3  -5  11    1.40    0.23
   4  -5  11   31.97    1.87
   5  -5  11   50.94    2.92
   6  -5  11    6.27    0.50
   7  -5  11   22.38    1.37
  -8  -4  11   26.57    1.78
  -7  -4  11    4.36    0.56
  -6  -4  11    1.91    0.32
  -6  -4  11    1.91    0.40
  -5  -4  11   11.84    0.77
  -5  -4  11   12.16    0.89
  -4  -4  11   22.83    1.35
  -4  -4  11   22.90    1.49
  -3  -4  11    1.83    0.25
  -3  -4  11    1.85    0.31
  -2  -4  11   49.27    2.92
  -2  -4  11   53.84    3.13
  -1  -4  11   47.85    2.73
  -1  -4  11   41.88    2.56
   0  -4  11    0.60    0.15
   0  -4  11    0.45    0.12
   1  -4  11   39.87    2.41
   1  -4  11   44.17    2.53
   2  -4  11   35.59    2.06
   3  -4  11    0.21    0.11
   4  -4  11   21.39    1.28
   5  -4  11   64.20    3.65
   6  -4  11    2.30    0.30
   7  -4  11   26.80    1.60
  -8  -3  11   23.47    1.60
  -7  -3  11   24.22    1.46
  -7  -3  11   24.17    1.61
   6   3 -11    5.89    0.53
  -6  -3  11    5.99    0.47
  -6  -3  11    5.69    0.56
   5   3 -11   98.86    5.76
  -5  -3  11   94.44    5.78
  -5  -3  11   94.74    5.39
   4   3 -11   43.78    2.66
  -4  -3  11   42.78    2.47
   3   3 -11    4.23    0.43
  -3  -3  11    5.24    0.38
   2   3 -11   48.33    3.15
  -2  -3  11   55.78    2.96
   1   3 -11   34.69    2.31
  -1  -3  11   41.16    2.18
   0   3 -11    1.91    0.26
   0  -3  11    1.83    0.22
   1  -3  11   28.19    1.64
   2  -3  11   57.60    3.27
   3  -3  11   14.87    0.92
   4  -3  11   43.68    2.51
   5  -3  11   73.98    4.18
   6  -3  11    1.55    0.27
   7  -3  11   14.27    0.91
   8   2 -11   33.91    2.01
  -8  -2  11   29.37    2.05
   7   2 -11   29.55    1.82
  -7  -2  11   27.42    1.69
   6   2 -11    5.03    0.49
  -6  -2  11    4.37    0.41
   5   2 -11   41.80    2.53
  -5  -2  11   40.04    2.35
   4   2 -11   42.21    2.65
  -4  -2  11   43.82    2.47
   3   2 -11    0.20    0.16
   2   2 -11   70.62    4.38
  -2  -2  11   74.82    4.10
   1   2 -11   52.45    3.28
  -1  -2  11   55.94    3.08
   0   2 -11    1.01    0.25
   0  -2  11    1.16    0.19
  -1   2 -11   31.07    1.90
  -2   2 -11   98.63    5.85
   3  -2  11    3.26    0.32
   4  -2  11   31.77    1.84
   5  -2  11   38.94    2.25
   6  -2  11   13.24    0.85
   8   1 -11   35.65    2.16
  -8  -1  11   32.43    2.01
   7   1 -11   11.01    0.82
   6   1 -11    3.35    0.41
  -6  -1  11    3.76    0.38
   5   1 -11   35.63    2.19
  -5  -1  11   34.25    2.02
   4   1 -11   38.14    2.38
  -4  -1  11   38.63    2.21
   3   1 -11    0.50    0.19
  -3  -1  11    0.33    0.12
   2   1 -11   52.30    3.13
  -2  -1  11   50.29    2.91
   1   1 -11   99.34    5.96
  -1  -1  11  100.10    5.59
   0   1 -11    9.90    0.71
  -1   1 -11   71.19    4.27
  -2   1 -11   79.78    4.87
   2  -1  11   83.66    4.60
   3  -1  11    1.85    0.25
   4  -1  11   19.24    1.16
   5  -1  11   33.54    1.95
   6  -1  11    8.79    0.60
   8   0 -11   27.95    1.80
  -8   0  11   27.58    1.67
   7   0 -11   18.98    1.25
  -7   0  11   17.86    1.15
   6   0 -11    0.91    0.26
   5   0 -11   40.28    2.49
  -5   0  11   39.63    2.31
   4   0 -11   43.73    2.69
  -4   0  11   43.28    2.49
   3   0 -11    2.80    0.39
  -3   0  11    2.81    0.28
   2   0 -11   34.39    2.18
  -2   0  11   35.64    2.02
   1   0 -11   44.68    2.74
   0   0 -11    0.72    0.21
  -1   0 -11   23.97    1.52
   1   0  11   23.91    1.41
  -2   0 -11   41.87    2.56
   3   0  11   17.08    1.04
   4   0  11    6.71    0.48
   5   0  11   44.68    2.56
   8  -1 -11   22.91    1.47
  -8   1  11   21.01    1.36
   7  -1 -11   27.37    1.76
  -7   1  11   26.83    1.62
   6  -1 -11    5.19    0.53
  -6   1  11    4.94    0.44
   5  -1 -11   17.71    1.20
  -5   1  11   17.85    1.09
   4  -1 -11   48.59    2.99
   3  -1 -11    3.39    0.42
  -3   1  11    2.98    0.30
   2  -1 -11   36.63    2.26
  -2   1  11   36.00    2.09
   1  -1 -11   43.41    2.65
  -1   1  11   42.63    2.46
   0  -1 -11   10.85    0.78
   0   1  11   10.46    0.68
  -1  -1 -11    9.69    0.73
  -2  -1 -11   46.93    2.97
   2   1  11   50.45    2.78
   3   1  11   22.70    1.34
   4   1  11    7.44    0.53
   5   1  11   57.98    3.29
   8  -2 -11   17.27    1.18
  -8   2  11   15.58    1.07
   7  -2 -11   29.92    1.90
  -7   2  11   29.02    1.75
   6  -2 -11    0.70    0.26
  -6   2  11    0.80    0.18
   5  -2 -11   47.66    2.92
  -5   2  11   46.54    2.70
   4  -2 -11   48.28    2.95
  -4   2  11   47.11    2.73
   3  -2 -11    0.62    0.23
  -3   2  11    0.52    0.13
   2  -2 -11   23.71    1.48
  -2   2  11   21.45    1.33
   1  -2 -11   35.96    2.21
  -1   2  11   34.62    2.03
   0  -2 -11   12.95    0.93
   0   2  11   12.52    0.79
  -1  -2 -11   15.66    1.09
   1   2  11   16.00    0.97
  -2  -2 -11   55.80    3.42
   2   2  11   56.24    3.18
   3   2  11   21.69    1.29
   4   2  11    6.66    0.50
   7  -3 -11   25.43    1.64
  -7   3  11   23.96    1.50
   6  -3 -11    0.37    0.26
  -6   3  11    0.87    0.19
   5  -3 -11   29.32    1.86
  -5   3  11   27.88    1.69
   4  -3 -11   35.20    2.19
  -4   3  11   33.96    2.01
   3  -3 -11    9.05    0.76
  -3   3  11    9.43    0.62
   2  -3 -11   11.46    0.91
  -2   3  11   12.59    0.77
  -1   3  11   65.82    3.72
   0  -3 -11   22.87    1.60
   0   3  11   24.77    1.41
  -1  -3 -11   12.00    0.91
   1   3  11   11.34    0.74
   2   3  11   53.85    3.06
   3   3  11   21.96    1.31
   6  -4 -11    0.60    0.32
  -6   4  11    0.25    0.18
   5  -4 -11    7.23    0.71
  -5   4  11    7.40    0.56
   4  -4 -11   23.91    1.61
  -4   4  11   24.00    1.44
   3  -4 -11   12.00    0.94
  -3   4  11   11.89    0.77
   2  -4 -11   11.58    0.91
  -2   4  11   11.07    0.73
   1  -4 -11   47.69    2.94
  -1   4  11   46.59    2.69
   0  -4 -11   18.19    1.27
   0   4  11   17.49    1.08
  -1  -4 -11    6.96    0.73
   1   4  11    5.91    0.47
   4  -5 -11   40.37    2.47
  -4   5  11   36.58    2.23
   3  -5 -11    8.18    0.78
  -3   5  11    6.96    0.55
   2  -5 -11    4.96    0.67
  -2   5  11    4.51    0.41
   1  -5 -11   27.89    1.87
  -1   5  11   27.90    1.64
  -1 -10  12   24.38    1.66
   2 -10  12    3.51    0.45
   3 -10  12   12.86    0.89
  -3  -9  12   34.79    2.28
  -2  -9  12   10.24    0.87
  -1  -9  12   13.50    1.00
   0  -9  12   37.44    2.17
   1  -9  12   10.98    0.75
   2  -9  12    4.62    0.46
   3  -9  12   60.27    3.45
   4  -9  12   37.08    2.19
  -5  -8  12    0.64    0.42
  -4  -8  12   11.72    0.99
  -3  -8  12   30.02    1.97
  -2  -8  12    4.52    0.53
  -1  -8  12   11.91    0.78
   0  -8  12   47.43    2.70
   0  -8  12   40.61    2.53
   1  -8  12   33.46    1.96
   2  -8  12    3.29    0.37
   3  -8  12   60.26    3.45
   4  -8  12   25.02    1.52
   5  -8  12    5.48    0.51
  -6  -7  12   26.42    1.82
  -5  -7  12    6.11    0.70
  -4  -7  12   11.58    0.93
  -3  -7  12   40.93    2.48
  -3  -7  12   46.41    2.77
  -2  -7  12   28.26    1.78
  -2  -7  12   27.21    1.63
  -1  -7  12    4.65    0.40
  -1  -7  12    4.06    0.47
   0  -7  12   71.81    4.04
   0  -7  12   62.37    3.80
   1  -7  12   30.92    1.82
   3  -7  12   36.42    2.13
   4  -7  12   30.36    1.80
   5  -7  12    1.96    0.34
   6  -7  12   12.05    0.83
  -6  -6  12   25.79    1.74
  -5  -6  12   12.19    0.96
  -4  -6  12    7.23    0.54
  -4  -6  12    6.68    0.65
  -3  -6  12   69.56    4.11
  -3  -6  12   65.14    3.81
  -2  -6  12   37.57    2.18
  -1  -6  12   14.50    0.94
  -1  -6  12   13.01    0.87
   0  -6  12   74.40    4.51
   0  -6  12   85.64    4.79
   1  -6  12   34.87    1.96
   1  -6  12   29.51    1.88
   2  -6  12    2.83    0.33
   3  -6  12   35.68    2.08
   4  -6  12   34.50    2.03
   5  -6  12    1.59    0.30
   6  -6  12   16.88    1.08
  -7  -5  12    4.88    0.65
  -6  -5  12   44.31    2.80
  -5  -5  12   27.33    1.62
  -5  -5  12   27.49    1.80
  -4  -5  12    8.02    0.59
  -4  -5  12    8.39    0.68
  -3  -5  12   91.64    5.49
  -3  -5  12   90.82    5.13
  -2  -5  12   36.28    2.20
  -2  -5  12   34.61    2.06
  -1  -5  12    9.98    0.70
  -1  -5  12   11.15    0.75
   0  -5  12   58.78    3.50
   0  -5  12   64.36    3.70
   1  -5  12   48.43    3.12
   1  -5  12   60.85    3.28
   2  -5  12    4.47    0.39
   3  -5  12   40.47    2.34
   4  -5  12   73.61    4.17
   5  -5  12    7.36    0.56
   6  -5  12   28.08    1.68
  -7  -4  12   11.54    0.95
  -6  -4  12   45.68    2.57
  -6  -4  12   43.42    2.80
  -5  -4  12   12.28    0.94
  -5  -4  12   12.85    0.82
  -4  -4  12    7.05    0.63
  -4  -4  12    7.57    0.54
  -3  -4  12   39.07    2.25
  -2  -4  12   18.73    1.25
  -2  -4  12   19.74    1.17
  -1  -4  12    1.30    0.24
  -1  -4  12    1.87    0.29
   0  -4  12   27.35    1.68
   0  -4  12   30.02    1.77
   1  -4  12   66.90    3.98
   1  -4  12   73.68    4.19
   3  -4  12   46.48    2.67
   4  -4  12   53.41    3.06
   5  -4  12    1.01    0.26
   6  -4  12   28.13    1.67
  -8  -3  12   15.78    1.19
  -7  -3  12    3.11    0.53
  -7  -3  12    2.86    0.42
   6   3 -12   45.41    2.69
  -6  -3  12   40.43    2.70
  -6  -3  12   43.52    2.49
   5   3 -12   16.89    1.14
  -5  -3  12   16.32    1.04
   4   3 -12    3.75    0.43
  -4  -3  12    3.41    0.35
   3   3 -12   37.04    2.40
  -3  -3  12   40.51    2.24
   2   3 -12   37.37    2.43
  -2  -3  12   41.61    2.28
   1   3 -12    1.07    0.22
  -1  -3  12    1.14    0.22
   0   3 -12   42.36    2.84
   0  -3  12   51.77    2.70
  -1   3 -12   52.03    3.43
   1  -3  12   62.99    3.27
   3  -3  12   49.99    2.86
   4  -3  12   52.04    2.98
   5  -3  12    3.67    0.34
   6  -3  12    7.51    0.56
   8   2 -12    8.62    0.72
  -8  -2  12    8.23    0.67
  -8  -2  12    7.01    0.75
   7   2 -12    7.67    0.68
  -7  -2  12    7.52    0.61
   6   2 -12   38.23    2.36
  -6  -2  12   36.79    2.19
   5   2 -12   34.28    2.17
  -5  -2  12   34.46    2.01
   4   2 -12    0.63    0.23
  -4  -2  12    0.75    0.17
   3   2 -12   68.78    4.27
  -3  -2  12   72.33    3.99
   2   2 -12   70.97    4.41
  -2  -2  12   75.28    4.13
   1   2 -12    0.89    0.20
  -1  -2  12    0.16    0.11
   0   2 -12   76.25    4.73
   0  -2  12   81.64    4.45
  -1   2 -12   91.98    5.54
   1  -2  12   93.97    5.24
   2  -2  12    4.74    0.39
   3  -2  12   20.79    1.25
   4  -2  12   26.15    1.54
   5  -2  12   23.66    1.42
   8   1 -12    8.67    0.76
  -8  -1  12    8.85    0.72
   7   1 -12    0.55    0.27
  -7  -1  12    0.46    0.21
   6   1 -12   26.26    1.69
  -6  -1  12   25.61    1.55
   5   1 -12   46.49    2.88
   4   1 -12    0.48    0.24
  -4  -1  12    0.32    0.13
   3   1 -12   59.92    3.60
  -3  -1  12   57.99    3.35
   2   1 -12   73.32    4.49
  -2  -1  12   75.32    4.20
   1   1 -12   11.79    0.84
  -1  -1  12   11.73    0.75
   0   1 -12   36.83    2.25
   0  -1  12   36.18    2.11
  -1   1 -12   52.65    3.20
   1  -1  12   53.15    3.01
   2  -1  12    8.17    0.57
   3  -1  12   14.58    0.92
   4  -1  12   69.62    3.94
   5  -1  12   29.94    1.76
   8   0 -12   23.74    1.54
  -8   0  12   21.81    1.42
   7   0 -12    0.41    0.27
  -7   0  12    0.80    0.21
   6   0 -12   64.94    3.86
  -6   0  12   60.86    3.59
   5   0 -12   60.05    3.63
  -5   0  12   58.43    3.38
   4   0 -12    0.20    0.22
  -4   0  12    0.19    0.13
   3   0 -12   49.28    2.94
  -3   0  12   45.84    2.73
   2   0 -12   35.67    2.12
  -2   0  12   31.42    1.96
   1   0 -12    0.68    0.24
  -1   0  12    0.60    0.14
   0   0 -12   25.25    1.61
   0   0  12   24.78    1.47
  -1   0 -12   50.14    3.06
   1   0  12   50.13    2.86
  -2   0 -12   22.20    1.46
   2   0  12   22.50    1.34
   3   0  12    8.13    0.57
   4   0  12   48.83    2.80
   7  -1 -12   -0.09    0.25
  -7   1  12    0.13    0.18
   6  -1 -12   33.70    2.09
  -6   1  12   31.33    1.92
   5  -1 -12   30.90    1.94
  -5   1  12   29.38    1.78
   4  -1 -12    1.46    0.42
  -4   1  12    1.25    0.27
   3  -1 -12    9.45    0.75
  -3   1  12    9.41    0.64
   2  -1 -12   54.28    3.25
  -2   1  12   51.54    3.01
   1  -1 -12   37.07    2.33
  -1   1  12   37.57    2.15
   0  -1 -12    5.75    0.57
   0   1  12    6.11    0.45
  -1  -1 -12   64.13    3.99
   1   1  12   67.64    3.73
  -2  -1 -12   18.95    1.27
   2   1  12   18.28    1.13
   3   1  12    7.94    0.56
   4   1  12   43.89    2.52
   7  -2 -12    0.02    0.27
  -7   2  12    0.20    0.19
   6  -2 -12   22.20    1.51
  -6   2  12   22.51    1.37
   5  -2 -12   23.27    1.54
  -5   2  12   22.33    1.38
   4  -2 -12    5.91    0.61
  -4   2  12    5.33    0.45
   3  -2 -12    8.73    0.73
  -3   2  12    8.06    0.58
   2  -2 -12   58.72    3.58
  -2   2  12   57.78    3.31
   1  -2 -12   15.15    1.11
  -1   2  12   15.73    0.96
   0  -2 -12   10.79    0.87
   0   2  12   12.00    0.75
  -1  -2 -12   54.15    3.37
   1   2  12   55.71    3.13
   2   2  12   19.23    1.17
   3   2  12    3.83    0.38
   6  -3 -12    7.67    0.76
  -6   3  12    7.61    0.61
   5  -3 -12   40.20    2.51
  -5   3  12   38.66    2.30
   4  -3 -12    7.62    0.73
  -4   3  12    7.15    0.55
   3  -3 -12   23.52    1.56
  -3   3  12   22.76    1.39
   2  -3 -12   63.74    3.83
  -2   3  12   61.02    3.54
   1  -3 -12    6.07    0.67
  -1   3  12    6.78    0.50
   0  -3 -12   17.18    1.26
   0   3  12   17.90    1.08
  -1  -3 -12   41.65    2.64
   1   3  12   42.17    2.41
   4  -4 -12   12.10    1.00
  -4   4  12   12.41    0.82
   3  -4 -12    7.27    0.77
  -3   4  12    7.23    0.55
   2  -4 -12   52.24    3.23
  -2   4  12   51.26    2.96
   1  -4 -12   13.67    1.09
  -1   4  12   13.92    0.89
  -2  -9  13    4.67    0.65
   0  -9  13   18.56    1.17
   1  -9  13    0.90    0.24
   2  -9  13   45.36    2.64
   3  -9  13   37.97    2.24
  -4  -8  13   32.29    2.16
  -3  -8  13   14.36    1.12
  -1  -8  13   53.34    3.25
  -1  -8  13   60.46    3.49
   0  -8  13   25.59    1.55
   1  -8  13    4.16    0.44
   2  -8  13   45.60    2.65
   3  -8  13   11.80    0.83
   4  -8  13    1.36    0.25
  -5  -7  13    5.68    0.73
  -4  -7  13   46.69    2.95
  -3  -7  13   13.51    0.92
  -3  -7  13   14.93    1.06
  -2  -7  13    5.51    0.50
  -2  -7  13    6.24    0.60
  -1  -7  13   38.50    2.24
   0  -7  13   22.45    1.35
   0  -7  13   19.70    1.29
   1  -7  13    0.73    0.18
   2  -7  13   35.14    2.07
   3  -7  13   39.86    2.34
   4  -7  13    1.96    0.37
  -6  -6  13   13.76    1.12
  -5  -6  13    5.89    0.68
  -4  -6  13   51.79    3.00
  -4  -6  13   53.04    3.26
  -3  -6  13   17.06    1.10
  -3  -6  13   18.33    1.23
  -2  -6  13    4.73    0.50
  -2  -6  13    4.80    0.46
  -1  -6  13   43.89    2.66
  -1  -6  13   48.50    2.83
   0  -6  13   37.83    2.37
   0  -6  13   43.81    2.50
   1  -6  13    0.49    0.16
   2  -6  13   38.99    2.28
   3  -6  13   45.06    2.62
   4  -6  13    3.59    0.40
   5  -6  13   18.85    1.19
  -6  -5  13    9.78    0.87
  -5  -5  13   11.96    0.95
  -5  -5  13   12.99    0.85
  -4  -5  13   43.89    2.51
  -4  -5  13   42.90    2.72
  -3  -5  13   28.15    1.83
  -3  -5  13   28.86    1.69
  -2  -5  13    0.73    0.19
  -1  -5  13   50.56    2.98
  -1  -5  13   53.51    3.17
   0  -5  13   66.72    3.87
   0  -5  13   62.06    3.67
   1  -5  13    0.73    0.18
   2  -5  13   35.98    2.10
   3  -5  13   36.26    2.13
   4  -5  13    0.92    0.20
   5  -5  13   15.88    1.02
  -7  -4  13   43.57    2.78
  -6  -4  13   15.06    1.18
  -6  -4  13   16.81    1.05
  -5  -4  13    0.65    0.30
  -5  -4  13    0.57    0.20
  -4  -4  13   34.57    2.02
  -3  -4  13   33.17    2.18
  -3  -4  13   36.56    2.04
  -2  -4  13    0.31    0.16
  -1  -4  13   49.70    2.95
  -1  -4  13   47.15    2.78
   0  -4  13   61.05    3.67
   1  -4  13    0.94    0.26
   2  -4  13   38.51    2.24
   3  -4  13   46.61    2.69
   4  -4  13    5.95    0.49
   5  -4  13   11.62    0.79
  -7  -3  13    5.07    0.67
  -7  -3  13    5.76    0.57
   6   3 -13   13.67    0.98
  -6  -3  13   12.17    0.99
  -6  -3  13   13.29    0.89
   5   3 -13    0.43    0.25
  -4  -3  13   29.46    1.74
   3   3 -13   44.56    2.82
  -3  -3  13   46.83    2.63
   2   3 -13    3.08    0.44
  -2  -3  13    3.69    0.36
   1   3 -13   33.74    2.10
   0   3 -13   41.55    2.71
   0  -3  13   47.56    2.57
   1  -3  13    0.19    0.13
   2  -3  13   16.99    1.06
   3  -3  13   38.88    2.26
   4  -3  13    8.79    0.63
   5  -3  13   12.05    0.80
   7   2 -13   45.57    2.84
  -7  -2  13   45.08    2.64
   6   2 -13   48.94    2.89
  -6  -2  13   43.38    2.66
   5   2 -13    0.34    0.26
  -5  -2  13    0.19    0.18
  -4  -2  13   35.97    2.10
   3   2 -13   43.05    2.69
  -3  -2  13   43.69    2.51
   2   2 -13    0.34    0.23
  -2  -2  13    0.32    0.14
   1   2 -13   30.33    1.89
  -1  -2  13   29.71    1.76
   0   2 -13   36.86    2.26
   0  -2  13   36.42    2.13
   1  -2  13   11.12    0.74
   2  -2  13   13.37    0.86
   3  -2  13   70.53    4.00
   4  -2  13    9.44    0.65
   7   1 -13   27.33    1.75
  -7  -1  13   25.18    1.60
   6   1 -13   43.68    2.71
  -6  -1  13   42.55    2.51
   5   1 -13    0.13    0.26
  -5  -1  13    0.28    0.16
   4   1 -13   48.09    2.92
  -4  -1  13   45.71    2.70
   3   1 -13   46.97    2.82
  -3  -1  13   43.79    2.61
   2   1 -13    2.15    0.42
  -2  -1  13    1.91    0.29
   1   1 -13   17.57    1.15
  -1  -1  13   15.94    1.03
   0   1 -13   70.38    4.30
   0  -1  13   71.90    4.03
  -1   1 -13   12.68    0.91
   1  -1  13   12.96    0.83
   2  -1  13   12.81    0.83
   3  -1  13   50.00    2.87
   4  -1  13   19.08    1.17
   7   0 -13   28.28    1.81
  -7   0  13   26.47    1.67
   6   0 -13   24.97    1.60
  -6   0  13   22.44    1.44
   5   0 -13    0.71    0.31
  -5   0  13    0.70    0.20
   4   0 -13   16.96    1.16
  -4   0  13   15.38    1.01
  -3   0  13   64.32    3.66
   2   0 -13   19.58    1.33
  -2   0  13   19.55    1.19
   1   0 -13   27.59    1.77
  -1   0  13   27.33    1.62
   0   0 -13   75.89    4.61
   0   0  13   76.68    4.31
  -1   0 -13    6.50    0.62
   1   0  13    6.55    0.49
   2   0  13   13.08    0.85
   3   0  13   42.72    2.47
   6  -1 -13   18.31    1.28
  -6   1  13   17.58    1.14
   5  -1 -13    4.61    0.59
  -5   1  13    3.84    0.42
   4  -1 -13    6.76    0.65
  -4   1  13    5.79    0.49
   3  -1 -13   38.79    2.40
  -3   1  13   36.93    2.20
   2  -1 -13    3.17    0.52
  -2   1  13    2.52    0.33
   1  -1 -13   14.94    1.03
  -1   1  13   13.20    0.88
   0  -1 -13   33.93    2.16
   0   1  13   34.15    1.98
  -1  -1 -13   13.83    1.04
   1   1  13   14.40    0.90
   2   1  13    3.39    0.36
   5  -2 -13   12.14    0.97
  -5   2  13   11.32    0.80
   4  -2 -13   13.15    1.02
  -4   2  13   12.89    0.86
   3  -2 -13   49.62    3.09
  -3   2  13   49.26    2.84
   2  -2 -13    7.75    0.74
  -2   2  13    6.85    0.54
   1  -2 -13    5.27    0.65
  -1   2  13    5.44    0.45
   0  -2 -13   29.36    1.87
   0   2  13   27.44    1.67
   1   2  13   13.23    0.86
   3  -3 -13   23.46    1.62
  -3   3  13   23.50    1.43
   2  -3 -13    5.27    0.70
  -2   3  13    5.29    0.47
  -3  -8  14    4.29    0.69
  -2  -8  14   33.10    2.14
  -1  -8  14   10.35    0.77
   0  -8  14    2.98    0.45
   1  -8  14   43.19    2.53
   2  -8  14   33.37    2.00
  -4  -7  14    3.45    0.64
  -3  -7  14    6.25    0.69
  -2  -7  14   28.74    1.74
  -2  -7  14   24.21    1.59
  -1  -7  14   28.37    1.71
   0  -7  14    0.26    0.19
   1  -7  14   44.68    2.60
   2  -7  14   30.76    1.85
   3  -7  14    0.73    0.21
  -5  -6  14   21.25    1.51
  -4  -6  14   14.45    1.08
  -4  -6  14   13.55    0.96
  -3  -6  14    0.05    0.29
  -3  -6  14    0.44    0.21
  -2  -6  14   37.90    2.38
  -1  -6  14   35.54    2.10
   0  -6  14    2.08    0.36
   1  -6  14   31.22    1.86
   2  -6  14   35.60    2.11
   3  -6  14    2.24    0.36
   4  -6  14   13.76    0.93
  -5  -5  14   21.84    1.51
  -4  -5  14   32.90    2.12
  -2  -5  14   68.06    3.79
  -2  -5  14   64.68    4.02
  -1  -5  14   40.97    2.47
  -1  -5  14   39.20    2.34
   0  -5  14    2.15    0.36
   1  -5  14   30.50    1.82
   2  -5  14   29.06    1.73
   3  -5  14    0.66    0.20
   4  -5  14    9.53    0.69
  -6  -4  14    0.74    0.38
  -6  -4  14    0.30    0.25
  -5  -4  14   45.99    3.04
  -5  -4  14   51.21    2.82
  -4  -4  14   52.26    2.91
  -4  -4  14   48.38    3.12
  -3  -4  14    3.65    0.49
  -3  -4  14    3.82    0.42
  -2  -4  14   55.28    3.11
  -2  -4  14   52.95    3.30
  -1  -4  14   39.32    2.42
  -1  -4  14   39.28    2.29
   0  -4  14    2.21    0.33
   1  -4  14   21.36    1.32
   2  -4  14   60.55    3.47
   3  -4  14   11.17    0.76
   4  -4  14   15.95    1.03
   6   3 -14    1.83    0.52
  -6  -3  14    1.06    0.36
  -6  -3  14    0.48    0.25
   5   3 -14   32.90    2.13
  -5  -3  14   33.25    1.97
   4   3 -14   18.51    1.27
  -4  -3  14   17.69    1.14
   3   3 -14    0.80    0.30
  -3  -3  14    0.23    0.17
   2   3 -14   13.81    1.05
  -2  -3  14   15.57    0.96
   1   3 -14   34.04    2.18
  -1  -3  14   35.80    2.05
   0  -3  14    4.36    0.42
   1  -3  14   20.48    1.26
   2  -3  14   62.43    3.57
   3  -3  14    7.31    0.57
   6   2 -14    3.75    0.61
  -6  -2  14    3.18    0.48
   5   2 -14   25.33    1.63
  -5  -2  14   23.28    1.48
   4   2 -14   23.06    1.55
  -4  -2  14   22.93    1.41
  -3  -2  14    0.87    0.20
   2   2 -14   21.33    1.39
  -2  -2  14   19.87    1.26
   1   2 -14   45.95    2.85
  -1  -2  14   46.51    2.67
   0   2 -14    9.60    0.76
   0  -2  14    9.04    0.65
   1  -2  14   27.56    1.65
   2  -2  14   74.41    4.23
   3  -2  14    5.59    0.49
   6   1 -14    0.02    0.31
  -6  -1  14   -0.03    0.20
   5   1 -14   24.41    1.56
  -5  -1  14   21.12    1.40
   4   1 -14   46.08    2.77
  -4  -1  14   41.88    2.54
   3   1 -14    2.17    0.53
  -3  -1  14    2.54    0.35
   2   1 -14   40.00    2.45
  -2  -1  14   37.51    2.25
   1   1 -14   86.72    5.10
  -1  -1  14   81.96    4.76
   0   1 -14    9.77    0.78
   0  -1  14    9.08    0.66
   1  -1  14   20.49    1.26
   2  -1  14   30.34    1.80
   5   0 -14   17.00    1.25
  -5   0  14   16.75    1.09
   4   0 -14   60.83    3.62
  -4   0  14   56.10    3.35
   3   0 -14   14.99    1.10
  -3   0  14   13.89    0.93
   2   0 -14   25.48    1.65
  -2   0  14   24.03    1.48
   1   0 -14   42.41    2.62
  -1   0  14   41.39    2.43
   0   0 -14    4.85    0.62
   0   0  14    4.75    0.45
   1   0  14    8.27    0.60
   4  -1 -14   38.32    2.45
  -4   1  14   38.24    2.25
   3  -1 -14    0.65    0.36
  -3   1  14    0.66    0.18
   2  -1 -14   19.73    1.39
  -2   1  14   19.42    1.21
   1  -1 -14   23.73    1.56
  -1   1  14   21.98    1.38
   0  -1 -14   19.14    1.35
   0   1  14   17.46    1.13
  -2  -7  15   30.26    1.83
  -1  -7  15    2.39    0.44
   0  -7  15   42.47    2.50
   1  -7  15   17.90    1.17
  -3  -6  15   42.02    2.42
  -3  -6  15   39.88    2.59
  -2  -6  15   24.62    1.53
  -1  -6  15    1.57    0.42
   0  -6  15   25.78    1.58
   1  -6  15   36.67    2.17
   2  -6  15    3.26    0.45
  -4  -5  15    3.84    0.52
  -4  -5  15    4.42    0.62
  -3  -5  15   45.33    2.90
  -3  -5  15   47.56    2.71
  -2  -5  15   24.38    1.48
  -2  -5  15   23.44    1.57
  -1  -5  15    0.71    0.22
   0  -5  15   19.06    1.22
   1  -5  15   48.84    2.84
   2  -5  15    9.79    0.72
  -4  -4  15    0.24    0.33
  -4  -4  15    0.18    0.22
  -3  -4  15   26.37    1.74
  -3  -4  15   26.73    1.62
  -2  -4  15   37.39    2.37
  -2  -4  15   38.26    2.23
  -1  -4  15    6.62    0.56
   0  -4  15   23.34    1.44
   1  -4  15   55.18    3.19
   2  -4  15    3.77    0.44
   5   3 -15   16.60    1.22
  -5  -3  15   15.90    1.19
  -5  -3  15   15.52    1.07
   4   3 -15    0.21    0.35
  -4  -3  15    0.18    0.20
   3   3 -15   18.50    1.29
  -3  -3  15   17.58    1.15
   2   3 -15   47.30    3.04
  -2  -3  15   50.94    2.85
  -1  -3  15   12.54    0.86
   0  -3  15   37.82    2.22
   1  -3  15   62.35    3.57
   2  -3  15    6.98    0.57
   4   2 -15   13.55    1.06
  -4  -2  15   12.96    0.91
   3   2 -15   17.44    1.25
  -3  -2  15   17.26    1.12
  -2  -2  15   55.89    3.21
  -1  -2  15    1.28    0.34
   0  -2  15   22.94    1.40
   1  -2  15   24.81    1.51
   4   1 -15    3.08    0.61
  -4  -1  15    3.02    0.44
   3   1 -15   32.61    2.03
  -3  -1  15   29.29    1.84
   2   1 -15   31.36    2.03
  -2  -1  15   30.51    1.84
  -1  -1  15    6.28    0.53
   0  -1  15    5.94    0.51
  -2   0  15   31.55    1.88
   0   0   0    0.00    0.00
;
_shelx_hkl_checksum              42421
loop_
_space_group_symop_operation_xyz
'x, y, z'
'-x, -y, -z'
loop_
_atom_site_label
_atom_site_type_symbol
_atom_site_fract_x
_atom_site_fract_y
_atom_site_fract_z
_atom_site_U_iso_or_equiv
_atom_site_adp_type
_atom_site_occupancy
_atom_site_site_symmetry_order
_atom_site_calc_flag
_atom_site_refinement_flags_posn
_atom_site_refinement_flags_adp
Hg1 Hg 0.34352(2) 1.01524(2) 0.34541(2) 0.01088(6) Uani 1 1 d . .
N1 N 0.2409(4) 0.3910(4) 0.5658(3) 0.0135(6) Uani 1 1 d . .
C2 C 0.2867(5) 0.3218(5) 0.6501(4) 0.0152(7) Uani 1 1 d . .
H2 H 0.2147 0.2134 0.6390 0.018 Uiso 1 1 calc R U
N3 N 0.5781(4) 1.6145(4) 0.2511(3) 0.0134(6) Uani 1 1 d . .
C4 C 0.4843(5) 1.4639(5) 0.2437(3) 0.0129(7) Uani 1 1 d . .
C5 C 0.5185(5) 1.3753(5) 0.3254(3) 0.0105(6) Uani 1 1 d . .
C6 C 0.3351(5) 0.5463(5) 0.5765(3) 0.0119(6) Uani 1 1 d . .
N7 N 0.3873(4) 1.2262(4) 0.2864(3) 0.0128(6) Uani 1 1 d . .
C8 C 0.2819(5) 1.2270(5) 0.1872(4) 0.0137(7) Uani 1 1 d . .
H8 H 0.1796 1.1393 0.1425 0.016 Uiso 1 1 calc R U
N9 N 0.3357(4) 1.3650(4) 0.1570(3) 0.0122(6) Uani 1 1 d . .
C9 C 0.2583(5) 1.3997(5) 0.0479(4) 0.0168(7) Uani 1 1 d . .
H9C H 0.3430 1.4049 -0.0075 0.025 Uiso 1 1 calc R U
H9B H 0.2244 1.5106 0.0786 0.025 Uiso 1 1 calc R U
H9A H 0.1554 1.3069 -0.0005 0.025 Uiso 1 1 calc R U
O1* O 0.3616(4) 0.7703(3) 0.4859(3) 0.0121(5) Uani 1 1 d . .
C2* C 0.2729(5) 0.6127(5) 0.4826(4) 0.0126(6) Uani 1 1 d . .
C3* C 0.1306(5) 0.5457(5) 0.3858(4) 0.0125(6) Uani 1 1 d . .
H3* H 0.0485 0.4388 0.3631 0.015 Uiso 1 1 calc R U
C4* C 0.1302(5) 0.6691(5) 0.3254(4) 0.0128(7) Uani 1 1 d . .
H4* H 0.0469 0.6602 0.2549 0.015 Uiso 1 1 calc R U
C5* C 0.2717(5) 0.8018(5) 0.3881(4) 0.0121(7) Uani 1 1 d . .
Cl1 Cl 0.77409(12) 0.21202(12) 0.03671(8) 0.01469(16) Uani 1 1 d . .
O1 O 0.8315(8) 0.0837(6) 0.0745(4) 0.0518(13) Uani 1 1 d . .
O2 O 0.8583(5) 0.3808(4) 0.1263(3) 0.0312(8) Uani 1 1 d . .
O3 O 0.8120(4) 0.1904(4) -0.0887(3) 0.0230(6) Uani 1 1 d . .
O4 O 0.5917(5) 0.1886(7) 0.0315(4) 0.0588(16) Uani 1 1 d . .
O1W O 0.3688(4) 0.0478(4) 0.7666(3) 0.0210(6) Uani 1 1 d D .
H1W H 0.402(12) 0.030(9) 0.833(4) 0.07(3) Uiso 1 1 d D .
H2W H 0.403(9) 0.156(3) 0.791(6) 0.05(2) Uiso 1 1 d D .
O1X O -0.0059(4) 0.9166(5) 0.6507(4) 0.0284(7) Uani 1 1 d D .
H1X H -0.017(10) 0.826(7) 0.587(5) 0.06(3) Uiso 1 1 d D .
H2X H 0.089(6) 0.940(11) 0.699(6) 0.07(3) Uiso 1 1 d D .
loop_
_atom_site_aniso_label
_atom_site_aniso_U_11
_atom_site_aniso_U_22
_atom_site_aniso_U_33
_atom_site_aniso_U_23
_atom_site_aniso_U_13
_atom_site_aniso_U_12
Hg1 0.01229(8) 0.01035(8) 0.00887(8) 0.00446(5) -0.00088(5) -0.00009(5)
N1 0.0121(13) 0.0143(14) 0.0137(14) 0.0056(11) 0.0015(11) 0.0020(11)
C2 0.0165(16) 0.0140(16) 0.0162(16) 0.0082(13) 0.0030(13) 0.0013(13)
N3 0.0151(14) 0.0128(14) 0.0135(14) 0.0068(11) 0.0027(11) 0.0024(11)
C4 0.0105(15) 0.0164(17) 0.0103(15) 0.0031(12) 0.0008(12) 0.0040(13)
C5 0.0115(15) 0.0118(15) 0.0086(14) 0.0041(12) 0.0031(12) 0.0024(13)
C6 0.0110(14) 0.0133(16) 0.0110(15) 0.0041(12) 0.0028(12) 0.0022(12)
N7 0.0136(14) 0.0131(15) 0.0112(14) 0.0056(11) -0.0010(11) 0.0021(12)
C8 0.0144(16) 0.0130(16) 0.0122(16) 0.0049(13) -0.0010(13) 0.0014(13)
N9 0.0159(14) 0.0112(14) 0.0094(13) 0.0045(10) 0.0001(11) 0.0028(11)
C9 0.0190(18) 0.0217(19) 0.0125(16) 0.0105(14) -0.0001(13) 0.0051(15)
O1* 0.0157(12) 0.0112(12) 0.0091(11) 0.0051(9) -0.0010(9) 0.0017(10)
C2* 0.0129(15) 0.0124(16) 0.0116(15) 0.0041(12) 0.0022(12) 0.0017(13)
C3* 0.0100(15) 0.0127(16) 0.0131(15) 0.0051(12) 0.0000(12) -0.0008(12)
C4* 0.0083(14) 0.0153(17) 0.0118(15) 0.0041(12) -0.0012(12) -0.0007(13)
C5* 0.0103(15) 0.0144(17) 0.0103(15) 0.0042(12) 0.0000(12) 0.0016(13)
Cl1 0.0160(4) 0.0144(4) 0.0110(4) 0.0029(3) 0.0012(3) 0.0013(3)
O1 0.104(4) 0.042(2) 0.0276(19) 0.0213(17) 0.019(2) 0.041(3)
O2 0.043(2) 0.0204(16) 0.0142(14) -0.0019(12) -0.0019(13) -0.0103(14)
O3 0.0338(17) 0.0207(15) 0.0106(12) 0.0062(11) 0.0024(12) -0.0029(13)
O4 0.0179(17) 0.084(4) 0.034(2) -0.022(2) 0.0066(15) -0.003(2)
O1W 0.0269(16) 0.0184(15) 0.0202(14) 0.0099(11) 0.0050(12) 0.0053(12)
O1X 0.0210(15) 0.0278(18) 0.0286(18) 0.0029(14) -0.0031(13) 0.0065(13)
loop_
_atom_type_symbol
_atom_type_description
_atom_type_scat_dispersion_real
_atom_type_scat_dispersion_imag
_atom_type_scat_source
C C 0.0033 0.0016 'International Tables Vol C Tables 4.2.6.8 and 6.1.1.4'
H H 0.0000 0.0000 'International Tables Vol C Tables 4.2.6.8 and 6.1.1.4'
N N 0.0061 0.0033 'International Tables Vol C Tables 4.2.6.8 and 6.1.1.4'
O O 0.0106 0.0060 'International Tables Vol C Tables 4.2.6.8 and 6.1.1.4'
Cl Cl 0.1484 0.1585 'International Tables Vol C Tables 4.2.6.8 and 6.1.1.4'
Hg Hg -2.3894 9.2266 'International Tables Vol C Tables 4.2.6.8 and 6.1.1.4'
loop_
_geom_angle_atom_site_label_1
_geom_angle_atom_site_label_2
_geom_angle_atom_site_label_3
_geom_angle
_geom_angle_site_symmetry_1
_geom_angle_site_symmetry_3
C5* Hg1 N7 172.86(13) . .
C2 N1 C6 119.3(3) . .
N1 C2 N3 128.3(4) . 2_676
N1 C2 H2 115.8 . .
N3 C2 H2 115.8 2_676 .
C4 N3 C2 111.6(3) . 2_676
N3 C4 N9 127.3(4) . .
N3 C4 C5 126.1(3) . .
N9 C4 C5 106.6(3) . .
N7 C5 C6 135.7(4) . 2_676
N7 C5 C4 107.4(3) . .
C6 C5 C4 116.9(4) 2_676 .
N1 C6 C5 117.8(3) . 2_676
N1 C6 C2* 115.3(3) . .
C5 C6 C2* 126.9(4) 2_676 .
C8 N7 C5 106.3(3) . .
C8 N7 Hg1 120.4(3) . .
C5 N7 Hg1 133.2(3) . .
N7 C8 N9 112.5(3) . .
N7 C8 H8 123.8 . .
N9 C8 H8 123.8 . .
C8 N9 C4 107.2(3) . .
C8 N9 C9 126.8(3) . .
C4 N9 C9 125.9(3) . .
N9 C9 H9C 109.5 . .
N9 C9 H9B 109.5 . .
H9C C9 H9B 109.5 . .
N9 C9 H9A 109.5 . .
H9C C9 H9A 109.5 . .
H9B C9 H9A 109.5 . .
C2* O1* C5* 106.5(3) . .
C3* C2* O1* 110.3(3) . .
C3* C2* C6 130.4(4) . .
O1* C2* C6 119.3(3) . .
C2* C3* C4* 106.1(3) . .
C2* C3* H3* 126.9 . .
C4* C3* H3* 126.9 . .
C5* C4* C3* 107.0(3) . .
C5* C4* H4* 126.5 . .
C3* C4* H4* 126.5 . .
C4* C5* O1* 110.0(3) . .
C4* C5* Hg1 125.7(3) . .
O1* C5* Hg1 124.3(3) . .
O1 Cl1 O4 109.0(4) . .
O1 Cl1 O2 110.6(3) . .
O4 Cl1 O2 108.8(3) . .
O1 Cl1 O3 108.2(2) . .
O4 Cl1 O3 109.7(3) . .
O2 Cl1 O3 110.6(2) . .
H1W O1W H2W 102(4) . .
H1X O1X H2X 110(5) . .
loop_
_geom_bond_atom_site_label_1
_geom_bond_atom_site_label_2
_geom_bond_distance
_geom_bond_site_symmetry_2
Hg1 C5* 2.028(4) .
Hg1 N7 2.097(3) .
N1 C2 1.329(5) .
N1 C6 1.349(5) .
C2 N3 1.344(5) 2_676
C2 H2 0.9500 .
N3 C4 1.327(5) .
N3 C2 1.344(5) 2_676
C4 N9 1.372(5) .
C4 C5 1.408(5) .
C5 N7 1.386(5) .
C5 C6 1.399(5) 2_676
C6 C5 1.399(5) 2_676
C6 C2* 1.442(5) .
N7 C8 1.326(5) .
C8 N9 1.338(5) .
C8 H8 0.9500 .
N9 C9 1.460(5) .
C9 H9C 0.9800 .
C9 H9B 0.9800 .
C9 H9A 0.9800 .
O1* C2* 1.378(5) .
O1* C5* 1.379(5) .
C2* C3* 1.367(5) .
C3* C4* 1.430(5) .
C3* H3* 0.9500 .
C4* C5* 1.361(5) .
C4* H4* 0.9500 .
Cl1 O1 1.421(4) .
Cl1 O4 1.423(4) .
Cl1 O2 1.423(3) .
Cl1 O3 1.445(3) .
O1W H1W 0.84(2) .
O1W H2W 0.84(2) .
O1X H1X 0.83(2) .
O1X H2X 0.83(2) .
loop_
_geom_hbond_atom_site_label_D
_geom_hbond_atom_site_label_H
_geom_hbond_atom_site_label_A
_geom_hbond_distance_DH
_geom_hbond_distance_HA
_geom_hbond_distance_DA
_geom_hbond_angle_DHA
_geom_hbond_site_symmetry_A
O1X H2X O1W 0.83(2) 2.19(4) 2.964(5) 156(9) 1_565
O1X H2X O1 0.83(2) 2.66(7) 3.262(6) 131(8) 2_666
O1X H1X N1 0.83(2) 2.34(5) 3.021(5) 138(7) 2_566
O1W H2W N3 0.84(2) 2.14(4) 2.889(5) 149(6) 2_676
O1W H1W O4 0.84(2) 2.36(5) 3.025(6) 137(6) 1_556
O1W H1W O1 0.84(2) 2.45(9) 2.904(6) 115(8) 2_656
C4* H4* O2 0.95 2.42 2.991(5) 118.8 1_455
C9 H9B O3 0.98 2.56 3.490(5) 158.5 2_675
C8 H8 O3 0.95 2.66 3.228(5) 119.2 2_665
C8 H8 O1 0.95 2.51 3.116(6) 121.3 2_665
O1X H2X O1W 0.83(2) 2.19(4) 2.964(5) 156(9) 1_565
O1X H2X O1 0.83(2) 2.66(7) 3.262(6) 131(8) 2_666
O1X H1X N1 0.83(2) 2.34(5) 3.021(5) 138(7) 2_566
O1W H2W N3 0.84(2) 2.14(4) 2.889(5) 149(6) 2_676
O1W H1W O4 0.84(2) 2.36(5) 3.025(6) 137(6) 1_556
O1W H1W O1 0.84(2) 2.45(9) 2.904(6) 115(8) 2_656
C4* H4* O2 0.95 2.42 2.991(5) 118.8 1_455
C9 H9B O3 0.98 2.56 3.490(5) 158.5 2_675
C8 H8 O3 0.95 2.66 3.228(5) 119.2 2_665
C8 H8 O1 0.95 2.51 3.116(6) 121.3 2_665
O1X H2X O1W 0.83(2) 2.19(4) 2.964(5) 156(9) 1_565
O1X H2X O1 0.83(2) 2.66(7) 3.262(6) 131(8) 2_666
O1X H1X N1 0.83(2) 2.34(5) 3.021(5) 138(7) 2_566
O1W H2W N3 0.84(2) 2.14(4) 2.889(5) 149(6) 2_676
O1W H1W O4 0.84(2) 2.36(5) 3.025(6) 137(6) 1_556
O1W H1W O1 0.84(2) 2.45(9) 2.904(6) 115(8) 2_656
C4* H4* O2 0.95 2.42 2.991(5) 118.8 1_455
C9 H9B O3 0.98 2.56 3.490(5) 158.5 2_675
C8 H8 O3 0.95 2.66 3.228(5) 119.2 2_665
C8 H8 O1 0.95 2.51 3.116(6) 121.3 2_665
C8 H8 O1 0.95 2.51 3.116(6) 121.3 2_665
C8 H8 O3 0.95 2.66 3.228(5) 119.2 2_665
C9 H9B O3 0.98 2.56 3.490(5) 158.5 2_675
C4* H4* O2 0.95 2.42 2.991(5) 118.8 1_455
O1W H1W O1 0.84(2) 2.45(9) 2.904(6) 115(8) 2_656
O1W H1W O4 0.84(2) 2.36(5) 3.025(6) 137(6) 1_556
O1W H2W N3 0.84(2) 2.14(4) 2.889(5) 149(6) 2_676
O1X H1X N1 0.83(2) 2.34(5) 3.021(5) 138(7) 2_566
O1X H2X O1 0.83(2) 2.66(7) 3.262(6) 131(8) 2_666
O1X H2X O1W 0.83(2) 2.19(4) 2.964(5) 156(9) 1_565
C8 H8 O1 0.95 2.51 3.116(6) 121.3 2_665
C8 H8 O3 0.95 2.66 3.228(5) 119.2 2_665
C9 H9B O3 0.98 2.56 3.490(5) 158.5 2_675
C4* H4* O2 0.95 2.42 2.991(5) 118.8 1_455
O1W H1W O1 0.84(2) 2.45(9) 2.904(6) 115(8) 2_656
O1W H1W O4 0.84(2) 2.36(5) 3.025(6) 137(6) 1_556
O1W H2W N3 0.84(2) 2.14(4) 2.889(5) 149(6) 2_676
O1X H1X N1 0.83(2) 2.34(5) 3.021(5) 138(7) 2_566
O1X H2X O1 0.83(2) 2.66(7) 3.262(6) 131(8) 2_666
O1X H2X O1W 0.83(2) 2.19(4) 2.964(5) 156(9) 1_565
C8 H8 O1 0.95 2.51 3.116(6) 121.3 2_665
C8 H8 O3 0.95 2.66 3.228(5) 119.2 2_665
C9 H9B O3 0.98 2.56 3.490(5) 158.5 2_675
C4* H4* O2 0.95 2.42 2.991(5) 118.8 1_455
O1W H1W O1 0.84(2) 2.45(9) 2.904(6) 115(8) 2_656
O1W H1W O4 0.84(2) 2.36(5) 3.025(6) 137(6) 1_556
O1W H2W N3 0.84(2) 2.14(4) 2.889(5) 149(6) 2_676
O1X H1X N1 0.83(2) 2.34(5) 3.021(5) 138(7) 2_566
O1X H2X O1 0.83(2) 2.66(7) 3.262(6) 131(8) 2_666
O1X H2X O1W 0.83(2) 2.19(4) 2.964(5) 156(9) 1_565
loop_
_geom_torsion_atom_site_label_1
_geom_torsion_atom_site_label_2
_geom_torsion_atom_site_label_3
_geom_torsion_atom_site_label_4
_geom_torsion
_geom_torsion_site_symmetry_1
_geom_torsion_site_symmetry_4
C6 N1 C2 N3 -1.1(6) . 2_676
C2 N3 C4 N9 178.3(3) 2_676 .
C2 N3 C4 C5 -1.1(5) 2_676 .
N3 C4 C5 N7 178.6(3) . .
N9 C4 C5 N7 -0.9(4) . .
N3 C4 C5 C6 0.1(5) . 2_676
N9 C4 C5 C6 -179.4(3) . 2_676
C2 N1 C6 C5 2.1(5) . 2_676
C2 N1 C6 C2* -178.6(3) . .
C6 C5 N7 C8 178.1(4) 2_676 .
C4 C5 N7 C8 0.1(4) . .
C6 C5 N7 Hg1 -6.3(6) 2_676 .
C4 C5 N7 Hg1 175.7(3) . .
C5 N7 C8 N9 0.8(4) . .
Hg1 N7 C8 N9 -175.5(2) . .
N7 C8 N9 C4 -1.4(4) . .
N7 C8 N9 C9 175.1(3) . .
N3 C4 N9 C8 -178.1(4) . .
C5 C4 N9 C8 1.3(4) . .
N3 C4 N9 C9 5.4(6) . .
C5 C4 N9 C9 -175.1(3) . .
C5* O1* C2* C3* -0.1(4) . .
C5* O1* C2* C6 -178.8(3) . .
N1 C6 C2* C3* 1.9(6) . .
C5 C6 C2* C3* -178.8(4) 2_676 .
N1 C6 C2* O1* -179.7(3) . .
C5 C6 C2* O1* -0.4(5) 2_676 .
O1* C2* C3* C4* -0.2(4) . .
C6 C2* C3* C4* 178.3(4) . .
C2* C3* C4* C5* 0.4(4) . .
C3* C4* C5* O1* -0.5(4) . .
C3* C4* C5* Hg1 179.2(2) . .
C2* O1* C5* C4* 0.3(4) . .
C2* O1* C5* Hg1 -179.4(2) . .
