#------------------------------------------------------------------------------
#$Date: 2015-10-06 15:53:46 +0300 (Tue, 06 Oct 2015) $
#$Revision: 160518 $
#$URL: svn://www.crystallography.net/cod/cif/4/34/40/4344061.cif $
#------------------------------------------------------------------------------
#
# This file is available in the Crystallography Open Database (COD),
# http://www.crystallography.net/
#
# All data on this site have been placed in the public domain by the
# contributors.
#
data_4344061
loop_
_publ_author_name
'Steinberg, Simon'
'Card, Nathan'
'Mudring, Anja-Verena'
_publ_section_title
;
 From the Ternary Eu(Au/In)2 and EuAu4(Au/In)2 with Remarkable Au/In
 Distributions to a New Structure Type: The Gold-Rich Eu5Au16(Au/In)6
 Structure.
;
_journal_issue                   17
_journal_name_full               'Inorganic chemistry'
_journal_page_first              8187
_journal_page_last               8196
_journal_paper_doi               10.1021/acs.inorgchem.5b00257
_journal_volume                  54
_journal_year                    2015
_chemical_formula_sum            'Au6.15 Eu2 Ga2.86'
_chemical_formula_weight         1714.43
_chemical_name_systematic
;
 ?
;
_space_group_crystal_system      trigonal
_space_group_IT_number           167
_space_group_name_Hall           '-R 3 2"c'
_space_group_name_H-M_alt        'R -3 c :H'
_symmetry_space_group_name_Hall  '-R 3 2"c'
_symmetry_space_group_name_H-M   'R -3 c :H'
_audit_creation_method           SHELXL-2014
_cell_angle_alpha                90
_cell_angle_beta                 90
_cell_angle_gamma                120
_cell_formula_units_Z            6
_cell_length_a                   8.411(5)
_cell_length_b                   8.411(5)
_cell_length_c                   21.830(13)
_cell_measurement_reflns_used    429
_cell_measurement_temperature    299(2)
_cell_measurement_theta_max      25.4345
_cell_measurement_theta_min      4.847
_cell_volume                     1337.5(14)
_computing_cell_refinement       'Bruker SAINT'
_computing_data_collection       'Bruker APEX2'
_computing_data_reduction        'Bruker SAINT'
_computing_molecular_graphics    'Bruker SHELXTL'
_computing_publication_material  'Bruker SHELXTL'
_computing_structure_refinement  'SHELXL-2014 (Sheldrick, 2014)'
_computing_structure_solution    'SHELXS-97 (Sheldrick 2008)'
_diffrn_ambient_temperature      299(2)
_diffrn_measured_fraction_theta_full 1.000
_diffrn_measured_fraction_theta_max 0.994
_diffrn_measurement_device_type  'Bruker APEX-II CCD'
_diffrn_measurement_method       '\f and \w scans'
_diffrn_radiation_type           MoK\a
_diffrn_radiation_wavelength     0.71073
_diffrn_reflns_av_R_equivalents  0.0993
_diffrn_reflns_av_unetI/netI     0.0500
_diffrn_reflns_laue_measured_fraction_full 1.000
_diffrn_reflns_laue_measured_fraction_max 0.994
_diffrn_reflns_limit_h_max       10
_diffrn_reflns_limit_h_min       -10
_diffrn_reflns_limit_k_max       10
_diffrn_reflns_limit_k_min       -10
_diffrn_reflns_limit_l_max       28
_diffrn_reflns_limit_l_min       -28
_diffrn_reflns_number            3698
_diffrn_reflns_point_group_measured_fraction_full 1.000
_diffrn_reflns_point_group_measured_fraction_max 0.994
_diffrn_reflns_theta_full        25.242
_diffrn_reflns_theta_max         27.756
_diffrn_reflns_theta_min         3.362
_exptl_absorpt_coefficient_mu    122.966
_exptl_absorpt_correction_T_max  0.7456
_exptl_absorpt_correction_T_min  0.4453
_exptl_absorpt_correction_type   empirical
_exptl_absorpt_process_details
;
SADABAS, R. H. Blessing, Acta Crystallogr. A 1995, 51, 33.
;
_exptl_crystal_colour            black
_exptl_crystal_density_diffrn    12.770
_exptl_crystal_description       polyhedral
_exptl_crystal_F_000             4202
_exptl_crystal_size_max          0.1
_exptl_crystal_size_mid          0.1
_exptl_crystal_size_min          0.1
_refine_diff_density_max         3.082
_refine_diff_density_min         -2.926
_refine_diff_density_rms         0.752
_refine_ls_extinction_coef       0.000060(16)
_refine_ls_extinction_expression Fc^*^=kFc[1+0.001xFc^2^\l^3^/sin(2\q)]^-1/4^
_refine_ls_extinction_method     SHELXL
_refine_ls_goodness_of_fit_ref   0.975
_refine_ls_hydrogen_treatment    undef
_refine_ls_matrix_type           full
_refine_ls_number_parameters     20
_refine_ls_number_reflns         351
_refine_ls_number_restraints     0
_refine_ls_restrained_S_all      0.975
_refine_ls_R_factor_all          0.0529
_refine_ls_R_factor_gt           0.0343
_refine_ls_shift/su_max          0.000
_refine_ls_shift/su_mean         0.000
_refine_ls_structure_factor_coef Fsqd
_refine_ls_weighting_details
'w=1/[\s^2^(Fo^2^)+(0.0456P)^2^] where P=(Fo^2^+2Fc^2^)/3'
_refine_ls_weighting_scheme      calc
_refine_ls_wR_factor_gt          0.0757
_refine_ls_wR_factor_ref         0.0836
_reflns_Friedel_coverage         0.000
_reflns_number_gt                271
_reflns_number_total             351
_reflns_threshold_expression     'I > 2\s(I)'
_cod_data_source_file            ic5b00257_si_002.cif
_cod_data_source_block           crystal-6
_cod_depositor_comments
'Adding full bibliography for 4344056--4344061.cif.'
_cod_original_cell_volume        1337.6(18)
_cod_database_code               4344061
_shelx_space_group_comment
;
The symmetry employed for this shelxl refinement is uniquely defined
by the following loop, which should always be used as a source of
symmetry information in preference to the above space-group names.
They are only intended as comments.
;
_shelxl_version_number           2014-1
_shelx_res_file
;
TITL ST71M_0m in R-3c
CELL 0.71073   8.41130   8.41130  21.83050  90.0000  90.0000 120.0000
ZERR    6.00   0.00510   0.00510   0.01320   0.0000   0.0000   0.0000
LATT  3
SYMM -Y, X-Y, Z
SYMM -X+Y, -X, Z
SYMM Y, X, 0.5-Z
SYMM X-Y, -Y, 0.5-Z
SYMM -X, -X+Y, 0.5-Z
SFAC GA EU AU
UNIT 17.14 12 36.90
TEMP 26.430
ACTA
L.S. 25
BOND
FMAP 2
PLAN 20
EXYZ GA3 AU3
EADP AU3 GA3
WGHT    0.045600
EXTI    0.000060
FVAR       0.01413   0.04890
MOLE   1
EU1   2    0.000000    0.000000    0.090088    10.33333    0.01807    0.01807 =
         0.01480    0.00000    0.00000    0.00904
AU2   3    0.347429    0.037650    0.015513    11.00000    0.01902    0.01602 =
         0.01339   -0.00119    0.00013    0.00839
PART 1
AU3   3    0.192833    0.000000    0.250000    20.50000    0.02253    0.01410 =
         0.00862   -0.00245   -0.00123    0.00705
GA3   1    0.192833    0.000000    0.250000   -20.50000    0.02253    0.01410 =
         0.00862   -0.00245   -0.00123    0.00705
MOLE   2
HKLF 4

REM  ST71M_0m in R-3c
REM R1 =  0.0343 for     271 Fo > 4sig(Fo)  and  0.0529 for all     351 data
REM     20 parameters refined using      0 restraints

END

WGHT      0.0456      0.0000

REM Highest difference peak  3.082,  deepest hole -2.926,  1-sigma level  0.752
Q1    1   0.3365 -0.0665  0.0127  11.00000  0.05    3.08
Q2    1   0.1548  0.1846  0.0808  11.00000  0.05    2.87
Q3    1   0.1706 -0.0930 -0.0133  11.00000  0.05    2.37
Q4    1   0.2630 -0.0417  0.0252  11.00000  0.05    2.27
Q5    1   0.0900  0.0000  0.2500  10.50000  0.05    2.20
Q6    1   0.1697  0.1306  0.2882  11.00000  0.05    2.04
Q7    1   0.1160 -0.0729  0.2954  11.00000  0.05    1.99
Q8    1   0.2164  0.0558  0.0442  11.00000  0.05    1.98
Q9    1   0.0000  0.0000  0.2500  10.16667  0.05    1.95
Q10   1   0.3905 -0.0090 -0.0311  11.00000  0.05    1.92
Q11   1   0.3361 -0.0464  0.0510  11.00000  0.05    1.88
Q12   1   0.3996  0.1441  0.0689  11.00000  0.05    1.85
Q13   1   0.2775 -0.1435  0.2672  11.00000  0.05    1.83
Q14   1   0.2629 -0.0475  0.0708  11.00000  0.05    1.76
Q15   1   0.0500 -0.0274  0.3054  11.00000  0.05    1.72
Q16   1   0.3168  0.1610 -0.0277  11.00000  0.05    1.70
Q17   1  -0.1483  0.0294  0.1156  11.00000  0.05    1.69
Q18   1   0.2630 -0.0909 -0.0226  11.00000  0.05    1.64
Q19   1   0.3169  0.0700  0.0807  11.00000  0.05    1.58
Q20   1   0.2810 -0.1790  0.0365  11.00000  0.05    1.56
;
_shelx_res_checksum              97653
_shelx_hkl_file
;
   1   1   0   59.43    3.27
   1  -2   0   59.46    4.42
   1   1   0   60.70    2.56
   1   1   0   63.48    2.30
  -2   1   0   60.72    3.65
   1   1   0   61.58    2.89
   2  -1   0   62.25    3.19
   2  -1   0   59.20    3.39
  -1   2   0   61.29    3.74
  -1   2   0   63.10    2.46
   2  -1   0   60.10    3.85
   3   0   0  982.12   15.56
   3   0   0  949.38   12.94
  -3   3   0  966.99   15.19
   3   0   0  957.91   10.63
   3  -3   0 1000.00   14.61
  -3   0   0  967.08   15.40
   0   3   0  975.74   13.19
   2  -4   0   56.33    5.84
  -4   2   0   60.65    6.01
   2   2   0   63.51    4.02
   2   2   0   60.17    3.63
   2   2   0   59.54    3.15
   2   2   0   65.64    5.24
  -2   4   0   62.35    3.28
   4  -2   0   65.88    4.69
   4  -2   0   62.15    4.38
   4  -2   0   59.50    6.57
  -2   4   0   63.54    3.41
   4  -5   0    2.60    3.18
  -5   1   0    0.18    2.36
   1   4   0   -0.01    1.61
   5  -1   0    2.77    2.56
   5  -1   0   -1.84    1.68
  -4   5   0   -2.00    2.11
   5  -1   0    0.12    1.61
  -5   4   0   -0.95    2.80
   1  -5   0   -1.54    3.85
   4   1   0    0.79    1.22
   4   1   0    0.26    1.69
   4   1   0    2.59    2.63
  -1   5   0    0.06    2.36
   5  -4   0    1.89    3.00
   5  -4   0    1.09    2.80
   3   3   0  325.52    9.86
   3   3   0  334.94   10.25
   3  -6   0  363.87   14.04
  -6   3   0  330.96   13.59
  -3   6   0  332.22    8.16
   6  -3   0  324.89   11.52
  -3   6   0  328.28    7.48
   6  -3   0  328.50   11.10
   0  -6   0  367.76   14.15
  -6   6   0  377.02   15.05
   6   0   0  332.70   12.02
   6   0   0  358.71    9.86
   6   0   0  353.96   14.26
   6  -6   0  339.16   13.94
   6  -6   0  351.00   13.92
   0   6   0  358.43   12.82
   2   5   0    0.61    2.21
   2   5   0    1.29    2.32
   5  -7   0    0.99    5.12
   7  -2   0   -0.60    2.60
   7  -2   0    0.83    2.40
   7  -2   0   -0.76    4.06
  -5   7   0    4.07    3.73
   5   2   0   -0.03    2.07
   5   2   0    0.13    3.38
  -7   5   0   -2.90    2.90
   7  -5   0    7.46    4.38
   7  -5   0    2.80    4.16
   7  -8   0   -0.12    5.65
   7  -8   0   -5.52    4.34
   8  -1   0    2.33    2.93
  -7   8   0    8.45    5.52
   8  -1   0    1.72    4.66
   4   4   0    2.40    3.23
   4   4   0   -0.92    2.03
   8  -4   0    2.60    3.07
   8  -4   0    3.58    3.19
   7   1   0    1.19    2.52
   7   1   0   -4.34    3.40
  -8   7   0    0.56    4.26
   8  -7   0    6.23    4.87
   8  -7   0   -3.85    4.35
   9  -3   0   49.43    6.72
   9  -3   0   55.72    7.88
  -6   9   0   50.83    6.92
  -9   6   0   47.36    9.48
   6   3   0   29.53    5.73
   6   3   0   50.99    6.70
   9  -6   0   51.19    8.01
   9  -6   0   59.89    8.78
   9   0   0   11.54    6.84
  -9   9   0   19.60    7.55
   9   0   0   20.14    5.27
   9  -9   0   19.92    7.96
   8 -10   0    2.81    6.78
  -8  10   0   15.71    6.16
  10  -2   0    8.97    4.99
   5   5   0   28.05    5.18
  10  -5   0   32.72    7.28
  10  -5   0   31.87    6.48
   8   2   0    5.57    4.27
   8   2   0    3.24    4.70
 -10   8   0   10.28    6.84
  10  -8   0    3.96    6.35
  10  -8   0   11.52    6.28
   1  -1  -1   -0.69    0.80
   0   1  -1    0.88    0.84
   0   1  -1   -0.22    0.87
   1   0   1   -0.72    0.71
   1   0   1    0.98    0.57
  -1   1   1    0.35    0.54
   1   0   1    0.29    0.54
  -1   3  -1   21.57    2.24
   3  -2  -1   22.03    3.64
  -1   3  -1   25.82    2.04
   3  -2  -1   22.97    3.27
  -1   3  -1   16.35    2.56
   2   1   1   18.31    1.95
   2   1   1   21.78    2.54
   1  -3   1   22.37    3.66
  -3   2   1   22.32    3.51
   2   1   1   21.70    3.22
   2   1   1   18.61    2.71
   2   0  -1   -0.19    1.05
   2   0  -1   -0.28    1.17
   2   0  -1   -2.04    1.48
  -2   2  -1   -0.41    1.20
  -2   2  -1    0.72    0.81
  -2   0   1    2.62    1.78
   2  -2   1    1.91    1.70
   0   2   1   -0.79    1.23
  -2   5  -1   46.09    3.26
   5  -3  -1   56.53    5.70
  -2   5  -1   29.57    4.41
   5  -3  -1   51.75    5.87
   5  -3  -1   45.58    5.91
   3   2   1   41.79    4.19
   3   2   1   61.77    6.44
   2  -5   1   52.54    6.83
   3   2   1   47.96    3.32
   3   2   1   54.39    5.29
  -5   3   1   51.35    6.62
   2  -3  -1   26.50    4.10
  -3   1  -1   22.76    3.76
   1   2  -1   18.49    3.28
   1   2  -1   18.79    2.56
   1   2  -1   18.81    2.14
  -2   3   1   18.84    2.41
  -2   3   1   21.83    2.27
   3  -1   1   22.26    2.65
   3  -1   1   20.21    2.55
   3  -1   1   25.60    4.00
  -3   4  -1  116.58    5.41
   4  -1  -1  115.93    5.78
   4  -1  -1  114.94    4.89
   4  -1  -1  100.03    6.56
   3  -4   1  114.62    5.92
  -4   1   1  107.41    6.58
   1   3   1  115.80    3.96
   1   3   1  107.55    5.35
   1   3   1  117.31    5.28
   7  -4  -1    6.76    3.91
   7  -4  -1    1.78    3.54
   4   3   1    8.49    2.98
  -7   4   1    3.15    3.89
   4   3   1    7.05    3.62
  -4   0  -1    1.10    2.08
   4  -4  -1    2.57    3.01
   0   4  -1   -0.81    1.54
   4   0   1    0.88    1.40
  -4   4   1   -1.07    1.92
  -4   4   1   -0.75    2.30
   4   0   1    0.76    1.59
   4   0   1   -1.30    2.16
  -4   3  -1  120.34    7.00
   3   1  -1  112.67    3.56
   3   1  -1  114.19    5.09
   1  -4  -1  121.26    8.07
   3   1  -1  105.86    5.82
   4  -3   1  108.21    5.89
   4  -3   1  108.79    5.93
  -1   4   1  106.59    6.51
   4  -3   1  106.23    6.43
  -4   6  -1  160.11    7.66
   6  -2  -1  154.21   10.07
   6  -2  -1  172.37    7.66
   6  -2  -1  150.53    8.28
  -6   2   1  162.47   10.14
   4  -6   1  153.35    8.97
   2   4   1  162.24    7.63
   2   4   1  158.61    6.17
   9  -5  -1   54.72    7.32
   9  -5  -1   62.32    8.58
   5   4   1   55.33    6.87
   5   4   1   67.48    7.37
  -1   6  -1  107.28    7.82
   6  -5  -1  110.10    8.34
   6  -5  -1  107.68    9.66
   5   1   1   87.96    4.91
   5   1   1   98.22    7.66
   1  -6   1  106.70   10.01
   5   1   1   85.03    6.09
  -6   5   1  105.88   10.77
   3  -5  -1   64.16    7.40
  -5   2  -1   48.78    6.29
   2   3  -1   46.28    5.87
   2   3  -1   51.45    4.47
   2   3  -1   43.21    3.99
   5  -2   1   42.09    5.94
  -3   5   1   44.11    3.49
   5  -2   1   44.00    4.78
   5  -2   1   38.50    4.23
   5   0  -1   -0.60    1.87
  -5   5  -1    1.14    3.35
   5   0  -1    2.19    1.64
   5   0  -1   -2.94    2.41
   0   5   1    0.39    2.22
   5  -5   1   -3.37    3.00
   5  -5   1   -1.21    3.29
  -5   8  -1    7.14    3.79
   8  -3  -1   14.20    3.91
   8  -3  -1    7.85    3.79
   3   5   1    7.32    3.07
   3   5   1    6.65    3.02
   8  -6  -1   87.43   10.13
   8  -6  -1   52.92    7.95
  -8   6   1   48.04    7.97
   6   2   1   41.21    6.52
   6   2   1   60.54    6.82
   5  -6  -1   94.27    9.18
   1   5  -1   91.92    6.17
   6  -1   1   90.13    5.72
   6  -1   1   83.73    8.45
  -5   6   1   96.07    7.74
   6  -1   1   88.84    6.60
   4   2  -1  151.76    7.04
   2  -6  -1  136.37   11.15
  -6   4  -1  151.30   10.15
   4   2  -1  162.48    8.75
  -2   6   1  180.78   10.26
   6  -4   1  163.32    8.67
   6  -4   1  142.57    8.57
   7  -1  -1  136.27   13.55
   7  -1  -1  120.22    8.09
  -6   7  -1  108.04    8.96
   7  -1  -1  111.52    6.41
   6  -7   1   95.59    9.66
   6  -7   1  115.88   10.69
   1   6   1  119.91    8.26
  10  -4  -1   27.68    5.51
  10  -4  -1   26.39    6.39
  -6  10  -1   29.85    5.70
   4   6   1   35.09    5.05
   6 -10   1   16.82    6.98
  10  -7  -1    4.53    5.66
  10  -7  -1    3.28    4.80
 -10   7   1    0.02    4.26
   7   3   1   11.73    4.57
   7   3   1    8.82    4.90
   7  -7  -1    3.17    5.07
   7  -7  -1    1.33    4.78
   7   0   1    4.75    2.96
  -7   7   1    0.28    4.07
   7   0   1   -5.10    3.05
   3   4  -1   12.51    3.74
   3   4  -1    4.95    2.54
   4  -7  -1    2.69    6.06
  -4   7   1    3.24    3.21
   7  -3   1    4.78    3.25
   7  -3   1    4.86    3.37
  -7   6  -1   96.82   10.37
   6   1  -1  118.29    7.68
   6   1  -1  113.83    9.45
   7  -6   1   98.45   10.10
   7  -6   1  119.54    8.99
   9  -2  -1   41.16    6.96
  -7   9  -1   49.85    7.72
   7  -9   1   42.39    8.92
   9  -8  -1   20.33    7.25
   9  -8  -1   15.39    6.47
   8   1   1   16.33    6.37
   8   1   1   33.20    5.93
  -9   8   1   21.83    7.98
   6  -8  -1   47.73    8.90
   8  -2   1   58.77    6.38
  -6   8   1   61.67    7.46
   8  -2   1   56.59    7.19
   5   3  -1    4.55    2.61
   5   3  -1    1.78    3.57
  -8   5  -1    7.90    4.71
   8  -5   1    7.93    3.96
   8  -5   1    4.45    3.84
   8   0  -1   -1.69    2.43
   8   0  -1   -1.69    4.63
  -8   8  -1    7.31    5.34
   8  -8   1    8.09    5.23
   8  -8   1   -4.48    5.02
   8  -9  -1   11.97    7.16
   9  -1   1   24.01    5.53
  -8   9   1   20.04    6.03
   4   5  -1   65.12    6.81
   9  -4   1   59.17    7.11
   9  -4   1   80.14    9.11
   7   2  -1   50.43    6.77
   7   2  -1   40.63    7.60
  -9   7  -1   19.16    6.15
   9  -7   1   34.34    7.16
   9  -7   1   32.11    6.68
   7 -10  -1    9.45    7.16
  10  -3   1    4.06    3.87
  -7  10   1    6.97    5.13
   6   4  -1   29.97    6.99
   6   4  -1   20.39    5.70
  10  -6   1   23.69    6.48
  10  -6   1   19.51    6.18
   1   0  -2    0.62    0.77
  -1   1  -2   -0.06    0.90
   1   0  -2    0.05    1.37
   0   1   2   -0.70    1.21
   0   1   2    1.36    0.68
   0   1   2    2.21    0.68
  -1   0   2    2.37    1.21
   1  -1   2    1.61    0.86
   0   1   2    2.60    1.04
   1  -1   2    0.33    0.51
   0   2  -2   24.63    2.67
   0   2  -2   22.59    1.82
   2  -2  -2   23.86    3.52
  -2   0  -2   20.70    2.91
   0   2  -2   18.26    2.88
   2   0   2   26.09    3.12
  -2   2   2   11.45    2.07
   2   0   2   19.89    2.25
   2   0   2   20.81    2.29
   3  -1  -2   56.55    4.08
   3  -1  -2   50.57    3.40
  -2   3  -2   52.32    3.53
  -2   3  -2   46.48    3.36
   3  -1  -2   67.14    5.83
   1   2   2   53.11    3.72
   1   2   2   50.28    3.35
  -3   1   2   50.38    4.24
   2  -3   2   53.13    3.45
   1   2   2   52.94    2.81
   1   2   2   49.20    3.25
  -1   4  -2   14.40    2.02
  -1   4  -2   10.36    2.59
   4  -3  -2   12.71    3.58
   4  -3  -2   15.32    3.51
  -1   4  -2   12.75    2.58
   3   1   2   16.86    3.48
   3   1   2   13.11    2.02
   1  -4   2   12.35    3.81
  -4   3   2    8.74    3.02
   3   1   2   15.54    2.62
   2   1  -2   52.71    1.84
  -3   2  -2   54.54    4.23
   2   1  -2   53.27    4.08
   2   1  -2   56.20    3.03
   1  -3  -2   55.43    6.21
   3  -2   2   55.26    4.33
   3  -2   2   54.47    3.52
   3  -2   2   57.50    3.95
  -1   3   2   47.14    4.67
   5  -2  -2   10.47    4.22
   5  -2  -2   13.36    3.45
   5  -2  -2   15.15    3.00
  -3   5  -2   18.08    2.94
  -3   5  -2   11.14    2.98
   2   3   2   15.18    2.88
   3  -5   2    9.43    3.37
  -5   2   2   15.75    4.51
   2   3   2   15.25    2.65
   2   3   2   12.53    3.11
   2   3   2    9.48    3.23
   6  -4  -2   32.16    5.41
   6  -4  -2   35.37    5.89
  -2   6  -2   26.62    4.83
  -6   4   2   38.22    7.17
   4   2   2   42.36    4.14
   4   2   2   34.17    4.46
   2  -6   2   47.30    7.55
   4   2   2   38.93    5.51
   1   3  -2    7.55    3.29
   3  -4  -2   11.02    4.06
  -4   1  -2   14.79    3.64
   1   3  -2   16.23    2.29
   1   3  -2   12.18    2.71
   4  -1   2   16.01    2.70
   4  -1   2   15.45    2.79
  -3   4   2    8.25    2.30
   4  -1   2   18.43    3.86
  -3   4   2   13.09    2.81
   4   0  -2    4.91    1.57
   4   0  -2   10.00    3.19
  -4   4  -2    5.52    2.82
   4   0  -2    8.77    2.48
   4  -4   2    7.53    3.04
   0   4   2    5.34    2.33
   4  -4   2    5.29    2.66
  -4   0   2    4.16    2.55
  -4   7  -2    1.74    3.13
   7  -3  -2   -0.87    2.95
   7  -3  -2    2.32    2.74
   3   4   2    2.96    2.76
   3   4   2    3.85    2.63
  -7   3   2   -3.94    2.93
   8  -5  -2    1.80    3.35
   8  -5  -2    1.97    3.92
   5   3   2    0.25    2.30
  -8   5   2   -2.31    3.78
   5   3   2    1.21    3.28
   0   5  -2   21.78    3.69
   5  -5  -2   22.07    5.33
   5   0   2   15.82    4.20
   5   0   2   22.02    3.90
   5   0   2   24.49    3.55
  -5   5   2   20.03    5.12
  -5   3  -2   15.99    4.39
   3   2  -2   11.05    3.10
   3   2  -2   13.70    1.88
   3   2  -2   14.71    2.53
   2  -5  -2    6.84    5.20
  -2   5   2   10.09    3.73
   5  -3   2   19.69    4.18
   5  -3   2   15.33    3.43
   5  -3   2    7.83    2.91
  -5   6  -2   13.63    4.59
   6  -1  -2   13.92    5.49
   6  -1  -2    4.09    2.92
   6  -1  -2    3.08    2.21
   5  -6   2   13.82    4.54
   1   5   2   10.47    3.23
   5  -6   2    0.19    4.09
   9  -4  -2   30.12    6.31
  -5   9  -2   20.37    5.21
   9  -4  -2   23.83    5.12
   5  -9   2   21.42    6.65
   4   5   2   31.22    4.73
   4   5   2   35.18    5.61
  10  -6  -2    1.59    4.76
  10  -6  -2   -1.74    3.67
   6   4   2   -1.05    3.71
   6   4   2    2.86    3.28
   7  -6  -2    8.59    4.87
   7  -6  -2    6.58    5.35
   6   1   2    3.60    2.76
   6   1   2    0.79    3.37
  -7   6   2    9.33    5.30
   4  -6  -2   30.52    7.48
  -6   2  -2   30.97    6.07
   2   4  -2   26.92    3.92
   2   4  -2   30.20    3.82
   6  -2   2   40.80    4.83
  -4   6   2   31.38    4.82
   6  -2   2   30.80    5.63
   6  -2   2   34.53    4.85
   5   1  -2    8.35    3.02
  -6   5  -2    3.15    3.71
   1  -6  -2    5.96    5.18
   5   1  -2    7.10    3.72
   6  -5   2    8.57    4.06
   6  -5   2    5.22    3.96
  -1   6   2    6.61    3.73
   8  -2  -2    8.25    3.90
  -6   8  -2   19.16    5.50
   6  -8   2    6.57    5.38
   2   6   2    5.93    3.18
   9  -7  -2   28.30    7.02
   9  -7  -2   38.96    8.15
   7   2   2   32.65    6.75
   7   2   2   39.56    6.35
  -9   7   2   22.62    6.10
   6  -7  -2   10.38    5.94
  -6   7   2    6.37    4.27
   7  -1   2    6.42    3.31
   7  -1   2    9.78    5.36
   7  -1   2    1.69    2.40
   3  -7  -2    8.82    6.80
   4   3  -2    2.45    2.18
  -7   4  -2   -1.22    3.25
   4   3  -2    3.69    3.51
   7  -4   2   -4.52    2.58
   7  -4   2    1.19    3.29
  -3   7   2    3.71    4.44
  -7   7  -2   10.17    5.26
   7   0  -2    8.98    3.54
   7   0  -2    5.42    5.03
   7  -7   2   10.18    4.96
   7  -7   2   10.37    5.01
  10  -3  -2    8.39    4.62
  -7  10  -2    2.95    4.70
   7 -10   2    1.62    6.22
   8  -8  -2    5.52    5.53
   8  -8  -2    2.20    6.02
   8   0   2    2.70    3.14
   8   0   2    0.81    4.14
  -8   8   2    1.19    5.08
   3   5  -2   -4.29    2.65
   5  -8  -2   -6.31    5.87
   8  -3   2   -0.64    2.43
   8  -3   2    3.94    3.26
  -5   8   2    3.06    3.15
   6   2  -2    5.78    4.15
  -8   6  -2    6.84    5.02
   6   2  -2   16.44    4.07
   8  -6   2    9.44    4.61
   8  -6   2   10.26    4.77
   9  -1  -2   22.26    5.57
  -8   9  -2   23.06    6.67
   8  -9   2   14.85    6.84
  -7   9   2   40.44    6.99
   9  -2   2   36.05    6.43
   5   4  -2   31.05    5.26
   5   4  -2   23.83    5.68
   9  -5   2   31.89    6.28
   9  -5   2   27.26    5.85
  -9   8  -2    9.20    6.36
   8   1  -2   27.80    7.74
   8   1  -2   17.84    4.67
   9  -8   2   27.97    7.75
   9  -8   2   25.73    7.22
   4   6  -2    1.47    3.59
  10  -4   2    2.78    3.16
  10  -4   2    0.17    3.70
   7   3  -2    5.93    3.58
   7   3  -2   -4.25    4.29
  10  -7   2    5.22    4.67
  10  -7   2   -2.08    4.71
   0   0  -3    1.42    0.93
   0   0   3   -1.12    0.80
   0   0   3   -0.24    0.74
   0   0   3   -0.39    0.56
  -1   2  -3   35.54    3.11
   2  -1  -3   37.29    3.77
   2  -1  -3   21.87    3.70
   1   1   3   30.94    2.73
   1   1   3   25.37    2.50
   1  -2   3   31.36    2.64
   1   1   3   32.00    2.63
   1  -2   3   29.29    1.75
   1   1   3   27.27    2.52
  -2   1   3   24.29    3.40
   1  -2  -3   28.73    4.68
  -2   1  -3   25.08    2.87
   1   1  -3   28.79    1.88
   1   1  -3   28.11    4.10
  -1   2   3   27.28    2.98
   2  -1   3   28.49    3.03
   2  -1   3   28.59    2.60
  -1   2   3   22.83    3.47
   2  -1   3   22.21    2.12
  -2   4  -3  127.28    4.93
  -2   4  -3  118.11    5.24
   4  -2  -3  124.84    7.14
   4  -2  -3  110.79    6.35
   2   2   3  119.39    5.07
   2  -4   3  131.54    5.18
   2   2   3  123.94    5.62
   2   2   3  125.38    5.03
   2   2   3  133.64    6.02
  -4   2   3  125.57    7.19
   3  -3  -3   -0.26    2.44
   0   3  -3    3.58    2.34
   0   3  -3    0.72    1.01
  -3   0  -3    1.45    1.75
   0   3  -3   -0.72    1.63
   3   0   3   -1.52    1.02
  -3   3   3    2.31    2.03
   3   0   3    0.51    1.28
  -3   3   3    0.27    1.84
   3   0   3   -0.28    1.51
  -3   3  -3    2.49    1.22
   3   0  -3    1.06    1.99
   3   0  -3    1.80    1.44
   3   0  -3   -0.96    0.86
   3  -3   3    1.55    1.85
   3  -3   3    2.10    1.71
   0   3   3   -0.45    1.44
  -3   0   3    3.58    2.29
   6  -3  -3    8.97    3.93
  -3   6  -3    5.33    3.01
   6  -3  -3    7.10    3.28
   3   3   3   11.36    2.99
   3   3   3   11.05    3.19
  -6   3   3    9.78    4.41
   3  -6   3    7.18    3.92
   3   3   3   10.53    2.99
  -1   5  -3   24.97    2.84
  -1   5  -3   21.05    3.88
  -1   5  -3   12.80    3.19
   5  -4  -3   22.44    4.97
  -5   4   3   24.67    5.33
   4   1   3   17.26    2.65
   1  -5   3   27.31    5.26
   4   1   3   15.27    2.96
   4   1   3   30.90    4.87
   2   2  -3  127.15    4.50
   2  -4  -3  128.94    9.19
   2   2  -3  123.32    7.90
  -4   2  -3  126.01    6.95
   2   2  -3  128.05    6.54
   4  -2   3  113.24    5.51
   4  -2   3  126.34    5.57
   4  -2   3  127.71    6.94
  -2   4   3  113.72    7.49
   5  -1  -3   20.45    4.69
   5  -1  -3   12.03    2.66
   5  -1  -3   12.23    3.28
  -4   5  -3   19.18    4.26
  -5   1   3   12.17    3.85
   4  -5   3   13.60    3.48
   1   4   3    9.44    2.80
   4  -5   3    7.11    3.54
  -4   8  -3    7.47    3.71
   8  -4  -3   10.27    4.45
   8  -4  -3   13.12    4.06
   4   4   3    8.65    3.32
   4   4   3   17.17    4.05
   4  -8   3    6.72    4.76
   7  -5  -3    6.41    4.67
   7  -5  -3    8.19    4.49
   5   2   3   11.79    3.56
   5   2   3    5.80    3.35
  -7   5   3   14.22    4.92
   1   4  -3   24.99    3.04
   4  -5  -3   22.17    5.44
   1   4  -3   27.35    3.90
   1   4  -3   18.79    3.55
  -5   1  -3   17.45    4.38
   5  -1   3   36.90    5.85
   5  -1   3   25.31    3.62
   5  -1   3   20.42    3.43
  -4   5   3   22.24    4.14
   4   1  -3   12.78    3.70
   1  -5  -3    1.62    4.67
   4   1  -3   11.26    1.79
   4   1  -3   15.87    2.99
  -5   4  -3   10.44    3.74
  -1   5   3   14.36    4.08
   5  -4   3   10.45    3.19
   5  -4   3   10.62    3.39
  -5   7  -3    0.17    3.36
   7  -2  -3    3.68    2.72
   7  -2  -3   -0.57    2.85
   2   5   3    2.79    2.77
   5  -7   3    0.29    4.20
  10  -5  -3    2.99    3.60
  10  -5  -3    2.37    4.20
   5   5   3   -4.83    2.98
   5   5   3    4.69    3.21
   9  -6  -3    3.99    4.80
   9  -6  -3    2.54    3.55
   6   3   3   -1.21    3.60
  -9   6   3    3.93    5.70
   6   3   3   -0.80    2.86
   6  -6  -3   -0.53    5.04
   6   0   3    2.66    2.58
   6   0   3   -1.02    1.95
   6   0   3   -1.24    3.63
  -6   6   3    2.23    4.02
   3  -6  -3   12.52    6.14
   3   3  -3    3.14    3.05
   3   3  -3    8.94    2.38
  -6   3  -3    9.32    3.55
   6  -3   3    4.65    2.95
   6  -3   3    4.78    3.51
  -3   6   3    6.58    4.22
   6  -3   3    0.40    2.50
   0  -6  -3    2.76    4.82
   6   0  -3    9.47    4.29
  -6   6  -3   -6.30    3.71
   6   0  -3   -2.25    1.97
   6  -6   3    4.95    4.62
   6  -6   3    0.15    3.76
   0   6   3    3.03    3.34
   9  -3  -3    0.41    3.05
  -6   9  -3    1.78    4.29
   3   6   3   -2.03    2.95
   6  -9   3    3.35    5.51
   8  -7  -3    1.52    5.49
   8  -7  -3    0.13    4.75
   7   1   3    5.42    4.51
  -8   7   3   -2.26    3.73
   7   1   3    5.68    3.14
   5  -7  -3   12.87    7.10
   2   5  -3    8.02    3.13
   7  -2   3   10.92    3.52
   7  -2   3   12.99    3.54
   7  -2   3   17.07    5.30
  -5   7   3    2.47    3.56
  -7   5  -3   -3.11    3.23
   5   2  -3    2.91    2.36
   5   2  -3   -0.33    3.87
   2  -7  -3   -2.70    5.66
   7  -5   3   -2.61    3.24
  -2   7   3    0.94    3.59
   7  -5   3    3.84    3.68
  -7   8  -3    2.83    4.32
   8  -1  -3   11.79    4.11
   7  -8   3    1.39    4.86
  10  -8  -3   14.34    7.18
  10  -8  -3   10.67    7.64
   8   2   3   11.46    4.43
   8   2   3    9.47    4.95
 -10   8   3    4.14    5.30
   7  -8  -3    8.79    6.68
   8  -1   3    6.81    5.10
  -7   8   3   -1.72    3.81
   8  -1   3    3.41    3.17
   4  -8  -3    5.22    6.82
   4   4  -3   12.52    3.30
   4   4  -3   19.30    4.69
   8  -4   3   12.68    3.83
   8  -4   3    8.92    3.91
   7   1  -3    6.20    4.90
   7   1  -3    8.72    3.37
  -8   7  -3    1.45    5.35
   8  -7   3    7.98    5.21
   8  -7   3    2.16    4.53
  -8  10  -3   -0.36    4.76
  10  -2  -3    2.90    4.00
   8 -10   3    4.35    6.39
   9  -9  -3   -4.82    5.97
   9  -9  -3    1.34    7.46
  -9   9   3    2.60    6.18
   9   0   3    1.61    3.17
   9   0   3    7.44    5.35
   3   6  -3    0.06    3.14
  -6   9   3    4.05    3.88
   9  -3   3    4.11    3.73
   9  -3   3    0.68    2.76
   6   3  -3   -2.05    3.86
  -9   6  -3    1.93    5.06
   6   3  -3    3.14    2.85
   9  -6   3    5.29    4.57
   9  -6   3   -2.30    3.53
   9   0  -3   -0.66    2.78
  -9   9  -3   -2.09    4.94
   9  -9   3    3.84    5.47
   8 -10  -3   23.45    9.55
  10  -2   3    8.47    4.55
  -8  10   3    4.47    5.44
   5   5  -3   -0.98    3.97
  10  -5   3   -0.89    3.58
  10  -5   3    3.94    3.79
   8   2  -3    6.75    3.80
 -10   8  -3   -3.77    6.48
   8   2  -3   -0.93    4.87
  10  -8   3   11.61    6.13
   0   1  -4   -0.01    1.91
   0   1  -4   -0.97    1.45
   1  -1  -4   -1.45    2.32
  -1   0  -4   -1.02    1.34
   1   0   4   -1.95    1.16
   1   0   4   -0.64    0.98
   0  -1   4   -1.39    1.81
  -1   1   4   -0.95    1.98
  -1   1   4    3.74    2.51
   1   0   4   -1.17    1.22
   0  -1   4    0.91    0.84
  -1   3  -4   48.49    3.37
   3  -2  -4   57.00    5.30
   3  -2  -4   60.34    5.39
  -1   3  -4   45.37    3.85
  -3   2   4   51.10    5.40
   2   1   4   42.14    3.58
   1  -3   4   52.90    3.27
   2   1   4   49.82    3.52
   2   1   4   50.19    3.55
   2   1   4   50.30    3.25
   2   0  -4  115.46    6.74
  -2   2  -4  121.45    5.22
   2   0  -4  125.99    4.84
   2  -2   4  118.78    3.51
   2  -2   4  120.11    4.50
   0   2   4  104.98    5.92
   2  -2   4  122.96    5.18
   0   2   4  118.62    3.17
  -2   0   4  121.08    6.49
   0   2   4  119.34    5.52
  -2   5  -4  108.93    5.07
  -2   5  -4  105.17    5.97
   5  -3  -4  113.96    7.56
   5  -3  -4   94.85    7.70
   3   2   4  112.76    6.16
   3   2   4  112.99    5.58
  -5   3   4  107.46    7.94
   3   2   4  104.98    5.72
   2  -5   4  102.54    5.48
   2  -3  -4   46.54    6.04
   1   2  -4   58.84    5.74
  -3   1  -4   56.05    4.42
   1   2  -4   50.03    2.29
   1   2  -4   52.47    5.65
  -2   3   4   40.58    5.00
  -2   3   4   53.65    3.90
   3  -1   4   53.70    3.42
   3  -1   4   55.56    4.22
   3  -1   4   51.93    3.45
  -2   3   4   58.35    3.90
  -3   4  -4    3.07    2.57
  -3   4  -4   -2.10    1.70
   4  -1  -4    3.81    3.04
   4  -1  -4    2.76    1.71
   4  -1  -4    1.52    2.16
   1   3   4    2.44    1.78
   1   3   4    1.92    2.29
  -4   1   4    4.99    2.79
   3  -4   4    3.64    2.06
   3  -4   4    5.47    2.70
   7  -4  -4   11.35    4.82
   7  -4  -4    2.86    3.42
  -3   7  -4   10.42    3.74
  -7   4   4    3.75    4.04
   4   3   4    6.41    3.18
   3  -7   4   10.67    4.14
   4   3   4    8.83    3.23
   0   4  -4   -1.68    2.60
   0   4  -4    1.64    1.50
   4  -4  -4    9.31    3.90
  -4   0  -4    4.64    2.72
   0   4  -4    4.40    2.28
   4   0   4   -2.48    1.29
  -4   4   4    5.47    2.91
   4   0   4    4.89    2.74
   4   0   4   -0.08    1.41
  -4   4   4   -0.07    2.50
   1  -4  -4    4.32    4.14
  -4   3  -4    7.58    3.07
   3   1  -4    2.51    0.97
   3   1  -4    5.06    2.80
   3   1  -4    2.48    1.59
  -3  -1   4    0.11    2.29
  -1   4   4   -0.28    2.25
   4  -3   4    3.04    2.33
   4  -3   4    2.04    1.94
   4  -3   4    1.82    1.98
   6  -2  -4    1.36    2.35
   6  -2  -4    0.49    2.70
  -4   6  -4    6.61    3.74
   6  -2  -4    5.09    3.87
   4  -6   4   -2.29    3.32
   2   4   4    1.12    2.71
   2   4   4    1.59    2.56
  -6   2   4   -0.91    3.04
   2   4   4    1.01    1.99
   4  -6   4    0.96    3.13
   9  -5  -4   13.11    5.14
   9  -5  -4   13.43    4.74
   5   4   4    7.34    3.51
   5   4   4   -0.64    3.03
  -1   6  -4   -1.21    3.03
   6  -5  -4    0.34    4.10
  -6   5   4    0.26    3.75
   5   1   4    1.42    2.12
   5   1   4   -1.01    2.02
   5   1   4   -1.75    2.90
   3  -5  -4  111.22   10.58
   2   3  -4   97.19    6.57
   2   3  -4  105.80    4.67
  -5   2  -4  108.74    7.58
  -3   5   4  111.17    5.44
   5  -2   4  110.74    6.05
   5  -2   4  100.19    5.72
   5  -2   4  110.96    7.43
  -3   5   4  123.63    5.57
   5   0  -4   68.02    5.59
   5   0  -4   93.73    9.92
  -5   5  -4   70.91    7.60
   5   0  -4   75.02    4.11
   0   5   4   65.71    6.90
   5  -5   4   70.23    5.81
   5  -5   4   81.65    7.85
  -5   8  -4  128.09    8.60
   8  -3  -4  123.05    8.10
   8  -3  -4  120.22    9.30
   5  -8   4  129.09   10.13
   3   5   4  148.62    9.40
   3   5   4  125.22    6.25
   8  -6  -4   47.50    8.09
   8  -6  -4   33.87    7.00
   6   2   4   59.37    6.91
  -8   6   4   57.70    9.71
   6   2   4   55.60    7.54
   5  -6  -4    3.73    5.18
   1   5  -4    2.02    2.87
   6  -1   4   -1.19    2.29
   6  -1   4    3.11    2.48
   6  -1   4   -1.22    3.45
  -5   6   4    2.51    3.44
  -6   4  -4    2.63    3.28
   4   2  -4    2.66    3.34
   4   2  -4   -1.28    1.55
   2  -6  -4   -3.92    5.80
   6  -4   4   -0.56    2.53
   6  -4   4    2.09    2.95
  -2   6   4    5.34    4.00
  -6   7  -4   -1.26    3.97
   7  -1  -4    4.94    3.13
   7  -1  -4    2.37    4.23
   1   6   4   -0.61    2.77
   6  -7   4   -1.40    4.06
  10  -4  -4    1.80    3.73
  -6  10  -4   -7.41    4.58
   6 -10   4   -5.80    4.91
   4   6   4   -1.57    3.52
  10  -7  -4    9.02    6.19
  10  -7  -4    3.49    4.66
 -10   7   4    5.30    5.29
   7   3   4    2.53    4.53
   7   3   4    7.42    4.15
   7  -7  -4    7.52    5.96
   7   0   4    7.08    4.31
   7   0   4    9.74    3.57
  -7   7   4    5.58    4.84
   7   0   4    4.68    2.90
   3   4  -4    7.29    2.35
   4  -7  -4    8.36    6.86
   3   4  -4    9.40    3.89
   7  -3   4    6.34    3.34
   7  -3   4    8.25    3.37
   6   1  -4    6.98    3.11
   6   1  -4    1.11    4.11
  -7   6  -4   -0.80    4.50
   1  -7  -4    3.25    5.48
   7  -6   4    8.67    4.13
  -1   7   4    6.27    4.14
   7  -6   4   -3.38    3.40
  -7   9  -4    5.65    4.77
   9  -2  -4   -0.35    3.09
   7  -9   4    4.47    5.18
   9  -8  -4   -3.73    5.10
   9  -8  -4    6.20    6.70
   8   1   4    0.03    3.32
   8   1   4    4.18    4.39
  -9   8   4    0.51    4.73
   2   6  -4   52.92    5.64
   6  -8  -4   56.86   10.07
   8  -2   4   53.12    6.85
   8  -2   4   47.56    6.14
  -6   8   4   44.28    6.94
   3  -8  -4  137.02   14.93
   5   3  -4  138.29    7.74
   5   3  -4  132.29    9.78
   8  -5   4  133.06    9.52
   8  -5   4  131.55    9.14
  -3   8   4  166.61   12.27
  -8   8  -4  101.39   12.32
   8   0  -4  137.57   10.01
   8   0  -4  104.81   11.68
   8  -8   4  140.71   11.30
   8  -9  -4   -0.66    7.05
  -8   9   4   -1.70    4.52
   9  -1   4   -0.04    2.94
   4   5  -4   17.59    4.85
   9  -4   4    6.04    3.63
   9  -4   4   14.15    4.98
   7   2  -4   -0.61    4.23
  -9   7  -4    1.51    6.28
   7   2  -4    7.20    3.46
   9  -7   4    2.26    4.57
   9  -7   4   -2.04    3.43
   3   7  -4    9.54    3.95
  -7  10   4    9.06    4.95
  10  -3   4    9.67    4.40
  10  -3   4   15.63    5.54
   6   4  -4   -3.62    3.95
  10  -6   4    4.22    4.55
  10  -6   4    0.06    4.74
   1   0  -5   -2.48    1.57
   1   0  -5    4.69    3.13
   1   0  -5    0.92    1.87
  -1   1  -5   -2.29    1.65
   0   1   5    2.89    1.82
   0   1   5   -0.84    1.66
   1  -1   5   -3.45    1.45
   0   1   5    0.58    1.81
   0   1   5    0.13    1.66
   1  -1   5    0.76    0.98
  -1   0   5   -0.97    2.44
   1  -1   5   -1.90    1.37
   0   2  -5    0.63    2.37
   2  -2  -5    3.75    2.79
  -2   0  -5    0.79    1.49
   2   0   5    2.01    1.76
  -2   2   5    0.42    2.38
   0  -2   5   -0.83    0.89
  -2   2   5    0.62    2.09
   2   0   5    0.66    1.24
   2   0   5    0.50    1.31
  -2   3  -5  144.88    6.02
  -2   3  -5  143.62    4.88
   3  -1  -5  145.10    8.11
   3  -1  -5  139.74    6.35
  -3   1   5  148.72    7.93
   1   2   5  137.72    5.88
   2  -3   5  140.59    5.32
   1   2   5  140.89    6.04
   1   2   5  135.37    4.32
   2  -3   5  144.14    3.52
   1   2   5  141.00    4.91
  -1   4  -5   36.00    4.48
   4  -3  -5   49.45    6.06
  -1   4  -5   44.50    4.02
   4  -3  -5   44.29    5.50
   3   1   5   39.80    4.18
   1  -4   5   40.55    3.75
   3   1   5   34.50    3.50
   3   1   5   36.45    4.07
  -4   3   5   37.87    5.37
   1  -3  -5  133.71    8.82
   2   1  -5  142.74    4.73
  -3   2  -5  131.62    6.39
   2   1  -5  141.00    7.87
   3  -2   5  132.39    6.34
   3  -2   5  137.55    4.80
   3  -2   5  141.91    5.38
  -1   3   5  143.66    7.66
  -2  -1   5  130.82    7.25
   5  -2  -5   13.65    4.41
  -3   5  -5   16.79    3.60
   5  -2  -5   18.73    4.25
   3  -5   5   12.66    3.42
  -5   2   5   10.56    4.04
   2   3   5   16.70    3.41
   2   3   5    8.96    2.87
   3  -5   5   19.68    2.90
   2   3   5   15.19    3.47
   2   3   5   13.37    2.67
  -2   6  -5   97.89    7.07
   6  -4  -5   83.66    8.82
   4   2   5   87.32    5.78
  -6   4   5  101.57   11.11
   2  -6   5   93.16    6.13
   4   2   5   93.80    6.62
   4   2   5  103.22    6.88
  -4   1  -5   33.96    4.86
   1   3  -5   36.15    2.40
   1   3  -5   37.64    5.10
   3  -4  -5   36.53    6.55
   1   3  -5   32.77    4.96
   4  -1   5   39.73    4.24
   4  -1   5   41.46    5.34
  -3   4   5   36.86    4.46
  -3   4   5   40.28    4.47
   4  -1   5   41.01    4.12
   4   0  -5   -1.60    2.37
   4   0  -5    1.33    1.30
   4   0  -5    3.62    1.89
  -4   4  -5   -0.35    1.28
  -4   4  -5   -3.26    2.17
   4  -4   5   -0.08    1.82
   4  -4   5    2.60    2.62
  -4   0   5    4.43    2.90
   0   4   5    2.32    2.35
   7  -3  -5   84.91    7.95
   7  -3  -5   82.72    8.87
  -4   7  -5   98.56    7.63
   3   4   5   97.66    8.80
   3   4   5   79.91    5.50
   4  -7   5   91.91    8.66
   3   4   5   87.01    7.06
  -7   3   5  112.45   13.54
   8  -5  -5    1.29    4.40
  -3   8  -5    8.90    4.38
   8  -5  -5   -2.29    2.93
   5   3   5    1.76    3.19
   5   3   5    0.33    2.35
  -8   5   5    5.27    4.59
   5  -5  -5   -2.64    4.55
   0   5  -5   -0.17    3.33
   5   0   5   -3.71    1.83
   5   0   5    1.54    2.58
   5   0   5    1.70    2.08
  -5   5   5    3.78    3.58
   2  -5  -5   10.03    5.69
   3   2  -5   13.17    4.11
   3   2  -5   14.23    2.62
  -5   3  -5   25.76    5.73
   5  -3   5   14.82    4.01
   5  -3   5    8.43    2.86
  -2   5   5   17.60    4.73
   5  -3   5    9.40    3.27
  -5   6  -5   55.48    6.98
   6  -1  -5   96.47   11.44
   6  -1  -5   85.05    8.25
   6  -1  -5   70.00    5.09
   1   5   5   71.29    7.48
   5  -6   5   64.75    7.54
   5  -6   5   62.43    5.92
   9  -4  -5   60.02    8.83
  -5   9  -5   50.14    7.18
   9  -4  -5   51.79    7.35
   5  -9   5   35.57    7.33
   4   5   5   50.05    7.14
   4   5   5   53.44    5.89
  10  -6  -5   65.48   10.55
  10  -6  -5   31.49    6.63
   6   4   5   29.82    5.77
   6   4   5   58.04    7.57
   7  -6  -5  100.29   10.71
   6   1   5   77.90    8.54
   6   1   5  101.98    6.52
   6   1   5   99.38    7.56
  -7   6   5   95.16   10.64
   2   4  -5   93.71    8.09
   2   4  -5   95.49    5.25
   4  -6  -5  111.94   12.15
  -4   6   5   85.42    6.08
   6  -2   5   98.75    6.53
   6  -2   5  102.74    9.90
   6  -2   5   91.93    6.69
  -6   5  -5   56.98    7.72
   5   1  -5   65.08    7.94
   5   1  -5   79.21    5.92
   1  -6  -5   63.23   10.06
  -1   6   5   67.75    7.86
   6  -5   5   51.26    5.95
   6  -5   5   60.68    6.99
  -6   8  -5    3.74    4.46
   8  -2  -5    1.63    2.87
   2   6   5    0.04    2.88
   6  -8   5    1.32    4.35
   9  -7  -5  134.67   14.62
   9  -7  -5  123.85   13.29
   7   2   5  121.10    9.44
  -9   7   5  115.61   14.81
   7   2   5  121.36    9.92
   6  -7  -5   89.21   11.23
   1   6  -5   79.79    6.31
  -6   7   5   83.79    8.92
   7  -1   5   93.29    6.74
   7  -1   5  101.26   10.20
   7  -1   5   93.90    7.36
   4   3  -5   89.95    5.67
  -7   4  -5   62.44    9.66
   3  -7  -5   93.10   12.18
   4   3  -5   77.82    8.19
   7  -4   5   89.17    8.12
   7  -4   5   83.20    7.70
  -3   7   5   79.14    9.48
   0  -7  -5   12.11    5.79
  -7   7  -5    3.72    4.68
   7   0  -5    2.18    2.56
   7   0  -5    4.20    4.97
   7  -7   5    3.36    4.25
   0   7   5    3.04    3.39
  -7  10  -5    1.53    5.19
  10  -3  -5    6.81    4.14
   7 -10   5    9.98    6.27
   8  -8  -5   -2.11    6.26
   8   0   5   -0.17    2.49
   8   0   5    1.67    4.30
  -8   8   5    4.88    4.89
   5  -8  -5    1.42    7.10
   3   5  -5    4.33    3.49
   8  -3   5    2.23    2.86
   8  -3   5    4.62    3.38
  -5   8   5    2.74    3.41
  -8   6  -5   -2.26    5.56
   6   2  -5    1.76    4.02
   2  -8  -5   -8.79    5.61
   6   2  -5    3.10    2.60
  -2   8   5    0.79    3.89
   8  -6   5    4.37    3.89
   8  -6   5    1.49    3.74
  -8   9  -5   22.51    6.41
   9  -1  -5   42.16    7.52
   8  -9   5   19.89    7.06
   2   7  -5  151.15    7.92
   7  -9  -5  132.23   16.15
   9  -2   5  125.78    9.10
   9  -2   5  134.29   10.14
   5   4  -5   47.52    7.32
   9  -5   5   58.69    8.06
   9  -5   5   61.50    7.79
   8   1  -5   28.44    5.62
  -9   8  -5   17.53    7.38
   8   1  -5   12.27    6.11
   9  -8   5   20.53    6.51
   4   6  -5   48.56    6.68
  10  -4   5   48.13    7.44
  10  -4   5   49.06    8.10
   7   3  -5   13.23    5.81
  10  -7   5   20.75    6.30
  10  -7   5   13.97    5.83
   0   0  -6  147.73    6.31
   0   0  -6  167.73    6.32
   0   0   6  159.72    4.79
   0   0   6  171.90    5.90
   0   0   6  160.84    6.32
   2  -1  -6  414.14    7.96
  -1   2  -6  436.22   10.07
   2  -1  -6  410.22   10.54
   2  -1  -6  397.61   12.21
  -1   2  -6  438.45    8.45
   1  -2   6  432.15    6.92
  -2   1   6  406.17   12.19
   1   1   6  428.42    9.36
   1   1   6  424.75    8.11
   1  -2   6  415.63    9.93
   1   1   6  422.56    8.79
   1   1   6  433.66    8.35
   1   1  -6  389.81   12.16
  -2   1  -6  424.03    9.64
   1   1  -6  428.15    6.79
   1  -2  -6  423.50   13.10
   2  -1   6  443.43    9.84
   2  -1   6  435.76    8.24
  -1   2   6  418.80   11.78
  -1  -1   6  419.96    6.58
   2  -1   6  426.71    7.64
  -1   2   6  427.05    9.49
  -1  -1   6  426.60   12.76
  -1   2   6  412.34    9.83
  -2   4  -6  189.54    7.71
   4  -2  -6  178.36    9.55
  -2   4  -6  187.10    6.87
   4  -2  -6  180.80    8.61
   2   2   6  184.82    6.94
   2   2   6  177.49    6.98
   2   2   6  182.76    7.51
   2  -4   6  186.34    6.62
  -4   2   6  185.85   10.15
   2   2   6  182.93    6.22
   3  -3  -6  230.32   10.56
   0   3  -6  224.13    9.56
   0   3  -6  233.00    8.25
  -3   0  -6  242.65    8.35
   3   0   6  232.05    6.99
   3   0   6  230.65    7.43
  -3   3   6  227.70    9.45
   0  -3   6  235.14    4.42
   3   0   6  233.71    8.21
  -3   3   6  243.81    9.10
  -3   3  -6  250.46    8.79
   3   0  -6  231.47    7.72
  -3   3  -6  246.21    6.72
   3   0  -6  223.37   10.87
   0   3   6  255.29    9.49
   3  -3   6  249.36    7.57
   3  -3   6  244.99    5.84
   3  -3   6  244.53    8.72
  -3   0   6  235.07   10.49
  -3   6  -6   49.23    6.17
   6  -3  -6   67.12    7.86
   3   3   6   65.95    6.62
  -6   3   6   75.33    9.11
   3   3   6   67.54    5.16
   3  -6   6   63.11    6.58
   3   3   6   65.50    6.37
   5  -4  -6  228.94   11.32
  -1   5  -6  242.77   10.41
   4   1   6  235.70    9.15
   4   1   6  246.08    8.34
  -5   4   6  225.46   11.36
   1  -5   6  239.96    7.30
   4   1   6  219.79    9.04
   2   2  -6  182.13    5.21
   2  -4  -6  184.23   11.47
  -4   2  -6  174.29    8.32
   2   2  -6  159.69    9.05
  -2   4   6  181.00    6.42
   4  -2   6  179.34    8.32
  -2   4   6  186.03    9.89
  -2   4   6  180.99    6.67
   4  -2   6  173.28    6.85
   4  -2   6  181.04    6.62
   5  -1  -6  255.31   12.39
   5  -1  -6  240.13    9.83
   5  -1  -6  243.67    7.74
  -4   5  -6  253.04   10.40
   4  -5   6  243.73    7.27
   1   4   6  249.31   10.36
   4  -5   6  231.31    9.46
  -5   1   6  245.18   12.44
  -4   8  -6   44.78    6.68
   8  -4  -6   38.07    6.98
   8  -4  -6   46.20    6.78
   4  -8   6   54.91    7.46
   4   4   6   57.81    6.48
   4   4   6   40.43    5.99
   7  -5  -6   50.89    8.18
  -2   7  -6   53.10    6.92
   5   2   6   51.96    6.04
   5   2   6   72.29    7.72
   5   2   6   61.74    6.23
  -7   5   6   49.76    7.99
   4  -5  -6  227.62   13.01
   1   4  -6  215.87   10.23
  -4   5   6  226.27    9.39
   5  -1   6  232.68    8.80
   5  -1   6  225.94   10.20
   5  -1   6  228.54    8.57
   4   1  -6  240.93   11.61
   1  -5  -6  244.51   13.92
  -5   4  -6  244.26   11.20
   4   1  -6  238.30    8.30
   5  -4   6  249.26    9.77
   5  -4   6  247.45    8.36
  -1   5   6  246.68   11.80
   7  -2  -6   81.35    7.60
  -5   7  -6   67.60    7.98
   7  -2  -6   59.53    7.50
   5  -7   6   60.64    7.70
   2   5   6   49.74    6.30
  -5  10  -6   23.53    5.92
  10  -5  -6   18.43    5.77
  10  -5  -6   11.12    5.74
   5   5   6   21.55    5.50
   5   5   6   35.64    5.55
   9  -6  -6   -0.21    4.75
   9  -6  -6    0.90    4.26
   6   3   6    0.37    3.78
  -9   6   6    0.46    4.80
   6   3   6    3.08    3.23
   0   6  -6   -2.97    3.27
   6  -6  -6   -0.18    5.11
   6   0   6    1.76    2.69
   6   0   6    3.19    2.43
   6   0   6   -3.51    2.87
  -6   6   6    0.19    3.72
   3   3  -6   67.10    4.42
  -6   3  -6   38.15    6.06
   3   3  -6   72.17    8.02
   3  -6  -6   67.57   10.31
   6  -3   6   83.17    7.48
   6  -3   6   71.28    6.60
  -3   6   6   68.10    8.72
   6   0  -6    6.89    5.15
  -6   6  -6    7.03    4.79
   6   0  -6    1.85    2.54
   0  -6  -6    3.03    5.57
   6  -6   6    4.30    4.06
   0   6   6    2.70    3.44
   6  -6   6    2.80    3.40
   9  -3  -6    1.64    3.00
  -6   9  -6    7.05    4.89
   3   6   6   -1.28    3.16
   6  -9   6   -1.55    4.35
   8  -7  -6   16.91    7.41
   7   1   6   16.70    4.56
  -8   7   6   13.27    5.63
   7   1   6   13.07    5.38
   2   5  -6   59.88    6.79
   5  -7  -6   52.89   10.44
  -5   7   6   70.18    7.38
   7  -2   6   57.49    6.56
   7  -2   6   36.07    6.24
   7  -2   6   51.68    5.95
  -7   5  -6   72.36   10.46
   5   2  -6   67.50    6.56
   2  -7  -6   57.47    9.90
   5   2  -6   59.87    7.95
   7  -5   6   71.67    6.93
   7  -5   6   59.79    7.29
  -2   7   6   78.27    9.23
  -7   8  -6   32.47    7.21
   8  -1  -6   34.42    6.08
   1   7   6   22.62    6.20
   7  -8   6   27.19    6.84
  10  -8  -6   -7.57    5.03
  10  -8  -6    1.05    6.79
   8   2   6    4.57    5.27
 -10   8   6   -3.80    4.89
   8   2   6   -0.69    3.50
   7  -8  -6    4.42    7.12
   1   7  -6   20.96    4.43
   8  -1   6   16.46    4.84
   8  -1   6   36.08    7.78
  -7   8   6   12.17    5.39
   8  -1   6   17.10    4.45
   4  -8  -6   51.04   10.57
   4   4  -6   42.84    6.47
   8  -4   6   56.93    6.92
   8  -4   6   51.50    6.87
   7   1  -6   45.60    6.89
   1  -8  -6   35.67    8.80
   7   1  -6   37.10    8.19
  -8   7  -6   26.14    7.66
   8  -7   6   31.81    6.89
  -1   8   6   33.24    7.40
  10  -2  -6   10.77    4.97
   8 -10   6    4.58    6.30
   9  -9  -6   19.84    8.64
   9  -9  -6   37.24   11.29
   9   0   6   16.67    6.64
   9   0   6   13.58    5.23
  -9   9   6    7.11    5.99
   6  -9  -6    1.25    7.80
   3   6  -6   -1.14    3.38
   9  -3   6   -1.36    3.43
  -6   9   6    1.72    3.73
   9  -3   6    1.22    3.11
   6   3  -6    0.65    4.49
   9  -6   6   -0.46    3.83
   9  -6   6    7.22    4.45
   9   0  -6    1.04    3.53
  -9   9  -6    1.69    5.42
   9  -9   6    0.41    5.22
  10  -2   6   -6.73    3.29
   5   5  -6   13.60    5.44
  10  -5   6   26.69    5.90
  10  -5   6   23.92    6.53
 -10   8  -6    5.79    7.57
   8   2  -6    9.73    6.01
  10  -8   6   -1.44    5.18
   0   1  -7    2.49    1.83
   1  -1  -7    1.31    2.42
  -1   0  -7   -1.05    1.57
   1  -1  -7   -1.20    2.65
   0   1  -7    0.01    1.76
   0   1  -7   -1.99    2.08
   0  -1   7   -0.21    1.47
   0  -1   7    0.27    2.09
  -1   1   7   -0.88    2.44
   0  -1   7    1.33    1.15
   1   0   7    0.45    1.50
  -1   1   7    0.71    2.36
   1   0   7   -1.53    1.46
   1   0   7   -0.36    1.39
   3  -2  -7   87.48    6.78
   3  -2  -7   89.73    7.49
  -1   3  -7   91.16    5.78
   3  -2  -7   91.20    4.32
   2   1   7   94.20    4.86
   2   1   7   97.90    5.26
  -3   2   7   84.43    7.19
   2   1   7   91.30    5.32
   2   1   7   87.95    4.80
   1  -3   7   89.77    3.88
   2   0  -7    0.89    2.63
   2   0  -7   -1.48    1.56
  -2   2  -7   -0.83    1.78
  -2   0   7    2.62    2.96
   0   2   7    1.73    2.02
   0   2   7    0.16    1.56
   2  -2   7    1.04    1.47
   0   2   7   -1.12    1.51
   2  -2   7   -1.16    1.77
   2  -2   7    2.01    1.10
   0   2   7   -0.41    1.96
  -2   5  -7   21.92    4.39
   5  -3  -7   25.95    5.45
   3   2   7   18.28    3.49
   3   2   7   26.45    4.01
   2  -5   7   19.41    3.74
  -5   3   7   29.44    6.37
   3   2   7   26.99    4.19
   2  -3  -7   99.26    9.68
  -3   1  -7   93.59    5.79
   1   2  -7   95.79    8.79
   1   2  -7   95.67    3.02
  -2   3   7   89.44    7.28
  -1  -2   7   89.98    7.36
  -2   3   7   95.36    6.18
   3  -1   7   94.04    4.91
   3  -1   7   96.44    4.68
   3  -1   7   91.43    5.69
  -2   3   7   79.44    5.95
   4  -1  -7    4.64    2.83
  -3   4  -7    4.03    1.90
   4  -1  -7    3.33    3.89
  -3   4  -7    2.70    2.87
   1   3   7    7.64    2.29
   3  -4   7    3.38    1.45
   3  -4   7    2.82    2.30
   1   3   7    2.45    2.58
   1   3   7    2.10    2.24
   1   3   7    1.95    1.72
  -4   1   7    6.59    3.97
  -3   7  -7   21.57    4.97
   7  -4  -7   26.11    6.18
   3  -7   7   23.19    4.92
  -7   4   7   29.98    7.03
   4   3   7   18.27    4.30
   4   3   7   11.46    3.56
   4   3   7   23.77    4.50
   0   4  -7    1.00    3.50
   4  -4  -7   -0.93    1.43
   4  -4  -7   -0.18    3.94
   0  -4   7   -2.46    1.19
   4   0   7    1.65    2.36
   4   0   7    0.19    1.88
   4   0   7   -1.93    1.88
  -4   4   7   -0.78    2.72
  -4   3  -7    4.34    2.75
   3   1  -7    7.05    3.82
   3   1  -7    3.91    1.99
   1  -4  -7    1.04    4.42
  -1   4   7    4.61    3.34
  -3  -1   7    5.40    3.43
   4  -3   7    1.39    1.85
   4  -3   7    1.30    2.30
   4  -3   7    4.73    2.67
   6  -2  -7   37.43    5.10
  -4   6  -7   34.87    5.74
   6  -2  -7   37.36    6.27
   2   4   7   35.83    3.91
   2   4   7   41.19    6.51
   2   4   7   27.20    4.95
  -6   2   7   38.02    7.08
   4  -6   7   34.70    5.70
  -4   9  -7   36.02    6.96
   9  -5  -7   32.86    7.55
   9  -5  -7   24.35    6.13
   5   4   7   30.67    5.23
   5   4   7   32.62    6.04
  -1   6  -7   58.40    7.73
   6  -5  -7   58.75    9.00
  -6   5   7   45.84    7.89
   5   1   7   58.14    7.25
   5   1   7   58.41    5.78
   5   1   7   60.43    6.50
  -5   2  -7   28.45    5.50
   2   3  -7   27.35    2.75
   3  -5  -7   21.62    7.21
   2   3  -7   26.58    5.57
   5  -2   7   23.99    5.34
   5  -2   7   20.96    3.71
  -3   5   7   20.27    3.99
  -3   5   7   21.63    5.87
  -3   5   7   22.26    3.70
   5  -2   7   23.59    4.00
   5   0  -7    5.90    4.42
   5   0  -7   -0.62    2.21
  -5   5  -7   -0.95    3.26
   5  -5   7   -2.90    3.12
   5  -5   7    2.86    2.48
   0   5   7    5.17    3.47
  -5   8  -7   14.43    5.25
   8  -3  -7   24.32    6.01
   3   5   7   12.87    3.04
   3   5   7   19.34    5.11
   5  -8   7   13.80    5.00
  -2   8  -7   23.42    5.84
   8  -6  -7   38.38    8.02
  -8   6   7   25.81    6.67
   6   2   7   16.17    4.98
   6   2   7   14.35    4.05
   5  -6  -7   57.80    9.98
   1   5  -7   52.60    7.01
   6  -1   7   51.97    5.85
   6  -1   7   55.12    6.13
   6  -1   7   67.20    8.63
  -5   6   7   77.83    8.58
   4   2  -7   35.51    4.34
   2  -6  -7   38.62    8.62
  -6   4  -7   29.23    6.33
   4   2  -7   39.43    6.90
   6  -4   7   31.75    4.89
   6  -4   7   29.48    4.88
  -2   6   7   35.18    6.86
  -6   7  -7    6.37    4.21
   7  -1  -7   10.93    3.57
   6  -7   7    4.76    4.41
   1   6   7    8.11    4.10
  -6  10  -7    0.64    5.17
  10  -4  -7    3.12    4.46
   4   6   7    6.16    4.32
  10  -7  -7    0.05    4.39
  10  -7  -7    1.03    6.30
   7   3   7   -5.16    3.07
 -10   7   7   -0.22    5.64
   7   3   7    0.24    4.30
   0   7  -7    1.07    3.50
   7  -7  -7    1.38    6.30
  -7   7   7   -3.89    3.00
   7   0   7    0.89    3.75
   7   0   7   -2.27    2.68
   7   0   7    0.60    2.39
   3   4  -7   17.78    5.05
   4  -7  -7   22.53    8.42
   7  -3   7   23.42    4.68
   7  -3   7   22.00    4.61
   6   1  -7   10.48    3.33
  -7   6  -7   10.91    5.49
   1  -7  -7   12.04    7.12
   6   1  -7   11.06    5.16
   7  -6   7    7.59    3.73
  -1   7   7    6.94    4.51
   7  -6   7   15.69    4.81
  -7   9  -7   38.27    7.71
   9  -2  -7   53.50    8.44
   2   7   7   41.49    7.78
   7  -9   7   30.09    7.39
   9  -8  -7   55.77   10.37
   9  -8  -7   51.21   11.01
  -9   8   7   46.37    9.21
   8   1   7   47.64    7.54
   8   1   7   44.79    8.08
   2   6  -7   21.75    4.70
   6  -8  -7   14.48    8.57
  -6   8   7   24.72    5.23
   8  -2   7   17.27    4.55
   8  -2   7   11.64    3.92
   3  -8  -7    5.48    6.93
   5   3  -7   15.10    5.11
   8  -5   7   20.92    5.08
  -3   8   7   18.68    6.12
   8  -5   7   17.10    5.09
  -8   8  -7    5.71    4.95
   0  -8  -7    4.15    6.68
   8   0  -7    1.06    2.81
   8  -8   7    4.44    5.01
   0   8   7    7.14    5.04
   8  -9  -7   36.31   11.12
  -8   9   7   31.35    6.90
   9  -1   7   62.01    8.87
   4   5  -7   27.44    5.96
   5  -9  -7   19.45    9.39
   9  -4   7   30.00    6.49
   9  -4   7   37.98    6.54
   7   2  -7   26.65    6.72
  -9   7  -7   36.01    9.81
   9  -7   7   31.22    6.93
   3   7  -7    1.28    4.04
  10  -3   7    1.87    3.81
  10  -3   7    5.76    4.49
  -7  10   7   -0.46    4.22
   6   4  -7    1.85    4.42
  10  -6   7    1.60    5.34
  10  -6   7    4.48    4.22
   1   0  -8   -0.93    1.76
  -1   1  -8    0.35    1.98
   1   0  -8   -0.40    2.62
   1   0  -8    2.35    2.34
   0   1   8   -1.35    1.71
   0   1   8   -0.52    1.85
   1  -1   8    0.02    1.28
  -1   0   8    2.73    2.21
  -1   0   8   -0.88    1.78
  -1   0   8   -3.55    2.62
   0   1   8    1.89    2.02
   1  -1   8   -0.17    1.96
   1  -1   8    0.60    1.35
   2  -2  -8    0.47    2.94
   0   2  -8    1.13    2.64
  -2   0  -8    3.64    2.22
   0   2  -8    1.76    1.77
   2   0   8   -0.91    1.67
  -2   2   8    2.55    2.99
   0  -2   8    3.18    2.64
  -2   2   8    0.30    2.71
   2   0   8    1.50    1.61
   0  -2   8    1.03    1.10
   2   0   8    2.55    1.66
  -2   3  -8    7.94    2.32
   3  -1  -8    4.57    3.83
   3  -1  -8    0.78    2.48
  -2   3  -8    3.85    2.46
   1   2   8    5.08    2.07
  -3   1   8    7.37    3.85
   2  -3   8    7.69    2.81
   1   2   8    6.49    2.40
   2  -3   8    8.06    2.20
   1   2   8    4.28    2.11
   1   2   8    5.15    2.50
   2  -3   8    6.24    1.23
   4  -3  -8   31.80    3.36
  -1   4  -8   36.96    5.41
   4  -3  -8   32.17    6.16
   3   1   8   32.53    4.46
   3   1   8   35.44    4.53
  -4   3   8   30.76    6.31
   3   1   8   34.74    4.33
   1  -4   8   36.87    3.34
   2   1  -8    6.23    2.04
  -3   2  -8    2.72    2.51
   2   1  -8    9.10    3.69
   1  -3  -8   11.23    4.79
   3  -2   8    4.21    2.74
  -2  -1   8   -0.71    2.79
  -1   3   8    6.40    3.11
   3  -2   8    6.18    1.82
   3  -2   8    6.67    2.26
  -1   3   8    4.04    2.69
  -1   3   8    3.51    2.43
   5  -2  -8    7.64    4.16
  -3   5  -8    8.39    3.63
   5  -2  -8    9.97    4.99
   2   3   8    7.26    2.34
   2   3   8    1.25    2.93
   3  -5   8    7.06    3.15
  -5   2   8   12.51    4.74
   2   3   8    7.66    2.86
   6  -4  -8    4.44    4.43
  -2   6  -8    1.43    3.79
   4   2   8    0.41    2.85
   4   2   8   -0.18    2.56
   2  -6   8   -1.80    2.97
  -6   4   8    4.01    4.10
   4   2   8   -1.45    2.29
   1   3  -8   31.63    1.99
   1   3  -8   28.65    6.14
  -4   1  -8   37.24    5.35
   3  -4  -8   34.51    6.84
   4  -1   8   31.26    4.20
   4  -1   8   33.60    5.07
  -3   4   8   28.01    4.74
  -3   4   8   40.64    5.53
  -3   4   8   35.09    6.23
   4  -1   8   29.17    3.79
   4   0  -8   48.53    5.33
   4   0  -8   49.91    8.48
  -4   4  -8   44.52    4.66
  -4   4  -8   39.88    5.48
  -4   0   8   40.39    7.39
   0   4   8   35.69    5.73
   4  -4   8   42.66    3.89
   4  -4   8   45.31    5.09
   7  -3  -8   85.89    9.57
  -4   7  -8   70.68    8.10
   7  -3  -8   84.42    7.99
  -7   3   8   97.28   12.46
   3   4   8   83.77    8.38
   3   4   8   84.48    8.73
   3   4   8   77.13    5.52
   4  -7   8   88.82    8.36
   8  -5  -8    3.88    4.78
  -3   8  -8    7.45    5.10
   5   3   8   -0.68    2.69
  -8   5   8    5.39    5.30
   5   3   8    6.52    3.75
   5  -5  -8   63.94    9.26
   0   5  -8   77.93    9.13
   5   0   8   71.81    6.44
  -5   5   8   52.72    7.41
   5   0   8   57.61    6.81
   5   0   8   61.65    6.33
   2  -5  -8   -2.08    5.47
   3   2  -8    7.64    4.75
   3   2  -8    7.80    2.12
  -5   3  -8   -2.07    3.04
   5  -3   8    4.16    3.02
  -2   5   8    9.23    4.34
   5  -3   8    4.81    2.82
   5  -3   8    6.17    2.72
   6  -1  -8   31.81    5.39
  -5   6  -8   27.67    6.31
   6  -1  -8   29.80    7.06
   5  -6   8   38.95    6.26
   1   5   8   24.72    5.49
  -5   9  -8    6.04    5.00
   9  -4  -8   10.71    4.91
   4   5   8   10.65    3.73
   4   5   8    3.47    3.58
  10  -6  -8   19.86    7.38
  10  -6  -8   14.78    6.16
  -4  10  -8   21.07    6.52
   6   4   8    5.26    4.24
   6   4   8   21.98    5.30
  -1   7  -8   18.80    6.00
   7  -6  -8   12.67    6.62
  -7   6   8   10.27    5.01
   6   1   8   13.11    3.53
   6   1   8   18.61    5.20
   6   1   8   12.31    4.05
   2   4  -8   -3.30    4.02
   4  -6  -8   -1.35    5.63
  -4   6   8   -1.99    2.32
   6  -2   8    4.33    3.26
   6  -2   8    5.28    3.57
   6  -2   8   -0.74    2.63
   5   1  -8   31.09    4.70
   1  -6  -8   21.15    7.67
   5   1  -8   31.68    7.75
  -6   5  -8   38.34    7.90
   6  -5   8   26.86    5.35
  -1   6   8   37.75    7.02
   6  -5   8   25.69    4.57
  -6   8  -8    3.23    4.81
   8  -2  -8    2.34    3.42
   6  -8   8    1.51    4.63
   2   6   8    4.83    3.88
   9  -7  -8   -1.36    4.58
   9  -7  -8   -0.55    5.99
   7   2   8    1.10    3.17
   7   2   8   -0.24    4.16
  -9   7   8   -0.91    4.33
   6  -7  -8   11.95    7.32
   1   6  -8    5.63    4.04
  -6   7   8    6.28    3.88
   7  -1   8   13.74    4.14
   7  -1   8   12.51    4.91
   7  -1   8   10.83    3.85
   4   3  -8   75.70    9.09
   3  -7  -8   76.79   11.92
  -3   7   8  105.37   11.94
   7  -4   8   76.23    7.33
   7  -4   8   97.07    8.88
   7   0  -8   68.46    7.79
   0  -7  -8   75.11   11.66
  -7   7  -8   59.63    9.56
   7   0  -8   65.54   10.83
   0   7   8   60.06    8.58
   7  -7   8   69.88    8.88
  -7  10  -8   37.46    8.49
  10  -3  -8   47.38    8.55
   3   7   8   41.41    8.05
   7 -10   8   43.91    8.51
   0   8  -8    4.99    4.10
   8  -8  -8    1.34    7.06
   8   0   8   12.08    5.80
  -8   8   8    3.24    4.85
   8   0   8    7.16    4.13
   5  -8  -8   -5.84    6.33
   3   5  -8    1.67    3.79
   8  -3   8    3.21    3.29
   8  -3   8   -0.37    3.43
  -8   6  -8   -4.26    5.87
   6   2  -8    6.14    5.01
   6   2  -8    3.16    2.69
   2  -8  -8   -1.35    7.16
   8  -6   8    9.50    4.60
  -2   8   8    3.20    4.31
   8  -6   8    8.18    4.47
  -1  -8  -8   23.65    9.08
   9  -1  -8    5.59    3.91
  -8   9  -8   -6.33    4.60
   1   8   8    2.79    4.80
   8  -9   8    6.77    5.68
   2   7  -8   -0.08    3.31
   7  -9  -8   -5.02    7.74
   9  -2   8   -1.00    2.83
  -7   9   8    0.40    3.91
   9  -2   8    0.52    3.24
   4  -9  -8    9.24    8.37
   5   4  -8    5.19    4.34
   9  -5   8   11.71    5.14
   9  -5   8   20.88    5.23
  -4   9   8    6.78    6.25
  -9   8  -8    3.73    5.87
   8   1  -8   12.77    4.55
   8   1  -8   11.28    7.17
   9  -8   8    3.50    5.08
   6 -10  -8   -4.91    9.66
   4   6  -8    8.42    5.19
  10  -4   8   16.19    5.38
  10  -4   8   25.59    6.73
   7   3  -8   15.86    6.48
  10  -7   8   30.72    7.12
   0   0  -9    0.46    2.30
   0   0  -9   -3.44    2.02
   0   0   9    0.94    2.13
   0   0   9    5.16    1.95
   0   0   9    2.87    2.23
  -1   2  -9  424.72   10.43
   2  -1  -9  428.60   12.67
   2  -1  -9  415.79   14.18
   2  -1  -9  443.74   10.46
  -1   2  -9  448.10   12.12
  -1   2  -9  449.05    8.27
   1   1   9  447.50   11.24
   1  -2   9  434.87    7.58
   1   1   9  436.99   10.47
   1  -2   9  436.62   12.36
   1   1   9  453.37   10.63
   1  -2   9  445.72    8.24
  -2   1   9  459.19   14.31
   1   1  -9  434.32   14.27
   1   1  -9  452.03   10.75
   1  -2  -9  466.29   15.34
  -2   1  -9  449.95   11.57
   1   1  -9  452.20    8.89
  -1   2   9  457.36   11.76
  -1  -1   9  434.80    8.69
   2  -1   9  457.70    9.61
   2  -1   9  452.92    9.40
  -1  -1   9  461.12   14.97
  -1   2   9  437.08   11.89
   2  -1   9  432.98   11.38
  -1   2   9  447.12   13.64
  -2   4  -9  107.28    7.28
   4  -2  -9  113.22   11.27
   4  -2  -9   93.60    7.46
   2  -4   9   94.87    5.05
  -4   2   9   94.18    9.79
   2   2   9   96.72    6.60
   2   2   9   93.92    5.34
   2   2   9  107.29    6.41
   0   3  -9    0.78    3.03
   3  -3  -9    0.83    3.58
  -3   0  -9   -0.51    2.02
   0  -3   9    0.25    1.25
   3   0   9   -0.80    1.63
  -3   3   9    1.39    3.06
   3   0   9   -1.28    1.81
   3   0   9   -2.11    1.64
   3   0  -9   -1.51    1.97
   3   0  -9   -1.89    3.02
  -3   3  -9    1.91    2.55
   3  -3   9   -0.73    2.39
   3  -3   9    2.04    1.53
   0   3   9    1.14    3.01
   0   3   9    5.92    3.29
   0   3   9    1.03    1.89
   3  -3   9   -1.08    1.91
   0   3   9   -0.09    1.85
  -3   0   9   -0.39    3.09
   6  -3  -9    5.42    4.61
  -3   6  -9   -0.50    3.44
   3   3   9    6.80    2.98
   3   3   9    4.79    3.10
  -6   3   9    4.65    4.39
   3   3   9    5.28    3.22
   3  -6   9    8.44    3.81
  -1   5  -9  114.77    9.53
   5  -4  -9  134.19   10.75
  -5   4   9  140.45   10.69
   4   1   9  149.66    7.69
   4   1   9  144.84    7.98
   4   1   9  142.81    8.10
   2  -4  -9  105.07   11.51
   2   2  -9  122.29   11.66
  -4   2  -9  107.25    7.23
   2   2  -9  100.97    4.37
  -2   4   9  110.53    6.66
   4  -2   9  105.40    5.57
  -2   4   9  111.02    6.39
  -2   4   9  100.35    8.49
   4  -2   9   89.30    5.85
   4  -2   9  100.08    7.10
   5  -1  -9  140.80   11.62
  -4   5  -9  127.30    8.91
   5  -1  -9  115.42    8.08
  -4   5  -9  127.87    6.36
   4  -5   9  116.49    7.39
   1   4   9  133.85    5.98
   1   4   9  128.50    5.64
  -5   1   9  134.21   14.10
   1   4   9  114.43    8.47
   8  -4  -9    8.79    4.03
  -4   8  -9    6.31    4.64
   8  -4  -9    2.56    4.23
   4   4   9    7.76    3.78
   4   4   9    4.12    2.98
  -2   7  -9   46.97    8.05
   7  -5  -9   64.56    9.45
  -7   5   9   56.95    9.60
   5   2   9   50.49    6.67
   5   2   9   40.84    5.83
   5   2   9   49.57    6.04
   1   4  -9  139.06   10.98
   4  -5  -9  110.27   11.54
   5  -1   9  127.51    7.24
  -4   5   9  124.99    8.33
   5  -1   9  125.34    8.42
   5  -1   9  137.37    7.61
   4   1  -9  116.88   11.82
   1  -5  -9  128.36   13.25
  -5   4  -9  118.16    8.93
   4   1  -9  111.98    6.42
   5  -4   9  117.58    6.27
  -1   5   9  124.24    9.45
   5  -4   9  114.48    7.43
  -5   7  -9   30.00    5.99
   7  -2  -9   37.43    6.29
   2   5   9   33.44    5.69
   5  -7   9   43.43    6.75
  -5  10  -9    0.43    5.22
  10  -5  -9    5.25    5.42
   5   5   9    5.85    3.78
   5   5   9    2.60    3.67
  -3   9  -9    1.68    4.80
   9  -6  -9    0.37    3.98
   9  -6  -9   -2.22    4.79
   6   3   9    8.00    4.37
   6   3   9   -2.92    2.84
  -9   6   9    0.92    4.55
   6  -6  -9   -0.93    5.62
   0   6  -9    1.18    4.53
   6   0   9   -2.28    1.99
   6   0   9    1.60    2.74
  -6   6   9   -0.91    3.43
   6   0   9   -0.30    3.17
   3  -6  -9    0.50    6.17
   3   3  -9   12.43    5.30
  -3   6   9    2.96    4.84
   6  -3   9    3.18    3.26
   6  -3   9    7.17    3.45
   6   0  -9    2.66    4.97
   6   0  -9   -1.61    1.90
  -6   6  -9    4.61    4.34
   0  -6  -9    4.43    6.40
   6  -6   9    0.18    3.63
   0   6   9   -0.91    3.22
  -6   9  -9    6.19    5.17
   9  -3  -9    0.14    3.85
   6  -9   9    2.05    4.44
   3   6   9    1.40    3.76
  -1   8  -9   28.10    5.96
   8  -7  -9   49.40   10.28
   7   1   9   27.93    5.56
   7   1   9   35.34    6.46
   7   1   9   40.60    7.20
  -8   7   9   37.09    7.99
   5  -7  -9   61.39   11.41
   2   5  -9   56.32    8.26
  -5   7   9   58.91    6.97
   7  -2   9   49.98    6.36
   7  -2   9   49.44    7.72
   7  -2   9   55.16    6.58
   2  -7  -9   36.77    9.53
   5   2  -9   29.39    7.01
   5   2  -9   35.74    4.84
  -7   5  -9   40.00    8.43
  -2   7   9   37.73    7.24
   7  -5   9   32.30    4.98
   7  -5   9   29.73    5.36
   8  -1  -9   10.07    4.33
  -7   8  -9   18.41    6.78
  -1  -7  -9   30.91    8.09
   1   7   9   10.75    5.32
   7  -8   9    8.31    5.05
   1   7  -9   50.47    7.53
   7  -8  -9   27.31    9.34
   8  -1   9   34.19    6.22
  -7   8   9   36.52    6.99
   8  -1   9   42.60    6.02
   8  -1   9   33.30    7.28
   4  -8  -9   19.86    8.89
   4   4  -9    6.59    4.64
   8  -4   9    7.14    3.72
  -4   8   9    1.58    4.88
   8  -4   9    3.35    3.71
   1  -8  -9   20.43    8.44
   7   1  -9   21.51    4.76
  -8   7  -9    8.66    5.94
   7   1  -9   10.61    6.11
  -1   8   9    7.87    5.42
   8  -7   9   12.12    5.29
   9  -9  -9   -4.07    8.92
   9   0   9    3.89    5.20
   9   0   9    1.78    4.10
   6  -9  -9    8.94    9.03
   3   6  -9    6.96    4.40
   9  -3   9    0.37    3.16
   9  -3   9   -3.55    3.33
   3  -9  -9   10.53    8.56
   6   3  -9    5.19    4.68
  -3   9   9    2.38    4.82
   9  -6   9    5.47    4.14
   9   0  -9    3.53    3.67
  -9   9  -9    0.40    6.29
   9  -9   9   -3.52    5.33
   5 -10  -9  -11.32    8.57
   5   5  -9    1.94    4.86
  10  -5   9    8.16    4.99
  10  -5   9    4.86    4.65
   1  -1 -10   35.85    5.49
  -1   0 -10   36.20    4.69
   1  -1 -10   32.56    5.76
   0   1 -10   28.27    4.10
   0   1 -10   38.55    5.49
   0   1 -10   35.22    4.38
   0  -1  10   36.95    5.25
   1   0  10   37.76    4.17
   0  -1  10   26.16    3.52
  -1   1  10   33.09    5.36
   0  -1  10   32.99    3.27
  -1   1  10   35.70    4.96
   1   0  10   37.26    3.86
   1   0  10   38.38    4.68
  -1   1  10   30.53    4.77
  -1   3 -10   59.09    6.71
  -1   3 -10   42.86    4.60
   3  -2 -10   65.21    7.89
   3  -2 -10   46.33    6.74
   3  -2 -10   53.02    5.17
   2   1  10   54.96    5.65
  -3   2  10   60.74    7.97
   1  -3  10   54.27    6.35
   2   1  10   49.00    5.22
   1  -3  10   55.20    3.57
   2   1  10   56.18    5.36
   2   0 -10    2.51    2.40
   2   0 -10    2.81    3.73
   2   0 -10   -2.18    1.91
  -2   2 -10   -2.62    1.84
   0  -2 -10    0.26    3.34
   0   2  10   -1.14    2.11
   2  -2  10    0.82    1.44
   0   2  10    0.37    2.15
   0   2  10   -2.20    2.05
   2  -2  10   -1.44    2.18
  -2   0  10   -0.60    3.03
   2  -2  10   -0.16    1.63
   0   2  10    1.53    2.17
  -2   5 -10    8.79    4.12
   5  -3 -10    0.50    4.06
   2  -5  10   10.56    3.00
  -5   3  10    5.45    5.24
   3   2  10    3.74    2.96
   3   2  10    5.90    3.08
   3   2  10    3.02    2.76
   1   2 -10   51.46    7.64
   2  -3 -10   71.98    9.03
   1   2 -10   53.43    3.13
  -3   1 -10   51.14    5.84
  -2   3  10   56.05    6.42
   3  -1  10   59.35    4.63
  -2   3  10   53.38    7.08
  -1  -2  10   51.79    3.37
  -2   3  10   62.28    6.62
   3  -1  10   60.54    4.61
   3  -1  10   59.26    6.45
  -1  -2  10   57.85    7.98
  -3   4 -10  115.78    8.02
   4  -1 -10  124.79    7.97
  -3   4 -10  128.47    6.67
   4  -1 -10  157.19   14.56
   3  -4  10  117.95    6.22
   1   3  10  124.82    6.05
   1   3  10  131.25    8.25
  -4   1  10  134.88   10.81
   1   3  10  122.60    8.26
   7  -4 -10  122.13   12.04
  -3   7 -10  109.74    9.28
   4   3  10  124.08    8.85
   4   3  10  143.46    8.87
   4   3  10  118.39    7.49
  -7   4  10  126.80   12.89
   0   4 -10  105.03   10.58
   4  -4 -10   95.14    5.82
   4  -4 -10  102.92   11.02
   4   0  10   95.52    6.35
   4   0  10   90.72    6.46
   4   0  10   88.01    6.83
  -4   4  10  102.29   10.50
   1  -4 -10  137.54   12.70
   3   1 -10  153.87   14.11
   3   1 -10  121.31    6.05
  -4   3 -10  126.64    8.36
  -1   4  10  131.71    6.73
   4  -3  10  119.56    8.27
  -1   4  10  120.50    9.08
   4  -3  10  124.85    6.82
  -1   4  10  134.31    6.16
   4  -3  10  124.01    5.77
   6  -2 -10   87.89    9.46
  -4   6 -10   69.46    8.20
   2   4  10   79.06    8.37
   2   4  10   72.09    8.46
   4  -6  10   69.64    7.17
  -6   2  10  106.67   14.90
   2   4  10   73.01    5.33
  -4   9 -10   24.58    6.75
   9  -5 -10   20.23    6.07
   9  -5 -10   26.93    7.61
   5   4  10   28.41    5.28
   5   4  10   18.86    5.38
   6  -5 -10   -0.43    4.83
  -1   6 -10   -0.37    4.49
  -6   5  10    1.32    3.99
   5   1  10    4.78    2.94
   5   1  10    2.19    3.39
   5   1  10    3.35    3.13
   2   3 -10    6.87    5.08
   3  -5 -10   -2.91    5.14
   5  -2  10    6.21    3.14
   5  -2  10    4.22    3.05
   5  -2  10    7.70    3.22
  -3   5  10    3.57    3.41
  -3   5  10   10.33    5.09
  -5   5 -10  128.18    9.88
   5   0 -10  124.79    7.66
   5   0 -10  133.61   14.55
   0  -5 -10  158.92   15.30
  -5   5 -10  125.10    7.42
   0   5  10  121.80    9.73
   5  -5  10  127.91    8.21
   8  -3 -10   41.22    7.46
  -5   8 -10   23.99    6.52
   3   5  10   26.34    5.59
   3   5  10   34.11    4.50
   5  -8  10   23.73    5.75
  -2   8 -10    7.47    5.20
   8  -6 -10    5.25    6.15
   6   2  10    0.58    3.16
   6   2  10    3.88    3.60
  -8   6  10    0.00    4.51
   6   2  10    7.16    3.65
   5  -6 -10  -11.41    5.01
   1   5 -10    4.88    4.55
  -5   6  10    1.33    3.46
   6  -1  10    0.64    2.74
   6  -1  10    5.37    3.68
   6  -1  10    1.13    2.60
   4   2 -10   85.70   10.97
   4   2 -10   73.13    5.26
   2  -6 -10   71.44   11.75
  -6   4 -10   62.94    8.58
   6  -4  10   74.38    7.21
   6  -4  10   74.41    6.09
  -2   6  10   79.91    9.99
   7  -1 -10   86.84    9.41
  -6   7 -10   80.43   10.43
   6  -7  10   86.07    9.12
   1   6  10   84.94   10.03
  10  -4 -10   25.18    7.64
   4   6  10   14.66    5.50
  10  -7 -10   34.25   10.23
  10  -7 -10   29.24    7.96
   7   3  10   14.24    5.27
 -10   7  10   41.94   11.23
   7  -7 -10   70.26   11.74
   0   7 -10   65.63    9.18
   7   0  10   76.88    9.00
  -7   7  10   71.42    9.40
   7   0  10   57.46    6.91
   7   0  10   57.06    8.76
   3   4 -10  132.21   12.83
   4  -7 -10  140.25   15.19
  -4   7  10  122.19   12.65
   7  -3  10  129.56    8.80
   7  -3  10  139.15    8.62
  -4   7  10  117.04    6.33
   6   1 -10   84.34   12.01
  -7   6 -10   80.26   11.24
   6   1 -10   81.25    6.64
   1  -7 -10   74.97   12.57
  -1   7  10   94.47   11.17
   7  -6  10   75.93    8.41
  -7   9 -10   53.45    9.91
   9  -2 -10   90.11   10.71
   7  -9  10   82.56   10.04
   2   7  10   60.73    9.33
   9  -8 -10   -5.12    6.59
  -1   9 -10   11.91    5.33
   8   1  10    1.97    4.60
  -9   8  10    5.26    5.70
   8   1  10    6.02    4.36
   2   6 -10    3.66    4.39
   6  -8 -10   -0.27    7.65
  -6   8  10    1.39    3.00
   8  -2  10    1.64    3.58
   8  -2  10    3.53    3.44
   3  -8 -10   48.00   11.00
   5   3 -10   32.45    7.27
  -3   8  10   37.39    7.85
   8  -5  10   33.84    6.30
   8  -5  10   16.90    4.85
  -8   8 -10   46.04    9.80
   8   0 -10   52.63    7.65
   0  -8 -10   49.68   11.35
   8  -8  10   52.71    8.25
   0   8  10   53.46    8.85
   1   8 -10   15.65    5.34
   8  -9 -10    0.86    8.45
   9  -1  10    2.10    3.47
   9  -1  10    1.51    4.14
  -8   9  10   -0.76    4.25
   5  -9 -10   21.94    9.47
   4   5 -10   19.39    5.66
   9  -4  10   14.77    5.40
   9  -4  10   17.97    5.26
   2  -9 -10   79.56   14.03
   7   2 -10   54.40    9.97
  -2   9  10   53.78    9.20
   9  -7  10   62.36    8.89
   7 -10 -10   30.48   11.92
  10  -3  10   14.77    5.19
  10  -3  10   37.52    7.85
   6   4 -10   22.36    6.91
  10  -6  10   34.37    7.55
   0  -1 -11   -4.38    2.57
  -1   1 -11    0.21    2.26
   1   0 -11   -0.30    3.00
   0  -1 -11   -1.31    2.55
   1   0 -11   -1.49    2.31
   1   0 -11   -3.07    2.44
   0   1  11    0.98    2.19
   1  -1  11    1.12    1.99
  -1   0  11   -1.71    2.84
   0   1  11    4.31    2.81
   0   1  11   -2.00    2.18
  -1   0  11   -0.98    1.99
   1  -1  11    3.28    1.85
  -1   0  11   -0.34    2.45
   1  -1  11    0.36    2.37
   2  -2 -11    2.75    3.53
   0   2 -11    0.42    1.68
   0   2 -11    1.26    2.26
   2  -2 -11    2.22    3.32
  -2   0 -11   -0.05    2.10
   0   2 -11   -1.12    3.09
   0  -2  11    0.09    1.42
   2   0  11    0.06    1.92
  -2   2  11    2.65    3.07
   2   0  11    0.46    2.28
   0  -2  11   -2.46    2.53
  -2   2  11    0.04    3.31
   2   0  11   -0.01    2.01
   3  -1 -11   -3.32    2.74
   3  -1 -11    0.09    3.97
   3  -1 -11    2.04    2.43
  -2   3 -11   -1.92    2.73
  -2   3 -11    0.90    2.44
   2  -3  11   -2.20    1.74
   1   2  11   -2.86    1.88
   2  -3  11    0.49    1.52
   1   2  11    1.77    2.58
   2  -3  11    1.63    2.87
  -3   1  11    2.23    3.46
   1   2  11    1.99    2.47
  -1   4 -11   65.70    8.10
   4  -3 -11   76.58    9.75
   4  -3 -11   71.49    6.19
   3   1  11   71.45    6.63
   3   1  11   79.80    7.52
   3   1  11   65.98    6.60
   1  -4  11   67.58    4.33
  -4   3  11   80.93    9.81
   2   1 -11    1.51    2.17
   1  -3 -11    2.78    4.43
   2   1 -11   -3.66    3.14
  -3   2 -11   -0.75    2.21
  -1   3  11    3.24    2.77
  -2  -1  11    4.91    3.75
   3  -2  11    1.19    2.09
  -1   3  11    8.91    3.64
   3  -2  11   -0.30    1.80
   3  -2  11   -2.92    2.12
  -1   3  11    0.55    3.02
   5  -2 -11    9.23    4.49
  -3   5 -11    0.53    3.84
   2   3  11    1.38    2.65
  -5   2  11   -2.56    4.41
   2   3  11    4.05    2.95
   3  -5  11    5.69    2.95
   2   3  11    0.49    3.29
  -2   6 -11   80.68    9.29
   6  -4 -11   84.62   10.76
   4   2  11   65.14    6.92
   4   2  11   79.06    8.11
  -6   4  11   61.58    9.67
   4   2  11   63.61    7.38
   3  -4 -11   56.95    9.15
   1   3 -11   68.95    9.52
  -3   4  11   66.93    7.21
   4  -1  11   67.43    6.51
   4  -1  11   68.29    6.30
   4  -1  11   82.58    7.93
  -3   4  11   75.88    9.11
  -4   4 -11   -1.28    2.80
   4   0 -11    2.37    2.90
   4   0 -11   -5.75    3.94
   0  -4 -11   -5.10    4.65
  -4   4 -11    0.33    2.99
   0   4  11   -1.92    3.14
   4  -4  11   -1.76    2.09
   0   4  11    0.96    2.48
   7  -3 -11   20.68    6.06
  -4   7 -11    6.78    4.65
   3   4  11   16.30    5.15
   3   4  11    8.86    3.34
   3   4  11    9.15    3.97
   4  -7  11   11.99    3.94
  -3   8 -11    6.33    5.84
   8  -5 -11    2.71    5.28
   5   3  11   -0.13    2.85
  -8   5  11   -3.19    3.83
   5   3  11   -0.69    3.30
   5   3  11    5.82    3.53
   5  -5 -11    9.27    6.79
   0   5 -11   -0.73    5.13
   5   0  11   -5.22    2.25
   5   0  11   -0.64    2.70
   5   0  11   -0.67    3.33
  -5   5  11   -4.07    3.90
  -5   3 -11    6.79    3.85
   3   2 -11    2.07    5.05
   2  -5 -11    4.02    6.34
   5  -3  11    3.77    2.92
  -2   5  11    3.42    2.87
  -2   5  11    3.22    4.05
   5  -3  11   -0.51    3.02
  -5   6 -11   12.98    5.42
   6  -1 -11   15.77    4.55
   5  -6  11    6.59    3.82
   1   5  11   10.77    4.44
  -5   9 -11   33.04    8.19
   9  -4 -11   13.35    6.02
   4   5  11   18.23    5.37
   4   5  11   28.39    5.03
  10  -6 -11   43.98    9.82
   6   4  11   29.67    6.67
   7  -6 -11   53.17    9.67
  -1   7 -11  109.03   13.00
   6   1  11   88.73    9.16
  -7   6  11   82.15   10.53
   6   1  11   81.71    9.08
   6   1  11   76.59    7.74
   4  -6 -11   85.00   11.65
   2   4 -11   84.29   11.26
   6  -2  11   94.09    8.48
   6  -2  11   56.62    7.59
  -4   6  11   66.12    9.53
   6  -2  11   61.31    6.86
  -4   6  11   64.47    7.12
   1  -6 -11    5.15    6.28
   5   1 -11   14.70    7.24
  -6   5 -11   11.82    4.89
   5   1 -11   10.59    3.37
  -1   6  11   10.14    4.88
   6  -5  11    9.52    3.94
  -6   8 -11    0.21    4.78
   8  -2 -11    5.07    3.56
   2   6  11    0.18    3.48
   6  -8  11    3.90    4.12
  -2   9 -11   26.62    7.30
   9  -7 -11   30.45    9.01
  -9   7  11   20.68    7.56
   7   2  11   19.69    5.95
   7   2  11   17.83    5.43
   1   6 -11   90.52   11.46
   6  -7 -11   90.32   13.56
   7  -1  11  104.27    9.98
  -6   7  11   95.04    9.95
   7  -1  11   94.85   10.89
   7  -1  11   98.23    7.92
   3  -7 -11   17.43    8.33
   4   3 -11   16.39    6.63
   7  -4  11    7.19    3.90
   7  -4  11   11.06    4.20
  -3   7  11    7.91    5.05
  -7   7 -11   -0.36    4.89
   7   0 -11   -1.54    2.36
   0  -7 -11    6.48    7.28
   7  -7  11    1.99    4.19
   0   7  11    8.11    4.59
   0   8 -11    0.89    4.45
   8  -8 -11   -3.14    7.30
  -8   8  11   -2.61    3.93
   8   0  11   -3.84    3.45
   8   0  11    1.13    4.54
   8   0  11    2.97    3.60
   5  -8 -11   -6.83    6.39
   3   5 -11    3.90    4.85
   8  -3  11    2.18    3.42
   8  -3  11    0.67    3.07
  -5   8  11    5.45    3.16
   6   2 -11    6.85    5.18
   2  -8 -11  -12.76    6.39
   8  -6  11    3.87    3.94
  -2   8  11    2.64    4.53
  -8   9 -11    4.77    6.80
   9  -1 -11    4.46    4.09
  -1  -8 -11   12.86    8.44
   8  -9  11  -10.11    3.90
   1   8  11    0.88    4.83
   7  -9 -11   -5.06    8.44
   2   7 -11   25.01    6.80
  -7   9  11   21.79    5.23
   9  -2  11   16.85    4.99
   9  -2  11   14.94    5.31
   4  -9 -11   17.29    9.15
   5   4 -11   18.88    5.93
   9  -5  11   17.81    5.35
   9  -5  11   26.57    6.17
  -4   9  11   22.30    7.75
   1  -9 -11   -8.97    7.56
  -9   8 -11    4.72    6.88
   9  -8  11   -1.39    4.63
  -1   9  11   -0.51    5.02
   6 -10 -11   41.53   12.72
  10  -4  11   23.36    6.11
  10  -4  11   53.95    8.59
   0   0 -12  491.50   14.45
   0   0 -12  509.69   14.89
   0   0  12  529.37   14.36
   0   0  12  519.05   13.65
   0   0  12  521.09   11.75
   2  -1 -12   -2.68    2.25
  -1   2 -12    1.38    2.82
   2  -1 -12    3.55    3.58
  -1   2 -12    3.21    2.40
   2  -1 -12    0.55    3.52
  -1   2 -12   -0.34    2.72
   1  -2  12    4.28    3.24
   1   1  12    0.88    2.36
   1  -2  12    3.63    2.20
  -2   1  12    3.73    3.50
   1  -2  12   -0.75    1.75
   1   1  12    1.79    2.38
   1   1  12    0.57    2.44
   1   1 -12    0.86    2.41
   1   1 -12    1.00    2.59
  -2   1 -12    1.42    2.56
   1  -2 -12    4.36    3.87
   1   1 -12    2.67    3.77
  -1  -1  12    1.23    3.57
   2  -1  12   -0.77    1.88
   2  -1  12    1.66    2.10
  -1   2  12    3.50    3.22
  -1   2  12   -1.47    2.80
  -1  -1  12    2.43    2.16
   2  -1  12    1.94    2.38
   4  -2 -12    1.86    3.84
  -2   4 -12    3.47    3.12
  -2   4 -12    2.76    2.74
   2   2  12    1.40    2.63
   2   2  12    2.15    2.90
   2  -4  12    2.00    2.34
  -4   2  12    3.99    4.23
   2   2  12   -2.84    2.39
   3  -3 -12  139.22   12.72
   0   3 -12  136.19   10.39
   3   0  12  149.33    7.96
   3   0  12  143.36    7.56
   0  -3  12  140.97    5.28
  -3   3  12  171.57   10.57
  -3   3  12  145.27   10.86
   3   0  12  152.51    8.27
   3   0 -12  160.66   12.00
   3   0 -12  140.90    7.90
   0  -3 -12  154.24   11.61
  -3   3 -12  158.15    9.41
  -3   0  12  168.14   11.86
   3  -3  12  163.13   10.02
   3  -3  12  160.27    6.31
   0   3  12  167.13    9.78
   3  -3  12  168.57    7.46
   0   3  12  174.58   10.24
   0   3  12  154.52    7.65
   6  -3 -12   46.84    7.88
  -3   6 -12   47.30    7.13
  -6   3  12   46.00    9.19
   3   3  12   67.63    7.04
   3  -6  12   54.24    5.75
   3   3  12   50.69    7.05
   3   3  12   56.21    7.32
  -1   5 -12   16.50    6.13
   5  -4 -12   12.30    6.29
   4   1  12   15.96    3.94
  -5   4  12   12.73    5.84
   4   1  12   16.37    4.63
   4   1  12   13.75    4.18
  -4   2 -12    3.57    3.29
   2   2 -12   -4.37    4.18
   2  -4 -12    0.34    4.78
  -2   4  12    2.20    3.65
  -2   4  12    3.70    3.41
   4  -2  12   -0.27    2.59
   4  -2  12   -1.34    2.69
   4  -2  12    1.20    2.52
  -4   5 -12   16.28    5.49
  -4   5 -12   10.52    3.57
   5  -1 -12   16.22    4.73
   1   4  12    9.14    4.10
   1   4  12   17.69    3.83
   1   4  12   18.44    5.88
   4  -5  12   12.74    4.05
  -4   8 -12    3.58    4.75
   8  -4 -12   -6.12    3.83
   4   4  12   -0.45    2.91
   4   4  12   -1.04    3.00
   4   4  12   -0.37    3.60
   7  -5 -12    5.66    5.75
  -2   7 -12   11.16    5.74
  -7   5  12    3.86    4.52
   5   2  12    2.29    3.03
   5   2  12    6.80    4.02
   5   2  12    7.20    3.82
   4  -5 -12    7.75    6.76
   1   4 -12   15.71    6.94
  -4   5  12   23.13    5.84
   5  -1  12   18.49    5.20
   5  -1  12   16.90    4.31
   5  -1  12   14.63    4.17
  -5   4 -12   11.85    5.29
   1  -5 -12   11.90    7.58
   4   1 -12   11.95    6.26
   4   1 -12   12.31    3.58
   5  -4  12   12.29    3.66
   5  -4  12   17.73    4.45
  -1   5  12   10.47    3.33
  -1   5  12   11.62    5.01
   7  -2 -12    6.55    4.27
  -5   7 -12    9.54    5.31
   5  -7  12    2.83    3.65
   2   5  12    0.32    3.31
  10  -5 -12   32.18    9.56
  -3   9 -12    8.70    6.75
   9  -6 -12    9.00    6.31
   6   3  12    3.96    3.89
  -9   6  12    8.73    6.25
   6   3  12    3.27    4.04
   6  -6 -12   91.39   12.96
   0   6 -12   90.00   12.33
  -6   6  12   61.81    9.08
   6   0  12   71.98    9.00
   6   0  12   59.56    7.14
   6   0  12   58.94    7.29
   3   3 -12   68.39   10.35
   3  -6 -12   71.11   11.55
  -3   6  12   43.96    5.22
  -3   6  12   66.24    9.65
   6  -3  12   55.30    6.42
   6  -3  12   46.62    6.23
   6   0 -12  112.65    8.11
   0  -6 -12  120.44   14.37
  -6   6 -12  106.03   11.67
   0   6  12   81.53    9.86
   6  -6  12  135.35    9.03
   9  -3 -12   22.07    6.42
  -6   9 -12   21.99    7.58
   3   6  12   12.74    5.53
  -1   8 -12    0.41    5.74
   8  -7 -12    4.42    7.09
   7   1  12    7.45    4.40
  -8   7  12    9.51    4.89
   7   1  12    7.74    4.07
   7   1  12    3.46    4.09
   2   5 -12   11.21    5.75
   5  -7 -12    0.73    7.07
  -5   7  12    2.05    3.12
   7  -2  12   13.02    4.28
   7  -2  12    4.56    3.69
   5   2 -12    6.64    5.94
   2  -7 -12   -3.36    6.24
  -2   7  12    0.82    4.08
   7  -5  12    5.29    3.74
   8  -1 -12    0.08    2.71
  -7   8 -12   -4.47    4.94
  -1  -7 -12    5.39    7.67
   7  -8  12    2.47    4.32
   1   7  12   -2.30    3.58
   1   7 -12   20.76    7.25
   7  -8 -12   -2.10    7.30
   8  -1  12    5.79    3.94
   8  -1  12    5.12    4.97
   8  -1  12    4.06    3.55
  -7   8  12    6.10    4.55
   4   4 -12    2.33    4.87
   4  -8 -12    2.54    7.66
   8  -4  12    1.23    2.91
  -4   8  12   -0.64    4.72
   8  -4  12   -5.73    3.07
   1  -8 -12   -2.63    7.06
  -8   7 -12    5.46    6.32
  -1   8  12   -2.24    4.01
   8  -7  12   -1.85    3.33
   3   6 -12    7.50    5.51
   6  -9 -12   19.77   10.08
   9  -3  12    0.32    3.93
   9  -3  12    1.59    3.95
  -6   9  12    9.67    3.90
   6   3 -12   19.36    7.04
   3  -9 -12   23.14   10.18
  -3   9  12   20.76    7.27
   9  -6  12   20.49    6.05
  -1   0 -13    0.81    2.59
   0   1 -13   -3.48    2.63
   0   1 -13    2.52    3.55
   1  -1 -13    6.90    3.97
   0   1 -13    1.69    2.89
   1  -1 -13    0.71    3.07
  -1   1  13    1.60    2.81
  -1   1  13    0.89    2.92
   0  -1  13   -1.02    3.14
   0  -1  13    0.71    2.48
   1   0  13    2.81    2.98
   1   0  13    0.54    2.44
   1   0  13   -3.14    1.89
   0  -1  13   -0.05    1.81
  -1   1  13    1.92    3.17
   3  -2 -13    0.24    2.81
  -1   3 -13    3.40    3.85
  -1   3 -13    3.80    3.05
   3  -2 -13    2.49    4.40
   2   1  13    0.81    2.50
   1  -3  13    5.24    2.45
  -3   2  13    7.13    5.17
   2   1  13    6.65    3.28
   2   1  13    2.15    2.65
   2   0 -13   -2.48    2.71
   2   0 -13   -1.91    2.57
  -2   2 -13   -0.65    3.24
   2   0 -13   -5.95    3.65
   0  -2 -13    2.58    4.54
   0   2  13   -1.35    2.93
   0   2  13   -0.44    2.78
  -2   0  13    1.14    3.68
   2  -2  13    1.81    2.20
   2  -2  13   -2.21    1.75
   0   2  13   -0.56    2.62
   2  -2  13   -1.14    2.79
   5  -3 -13   16.33    6.26
  -2   5 -13    3.04    4.81
   3   2  13   11.13    3.75
   3   2  13    8.46    3.99
  -5   3  13    6.87    5.01
   3   2  13    8.65    3.73
   2  -3 -13   -4.78    4.58
   1   2 -13   -0.07    4.28
  -2   3  13    4.37    3.91
   3  -1  13    5.25    2.85
  -1  -2  13    0.59    2.61
   3  -1  13    0.68    2.97
  -2   3  13    3.96    3.80
   3  -1  13    1.90    2.84
  -3   4 -13    0.98    4.03
   4  -1 -13    3.60    4.09
  -3   4 -13    7.20    3.52
   1   3  13    3.19    3.54
   3  -4  13    7.30    3.08
   1   3  13    4.08    3.16
  -4   1  13   13.22    5.04
   1   3  13    5.21    3.79
   7  -4 -13   16.37    6.45
  -3   7 -13    6.50    5.49
   4   3  13   24.33    5.19
  -7   4  13   15.31    6.28
   4   3  13   13.20    4.81
   4   3  13   12.33    4.43
   4  -4 -13   -7.65    4.19
   0   4 -13    2.05    5.14
  -4   4  13    4.66    4.70
   4   0  13    0.31    2.92
   4   0  13    1.50    2.93
   4   0  13   -2.31    2.64
   3   1 -13    3.32    2.74
   1  -4 -13   -3.81    5.05
  -4   3 -13    3.53    4.00
   3   1 -13    5.94    5.16
   4  -3  13    1.38    2.64
  -1   4  13    2.03    3.31
  -1   4  13   -1.51    3.36
   4  -3  13   -1.43    2.51
  -4   6 -13    1.75    4.54
   6  -2 -13    5.86    4.25
   4  -6  13    5.45    3.22
   2   4  13   -2.28    2.50
   2   4  13   10.71    4.61
   2   4  13    2.90    3.59
   9  -5 -13   12.17    6.40
  -4   9 -13    5.81    5.69
   5   4  13   -0.68    3.47
   5   4  13    0.54    3.66
   6  -5 -13   13.51    7.03
  -1   6 -13    9.52    6.17
   5   1  13   14.33    4.63
   5   1  13    5.46    3.51
   5   1  13    8.08    3.23
  -6   5  13    7.99    4.82
   3  -5 -13   10.72    6.83
   2   3 -13    6.97    6.42
   5  -2  13    7.99    3.83
  -3   5  13   14.33    6.12
   5  -2  13   13.81    4.26
  -3   5  13    7.42    4.14
   5  -2  13   11.03    5.17
   5   0 -13    4.73    3.18
  -5   5 -13    1.12    2.90
   0  -5 -13    5.94    5.92
  -5   5 -13   -0.23    4.03
   5  -5  13   -0.51    2.76
   0   5  13    0.79    2.80
   0   5  13   -2.64    3.03
  -5   8 -13    3.45    5.06
   8  -3 -13    5.19    4.65
   3   5  13   -2.49    3.32
   3   5  13    3.89    3.29
  -2   8 -13   49.97   10.48
   8  -6 -13   20.35    8.42
   6   2  13   27.23    5.89
   6   2  13   28.78    6.37
  -8   6  13   28.45    7.47
   6   2  13   20.84    6.10
   5  -6 -13    2.57    6.06
   1   5 -13   10.30    6.77
  -5   6  13   15.60    4.74
   6  -1  13   14.84    4.67
   6  -1  13    2.90    3.22
   6  -1  13    9.31    4.06
   4   2 -13    4.22    5.82
   2  -6 -13    0.38    5.42
  -2   6  13   -1.92    3.59
   6  -4  13    2.08    3.41
   6  -4  13    1.69    3.51
   7  -1 -13   -3.33    2.62
  -6   7 -13   -1.95    4.61
  -1  -6 -13    3.05    6.07
   1   6  13    2.36    3.92
   6  -7  13    3.17    3.71
   0   7 -13   -4.32    5.02
   7  -7 -13    9.01    7.27
  -7   7  13   -2.47    4.10
   7   0  13   -2.55    3.91
   7   0  13    2.20    3.38
   7   0  13    1.96    3.68
   4  -7 -13   10.21    7.70
   3   4 -13   11.10    6.24
  -4   7  13   16.91    3.72
   7  -3  13   21.18    4.93
  -4   7  13   17.07    6.29
   7  -3  13   12.84    4.68
  -7   6 -13   -4.55    4.87
   6   1 -13    4.47    6.06
   1  -7 -13    2.77    7.10
   7  -6  13   -3.28    2.98
  -1   7  13   -0.91    3.75
  -2  -7 -13   43.36   10.93
  -7   9 -13    8.76    6.96
   9  -2 -13    1.77    4.00
   7  -9  13    4.92    5.14
   2   7  13    8.50    5.69
   2   6 -13   42.84    9.40
   6  -8 -13   28.57   10.77
   8  -2  13   30.10    6.21
  -6   8  13   32.87    5.85
   8  -2  13   24.43    6.24
   5   3 -13    8.96    5.60
   3  -8 -13    5.71    7.37
   8  -5  13    7.21    4.70
  -3   8  13   -3.59    3.88
   0  -8 -13   12.42    9.28
  -8   8 -13    5.18    6.33
   0   8  13    2.55    4.53
   8  -8  13    0.71    4.29
   4   5 -13   10.06    6.14
   5  -9 -13    3.38    7.82
   9  -4  13    8.44    4.54
   9  -4  13    2.85    4.23
   2  -9 -13   11.06    8.88
   7   2 -13   -0.51    6.12
   9  -7  13    6.09    5.27
  -2   9  13   -1.46    4.84
   1   0 -14   39.80    6.47
   0  -1 -14   35.46    6.80
  -1   1 -14   37.02    5.75
   1   0 -14   37.61    6.87
  -1   1 -14   41.85    5.77
   1   0 -14   48.46    6.60
  -1   0  14   38.25    6.87
   1  -1  14   41.29    6.23
   0   1  14   38.40    6.01
   1  -1  14   43.82    5.29
   0   1  14   34.82    5.39
  -1   0  14   34.42    5.49
  -1   0  14   48.22    6.00
   1  -1  14   42.64    4.91
   0   1  14   31.51    5.68
   2  -2 -14   35.37    7.17
   0   2 -14   20.03    5.04
   0   2 -14   34.98    7.56
  -2   2  14   40.24    7.10
   2   0  14   33.78    5.75
  -2   2  14   28.71    6.31
   0  -2  14   35.92    4.27
   2   0  14   34.17    5.02
   2   0  14   29.80    4.96
   3  -1 -14    9.59    4.09
   3  -1 -14   17.01    5.65
  -2   3 -14    3.48    3.46
  -2   3 -14    7.18    4.24
   2  -3  14    4.92    2.80
   1   2  14    9.16    3.76
  -3   1  14    1.47    3.91
   1   2  14    0.91    3.53
   1   2  14   10.12    4.31
   4  -3 -14   34.89    5.51
  -1   4 -14   33.07    6.68
   4  -3 -14   26.95    7.39
   3   1  14   24.25    5.17
   3   1  14   24.19    5.16
   3   1  14   37.77    6.17
  -4   3  14   25.13    6.09
   2   1 -14    8.52    3.20
   2   1 -14    5.43    5.66
  -3   2 -14    3.27    3.45
   1  -3 -14   11.33    5.74
   3  -2  14    9.73    3.22
   3  -2  14   13.21    4.65
  -1   3  14    1.53    3.80
   3  -2  14    3.73    3.14
  -1   3  14   10.10    4.89
  -3   5 -14   53.47    6.53
   5  -2 -14   60.77    8.77
  -3   5 -14   40.39    7.36
  -5   2  14   25.41    6.59
   2   3  14   50.05    7.58
   3  -5  14   41.19    5.32
   2   3  14   58.43    8.20
   2   3  14   42.28    6.01
  -2   6 -14    3.75    4.91
   6  -4 -14    1.16    4.93
  -6   4  14   -1.93    4.05
   4   2  14    5.14    3.73
   4   2  14    6.80    3.39
   4   2  14    4.08    3.02
   3  -4 -14   22.06    7.44
   1   3 -14   35.42    8.43
   4  -1  14   27.81    4.93
   4  -1  14   30.85    6.31
  -3   4  14   19.85    5.09
   4  -1  14   23.46    4.82
  -3   4  14   28.81    7.25
  -4   4 -14  111.35   11.16
  -4   4 -14   97.88    9.33
   4   0 -14  103.73    7.82
   0  -4 -14   94.77   12.32
   0   4  14   98.40    7.17
   4  -4  14   85.60    6.82
   0   4  14   89.94    9.91
   7  -3 -14   50.65    9.05
  -4   7 -14   36.14    7.79
   3   4  14   47.25    8.28
   3   4  14   23.66    5.61
   3   4  14   48.01    6.40
   8  -5 -14   44.00    9.78
  -3   8 -14   73.25   11.99
   5   3  14   51.48    7.98
  -8   5  14   56.41   11.12
   5   3  14   62.98    8.03
   5   3  14   48.03    7.96
   0   5 -14   37.78    8.71
   5  -5 -14   26.75    7.48
   5   0  14   20.84    4.63
   5   0  14   29.81    5.84
  -5   5  14   31.35    7.32
   5   0  14   22.87    5.94
   3   2 -14   59.07   11.42
   2  -5 -14   46.90   10.77
   5  -3  14   53.05    5.87
   5  -3  14   65.93    7.22
  -2   5  14   51.64    6.19
  -2   5  14   42.81    7.66
   6  -1 -14    0.10    3.21
  -5   6 -14   -0.91    4.43
   5  -6  14   -1.77    2.74
   1   5  14    1.35    2.93
   1   5  14    4.41    3.91
   9  -4 -14    3.50    5.04
  -5   9 -14    1.53    5.37
   4   5  14    4.47    4.45
   4   5  14    4.40    4.09
   7  -6 -14   28.72    8.73
  -1   7 -14   23.56    8.45
   6   1  14   27.05    6.10
  -7   6  14   28.13    6.70
   6   1  14   32.51    6.10
   6   1  14   28.56    6.67
   4  -6 -14    1.56    6.04
   2   4 -14   11.34    5.90
  -4   6  14    0.41    4.57
   6  -2  14    4.54    3.97
   6  -2  14   -4.39    4.09
   6  -2  14    6.60    3.80
  -4   6  14   -0.20    3.20
   5   1 -14    2.67    5.45
  -6   5 -14   -6.16    4.60
   1  -6 -14   -0.82    6.67
  -1   6  14   -5.51    3.45
   6  -5  14    0.72    3.45
   8  -2 -14   38.29    7.66
  -6   8 -14   34.67    8.86
   2   6  14   27.30    6.99
   6  -8  14   27.54    6.03
   9  -7 -14    6.18    7.13
   7   2  14   -1.54    4.27
  -9   7  14   -0.85    4.86
   7   2  14    3.78    4.18
   6  -7 -14   29.23    9.67
   1   6 -14   35.38    8.46
   7  -1  14   36.35    7.52
  -6   7  14   26.84    6.53
   7  -1  14   28.99    6.06
   7  -1  14   34.13    6.36
   4   3 -14   24.46    8.81
   3  -7 -14   38.98   10.63
   7  -4  14   39.54    6.50
  -3   7  14   29.89    7.31
   0  -7 -14   89.17   15.14
  -7   7 -14   59.42   11.11
   7  -7  14   37.57    6.78
   0   7  14   43.04    8.70
   0   8 -14   61.16   10.93
   8  -8 -14   58.40   12.57
   8   0  14   56.24    8.31
  -8   8  14   70.86    9.95
   8   0  14   38.30    7.50
   8   0  14   55.42    9.53
   3   5 -14   50.71    9.37
   5  -8 -14   50.78   11.14
   8  -3  14   64.13    8.68
  -5   8  14   60.68    6.57
   8  -3  14   52.02    7.98
   2  -8 -14   19.60    9.66
   6   2 -14   26.53    8.34
  -2   8  14   25.81    7.37
   8  -6  14   32.22    6.97
   7  -9 -14  -10.84    7.92
   9  -2  14   -1.17    3.96
   9  -2  14    0.34    4.09
   5   4 -14    6.58    5.70
   4  -9 -14   -5.06    7.87
   9  -5  14    1.67    4.08
  -4   9  14    4.55    5.90
   0   0 -15    6.73    4.28
   0   0  15    5.40    3.64
   0   0  15   -1.09    2.44
   0   0  15    0.65    3.22
   2  -1 -15  303.90   13.98
  -1   2 -15  288.76   12.41
  -1   2 -15  290.51   13.44
   2  -1 -15  289.32   12.35
   1   1  15  279.66   11.91
   1   1  15  286.60   11.17
   1   1  15  293.04   12.57
   1  -2  15  298.38    9.55
  -2   1  15  300.79   13.44
  -2   1  15  299.57   14.50
   1  -2  15  279.44   13.03
   1   1 -15  307.66   11.26
   1   1 -15  301.24   12.47
   1   1 -15  320.40   15.71
   1  -2 -15  304.75   15.50
   2  -1  15  306.07   11.25
   2  -1  15  288.46   10.34
  -1   2  15  299.38   13.26
  -1  -1  15  290.33   10.54
  -1   2  15  295.79   13.68
  -1  -1  15  302.13   15.19
   2  -1  15  305.68   12.89
   4  -2 -15  335.34   15.78
  -2   4 -15  356.50   12.99
  -2   4 -15  328.71   14.59
   4  -2 -15  338.18   12.95
  -4   2  15  341.96   16.45
   2   2  15  345.78   13.34
   2  -4  15  329.85   10.39
   2   2  15  351.66   12.64
   2   2  15  341.88   14.36
   3  -3 -15    4.21    5.43
   0   3 -15    1.58    4.94
   0   3 -15    3.68    3.32
  -3   3  15   -5.46    4.15
   3   0  15    1.67    3.51
   3   0  15    1.23    3.09
   3   0  15   -1.42    3.45
  -3   3  15   -0.71    4.31
   0  -3 -15    5.18    5.23
  -3   3 -15    3.49    4.17
   3   0 -15    3.84    3.71
  -3   3 -15    6.62    4.86
   0   3  15    0.71    3.37
   0   3  15   -0.26    3.56
   0   3  15   -1.87    3.60
  -3   0  15   -0.66    3.84
   3  -3  15    3.56    3.19
   6  -3 -15    9.44    5.80
  -3   6 -15    1.71    4.26
   3   3  15    4.00    3.60
  -6   3  15    2.53    4.51
   3   3  15    4.40    3.70
   3   3  15   11.70    4.88
   5  -4 -15  132.67   14.19
  -1   5 -15  140.81   14.15
   4   1  15  124.83    9.43
  -5   4  15  133.93   11.11
   4   1  15  132.79    9.08
   4   1  15  114.81    8.53
   2   2 -15  331.80   18.29
   2  -4 -15  343.41   18.89
   4  -2  15  352.96   12.17
   4  -2  15  338.50   14.84
  -2   4  15  368.13   13.59
  -2   4  15  364.31   16.53
   4  -2  15  373.55   12.40
  -4   5 -15  117.84    8.38
   5  -1 -15  119.75    9.43
  -4   5 -15  105.95   11.07
   1   4  15  109.78   11.78
   4  -5  15  118.52    7.79
   1   4  15  124.43    7.52
   1   4  15  125.96   10.48
  -4   8 -15   36.70    9.12
   8  -4 -15   30.83    8.46
   4   4  15   32.00    5.99
   4   4  15   43.23    8.02
   7  -5 -15   40.54    9.63
  -2   7 -15   36.79    8.79
   5   2  15   38.84    6.81
  -7   5  15   32.84    7.84
   5   2  15   42.18    6.70
   5   2  15   45.09    7.40
   4  -5 -15  128.49   13.98
   1   4 -15  149.12   15.66
   5  -1  15  121.46    9.72
   5  -1  15  121.36    8.29
  -4   5  15  139.61    9.83
   5  -1  15  126.18    8.91
   4   1 -15  122.02   14.51
   1  -5 -15  102.34   13.70
  -1   5  15  115.98    7.52
   5  -4  15  127.20    8.22
  -1   5  15  124.15   12.34
   7  -2 -15   40.98    7.78
  -5   7 -15   34.30    8.48
   5  -7  15   37.29    6.20
   2   5  15   38.36    7.45
   2   5  15   55.55    6.27
   9  -6 -15   -2.68    6.79
  -9   6  15    4.75    6.33
   6   3  15   -0.50    4.03
   6   3  15    5.19    4.78
   6  -6 -15    4.34    6.29
   0   6 -15   -2.75    5.51
   6   0  15    0.11    3.73
  -6   6  15    3.44    4.23
   6   0  15    3.47    4.36
   6   0  15   -1.13    3.39
   3  -6 -15    4.09    6.78
   3   3 -15   11.24    6.45
  -3   6  15    4.73    5.22
   6  -3  15    2.00    3.76
  -3   6  15    3.64    2.81
   6  -3  15    1.38    3.50
  -6   6 -15    2.86    5.80
   0  -6 -15    0.33    6.59
   6  -6  15    1.06    3.97
   0   6  15    6.94    4.36
  -6   9 -15    3.11    6.24
   9  -3 -15   -5.18    3.88
   3   6  15   -1.04    4.22
   8  -7 -15    2.76    7.37
  -1   8 -15    8.43    7.51
   7   1  15    5.23    4.41
   7   1  15   -1.82    4.05
   7   1  15    2.41    4.48
  -8   7  15    5.42    5.33
   2   5 -15   50.64   10.31
   5  -7 -15   42.30   10.80
   7  -2  15   60.81    7.95
  -5   7  15   42.95    6.18
   7  -2  15   40.82    6.95
   2  -7 -15   39.87   11.11
   5   2 -15   45.34   11.23
   7  -5  15   52.18    7.74
  -2   7  15   35.11    7.84
  -1  -7 -15    3.70    8.31
  -7   8 -15    8.00    6.38
   8  -1 -15    0.34    3.74
   7  -8  15    6.14    4.68
   1   7  15    5.74    4.88
   7  -8 -15   -2.06    7.96
   1   7 -15    5.08    5.86
   8  -1  15    0.61    3.86
   8  -1  15    1.89    4.40
  -7   8  15    5.44    4.51
   4  -8 -15   24.29    9.93
   4   4 -15   34.66    9.33
   8  -4  15   34.86    6.87
  -4   8  15   20.95    7.16
   1  -8 -15    1.60    8.32
  -1   8  15    2.54    4.84
   8  -7  15   -0.93    4.71
   6  -9 -15   -2.78    8.37
   3   6 -15    0.54    5.44
   9  -3  15   -2.04    4.30
  -6   9  15    1.95    3.33
   9  -3  15    1.53    4.08
   6   3 -15    0.12    6.72
   3  -9 -15   -5.45    7.73
  -3   9  15   -5.65    4.81
   9  -6  15   -0.60    5.00
   0   1 -16   -0.60    4.09
   0   1 -16    3.08    4.45
   1  -1 -16   -2.28    4.29
  -1   0 -16    7.22    4.43
   0   1 -16   -0.81    3.48
   0  -1  16   -1.27    2.60
   0  -1  16    1.22    3.73
  -1   1  16    1.18    4.07
   1   0  16    1.32    3.23
   1   0  16    3.03    2.83
  -1   1  16    8.39    4.01
   0  -1  16   -2.74    2.99
   1   0  16    0.64    3.28
  -1   1  16    1.15    3.92
   3  -2 -16   62.19    9.47
  -1   3 -16   64.93    9.22
  -1   3 -16   59.82    7.09
   3  -2 -16   70.07    8.15
  -3   2  16   54.58    7.98
   2   1  16   63.34    8.06
   2   1  16   56.35    7.18
   1  -3  16   56.20    5.63
   2   1  16   65.23    8.47
   2   0 -16  119.03   10.38
   0  -2 -16  131.48   13.24
   2   0 -16  107.73    9.79
   2  -2  16  108.96   10.63
   2  -2  16  118.66    7.20
  -2   0  16  152.94   15.17
   0   2  16  146.31   12.38
   0   2  16  138.70    9.16
   0   2  16  110.48    8.96
  -2   5 -16  127.39   12.37
   5  -3 -16  146.42   13.73
   3   2  16  145.26    9.38
   3   2  16  150.28    9.78
  -5   3  16  148.30   12.29
   3   2  16  156.03   10.69
   2  -3 -16   58.67   10.15
   1   2 -16   60.36    9.82
   1   2 -16   51.02    6.74
   3  -1  16   62.03    8.36
   3  -1  16   59.77    6.92
  -2   3  16   49.77    8.08
   3  -1  16   63.56    6.99
  -2   3  16   41.93    6.92
   4  -1 -16    1.56    4.21
  -3   4 -16   -0.65    4.04
  -3   4 -16    2.94    3.40
  -4   1  16    3.78    4.72
   3  -4  16    1.30    3.05
   1   3  16    1.26    3.17
   1   3  16   -4.05    3.37
   1   3  16   -0.74    3.16
   7  -4 -16    7.17    5.94
  -3   7 -16   10.12    5.93
  -7   4  16    7.20    5.40
   4   3  16    1.30    3.92
   4   3  16    3.78    4.10
   4   3  16    9.55    4.58
   4  -4 -16   29.66    8.13
   0   4 -16   18.44    6.90
  -4   4  16   19.81    5.71
   4   0  16   25.39    5.07
   4   0  16   25.60    5.75
   4   0  16   26.88    6.05
   3   1 -16    1.55    5.41
   1  -4 -16   -0.30    5.11
  -1   4  16    3.74    4.22
  -1   4  16    1.36    3.87
   4  -3  16    2.85    3.45
   6  -2 -16   -0.11    4.10
  -4   6 -16    9.01    5.60
   4  -6  16    0.58    3.48
   2   4  16    3.44    4.08
   2   4  16    5.72    4.43
   2   4  16    6.47    3.69
   9  -5 -16    4.46    6.54
   5   4  16    2.09    4.86
   5   4  16    2.45    4.67
   6  -5 -16   12.04    7.00
  -1   6 -16   19.41    7.37
   5   1  16   11.79    4.63
   5   1  16   14.47    5.12
   5   1  16   16.93    5.32
  -6   5  16   11.82    5.65
   3  -5 -16  130.97   14.96
   2   3 -16  128.19   14.57
   5  -2  16  145.98    9.38
  -3   5  16  165.45    9.99
   5  -2  16  142.01    8.95
  -3   5  16  140.81   13.56
  -5   5 -16   91.31   11.40
   0  -5 -16   85.69   13.10
   5   0 -16  112.26    9.49
  -5   5 -16  109.32   10.61
   0   5  16   90.71   10.87
   5  -5  16  100.38    8.00
   8  -3 -16  164.50   16.76
  -5   8 -16  169.95   13.77
   3   5  16  155.65    9.24
   3   5  16  112.12   12.72
  -2   8 -16   91.60   14.19
   8  -6 -16   70.37   12.73
  -8   6  16   85.00   11.95
   6   2  16   61.88    8.58
   6   2  16   71.31    9.55
   6   2  16   67.64    9.90
   5  -6 -16    5.23    6.48
   1   5 -16   21.76    8.39
  -5   6  16   14.80    5.35
   6  -1  16   18.14    5.25
   6  -1  16   21.11    6.24
   6  -1  16   13.19    5.03
   2  -6 -16   10.82    8.31
   4   2 -16    3.33    6.38
  -2   6  16    1.32    4.36
   6  -4  16    0.50    3.85
  -2   6  16    1.45    2.62
   7  -1 -16   16.87    5.29
  -6   7 -16    4.75    6.61
  -1  -6 -16    0.97    6.89
   1   6  16    5.01    4.69
   6  -7  16   -0.42    3.62
   7  -7 -16    7.28    7.03
   0   7 -16    2.23    6.95
  -7   7  16   13.81    5.77
   7   0  16   14.69    5.54
   7   0  16   15.69    5.85
   7   0  16   15.47    5.12
   4  -7 -16    4.68    7.06
   3   4 -16    9.78    6.43
  -4   7  16    1.27    2.73
   7  -3  16    0.01    3.75
  -4   7  16    6.98    5.61
   7  -3  16    5.81    4.61
   1  -7 -16    9.56    8.47
  -1   7  16    7.51    5.32
   7  -6  16    4.52    4.54
   2   6 -16   83.17   13.31
   6  -8 -16   73.10   14.28
  -6   8  16   84.34    8.71
   8  -2  16   68.89    9.73
   8  -2  16   71.03    9.40
   3  -8 -16   96.20   15.25
   5   3 -16  141.14   16.41
  -3   8  16  142.31   15.30
   8  -5  16  147.55   11.10
   5  -9 -16    4.76    8.98
   4   5 -16   -3.51    6.12
   9  -4  16    9.75    5.84
   0  -1 -17    0.46    4.46
   1   0 -17   -4.28    3.94
  -1   1 -17   -0.59    3.95
   1   0 -17   -0.81    4.53
  -1   0  17   -3.76    3.92
   1  -1  17    1.88    2.85
   0   1  17    4.45    4.12
  -1   0  17   -0.07    3.52
   0   1  17    0.42    3.99
   1  -1  17   -2.70    3.04
   0   1  17   -0.15    3.40
  -1   0  17    1.16    4.06
   1  -1  17    6.04    3.95
   0   2 -17    0.21    4.01
   2  -2 -17   -4.85    4.31
   0   2 -17   -5.86    4.56
   0  -2  17    0.77    2.73
  -2   2  17    7.67    5.53
  -2   2  17   -2.55    3.69
   2   0  17   -1.41    3.78
   2   0  17    3.40    3.97
   2   0  17   -2.22    2.79
  -2   3 -17    6.40    4.73
  -1  -2 -17   21.62    7.14
  -2   3 -17    0.77    4.11
   3  -1 -17    8.22    5.32
   3  -1 -17    7.74    4.65
   1   2  17   19.82    5.73
   1   2  17   12.03    4.87
   1   2  17   15.86    4.98
   2  -3  17   12.55    3.91
  -3   1  17    7.50    4.71
   4  -3 -17   -1.96    3.37
  -1   4 -17    2.56    4.72
   4  -3 -17   -1.02    5.03
  -4   3  17    4.92    4.46
   3   1  17    3.24    3.73
   3   1  17   -1.51    3.03
   3   1  17   -1.09    3.32
   1  -3 -17    4.02    5.84
   2   1 -17   15.33    5.23
   3  -2  17    4.10    3.49
  -1   3  17   17.23    5.57
  -1   3  17   10.09    4.99
  -3   5 -17   10.65    4.35
  -3   5 -17    2.09    5.00
   5  -2 -17   -4.85    4.22
   2   3  17    5.80    3.83
   3  -5  17    1.40    3.12
  -5   2  17   13.39    6.65
   2   3  17    1.37    4.24
   2   3  17    2.91    3.80
  -2   6 -17   -0.69    5.23
   6  -4 -17  -11.30    4.51
   4   2  17   -0.52    3.45
   4   2  17   -0.57    3.18
   4   2  17    0.70    3.69
  -6   4  17    4.06    4.18
   3  -4 -17    4.30    5.96
   1   3 -17    4.50    5.77
   4  -1  17   -4.06    3.40
   4  -1  17   -2.68    3.70
  -3   4  17   -1.85    4.47
  -3   4  17    0.36    3.91
   4  -1  17    0.87    3.31
   0  -4 -17   -2.19    5.19
   4   0 -17   -4.17    3.15
  -4   4 -17   -2.00    3.89
   0   4  17   -0.39    4.07
   0   4  17    2.64    3.64
   4  -4  17   -5.03    2.87
  -4   7 -17   13.26    6.96
   7  -3 -17   20.72    7.22
   3   4  17   39.84    7.13
   3   4  17   23.96    7.12
   3   4  17   11.95    5.78
  -3   8 -17    6.08    6.85
   8  -5 -17    3.58    6.53
   5   3  17   11.66    5.34
   5   3  17    2.39    4.63
  -8   5  17    6.61    5.51
   5   3  17    7.97    4.75
   0   5 -17    5.05    5.60
   5  -5 -17   -2.15    5.61
   5   0  17   -4.59    3.33
   5   0  17   -4.13    2.94
   5   0  17   -0.38    3.75
  -5   5  17   -4.93    3.84
   3   2 -17   11.19    6.71
   2  -5 -17   -0.17    5.78
  -2   5  17    4.95    4.81
  -2   5  17    5.49    3.88
   5  -3  17    7.02    4.23
   6  -1 -17   -2.92    3.23
  -5   6 -17   -1.01    5.11
  -1  -5 -17    4.94    6.68
   5  -6  17    3.60    3.69
   1   5  17    2.65    3.51
   1   5  17    0.96    3.92
   7  -6 -17    2.11    6.44
  -1   7 -17    1.96    6.53
  -7   6  17    3.99    4.70
   6   1  17    8.96    5.20
   6   1  17    4.05    4.66
   6   1  17    3.51    4.16
   2   4 -17   -0.19    5.79
   4  -6 -17    4.27    6.75
  -4   6  17    1.95    3.84
   6  -2  17    1.58    3.99
  -4   6  17   -7.44    4.41
   6  -2  17    1.20    3.74
   1  -6 -17   18.89    8.33
  -1   6  17   -1.40    2.68
   6  -5  17    6.56    4.44
  -1   6  17   -4.03    3.27
   8  -2 -17   31.00    7.74
  -2  -6 -17   32.80   10.13
  -6   8 -17   23.38    8.29
   2   6  17    1.92    4.91
   6  -7 -17    4.43    7.35
   1   6 -17    8.84    7.41
  -6   7  17    2.59    4.09
   7  -1  17   10.03    5.69
   7  -1  17    7.02    4.57
   7  -1  17   10.66    5.47
   4   3 -17   37.52    9.85
   3  -7 -17   15.52    8.17
  -3   7  17   18.09    4.26
   7  -4  17   18.94    6.00
  -3   7  17   19.02    7.01
   0  -7 -17    5.35    9.10
   7  -7  17   -4.21    4.23
   0   7  17    1.57    4.74
   5  -8 -17   -0.06    7.59
   3   5 -17   -0.75    6.28
  -5   8  17   -0.05    3.16
   8  -3  17    4.63    4.74
   8  -3  17    6.37    4.87
   2  -8 -17   25.82   11.24
   8  -6  17   10.80    5.55
  -2   8  17    6.79    5.49
   0   0 -18  168.44   11.92
   0   0  18  151.17   10.89
   0   0  18  170.50   10.67
   0   0  18  160.26    9.81
   2  -1 -18   -0.37    5.11
  -1   2 -18   -1.09    4.27
  -1  -1 -18   -2.65    4.96
   2  -1 -18    1.24    4.65
   1   1  18   -1.03    3.34
   1  -2  18    7.26    3.42
  -2   1  18   10.54    5.75
   1   1  18    4.63    4.68
   1   1  18   -0.27    3.59
   1  -2 -18   -3.94    5.13
   1   1 -18    8.81    4.87
   2  -1  18   -1.25    3.60
   2  -1  18    5.46    3.66
  -1   2  18    2.01    4.74
  -1  -1  18    0.52    3.66
   2  -1  18    3.91    4.46
  -1   2  18   12.59    5.91
   4  -2 -18   -5.26    4.27
   4  -2 -18    4.09    4.21
  -2   4 -18   -4.23    3.07
  -2   4 -18    7.93    5.76
  -4   2  18    1.62    3.85
   2   2  18   -0.09    3.43
   2   2  18    1.86    3.97
   2   2  18   -1.09    3.12
   0   3 -18   35.07    6.43
   3  -3 -18   38.82    6.85
   0   3 -18   52.03   10.42
   3  -3 -18   33.22    8.00
  -3   3  18   32.45    7.38
   3   0  18   30.59    6.11
   3   0  18   35.53    6.80
   3   0  18   37.86    6.28
  -3   3  18   54.67    9.49
  -3   3 -18   28.37    6.77
   0  -3 -18   28.97    8.67
   3   0 -18   37.06    6.75
   3  -3  18   39.96    5.93
   0   3  18   40.73    7.20
   0   3  18   32.28    6.73
   0   3  18   21.82    5.98
  -3   6 -18   16.18    6.74
   6  -3 -18    9.18    6.04
   3   3  18    7.42    4.85
   3   3  18   11.68    5.83
   3   3  18    6.43    4.55
  -1   5 -18    8.53    6.74
   5  -4 -18   11.01    6.96
   4   1  18   23.43    6.11
   4   1  18    9.93    4.47
  -5   4  18    2.07    4.15
   4   1  18    8.71    4.64
   2   2 -18    1.43    6.32
   2  -4 -18    0.69    5.18
  -2   4  18    0.83    4.30
   4  -2  18    3.21    3.56
  -2   4  18   -1.85    4.20
  -4   5 -18   12.31    6.41
  -1  -4 -18   15.08    7.17
  -4   5 -18   15.05    5.55
   5  -1 -18   17.26    5.69
   4  -5  18   12.50    4.38
   1   4  18   11.05    4.47
   1   4  18    7.49    5.08
   1   4  18   16.28    5.95
  -4   8 -18   -0.90    4.71
   8  -4 -18    4.78    6.39
   4   4  18    2.44    4.70
   4   4  18    1.36    4.41
   4   4  18    2.46    5.49
  -2   7 -18   -2.67    5.39
   7  -5 -18    3.52    7.01
   5   2  18    4.00    4.76
  -7   5  18    4.98    5.41
   5   2  18   -0.50    3.98
   5   2  18    4.63    4.32
   1   4 -18    1.94    5.88
   4  -5 -18    7.61    7.00
   5  -1  18    8.24    5.26
  -4   5  18   10.62    4.78
   5  -1  18   12.87    4.93
   5  -1  18    7.14    5.04
  -5   4 -18    8.75    5.82
   1  -5 -18   19.51    7.94
   5  -4  18   15.99    5.07
  -1   5  18   12.60    4.14
  -1   5  18   11.75    5.88
   7  -2 -18    3.32    4.28
  -5   7 -18    5.06    5.70
   2   5  18    9.82    5.84
   2   5  18    6.21    4.23
   6  -6 -18   60.00   11.84
   0   6 -18   69.83   13.05
   6   0  18   66.40   10.65
   6   0  18   52.14    8.25
   6   0  18   30.61    7.07
  -6   6  18   41.81    7.88
   3  -6 -18   -3.49    6.06
   3   3 -18    2.59    7.05
  -3   6  18    8.94    3.67
  -3   6  18    4.48    5.80
   6  -3  18   12.10    4.80
   0  -6 -18   17.02    9.55
   0   6  18    8.93    3.32
   6  -6  18   29.05    6.30
   0   6  18   22.49    7.00
   5  -7 -18   -8.16    5.94
   2   5 -18   -2.09    6.22
   7  -2  18   -0.63    3.77
  -5   7  18    2.91    3.40
   7  -2  18    3.16    4.36
   2  -7 -18  -10.11    7.14
   7  -5  18    4.43    4.81
  -2   7  18    8.16    5.32
   4   4 -18    3.98    6.89
   4  -8 -18    2.05    8.36
  -4   8  18    6.36    5.95
   8  -4  18   -0.05    4.78
   1  -1 -19    2.87    5.15
   0   1 -19   11.89    5.67
  -1   0 -19   -6.27    3.86
  -1   1  19   -0.44    4.29
   1   0  19   -3.03    4.31
   0  -1  19   -2.48    3.27
  -1   1  19    5.76    5.24
  -1   1  19   -2.93    4.05
   1   0  19    1.47    3.98
   1   0  19    0.82    3.26
   3  -2 -19   -0.73    4.18
  -1   3 -19    1.48    3.89
   3  -2 -19   -1.81    4.29
  -3   2  19   -0.69    3.51
   2   1  19    1.44    3.51
   2   1  19    0.00    3.62
   2   1  19    0.75    4.37
  -2   2 -19   -2.13    4.47
   2   0 -19    1.12    5.12
   0  -2 -19    0.51    5.59
   2  -2  19    0.31    3.11
   0   2  19   -2.26    4.26
   0   2  19    5.65    4.66
   0   2  19   -2.49    3.76
   5  -3 -19   -2.14    5.34
  -2   5 -19   -2.11    4.74
   3   2  19   -0.29    3.95
  -5   3  19   -1.30    3.86
   3   2  19   -4.40    3.38
   3   2  19   -4.65    3.20
   1   2 -19    1.89    4.18
   2  -3 -19    0.36    5.72
   3  -1  19    1.50    3.96
   3  -1  19   -3.01    3.81
   3  -1  19   -1.16    2.78
  -2   3  19    2.18    4.11
  -2   3  19   -4.43    4.18
  -1  -3 -19   25.03    8.45
   4  -1 -19   29.43    7.23
  -3   4 -19   36.63    7.25
   1   3  19   31.19    7.81
   1   3  19   26.31    7.12
   3  -4  19   26.98    5.42
   1   3  19   25.30    5.89
   7  -4 -19   -0.52    5.62
  -3   7 -19   -0.21    5.85
   4   3  19    6.79    5.40
   4   3  19    1.14    4.49
   4   3  19    4.34    4.34
   4  -4 -19    8.70    6.47
   0   4 -19   -5.93    4.81
  -4   4  19    1.12    3.47
   4   0  19    1.34    4.45
   4   0  19    1.87    3.93
   4   0  19    6.41    4.12
   1  -4 -19   14.35    7.81
  -1   4  19   27.08    7.55
   4  -3  19   20.59    5.23
  -1   4  19   25.51    6.34
  -4   6 -19   30.70    6.51
   6  -2 -19   30.33    7.86
  -4   6 -19    9.26    5.99
   2   4  19   34.08    8.67
   2   4  19   27.66    6.56
   2   4  19   25.22    7.45
   6  -5 -19   -4.09    6.04
  -1   6 -19   -3.50    5.77
  -6   5  19   -0.61    4.58
   5   1  19    4.66    4.77
   5   1  19   10.51    4.91
   5   1  19    4.78    5.08
   3  -5 -19    1.87    6.13
   2   3 -19   -3.47    6.34
   5  -2  19   -1.01    3.37
  -3   5  19   -3.71    4.41
  -3   5  19    1.23    3.72
  -5   5 -19    0.77    4.43
   0  -5 -19    1.13    6.78
   0   5  19   -1.04    3.38
   0   5  19    1.90    4.56
   5  -5  19    5.82    4.83
  -5   8 -19    1.19    6.17
   8  -3 -19   -0.81    5.41
   3   5  19    3.42    5.60
   5  -6 -19   15.86    7.54
   1   5 -19   19.11    8.55
  -5   6  19    0.93    4.67
   6  -1  19    5.76    4.95
   6  -1  19   -2.56    3.93
   6  -1  19    2.00    4.06
   2  -6 -19    8.73    8.14
   6  -4  19   21.26    6.11
  -2   6  19   19.92    6.81
  -2   6  19   15.48    4.19
  -1  -6 -19   14.80    9.67
   1   6  19   17.95    7.46
   6  -7  19   30.49    7.13
   7  -7 -19    3.15    7.35
   0   7 -19  -10.14    6.47
   7   0  19   -3.24    4.87
   7   0  19    0.39    4.97
   7   0  19   -0.85    4.60
   3   4 -19    2.83    6.95
   4  -7 -19   -2.77    6.29
  -4   7  19   11.82    6.99
   7  -3  19    8.05    5.02
  -4   7  19   -4.75    3.25
   1  -7 -19    8.63    8.92
  -1   7  19   20.34    6.88
   7  -6  19   42.65    8.29
   3  -8 -19   -3.35    8.33
   8  -5  19   10.13    6.09
  -3   8  19    2.04    5.84
   1   0 -20    1.49    5.17
  -1   1 -20    4.68    4.99
   0  -1 -20    4.54    5.16
   0   1  20    2.46    4.34
  -1   0  20    8.84    5.51
   0   1  20    1.78    4.74
   1  -1  20    0.64    3.28
   0   1  20    1.12    4.19
  -1   0  20    4.84    4.23
   0   2 -20   20.49    6.42
   2  -2 -20   30.97    7.07
   2  -2 -20   34.02    8.46
  -2   0 -20   36.51    7.43
  -2   2  20   31.26    7.46
   2   0  20   26.77    5.62
   2   0  20   38.65    7.77
  -2   2  20   22.93    6.54
   2   0  20   32.24    6.99
   3  -1 -20   -5.62    4.36
  -1  -2 -20   12.87    6.21
  -2   3 -20    2.98    4.27
   3  -1 -20   -0.63    4.42
   1   2  20    6.50    4.54
   2  -3  20   -0.05    2.89
   1   2  20   -6.61    3.79
   1   2  20   -3.04    3.62
  -3   1  20   -2.30    4.12
   4  -3 -20   16.06    7.73
  -1   4 -20   12.64    5.26
  -1   4 -20   -1.80    5.65
   4  -3 -20    3.42    4.75
  -4   3  20   16.58    6.10
   3   1  20   10.05    4.67
   3   1  20    4.09    5.06
   3   1  20   17.39    6.76
   2   1 -20   -3.11    4.58
   1  -3 -20   -1.53    5.55
  -1   3  20    2.78    4.73
   3  -2  20   -0.17    3.55
  -1   3  20    1.27    4.39
  -3   5 -20   28.57    6.74
   5  -2 -20   45.58    9.48
   2   3  20   46.93    7.95
   2   3  20   60.65   10.34
   2   3  20   41.03    8.21
   6  -4 -20    7.80    6.82
  -2   6 -20   -1.79    5.96
   4   2  20    5.04    4.53
  -6   4  20   -0.15    3.98
   4   2  20    0.29    4.33
   4   2  20   -2.57    4.45
   3  -4 -20   12.89    7.00
  -3   4  20   21.66    6.09
   4  -1  20   12.94    5.71
  -3   4  20   18.19    6.82
   4  -1  20   22.45    5.52
   4  -1  20   17.12    6.13
  -4   4 -20    9.15    5.44
   0  -4 -20   17.29    8.23
   0   4  20   11.40    5.89
   0   4  20    3.35    4.72
   4  -4  20    6.46    4.40
  -4   7 -20   21.74    9.09
   7  -3 -20   22.57    8.51
   3   4  20   39.52    8.08
   3   4  20   29.28    7.79
   3   4  20   29.10    8.31
   5  -5 -20  145.01   16.80
   0   5 -20  164.23   18.24
   5   0  20  143.97   11.92
   5   0  20  138.69   10.78
  -5   5  20  157.13   11.74
   5   0  20  155.18   12.54
   2  -5 -20   41.78   10.15
   5  -3  20   37.66    7.07
  -2   5  20   22.78    7.20
  -2   5  20   32.54    5.91
  -1  -5 -20   10.90    7.96
   1   5  20   22.22    7.23
   5  -6  20   15.83    5.48
   1   5  20   30.84    7.40
   7  -6 -20    7.92    7.67
  -1   7 -20   16.84    9.11
   6   1  20   20.98    7.57
   6   1  20   12.81    5.81
  -7   6  20   12.34    5.70
   6   1  20   23.71    7.21
   4  -6 -20   -2.42    6.42
   2   4 -20    3.21    6.79
  -4   6  20   -2.04    5.63
  -4   6  20   -0.33    3.74
   6  -2  20    6.45    4.75
   1  -6 -20    8.31    7.58
   6  -5  20    7.64    5.77
  -1   6  20   19.21    6.56
  -1   6  20    7.91    3.88
   1   6 -20    4.53    7.00
   6  -7 -20   12.41    9.26
   7  -1  20    8.48    5.17
   7  -1  20   15.80    6.62
   3  -7 -20   21.38    9.48
   7  -4  20   32.27    7.32
  -3   7  20   21.20    7.86
  -3   7  20   16.11    4.24
   0   0 -21   -9.93    4.76
   0   0  21   -0.80    3.59
   0   0  21    6.32    5.15
  -1   2 -21  201.85   13.49
   2  -1 -21  216.49   14.08
  -1  -1 -21  212.77   15.26
   2  -1 -21  246.80   14.37
   1   1  21  201.72   13.50
   1   1  21  216.62   13.32
   1   1  21  238.66   13.10
   1  -2  21  233.21   10.92
   1  -2 -21  232.34   16.06
   1   1 -21  218.88   14.10
   2  -1  21  249.87   12.25
  -1   2  21  229.34   14.40
  -1   2  21  254.26   14.38
   4  -2 -21   66.94    9.73
   4  -2 -21   58.01   10.11
  -2   4 -21   69.35    9.34
  -2  -2 -21   68.18   11.48
   2   2  21   78.39   10.21
  -4   2  21   69.24   10.97
   2   2  21   87.66   10.91
   2   2  21   52.67    9.66
   3  -3 -21   -3.07    5.14
   3  -3 -21    0.22    5.47
   0   3 -21    2.91    3.87
   3   0  21    1.78    4.38
   3   0  21    8.49    4.28
   3   0  21    1.99    4.48
  -3   3  21   -2.51    3.97
  -3   3 -21   -2.33    5.08
   3   0 -21   -1.10    5.01
   0  -3 -21    1.40    6.22
   0   3  21    2.45    4.60
   0   3  21   15.36    6.51
   3  -3  21   -0.01    3.85
   6  -3 -21   -1.13    5.65
  -3   6 -21    4.08    6.25
   3   3  21    3.41    4.67
   3   3  21    0.95    4.77
   3   3  21   -3.42    3.68
  -1   5 -21   85.68   14.23
   5  -4 -21   56.85   11.04
   4   1  21   71.51    9.86
   4   1  21   36.41    8.35
  -5   4  21   56.48    9.33
   4   1  21   66.24    9.20
   2  -4 -21   51.66   10.73
  -2   4  21   53.06    7.78
  -2   4  21   76.88   11.43
   4  -2  21   63.62    8.44
  -4   5 -21   67.58    9.87
  -1  -4 -21   56.71   11.93
   4  -5  21   84.18    9.20
   1   4  21   86.24   10.44
   1   4  21   52.63    9.39
  -2   7 -21   23.23    9.73
   7  -5 -21   24.21    9.26
  -7   5  21   16.69    7.21
   5   2  21   23.01    7.27
   5   2  21   14.14    6.49
   5   2  21   22.32    7.18
   1   4 -21   61.95   13.46
   4  -5 -21   47.99   10.25
   5  -1  21   77.89    9.74
   5  -1  21   57.34    8.83
  -4   5  21   44.98    7.44
  -5   4 -21   64.76   10.26
   1  -5 -21   49.47   11.97
   5  -4  21   79.75    9.58
  -1   5  21   69.68   11.16
  -2  -5 -21   25.19    9.45
   2   5  21   29.65    8.53
   0   6 -21   -6.67    6.68
   6  -6 -21   -5.59    6.48
   6   0  21    6.00    4.93
   6   0  21    2.24    4.78
   6   0  21    5.14    4.96
  -6   6  21   -7.79    4.65
   3  -6 -21    3.23    7.06
   6  -3  21    7.14    4.79
  -3   6  21    5.01    3.88
  -3   6  21    1.00    5.34
   0  -6 -21    3.73    8.83
   0   6  21   -0.63    5.14
   0   6  21   -2.11    3.35
   6  -6  21    7.31    5.80
   5  -7 -21   15.63    9.07
   2   5 -21   22.05   10.10
   7  -2  21   12.68    6.23
   2  -7 -21   16.43   10.20
  -2   7  21   21.42    4.74
   7  -5  21   32.96    7.89
  -2   7  21    9.51    6.88
   1  -1 -22    6.25    6.18
   1  -1 -22   15.06    6.89
   0   1 -22    7.74    5.54
  -1   1  22   13.16    6.16
   1   0  22   18.68    6.25
   0  -1  22   21.07    5.51
   1   0  22   19.14    5.53
  -1   1  22   20.04    6.52
   3  -2 -22   16.58    7.07
  -1   3 -22   28.07    7.00
  -2  -1 -22   20.43    7.09
   3  -2 -22   25.99    7.04
   2   1  22   22.60    6.36
   2   1  22   18.42    6.10
  -3   2  22   18.70    6.32
   2   1  22   21.53    6.81
  -2   2 -22    3.61    6.48
   2   0 -22    6.10    5.64
   0  -2 -22    5.38    5.80
   2  -2  22    1.43    4.09
   0   2  22    6.39    5.13
   0   2  22    2.09    5.02
   0   2  22   -3.02    4.95
   5  -3 -22   -1.23    5.72
   3   2  22   -1.76    4.14
   3   2  22    1.81    4.64
  -5   3  22    0.70    3.70
   3   2  22   -2.51    4.18
   2  -3 -22   31.88    8.96
   1   2 -22   14.23    6.25
   3  -1  22   21.61    6.01
  -2   3  22   36.19    8.04
  -2   3  22   10.74    5.31
  -3   4 -22   58.27    9.78
  -1  -3 -22   31.51    9.61
   1   3  22   47.27    8.38
   1   3  22   45.32    9.32
   1   3  22   52.14   10.05
   7  -4 -22   73.69   13.26
   4  -4 -22   41.68    9.78
   4   0  22   69.38   10.39
  -4   4  22   45.97    8.37
   4   0  22   41.14    8.27
   4   0  22   80.06   10.37
   1  -4 -22   29.21    9.53
  -4   3 -22   30.98    8.54
   4  -3  22   62.14    8.69
  -1   4  22   45.91    8.05
  -1   4  22   52.40    9.54
  -2  -4 -22   25.74    9.76
  -4   6 -22   21.52    6.66
   2   4  22   16.87    7.05
   2   4  22   23.70    6.62
   2   4  22    8.81    6.39
   6  -5 -22   -8.09    5.78
  -1   6 -22   -0.26    6.70
   5   1  22    0.02    3.76
   5   1  22   -3.12    4.50
   5   1  22   -0.41    4.52
  -6   5  22    2.53    4.63
   3  -5 -22   -5.19    6.99
   5  -2  22    6.28    4.43
  -3   5  22    4.16    4.66
  -3   5  22   -6.75    5.40
  -5   5 -22   16.40    6.69
   0  -5 -22   22.58    9.48
   0   5  22   17.50    5.63
   0   5  22    1.94    5.56
   5  -5  22   16.09    5.98
   5  -6 -22   -4.14    6.65
   1   5 -22   -0.45    7.10
   6  -1  22    6.21    5.33
  -5   6  22   -4.65    4.33
   6  -1  22    1.29    5.04
   2  -6 -22   10.44    8.96
  -6   4 -22   10.00    6.93
   6  -4  22   17.37    6.57
  -2   6  22    7.88    4.38
  -2   6  22   18.16    8.07
   4  -7 -22   53.41   14.42
   1   0 -23   -1.95    5.73
  -1   1 -23    2.13    5.99
   0  -1 -23   -2.59    6.15
   0   1  23    1.34    5.07
   0   1  23   -0.23    4.71
   0   1  23   -3.96    4.49
   1  -1  23    0.20    4.20
   0   2 -23   -5.87    4.80
   2  -2 -23    0.35    5.95
   2  -2 -23    9.05    6.94
  -2   2  23   -1.54    4.07
   2   0  23    0.04    3.79
   2   0  23    0.54    4.95
  -2   2  23   -0.94    5.34
  -2   3 -23   23.58    7.54
   3  -1 -23   24.51    7.58
  -1  -2 -23    6.41    6.80
   1   2  23   25.77    7.10
   1   2  23   17.14    6.25
   1   2  23   29.75    7.96
   4  -3 -23    0.05    5.56
  -1   4 -23   -0.23    4.39
   3   1  23    5.77    4.95
   3   1  23    4.75    5.29
  -4   3  23   -0.87    4.47
   3   1  23    0.48    4.82
   1  -3 -23   17.56    8.56
   2   1 -23   26.32    7.48
  -1   3  23   19.04    6.55
   3  -2  23   22.18    5.63
  -1   3  23   22.78    6.81
  -3   5 -23   19.48    6.86
  -2  -3 -23   17.75    7.93
   2   3  23   13.28    5.84
   2   3  23    3.97    5.44
   2   3  23   15.45    7.27
   6  -4 -23    0.73    6.66
   4   2  23    5.20    5.73
   4   2  23   -2.40    5.21
   4   2  23    9.99    6.50
  -6   4  23    0.33    3.89
   3  -4 -23   -1.13    6.47
   3  -4 -23    4.54    6.88
  -3   4  23   -0.49    4.08
   4  -1  23    2.03    4.26
  -3   4  23   -6.99    4.90
  -4   4 -23    4.02    5.49
   0  -4 -23    5.18    7.55
   4  -4  23    2.90    4.69
   0   4  23    0.01    5.07
   0   4  23   -2.59    4.53
   5  -5 -23   -3.96    6.56
  -5   5  23    3.23    4.56
   5   0  23    1.18    5.19
   5   0  23   -2.54    4.87
   5   0  23   -2.23    4.42
   2  -5 -23   10.41    8.54
  -2   5  23   11.79    7.01
  -2   5  23    7.44    5.40
   5  -3  23    6.77    5.52
  -1  -5 -23   24.45   11.19
   1   5  23    7.94    6.27
   4  -6 -23   -6.38    7.44
   6  -2  23    1.63    4.79
  -4   6  23    2.13    4.94
   1  -6 -23   15.06   10.93
   6  -5  23   17.83    7.00
  -1   6  23   12.91    7.65
   0   0 -24   25.58    8.03
   0   0  24   41.96    8.42
   2  -1 -24   49.67    9.04
  -1  -1 -24   43.07    9.63
  -1   2 -24   42.51    9.62
   1   1  24   59.85   10.02
   1   1  24   55.59    9.79
   1   1  24   80.49   11.24
   1   1 -24   66.82   10.62
   1  -2 -24   31.83    9.21
  -1   2  24   44.96    8.89
   2  -1  24   67.86    9.17
  -1   2  24   55.18    9.91
   4  -2 -24   19.22    6.92
  -2  -2 -24   13.09    7.47
  -2   4 -24   14.61    6.63
   2   2  24   12.77    6.55
   2   2  24   20.20    7.39
   2   2  24   23.72    7.02
   0   3 -24   77.50   11.39
   3  -3 -24   73.63   11.19
   3  -3 -24   57.02   10.99
   3   0  24   65.63   10.35
   3   0  24   61.14    8.97
  -3   3  24   35.22    7.35
   0  -3 -24   45.49   11.18
   3   0 -24   66.13   10.60
  -3   3 -24   54.24   10.81
   0   3  24   72.08   11.29
   3  -3  24   60.65    8.48
   0   3  24   52.96    9.81
   6  -3 -24   19.61    9.29
   5  -4 -24   31.09    9.64
  -5   4  24   26.96    7.02
   4   1  24   40.13    8.39
   4   1  24   27.71    7.99
   4   1  24   58.43   12.20
   2  -4 -24    8.57    8.21
   4  -2  24   34.08    7.46
  -2   4  24    6.47    5.26
  -2   4  24   12.13    7.64
  -4   5 -24   59.84   10.94
  -1  -4 -24   22.67   10.73
   1   4  24   46.42    9.25
   1   4  24   22.92    8.18
   4  -5 -24   21.66    8.31
  -4   5  24   23.26    6.24
   5  -1  24   44.23    8.90
   1  -5 -24   38.95   12.34
  -5   4 -24   30.86    9.07
   5  -4  24   45.91    8.51
  -1   5  24   51.60   10.43
  -1   5  24   18.24    6.02
   1  -1 -25    2.09    6.64
   0   1 -25   -5.16    5.42
   1   0  25    5.00    4.83
  -1   1  25   -5.75    4.76
  -1   3 -25   16.63    7.21
   3  -2 -25   20.17    7.69
  -2  -1 -25   24.30    8.93
   2   1  25   36.33    8.68
   2   1  25   22.21    7.62
   2   1  25   24.11    7.71
   2   0 -25   -1.41    5.93
   0  -2 -25    3.31    6.84
  -2   2 -25    0.63    5.85
   0   2  25    2.56    6.13
   2  -2  25    1.48    4.25
   0   2  25   -0.01    5.14
  -3  -2 -25   11.50    7.59
   5  -3 -25   -8.64    6.45
   3   2  25    8.32    5.20
   3   2  25   -3.22    5.97
   3   2  25    1.35    5.34
   2  -3 -25   17.03    8.21
   1   2 -25   56.93   10.42
   2  -3 -25   23.13    8.41
  -2   3  25   15.88    6.54
  -2   3  25   11.41    7.07
   3  -1  25   20.00    6.39
  -1  -3 -25   15.70    8.98
  -3   4 -25    4.87    5.91
   1   3  25    1.69    5.56
   1   3  25   -1.43    5.67
   4  -4 -25   -2.33    6.62
   4   0  25    4.28    4.89
  -4   4  25    4.33    5.19
   4   0  25    1.38    5.80
   1  -4 -25   -6.58    6.72
  -4   3 -25   -1.48    6.53
   4  -3  25   11.32    6.30
  -1   4  25    1.67    5.62
  -1   4  25    4.59    6.20
   3  -5 -25    4.33    7.14
   5  -2  25    3.48    5.49
  -3   5  25   -0.40    6.09
   1   0 -26   27.53    8.56
  -1   1 -26   22.42    8.52
   0  -1 -26    9.23    8.53
   0   1  26    7.18    6.63
   0   1  26   30.92    8.51
   1  -1  26   22.56    6.96
   0   2 -26    1.07    6.40
   2  -2 -26    9.74    7.46
  -2   2  26    0.53    4.79
   2   0  26    5.66    5.20
   3  -1 -26   -7.80    6.39
  -1  -2 -26    6.86    7.68
  -2   3 -26    0.34    6.32
   1   2  26   -4.81    5.42
   1   2  26    4.67    6.29
   1   2  26   -0.87    5.71
   4  -3 -26   13.36    8.53
  -4   3  26    5.60    5.43
   3   1  26    9.91    6.65
   3   1  26   17.99    7.25
  -3   2 -26    0.86    7.05
   1  -3 -26    6.89    8.31
   2   1 -26   -4.27    5.69
   3  -2  26   -4.29    4.31
  -1   3  26   -4.57    5.98
  -1   3  26    1.86    5.74
   3  -4 -26   -0.89    7.14
   4  -1  26   19.18    6.32
  -3   4  26    6.04    5.65
   0   0 -27   -0.62    6.67
   2  -1 -27   15.98    8.10
  -1   2 -27   25.94    8.87
   1   1  27   22.52    8.54
   1   1  27   22.27    8.39
  -2   1 -27   27.25    9.65
   1  -2 -27   16.78    9.04
   1   1 -27   11.98    8.23
  -1   2  27   18.74    7.32
   2  -1  27   14.84    6.76
   0   3 -27    2.94    6.57
   3  -3 -27   -2.42    6.56
   3   0  27   -3.58    5.30
  -3   3  27   -5.37    5.12
   0  -3 -27    7.62    8.76
  -3   3 -27   -4.07    6.21
   0   3  27    5.52    6.45
   0   3  27    0.22    6.03
   0   1 -28    1.65    7.35
   1  -1 -28    4.49    7.53
  -1   0 -28   -7.03    7.04
   1   0  28   -0.55    5.69
   0   0   0    0.00    0.00
;
_shelx_hkl_checksum              20381
loop_
_space_group_symop_operation_xyz
'x, y, z'
'-y, x-y, z'
'-x+y, -x, z'
'y, x, -z+1/2'
'x-y, -y, -z+1/2'
'-x, -x+y, -z+1/2'
'x+2/3, y+1/3, z+1/3'
'-y+2/3, x-y+1/3, z+1/3'
'-x+y+2/3, -x+1/3, z+1/3'
'y+2/3, x+1/3, -z+5/6'
'x-y+2/3, -y+1/3, -z+5/6'
'-x+2/3, -x+y+1/3, -z+5/6'
'x+1/3, y+2/3, z+2/3'
'-y+1/3, x-y+2/3, z+2/3'
'-x+y+1/3, -x+2/3, z+2/3'
'y+1/3, x+2/3, -z+7/6'
'x-y+1/3, -y+2/3, -z+7/6'
'-x+1/3, -x+y+2/3, -z+7/6'
'-x, -y, -z'
'y, -x+y, -z'
'x-y, x, -z'
'-y, -x, z-1/2'
'-x+y, y, z-1/2'
'x, x-y, z-1/2'
'-x+2/3, -y+1/3, -z+1/3'
'y+2/3, -x+y+1/3, -z+1/3'
'x-y+2/3, x+1/3, -z+1/3'
'-y+2/3, -x+1/3, z-1/6'
'-x+y+2/3, y+1/3, z-1/6'
'x+2/3, x-y+1/3, z-1/6'
'-x+1/3, -y+2/3, -z+2/3'
'y+1/3, -x+y+2/3, -z+2/3'
'x-y+1/3, x+2/3, -z+2/3'
'-y+1/3, -x+2/3, z+1/6'
'-x+y+1/3, y+2/3, z+1/6'
'x+1/3, x-y+2/3, z+1/6'
loop_
_atom_site_label
_atom_site_type_symbol
_atom_site_fract_x
_atom_site_fract_y
_atom_site_fract_z
_atom_site_U_iso_or_equiv
_atom_site_adp_type
_atom_site_occupancy
_atom_site_site_symmetry_order
_atom_site_calc_flag
_atom_site_refinement_flags_posn
_atom_site_refinement_flags_adp
_atom_site_refinement_flags_occupancy
_atom_site_disorder_assembly
_atom_site_disorder_group
Eu1 Eu 0.0000 0.0000 0.09009(8) 0.0170(5) Uani 1 3 d S T P . .
Au2 Au 0.34743(11) 0.03765(12) 0.01551(4) 0.0163(3) Uani 1 1 d . . . . .
Au3_a Au 0.1928(4) 0.0000 0.2500 0.0160(12) Uani 0.049(9) 2 d S T P A 1
Ga3_a Ga 0.1928(4) 0.0000 0.2500 0.0160(12) Uani 0.951(9) 2 d S T P A 1
loop_
_atom_site_aniso_label
_atom_site_aniso_U_11
_atom_site_aniso_U_22
_atom_site_aniso_U_33
_atom_site_aniso_U_23
_atom_site_aniso_U_13
_atom_site_aniso_U_12
Eu1 0.0181(7) 0.0181(7) 0.0148(10) 0.000 0.000 0.0090(3)
Au2 0.0190(5) 0.0160(5) 0.0134(5) -0.0012(3) 0.0001(3) 0.0084(4)
Au3_a 0.0225(16) 0.0141(17) 0.0086(17) -0.0025(12) -0.0012(6) 0.0070(9)
Ga3_a 0.0225(16) 0.0141(17) 0.0086(17) -0.0025(12) -0.0012(6) 0.0070(9)
loop_
_atom_type_symbol
_atom_type_description
_atom_type_scat_dispersion_real
_atom_type_scat_dispersion_imag
_atom_type_scat_source
Ga Ga 0.2307 1.6083 'International Tables Vol C Tables 4.2.6.8 and 6.1.1.4'
Eu Eu -0.1578 3.6682 'International Tables Vol C Tables 4.2.6.8 and 6.1.1.4'
Au Au -2.0133 8.8022 'International Tables Vol C Tables 4.2.6.8 and 6.1.1.4'
loop_
_geom_angle_atom_site_label_1
_geom_angle_atom_site_label_2
_geom_angle_atom_site_label_3
_geom_angle
_geom_angle_site_symmetry_1
_geom_angle_site_symmetry_3
Au2 Eu1 Au2 96.69(5) . 3
Au2 Eu1 Au2 96.69(5) . 2
Au2 Eu1 Au2 96.69(5) 3 2
Au2 Eu1 Au2 172.42(6) . 36_445
Au2 Eu1 Au2 89.34(3) 3 36_445
Au2 Eu1 Au2 87.13(3) 2 36_445
Au2 Eu1 Au2 87.13(3) . 34
Au2 Eu1 Au2 172.42(6) 3 34
Au2 Eu1 Au2 89.34(3) 2 34
Au2 Eu1 Au2 86.36(5) 36_445 34
Au2 Eu1 Au2 89.34(3) . 35_545
Au2 Eu1 Au2 87.13(3) 3 35_545
Au2 Eu1 Au2 172.42(6) 2 35_545
Au2 Eu1 Au2 86.36(5) 36_445 35_545
Au2 Eu1 Au2 86.36(5) 34 35_545
Au2 Eu1 Au2 123.49(2) . 18_554
Au2 Eu1 Au2 129.88(2) 3 18_554
Au2 Eu1 Au2 54.02(5) 2 18_554
Au2 Eu1 Au2 54.12(3) 36_445 18_554
Au2 Eu1 Au2 51.16(3) 34 18_554
Au2 Eu1 Au2 118.66(7) 35_545 18_554
Au2 Eu1 Au2 129.88(2) . 17_444
Au2 Eu1 Au2 54.02(5) 3 17_444
Au2 Eu1 Au2 123.49(2) 2 17_444
Au2 Eu1 Au2 51.16(3) 36_445 17_444
Au2 Eu1 Au2 118.66(7) 34 17_444
Au2 Eu1 Au2 54.12(3) 35_545 17_444
Au2 Eu1 Au2 105.14(4) 18_554 17_444
Au2 Eu1 Au2 54.02(5) . 16_544
Au2 Eu1 Au2 123.49(2) 3 16_544
Au2 Eu1 Au2 129.88(2) 2 16_544
Au2 Eu1 Au2 118.66(7) 36_445 16_544
Au2 Eu1 Au2 54.12(3) 34 16_544
Au2 Eu1 Au2 51.16(3) 35_545 16_544
Au2 Eu1 Au2 105.14(4) 18_554 16_544
Au2 Eu1 Au2 105.13(4) 17_444 16_544
Au2 Eu1 Ga3_a 82.28(4) . 27_445
Au2 Eu1 Ga3_a 45.22(3) 3 27_445
Au2 Eu1 Ga3_a 140.87(5) 2 27_445
Au2 Eu1 Ga3_a 98.90(4) 36_445 27_445
Au2 Eu1 Ga3_a 129.44(4) 34 27_445
Au2 Eu1 Ga3_a 44.46(3) 35_545 27_445
Au2 Eu1 Ga3_a 152.17(5) 18_554 27_445
Au2 Eu1 Ga3_a 47.80(3) 17_444 27_445
Au2 Eu1 Ga3_a 80.62(3) 16_544 27_445
Au2 Eu1 Au3_a 82.28(4) . 27_445
Au2 Eu1 Au3_a 45.22(3) 3 27_445
Au2 Eu1 Au3_a 140.87(5) 2 27_445
Au2 Eu1 Au3_a 98.90(4) 36_445 27_445
Au2 Eu1 Au3_a 129.44(4) 34 27_445
Au2 Eu1 Au3_a 44.46(3) 35_545 27_445
Au2 Eu1 Au3_a 152.17(5) 18_554 27_445
Au2 Eu1 Au3_a 47.80(3) 17_444 27_445
Au2 Eu1 Au3_a 80.62(3) 16_544 27_445
Ga3_a Eu1 Au3_a 0.00(3) 27_445 27_445
Au2 Eu1 Ga3_a 45.22(3) . 25
Au2 Eu1 Ga3_a 140.87(5) 3 25
Au2 Eu1 Ga3_a 82.28(4) 2 25
Au2 Eu1 Ga3_a 129.44(4) 36_445 25
Au2 Eu1 Ga3_a 44.46(3) 34 25
Au2 Eu1 Ga3_a 98.90(4) 35_545 25
Au2 Eu1 Ga3_a 80.62(3) 18_554 25
Au2 Eu1 Ga3_a 152.17(5) 17_444 25
Au2 Eu1 Ga3_a 47.81(3) 16_544 25
Ga3_a Eu1 Ga3_a 119.830(4) 27_445 25
Au3_a Eu1 Ga3_a 119.830(4) 27_445 25
Ga3_a Au2 Au3_a 0.00(11) 14_544 14_544
Ga3_a Au2 Ga3_a 153.83(4) 14_544 25
Au3_a Au2 Ga3_a 153.83(4) 14_544 25
Ga3_a Au2 Au3_a 153.83(4) 14_544 25
Au3_a Au2 Au3_a 153.83(4) 14_544 25
Ga3_a Au2 Au3_a 0.00(13) 25 25
Ga3_a Au2 Ga3_a 112.22(4) 14_544 26
Au3_a Au2 Ga3_a 112.22(4) 14_544 26
Ga3_a Au2 Ga3_a 62.37(12) 25 26
Au3_a Au2 Ga3_a 62.37(12) 25 26
Ga3_a Au2 Au3_a 112.22(4) 14_544 26
Au3_a Au2 Au3_a 112.22(4) 14_544 26
Ga3_a Au2 Au3_a 62.37(12) 25 26
Au3_a Au2 Au3_a 62.37(12) 25 26
Ga3_a Au2 Au3_a 0.00(12) 26 26
Ga3_a Au2 Au2 57.17(4) 14_544 20
Au3_a Au2 Au2 57.17(4) 14_544 20
Ga3_a Au2 Au2 146.52(7) 25 20
Au3_a Au2 Au2 146.52(7) 25 20
Ga3_a Au2 Au2 133.21(7) 26 20
Au3_a Au2 Au2 133.21(7) 26 20
Ga3_a Au2 Au2 109.59(8) 14_544 21
Au3_a Au2 Au2 109.59(8) 14_544 21
Ga3_a Au2 Au2 56.36(6) 25 21
Au3_a Au2 Au2 56.36(6) 25 21
Ga3_a Au2 Au2 111.72(7) 26 21
Au3_a Au2 Au2 111.72(7) 26 21
Au2 Au2 Au2 114.57(3) 20 21
Ga3_a Au2 Au2 140.60(8) 14_544 16_544
Au3_a Au2 Au2 140.60(8) 14_544 16_544
Ga3_a Au2 Au2 59.52(4) 25 16_544
Au3_a Au2 Au2 59.52(4) 25 16_544
Ga3_a Au2 Au2 53.80(3) 26 16_544
Au3_a Au2 Au2 53.80(3) 26 16_544
Au2 Au2 Au2 102.96(3) 20 16_544
Au2 Au2 Au2 109.71(5) 21 16_544
Ga3_a Au2 Au2 59.30(4) 14_544 19_655
Au3_a Au2 Au2 59.30(4) 14_544 19_655
Ga3_a Au2 Au2 110.04(8) 25 19_655
Au3_a Au2 Au2 110.04(8) 25 19_655
Ga3_a Au2 Au2 52.92(6) 26 19_655
Au3_a Au2 Au2 52.92(6) 26 19_655
Au2 Au2 Au2 99.71(5) 20 19_655
Au2 Au2 Au2 129.25(6) 21 19_655
Au2 Au2 Au2 96.74(5) 16_544 19_655
Ga3_a Au2 Eu1 125.90(4) 14_544 .
Au3_a Au2 Eu1 125.90(4) 14_544 .
Ga3_a Au2 Eu1 74.05(7) 25 .
Au3_a Au2 Eu1 74.05(7) 25 .
Ga3_a Au2 Eu1 116.51(6) 26 .
Au3_a Au2 Eu1 116.51(6) 26 .
Au2 Au2 Eu1 72.58(3) 20 .
Au2 Au2 Eu1 72.58(3) 21 .
Au2 Au2 Eu1 65.06(5) 16_544 .
Au2 Au2 Eu1 156.92(5) 19_655 .
Ga3_a Au2 Eu1 73.26(6) 14_544 28
Au3_a Au2 Eu1 73.26(6) 14_544 28
Ga3_a Au2 Eu1 80.61(6) 25 28
Au3_a Au2 Eu1 80.61(6) 25 28
Ga3_a Au2 Eu1 78.15(5) 26 28
Au3_a Au2 Eu1 78.15(5) 26 28
Au2 Au2 Eu1 127.74(6) 20 28
Au2 Au2 Eu1 65.51(3) 21 28
Au2 Au2 Eu1 127.07(4) 16_544 28
Au2 Au2 Eu1 63.96(3) 19_655 28
Eu1 Au2 Eu1 138.00(3) . 28
Au2 Au3_a Au2 112.66(13) 9 16_544
Au2 Au3_a Au2 118.39(6) 9 35_545
Au2 Au3_a Au2 66.48(4) 16_544 35_545
Au2 Au3_a Au2 66.48(4) 9 25
Au2 Au3_a Au2 118.39(6) 16_544 25
Au2 Au3_a Au2 172.11(14) 35_545 25
Au2 Au3_a Au2 124.57(6) 9 34
Au2 Au3_a Au2 67.78(4) 16_544 34
Au2 Au3_a Au2 111.87(6) 35_545 34
Au2 Au3_a Au2 66.67(6) 25 34
Au2 Au3_a Au2 67.78(4) 9 27_445
Au2 Au3_a Au2 124.57(6) 16_544 27_445
Au2 Au3_a Au2 66.67(6) 35_545 27_445
Au2 Au3_a Au2 111.87(6) 25 27_445
Au2 Au3_a Au2 160.35(13) 34 27_445
Au2 Au3_a Ga3_a 117.41(5) 9 3
Au2 Au3_a Ga3_a 120.00(5) 16_544 3
Au2 Au3_a Ga3_a 61.92(7) 35_545 3
Au2 Au3_a Ga3_a 110.58(7) 25 3
Au2 Au3_a Ga3_a 105.53(6) 34 3
Au2 Au3_a Ga3_a 55.71(6) 27_445 3
Au2 Au3_a Au3_a 117.41(5) 9 3
Au2 Au3_a Au3_a 120.00(5) 16_544 3
Au2 Au3_a Au3_a 61.92(7) 35_545 3
Au2 Au3_a Au3_a 110.58(7) 25 3
Au2 Au3_a Au3_a 105.53(6) 34 3
Au2 Au3_a Au3_a 55.71(6) 27_445 3
Ga3_a Au3_a Au3_a 0.00(13) 3 3
Au2 Au3_a Ga3_a 119.99(5) 9 2
Au2 Au3_a Ga3_a 117.41(5) 16_544 2
Au2 Au3_a Ga3_a 110.58(7) 35_545 2
Au2 Au3_a Ga3_a 61.92(7) 25 2
Au2 Au3_a Ga3_a 55.71(6) 34 2
Au2 Au3_a Ga3_a 105.53(6) 27_445 2
Ga3_a Au3_a Ga3_a 60.0 3 2
Au3_a Au3_a Ga3_a 60.0 3 2
Au2 Au3_a Au3_a 119.99(5) 9 2
Au2 Au3_a Au3_a 117.41(5) 16_544 2
Au2 Au3_a Au3_a 110.58(7) 35_545 2
Au2 Au3_a Au3_a 61.92(7) 25 2
Au2 Au3_a Au3_a 55.71(6) 34 2
Au2 Au3_a Au3_a 105.53(6) 27_445 2
Ga3_a Au3_a Au3_a 60.0 3 2
Au3_a Au3_a Au3_a 60.0 3 2
Ga3_a Au3_a Au3_a 0.00(6) 2 2
Au2 Au3_a Eu1 70.00(7) 9 25
Au2 Au3_a Eu1 62.27(6) 16_544 25
Au2 Au3_a Eu1 126.10(8) 35_545 25
Au2 Au3_a Eu1 60.73(4) 25 25
Au2 Au3_a Eu1 62.20(4) 34 25
Au2 Au3_a Eu1 135.64(8) 27_445 25
Ga3_a Au3_a Eu1 166.57(3) 3 25
Au3_a Au3_a Eu1 166.57(3) 3 25
Ga3_a Au3_a Eu1 106.76(3) 2 25
Au3_a Au3_a Eu1 106.76(3) 2 25
Au2 Au3_a Eu1 62.27(6) 9 34_545
Au2 Au3_a Eu1 70.00(7) 16_544 34_545
Au2 Au3_a Eu1 60.73(4) 35_545 34_545
Au2 Au3_a Eu1 126.10(8) 25 34_545
Au2 Au3_a Eu1 135.64(8) 34 34_545
Au2 Au3_a Eu1 62.20(4) 27_445 34_545
Ga3_a Au3_a Eu1 106.76(3) 3 34_545
Au3_a Au3_a Eu1 106.76(3) 3 34_545
Ga3_a Au3_a Eu1 166.57(3) 2 34_545
Au3_a Au3_a Eu1 166.57(3) 2 34_545
Eu1 Au3_a Eu1 86.55(7) 25 34_545
loop_
_geom_bond_atom_site_label_1
_geom_bond_atom_site_label_2
_geom_bond_distance
_geom_bond_site_symmetry_2
Eu1 Au2 3.2195(19) .
Eu1 Au2 3.2195(19) 3
Eu1 Au2 3.2195(19) 2
Eu1 Au2 3.280(2) 36_445
Eu1 Au2 3.280(2) 34
Eu1 Au2 3.2801(19) 35_545
Eu1 Au2 3.340(2) 18_554
Eu1 Au2 3.340(2) 17_444
Eu1 Au2 3.340(2) 16_544
Eu1 Ga3_a 3.549(3) 27_445
Eu1 Au3_a 3.549(3) 27_445
Eu1 Ga3_a 3.549(3) 25
Au2 Ga3_a 2.596(2) 14_544
Au2 Au3_a 2.596(2) 14_544
Au2 Ga3_a 2.6199(15) 25
Au2 Au3_a 2.6199(15) 25
Au2 Ga3_a 2.7978(16) 26
Au2 Au3_a 2.7978(16) 26
Au2 Au2 2.8589(19) 20
Au2 Au2 2.8589(19) 21
Au2 Au2 2.981(2) 16_544
Au2 Au2 3.012(2) 19_655
Au2 Eu1 3.280(2) 28
Au3_a Au2 2.596(2) 9
Au3_a Au2 2.596(2) 16_544
Au3_a Au2 2.6199(15) 35_545
Au3_a Au2 2.6199(15) 25
Au3_a Au2 2.7979(16) 34
Au3_a Au2 2.7979(16) 27_445
Au3_a Ga3_a 2.809(6) 3
Au3_a Au3_a 2.809(6) 3
Au3_a Ga3_a 2.809(6) 2
Au3_a Au3_a 2.809(6) 2
Au3_a Eu1 3.549(3) 25
Au3_a Eu1 3.549(3) 34_545
