#------------------------------------------------------------------------------
#$Date: 2016-02-04 01:10:17 +0200 (Thu, 04 Feb 2016) $
#$Revision: 175494 $
#$URL: svn://www.crystallography.net/cod/cif/4/34/45/4344557.cif $
#------------------------------------------------------------------------------
#
# This file is available in the Crystallography Open Database (COD),
# http://www.crystallography.net/
#
# All data on this site have been placed in the public domain by the
# contributors.
#
data_4344557
loop_
_publ_author_name
'Marchuk, Alexey'
'Schultz, Peter'
'Hoch, Constantin'
'Oeckler, Oliver'
'Schnick, Wolfgang'
_publ_section_title
;
 M2PO3N (M = Ca, Sr): ortho-Oxonitridophosphates with \b-K2SO4 Structure
 Type.
;
_journal_issue                   2
_journal_name_full               'Inorganic chemistry'
_journal_page_first              974
_journal_page_last               982
_journal_paper_doi               10.1021/acs.inorgchem.5b02647
_journal_volume                  55
_journal_year                    2016
_chemical_formula_sum            'N O3 P Sr2'
_chemical_formula_weight         268.22
_chemical_name_systematic
;
 ?
;
_space_group_crystal_system      orthorhombic
_space_group_IT_number           62
_space_group_name_Hall           '-P 2ac 2n'
_space_group_name_H-M_alt        'P n m a'
_symmetry_space_group_name_Hall  '-P 2ac 2n'
_symmetry_space_group_name_H-M   'P n m a'
_audit_creation_method           SHELXL-2014
_cell_angle_alpha                90
_cell_angle_beta                 90
_cell_angle_gamma                90
_cell_formula_units_Z            4
_cell_length_a                   7.1433(5)
_cell_length_b                   5.5711(3)
_cell_length_c                   9.8000(7)
_cell_measurement_temperature    200
_cell_volume                     390.00(4)
_computing_structure_refinement  'SHELXL-2014 (Sheldrick, 2014)'
_diffrn_ambient_temperature      200
_diffrn_measured_fraction_theta_full 1.000
_diffrn_measured_fraction_theta_max 1.000
_diffrn_measurement_device_type  'Bruker CCD'
_diffrn_radiation_type           MoK\a
_diffrn_radiation_wavelength     0.71073
_diffrn_reflns_av_R_equivalents  0.0943
_diffrn_reflns_av_unetI/netI     0.0491
_diffrn_reflns_laue_measured_fraction_full 1.000
_diffrn_reflns_laue_measured_fraction_max 1.000
_diffrn_reflns_limit_h_max       9
_diffrn_reflns_limit_h_min       -9
_diffrn_reflns_limit_k_max       6
_diffrn_reflns_limit_k_min       -7
_diffrn_reflns_limit_l_max       12
_diffrn_reflns_limit_l_min       -13
_diffrn_reflns_number            6635
_diffrn_reflns_point_group_measured_fraction_full 1.000
_diffrn_reflns_point_group_measured_fraction_max 1.000
_diffrn_reflns_theta_full        25.242
_diffrn_reflns_theta_max         28.296
_diffrn_reflns_theta_min         3.529
_exptl_absorpt_coefficient_mu    27.617
_exptl_absorpt_correction_T_max  0.7457
_exptl_absorpt_correction_T_min  0.5429
_exptl_absorpt_correction_type   multi-scan
_exptl_absorpt_process_details   Platon
_exptl_crystal_colour            colorless
_exptl_crystal_density_diffrn    4.568
_exptl_crystal_description       block
_exptl_crystal_F_000             488
_exptl_crystal_size_max          0.73
_exptl_crystal_size_mid          0.36
_exptl_crystal_size_min          0.27
_refine_diff_density_max         0.979
_refine_diff_density_min         -1.306
_refine_diff_density_rms         0.348
_refine_ls_extinction_method     none
_refine_ls_goodness_of_fit_ref   1.084
_refine_ls_hydrogen_treatment    undef
_refine_ls_matrix_type           full
_refine_ls_number_parameters     40
_refine_ls_number_reflns         532
_refine_ls_number_restraints     0
_refine_ls_restrained_S_all      1.084
_refine_ls_R_factor_all          0.0262
_refine_ls_R_factor_gt           0.0240
_refine_ls_shift/su_max          0.000
_refine_ls_shift/su_mean         0.000
_refine_ls_structure_factor_coef Fsqd
_refine_ls_weighting_details
'w=1/[\s^2^(Fo^2^)+(0.0224P)^2^+1.0156P] where P=(Fo^2^+2Fc^2^)/3'
_refine_ls_weighting_scheme      calc
_refine_ls_wR_factor_gt          0.0606
_refine_ls_wR_factor_ref         0.0614
_reflns_Friedel_coverage         0.000
_reflns_number_gt                493
_reflns_number_total             532
_reflns_threshold_expression     'I > 2\s(I)'
_cod_data_source_file            ic5b02647_si_006.cif
_cod_data_source_block           Sr2PO3N_200K
_cod_database_code               4344557
_shelx_space_group_comment
;
The symmetry employed for this shelxl refinement is uniquely defined
by the following loop, which should always be used as a source of
symmetry information in preference to the above space-group names.
They are only intended as comments.
;
_shelxl_version_number           2014-3
_shelx_res_file
;
TITL Pnma in Pnma
CELL 0.71073   7.1433   5.5711   9.8000  90.000  90.000  90.000
ZERR    4.00   0.0005   0.0003   0.0007   0.000   0.000   0.000

LATT  1
SYMM 0.5-X, -Y, 0.5+Z
SYMM -X, 0.5+Y, -Z
SYMM 0.5+X, 0.5-Y, 0.5-Z
SFAC N O P SR
UNIT 4 12 4 8
MERG 4
ACTA
L.S. 20
BOND
FMAP 2
PLAN 20
OMIT 0 60

WGHT    0.022400    1.015600
FVAR       1.59560
O1    2    0.216091    0.024199    0.333800    11.00000    0.02336    0.01992 =
         0.02129   -0.00822   -0.00720    0.00181
O2    2   -0.005149    0.250000    0.073060    10.50000    0.01393    0.02930 =
         0.01430    0.00000    0.00097    0.00000
N1    1    0.178076    0.250000    0.562733    10.50000    0.00876    0.01733 =
         0.00542    0.00000    0.00324    0.00000
P1    3    0.275468    0.250000    0.418877    10.50000    0.00747    0.00910 =
         0.00566    0.00000   -0.00001    0.00000
SR1   4    0.341008    0.250000    0.078118    10.50000    0.00887    0.01200 =
         0.01308    0.00000   -0.00151    0.00000
SR2   4    0.493633    0.250000    0.697944    10.50000    0.00632    0.01126 =
         0.00480    0.00000    0.00004    0.00000
HKLF 4 1 0 1 0 1 0 0 0 0 -1

REM  Pnma in Pnma
REM R1 =  0.0240 for     493 Fo > 4sig(Fo)  and  0.0262 for all     532 data
REM     40 parameters refined using      0 restraints

END

WGHT      0.0224      1.0156

REM Highest difference peak  0.979,  deepest hole -1.306,  1-sigma level  0.348
Q1    1   0.3516  0.0362  0.0839  11.00000  0.05    0.98
Q2    1   0.2003  0.1106  0.5880  11.00000  0.05    0.92
Q3    1   0.5046  0.0337  0.7043  11.00000  0.05    0.85
Q4    1   0.2316 -0.0991  0.4043  11.00000  0.05    0.77
Q5    1   0.2639  0.0389  0.4167  11.00000  0.05    0.68
Q6    1   0.0655  0.1087  0.2236  11.00000  0.05    0.67
Q7    1  -0.0185  0.1050  0.1632  11.00000  0.05    0.62
Q8    1  -0.0448  0.1129  0.2486  11.00000  0.05    0.59
Q9    1   0.1771  0.0844  0.2705  11.00000  0.05    0.54
Q10   1   0.2853  0.0062  0.0363  11.00000  0.05    0.54
Q11   1   0.3677 -0.0378  0.3035  11.00000  0.05    0.50
Q12   1  -0.0259  0.0087  0.0487  11.00000  0.05    0.49
Q13   1  -0.0051  0.0344  0.3758  11.00000  0.05    0.49
Q14   1   0.3085  0.1126  0.2575  11.00000  0.05    0.49
Q15   1   0.3661  0.1220  0.5841  11.00000  0.05    0.49
Q16   1   0.1827  0.1453  0.5222  11.00000  0.05    0.48
Q17   1   0.0919  0.0756  0.1073  11.00000  0.05    0.48
Q18   1   0.2850  0.0143  0.6498  11.00000  0.05    0.47
Q19   1   0.2388  0.1421 -0.0188  11.00000  0.05    0.47
Q20   1   0.2397 -0.0789  0.2572  11.00000  0.05    0.46
;
_shelx_res_checksum              91184
_shelx_hkl_file
;
   0   0  -2  35.369  20.281   1-0.55919 0.55919-0.82586 0.82586-0.07257-0.07257  0 330.52 277.91  116.68 330.52 277.58  116.57
   0   0  -2  27.016  20.930   2 0.03150-0.03150-0.99687 0.99687-0.07245-0.07245  0 325.17 283.05  114.46 325.27 283.13  114.71
   0   0  -2  43.513  21.337   2-0.11486 0.11486 0.99073-0.99073-0.07250-0.07250  0 284.25 227.06  286.94 284.30 226.97  287.12
   0   0   2  73.110  20.861   1-0.47768 0.47768-0.87553 0.87553 0.07257 0.07257  0 270.90 239.26  126.60 270.92 239.21  126.53
   0   0   2  23.024  20.488   2 0.00678-0.00678-0.99735 0.99735 0.07245 0.07245  0 274.81 233.88  107.08 274.80 233.85  106.26
   0   0   2  20.475  20.271   2-0.13954 0.13954 0.98756-0.98756 0.07250 0.07250  0 315.49 290.33  295.53 315.26 289.98  295.58
   0   0  -3   3.902  28.020   1-0.57693 0.57693-0.80951 0.80951-0.10885-0.10885  0 346.79 288.08  114.07 346.79 288.18  114.08
   0   0  -3  23.586  30.389   2 0.03743-0.03743-0.99337 0.99337-0.10868-0.10868  0 339.15 296.85  116.57 338.87 296.62  116.84
   0   0  -3   9.476  29.315   2-0.10850 0.10850 0.98813-0.98813-0.10875-0.10875  0 276.49 211.26  285.07 276.45 211.31  285.01
   0   0   3   9.181  26.952   1-0.45484 0.45484-0.88390 0.88390 0.10885 0.10885  0 256.39 229.65  129.46 256.54 229.81  129.03
   0   0   3  26.298  30.717   2 0.00028-0.00028-0.99408 0.99408 0.10868 0.10868  0 262.04 222.01  105.09 262.29 221.93  104.15
   0   0   3   0.576  30.847   2-0.14549 0.14549 0.98336-0.98336 0.10875 0.10875  0 323.24 306.87  297.55 323.31 306.82  297.70
   0   0  -4  7563.1   143.6   1-0.59389 0.59389-0.79134 0.79134-0.14513-0.14513  0 364.02 299.66  111.67 364.00 299.61  111.56
   0   0  -4  9585.4   174.4   2 0.04320-0.04320-0.98850 0.98850-0.14491-0.14491  0 353.24 310.99  119.08 353.23 310.93  118.96
   0   0  -4  8640.5   168.5   2-0.10189 0.10189 0.98417-0.98417-0.14500-0.14500  0 268.24 195.26  283.00 268.38 195.31  282.89
   0   0   4  8074.2   144.9   1-0.43085 0.43085-0.89068 0.89068 0.14513 0.14513  0 242.19 220.10  131.64 242.07 220.19  131.55
   0   0   4  9696.5   172.3   2-0.00626 0.00626-0.98943 0.98943 0.14491 0.14491  0 249.65 209.85  101.93 249.52 209.92  102.01
   0   0   4  8245.8   163.7   2-0.15125 0.15125 0.97779-0.97779 0.14511 0.14511  0 331.65 324.68  300.00 331.66 324.58  299.81
   0   0  -5 -33.177  51.305   1-0.60985 0.60985-0.77147 0.77147-0.18141-0.18141  0 382.68 312.02  109.42 382.49 312.11  109.02
   0   0  -5   8.506  53.974   2 0.04893-0.04893-0.98224 0.98224-0.18113-0.18113  0 368.65 326.48  121.47 368.68 326.34  121.09
   0   0  -5  22.122  56.949   2-0.09542 0.09542 0.97880-0.97880-0.18126-0.18126  0 260.01 178.87  280.61 260.01 178.74  280.75
   0   0   5 -31.499  37.271   1-0.40589 0.40589-0.89574 0.89574 0.18141 0.18141  0 227.11 209.98  133.82 227.33 210.16  134.10
   0   0   5   5.527  42.142   2-0.01298 0.01298-0.98337 0.98337 0.18113 0.18113  0 236.27 197.55  100.04 236.30 197.66   99.85
   0   0   5   2.119  55.070   2-0.15700 0.15700 0.97080-0.97080 0.18139 0.18139  0 340.38 343.40  301.98 340.43 343.53  301.95
   0   0  -6 12510.0   231.4   1-0.62465 0.62465-0.74995 0.74995-0.21770-0.21770  0 402.33 326.19  106.48 402.62 326.04  106.46
   0   0  -6 16757.6   290.1   2 0.05461-0.05461-0.97456 0.97456-0.21736-0.21736  0 385.20 343.28  122.94 385.53 343.16  123.23
   0   0  -6 14582.1   264.5   2-0.08871 0.08871 0.97202-0.97202-0.21751-0.21751  0 251.33 161.30  278.60 251.20 161.34  278.60
   0   0   6 14727.4   242.3   1-0.37992 0.37992-0.89904 0.89904 0.21770 0.21770  0 212.25 199.39  136.83 212.17 199.53  136.67
   0   0   6 17186.4   285.5   2-0.01995 0.01995-0.97586 0.97586 0.21747 0.21747  0 222.59 184.87   98.02 222.40 184.97   97.68
   0   0   6 14567.7   272.7   2-0.16248 0.16248 0.96240-0.96240 0.21767 0.21767  0 349.77 364.20  304.00 349.77 364.08  304.12
   0   0  -7 -27.916  82.040   1-0.63843 0.63843-0.72657 0.72657-0.25398-0.25398  0 425.00 341.78  103.44 424.86 341.90  103.86
   0   0  -7 -21.667  91.819   2 0.05999-0.05999-0.96545 0.96545-0.25359-0.25359  0 404.74 362.01  125.50 404.19 361.84  125.40
   0   0  -7  82.562  70.814   2-0.08183 0.08183 0.96380-0.96380-0.25376-0.25376  0 241.83 143.16  276.32 241.82 142.82  276.43
   0   0   7  30.121  57.439   1-0.35271 0.35271-0.90060 0.90060 0.25398 0.25398  0 196.23 188.13  139.32 196.38 188.10  139.27
   0   0   7 -15.397  67.417   2-0.02677 0.02677-0.96691 0.96691 0.25371 0.25371  0 207.60 171.52   95.41 207.70 171.74   95.50
   0   0   7  41.951  91.837   2-0.16800 0.16800 0.95252-0.95252 0.25395 0.25395  0 359.97 386.90  306.40 359.84 386.69  306.31
   0   0  -8 52463.3   532.8   1-0.65107 0.65107-0.70133 0.70133-0.29026-0.29026  0 449.59 360.49  101.11 449.89 360.28  101.22
   0   0  -8 66820.0   658.2   2 0.06531-0.06531-0.95485 0.95485-0.28981-0.28981  0 425.19 383.21  127.58 425.41 383.02  127.58
   0   0  -8 67138.7   653.0   2-0.07492 0.07492 0.95409-0.95409-0.29001-0.29001  0 231.80 122.68  274.14 231.70 122.80  274.25
   0   0   8 66323.6   591.6   1-0.32457 0.32457-0.90022 0.90022 0.29026 0.29026  0 179.73 175.39  142.00 179.74 175.57  141.91
   0   0   8 75846.7   692.5   2-0.03380 0.03380-0.95644 0.95644 0.28996 0.28996  0 191.95 157.58   93.25 191.84 157.72   93.30
   0   0   8 57492.8   611.4   2-0.17338 0.17338 0.94112-0.94112 0.29022 0.29022  0 370.92 412.24  308.60 370.92 412.05  308.52
   0   0  -9 -19.481 129.441   1-0.66243 0.66243-0.67409 0.67409-0.32679-0.32678  0 478.53 382.63   98.39 478.69 382.31   98.53
   0   0  -9  -0.798 143.919   2 0.07039-0.07039-0.94273 0.94273-0.32604-0.32604  0 449.91 407.47  130.11 449.95 407.51  129.80
   0   0  -9  43.700  94.873   2-0.06785 0.06785 0.94284-0.94284-0.32626-0.32626  0 220.43 100.62  272.52 220.62 100.78  272.03
   0   0   9 133.539  84.885   1-0.29510 0.29510-0.89793 0.89793 0.32654 0.32654  0 161.82 161.60  144.45 161.92 161.56  144.59
   0   0   9 -32.569  96.331   2-0.04097 0.04097-0.94441 0.94441 0.32620 0.32620  0 174.24 142.71   91.00 174.47 142.65   91.06
   0   0   9 -59.867 148.882   2-0.17872 0.17872 0.92815-0.92815 0.32650 0.32650  0 383.56 441.46  310.34 383.29 441.04  310.78
   0   0 -10 14107.9   458.2   2 0.07558-0.07558-0.92900 0.92900-0.36227-0.36227  0 479.15 436.80  132.21 479.21 436.59  132.04
   0   0 -10 14221.8   386.4   2-0.06076 0.06076 0.93000-0.93000-0.36251-0.36251  0 208.27  75.95  269.71 208.25  76.08  269.79
   0   0  10 13976.6   334.1   1-0.26457 0.26457-0.89351 0.89351 0.36283 0.36283  0 142.47 145.41  147.31 142.53 145.61  147.32
   0   0  10 15524.3   397.0   2-0.04828 0.04828-0.93075 0.93075 0.36245 0.36245  0 155.21 126.01   89.02 155.13 126.16   88.80
   0   0  10 12765.1   439.4   2-0.18380 0.18380 0.91357-0.91357 0.36278 0.36278  0 397.05 475.06  313.21 397.45 474.96  313.05
   0   0 -11  22.914 157.093   2-0.05343 0.05343 0.91550-0.91550-0.39876-0.39876  0 194.10  47.47  267.46 194.16  47.78  267.52
   0   0  11 215.153 136.996   1-0.23236 0.23236-0.88712 0.88712 0.39878 0.39878  0 121.11 127.17  150.44 121.03 127.07  150.10
   0   0  11  51.369 147.362   2-0.05563 0.05563-0.91540 0.91540 0.39869 0.39869  0 133.33 107.65   86.38 133.11 107.77   86.50
   0   0 -12  2817.8   346.7   2-0.04604 0.04604 0.89925-0.89925-0.43501-0.43501  0 177.62  14.15  265.30 177.72  14.52  265.21
   0   0  12  2623.2   280.4   1-0.19907 0.19907-0.87813 0.87813 0.43504 0.43504  0  96.87 104.73  152.80  96.76 104.96  152.96
   0   0  12  3227.9   329.8   2-0.06309 0.06309-0.89825 0.89825 0.43494 0.43494  0 107.67  86.74   84.35 107.53  86.84   84.16
   0   0  13  -1.130 200.645   1-0.16414 0.16414-0.86657 0.86657 0.47129 0.47129  0  68.78  77.72  155.94  68.52  77.75  155.92
   0   0  13 244.804 221.526   2-0.07072 0.07072-0.87920 0.87920 0.47118 0.47118  0  76.98  62.36   81.36  77.00  62.34   81.78
   0  -1   0   1.307  10.048   1-0.62676 0.62676-0.04971-0.04971-0.77762 0.77762  0 278.56 268.25   53.62 278.50 268.23   53.24
   0  -1   0  -4.703  10.646   2-0.21850 0.21850-0.04973-0.04973 0.97457-0.97457  0 315.49 276.68   23.21 315.35 276.63   23.00
   0  -1   0  -2.721  10.830   2 0.11777-0.11777-0.04975-0.04975-0.99179 0.99179  0 287.13 237.62  197.44 287.05 237.69  197.63
   0   1   0-2.67398  9.7750   1-0.58847 0.58847 0.04969 0.04969-0.80699 0.80699  0 322.29 247.27   46.47 322.20 247.26   46.90
   0   1   0   0.344  10.992   2-0.22544 0.22543 0.04973 0.04973 0.97299-0.97299  0 284.63 239.71   17.53 284.34 239.83   17.28
   0   1   0  -1.559  11.294   2 0.11108-0.11108 0.04976 0.04976-0.99256 0.99256  0 312.54 278.30  203.45 312.35 278.51  203.29
   0  -1  -1  47.294  14.418   1-0.30392 0.30392 0.51132-0.61070-0.80386 0.73122  0 278.19 277.80   15.60 278.23 277.65   15.46
   0  -1  -1  67.404  20.256   2-0.13926 0.13926-0.63171 0.53221 0.76259-0.83508  0 321.10 279.15   59.42 321.14 279.51   59.40
   0  -1  -1  52.592  18.104   2 0.05017-0.05017 0.53727-0.63680-0.84191 0.76940  0 286.41 231.73  233.30 286.29 231.70  233.09
   0  -1   1  31.775  19.216   1-0.70002 0.70002-0.46936 0.36994-0.53821 0.61083  0 270.58 259.26   81.23 270.54 258.84   81.48
   0  -1   1  53.744  18.303   2 0.12242-0.12242-0.63315 0.53365-0.76429 0.83680  0 281.68 234.86  161.21 281.34 234.87  161.05
   0  -1   1  44.924  18.459   2-0.23383 0.23383 0.52208-0.62155 0.82022-0.74766  0 316.11 283.34  348.46 316.33 283.25  348.39
   0   1  -1  28.624  19.214   1-0.69762 0.69762-0.37133 0.47075-0.61273 0.54012  0 330.67 256.95   74.36 330.87 256.99   74.42
   0   1  -1  53.329  19.702   2 0.12721-0.12721-0.53330 0.63279-0.83631 0.76380  0 318.21 281.49  168.01 318.26 281.68  168.12
   0   1  -1  41.693  18.052   2-0.22875 0.22875 0.62227-0.52279 0.74864-0.82119  0 283.35 233.50  341.44 283.39 233.57  341.30
   0   1   1  31.881  15.772   1-0.19480 0.19480 0.62734-0.52796-0.75399 0.82663  0 322.59 237.54    6.13 322.51 237.48    5.89
   0   1   1  57.369  19.677   2-0.15871 0.15871-0.53048 0.62998 0.83271-0.76022  0 278.75 237.22   52.32 278.78 237.28   52.24
   0   1   1  59.832  19.678   2 0.03067-0.03067 0.63726-0.53774-0.77004 0.84255  0 313.08 284.79  240.20 313.11 284.76  240.24
   0  -1  -2  1187.7    48.8   1-0.15120 0.15120-0.86176 0.76234 0.48426-0.62927  0 331.82 288.52  156.82 331.78 288.47  157.01
   0  -1  -2  1147.1    56.7   2-0.07464 0.07464-0.86874 0.76924 0.48961-0.63459  0 331.34 288.48   80.51 331.41 288.46   80.55
   0  -1  -2  1159.6    56.3   2-0.00189 0.00189 0.77148-0.87102-0.63625 0.49125  0 281.30 220.05  251.03 281.38 220.05  251.30
   0  -1   2 887.125  52.983   1-0.66759 0.66759-0.65978 0.56036-0.34499 0.49023  0 258.82 249.45   97.27 258.93 249.52   97.17
   0  -1   2  1092.2    55.8   2 0.09275-0.09275-0.86726 0.76771-0.48914 0.63405  0 271.48 226.58  140.00 271.65 226.63  140.15
   0  -1   2 985.690  54.070   2-0.21648 0.21648 0.75225-0.85172 0.62230-0.47719  0 321.41 295.79  330.97 321.50 295.74  330.82
   0   1  -2 831.047  51.362   1-0.69477 0.69477-0.53933 0.63875-0.47583 0.33059  0 343.93 267.01   86.77 343.91 266.98   86.86
   0   1  -2  1071.1    56.0   2 0.10975-0.10975-0.76664 0.86613-0.63263 0.48762  0 328.57 290.88  150.03 328.59 290.86  150.28
   0   1  -2  1014.2    55.1   2-0.19948 0.19948 0.85471-0.75524 0.47924-0.62435  0 278.31 221.83  320.97 278.37 221.82  320.63
   0   1   2  1135.5    48.1   1 0.02032-0.02032-0.77169 0.87111 0.63568-0.49067  0 269.74 228.80  170.85 269.87 228.86  171.12
   0   1   2  1209.9    57.6   2-0.10711 0.10711-0.76679 0.86629 0.63290-0.48792  0 268.98 229.12   70.23 269.14 229.16   70.31
   0   1   2  1055.2    55.5   2-0.03418 0.03418 0.87053-0.77099-0.49092 0.63592  0 318.12 297.22  261.54 318.10 297.14  261.55
   0  -1  -3 24569.5   208.3   1-0.33283 0.33283-0.90053 0.80109 0.27977-0.49747  0 345.11 299.43  140.95 345.10 299.39  141.14
   0  -1  -3 25599.6   246.6   2-0.03663 0.03663-0.95195 0.85244 0.30407-0.52154  0 343.80 300.22   92.48 343.82 300.18   92.43
   0  -1  -3 23537.8   237.4   2-0.02757 0.02757 0.85266-0.95220-0.52174 0.30423  0 274.71 206.09  259.43 274.83 206.12  259.47
   0  -1   3 19092.0   209.3   1-0.62258 0.62258-0.75316 0.65372-0.21246 0.43016  0 246.14 240.10  107.09 245.99 240.17  106.83
   0  -1   3 24474.1   243.3   2 0.06737-0.06737-0.95036 0.85081-0.30378 0.52114  0 260.21 216.38  128.23 260.37 216.40  128.43
   0  -1   3 22617.1   233.9   2-0.20369 0.20369 0.83405-0.93352 0.51271-0.29504  0 328.26 311.00  323.00 328.36 310.92  322.89
   0   1  -3 17988.4   204.4   1-0.68306 0.68306-0.60574 0.70516-0.40804 0.19019  0 359.19 277.47   92.01 359.21 277.46   92.33
   0   1  -3 25656.9   248.4   2 0.09669-0.09669-0.84860 0.94815-0.52013 0.30277  0 340.91 302.69  142.00 340.93 302.65  142.23
   0   1  -3 21071.7   226.5   2-0.17450 0.17450 0.93867-0.83920 0.29740-0.51507  0 271.63 207.87  309.01 271.73 207.88  308.98
   0   1   3 26025.5   214.7   1-0.11573 0.11573-0.84710 0.94652 0.51868-0.30116  0 257.85 219.23  160.20 258.05 219.33  159.96
   0   1   3 22932.8   233.9   2-0.07231 0.07231 0.95015-0.85061-0.30330 0.52080  0 324.85 312.41  273.41 324.82 312.30  273.44
   0  -1  -4 22574.4   230.7   1-0.43240 0.43240-0.89030 0.79086 0.14283-0.43309  0 360.67 311.21  131.45 360.61 311.14  131.39
   0  -1  -4 26976.6   289.5   2-0.01204 0.01204-0.98430 0.88475 0.17610-0.46591  0 357.61 313.63   99.99 357.59 313.53  100.15
   0  -1  -4 24256.3   277.1   2-0.03953 0.03953 0.88414-0.98368-0.46555 0.17554  0 267.32 190.97  262.95 267.45 191.02  263.23
   0  -1   4 18790.9   234.6   1-0.57952 0.57952-0.80691 0.70747-0.11426 0.40453  0 232.39 230.53  113.99 232.28 230.59  113.70
   0  -1   4 23782.9   272.1   2 0.04808-0.04808-0.98326 0.88371-0.17574 0.46555  0 248.39 205.22  121.05 248.25 205.28  120.77
   0  -1   4 21573.1   262.9   2-0.19684 0.19684 0.86631-0.96579 0.45908-0.16885  0 336.03 327.93  319.25 336.10 327.81  319.28
   0   1  -4 17442.7   228.1   1-0.67635 0.67635-0.63188 0.73130-0.37852 0.08804  0 376.14 288.69   94.73 376.12 288.68   94.62
   0   1  -4 22689.4   267.9   2 0.08945-0.08945-0.88098 0.98053-0.46462 0.17480  0 354.61 316.15  138.47 354.63 316.10  138.54
   0   1  -4 20564.3   257.2   2-0.15543 0.15543 0.97288-0.87341 0.17129-0.46151  0 264.17 192.77  301.43 264.29 192.81  301.36
   0   1   4 24790.8   241.1   1-0.17499 0.17499-0.87029 0.96972 0.46040-0.17038  0 245.03 209.40  154.93 244.90 209.51  155.02
   0   1   4 27510.5   291.7   2-0.06940 0.06940-0.88262 0.98212 0.46494-0.17498  0 245.92 207.92   82.00 245.75 207.96   82.20
   0   1   4 24252.0   275.6   2-0.09670 0.09670 0.97994-0.88040-0.17426 0.46427  0 332.50 329.28  281.00 332.45 329.16  281.17
   0  -1  -5 37993.4   334.2   1-0.49583 0.49583-0.86737 0.76793 0.04267-0.40550  0 377.94 324.18  124.59 377.86 324.08  124.47
   0  -1  -5 45998.4   419.1   2 0.00560-0.00560-0.99685 0.89730 0.07912-0.44139  0 372.79 328.52  105.98 372.75 328.40  105.87
   0  -1  -5 41851.6   403.4   2-0.04480 0.04480 0.89636-0.99590-0.44105 0.07854  0 259.36 174.91  264.96 259.51 174.94  264.82
   0  -1   5 37617.3   367.9   1-0.53988 0.53988-0.84099 0.74156-0.03544 0.39827  0 218.08 220.61  119.06 217.98 220.69  119.12
   0  -1   5 43947.1   410.2   2 0.03258-0.03258-0.99634 0.89679-0.07898 0.44125  0 235.53 193.46  115.00 235.41 193.53  115.09
   0  -1   5 36883.3   380.5   2-0.19374 0.19374 0.87884-0.97832 0.43600-0.07322  0 344.48 346.41  318.01 344.55 346.28  317.75
   0   1  -5 31345.1   334.0   1-0.67427 0.67427-0.63903 0.73845-0.37013 0.00704  0 394.38 300.96   95.01 394.72 300.91   95.26
   0   1  -5 42474.1   405.3   2 0.08623-0.08623-0.89366 0.99321-0.44038 0.07812  0 369.68 331.12  136.97 369.66 331.03  136.97
   0   1  -5 30823.2   348.5   2-0.14013 0.14013 0.98720-0.88766 0.07615-0.43866  0 256.35 176.78  295.99 256.34 176.80  295.80
   0   1   5 43947.8   358.8   1-0.19847 0.19847-0.87795 0.97737 0.43568-0.07315  0 231.09 199.10  152.94 230.98 199.24  153.01
   0   1   5 46660.2   421.7   2-0.06429 0.06429-0.89536 0.99486 0.44069-0.07824  0 233.04 196.21   83.99 232.92 196.29   83.79
   0   1   5 39914.9   391.8   2-0.11406 0.11406 0.99048-0.89094-0.07705 0.43956  0 340.82 347.76  286.98 340.75 347.61  286.85
   0  -1  -6  1224.8   121.2   1-0.54079 0.54079-0.84034 0.74090-0.03713-0.39826  0 396.74 338.63  118.89 396.94 338.58  119.01
   0  -1  -6  1257.4   132.0   2 0.01943-0.01943-0.99981 0.90026 0.00019-0.43491  0 389.32 345.11  110.55 389.48 344.90  110.49
   0  -1  -6  1349.8   113.2   2-0.04611 0.04611 0.89940-0.99894-0.43469-0.00032  0 251.11 157.90  265.26 250.99 157.84  265.23
   0  -1   6  1113.0    97.6   1-0.50229 0.50229-0.86412 0.76468 0.03170 0.40369  0 203.04 210.20  123.92 203.03 210.27  123.72
   0  -1   6  1388.8   113.2   2 0.01950-0.01950-0.99981 0.90026-0.00019 0.43491  0 221.87 181.05  110.51 221.82 181.19  110.51
   0  -1   6  1340.2   138.3   2-0.19299 0.19300 0.88172-0.98119 0.43050 0.00484  0 353.65 366.72  317.44 353.74 366.57  317.38
   0   1  -6  1027.1   107.1   1-0.67529 0.67529-0.63556 0.73498-0.37422-0.06150  0 414.96 314.55   95.03 415.28 314.51   94.95
   0   1  -6  1527.2   138.1   2 0.08539-0.08539-0.89680 0.99635-0.43412-0.00060  0 386.04 347.72  136.52 386.23 347.63  136.56
   0   1  -6  1224.8   110.0   2-0.12691 0.12691 0.99191-0.89237-0.00193-0.43309  0 247.86 159.81  291.09 247.74 159.78  291.23
   0   1   6  1352.9    94.3   1-0.20391 0.20391-0.87955 0.97898 0.42989 0.00514  0 216.45 188.23  152.57 216.40 188.30  152.55
   0   1   6  1415.2   116.0   2-0.06298 0.06298-0.89851 0.99801 0.43441 0.00053  0 219.35 183.96   83.99 219.30 184.02   84.20
   0   1   6  1367.6   136.3   2-0.12756 0.12756 0.99183-0.89229 0.00194 0.43307  0 349.85 368.05  291.51 349.74 367.88  291.45
   0  -1  -7  3274.2   162.0   1-0.57503 0.57503-0.81138 0.71195-0.10488-0.40308  0 417.92 355.26  114.36 418.16 355.09  114.35
   0  -1  -7  3701.5   199.6   2 0.03078-0.03078-0.99724 0.89769-0.06762-0.43956  0 408.03 363.51  114.46 408.22 363.39  114.44
   0  -1  -7  3623.3   174.5   2-0.04513 0.04513 0.89712-0.99666-0.43947-0.06804  0 241.95 139.40  264.73 241.83 139.47  264.92
   0  -1   7  3285.0   151.4   1-0.46594 0.46594-0.88008 0.78064 0.09143 0.41653  0 187.32 199.00  127.96 187.26 199.12  127.83
   0  -1   7  3585.1   169.4   2 0.00768-0.00768-0.99769 0.89814 0.06753 0.43965  0 207.35 167.97  106.58 207.27 168.13  106.56
   0  -1   7  3507.0   197.8   2-0.19372 0.19372 0.87893-0.97841 0.43583 0.07207  0 363.77 389.20  317.95 363.77 389.07  317.74
   0   1  -7  2714.9   181.9   1-0.67818 0.67818-0.62525 0.72467-0.38617-0.12216  0 437.96 329.98   94.03 438.27 329.94   94.03
   0   1  -7  3520.8   196.9   2 0.08604-0.08604-0.89440 0.99395-0.43891-0.06826  0 404.60 366.41  136.76 404.77 366.25  136.87
   0   1  -7  3386.4   168.6   2-0.11544 0.11544 0.99090-0.89136-0.06917-0.43834  0 238.60 141.41  287.05 238.50 141.52  287.31
   0   1   7  3734.9   153.5   1-0.19863 0.19863-0.87800 0.97742 0.43550 0.07204  0 201.14 176.22  153.01 201.09 176.44  153.00
   0   1   7  4008.3   179.0   2-0.06397 0.06397-0.89611 0.99562 0.43919 0.06823  0 204.74 170.99   84.01 204.71 171.07   83.89
   0   1   7  3280.8   193.9   2-0.13904 0.13904 0.98783-0.88829 0.06977 0.43774  0 359.60 390.51  295.46 359.55 390.34  295.41
   0  -1  -8  2661.3   195.3   1-0.60281 0.60281-0.78062 0.68119-0.16507-0.41546  0 441.90 374.65  109.99 442.03 374.36  110.17
   0  -1  -8  3395.0   230.2   2 0.04060-0.04060-0.99092 0.89137-0.12818-0.45145  0 429.41 384.62  118.10 429.59 384.49  117.98
   0  -1  -8  3353.9   192.7   2-0.04264 0.04264 0.89125-0.99079-0.45150-0.12851  0 231.90 119.30  264.27 231.86 119.49  264.14
   0  -1   8  2860.9   164.2   1-0.43014 0.43014-0.89085 0.79141 0.14619 0.43434  0 170.50 186.80  131.68 170.53 186.96  131.63
   0  -1   8  3489.5   192.8   2-0.00319 0.00319-0.99177 0.89222 0.12803 0.45160  0 191.55 154.05  103.30 191.49 154.18  103.00
   0  -1   8  2587.2   220.4   2-0.19542 0.19542 0.87229-0.97177 0.44823 0.13222  0 374.85 414.59  318.64 374.89 414.45  318.56
   0   1  -8  2330.4   195.4   1-0.68206 0.68206-0.60999 0.70940-0.40337-0.17758  0 464.16 347.95   92.85 464.42 347.85   92.69
   0   1  -8  3260.2   224.0   2 0.08764-0.08764-0.88825 0.98780-0.45092-0.12871  0 425.71 387.49  137.61 425.86 387.47  137.64
   0   1  -8  2939.0   184.1   2-0.10476 0.10476 0.98605-0.88651-0.12933-0.45069  0 228.49 121.61  284.05 228.43 121.67  283.81
   0   1   8  3227.5   167.3   1-0.18637 0.18637-0.87419 0.97362 0.44839 0.13166  0 184.85 163.11  153.99 184.87 163.37  154.04
   0   1   8  3529.9   194.7   2-0.06648 0.06648-0.88995 0.98945 0.45119 0.12872  0 188.93 157.11   82.99 188.90 157.26   83.10
   0   1   8  3027.1   227.5   2-0.14885 0.14885 0.98023-0.88070 0.13033 0.44969  0 370.47 415.78  299.00 370.41 415.71  298.97
   0  -1  -9  1515.1   174.7   1-0.62561 0.62561-0.74842 0.64899-0.22016-0.43293  0 469.37 397.66  106.30 469.49 397.28  106.28
   0  -1  -9  1570.5   199.9   2 0.04935-0.04935-0.98173 0.88218-0.18377-0.46832  0 454.28 409.05  121.02 454.47 408.97  121.24
   0  -1  -9  1768.3   195.9   2-0.03891 0.03891 0.88261-0.98215-0.46849-0.18403  0 220.95  97.23  262.94 220.90  97.40  263.03
   0  -1   9  1678.0   162.2   1-0.39454 0.39454-0.89741 0.79797 0.19748 0.45561  0 152.43 173.33  135.12 152.48 173.44  135.23
   0  -1   9  2099.9   193.7   2-0.01343 0.01343-0.98291 0.88336 0.18359 0.46850  0 174.15 138.98   99.70 174.14 139.10   99.71
   0  -1   9  1416.4   194.3   2-0.19767 0.19767 0.86270-0.96217 0.46549 0.18751  0 387.21 443.55  319.83 387.43 443.56  319.70
   0   1  -9  1283.1   186.3   1-0.68634 0.68634-0.59075 0.69017-0.42421-0.22936  0 494.55 369.11   91.02 494.72 369.14   91.05
   0   1  -9  1548.0   198.9   2 0.08987-0.08987-0.87922 0.97877-0.46786-0.18422  0 450.27 412.26  138.72 450.39 412.13  138.75
   0   1  -9  1640.6   189.9   2-0.09481 0.09481 0.97823-0.87869-0.18463-0.46789  0 217.30  99.58  280.53 217.33  99.75  280.55
   0   1   9  1604.3   151.3   1-0.16920 0.16920-0.86837 0.96780 0.46616 0.18640  0 167.45 148.56  155.50 167.49 148.70  155.49
   0   1   9  1676.4   186.9   2-0.07008 0.07008-0.88087 0.98037 0.46814 0.18427  0 171.42 142.28   81.96 171.51 142.33   81.99
   0   1   9  1490.6   199.1   2-0.15778 0.15778 0.96973-0.87026 0.18636 0.46664  0 382.58 444.79  302.34 382.66 444.77  302.25
   0  -1 -10 786.187 184.950   1-0.64471 0.64471-0.71450 0.61506-0.27173-0.45392  0 501.53 425.26  102.75 501.74 425.37  102.58
   0  -1 -10 908.670 229.118   2 0.05744-0.05744-0.97010 0.87055-0.23582-0.48872  0 484.32 438.49  124.33 484.21 438.14  124.33
   0  -1 -10 840.758 168.168   2-0.03459 0.03459 0.87159-0.97113-0.48901-0.23601  0 208.54  72.50  261.74 208.62  72.56  261.68
   0  -1  10 728.598 135.672   1-0.35856 0.35856-0.90044 0.80100 0.24625 0.47940  0 132.63 158.18  138.76 132.70 158.08  138.71
   0  -1  10 946.629 161.652   2-0.02343 0.02343-0.97149 0.87199 0.23592 0.48897  0 154.65 122.39   96.63 154.68 122.50   96.57
   0  -1  10 941.188 223.850   2-0.20037 0.20037 0.85056-0.95003 0.48621 0.23935  0 401.56 477.48  320.94 401.84 477.74  321.09
   0   1 -10 964.895 229.832   2 0.09265-0.09265-0.86773 0.96728-0.48833-0.23621  0 479.60 441.35  139.95 479.64 441.50  140.10
   0   1 -10 652.658 150.437   2-0.08510 0.08510 0.96791-0.86837-0.23646-0.48856  0 204.63  74.90  277.44 204.87  75.10  277.48
   0   1  10 806.241 135.703   1-0.14808 0.14808-0.86056 0.95998 0.48735 0.23771  0 148.52 131.81  157.27 148.58 131.90  157.27
   0   1  10 865.771 158.305   2-0.07443 0.07443-0.86932 0.96883 0.48860 0.23629  0 151.75 125.89   80.54 152.08 125.96   80.61
   0   1  10 679.271 211.050   2-0.16566 0.16566 0.95693-0.85746 0.23841 0.48715  0 396.46 479.02  305.47 396.65 478.89  305.38
   0  -1 -11 551.038 181.899   2-0.02964 0.02964 0.85841-0.95795-0.51211-0.28541  0 194.43  43.99  259.94 194.57  43.90  260.13
   0  -1  11 709.319 161.015   1-0.32226 0.32226-0.90011 0.80067 0.29317 0.50504  0 111.01 140.51  142.33 110.70 140.30  142.12
   0  -1  11 628.966 169.935   2-0.03291 0.03291-0.95785 0.85835 0.28537 0.51201  0 132.71 104.05   93.57 132.65 103.97   93.58
   0   1 -11 587.126 184.272   2-0.07574 0.07574 0.95531-0.85577-0.28574-0.51178  0 190.25  46.64  274.45 190.60  46.75  274.50
   0   1  11 615.642 150.246   1-0.12378 0.12378-0.85061 0.95004 0.51102 0.28655  0 127.87 112.31  158.94 127.63 112.20  159.29
   0   1  11 730.276 173.082   2-0.07945 0.07945-0.85551 0.95501 0.51166 0.28573  0 129.72 107.64   79.19 129.96 107.70   79.06
   0  -1 -12 290.545 212.161   2-0.02417 0.02417 0.84313-0.94267-0.53717-0.33286  0 178.17  10.51  258.98 178.15  10.17  258.42
   0  -1  12 456.065 165.717   1-0.28501 0.28501-0.89670 0.79726 0.33867 0.53211  0  85.81 119.20  145.65  85.59 119.09  145.49
   0  -1  12 477.603 206.925   2-0.04229 0.04229-0.94202 0.84252 0.33287 0.53700  0 106.72  82.43   90.55 106.96  82.79   90.65
   0   1 -12 589.444 226.038   2-0.06651 0.06651 0.94054-0.84100-0.33310-0.53693  0 173.91  13.31  271.57 173.91  13.39  271.61
   0   1  12 458.048 159.135   1-0.09673 0.09673-0.83833 0.93775 0.53651 0.33356  0 103.81  88.36  161.63 103.94  88.60  161.53
   0   1  12 649.439 199.801   2-0.08507 0.08507-0.83950 0.93900 0.53666 0.33322  0 104.02  86.97   77.40 104.13  86.80   77.34
   0  -1  13 10388.4   494.9   2-0.05160 0.05160-0.92401 0.82451 0.37887 0.56349  0  76.73  57.92   87.80  76.21  57.90   87.76
   0   1  13  8144.5   443.2   2-0.09106 0.09106-0.82132 0.92082 0.56316 0.37921  0  73.49  62.11   75.41  73.26  62.37   75.47
   0  -2   0 203.183  33.576   1-0.64312 0.64312-0.09942-0.09942-0.75929 0.75929  0 257.22 278.45   56.33 257.37 278.46   56.41
   0  -2   0 268.200  38.795   2-0.21443 0.21443-0.09947-0.09947 0.97166-0.97166  0 331.61 296.42   25.91 331.70 296.33   25.87
   0  -2   0 255.273  37.766   2 0.12071-0.12071-0.09949-0.09949-0.98769 0.98769  0 274.32 217.54  194.68 274.38 217.57  194.76
   0   2   0 165.126  32.305   1-0.56665 0.56665 0.09938 0.09938-0.81795 0.81795  0 345.61 236.02   43.72 345.72 235.87   43.73
   0   2   0 252.727  38.654   2-0.22822 0.22822 0.09947 0.09947 0.96852-0.96852  0 268.82 221.76   14.11 268.91 221.82   14.42
   0   2   0 252.829  38.613   2 0.10695-0.10695 0.09952 0.09952-0.98927 0.98927  0 325.52 300.10  206.31 325.51 300.14  206.17
   0  -2  -1  2942.1    77.7   1-0.52096 0.52096 0.19135-0.39012-0.83186 0.75922  0 259.32 288.01   37.98 259.54 287.92   37.79
   0  -2  -1  4387.7   104.5   2-0.17474 0.17474-0.43492 0.23598 0.88335-0.95592  0 336.10 297.17   46.01 336.14 297.17   45.95
   0  -2  -1  4541.5   105.6   2 0.09318-0.09318 0.23937-0.43841-0.96645 0.89393  0 274.94 213.51  214.23 275.03 213.57  214.33
   0  -2   1  2737.2    81.9   1-0.69505 0.69505-0.34337 0.14454-0.63166 0.70428  0 251.04 269.09   72.40 250.90 269.06   72.49
   0  -2   1  3818.3    99.1   2-0.23366 0.23366 0.23174-0.43068 0.94430-0.87173  0 331.11 300.96    6.99 331.12 300.91    6.69
   0  -2   1  3671.0    97.4   2 0.12911-0.12911-0.43704 0.23806-0.89012 0.96263  0 269.96 216.75  174.55 270.12 216.76  174.49
   0   2  -1  2720.4    82.0   1-0.65943 0.65943-0.15591 0.35475-0.73542 0.66280  0 353.29 245.77   60.04 353.26 245.84   60.04
   0   2  -1  4122.5   102.5   2 0.12657-0.12657-0.23817 0.43716-0.96294 0.89043  0 330.10 301.39  186.69 330.07 301.34  186.67
   0   2  -1  3602.4    96.1   2-0.23640 0.23640 0.43056-0.23171 0.87105-0.94362  0 269.26 217.48  354.30 269.44 217.50  354.33
   0   2   1  2847.1    76.4   1-0.38028 0.38028 0.41477-0.21600-0.82665 0.89929  0 343.23 225.77   22.67 343.26 225.81   22.63
   0   2   1  4356.2   104.4   2-0.20104 0.20104-0.23425 0.43318 0.95116-0.87860  0 264.71 221.33   33.95 264.86 221.33   33.73
   0   2   1  4087.6   101.3   2 0.06639-0.06639 0.43915-0.24010-0.89596 0.96847  0 324.66 304.45  226.61 324.68 304.34  226.60
   0  -2  -2 24998.3   213.0   1-0.35598 0.35598 0.44725-0.64602-0.82051 0.67523  0 256.52 297.64   19.94 256.70 297.55   20.29
   0  -2  -2 40419.9   313.3   2-0.12918 0.12918-0.67888 0.47987 0.72280-0.86778  0 344.01 302.72   62.99 344.05 302.70   62.98
   0  -2  -2 35369.3   294.2   2 0.05929-0.05929 0.48385-0.68289-0.87314 0.72811  0 272.52 205.25  229.51 272.65 205.26  229.50
   0  -2   2 24526.4   248.9   1-0.69733 0.69733-0.51590 0.31706-0.49757 0.64280  0 241.64 259.73   85.02 241.51 259.72   85.02
   0  -2   2 33004.9   286.4   2 0.11900-0.11900-0.67975 0.48077-0.72373 0.86874  0 262.65 211.87  157.49 262.83 211.90  157.50
   0  -2   2 32657.6   283.7   2-0.23562 0.23562 0.46892-0.66778 0.85123-0.70609  0 333.74 310.29  352.01 333.78 310.21  351.85
   0   2  -2 17626.6   212.7   1-0.69218 0.69218-0.32005 0.51888-0.64689 0.50165  0 364.49 255.92   71.01 364.52 255.93   70.88
   0   2  -2 36260.3   299.4   2 0.12840-0.12840-0.48007 0.67906-0.86778 0.72277  0 338.01 307.25  171.94 338.04 307.22  171.69
   0   2  -2 31215.4   280.4   2-0.22515 0.22515 0.66904-0.47010 0.70830-0.85341  0 266.66 209.00  337.95 266.77 209.06  337.72
   0   2   2 40074.9   311.7   2 0.02035-0.02035 0.68381-0.48477-0.72937 0.87441  0 327.11 313.42  244.03 327.11 313.31  243.85
   0  -2  -3 31826.4   259.0   1-0.20735 0.20735 0.61513-0.81390-0.76067 0.54274  0 249.76 307.54    7.25 249.64 307.43    6.96
   0  -2  -3 48867.1   318.9   1-0.07432 0.07432-0.82737 0.62853 0.55671-0.77423  0 355.18 311.68  163.32 355.08 311.58  163.37
   0  -2  -3 50746.1   384.6   2-0.08940 0.08940-0.82619 0.62718 0.55626-0.77373  0 354.60 311.73   75.98 354.61 311.69   75.95
   0  -2  -3 50149.2   385.1   2 0.03224-0.03224 0.62981-0.82886-0.77608 0.55853  0 267.97 193.99  239.80 268.10 194.01  239.69
   0  -2   3 32064.0   308.7   1-0.67615 0.67615-0.63259 0.43375-0.37770 0.59555  0 230.44 250.34   94.76 230.31 250.36   94.68
   0  -2   3 45658.8   367.4   2 0.10106-0.10106-0.82509 0.62599-0.55590 0.77326  0 253.63 204.28  144.68 253.44 204.30  144.68
   0  -2   3 39898.3   344.7   2-0.22957 0.22957 0.61067-0.80961 0.75788-0.54021  0 338.67 322.95  341.96 338.76 322.84  342.16
   0   2  -3 30573.1   302.0   1-0.70001 0.70001-0.41668 0.61551-0.57997 0.36211  0 378.54 266.47   77.63 378.49 266.45   77.63
   0   2  -3 46132.5   369.4   2 0.12293-0.12293-0.62463 0.82361-0.77119 0.55367  0 348.55 316.52  161.81 348.55 316.50  161.67
   0   2  -3 40024.3   346.3   2-0.20747 0.20747 0.81331-0.61436 0.54359-0.76126  0 261.93 197.69  324.94 262.06 197.76  325.05
   0   2   3 50620.6   384.3   2-0.14112 0.14112-0.62270 0.82171 0.76963-0.55216  0 248.56 209.36   58.91 248.42 209.42   58.73
   0   2   3 50636.1   384.1   2-0.01942 0.01942 0.82900-0.62992-0.55891 0.77641  0 331.79 325.91  257.03 331.77 325.78  256.91
   0  -2  -4 14544.3   201.0   1-0.23529 0.23529-0.88781 0.68896 0.39553-0.68555  0 367.05 323.94  150.16 366.97 323.83  149.85
   0  -2  -4 15488.8   243.4   2-0.05816 0.05816-0.90973 0.71072 0.41110-0.70106  0 367.25 323.30   86.07 367.24 323.24   85.69
   0  -2  -4 15020.0   241.6   2 0.01349-0.01349 0.71209-0.91113-0.70196 0.41190  0 262.02 180.66  245.99 262.14 180.72  246.14
   0  -2   4  9855.5   192.9   1-0.64588 0.64588-0.71228 0.51341-0.27476 0.56502  0 217.97 240.78  102.24 217.87 240.87  102.35
   0  -2   4 13557.3   225.6   2 0.08217-0.08217-0.90812 0.70902-0.41057 0.70038  0 242.75 194.95  135.00 242.62 194.96  135.06
   0  -2   4 11858.7   217.7   2-0.22314 0.22314 0.69135-0.89029 0.68720-0.39698  0 345.15 338.17  335.97 345.23 338.04  335.95
   0   2  -4  9125.9   191.7   1-0.69995 0.69995-0.47175 0.67059-0.53622 0.24574  0 394.44 277.65   81.70 394.74 277.63   81.65
   0   2  -4 13497.7   230.1   2 0.11652-0.11652-0.70653 0.90552-0.69802 0.40800  0 361.04 328.29  155.20 360.97 328.27  155.38
   0   2  -4  6231.4   164.8   2-0.18909 0.18909 0.89631-0.69736 0.40110-0.69133  0 256.03 184.44  315.59 255.94 184.50  315.48
   0   2   4 14576.3   232.1   2-0.12278 0.12278-0.70580 0.90481 0.69769-0.40773  0 237.75 200.21   65.00 237.62 200.29   65.12
   0   2   4 13797.8   231.0   2-0.05088 0.05088 0.91005-0.71097-0.41138 0.70138  0 338.01 341.04  266.84 337.94 340.88  266.72
   0  -2  -5 18008.2   242.4   1-0.34984 0.34984-0.90065 0.70178 0.25775-0.62058  0 381.77 337.52  139.68 381.66 337.43  139.54
   0  -2  -5 20150.2   302.9   2-0.03369 0.03369-0.95662 0.75761 0.28939-0.65183  0 381.75 337.00   93.33 381.73 336.94   93.33
   0  -2  -5 14637.7   259.4   2 0.00182-0.00182 0.75804-0.95712-0.65221 0.28970  0 255.13 165.74  249.95 255.16 165.82  250.08
   0  -2   5 13800.6   245.4   1-0.61162 0.61162-0.76907 0.57019-0.18562 0.54845  0 204.48 230.96  108.98 204.41 231.04  108.73
   0  -2   5 15858.7   266.8   2 0.06520-0.06520-0.95509 0.75599-0.28906 0.65133  0 230.75 184.39  127.46 230.63 184.43  127.54
   0  -2   5 15454.6   271.9   2-0.21837 0.21837 0.73673-0.93568 0.63995-0.27717  0 352.79 355.61  332.05 352.88 355.47  332.17
   0   2  -5 12411.2   240.9   1-0.69849 0.69849-0.50142 0.70026-0.51058 0.14748  0 412.94 289.80   84.03 413.21 289.77   83.91
   0   2  -5 17002.6   281.8   2 0.11154-0.11154-0.75260 0.95159-0.64896 0.28643  0 375.27 342.17  151.43 375.21 342.15  151.51
   0   2  -5 15661.0   266.8   2-0.17213 0.17213 0.94394-0.74499 0.28170-0.64448  0 248.99 169.67  307.94 248.79 169.71  308.00
   0   2   5 18825.4   244.5   1 0.04126-0.04126-0.75764 0.95649 0.65137-0.28884  0 228.14 187.63  172.99 228.08 187.77  172.83
   0   2   5 18404.8   284.8   2-0.11094 0.11094-0.75259 0.95160 0.64908-0.28663  0 225.75 189.84   69.01 225.64 189.94   69.05
   0   2   5 17463.1   284.0   2-0.07525 0.07525 0.95458-0.75550-0.28830 0.65081  0 345.35 358.41  274.29 345.25 358.24  274.35
   0  -2  -6 12244.6   226.9   1-0.43189 0.43189-0.89042 0.69155 0.14360-0.57899  0 398.58 352.82  131.57 398.82 352.68  131.45
   0  -2  -6 13073.5   277.6   2-0.01405 0.01405-0.98227 0.78318 0.18692-0.62164  0 397.89 352.83   99.63 398.14 352.66   99.51
   0  -2  -6 13258.5   269.9   2-0.00527 0.00527 0.78335-0.98243-0.62155 0.18654  0 247.44 149.35  252.33 247.30 149.44  252.40
   0  -2   6 10445.2   235.8   1-0.57606 0.57606-0.81037 0.61149-0.10703 0.54243  0 190.03 220.65  114.01 189.95 220.72  114.20
   0  -2   6 12658.1   264.0   2 0.04977-0.04977-0.98121 0.78211-0.18643 0.62115  0 217.66 172.81  121.28 217.57 172.88  121.40
   0  -2   6 11636.8   269.6   2-0.21527 0.21527 0.76165-0.96059 0.61119-0.17585  0 361.50 375.34  330.10 361.57 375.17  329.98
   0   2  -6  8491.8   226.9   1-0.69740 0.69740-0.51510 0.71394-0.49829 0.06258  0 433.80 303.25   84.98 434.11 303.21   84.96
   0   2  -6 12625.8   277.5   2 0.10833-0.10833-0.77776 0.97686-0.61916 0.18444  0 391.05 358.21  149.02 391.39 358.12  149.22
   0   2  -6 11224.3   251.7   2-0.15688 0.15688 0.97097-0.77202 0.18059-0.61593  0 240.95 153.42  301.80 240.76 153.48  301.91
   0   2   6 13056.5   224.5   1 0.00194-0.00194-0.78367 0.98252 0.62117-0.18613  0 215.08 176.15  169.68 215.07 176.34  169.61
   0   2   6 13370.6   269.7   2-0.10387 0.10387-0.77838 0.97738 0.61915-0.18421  0 212.65 178.48   71.20 212.56 178.59   71.35
   0   2   6 11530.5   264.7   2-0.09481 0.09481 0.97823-0.77915-0.18462 0.61963  0 353.70 378.06  280.58 353.58 377.87  280.55
   0  -2  -7  2323.6   164.5   1-0.49302 0.49302-0.86874 0.66986 0.04721-0.55517  0 418.27 370.32  125.01 418.51 370.20  124.79
   0  -2  -7  2754.6   193.1   2 0.00223-0.00223-0.99518 0.79608 0.09801-0.60518  0 416.67 371.00  104.71 416.89 370.82  104.77
   0  -2  -7  2576.7   164.8   2-0.00910 0.00910 0.79611-0.99519-0.60509 0.09757  0 238.72 131.39  253.60 238.59 131.48  253.60
   0  -2   7  2399.7   148.6   1-0.54031 0.54031-0.84069 0.64182-0.03623 0.54419  0 174.49 209.60  119.08 174.45 209.72  119.07
   0  -2   7  2470.9   161.0   2 0.03567-0.03567-0.99457 0.79547-0.09776 0.60494  0 203.37 160.17  115.96 203.34 160.32  116.19
   0  -2   7  2282.6   196.1   2-0.21351 0.21351 0.77401-0.97295 0.59609-0.08820  0 371.32 397.61  328.70 371.41 397.46  328.85
   0   2  -7  1642.9   165.2   1-0.69715 0.69715-0.51798 0.71682-0.49567-0.01267  0 457.61 318.44   85.34 457.93 318.44   85.19
   0   2  -7  2432.0   196.5   2 0.10651-0.10651-0.79058 0.98968-0.60302 0.09585  0 409.42 376.53  147.98 409.72 376.51  148.04
   0   2  -7  2222.9   160.0   2-0.14299 0.14299 0.98528-0.78620 0.09369-0.60120  0 232.04 135.65  296.97 231.92 135.71  296.82
   0   2   7  2535.0   138.0   1-0.01844 0.01844-0.79625 0.99510 0.60469-0.09714  0 200.97 163.67  168.02 200.92 163.89  167.95
   0   2   7  2417.8   159.1   2-0.10005 0.10005-0.79137 0.99037 0.60310-0.09568  0 198.32 166.18   72.54 198.29 166.27   72.55
   0   2   7  2561.7   194.9   2-0.11089 0.11089 0.98926-0.79018-0.09525 0.60276  0 363.12 400.24  286.02 362.92 400.07  285.80
   0  -2  -8  1641.0   190.6   1-0.54036 0.54036-0.84065 0.64177-0.03634-0.54418  0 440.88 390.86  119.09 441.08 390.68  119.06
   0  -2  -8  1911.3   220.2   2 0.01613-0.01613-0.99968 0.80058 0.01937-0.59900  0 438.53 392.05  109.41 438.52 391.82  109.37
   0  -2  -8  2039.8   181.1   2-0.01048 0.01048 0.80069-0.99977-0.59899 0.01898  0 229.07 111.59  253.95 228.93 111.64  254.05
   0  -2   8  1718.3   151.7   1-0.50409 0.50409-0.86318 0.66431 0.02862 0.55190  0 157.80 197.66  123.51 157.72 197.78  123.51
   0  -2   8  1783.7   171.4   2 0.02261-0.02261-0.99956 0.80046-0.01933 0.59896  0 187.76 146.60  111.59 187.75 146.63  111.63
   0  -2   8  1586.2   181.6   2-0.21293 0.21293 0.77807-0.97701 0.59099-0.01054  0 382.41 422.95  328.53 382.53 422.91  328.48
   0   2  -8  1341.1   163.0   1-0.69758 0.69758-0.51310 0.71193-0.50012-0.08084  0 485.47 336.20   84.79 485.42 336.10   84.81
   0   2  -8  1800.0   222.0   2 0.10583-0.10583-0.79513 0.99423-0.59713 0.01750  0 430.59 397.97  147.60 430.84 397.83  147.61
   0   2  -8  1821.9   171.5   2-0.12995 0.12995 0.99139-0.79231 0.01610-0.59612  0 222.10 116.07  292.32 222.02 116.15  292.28
   0   2   8  1776.4   142.3   1-0.02583 0.02583-0.80065 0.99949 0.59858-0.01853  0 185.52 149.90  167.31 185.60 150.07  167.35
   0   2   8  1814.5   170.3   2-0.09871 0.09871-0.79596 0.99497 0.59725-0.01733  0 182.70 152.79   73.01 182.60 152.89   72.99
   0   2   8  1597.8   180.5   2-0.12440 0.12440 0.99210-0.79302-0.01634 0.59636  0 373.73 425.68  290.42 373.49 425.47  290.39
   0  -2  -9  7150.0   296.5   1-0.57776 0.57776-0.80869 0.60981-0.11057-0.54252  0 467.09 415.36  114.00 467.32 415.14  113.96
   0  -2  -9  8494.8   351.3   2 0.02811-0.02811-0.99827 0.79917-0.05164-0.60045  0 464.08 416.92  113.57 464.05 416.58  113.51
   0  -2  -9  9325.4   315.5   2-0.01012 0.01012 0.79952-0.99860-0.60056-0.05196  0 218.16  89.25  253.79 218.13  89.47  253.94
   0  -2   9  7910.0   268.7   1-0.46747 0.46747-0.87952 0.68065 0.08900 0.56409  0 139.39 184.45  127.76 139.43 184.57  127.66
   0  -2   9  8952.8   302.5   2 0.01050-0.01050-0.99862 0.79952 0.05153 0.60055  0 170.39 131.47  107.48 170.46 131.65  107.50
   0  -2   9  7857.4   348.4   2-0.21319 0.21319 0.77624-0.97518 0.59329 0.05971  0 394.84 452.56  328.76 395.27 452.44  328.64
   0   2  -9  8447.3   353.3   2 0.10602-0.10602-0.79384 0.99294-0.59882-0.05327  0 455.45 423.04  148.12 455.64 422.93  147.73
   0   2  -9  8459.2   297.8   2-0.11805 0.11805 0.99153-0.79245-0.05412-0.59840  0 210.99  94.14  287.96 210.93  94.32  288.19
   0   2   9  9640.4   258.7   1-0.02388 0.02388-0.79949 0.99834 0.60020 0.05235  0 168.83 134.14  167.52 168.95 134.45  167.51
   0   2   9  9349.9   306.0   2-0.09910 0.09910-0.79463 0.99364 0.59895 0.05346  0 165.27 138.14   72.99 165.18 138.25   72.86
   0   2   9  8101.5   352.3   2-0.13658 0.13658 0.98911-0.79003 0.05486 0.59766  0 385.34 455.17  294.61 385.45 454.86  294.54
   0  -2 -10  6792.1   344.3   1-0.60847 0.60847-0.77333 0.57445-0.17814-0.54751  0 498.14 445.56  109.28 498.19 445.20  109.25
   0  -2 -10  8116.4   412.9   2 0.03878-0.03878-0.99238 0.79329-0.11692-0.60761  0 494.85 446.74  117.35 494.86 446.44  117.32
   0  -2 -10  7947.6   332.5   2-0.00839 0.00839 0.79400-0.99308-0.60786-0.11716  0 205.93  64.11  253.33 205.90  64.30  253.41
   0  -2  10  7580.6   292.0   1-0.43030 0.43030-0.89081 0.69194 0.14594 0.57971  0 119.53 169.48  131.63 119.26 169.63  131.61
   0  -2  10  8909.5   338.1   2-0.00117 0.00117-0.99317 0.79407 0.11671 0.60783  0 150.94 114.81  103.68 150.96 114.98  103.68
   0  -2  10  7448.0   417.8   2-0.21408 0.21408 0.76992-0.96886 0.60116 0.12440  0 409.71 487.44  329.18 410.13 487.42  329.23
   0   2 -10  8199.0   421.6   2 0.10687-0.10687-0.78811 0.98721-0.60619-0.11835  0 485.31 453.27  148.01 485.49 453.18  148.27
   0   2 -10  7233.3   318.0   2-0.10665 0.10665 0.98718-0.78810-0.11878-0.60624  0 198.40  69.46  284.40 198.37  69.58  284.43
   0   2  10  8636.6   283.2   1-0.01490 0.01490-0.79412 0.99296 0.60758 0.11747  0 150.50 116.16  168.25 150.68 116.44  168.24
   0   2  10  8416.0   323.8   2-0.10078 0.10078-0.78881 0.98782 0.60632 0.11858  0 145.51 121.79   72.05 145.55 122.02   72.31
   0   2  10  7076.4   400.3   2-0.14734 0.14734 0.98175-0.78267 0.12027 0.60475  0 399.27 489.97  298.42 399.39 489.74  298.38
   0  -2 -11  4824.1   335.0   2-0.00573 0.00573 0.78494-0.98402-0.61955-0.17798  0 191.80  34.93  252.52 191.80  35.11  252.54
   0  -2  11  4490.2   279.8   1-0.39257 0.39257-0.89766 0.69879 0.20024 0.59798  0  96.86 152.15  135.38  96.55 152.34  135.42
   0  -2  11  5059.1   332.5   2-0.01231 0.01231-0.98404 0.78494 0.17754 0.61945  0 128.65  95.94   99.94 128.59  96.17  100.07
   0   2 -11  4447.5   330.4   2-0.09580 0.09580 0.97914-0.78006-0.17919-0.61833  0 183.83  40.97  280.80 183.84  40.96  280.87
   0   2  11  5071.6   257.0   1-0.00038 0.00038-0.78514 0.98399 0.61932 0.17824  0 130.07  94.81  169.41 130.29  95.17  169.42
   0   2  11  4654.3   310.9   2-0.10361 0.10361-0.77931 0.97831 0.61802 0.17936  0 123.30 103.55   71.39 123.01 103.77   71.44
   0  -2  12 14507.4   461.2   1-0.35389 0.35389-0.90058 0.70171 0.25242 0.61836  0  70.70 131.67  138.97  70.42 131.78  139.16
   0  -2  12 16329.5   509.9   2-0.02334 0.02334-0.97161 0.77261 0.23542 0.63445  0 102.70  74.27   96.62 102.30  74.44   96.60
   0   2 -12 13994.5   539.7   2-0.08513 0.08513 0.96794-0.76886-0.23630-0.63372  2 166.69   7.09  277.45 166.66   7.02  277.49
   0   2  12 16202.0   434.0   1 0.01863-0.01863-0.77280 0.97165 0.63438 0.23569  0 107.15  69.10  170.91 107.10  69.42  170.98
   0   2  12 16105.8   501.9   2-0.10716 0.10716-0.76663 0.96563 0.63309 0.23679  0  96.81  82.50   69.99  96.59  82.78   70.30
   0  -3   0  27.744  32.794   1-0.65761 0.65761-0.14913-0.14913-0.73845 0.73845  0 236.08 288.99   59.59 236.07 288.96   59.60
   0  -3   0  24.021  45.532   2-0.20994 0.20994-0.14920-0.14920 0.96626-0.96626  0 349.17 317.66   28.42 349.17 317.57   28.74
   0  -3   0 -21.715  41.295   2 0.12323-0.12323-0.14924-0.14924-0.98109 0.98109  0 261.72 197.25  191.54 261.30 197.00  191.88
   0   3   0 -23.322  38.354   1-0.54281 0.54281 0.14908 0.14908-0.82652 0.82652  0 371.35 223.65   40.47 371.20 223.32   40.54
   0   3   0  -2.006  34.961   2-0.23064 0.23064 0.14920 0.14920 0.96153-0.96153  0 253.31 203.50   11.45 253.06 203.57   11.54
   0   3   0   4.727  42.436   2 0.10263-0.10263 0.14928 0.14928-0.98345 0.98345  0 339.35 323.11  209.53 339.45 323.37  209.05
   0  -3  -1 48844.4   352.9   1-0.59338 0.59338 0.03797-0.33612-0.80403 0.73139  0 239.09 298.71   47.68 239.04 298.58   47.65
   0  -3  -1 73054.8   472.2   2-0.18304 0.18304-0.37865 0.08024 0.90726-0.97982  0 353.21 317.67   42.36 353.25 317.66   42.42
   0  -3  -1 79852.8   495.4   2 0.10849-0.10849 0.08252-0.38109-0.99067 0.91815  0 262.36 193.62  204.97 262.49 193.66  205.18
   0  -3   1 45361.0   366.3   1-0.69166 0.69166-0.31608 0.01782-0.64938 0.72200  0 230.24 279.52   70.61 230.19 279.46   70.61
   0  -3   1 69001.6   460.2   2-0.22706 0.22706 0.07804-0.37644 0.97075-0.89818  0 347.95 321.53   15.77 347.94 321.48   15.66
   0  -3   1 76585.2   486.5   2 0.12934-0.12934-0.38049 0.08201-0.91570 0.98820  0 257.29 196.97  178.00 257.55 196.98  178.06
   0   3  -1 48290.7   376.5   1-0.62076 0.62076-0.03275 0.33101-0.78332 0.71070  0 378.72 233.56   52.00 378.63 233.66   52.16
   0   3  -1 72752.8   472.2   2 0.11972-0.11972-0.08230 0.38077-0.98939 0.91688  0 343.66 323.93  195.84 343.60 323.86  195.76
   0   3  -1 69344.7   462.1   2-0.23687 0.23687 0.37594-0.07765 0.89586-0.96843  0 254.33 199.90  357.97 254.13 199.91  357.78
   0   3   1 49390.9   354.6   1-0.41845 0.41845 0.36098-0.06283-0.83342 0.90606  0 367.62 212.74   26.37 367.58 212.84   26.43
   0   3   1 74940.3   478.4   2-0.21611 0.21611-0.07863 0.37704 0.97320-0.90063  0 249.68 203.88   24.69 249.53 203.88   24.67
   0   3   1 81967.5   499.3   2 0.07503-0.07503 0.38183-0.08326-0.92118 0.99370  0 337.95 326.96  223.01 337.94 326.84  222.99
   0  -3  -2  9656.2   162.1   1-0.50431 0.50431 0.22214-0.52029-0.83446 0.68918  0 238.66 308.59   35.99 238.63 308.44   35.79
   0  -3  -2 14787.1   232.4   2-0.15055 0.15055-0.57502 0.27651 0.80416-0.94914  0 360.09 321.52   54.97 360.08 321.50   55.31
   0  -3  -2 15053.2   233.0   2 0.08846-0.08846 0.27986-0.57842-0.95596 0.81093  0 261.23 186.98  216.94 261.35 187.03  216.74
   0  -3   2  8794.7   177.3   1-0.70034 0.70034-0.45308 0.15483-0.55158 0.69681  0 222.00 270.08   80.01 221.94 270.06   80.27
   0  -3   2 11934.1   211.0   2-0.23465 0.23465 0.26972-0.56812 0.93391-0.78878  0 349.37 329.19    4.41 349.33 329.10    4.43
   0  -3   2 13268.6   216.5   2 0.12540-0.12540-0.57668 0.27820-0.80729 0.95230  0 251.61 193.82  165.02 251.49 193.85  165.11
   0   3  -2  9098.0   182.3   1-0.66330 0.66330-0.17036 0.46861-0.72871 0.58347  0 389.01 243.96   60.97 389.25 244.01   60.97
   0   3  -2 13399.1   222.5   2 0.12772-0.12772-0.27807 0.57655-0.95203 0.80702  0 350.54 328.17  183.91 350.48 328.13  184.30
   0   3  -2 11577.4   203.2   2-0.23192 0.23192 0.56836-0.26995 0.78941-0.93453  0 252.85 193.06  345.18 252.67 193.08  345.19
   0   3   2  9137.2   164.2   1-0.25487 0.25487 0.56638-0.26822-0.78375 0.92903  0 368.13 201.76   10.78 368.07 201.84   11.09
   0   3   2 14953.0   228.3   2-0.19653 0.19653-0.27345 0.57186 0.94159-0.79646  0 243.79 201.09   35.99 243.65 201.12   36.04
   0   3   2 14575.2   229.2   2 0.04233-0.04233 0.57976-0.28120-0.81368 0.95872  0 339.02 334.28  236.00 339.01 334.15  236.04
   0  -3  -3 14514.1   204.0   1-0.40595 0.40595 0.37909-0.67724-0.83157 0.61364  0 234.90 318.82   25.01 234.86 318.67   25.17
   0  -3  -3 21777.9   293.4   2-0.11837 0.11837-0.72374 0.42523 0.67984-0.89731  0 369.52 328.67   66.61 369.50 328.61   66.60
   0  -3  -3 21958.8   295.3   2 0.06809-0.06809 0.42809-0.72665-0.90117 0.68362  0 258.09 177.54  225.99 258.24 177.59  225.89
   0  -3   3 13000.7   227.4   1-0.69177 0.69177-0.56090 0.26264-0.45480 0.67266  0 211.94 260.64   88.58 211.89 260.65   88.59
   0  -3   3 20455.3   282.3   2 0.11476-0.11476-0.72411 0.42563-0.68007 0.89759  0 243.52 188.14  153.94 243.41 188.18  153.94
   0  -3   3 16625.6   261.8   2-0.23661 0.23661 0.41324-0.71152 0.87935-0.66163  0 352.84 340.25  355.49 352.82 340.13  355.44
   0   3  -3 13379.1   235.7   1-0.68418 0.68418-0.26703 0.56529-0.67867 0.46081  0 402.45 254.68   67.01 402.67 254.70   67.32
   0   3  -3 20002.2   284.1   2 0.12921-0.12921-0.42456 0.72304-0.89613 0.67861  0 359.84 335.71  175.09 359.78 335.68  175.28
   0   3  -3 17634.7   263.4   2-0.22088 0.22088 0.71356-0.41514 0.66487-0.88254  0 249.50 183.53  333.97 249.28 183.61  334.13
   0   3   3 23208.2   298.1   2-0.17689 0.17689-0.42056 0.71897 0.88985-0.67216  0 235.81 195.72   44.92 235.70 195.77   45.04
   0   3   3 20145.9   282.9   2 0.00951-0.00951 0.72802-0.42945-0.68549 0.90304  0 342.18 344.95  247.43 342.16 344.80  247.47
   0  -3  -4  22.702  33.428   1-0.31602 0.31602 0.49696-0.79511-0.80819 0.51762  0 228.24 329.47   16.58 228.17 329.35   16.57
   0  -3  -4  35.380  56.716   1-0.07728 0.07728-0.82888 0.53061 0.55406-0.84409  0 381.98 338.49  162.95 381.78 338.42  163.13
   0  -3  -4  91.226  68.221   2-0.08884 0.08884-0.82794 0.52943 0.55373-0.84369  0 381.16 338.44   76.42 381.21 338.60   76.13
   0  -3  -4  85.478  57.002   2 0.05124-0.05124 0.53134-0.82991-0.84561 0.55554  0 253.36 165.96  232.58 253.55 165.87  232.68
   0  -3   4  96.332  50.441   1-0.67256 0.67256-0.64461 0.34635-0.36352 0.65399  0 200.66 251.05   95.58 200.39 251.10   95.77
   0  -3   4  40.834  53.111   2 0.10074-0.10074-0.82687 0.52823-0.55329 0.84311  0 233.56 180.31  144.36 233.69 180.48  144.50
   0  -3   4  10.541  65.422   2-0.23420 0.23420 0.51289-0.81130 0.82589-0.53567  0 358.21 354.10  349.15 358.19 353.95  349.00
   0   3  -4  24.654  69.314   1-0.69378 0.69378-0.33190 0.63016-0.63915 0.34867  0 418.62 265.91   71.61 418.71 266.01   71.70
   0   3  -4  28.521  69.807   2 0.12742-0.12742-0.52657 0.82505-0.84053 0.55050  0 371.06 345.78  168.66 371.26 346.01  168.59
   0   3  -4  44.440  52.925   2-0.20706 0.20706 0.81568-0.51727 0.54017-0.83040  0 244.47 172.11  325.08 244.35 171.93  324.81
   0   3   4  56.116  55.401   2-0.16001 0.16001-0.52307 0.82158 0.83713-0.54718  0 226.19 188.44   51.56 226.05 188.44   51.74
   0   3   4  -2.029  64.262   2-0.01995 0.01995 0.83060-0.53198-0.55651 0.84652  0 346.84 358.20  257.03 347.03 358.40  257.07
   0  -3  -5  1688.4    99.5   1-0.24374 0.24374 0.57821-0.87637-0.77863 0.41542  0 219.18 340.79    9.99 219.09 340.71   10.11
   0  -3  -5  2447.0   136.2   1-0.21162 0.21162-0.88178 0.58351 0.42152-0.78405  0 393.39 352.99  152.01 393.56 352.82  151.89
   0  -3  -5  2629.1   165.4   2-0.06319 0.06319-0.89800 0.59949 0.43544-0.79789  0 394.84 351.17   83.98 395.15 351.15   84.13
   0  -3  -5  2470.5   142.5   2 0.03823-0.03823 0.60051-0.89907-0.79870 0.43613  0 247.79 152.11  237.55 247.58 152.18  237.53
   0  -3   5  1794.0   119.8   1-0.64736 0.64736-0.70925 0.41094-0.27909 0.64192  0 187.64 241.26  102.07 187.65 241.33  102.04
   0  -3   5  2266.2   136.8   2 0.08548-0.08548-0.89646 0.59782-0.43479 0.79706  0 222.64 171.15  136.55 222.58 171.18  136.60
   0  -3   5  1564.2   150.6   2-0.23122 0.23122 0.57993-0.87835 0.78116-0.41838  0 365.02 370.56  344.41 365.02 370.40  344.37
   0   3  -5  1484.8   142.6   1-0.69780 0.69780-0.37375 0.67200-0.61105 0.24796  0 437.31 278.29   74.56 437.39 278.21   74.59
   0   3  -5  2524.8   165.3   2 0.12450-0.12450-0.59501 0.89349-0.79402 0.43149  0 384.62 358.93  163.75 384.84 358.91  163.81
   0   3  -5  2201.0   138.4   2-0.19212 0.19212 0.88509-0.58667 0.42393-0.78671  0 238.25 158.25  316.69 238.11 158.36  316.96
   0   3   5  2339.9   137.8   2-0.14718 0.14718-0.59242 0.89093 0.79207-0.42962  0 214.97 179.44   56.57 214.94 179.50   56.55
   0   3   5  2381.2   160.5   2-0.04582 0.04582 0.89874-0.60012-0.43609 0.79860  0 353.35 374.91  264.99 353.31 374.72  265.14
   0  -3  -6 219.970  56.304   1-0.19067 0.19067 0.63128-0.92944-0.75175 0.31590  0 207.98 352.77    5.50 208.16 352.97    5.54
   0  -3  -6 455.408  92.218   1-0.31944 0.31944-0.89995 0.60165 0.29672-0.73211  0 408.47 369.59  142.37 408.37 369.22  142.38
   0  -3  -6 538.922 113.762   2-0.04130 0.04130-0.94382 0.64531 0.32787-0.76280  0 411.35 366.39   90.96 411.45 366.27   90.96
   0  -3  -6 518.639 100.264   2 0.02883-0.02883 0.64568-0.94425-0.76306 0.32797  0 240.76 136.59  240.62 240.47 136.59  240.88
   0  -3   6 310.238  83.538   1-0.61792 0.61792-0.76013 0.46182-0.20092 0.63631  0 173.77 231.03  107.56 173.67 231.06  107.65
   0  -3   6 530.112  93.108   2 0.07058-0.07058-0.94226 0.64361-0.32737 0.76209  0 210.11 160.46  129.68 210.11 160.54  129.88
   0  -3   6 446.977 114.748   2-0.22866 0.22866 0.62369-0.92211 0.74748-0.31214  0 373.24 389.56  341.00 373.22 389.61  341.19
   0   3  -6 304.983 104.832   1-0.69935 0.69935-0.39899 0.69725-0.59306 0.15734  0 458.87 291.51   76.40 458.99 291.68   76.37
   0   3  -6 528.758 119.221   2 0.12198-0.12198-0.63975 0.93823-0.75884 0.32381  0 400.61 374.42  160.58 400.59 374.38  160.56
   0   3  -6 429.770  91.537   2-0.17754 0.17754 0.93119-0.63278 0.31837-0.75370  0 230.85 143.11  310.42 230.70 143.00  310.27
   0   3   6 594.648  97.989   2-0.13819 0.13819-0.63784 0.93635 0.75767-0.32274  0 202.36 169.10   60.11 202.43 169.22   59.85
   0   3   6 430.806 109.973   2-0.06769 0.06769 0.94258-0.64396-0.32704 0.76206  0 360.87 393.80  272.01 360.86 393.79  271.99
   0  -3  -7 26127.7   345.4   1-0.15452 0.15452 0.66440-0.96256-0.73123 0.22273  0 195.64 366.48    2.54 195.60 366.41    2.49
   0  -3  -7 40099.9   439.6   1-0.40359 0.40359-0.89611 0.59780 0.18468-0.69264  0 426.03 388.22  134.38 426.17 388.04  134.33
   0  -3  -7 45553.4   558.2   2-0.02245 0.02245-0.97276 0.67425 0.23074-0.73816  0 430.13 384.28   97.00 430.47 384.20   96.89
   0  -3  -7 45422.6   546.6   2 0.02247-0.02247 0.67423-0.97280-0.73818 0.23057  0 232.46 118.93  242.98 232.29 119.07  243.08
   0  -3   7 32248.1   456.7   1-0.58617 0.58617-0.79998 0.50167-0.12823 0.63619  0 158.37 220.04  112.98 158.33 220.14  112.73
   0  -3   7 42101.5   528.0   2 0.05663-0.05663-0.97142 0.67278-0.23050 0.73768  0 196.31 148.51  124.00 196.23 148.59  124.01
   0  -3   7 34657.8   502.3   2-0.22657 0.22657 0.65125-0.94966 0.72426-0.21636  0 382.62 411.91  338.89 382.85 411.82  339.10
   0   3  -7 27278.7   438.4   1-0.69991 0.69991-0.41202 0.71028-0.58341 0.07508  0 483.88 306.95   77.08 484.10 306.91   77.30
   0   3  -7 39561.1   526.6   2 0.11994-0.11994-0.66804 0.96651-0.73440 0.22686  0 418.64 392.72  158.35 418.88 392.69  158.41
   0   3  -7 36427.7   493.9   2-0.16334 0.16334 0.96103-0.66261 0.22304-0.73093  0 222.38 125.66  304.56 222.19 125.76  304.46
   0   3   7 44291.6   537.9   2-0.13194 0.13194-0.66659 0.96510 0.73366-0.22623  0 188.56 157.56   62.00 188.48 157.67   62.03
   0   3   7 40601.6   529.3   2-0.08652 0.08652 0.96960-0.67098-0.22890 0.73641  0 369.87 416.09  277.95 369.69 415.87  277.93
   0  -3  -8 822.029 139.137   1-0.47028 0.47028-0.87846 0.58015 0.08450-0.66502  0 447.23 410.61  127.41 447.27 410.21  127.35
   0  -3  -8 828.818 171.877   2-0.00594 0.00594-0.98968 0.69103 0.14317-0.72280  0 452.31 405.32  101.94 452.64 405.32  102.11
   0  -3  -8 920.415 140.751   2 0.01865-0.01865 0.69106-0.98963-0.72255 0.14243  0 223.06  99.14  244.31 222.97  99.35  244.43
   0  -3   8 679.867 120.254   1-0.55286 0.55286-0.83110 0.53279-0.06017 0.64069  0 141.56 208.09  117.43 141.54 208.31  117.43
   0  -3   8 890.834 140.455   2 0.04285-0.04285-0.98883 0.69019-0.14273 0.72236  0 180.85 135.27  119.11 180.75 135.23  118.83
   0  -3   8 763.070 170.516   2-0.22530 0.22530 0.66723-0.96564 0.70996-0.12951  0 393.99 437.97  337.67 394.04 437.65  337.86
   0   3  -8 929.634 176.513   2 0.11849-0.11849-0.68469 0.98317-0.71914 0.13909  0 440.31 414.42  157.36 440.30 414.40  157.12
   0   3  -8 796.053 133.909   2-0.14994 0.14994 0.97913-0.68051 0.13722-0.71724  0 212.59 106.37  299.40 212.55 106.42  299.38
   0   3   8 894.496 133.746   2-0.12813 0.12813-0.68350 0.98201 0.71862-0.13870  0 172.95 144.75   63.20 172.88 144.82   63.34
   0   3   8 942.452 175.337   2-0.10277 0.10277 0.98479-0.68617-0.14013 0.72015  0 380.03 441.51  283.29 379.94 441.57  283.18
   0  -3  -9 941.005 175.597   1-0.52363 0.52363-0.85193 0.55362-0.00554-0.64755  0 472.22 437.37  121.27 472.24 436.96  121.17
   0  -3  -9 817.889 203.480   2 0.00854-0.00854-0.99800 0.69935 0.06264-0.71473  0 479.75 431.28  107.12 479.29 430.78  106.85
   0  -3  -9 919.539 162.328   2 0.01668-0.01668 0.69938-0.99794-0.71456 0.06192  0 212.31  77.02  245.35 212.32  76.95  245.10
   0  -3   9 844.289 135.886   1-0.51834 0.51834-0.85516 0.55686 0.00406 0.64903  0 123.15 195.21  121.79 122.95 195.25  121.82
   0  -3   9  1133.6   166.2   2 0.02992-0.02992-0.99760 0.69895-0.06246 0.71454  0 163.39 120.22  114.34 163.35 120.27  114.14
   0  -3   9 930.144 217.913   2-0.22466 0.22466 0.67474-0.97315 0.70303-0.05003  0 406.93 468.09  337.33 407.15 468.11  337.28
   0   3  -9 878.513 217.422   2 0.11778-0.11778-0.69282 0.99129-0.71143 0.05888  0 465.91 440.56  156.35 465.82 440.43  156.48
   0   3  -9 507.664 153.194   2-0.13709 0.13709 0.98886-0.69024 0.05795-0.71047  0 201.35  84.16  294.57 201.44  84.54  294.72
   0   3   9  1121.8   158.4   2-0.12609 0.12609-0.69178 0.99029 0.71102-0.05861  0 155.18 130.29   64.14 155.30 130.45   63.99
   0   3   9  1022.6   211.8   2-0.11719 0.11719 0.99135-0.69273-0.05909 0.71161  0 391.87 471.98  287.56 391.88 471.82  287.90
   0  -3 -10  2230.9   241.3   1-0.56657 0.56657-0.81937 0.52106-0.08731-0.63835  2 501.91 469.49  115.75 502.26 469.97  115.56
   0  -3 -10  2412.7   274.6   2 0.01623-0.01623 0.70123-0.99979-0.71275-0.01240  0 200.07  50.96  244.96 200.06  51.17  245.25
   0  -3  10  2253.9   234.0   1-0.48229 0.48229-0.87360 0.57529 0.06501 0.66064  0 102.35 180.45  125.86 102.14 180.51  126.01
   0  -3  10  3119.5   269.4   2 0.01745-0.01745-0.99978 0.70113 0.01172 0.71282  0 143.64 103.41  109.63 143.56 103.40  109.82
   0   3 -10  2779.0   313.7   2 0.11763-0.11763-0.69446 0.99294-0.70985-0.01521  0 496.98 472.41  156.30 496.95 472.33  156.34
   0   3 -10  2388.3   261.6   2-0.12456 0.12456 0.99209-0.69347-0.01539-0.70963  0 188.52  59.16  290.44 188.62  59.43  290.44
   0   3  10  2873.1   257.6   2-0.12570 0.12570-0.69344 0.99195 0.70947 0.01543  0 135.04 114.12   64.29 135.26 114.30   64.13
   0  -3 -11  6239.4   390.8   2 0.01702-0.01702 0.69795-0.99651-0.71595-0.08172  0 185.70  20.75  244.70 185.71  20.92  244.99
   0  -3  11  5467.6   328.4   1-0.44538 0.44538-0.88679 0.58848 0.12344 0.67478  0  78.65 163.47  130.21  78.40 163.49  130.04
   0  -3  11  6120.1   363.9   2 0.00527-0.00527-0.99670 0.69806 0.08097 0.71602  0 121.12  84.07  106.14 120.63  84.09  105.77
   0   3 -11  4538.2   352.1   2-0.11288 0.11288 0.99006-0.69144-0.08396-0.71356  0 173.58  29.89  286.41 173.58  30.10  286.46
   0   3  11  6258.1   349.0   2-0.12654 0.12654-0.68984 0.98835 0.71282 0.08457  0 112.34  95.72   63.95 112.03  95.86   63.84
   0  -3  12-184.905 181.747   1-0.40708 0.40708-0.89554 0.59723 0.17970 0.69108  0  51.06 143.55  133.61  50.90 143.27  133.98
   0  -3  12-125.656 205.942   2-0.00650 0.00650-0.98923 0.69058 0.14622 0.72322  0  94.13  61.96  102.16  93.50  61.50  101.93
   0   3  12 186.905 209.987   2-0.12851 0.12851-0.68183 0.98034 0.72014 0.14974  0  84.09  74.24   63.64  84.53  74.46   63.21
   0  -4   0 16554.1   251.4   1-0.67022 0.67022-0.19884-0.19884-0.71503 0.71503  0 214.20 300.13   62.99 214.17 300.03   62.83
   0  -4   0 24831.1   327.6   2-0.20490 0.20490-0.19894-0.19894 0.95835-0.95835  0 368.38 341.12   31.67 368.36 341.07   31.65
   0  -4   0 25383.5   326.7   2 0.12541-0.12541-0.19899-0.19899-0.97195 0.97195  0 247.62 175.48  189.01 247.51 175.50  188.98
   0   4   0 17224.2   260.1   1-0.51712 0.51712 0.19877 0.19877-0.83251 0.83251  0 399.33 208.91   37.02 399.56 209.02   37.32
   0   4   0 24622.1   322.1   2-0.23263 0.23263 0.19894 0.19894 0.95200-0.95200  0 236.50 184.61    8.67 236.38 184.65    8.63
   0   4   0 26383.5   337.1   2 0.09767-0.09767 0.19904 0.19904-0.97511 0.97511  0 354.58 349.05  211.98 354.54 348.95  211.95
   0  -4  -1  3265.0   118.9   1-0.63184 0.63184-0.06442-0.33326-0.77242 0.69980  0 217.53 310.07   53.98 217.53 309.93   54.17
   0  -4  -1  5481.2   179.1   2-0.18402 0.18402-0.37152-0.02635 0.91000-0.98257  0 372.43 340.82   41.93 372.41 340.80   41.98
   0  -4  -1  5246.2   163.5   2 0.11610-0.11610-0.02469-0.37328-0.99293 0.92042  0 249.14 172.32  198.99 249.01 172.37  199.07
   0  -4   1  3498.0   134.4   1-0.69258 0.69258-0.32323-0.07445-0.64487 0.71749  0 208.50 290.40   71.18 208.52 290.36   71.10
   0  -4   1  5277.7   174.7   2-0.22017 0.22017-0.02772-0.37015 0.97507-0.90250  0 366.71 344.79   21.97 366.74 344.67   21.74
   0  -4   1  4939.5   159.9   2 0.12930-0.12930-0.37298-0.02499-0.91878 0.99129  0 244.10 175.93  178.57 243.99 175.90  178.52
   0   4  -1  3390.9   143.3   1-0.58519 0.58519 0.05761 0.33993-0.80885 0.73621  0 407.15 219.73   46.21 407.25 219.84   46.40
   0   4  -1  5251.8   174.8   2 0.11304-0.11304 0.02471 0.37337-0.99328 0.92077  0 358.77 349.22  201.77 358.73 349.13  201.85
   0   4  -1  4652.9   156.2   2-0.23687 0.23687 0.36944 0.02827 0.89856-0.97113  0 237.77 181.17  358.19 237.73 181.23  358.18
   0   4   1  3505.5   135.9   1-0.42063 0.42063 0.35775 0.03979-0.83372 0.90636  0 394.82 197.84   26.66 395.07 197.93   26.65
   0   4   1  5043.8   160.6   2-0.22415 0.22415 0.02789 0.36999 0.97416-0.90159  0 233.24 185.36   18.54 233.11 185.42   18.53
   0   4   1  4770.9   168.5   2 0.07622-0.07622 0.37402 0.02407-0.92428 0.99680  0 352.67 352.24  222.46 352.63 352.10  222.50
   0  -4  -2 18042.4   254.0   1-0.57918 0.57918 0.07146-0.46900-0.81206 0.66678  0 218.34 320.34   45.53 218.35 320.16   45.51
   0  -4  -2 29210.7   367.4   2-0.15897 0.15897-0.52905 0.13103 0.83357-0.97855  0 378.91 343.81   51.97 378.88 343.79   52.14
   0  -4  -2 28549.3   357.7   2 0.10395-0.10395 0.13360-0.53169-0.98557 0.84054  0 248.72 166.50  208.04 248.53 166.56  208.14
   0  -4   2 17158.6   277.6   1-0.70037 0.70037-0.43269 0.03501-0.56768 0.71292  0 200.84 280.83   78.99 200.85 280.81   78.78
   0  -4   2 26535.5   352.1   2-0.22961 0.22961 0.12660-0.52447 0.96501-0.81988  0 367.41 351.70   13.00 367.38 351.61   12.85
   0  -4   2 25729.4   341.9   2 0.12729-0.12729-0.53073 0.13276-0.83793 0.98294  0 238.62 173.72  168.31 238.52 173.73  168.29
   0   4  -2 17629.1   285.8   1-0.62954 0.62954-0.05762 0.45530-0.77483 0.62959  0 417.84 230.53   53.85 418.00 230.65   53.74
   0   4  -2 25328.5   344.7   2 0.12244-0.12244-0.13297 0.53094-0.98353 0.83852  0 365.31 352.72  193.00 365.10 352.60  192.82
   0   4  -2 22789.9   322.5   2-0.23376 0.23376 0.52408-0.12620 0.81896-0.96407  0 237.07 175.14  348.10 236.90 175.23  348.25
   0   4   2 17881.4   261.3   1-0.29795 0.29795 0.51828-0.12074-0.80163 0.94692  0 393.73 186.14   15.11 394.00 186.30   14.92
   0   4   2 26921.1   347.2   2-0.21189 0.21189-0.12800 0.52588 0.96887-0.82374  0 227.92 183.59   27.49 227.82 183.63   27.52
   0   4   2 28511.5   361.3   2 0.05092-0.05092 0.53313-0.13504-0.84450 0.98953  0 352.90 358.76  232.95 352.89 358.62  232.80
   0  -4  -3 14067.1   228.5   1-0.51763 0.51763 0.19782-0.59536-0.83242 0.61450  0 216.50 331.02   37.34 216.51 330.83   37.38
   0  -4  -3 20394.3   325.4   2-0.13304 0.13304-0.66162 0.26361 0.73794-0.95541  0 387.48 349.90   61.69 387.78 349.87   61.65
   0  -4  -3 22262.8   331.1   2 0.09013-0.09013 0.26600-0.66409-0.95975 0.74220  0 246.50 158.14  216.00 246.32 158.21  215.91
   0  -4   3 13105.2   257.0   1-0.69627 0.69627-0.52604 0.12837-0.48835 0.70621  0 191.45 271.30   85.98 191.44 271.28   85.81
   0  -4   3 18574.3   315.1   2-0.23431 0.23431 0.25482-0.65270 0.93817-0.72047  0 370.16 361.75    4.94 370.08 361.63    5.32
   0  -4   3 19543.5   312.6   2 0.12037-0.12037-0.66251 0.26454-0.73931 0.95683  0 231.32 169.23  158.95 231.22 169.26  158.84
   0   4  -3 12459.4   262.3   1-0.65693 0.65693-0.14664 0.54431-0.73955 0.52170  0 431.44 241.59   59.28 431.59 241.67   59.44
   0   4  -3 19949.5   324.3   2 0.12736-0.12736-0.26411 0.66208-0.95605 0.73853  0 373.98 359.25  185.00 373.83 359.20  185.13
   0   4  -3 17291.9   296.4   2-0.22639 0.22639 0.65358-0.25569 0.72221-0.93988  0 234.54 166.71  339.01 234.35 166.79  338.92
   0   4   3 12664.0   229.3   1-0.15868 0.15868 0.66070-0.26316-0.73369 0.95161  0 396.20 173.58    3.18 396.44 173.61    2.84
   0   4   3 20919.2   320.7   2-0.19824 0.19824-0.25877 0.65664 0.94538-0.72768  0 220.76 179.53   34.97 220.67 179.58   35.17
   0   4   3 20508.4   325.5   2 0.02436-0.02436 0.66594-0.26786-0.74560 0.96315  0 355.09 368.46  242.38 355.07 368.31  242.43
   0  -4  -4 820.350  88.728   1-0.45430 0.45430 0.30644-0.70398-0.83648 0.54592  0 212.04 342.20   29.95 212.05 342.14   30.17
   0  -4  -4  1169.9   119.1   1 0.02318-0.02318-0.76978 0.37208 0.63789-0.92791  0 403.15 355.83  171.31 403.27 355.70  171.36
   0  -4  -4  1262.3   152.1   2-0.10727 0.10727-0.76620 0.36819 0.63358-0.92354  0 398.84 358.84   70.29 399.08 358.84   70.26
   0  -4  -4  1287.3   125.9   2 0.07680-0.07680 0.36992-0.76801-0.92588 0.63582  0 242.77 147.47  222.30 242.54 147.52  222.25
   0  -4   4 885.895 106.702   1-0.68342 0.68342-0.60420 0.20653-0.40973 0.70020  0 180.44 261.72   92.26 180.52 261.64   92.19
   0  -4   4  1160.3   120.8   2 0.10981-0.10981-0.76613 0.36816-0.63323 0.92325  0 222.24 162.72  150.26 222.27 162.73  150.32
   0   4  -4 732.147 114.157   1-0.67337 0.67337-0.21234 0.61002-0.70816 0.41768  0 448.08 253.27   63.64 448.02 253.21   63.71
   0   4  -4  1294.0   131.2   2 0.12912-0.12912-0.36675 0.76472-0.92131 0.63129  0 384.69 368.74  178.80 384.79 368.71  178.92
   0   4  -4 994.202 119.147   2-0.21604 0.21604 0.75573-0.35785 0.61822-0.90845  0 230.33 156.11  330.59 230.22 156.17  330.51
   0   4   4  1175.3   120.6   2-0.18539 0.18539-0.36173 0.75960 0.91366-0.62340  0 211.84 173.48   41.30 211.78 173.52   41.38
   0   4   4  1255.8   156.1   2-0.00139 0.00139 0.76970-0.37154-0.63841 0.92842  0 358.97 381.14  251.33 358.96 381.02  251.13
   0  -4  -5  8475.0   199.0   1-0.39574 0.39574 0.39346-0.79100-0.82981 0.46660  0 205.31 354.46   23.78 205.28 354.23   24.15
   0  -4  -5 12838.5   249.5   1-0.10804 0.10804-0.84358 0.44589 0.52602-0.88854  0 412.50 371.47  160.67 412.63 371.24  160.60
   0  -4  -5 12616.5   306.7   2-0.08325 0.08325-0.84503 0.44702 0.52820-0.89064  0 412.64 370.78   77.95 412.89 370.72   77.91
   0  -4  -5 13525.5   294.7   2 0.06501-0.06501 0.44798-0.84607-0.89168 0.52910  0 237.55 134.55  227.03 237.36 134.62  227.17
   0  -4   5  8742.5   238.4   1-0.66435 0.66435-0.66897 0.27129-0.33336 0.69645  0 168.21 251.75   98.04 168.16 251.75   98.04
   0  -4   5 11837.3   279.3   2 0.09756-0.09756-0.84388 0.44568-0.52759 0.88986  0 211.85 154.42  142.71 211.73 154.47  142.74
   0  -4   5 10331.5   284.2   2-0.23640 0.23640 0.43041-0.82812 0.87113-0.50826  0 380.75 390.91  354.35 380.69 390.72  354.34
   0   4  -5  7493.3   249.3   1-0.68278 0.68278-0.25913 0.65681-0.68313 0.32004  0 467.43 265.61   66.95 467.56 265.62   66.79
   0   4  -5 10807.0   290.3   2 0.12905-0.12905-0.44374 0.84171-0.88682 0.52429  0 397.81 381.09  173.99 398.07 381.08  174.06
   0   4  -5 10657.5   269.7   2-0.20387 0.20387 0.83312-0.43523 0.51415-0.87693  0 224.85 143.31  322.93 224.67 143.49  322.99
   0   4   5 12490.4   284.1   2-0.17408 0.17408-0.43931 0.83718 0.88131-0.51848  0 201.36 165.67   46.02 201.28 165.74   46.23
   0   4   5 10247.3   280.6   2-0.02566 0.02566 0.84722-0.44906-0.53062 0.89313  0 364.54 396.98  258.78 364.44 396.75  258.87
   0  -4  -6  6101.1   184.0   1-0.34677 0.34677 0.45906-0.85660-0.81793 0.38208  0 196.37 367.58   19.39 196.37 367.38   19.41
   0  -4  -6  8759.2   244.7   1-0.22270 0.22270-0.88472 0.48702 0.40949-0.84452  0 425.14 389.23  151.01 425.31 389.02  150.94
   0  -4  -6  9582.7   300.7   2-0.06129 0.06129-0.90250 0.50449 0.42630-0.86124  0 429.14 385.57   84.71 429.42 385.50   84.71
   0  -4  -6  9264.2   274.8   2 0.05587-0.05587 0.50473-0.90282-0.86146 0.42637  0 231.07 119.47  230.99 230.90 119.60  230.89
   0  -4   6  6390.6   226.1   1-0.64074 0.64074-0.72224 0.32450-0.26042 0.69581  0 154.43 241.42  103.34 154.43 241.52  103.40
   0  -4   6  9019.1   268.6   2 0.08421-0.08421-0.90100 0.50280-0.42557 0.86029  0 199.76 144.48  135.99 199.70 144.55  136.02
   0  -4   6  7907.2   286.9   2-0.23523 0.23523 0.48497-0.88268 0.84230-0.40686  0 388.30 410.03  351.01 388.54 409.80  350.80
   0   4  -6  5927.9   255.1   1-0.68813 0.68813-0.29081 0.68849-0.66476 0.22905  0 490.59 279.31   68.92 490.61 279.31   68.91
   0   4  -6  8274.6   295.6   2 0.12807-0.12807-0.49970 0.89767-0.85668 0.42164  0 413.62 396.43  170.42 413.81 396.39  170.40
   0   4  -6  7129.9   249.6   2-0.19079 0.19079 0.89006-0.49218 0.41399-0.84933  0 217.96 128.59  316.38 217.78 128.76  316.31
   0   4   6  9715.7   275.9   2-0.16481 0.16481-0.49538 0.89339 0.85290-0.41796  0 189.25 156.33   50.12 189.20 156.43   49.89
   0   4   6  9190.9   294.6   2-0.04768 0.04768 0.90307-0.50491-0.42684 0.86185  0 371.49 415.84  265.80 371.40 415.66  265.74
   0  -4  -7 666.262  97.659   1-0.30822 0.30822 0.50625-0.90379-0.80543 0.29693  0 185.62 382.25   15.71 185.53 381.94   15.85
   0  -4  -7 939.567 142.577   1-0.32077 0.32077-0.90003 0.50229 0.29505-0.80301  0 441.21 410.03  142.28 441.32 409.83  142.26
   0  -4  -7  1494.1   187.1   2-0.04171 0.04171-0.94309 0.54507 0.32993-0.83735  0 448.91 403.69   90.61 449.09 403.58   90.83
   0  -4  -7  1271.0   151.7   2 0.04881-0.04881 0.54479-0.94288-0.83715 0.32954  0 223.24 102.07  233.57 223.16 102.29  233.60
   0  -4   7 631.436 117.512   1-0.61359 0.61359-0.76633 0.36859-0.19036 0.69832  0 138.91 230.39  108.31 139.11 230.60  108.39
   0  -4   7  1308.1   148.4   2 0.07086-0.07086-0.94155 0.54335-0.32933 0.83651  0 185.94 133.13  129.67 186.01 133.07  130.00
   0  -4   7 843.513 175.993   2-0.23380 0.23380 0.52308-0.92097 0.81959-0.31169  0 398.29 432.89  348.19 398.26 432.46  348.32
   0   4  -7  1246.0   190.5   2 0.12700-0.12700-0.53917 0.93714-0.83257 0.32503  0 432.27 414.98  167.76 432.45 415.06  167.72
   0   4  -7 992.767 143.117   2-0.17768 0.17768 0.93081-0.53293 0.31940-0.82730  0 209.65 111.68  310.41 209.54 111.88  310.33
   0   4   7  1159.3   146.5   2-0.15785 0.15785-0.53537 0.93338 0.82974-0.32231  0 175.40 145.48   52.57 175.40 145.56   52.57
   0   4   7  1166.9   177.0   2-0.06731 0.06731 0.94192-0.54376-0.32902 0.83654  0 380.01 438.54  272.03 379.83 438.05  271.86
   0  -4  -8  4440.5   193.4   1-0.28053 0.28053 0.53824-0.93578-0.79473 0.21360  0 172.88 398.46   13.31 172.85 398.35   13.35
   0  -4  -8  6339.6   275.6   1-0.40149 0.40149-0.89643 0.49868 0.18767-0.76819  0 460.96 434.43  134.70 461.00 434.40  134.54
   0  -4  -8  7073.3   352.6   2-0.02409 0.02409-0.97057 0.57256 0.23959-0.81951  0 472.45 425.68   96.40 472.72 425.59   96.35
   0  -4  -8  7300.2   299.2   2 0.04383-0.04383 0.57194-0.97003-0.81912 0.23900  0 214.25  82.27  235.50 214.07  82.42  235.49
   0  -4   8  5536.1   247.2   1-0.58386 0.58386-0.80244 0.40470-0.12327 0.70380  0 122.25 218.68  113.06 121.99 218.79  113.08
   0  -4   8  6143.0   276.2   2 0.05781-0.05781-0.96923 0.57104-0.23926 0.81889  0 170.55 119.82  124.47 170.49 119.91  124.54
   0  -4   8  5605.4   343.1   2-0.23281 0.23281 0.54887-0.94675 0.80283-0.22239  0 409.38 459.52  346.56 409.75 459.30  346.56
   0   4  -8  6322.0   352.1   2 0.12594-0.12594-0.56589 0.96386-0.81480 0.23476  0 454.55 437.75  166.03 454.70 437.72  165.87
   0   4  -8  5813.1   280.3   2-0.16451 0.16451 0.95900-0.56111 0.23078-0.81123  0 200.06  92.39  305.00 199.87  92.54  304.92
   0   4   8  6803.6   281.5   2-0.15295 0.15295-0.56244 0.96046 0.81256-0.23265  0 159.74 132.98   54.45 159.71 133.13   54.43
   0   4   8  5916.8   339.2   2-0.08489 0.08489 0.96765-0.56949-0.23759 0.81760  0 389.74 464.87  277.40 389.93 464.65  277.41
   0  -4  -9  7499.3   250.4   1-0.26260 0.26260 0.55811-0.95565-0.78712 0.13334  0 158.25 417.45   11.89 158.26 417.20   11.76
   0  -4  -9  9892.6   351.9   1-0.46821 0.46821-0.87924 0.48150 0.08782-0.74091  0 484.86 464.33  127.71 484.99 464.26  127.58
   0  -4  -9 11058.3   452.6   2-0.00820 0.00820-0.98779 0.58959 0.15558-0.80766  0 501.17 452.70  101.45 501.16 452.33  101.37
   0  -4  -9 12675.2   400.3   2 0.04049-0.04049 0.58909-0.98718-0.80705 0.15441  0 203.60  59.29  236.77 203.46  59.44  236.71
   0  -4   9  9767.6   332.1   1-0.55218 0.55218-0.83165 0.43390-0.05883 0.71192  0 103.07 205.67  117.49 102.81 205.74  117.52
   0  -4   9 11409.8   372.9   2 0.04480-0.04480-0.98689 0.58870-0.15503 0.80711  0 152.85 104.74  119.51 152.78 104.85  119.55
   0  -4   9  9227.0   446.5   2-0.23209 0.23209 0.56484-0.96273 0.79189-0.13888  0 423.17 491.65  345.41 423.61 491.49  345.44
   0   4  -9 10493.9   458.5   2 0.12512-0.12512-0.58270 0.98067-0.80300 0.15045  0 481.48 465.42  164.80 481.66 465.50  164.68
   0   4  -9  9803.3   362.1   2-0.15167 0.15167 0.97732-0.57944 0.14778-0.80078  0 188.65  70.19  299.80 188.54  70.31  299.96
   0   4   9 11820.6   370.3   2-0.14971 0.14971-0.57947 0.97748 0.80113-0.14872  0 141.80 118.82   55.62 141.77 118.95   55.63
   0   4   9  9984.2   434.5   2-0.10059 0.10059 0.98322-0.58506-0.15221 0.80473  0 401.93 496.79  282.48 402.03 496.51  282.47
   0  -4 -10  5545.1   256.6   1-0.25313 0.25313 0.56824-0.96578-0.78296 0.05654  0 141.51 439.51   11.25 141.53 439.36   10.93
   0  -4 -10  9304.8   398.3   2 0.03866-0.03866 0.59834-0.99642-0.80031 0.07516  0 191.14  32.47  237.36 190.96  32.57  237.37
   0  -4  10  7193.0   316.9   1-0.51880 0.51880-0.85489 0.45715 0.00325 0.72240  0  81.29 191.00  122.03  81.00 191.07  121.76
   0  -4  10  9224.4   393.0   2 0.03209-0.03209-0.99659 0.59839-0.07602 0.80056  0 132.37  87.44  115.13 132.36  87.52  114.92
   0   4 -10  6982.2   363.6   2-0.13917 0.13917 0.98775-0.58959 0.07060-0.79562  0 175.41  44.31  295.48 175.34  44.41  295.46
   0   4  10  8973.3   373.4   2-0.14797 0.14797-0.58850 0.98651 0.79484-0.06995  0 121.25 102.51   56.25 121.01 102.69   56.26
   0  -4 -11 728.462 160.577   1-0.25126 0.25126 0.57023-0.96777-0.78211-0.01695  0 122.32 466.62   11.05 122.24 466.06   10.77
   0  -4  11  1087.0   193.4   1-0.48342 0.48342-0.87311 0.47536 0.06314 0.73507  0  56.22 174.20  125.71  55.87 174.07  125.88
   0  -4  11  1315.8   242.9   2 0.01958-0.01958-0.99981 0.60161-0.00156 0.79855  0 108.36  66.94  110.55 108.38  67.29  110.59
   0   4 -11  1058.3   243.3   2-0.12674 0.12674 0.99193-0.59377-0.00293-0.79459  0 159.12  13.23  290.94 159.46  13.73  291.17
   0   4  11  1296.9   232.6   2-0.14748 0.14748-0.59104 0.98906 0.79304 0.00434  0  96.90  83.83   56.48  96.63  83.83   56.45
   0  -5   0  -1.085  50.371   1-0.68081 0.68081-0.24855-0.24855-0.68900 0.68900  0 191.41 312.21   66.66 191.13 312.12   66.09
   0  -5   0 -13.181  87.479   2-0.19939 0.19939-0.24867-0.24867 0.94784-0.94784  0 389.99 367.99   34.32 390.11 367.86   34.57
   0  -5   0   3.711  62.642   2 0.12689-0.12689-0.24873-0.24873-0.96022 0.96022  0 232.51 152.92  186.61 232.62 152.43  186.05
   0   5   0  26.631  82.844   1-0.48932 0.48932 0.24846 0.24846-0.83596 0.83596  0 432.10 191.94   33.95 431.99 192.13   34.05
   0   5   0  53.146  67.020   2-0.23412 0.23412 0.24867 0.24867 0.93987-0.93987  0 218.30 164.59    5.69 218.40 164.54    5.68
   0   5   0  71.384  90.735   2 0.09210-0.09210 0.24880 0.24880-0.96416 0.96416  0 371.32 377.99  214.95 371.39 377.92  214.89
   0  -5  -1 680.405  84.983   1-0.65669 0.65669-0.14575-0.35134-0.73994 0.66732  0 194.79 322.54   59.32 194.79 322.43   59.38
   0  -5  -1  1082.9   129.9   2-0.18195 0.18195-0.38592-0.11142 0.90441-0.97698  0 394.27 367.55   43.10 394.31 367.37   42.86
   0  -5  -1  1220.0   122.8   2 0.12131-0.12131-0.11024-0.38723-0.98647 0.91397  0 234.43 149.27  194.31 234.30 149.35  194.15
   0  -5   1 548.482  85.546   1-0.69531 0.69531-0.34589-0.15121-0.63000 0.70262  0 185.56 302.10   72.78 185.51 302.13   72.66
   0  -5   1 951.746 125.340   2-0.21330 0.21330-0.11236-0.38498 0.97050-0.89794  0 388.01 371.59   26.62 388.15 371.41   26.61
   0  -5   1  1001.5   121.6   2 0.12935-0.12935-0.38708-0.11039-0.91293 0.98543  0 229.38 153.27  178.07 229.17 153.13  177.65
   0   5  -1 655.275 108.605   1-0.55058 0.55058 0.13331 0.36362-0.82407 0.75143  0 440.20 203.55   41.45 440.36 203.64   41.55
   0   5  -1  1156.3   129.1   2 0.10601-0.10601 0.11007 0.38754-0.98825 0.91574  0 375.72 378.07  206.85 375.72 377.97  206.78
   0   5  -1 950.328 109.130   2-0.23686 0.23686 0.38414 0.11300 0.89238-0.96495  0 219.96 161.15  357.16 219.92 161.18  357.27
   0   5   1 723.061 103.294   1-0.40853 0.40852 0.37539 0.12153-0.83198 0.90462  0 426.49 180.35   25.35 426.64 180.27   25.43
   0   5   1 834.372 104.330   2-0.22890 0.22890 0.11289 0.38445 0.96688-0.89432  0 215.27 165.60   13.87 215.22 165.61   13.64
   0   5   1  1149.9   128.7   2 0.07416-0.07416 0.38797 0.10964-0.91869 0.99120  0 369.12 380.98  223.14 369.13 380.98  223.37
   0  -5  -2 14990.7   266.3   1-0.62398 0.62398-0.04177-0.45532-0.78032 0.63509  0 196.29 333.33   52.84 196.31 333.13   52.74
   0  -5  -2 22059.6   374.3   2-0.16146 0.16146-0.51517 0.01765 0.84174-0.98672  0 400.52 369.99   50.95 400.85 369.97   51.21
   0  -5  -2 21496.2   354.9   2 0.11343-0.11343 0.01958-0.51719-0.99335 0.84832  0 234.39 143.80  201.59 234.20 143.87  201.56
   0  -5   2 14622.1   290.9   1-0.70040 0.70040-0.43508-0.06201-0.56582 0.71105  0 178.05 292.36   79.03 178.08 292.34   78.96
   0  -5   2 20464.2   362.6   2-0.22328 0.22328 0.01457-0.51191 0.97465-0.82952  0 388.03 378.15   18.93 388.31 378.09   19.29
   0  -5   2 20774.7   350.6   2 0.12772-0.12772-0.51666 0.01919-0.84661 0.99162  0 224.04 151.51  169.24 223.98 151.53  169.25
   0   5  -2 13878.4   295.6   1-0.59466 0.59466 0.03486 0.46206-0.80322 0.65794  0 451.63 214.85   47.96 451.74 214.99   47.85
   0   5  -2 21085.9   366.0   2 0.11575-0.11575-0.01962 0.51708-0.99308 0.84807  0 382.23 381.20  199.04 382.07 381.14  199.36
   0   5  -2 19467.7   339.7   2-0.23426 0.23426 0.51113-0.01377 0.82696-0.97208  0 219.59 155.42  349.07 219.46 155.54  349.12
   0   5   2 14262.0   279.1   1-0.30905 0.30905 0.50527-0.00834-0.80573 0.95101  0 424.25 167.47   16.00 424.43 167.69   15.93
   0   5   2 21840.4   355.8   2-0.22118 0.22118-0.01471 0.51205 0.97512-0.82999  0 210.28 164.41   21.00 210.20 164.46   20.99
   0   5   2 22374.6   372.8   2 0.05346-0.05346 0.51864-0.02104-0.85332 0.99835  0 368.90 387.36  231.98 368.86 387.19  231.82
   0  -5  -3  4796.7   164.3   1-0.58477 0.58477 0.05858-0.55550-0.80908 0.59115  0 195.58 344.65   46.31 195.65 344.45   46.34
   0  -5  -3  7314.9   255.7   2-0.13958 0.13958-0.63016 0.13264 0.76382-0.98129  0 409.49 375.61   59.04 409.76 375.58   59.28
   0  -5  -3  7566.3   234.9   2 0.10386-0.10386 0.13447-0.63208-0.98546 0.76791  0 232.70 135.92  208.21 232.56 136.02  208.19
   0  -5   3  4582.9   184.7   1-0.69743 0.69743-0.51479 0.01770-0.49858 0.71643  0 168.92 282.64   84.96 168.95 282.59   84.94
   0  -5   3  6952.2   254.2   2-0.22959 0.22959 0.12612-0.62346 0.96508-0.74739  0 390.33 387.92   13.01 390.53 387.82   12.88
   0  -5   3  6989.1   227.8   2 0.12255-0.12255-0.63118 0.13371-0.76590 0.98341  0 217.16 147.74  161.21 217.07 147.79  161.19
   0   5  -3  4775.0   213.8   1-0.62518 0.62518-0.04519 0.54229-0.77917 0.56131  0 466.14 226.37   52.93 466.20 226.53   52.95
   0   5  -3  7428.7   255.7   2 0.12248-0.12248-0.13372 0.63118-0.98342 0.76590  0 390.57 387.44  192.96 390.71 387.35  192.78
   0   5  -3  6346.9   219.6   2-0.22867 0.22867 0.62351-0.12615 0.74763-0.96530  0 217.55 147.55  341.24 217.39 147.66  341.21
   0   5   3  4342.7   192.3   1-0.19516 0.19516 0.62699-0.13007-0.75418 0.97211  0 425.20 153.82    6.00 425.38 153.87    5.92
   0   5   3  7356.1   230.7   2-0.21191 0.21191-0.12779 0.62513 0.96890-0.75120  0 203.55 161.14   27.48 203.45 161.21   27.51
   0   5   3  7601.6   256.3   2 0.03133-0.03133 0.63412-0.13652-0.77260 0.99014  0 370.46 396.68  239.99 370.41 396.52  240.01
   0  -5  -4 18232.6   296.8   1-0.54232 0.54232 0.14997-0.64690-0.82668 0.53611  0 192.66 356.77   40.49 192.72 356.56   40.48
   0  -5  -4 28255.2   447.9   2-0.11748 0.11748-0.72733 0.22981 0.67616-0.96612  0 420.97 384.25   66.94 421.22 384.18   66.90
   0  -5  -4 28774.8   435.9   2 0.09411-0.09411 0.23113-0.72873-0.96836 0.67830  0 229.56 125.73  213.99 229.36 125.85  213.84
   0  -5   4 17365.5   342.4   1-0.68751 0.68751-0.58490 0.08781-0.43037 0.72085  0 158.24 272.78   90.54 158.25 272.80   90.56
   0  -5   4 24589.4   424.5   2-0.23330 0.23330 0.21950-0.71684 0.94731-0.65705  0 394.42 400.78    7.39 394.64 400.66    7.41
   0  -5   4 26058.7   417.3   2 0.11440-0.11440-0.72761 0.23015-0.67639 0.96641  0 208.55 141.97  153.61 208.50 142.04  153.64
   0   5  -4 16900.3   355.5   1-0.64588 0.64588-0.10819 0.60529-0.75573 0.46526  0 483.73 238.36   56.97 483.84 238.51   56.97
   0   5  -4 25926.0   433.3   2 0.12628-0.12628-0.22939 0.72685-0.96511 0.67508  0 401.54 396.68  186.99 401.68 396.66  187.19
   0   5  -4 23343.2   399.3   2-0.22037 0.22037 0.71838-0.22103 0.65982-0.95005  0 213.93 137.41  333.95 213.72 137.58  333.73
   0   5   4 28087.4   429.3   2-0.20234 0.20234-0.22314 0.72049 0.95355-0.66329  0 195.02 155.98   32.99 194.94 156.02   33.08
   0   5   4 27756.9   442.2   2 0.00879-0.00879 0.73105-0.23344-0.68227 0.97233  0 373.77 409.23  247.78 373.69 409.03  247.73
   0  -5  -5  8051.7   216.2   1-0.50040 0.50040 0.22907-0.72600-0.83494 0.47173  0 187.53 369.85   35.30 187.59 369.61   35.33
   0  -5  -5 11796.0   287.6   1-0.03965 0.03965-0.80872 0.31160 0.58686-0.94939  0 438.49 394.21  166.05 438.51 393.92  166.21
   0  -5  -5 12263.5   344.7   2-0.09572 0.09572-0.80616 0.30865 0.58390-0.94635  0 435.24 396.00   73.71 435.46 395.96   73.97
   0  -5  -5 12040.5   311.5   2 0.08485-0.08485 0.30926-0.80687-0.94718 0.58461  0 224.89 113.24  218.55 224.73 113.35  218.52
   0  -5   5  7730.9   250.8   1-0.67221 0.67221-0.64571 0.14862-0.36219 0.72529  0 145.99 262.75   95.96 145.99 262.77   95.87
   0  -5   5 10185.9   327.6   2-0.23506 0.23506 0.29469-0.79204 0.92623-0.56340  0 400.44 416.87    3.00 400.63 416.75    2.93
   0  -5   5 10879.6   298.9   2 0.10435-0.10435-0.80538 0.30764-0.58350 0.94576  0 198.34 134.31  146.60 198.26 134.39  146.64
   0   5  -5  7459.9   289.1   1-0.65945 0.65945-0.15599 0.65309-0.73538 0.37229  2 504.75 251.16   60.06 505.10 251.27   60.04
   0   5  -5 10441.1   330.6   2 0.12830-0.12830-0.30652 0.80398-0.94318 0.58065  0 414.99 409.11  182.57 415.11 409.06  182.59
   0   5  -5  9867.2   290.0   2-0.21037 0.21037 0.79550-0.29814 0.56827-0.93105  0 208.77 125.13  327.00 208.58 125.34  326.82
   0   5   5 11332.9   300.6   2-0.19332 0.19332-0.30038 0.79772 0.93402-0.57120  0 184.79 149.02   37.63 184.74 149.05   37.65
   0   5   5 11914.9   342.5   2-0.01301 0.01301 0.80896-0.31126-0.58773 0.95024  0 378.74 425.01  254.80 378.62 424.76  254.86
   0  -5  -6  63.452  80.629   1-0.46191 0.46191 0.29426-0.79118-0.83669 0.40084  0 180.32 384.12   31.11 180.29 384.02   31.00
   0  -5  -6 153.153 131.325   1-0.15194 0.15194-0.86204 0.36492 0.48352-0.91856  0 449.27 413.58  157.02 449.59 413.79  156.94
   0  -5  -6 177.217 159.373   2-0.07498 0.07498-0.86800 0.37048 0.49087-0.92581  0 452.72 411.21   80.45 452.81 411.09   80.47
   0  -5  -6 236.757 118.253   2 0.07673-0.07673 0.37039-0.86799-0.92570 0.49061  0 218.72  98.41  222.31 218.68  98.46  222.28
   0  -5   6 -26.643  77.951   1-0.65268 0.65268-0.69775 0.20057-0.29521 0.73060  0 131.74 252.55  100.42 132.13 252.45  100.86
   0  -5   6 -12.296  97.449   2 0.09287-0.09287-0.86672 0.36898-0.49006 0.92479  0 186.35 124.88  140.76 186.35 124.94  140.21
   0   5  -6  -4.802 150.828   2 0.12912-0.12912-0.36675 0.86421-0.92132 0.48628  0 431.63 425.42  178.48 431.36 424.91  178.92
   0   5  -6  33.608 111.866   2-0.19909 0.19909 0.85632-0.35896 0.47654-0.91187  0 202.06 110.74  320.47 201.95 110.87  320.44
   0   5   6 102.260 106.458   2-0.18550 0.18550-0.36088 0.85822 0.91398-0.47859  0 172.76 140.31   42.13 172.73 140.34   41.33
   0   5   6  56.004 162.333   2-0.03382 0.03382 0.86957-0.37187-0.49266 0.92767  0 385.21 444.17  261.37 385.22 444.11  261.44
   0  -5  -7  6297.0   213.0   1-0.42888 0.42888 0.34549-0.84241-0.83468 0.32619  0 170.93 400.36   27.52 170.96 400.12   27.50
   0  -5  -7  8508.3   301.5   1-0.25374 0.25374-0.89150 0.39432 0.37529-0.88325  0 464.27 437.49  148.30 464.23 437.18  148.27
   0  -5  -7  9260.5   383.6   2-0.05579 0.05579-0.91502 0.41750 0.39954-0.90696  0 473.75 430.08   86.45 473.91 429.99   86.43
   0  -5  -7 10457.8   341.1   2 0.06976-0.06976 0.41682-0.91442-0.90631 0.39870  0 211.30  80.76  225.03 211.19  80.94  225.18
   0  -5   7  6736.6   270.5   1-0.62922 0.62922-0.74256 0.24538-0.22952 0.73747  0 116.74 241.31  105.62 116.47 241.42  105.62
   0  -5   7  8772.6   313.9   2 0.08062-0.08062-0.91353 0.41578-0.39871 0.90588  0 172.66 113.60  134.05 172.60 113.67  134.32
   0  -5   7  6654.5   362.1   2-0.23672 0.23672 0.39770-0.89485 0.88645-0.37844  0 418.08 460.33  356.44 418.14 460.27  356.42
   0   5  -7  8536.0   387.4   2 0.12941-0.12941-0.41239 0.90986-0.90177 0.39423  0 450.84 444.68  176.00 450.99 444.68  176.06
   0   5  -7  8030.4   318.1   2-0.18713 0.18713 0.90298-0.40563 0.38679-0.89468  0 193.97  93.82  314.68 193.76  93.96  314.56
   0   5   7  9630.2   324.1   2-0.17897 0.17897-0.40684 0.90419 0.89580-0.38784  0 158.88 129.89   43.90 158.80 129.93   44.17
   0   5   7  9413.6   388.0   2-0.05325 0.05325 0.91513-0.41743-0.39963 0.90715  0 393.39 467.86  267.43 393.56 467.59  267.46
   0  -5  -8  3068.1   195.2   1-0.40278 0.40278 0.38360-0.88052-0.83104 0.24990  0 159.57 418.77   25.02 159.58 418.44   24.85
   0  -5  -8  3930.5   304.3   1-0.34180 0.34180-0.90068 0.40350 0.26822-0.84874  0 483.14 465.65  140.32 482.97 465.22  140.30
   0  -5  -8  4423.6   397.8   2-0.03804 0.03804-0.94956 0.45204 0.31127-0.89118  0 499.49 453.62   91.67 499.74 453.66   91.98
   0  -5  -8  4925.5   295.8   2 0.06455-0.06455 0.45090-0.94851-0.89024 0.31012  0 202.22  60.25  227.31 202.11  60.43  227.36
   0  -5   8  3383.3   224.8   1-0.60291 0.60291-0.78050 0.28332-0.16529 0.74581  0  98.91 229.34  110.10  98.73 229.52  110.15
   0  -5   8  4250.5   277.0   2 0.06814-0.06814-0.94809 0.45034-0.31062 0.89025  0 156.88 100.39  129.01 156.73 100.41  128.85
   0  -5   8  3694.2   378.9   2-0.23641 0.23641 0.42999-0.92714 0.87133-0.29074  0 430.33 489.36  354.41 430.39 489.01  354.37
   0   5  -8  3950.8   396.9   2 0.12903-0.12903-0.44588 0.94335-0.88574 0.30570  0 474.76 469.27  174.00 474.83 469.25  173.92
   0   5  -8  3744.8   281.2   2-0.17490 0.17490 0.93771-0.44036 0.30017-0.88062  0 184.00  74.01  309.29 183.90  74.27  309.15
   0   5   8  4800.8   277.6   2-0.17389 0.17389-0.44055 0.93789 0.88073-0.30021  0 142.76 117.56   46.25 142.68 117.68   46.31
   0   5   8  4076.4   384.2   2-0.07101 0.07101 0.94808-0.45039-0.30999 0.89000  0 403.79 496.14  273.31 403.83 495.94  273.03
   0  -5  -9 781.293 142.800   1-0.38375 0.38375 0.41004-0.90697-0.82740 0.17363  0 145.91 439.77   22.68 146.03 439.75   22.97
   0  -5  -9  1192.5   217.8   2 0.06080-0.06080 0.47477-0.97237-0.87801 0.22537  0 191.30  36.57  228.62 191.25  36.32  228.91
   0  -5   9  1060.9   175.3   1-0.57407 0.57407-0.81235 0.31516-0.10263 0.75572  0  78.41 216.33  114.49  78.52 216.38  114.50
   0  -5   9  1362.1   213.3   2 0.05598-0.05598-0.97245 0.47471-0.22628 0.87836  0 138.57  85.14  124.13 138.33  84.88  123.76
   0   5  -9  1544.5   335.4   2 0.12860-0.12860-0.46928 0.96674-0.87364 0.22108  2 503.30 499.81  172.44 504.28 500.07  172.40
   0   5  -9 912.944 202.439   2-0.16241 0.16241 0.96252-0.46517 0.21719-0.87020  0 172.08  51.02  304.35 172.07  51.16  304.09
   0   5   9  1045.4   195.1   2-0.17023 0.17023-0.46405 0.96139 0.86930-0.21621  0 124.29 103.31   47.62 123.93 103.40   47.82
   0  -5 -10  6925.9   295.1   1-0.37199 0.37199 0.42610-0.92303-0.82466 0.09824  0 129.97 465.37   21.89 130.09 465.10   21.82
   0  -5 -10 10171.0   482.1   2 0.05824-0.05824 0.49018-0.98779-0.86967 0.14452  2 178.49   7.62  230.03 178.20   7.59  229.92
   0  -5  10  8405.7   365.1   1-0.54308 0.54308-0.83865 0.34147-0.04146 0.76711  0  55.59 201.50  118.78  55.20 201.58  118.71
   0  -5  10 10053.4   434.8   2 0.04333-0.04333-0.98837 0.49062-0.14576 0.87029  0 117.08  66.51  119.21 116.77  66.65  119.01
   0   5 -10  8949.7   431.4   2-0.15017 0.15017 0.97889-0.48119 0.13864-0.86366  0 157.94  23.65  299.49 157.99  23.84  299.46
   0   5  10 10657.6   432.8   2-0.16783 0.16783-0.47906 0.97640 0.86159-0.13594  0 102.36  86.67   49.17 101.90  86.67   48.80
   0  -5 -11 698.538 185.032   1-0.36672 0.36672 0.43309-0.93001-0.82338 0.02431  0 111.31 496.70   21.43 111.25 496.16   21.31
   0  -5  11  1396.8   223.4   1-0.51005 0.51005-0.85995 0.36277 0.01831 0.77990  0  28.41 184.53  122.69  27.90 184.41  122.80
   0  -5  11  1584.5   284.2   2 0.03089-0.03089-0.99715 0.49940-0.06883 0.86582  0  91.00  44.63  114.55  91.09  44.95  114.50
   0   5  11  1469.7   266.4   2-0.16655 0.16655-0.48691 0.98425 0.85743-0.05921  0  75.05  66.62   49.47  75.61  66.88   49.32
   0  -6   0 37279.1   473.0   1-0.68925 0.68925-0.29826-0.29826-0.66029 0.66029  0 166.19 325.82   69.36 166.28 325.73   69.41
   0  -6   0 52648.6   604.6   2-0.19356 0.19356-0.29841-0.29840 0.93461-0.93461  0 415.34 399.47   37.53 415.61 399.41   37.53
   0  -6   0 56397.2   613.7   2 0.12814-0.12814-0.29848-0.29848-0.94578 0.94578  0 216.16 126.93  182.92 216.10 126.98  183.07
   0   6   0 36802.9   483.5   1-0.45949 0.45949 0.29815 0.29815-0.83664 0.83664  0 470.35 171.20   30.68 470.42 171.43   30.73
   0   6   0 58011.3   623.0   2-0.23512 0.23512 0.29840 0.29840 0.92503-0.92503  0 198.54 142.55    2.95 198.46 142.63    2.71
   0   6   0 59784.3   640.6   2 0.08620-0.08620 0.29856 0.29856-0.95049 0.95049  0 390.56 412.01  218.08 390.84 411.88  217.87
   0  -6  -1  1548.5   145.3   1-0.67433 0.67433-0.21674-0.37977-0.70591 0.63329  0 170.03 336.78   64.04 170.20 336.58   63.99
   0  -6  -1  1733.6   182.7   2-0.17829 0.17829-0.41149-0.18532 0.89380-0.96637  0 420.01 398.86   44.49 420.15 398.82   44.46
   0  -6  -1  2115.4   174.2   2 0.12489-0.12489-0.18447-0.41248-0.97487 0.90236  0 218.03 123.89  189.64 217.94 123.83  189.83
   0  -6   1  1243.2   135.5   1-0.69803 0.69803-0.37680-0.21971-0.60891 0.68153  0 160.48 315.36   74.91 160.56 315.28   74.81
   0  -6   1  1978.9   224.4   2-0.20628 0.20628-0.18601-0.41080 0.96065-0.88808  0 412.97 403.00   30.76 413.32 403.05   30.89
   0  -6   1  1907.0   171.5   2 0.12941-0.12941-0.41241-0.18455-0.90176 0.97427  0 212.69 127.83  176.00 212.63 127.92  176.06
   0   6  -1  1352.0   157.0   1-0.51584 0.51584 0.20113 0.39517-0.83274 0.76009  0 479.67 183.67   37.32 479.88 183.82   37.16
   0   6  -1  2342.9   228.9   2 0.09921-0.09921 0.18422 0.41291-0.97787 0.90535  0 395.35 412.04  211.03 395.50 411.94  211.09
   0   6  -1  1789.7   166.6   2-0.23664 0.23664 0.40986 0.18671 0.88092-0.95349  0 200.08 139.04  355.66 200.14 139.19  355.65
   0   6   1  1228.7   149.1   1-0.38852 0.38852 0.40349 0.19281-0.82840 0.90104  0 463.95 158.43   23.39 464.06 158.46   23.44
   0   6   1  2117.8   171.5   2-0.23219 0.23219 0.18675 0.41006 0.95457-0.88201  0 195.38 143.80    8.89 195.29 143.95    9.34
   0   6   1  1937.4   217.7   2 0.07030-0.07030 0.41322 0.18390-0.90791 0.98043  0 387.92 415.00  224.81 388.20 414.96  224.95
   0  -6  -2 434.407  89.379   1-0.65358 0.65358-0.13460-0.46192-0.74479 0.59955  0 172.39 348.12   58.49 172.24 348.01   58.66
   0  -6  -2 580.047 158.463   2-0.16057 0.16057-0.51986-0.07716 0.83902-0.98400  0 427.02 401.31   51.50 427.07 401.33   51.52
   0  -6  -2 620.126 116.783   2 0.11932-0.11932-0.07561-0.52135-0.98997 0.84496  0 218.07 118.37  195.95 218.17 118.39  196.14
   0  -6   2 426.638  97.246   1-0.70036 0.70036-0.45070-0.14581-0.55350 0.69874  0 152.58 305.40   80.21 153.08 305.10   80.10
   0  -6   2 740.444 160.517   2-0.21604 0.21604-0.07940-0.51741 0.97315-0.82802  0 413.21 409.83   24.71 413.22 409.82   24.71
   0  -6   2 776.257 123.581   2 0.12759-0.12759-0.52109-0.07586-0.84391 0.98892  0 207.67 126.59  168.62 207.49 126.68  168.96
   0   6  -2 439.121 140.278   1-0.55898 0.55898 0.11581 0.48050-0.82106 0.67577  0 492.36 195.83   42.54 492.48 195.96   42.67
   0   6  -2 679.884 155.038   2 0.10909-0.10909 0.07544 0.52169-0.99116 0.84613  0 401.90 415.13  204.73 402.24 415.10  204.77
   0   6  -2 642.193 118.827   2-0.23409 0.23409 0.51634 0.08048 0.82377-0.96888  0 199.84 133.41  348.57 199.86 133.63  348.77
   0   6   2 387.966 121.325   1-0.30361 0.30361 0.51168 0.08463-0.80375 0.94903  0 460.42 144.56   15.48 460.82 144.59   15.43
   0   6   2 647.941 119.267   2-0.22717 0.22717 0.08003 0.51678 0.97056-0.82543  0 190.36 143.33   15.53 190.37 143.20   15.54
   0   6   2 565.905 148.716   2 0.05273-0.05273 0.52282 0.07431-0.85081 0.99584  0 387.33 421.11  231.93 387.54 421.22  232.10
   0  -6  -3 432.761  89.922   1-0.62853 0.62853-0.05468-0.54183-0.77586 0.55801  0 172.23 360.44   53.53 172.29 360.15   53.55
   0  -6  -3 485.650 159.959   2-0.14181 0.14181-0.61939 0.02237 0.77217-0.98964  0 436.36 407.01   58.57 436.53 406.97   58.49
   0  -6  -3 754.886 130.704   2 0.11312-0.11312 0.02369-0.62082-0.99330 0.77575  0 216.89 110.52  201.69 216.72 110.60  201.79
   0  -6   3 468.776 106.330   1-0.69707 0.69707-0.51879-0.07772-0.49492 0.71278  0 143.81 295.23   85.26 143.93 295.05   85.25
   0  -6   3 619.550 159.214   2-0.22346 0.22346 0.01738-0.61419 0.97456-0.75686  0 414.84 419.74   19.19 415.15 419.82   19.13
   0  -6   3 668.605 122.815   2 0.12319-0.12319-0.62035 0.02340-0.77459 0.99211  0 200.84 123.24  161.71 200.69 123.36  161.98
   0   6  -3 678.310 163.691   2 0.11603-0.11603-0.02371 0.62066-0.99296 0.77544  0 410.93 421.31  199.02 411.10 421.46  199.13
   0   6  -3 681.737 124.474   2-0.22938 0.22938 0.61365-0.01682 0.75552-0.97319  0 198.05 126.01  341.65 198.03 125.88  341.94
   0   6   3 392.026 136.601   1-0.20663 0.20663 0.61583-0.01953-0.76030 0.97822  0 460.55 129.29    7.01 460.68 129.20    6.90
   0   6   3 753.478 124.231   2-0.22098 0.22098-0.01758 0.61439 0.97512-0.75743  0 183.82 140.51   21.43 183.68 140.47   21.15
   0   6   3 719.965 159.805   2 0.03368-0.03368 0.62293-0.02580-0.78155 0.99910  0 388.49 430.86  239.03 388.67 430.71  239.18
   0  -6  -4  63.249  80.198   1-0.60048 0.60048 0.02057-0.61688-0.79938 0.50881  0 170.19 373.65   49.12 170.38 373.31   48.76
   0  -6  -4  57.366 154.511   2-0.12246 0.12246-0.70714 0.11012 0.69639-0.98635  0 448.74 415.62   65.55 448.75 415.84   65.23
   0  -6  -4  23.805 103.344   2 0.10592-0.10592 0.11099-0.70812-0.98816 0.69810  0 214.09 100.52  206.52 213.86 100.45  206.83
   0  -6   4  25.440  85.515   1-0.68831 0.68831-0.58069-0.01582-0.43477 0.72524  0 132.94 284.94   90.38 133.13 285.00   90.21
   0  -6   4 123.130 161.267   2-0.22835 0.22835 0.10191-0.69872 0.96823-0.67797  0 419.34 433.49   14.45 419.21 433.16   14.28
   0  -6   4  11.682 103.706   2 0.11642-0.11642-0.70756 0.11060-0.69700 0.98702  0 192.40 118.09  155.55 192.18 117.98  155.30
   0   6  -4 -65.184 153.616   2 0.12132-0.12132-0.11033 0.70729-0.98646 0.69644  0 422.52 431.05  194.11 422.56 431.12  194.15
   0   6  -4-111.058 104.245   2-0.22238 0.22238 0.69932-0.10250 0.67933-0.96956  0 194.52 116.27  335.55 194.56 115.92  335.31
   0   6   4  56.662 100.263   2-0.21409 0.21409-0.10342 0.70023 0.97132-0.68106  0 174.77 135.58   26.44 175.23 135.81   26.10
   0   6   4  58.131 149.776   2 0.01383-0.01383 0.71069-0.11356-0.70337 0.99344  0 391.49 443.65  246.51 391.60 443.59  246.02
   0  -6  -5 355.200  91.781   1-0.57182 0.57182 0.08804-0.68434-0.81564 0.45243  0 166.37 387.71   44.42 166.35 387.72   44.45
   0  -6  -5 422.930 152.507   1-0.00008 0.00008-0.78495 0.18840 0.61956-0.98209  0 471.90 422.79  169.35 472.02 422.84  169.45
   0  -6  -5 556.850 196.270   2-0.10277 0.10277-0.78185 0.18483 0.61493-0.97738  0 464.10 428.12   71.56 464.14 428.21   71.67
   0  -6  -5 665.838 145.225   2 0.09912-0.09912 0.18503-0.78216-0.97772 0.61514  0 209.35  87.66  210.90 209.50  87.83  211.14
   0  -6   5 387.231  97.632   1-0.67513 0.67513-0.63614 0.03963-0.37354 0.73664  0 121.05 274.74   95.00 120.59 274.74   95.00
   0  -6   5 647.147 194.968   2-0.23160 0.23160 0.17326-0.77007 0.95726-0.59443  0 425.12 450.04    9.95 425.38 450.16   10.13
   0  -6   5 660.167 142.803   2 0.10783-0.10783-0.78134 0.18405-0.61472 0.97698  0 181.97 110.54  149.12 181.87 110.59  148.89
   0   6  -5 660.004 197.201   2 0.12485-0.12485-0.18358 0.78054-0.97504 0.61251  0 436.75 444.53  190.04 436.82 444.37  189.88
   0   6  -5 261.658 128.457   2-0.21375 0.21375 0.77230-0.17547 0.59822-0.96100  0 189.55 103.57  328.98 189.52 103.68  329.01
   0   6   5 538.066 131.777   2-0.20726 0.20726-0.17631 0.77312 0.96227-0.59944  0 165.15 129.12   30.31 164.93 129.28   30.32
   0   6   5 503.140 199.195   2-0.00569 0.00569 0.78480-0.18756-0.61973 0.98224  0 396.33 460.20  252.43 396.34 460.13  252.53
   0  -6  -6  1983.7   172.3   1-0.54415 0.54415 0.14639-0.74269-0.82612 0.39027  0 160.16 404.01   40.71 160.24 403.75   40.71
   0  -6  -6  3133.0   290.3   1-0.10533 0.10533-0.84234 0.24580 0.52855-0.96358  0 482.16 445.87  160.72 482.15 445.68  160.82
   0  -6  -6  2986.6   285.5   2-0.08377 0.08377-0.84348 0.24646 0.53059-0.96553  0 483.53 444.91   78.02 483.25 444.56   77.75
   0  -6  -6  3070.9   251.4   2 0.09243-0.09243 0.24596-0.84309-0.96486 0.52977  0 203.62  72.29  214.96 203.56  72.54  214.72
   0  -6   6  2073.9   200.4   1-0.65811 0.65811-0.68509 0.08848-0.31232 0.74771  0 106.41 264.15   99.62 106.25 264.23   99.60
   0  -6   6  2582.1   273.7   2-0.23366 0.23366 0.23168-0.82849 0.94431-0.50892  0 433.52 471.43    6.72 433.75 471.27    6.69
   0  -6   6  2841.7   246.9   2 0.09784-0.09784-0.84245 0.24516-0.52981 0.96453  0 169.90 101.25  142.74 169.73 101.26  142.89
   0   6  -6  2841.4   347.3   2 0.12674-0.12674-0.24372 0.84068-0.96153 0.52649  0 454.23 461.57  186.31 454.30 461.63  186.34
   0   6  -6  2324.2   249.3   2-0.20395 0.20395 0.83269-0.23587 0.51481-0.95014  0 182.99  88.90  322.98 182.82  89.00  323.04
   0   6   6  3141.9   246.6   2-0.20081 0.20081-0.23634 0.83315 0.95069-0.51530  0 152.81 120.93   33.70 152.67 120.90   33.85
   0   6   6  2882.6   333.9   2-0.02507 0.02507 0.84552-0.24829-0.53335 0.96836  0 402.84 480.92  258.62 402.92 480.81  258.68
   0  -6  -7 952.825 136.740   1-0.51918 0.51918 0.19469-0.79099-0.83220 0.32371  0 151.84 422.45   37.65 152.03 421.92   37.58
   0  -6  -7  1289.0   217.2   1-0.20412 0.20412-0.87966 0.28311 0.42957-0.93711  0 496.17 472.49  152.62 496.24 472.84  152.53
   0  -6  -7  1257.6   198.3   2 0.08669-0.08669 0.29467-0.89180-0.95166 0.44405  0 196.02  54.10  217.73 196.03  54.25  217.64
   0  -6   7  1067.9   158.5   1-0.63742 0.63742-0.72842 0.13180-0.25120 0.75916  0  89.88 252.90  104.02  89.82 253.01  104.06
   0  -6   7  1231.0   277.9   2-0.23483 0.23483 0.27815-0.87496 0.93139-0.42344  0 444.79 497.59    3.99 444.67 497.32    3.92
   0  -6   7  1335.4   198.1   2 0.08680-0.08680-0.89151 0.29421-0.44462 0.95179  0 155.35  89.60  136.98 155.52  89.78  137.24
   0   6  -7  1223.0   280.1   2 0.12800-0.12800-0.29169 0.88865-0.94791 0.44037  0 475.60 483.41  183.46 475.79 483.63  183.48
   0   6  -7  1292.9   203.9   2-0.19308 0.19308 0.88140-0.28457 0.43112-0.93901  0 174.50  71.44  317.54 174.37  71.55  317.42
   0   6   7  1342.5   193.0   2-0.19527 0.19527-0.28432 0.88113 0.93863-0.43068  0 138.17 110.55   36.61 138.21 110.60   36.69
   0  -6  -8 13243.8   338.8   1-0.49842 0.49842 0.23258-0.82889-0.83516 0.25402  0 141.55 443.16   34.98 141.65 442.84   35.10
   0  -6  -8 21122.3   532.2   2 0.08188-0.08188 0.33244-0.92957-0.93956 0.35944  0 186.80  32.23  219.76 186.68  32.45  219.94
   0  -6   8 14778.9   422.5   1-0.61369 0.61369-0.76620 0.16958-0.19060 0.77112  0  71.12 240.81  108.35  70.95 240.92  108.38
   0  -6   8 18228.7   489.0   2 0.07532-0.07532-0.92972 0.33242-0.36049 0.94012  0 138.84  75.90  131.78 138.84  75.99  131.93
   0   6  -8 15897.6   477.9   2-0.18183 0.18183 0.91953-0.32270 0.34842-0.92887  0 164.06  50.59  312.19 163.92  50.86  312.14
   0   6   8 19625.3   497.4   2-0.19077 0.19077-0.32145 0.91826 0.92751-0.34699  0 121.57  98.20   39.03 121.19  98.20   38.92
   0  -6  -9  59.948 137.875   1-0.48243 0.48243 0.26039-0.85670-0.83634 0.18256  0 129.00 467.19   32.97 128.87 467.61   33.27
   0  -6   9 136.857 158.476   1-0.58728 0.58728-0.79877 0.20215-0.13064 0.78373  0  49.16 227.86  112.51  49.06 227.58  112.56
   0  -6   9 168.450 189.512   2 0.06360-0.06360-0.95839 0.36110-0.27827 0.93036  0 119.24  59.42  126.90 119.18  59.45  126.88
   0   6  -9  29.365 204.927   2-0.17004 0.17004 0.94841-0.35158 0.26758-0.92058  0 151.26  25.86  306.99 151.11  26.17  307.15
   0   6   9 232.663 201.888   2-0.18708 0.18708-0.34908 0.94588 0.91823-0.26515  0 100.71  83.19   41.16 101.05  83.38   40.60
   0  -6 -10  4445.1   299.9   1-0.47153 0.47153 0.27862-0.87493-0.83668 0.11026  0 113.53 497.71   32.00 113.38 497.62   32.05
   0  -6  10  5088.7   344.2   1-0.55857 0.55857-0.82638 0.22976-0.07134 0.79700  0  23.64 212.38  116.67  23.45 212.49  116.66
   0  -6  10  6215.9   450.8   2 0.05166-0.05166-0.97876 0.38146-0.19840 0.92294  0  96.08  39.52  122.00  95.72  39.56  122.10
   0   6  10  6687.8   433.2   2-0.18446 0.18446-0.36836 0.96517 0.91120-0.18555  0  77.42  65.69   41.75  76.95  65.63   41.79
   0  -7   0   8.658  84.009   1-0.69552 0.69552-0.34797-0.34797-0.62862 0.62862  0 139.05 341.57   72.49 138.71 341.57   72.80
   0  -7   0  15.059 178.552   2-0.18721 0.18721-0.34814-0.34814 0.91856-0.91856  0 447.08 438.41   40.41 446.81 438.13   40.55
   0  -7   0  40.835 117.688   2 0.12897-0.12897-0.34822-0.34822-0.92850 0.92850  0 197.26  98.12  180.52 197.23  98.03  180.06
   0   7   0  23.612 170.818   2 0.07976-0.07976 0.34833 0.34833-0.93397 0.93397  0 414.19 453.24  221.02 414.14 453.24  220.91
   0  -7  -1  1565.8   161.9   1-0.68671 0.68671-0.28183-0.41410-0.67007 0.59745  0 142.84 353.32   68.16 142.93 353.20   68.30
   0  -7  -1  2345.5   249.3   2-0.17349 0.17349-0.44356-0.25272 0.87929-0.95186  0 451.74 437.58   46.52 451.91 437.57   46.50
   0  -7  -1  2428.9   220.7   2 0.12699-0.12699-0.25212-0.44432-0.95933 0.88682  0 199.25  94.58  185.69 199.20  94.66  185.84
   0  -7   1  1133.0   142.4   1-0.69993 0.69993-0.41259-0.28334-0.58299 0.65560  0 132.57 330.62   77.16 132.73 330.49   77.34
   0  -7   1  2474.6   242.5   2-0.19887 0.19887-0.25325-0.44303 0.94674-0.87417  0 444.07 441.91   34.96 444.17 442.05   34.84
   0  -7   1  2243.1   215.1   2 0.12904-0.12904-0.44429-0.25215-0.88654 0.95904  0 193.56  99.11  173.99 193.64  99.18  174.02
   0   7  -1  2118.0   229.4   2 0.09175-0.09175 0.25182 0.44483-0.96342 0.89090  0 419.11 453.37  215.34 419.28 453.38  215.07
   0   7  -1  1823.8   198.8   2-0.23624 0.23624 0.44201 0.25398 0.86534-0.93791  0 177.37 114.38  353.61 177.51 114.39  353.60
   0   7   1  2244.8   210.8   2-0.23430 0.23430 0.25413 0.44215 0.93836-0.86580  0 172.50 119.55    5.39 172.45 119.58    5.36
   0   7   1  2377.6   235.4   2 0.06547-0.06547 0.44506 0.25159-0.89310 0.96562  0 410.98 456.53  226.77 411.06 456.47  226.98
   0  -7  -2  6870.7   255.1   1-0.67410 0.67410-0.21569-0.48024-0.70645 0.56121  0 145.19 365.75   64.02 145.34 365.58   63.92
   0  -7  -2  9067.6   390.5   2-0.15774 0.15774-0.53598-0.16054 0.82936-0.97434  0 459.42 440.37   52.61 459.65 440.29   52.61
   0  -7  -2  9862.9   329.8   2 0.12380-0.12380-0.15939-0.53706-0.97942 0.83441  0 199.63  88.92  191.26 199.58  88.98  191.29
   0  -7   2  6756.3   263.2   1-0.69985 0.69985-0.47454-0.22139-0.53387 0.67911  0 125.11 319.88   81.97 124.99 319.77   81.86
   0  -7   2  8943.6   389.0   2-0.20864 0.20864-0.16224-0.53404 0.96444-0.81931  0 443.74 449.42   29.49 443.85 449.29   29.50
   0  -7   2 10310.0   338.3   2 0.12708-0.12708-0.53697-0.15948-0.83398 0.97899  0 188.41  98.17  167.98 188.37  98.14  167.87
   0   7  -2  9352.5   387.3   2 0.10167-0.10167 0.15898 0.53767-0.98203 0.83700  0 426.52 457.05  209.58 426.75 456.97  209.62
   0   7  -2  8658.1   314.8   2-0.23345 0.23345 0.53279 0.16351 0.81341-0.95852  0 177.42 108.44  347.64 177.30 108.67  347.66
   0   7   2  9722.3   328.7   2-0.23120 0.23120 0.16335 0.53292 0.95909-0.81396  0 167.48 119.02   10.96 167.43 119.10   10.71
   0   7   2  9721.9   389.4   2 0.04995-0.04995 0.53853 0.15812-0.84112 0.98616  0 409.83 463.22  233.01 410.09 463.13  233.17
   0  -7  -3  9229.4   281.1   1-0.65816 0.65816-0.15118-0.54475-0.73754 0.51968  0 145.74 379.16   59.99 145.91 378.90   59.73
   0  -7  -3 13093.0   444.5   2-0.14116 0.14116-0.62254-0.07398 0.76975-0.98722  0 470.01 446.54   58.98 470.21 446.48   58.72
   0  -7  -3 13618.7   381.6   2 0.11916-0.11916-0.07293-0.62352-0.99019 0.77267  0 198.42  80.83  196.18 198.36  80.92  196.30
   0  -7   3  9170.3   305.4   1-0.69553 0.69553-0.53292-0.16301-0.48191 0.69977  0 115.70 309.34   86.33 115.52 309.29   86.35
   0  -7   3 11470.8   434.1   2-0.21617 0.21617-0.07788-0.61840 0.97324-0.75555  0 445.70 460.20   24.62 445.91 460.10   24.63
   0  -7   3 12716.8   374.5   2 0.12301-0.12301-0.62337-0.07308-0.77219 0.98971  0 181.40  94.94  161.95 181.40  94.98  161.76
   0   7  -3 12618.2   440.3   2 0.10932-0.10932 0.07272 0.62393-0.99134 0.77380  0 436.33 464.06  204.59 436.57 463.99  204.61
   0   7  -3 10919.9   354.7   2-0.22914 0.22914 0.61742 0.07888 0.75252-0.97019  0 175.64 100.53  341.70 175.49 100.71  341.66
   0   7   3  8190.8   338.5   1-0.20285 0.20285 0.61952 0.07617-0.75832 0.97624  2 504.63  96.87    6.63 504.83  97.01    6.58
   0   7   3 12691.8   367.6   2-0.22710 0.22710 0.07868 0.61760 0.97069-0.75299  0 160.64 116.59   15.61 160.58 116.64   15.62
   0   7   3 12980.2   437.3   2 0.03311-0.03311 0.62567 0.07098-0.77938 0.99693  0 410.76 473.53  239.32 411.01 473.33  239.38
   0  -7  -4  1849.9   182.4   1-0.64022 0.64022-0.09016-0.60577-0.76289 0.47241  0 144.49 393.74   55.69 144.56 393.46   55.81
   0  -7  -4  2762.7   288.1   2-0.12393 0.12393-0.70099 0.00446 0.70232-0.99228  0 483.82 456.35   65.13 484.00 456.36   64.73
   0  -7  -4  2612.8   256.0   2 0.11429-0.11429 0.00492-0.70157-0.99344 0.70337  0 195.54  70.03  200.97 195.44  70.31  200.73
   0  -7   4  2105.5   205.3   1-0.68705 0.68705-0.58721-0.10872-0.42795 0.71843  0 104.55 298.74   90.71 104.25 298.85   90.75
   0  -7   4  2299.9   280.0   2-0.22201 0.22201-0.00217-0.69411 0.97504-0.68478  0 450.00 474.52   19.99 450.20 474.72   20.26
   0  -7   4  2461.9   251.4   2 0.11699-0.11699-0.70140 0.00496-0.70310 0.99312  0 172.70  89.72  155.98 172.62  89.67  155.79
   0   7  -4  2951.8   293.2   2 0.11497-0.11497-0.00489 0.70154-0.99336 0.70330  0 449.16 474.97  200.34 449.24 474.86  200.16
   0   7  -4  2132.0   218.2   2-0.22289 0.22289 0.69399 0.00231 0.68462-0.97484  0 172.09  90.22  335.83 171.95  90.44  335.74
   0   7   4  2408.2   248.5   2-0.22232 0.22232 0.00220 0.69408 0.97497-0.68471  0 151.86 112.20   19.98 151.80 112.20   20.00
   0   7   4  2540.7   278.1   2 0.01551-0.01551 0.70424-0.00759-0.70979 0.99985  0 413.71 487.54  245.44 413.92 487.39  245.50
   0  -7  -5 22469.3   415.7   1-0.62130 0.62130-0.03425-0.66168-0.78282 0.41973  0 141.09 409.97   52.27 141.22 409.62   52.26
   0  -7  -5 31647.0   650.0   2-0.10620 0.10620-0.76997 0.07345 0.62918-0.99163  2 501.49 470.48   70.57 501.64 470.42   70.59
   0  -7  -5 33596.9   595.4   2 0.10928-0.10928 0.07326-0.76991-0.99131 0.62873  0 191.23  56.82  204.66 191.03  56.94  204.64
   0  -7   5 24878.8   503.1   1-0.67486 0.67486-0.63703-0.05890-0.37249 0.73559  0  91.23 288.29   95.02  91.02 288.25   95.08
   0  -7   5 30447.2   648.6   2-0.22625 0.22625 0.06382-0.76010 0.97198-0.60915  0 456.97 493.81   16.45 457.10 493.69   16.48
   0  -7   5 31528.7   580.3   2 0.10933-0.10933-0.76987 0.07343-0.62876 0.99129  0 161.96  82.15  150.00 161.92  82.13  149.99
   0   7  -5 31883.4   653.1   2 0.11916-0.11916-0.07286 0.76931-0.99020 0.62767  0 465.08 490.03  195.93 464.90 489.93  196.30
   0   7  -5 29021.0   562.6   2-0.21531 0.21531 0.76131-0.06501 0.61160-0.97438  0 166.87  77.41  330.00 166.68  77.67  330.01
   0   7   5 33986.1   596.8   2-0.21723 0.21723-0.06485 0.76113 0.97396-0.61114  0 141.12 105.76   24.01 141.06 105.84   23.88
   0  -7  -6  1305.3   163.9   1-0.60248 0.60248 0.01556-0.71125-0.79798 0.36213  0 135.79 428.11   49.29 135.89 427.96   49.08
   0  -7  -6  1727.1   227.3   2 0.10415-0.10415 0.13151-0.82816-0.98583 0.55074  0 185.08  40.54  208.37 184.90  40.56  208.02
   0  -7   6  1484.4   191.8   1-0.65922 0.65922-0.68227-0.01366-0.31611 0.75182  0  75.83 277.32   99.34  75.64 277.35   99.32
   0  -7   6  1294.1   208.6   2 0.10050-0.10050-0.82808 0.13124-0.55152 0.98624  0 148.92  72.38  144.18 149.06  72.42  144.39
   0   7  -6  1446.3   228.6   2-0.20648 0.20648 0.81898-0.12268 0.53539-0.97073  0 159.59  62.09  324.59 159.56  62.20  324.47
   0   7   6  1990.3   236.0   2-0.21244 0.21244-0.12199 0.81827 0.96953-0.53414  0 128.00  97.33   26.99 128.05  97.39   27.17
   0  -7  -7 194.785 137.056   1-0.58523 0.58523 0.05750-0.75320-0.80882 0.30033  0 128.21 448.40   46.01 128.30 449.02   46.40
   0  -7  -7 433.231 213.497   2 0.09966-0.09966 0.17982-0.87647-0.97864 0.47103  0 176.86  21.02  210.41 176.92  20.65  210.83
   0  -7   7 273.409 148.358   1-0.64044 0.64044-0.72281 0.02675-0.25958 0.76754  0  57.96 265.92  103.38  57.93 265.95  103.46
   0  -7   7 142.051 184.547   2 0.09046-0.09046-0.87676 0.17992-0.47234 0.97951  0 133.57  60.01  139.59 133.83  60.21  139.04
   0   7  -7 387.929 208.661   2-0.19664 0.19664 0.86715-0.17085 0.45758-0.96547  0 149.87  43.14  319.34 150.36  43.46  319.18
   0   7   7 328.790 193.369   2-0.20794 0.20794-0.16938 0.86566 0.96336-0.45541  0 112.72  86.84   30.05 112.45  86.73   29.92
   0  -7  -8  2300.3   249.9   1-0.57033 0.57033 0.09134-0.78703-0.81632 0.23519  0 118.49 473.52   44.05 118.39 473.80   44.24
   0  -7   8  2373.1   271.4   1-0.61862 0.61862-0.75911 0.06306-0.20263 0.78316  0  37.39 253.40  107.46  37.19 253.55  107.53
   0  -7   8  3281.7   368.9   2 0.07980-0.07980-0.91618 0.21933-0.39275 0.97238  0 115.98  45.26  134.14 115.69  45.20  133.94
   0   7  -8  3135.6   321.4   2-0.18611 0.18611 0.90634-0.21004 0.37937-0.95982  0 138.77  20.54  314.30 138.72  20.91  314.09
   0   7   8  3650.3   370.6   2-0.20401 0.20401-0.20752 0.90380 0.95672-0.37620  0  93.80  73.49   31.98  93.83  73.63   32.16
   0  -8   0  6350.3   276.0   1-0.69928 0.69928-0.39767-0.39767-0.59402 0.59402  0 107.10 360.89   76.26 107.08 360.75   76.27
   0  -8   0  8451.2   490.7   2-0.18026 0.18026-0.39787-0.39787 0.89956-0.89956  0 486.95 488.19   43.61 487.01 488.15   43.61
   0  -8   0  9638.2   377.7   2 0.12944-0.12944-0.39797-0.39797-0.90822 0.90822  0 174.84  63.77  176.99 174.89  63.83  176.97
   0   8   0  8175.2   353.9   2-0.23672 0.23672 0.39771 0.39771 0.88645-0.88645  0 148.94  89.33  356.42 149.08  89.41  356.42
   0  -8  -1 178.844 124.528   1-0.69504 0.69504-0.34331-0.45204-0.63171 0.55909  0 111.64 373.28   72.45 111.65 373.47   72.48
   0  -8  -1 460.334 287.564   2-0.16772 0.16772-0.47972-0.31603 0.86124-0.93381  0 493.40 488.23   48.55 493.15 487.82   48.84
   0  -8  -1 181.862 160.438   2 0.12846-0.12846-0.31563-0.48031-0.94015 0.86764  0 176.87  59.79  182.05 176.97  60.10  182.04
   0  -8   1 192.500 122.702   1-0.70035 0.70035-0.45147-0.34388-0.55288 0.62550  0 100.47 349.00   80.41 100.68 348.78   80.15
   0  -8   1  59.430 262.458   2-0.19140 0.19140-0.31646-0.47929 0.92910-0.85653  0 483.78 492.24   38.60 483.92 492.55   38.62
   0  -8   1 141.631 163.631   2 0.12840-0.12840-0.48031-0.31563-0.86765 0.94015  0 171.01  65.15  171.55 171.04  65.20  171.68
   0   8  -1 212.841 158.578   2-0.23540 0.23540 0.47822 0.31721 0.84610-0.91868  0 150.55  85.09  350.96 150.73  85.43  351.24
   0   8   1 161.536 160.369   2-0.23535 0.23535 0.31741 0.47833 0.91862-0.84605  0 145.64  91.34    1.50 145.38  91.20    1.56
   0  -8  -2  3825.9   253.4   1-0.68791 0.68791-0.28939-0.50596-0.66561 0.52037  0 114.40 387.35   68.77 114.39 387.16   68.81
   0  -8  -2  5528.1   486.2   2-0.15349 0.15349-0.55955-0.23647 0.81446-0.95944  2 501.83 490.83   54.32 502.20 491.15   54.23
   0  -8  -2  5165.1   325.7   2 0.12649-0.12649-0.23563-0.56031-0.96358 0.81857  0 177.53  53.88  187.02 177.41  53.89  186.82
   0  -8   2  4168.4   256.9   1-0.69832 0.69832-0.50379-0.29156-0.50848 0.65371  0  92.44 337.47   84.28  92.45 337.33   84.09
   0  -8   2  5258.9   477.5   2-0.20065 0.20065-0.23778-0.55797 0.95037-0.80524  2 483.52 500.82   33.66 483.61 500.81   33.94
   0  -8   2  5196.5   321.3   2 0.12618-0.12618-0.56032-0.23562-0.81861 0.96362  0 165.41  64.06  166.35 165.46  64.25  166.26
   0   8  -2  4994.3   327.5   2-0.23247 0.23247 0.55657 0.23921 0.79762-0.94273  0 150.49  79.13  346.10 150.44  79.29  346.02
   0   8   2  5556.4   323.4   2-0.23387 0.23387 0.23924 0.55651 0.94238-0.79725  0 140.08  90.85    6.02 140.05  90.91    6.24
   0  -8  -3  4439.5   248.1   1-0.67857 0.67857-0.23708-0.55827-0.69523 0.47737  0 115.39 402.34   65.34 115.27 402.14   65.33
   0  -8  -3  6491.3   352.7   2 0.12383-0.12383-0.16006-0.63588-0.97931 0.76179  0 176.00  44.81  191.28 176.15  45.07  191.25
   0  -8   3  4292.2   288.3   1-0.69281 0.69281-0.55397-0.24138-0.46166 0.67952  0  82.33 326.26   88.26  82.29 326.22   88.03
   0  -8   3  6227.9   353.5   2 0.12224-0.12224-0.63593-0.16001-0.76200 0.97952  0 158.05  61.04  161.00 158.03  60.98  160.84
   0   8  -3  5418.0   337.0   2-0.22819 0.22819 0.63057 0.16520 0.74183-0.95950  0 148.41  70.45  340.68 148.46  70.78  340.68
   0   8   3  6551.1   346.9   2-0.23128 0.23128 0.16537 0.63038 0.95873-0.74103  0 132.73  88.53   10.60 132.74  88.52   10.59
   0  -8  -4 600.688 158.962   1-0.66756 0.66756-0.18756-0.60779-0.72055 0.43007  0 113.96 419.03   62.48 114.22 418.75   62.09
   0  -8  -4 745.153 206.953   2 0.12020-0.12020-0.09058-0.70536-0.98861 0.69858  0 172.84  33.16  195.30 173.15  33.46  195.28
   0  -8   4 362.739 153.391   1-0.68404 0.68404-0.60145-0.19390-0.41273 0.70320  0  69.73 315.26   92.07  70.10 315.24   91.96
   0  -8   4 630.561 195.499   2 0.11661-0.11661-0.70552-0.09042-0.69903 0.98905  0 148.86  55.57  155.44 148.62  55.34  155.46
   0   8  -4 513.290 198.199   2-0.22243 0.22243 0.69877 0.09700 0.67989-0.97011  0 144.81  59.77  335.42 144.52  59.66  335.35
   0   8   4 643.392 196.745   2-0.22811 0.22811 0.09745 0.69830 0.96875-0.67849  0 123.54  84.10   14.56 123.30  84.02   14.54
   0  -8  -5 508.549 159.674   1-0.65566 0.65566-0.14200-0.65335-0.74159 0.37849  0 111.18 437.16   58.90 111.19 437.47   59.14
   0  -8  -5  1060.9   234.6   2 0.11635-0.11635-0.02834-0.76760-0.99280 0.63027  0 168.33  18.70  198.61 168.33  18.67  198.86
   0  -8   5 664.452 163.717   1-0.67218 0.67218-0.64584-0.14951-0.36204 0.72514  0  55.84 304.30   95.65  55.64 304.20   95.88
   0  -8   5 909.597 221.030   2 0.10958-0.10958-0.76796-0.02798-0.63106 0.99358  0 136.98  47.31  150.36 136.97  47.19  150.16
   0   8  -5 818.906 227.681   2-0.21547 0.21547 0.76007 0.03570 0.61308-0.97586  0 138.50  45.30  330.04 138.61  45.74  330.12
   0   8   5  1009.8   220.0   2-0.22471 0.22471 0.03661 0.75914 0.97374-0.61091  0 111.67  77.31   17.97 111.52  77.36   18.02
   0  -8  -6 527.208 160.604   1-0.64386 0.64386-0.10156-0.69379-0.75838 0.32266  0 105.75 460.08   56.70 106.00 459.01   56.54
   0  -8   6 790.398 196.028   1-0.65745 0.65745-0.68668-0.10881-0.31021 0.74560  0  38.93 292.84   99.97  38.70 293.02   99.76
   0  -8   6 703.212 235.726   2 0.10152-0.10152-0.82240 0.02601-0.55977 0.99449  0 123.09  36.85  144.58 122.81  36.48  144.96
   0   8  -6 743.342 245.245   2-0.20737 0.20737 0.81389-0.01812 0.54276-0.97810  0 130.54  28.48  324.36 130.51  28.67  324.99
   0   8   6 963.653 225.837   2-0.22105 0.22105-0.01655 0.81230 0.97512-0.53973  0  97.23  68.56   21.43  97.12  68.38   21.09
   0  -8  -7  45.814 165.918   1-0.63272 0.63272-0.06705-0.72830-0.77147 0.26314  0  98.71 483.36   54.34  98.49 484.25   54.34
   0  -8   7 505.019 180.425   1-0.63966 0.63966-0.72428-0.07121-0.25739 0.76535  0  19.24 280.85  103.38  18.70 281.11  103.62
   0  -8   7 120.421 243.268   2 0.09233-0.09233-0.86913 0.07273-0.48589 0.99307  0 105.68  22.79  139.50 105.77  22.70  139.93
   0   8  -7 322.976 274.866   2-0.19827 0.19827 0.86003-0.06426 0.47015-0.97804  2 120.09   8.13  320.01 119.84   7.63  320.01
   0   8   7 221.817 244.288   2-0.21748 0.21748-0.06181 0.85756 0.97411-0.46615  0  80.44  57.15   24.09  79.63  56.81   23.70
   0  -9   0 -93.338 160.279   1-0.70038 0.70038-0.44738-0.44738-0.55616 0.55616  0  68.82 385.26   80.07  69.27 385.02   79.85
   0  -9   0 276.012 210.909   2 0.12901-0.12901-0.44772-0.44772-0.88482 0.88482  0 147.40  22.08  174.09 147.20  21.58  173.80
   0   9   0-172.333 189.938   2-0.23615 0.23615 0.44743 0.44743 0.86258-0.86258  0 115.53  54.27  353.43 115.95  54.70  353.25
   0  -9  -1 11510.1   389.0   1-0.69951 0.69951-0.40240-0.49237-0.59055 0.51793  0  74.33 399.36   76.61  74.30 399.27   76.61
   0  -9  -1 17961.4   545.7   2 0.12932-0.12932-0.37637-0.51907-0.91740 0.84489  0 149.42  17.23  178.32 149.47  17.26  178.32
   0  -9   1 11799.0   407.2   1-0.69906 0.69906-0.49241-0.40236-0.51850 0.59112  0  62.22 371.91   83.06  62.27 371.78   83.22
   0  -9   1 17172.2   541.9   2 0.12765-0.12765-0.51909-0.37635-0.84514 0.91764  0 142.91  23.08  169.20 143.02  23.17  169.09
   0   9  -1 15672.9   520.6   2-0.23406 0.23406 0.51728 0.37796 0.82319-0.89574  0 117.91  50.04  348.67 117.52  50.25  348.71
   0   9   1 14987.2   502.1   2-0.23687 0.23687 0.37778 0.51708 0.89508-0.82251  0 112.31  56.63  357.62 112.17  56.79  357.66
   0  -9  -2  1292.2   204.7   1-0.69651 0.69651-0.35826-0.53651-0.62171 0.47647  0  77.52 414.96   73.50  77.33 414.89   73.51
   0  -9  -2  1760.4   277.7   2 0.12830-0.12830-0.30673-0.58871-0.94311 0.79810  2 149.77   9.91  182.62 149.81  10.13  182.58
   0  -9   2  1228.6   209.9   1-0.69508 0.69508-0.53680-0.35797-0.47824 0.62348  0  53.33 359.38   86.68  53.19 359.30   86.65
   0  -9   2  1680.0   271.0   2 0.12482-0.12482-0.58879-0.30665-0.79859 0.94360  0 136.73  22.05  164.32 136.85  22.18  164.25
   0   9  -2  1583.6   262.3   2-0.23093 0.23093 0.58536 0.30988 0.77719-0.92230  0 117.15  43.08  343.58 117.15  43.30  343.99
   0   9   2  1568.6   260.9   2-0.23525 0.23525 0.31004 0.58518 0.92116-0.77603  0 106.10  56.68    1.98 106.00  56.55    2.00
   0  -9  -3  1424.4   204.8   1-0.69162 0.69162-0.31574-0.57902-0.64959 0.43173  0  78.33 432.38   70.56  78.33 432.24   70.59
   0  -9   3  1544.8   225.9   1-0.68845 0.68845-0.57995-0.31482-0.43554 0.65340  0  41.48 347.77   90.28  41.90 347.34   90.15
   0  -9   3  1798.9   277.9   2 0.12091-0.12091-0.65527-0.24016-0.74565 0.96317  0 128.66  18.72  159.49 128.57  18.47  159.39
   0   9  -3  1581.1   276.0   2-0.22663 0.22663 0.65037 0.24488 0.72503-0.94269  0 114.67  33.32  339.32 114.62  33.66  339.17
   0   9   3  2240.8   283.7   2-0.23403 0.23403 0.24530 0.64991 0.94077-0.72308  0  98.09  54.14    6.04  97.83  54.01    5.88
   0  -9  -4 215.556 187.100   1-0.68573 0.68573-0.27588-0.61889-0.67354 0.38307  0  77.16 452.14   67.95  77.28 451.82   67.90
   0  -9   4-150.812 174.487   1-0.67922 0.67922-0.62135-0.27342-0.39063 0.68111  0  28.36 335.52   93.50  28.14 335.65   93.68
   0  -9   4 432.006 251.155   2 0.11547-0.11547-0.71726-0.17818-0.68718 0.97720  0 117.96  11.86  154.52 117.95  12.02  154.50
   0   9  -4 114.322 239.911   2-0.22114 0.22114 0.71105 0.18420 0.66747-0.95769  0 109.90  21.29  334.42 109.85  21.02  334.34
   0   9   4-130.857 219.999   2-0.23213 0.23213 0.18504 0.71017 0.95492-0.66466  0  87.21  49.12    9.44  87.13  49.07    9.44
  -1   0   0   5.018  14.406   1-0.06385-0.06385-0.82194 0.82194 0.56598-0.56598  0 322.40 235.89  164.42 322.24 235.52  164.23
  -1   0   0 4.48270  5.3024   2-0.06378-0.06378-0.89657 0.89657 0.43828-0.43828  0 321.91 235.47   84.36 321.72 235.42   83.95
  -1   0   0 0.74681  5.2101   2-0.06376-0.06376 0.93557-0.93557-0.34735 0.34735  0 328.68 244.61  271.38 328.68 244.76  270.74
  -1   0  -1  2387.4    63.7   1-0.28017 0.15247-0.89603 0.89603 0.34442-0.41699  0 334.71 245.08  146.05 334.73 245.17  145.92
  -1   0  -1  2261.2    36.5   2 0.06010-0.18767-0.96524 0.96524-0.25434 0.18189  0 335.36 248.38  125.35 335.42 248.39  125.45
  -1   0  -1  1994.0    34.0   2-0.14520 0.01769 0.98360-0.98360 0.10700-0.17950  0 320.26 228.25  297.56 320.33 228.27  297.60
  -1   0   1  1622.5    36.1   1-0.55304 0.42541 0.12824-0.12824-0.82323 0.89587  0 283.80 226.74   41.94 283.92 226.75   41.88
  -1   0   1  2283.1    49.6   2-0.00524-0.12233-0.99024 0.99024 0.13931-0.06685  0 308.91 223.42  102.35 309.02 223.48  102.34
  -1   0   1  2139.3    49.0   2-0.11737-0.01015 0.99139-0.99139-0.05804 0.13055  0 336.72 260.63  288.00 336.72 260.63  287.96
   1   0  -1  1593.8    36.0   1-0.38681 0.51444 0.40586-0.40586-0.82805 0.75540  0 316.41 289.98   23.03 316.47 289.92   23.27
   1   0  -1  2286.9    49.5   2 0.03413 0.09343-0.99550 0.99550-0.08843 0.01597  0 289.85 291.69  115.87 289.91 291.67  115.64
   1   0  -1  2124.5    48.3   2-0.07633 0.20385 0.95618-0.95618-0.28265 0.21015  0 264.59 255.95  274.75 264.70 255.92  274.69
   1   0   1  2311.1    63.3   1-0.17623 0.30394-0.87072 0.87072 0.45913-0.38662  0 267.03 270.04  154.99 267.16 270.05  154.91
   1   0   1  2406.3    36.1   2-0.01021 0.13778-0.98599 0.98599 0.16651-0.09405  0 265.86 267.66  100.90 266.00 267.68  100.73
   1   0   1  1935.6    32.8   2-0.20266 0.33016 0.83933-0.83933 0.50443-0.43187  0 278.98 286.43  322.30 279.14 286.33  322.33
  -1   0  -2  -1.224  30.040   1-0.38530 0.25759-0.89851 0.89851 0.21029-0.35542  0 349.81 254.55  136.57 349.57 254.97  136.14
  -1   0  -2   2.126  18.038   2 0.04720-0.17477-0.98429 0.98429-0.17016 0.02525  0 349.03 261.06  120.51 349.15 261.06  120.44
  -1   0  -2   3.364  18.103   2-0.12383-0.00369 0.99211-0.99211-0.01967-0.12533  0 312.51 212.59  290.25 312.46 212.38  290.19
  -1   0   2   5.091  14.573   1-0.69561 0.56797-0.53215 0.53215-0.48263 0.62787  0 278.29 217.48   86.42 278.19 217.17   86.29
  -1   0   2   0.455  22.894   2-0.00284-0.12473-0.99201 0.99201 0.12611 0.01880  0 296.71 211.27  104.18 296.28 211.32  103.12
  -1   0   2  -7.277  22.850   2-0.12968 0.00217 0.99145-0.99145 0.01453 0.13048  0 345.41 277.08  291.73 345.21 277.11  292.19
   1   0  -2   2.863  15.576   1-0.66932 0.79696-0.19496 0.19496-0.71694 0.57170  0 322.50 300.19   62.70 322.57 300.21   62.57
   1   0  -2  -7.233  22.569   2-0.09045 0.21797 0.97391-0.97391-0.20812 0.06311  0 257.46 240.86  279.49 257.08 240.69  279.16
   1   0   2 -15.690  21.555   1-0.26518 0.39289-0.89362 0.89362 0.36211-0.21698  0 253.89 260.59  147.51 254.18 260.71  147.27
   1   0   2-0.05363 14.2262   2-0.00391 0.13148-0.99124 0.99124 0.13205 0.01286  0 253.77 255.89  102.87 253.72 255.73  102.77
   1   0   2   7.174  19.057   2-0.17181 0.29931 0.94464-0.94464 0.27952-0.13441  0 286.61 302.33  307.89 286.50 302.53  307.87
  -1   0  -3 132996.    717.   1-0.44937 0.32166-0.88561 0.88561 0.11731-0.33501  0 365.88 265.19  129.98 365.91 265.19  129.62
  -1   0  -3 138655.    951.   2 0.04784-0.17541-0.98355 0.98355-0.17419-0.04317  0 363.73 274.33  120.75 363.67 274.31  120.68
  -1   0  -3 118638.    791.   2-0.11363-0.01389 0.99034-0.99034-0.07951-0.13799  0 304.50 196.11  286.81 304.60 196.19  286.71
  -1   0   3 97366.6   704.8   1-0.62588 0.49818-0.74799 0.74799-0.22086 0.43856  0 266.61 207.36  106.06 266.73 207.49  106.23
  -1   0   3 134081.    925.   2-0.00585-0.12172-0.98975 0.98975 0.14268 0.07468  0 283.39 198.93  101.89 283.53 199.04  102.14
  -1   0   3 118071.    523.   2-0.13827 0.01075 0.98826-0.98826 0.06507 0.15243  0 354.18 294.27  294.94 354.14 294.23  295.14
   1   0  -3 76056.5   412.9   1-0.70038 0.82802-0.44675 0.44675-0.55667 0.33882  0 335.14 311.41   79.99 335.23 311.33   79.80
   1   0  -3 127759.    905.   2 0.03973 0.08784-0.99164 0.99164-0.12280-0.09456  0 315.18 318.62  117.76 315.22 318.55  117.67
   1   0  -3 121216.    682.   2-0.09194 0.21946 0.97546-0.97546-0.20004-0.01747  0 249.39 225.47  279.67 249.21 225.42  279.64
   1   0   3 121961.    715.   1-0.29905 0.42676-0.89836 0.89836 0.32174-0.10405  0 240.61 251.35  144.07 240.50 251.39  144.23
   1   0   3 130079.    953.   2-0.00726 0.13482-0.98860 0.98860 0.15037 0.06699  0 241.46 244.01  101.87 241.32 244.06  101.69
   1   0   3   8.948  22.001   2-0.16646 0.29396 0.95547-0.95547 0.24368-0.02601  2 293.15 319.23  306.05 293.78 319.29  305.69
  -1   0  -4  19.964  49.291   1-0.49468 0.36697-0.86794 0.86794 0.04442-0.33468  0 383.71 276.24  123.94 383.71 276.09  124.60
  -1   0  -4 -13.109  38.062   2 0.05122-0.17878-0.97936 0.97936-0.19553-0.09429  0 379.12 288.10  121.51 379.20 288.27  121.93
  -1   0  -4  10.794  40.878   2-0.10522-0.02230 0.98634-0.98634-0.12677-0.16323  0 296.78 179.53  284.01 296.66 179.53  283.96
  -1   0   4  -1.386  27.148   1-0.55935 0.43164-0.82572 0.82572-0.07288 0.36314  0 253.61 197.77  116.55 253.50 197.44  116.55
  -1   0   4 -25.738  43.799   2-0.01055-0.11702-0.98567 0.98567 0.16834 0.12148  0 270.79 186.11  100.57 270.60 186.51  100.62
  -1   0   4  -1.638  43.500   2-0.14553 0.01802 0.98333-0.98333 0.10905 0.18096  0 363.57 312.62  297.60 363.62 312.25  297.72
   1   0  -4 -20.902  30.966   1-0.69514 0.82278-0.53627 0.53627-0.47875 0.18827  0 350.38 323.28   86.93 350.40 323.44   86.61
   1   0  -4  21.543  45.022   2 0.04455 0.08301-0.98716 0.98716-0.15337-0.13644  0 328.77 333.00  119.56 328.66 333.30  119.46
   1   0  -4  18.843  36.680   2-0.08964 0.21716 0.97305-0.97305-0.21246-0.07755  0 240.96 210.12  279.15 240.99 209.90  278.90
   1   0   4  25.361  35.889   1-0.30934 0.43705-0.89924 0.89924 0.30933-0.01907  0 226.47 241.96  143.57 226.35 241.94  143.31
   1   0   4 -40.722  28.728   2-0.01248 0.14005-0.98386 0.98386 0.17848 0.11134  0 228.70 232.41  100.35 228.57 232.45  100.01
  -1   0  -5 15570.6   253.6   1-0.53012 0.40241-0.84775 0.84775-0.01729-0.34553  0 402.92 287.99  120.35 403.12 287.94  120.36
  -1   0  -5 16736.9   248.9   2 0.05549-0.18306-0.97321 0.97321-0.22314-0.13913  0 395.76 303.29  123.59 396.05 303.22  123.57
  -1   0  -5 15667.6   241.8   2-0.09760-0.02992 0.98071-0.98071-0.16935-0.19316  0 288.44 162.05  281.41 288.58 162.17  281.46
  -1   0   5 15331.2   200.8   1-0.50567 0.37796-0.86234 0.86234 0.02590 0.33692  0 239.69 186.74  123.30 239.55 186.87  123.32
  -1   0   5 20201.9   290.7   2-0.01624-0.11132-0.98008 0.98008 0.19796 0.16449  0 257.04 173.43   99.00 257.27 173.54   98.86
  -1   0   5 15788.4   260.1   2-0.15207 0.02457 0.97687-0.97687 0.15035 0.21243  0 373.83 331.52  300.00 373.76 331.46  300.12
   1   0  -5 11728.4   182.1   1-0.69048 0.81812-0.56894 0.56894-0.44671 0.08362  0 367.15 336.92   89.02 367.24 336.82   89.24
   1   0  -5 17243.1   269.8   2 0.04971 0.07785-0.98127 0.98127-0.18609-0.17618  0 342.96 349.39  121.31 342.96 349.27  121.38
   1   0  -5 16436.0   259.0   2-0.08560 0.21312 0.96851-0.96851-0.23379-0.12872  0 232.41 193.90  277.63 232.29 193.90  277.64
   1   0   5 15856.3   251.6   1-0.30716 0.43487-0.89906 0.89906 0.31201 0.05082  0 211.79 232.15  143.50 211.72 232.21  143.51
   1   0   5 18761.6   257.9   2-0.01859 0.14616-0.97748 0.97748 0.21022 0.15223  0 215.38 220.64   97.90 215.22 220.72   98.11
   1   0   5 10701.2   203.1   2-0.16941 0.29691 0.94971-0.94971 0.26334 0.09944  0 308.67 355.90  307.04 308.71 355.86  306.89
  -1   0  -6 -28.784  73.604   1-0.55912 0.43141-0.82592 0.82592-0.07242-0.36297  0 424.29 301.23  116.56 424.58 301.03  116.58
  -1   0  -6   7.660  73.022   2 0.06000-0.18757-0.96542 0.96542-0.25368-0.18104  0 414.84 319.33  125.47 414.61 319.42  125.41
  -1   0  -6 -46.498  61.717   2-0.09014-0.03738 0.97359-0.97359-0.20977-0.22524  0 280.45 143.78  279.51 280.23 143.83  279.06
  -1   0   6  42.780  41.397   1-0.45944 0.33173-0.88237 0.88237 0.10166 0.33373  0 224.99 175.63  128.55 225.00 175.56  128.53
  -1   0   6  -8.241  55.039   2-0.02225-0.10532-0.97302 0.97302 0.22965 0.20528  0 243.73 160.17   96.57 243.46 160.02   96.95
  -1   0   6 -65.615  79.112   2-0.15833 0.03083 0.96894-0.96894 0.18997 0.24537  0 385.06 352.37  302.67 384.82 352.28  302.46
   1   0  -6 -17.731  59.609   1-0.68895 0.81660-0.57720 0.57720-0.43838 0.00267  0 385.74 351.88   90.07 385.74 351.86   89.92
   1   0  -6  23.684  78.387   2 0.05500 0.07256-0.97396 0.97396-0.21994-0.21478  0 358.31 367.05  123.46 358.40 366.84  123.38
   1   0  -6-0.05314 55.2802   2-0.08068 0.20819 0.96227-0.96227-0.25985-0.17517  0 223.02 177.13  276.59 223.01 177.21  276.07
   1   0   6 -30.338  53.212   1-0.29746 0.42517-0.89819 0.89819 0.32368 0.11171  0 196.55 222.36  144.53 196.48 222.04  144.37
   1   0   6 -13.981  48.476   2-0.02482 0.15239-0.96959 0.96959 0.24346 0.19148  0 201.47 208.71   96.03 201.21 208.77   96.12
   1   0   6   5.777  70.260   2-0.17290 0.30040 0.94220-0.94220 0.28698 0.14836  0 316.49 376.46  308.41 316.53 376.36  308.33
  -1   0  -7 18908.5   339.0   1-0.58384 0.45614-0.80246 0.80246-0.12324-0.38471  0 448.36 315.95  113.06 448.59 315.85  113.08
  -1   0  -7 22447.0   358.0   2 0.06473-0.19230-0.95607 0.95607-0.28591-0.22126  0 435.29 337.45  127.27 435.53 337.35  127.34
  -1   0  -7 20957.4   347.1   2-0.08274-0.04478 0.96497-0.96497-0.24899-0.25853  0 271.33 124.01  276.71 271.50 124.17  276.73
  -1   0   7 21329.3   294.2   1-0.41728 0.28957-0.89365 0.89365 0.16512 0.34284  0 209.89 163.02  133.15 209.82 163.24  132.95
  -1   0   7 24164.4   377.7   2-0.02847-0.09910-0.96449 0.96449 0.26259 0.24483  0 229.04 145.59   95.00 228.89 145.73   94.96
  -1   0   7 20670.0   366.0   2-0.16420 0.03670 0.95954-0.95954 0.22873 0.27916  0 396.76 375.31  305.01 397.04 375.22  304.80
   1   0  -7 14460.2   253.1   1-0.68982 0.81746-0.57231 0.57231-0.44341-0.06493  0 405.64 369.13   89.58 406.14 369.07   89.51
   1   0  -7 22031.3   374.5   2 0.06013 0.06744-0.96520 0.96520-0.25451-0.25267  0 375.41 386.64  125.42 375.33 386.45  125.46
   1   0  -7 21281.1   356.0   2-0.07518 0.20270 0.95447-0.95447-0.28867-0.21885  0 213.09 159.52  274.20 212.97 159.54  274.33
   1   0   7 21258.2   342.5   1-0.28292 0.41063-0.89642 0.89642 0.34116 0.16679  0 180.41 211.09  145.79 180.42 211.21  145.68
   1   0   7 24567.2   361.9   2-0.03142 0.15899-0.96017 0.96017 0.27765 0.22978  0 186.31 196.32   93.84 186.19 196.43   94.05
   1   0   7 19665.5   339.0   2-0.17696 0.30446 0.93266-0.93266 0.31437 0.19352  0 324.65 399.14  310.00 324.74 398.95  310.02
  -1   0  -8 -19.807 110.635   1-0.60543 0.47772-0.77729 0.77729-0.17112-0.40940  0 476.14 333.37  109.42 475.96 333.00  109.74
  -1   0  -8  41.608 117.666   2 0.06938-0.19695-0.94517 0.94517-0.31912-0.26051  0 459.39 357.33  129.51 459.44 357.55  129.37
  -1   0  -8   8.405 110.138   2-0.07541-0.05211 0.95482-0.95482-0.28745-0.29257  0 262.04 102.42  274.43 262.25 102.74  274.40
  -1   0   8  -1.343  69.561   1-0.37728 0.24957-0.89927 0.89927 0.22131 0.35921  0 193.82 149.51  136.52 193.81 149.55  136.92
  -1   0   8 -17.782  85.983   2-0.03503-0.09254-0.95446 0.95446 0.29628 0.28363  0 213.36 130.66   92.51 213.26 130.39   92.91
  -1   0   8  13.909 122.683   2-0.16994 0.04244 0.94862-0.94862 0.26690 0.31355  0 410.96 400.80  307.13 410.80 400.97  307.11
   1   0  -8  22.552  89.347   1-0.69204 0.81969-0.55914 0.55914-0.45655-0.12440  0 429.03 389.06   88.73 428.93 389.12   88.44
   1   0  -8  22.028 124.765   2 0.06526 0.06230-0.95495 0.95495-0.28949-0.29014  0 394.39 408.69  128.10 394.37 408.81  127.56
   1   0  -8  74.947  91.666   2-0.06921 0.19673 0.94514-0.94514-0.31924-0.26077  0 202.05 140.31  272.48 201.99 140.53  272.46
   1   0   8  -3.785  70.183   1-0.26479 0.39250-0.89355 0.89355 0.36256 0.21796  0 163.29 199.38  147.34 163.32 199.47  147.30
   1   0   8  23.728  79.712   2-0.03826 0.16583-0.94918 0.94918 0.31240 0.26751  0 169.80 183.48   92.05 169.91 183.53   91.91
   1   0   8  -8.731 108.721   2-0.18121 0.30871 0.92131-0.92131 0.34403 0.23642  0 333.42 424.27  312.13 333.48 424.29  311.87
  -1   0  -9 769.389 177.659   2 0.07427-0.20183-0.93265 0.93265-0.35305-0.29904  0 487.54 380.73  131.36 487.54 380.86  131.47
  -1   0  -9  1103.9   146.2   2-0.06801-0.05951 0.94312-0.94312-0.32543-0.32709  0 252.32  78.80  272.24 252.28  79.00  272.09
  -1   0   9 988.876 117.949   1-0.33819 0.21048-0.90064 0.90064 0.27290 0.38019  0 176.73 133.95  140.73 176.78 134.11  140.64
  -1   0   9 947.028 149.089   2-0.04182-0.08575-0.94288 0.94288 0.33050 0.32191  0 196.39 113.67   91.03 196.23 113.69   90.80
  -1   0   9 797.594 186.740   2-0.17556 0.04806 0.93614-0.93614 0.30467 0.34833  0 426.49 430.53  309.44 426.56 430.50  309.43
   1   0  -9 603.116 144.686   1-0.69466 0.82230-0.54029 0.54029-0.47492-0.17865  0 454.73 413.01   86.71 454.95 413.06   86.93
   1   0  -9  1034.3   190.6   2 0.07021 0.05736-0.94318 0.94318-0.32478-0.32730  0 415.91 434.67  130.10 416.17 434.78  129.72
   1   0  -9 768.960 142.590   2-0.06303 0.19055 0.93424-0.93424-0.35104-0.30148  0 189.68 119.55  270.48 189.78 119.75  270.51
   1   0   9 963.601 131.915   1-0.24370 0.37141-0.88943 0.88943 0.38669 0.26640  0 144.71 186.28  149.39 144.84 186.47  149.15
   1   0   9  1099.5   144.8   2-0.04530 0.17287-0.93657 0.93657 0.34753 0.30487  0 152.01 169.71   89.62 151.98 169.83   89.74
   1   0   9 851.936 170.262   2-0.18553 0.31303 0.90820-0.90820 0.37517 0.27783  0 342.77 453.45  313.83 342.96 453.22  313.83
  -1   0 -10  -9.255 129.985   2-0.06065-0.06687 0.92979-0.92979-0.36306-0.36196  0 241.54  52.19  269.44 241.34  52.13  269.76
  -1   0  10  42.328  98.380   1-0.29935 0.17164-0.89839 0.89839 0.32138 0.40427  0 158.22 116.54  143.90 158.31 116.28  144.20
  -1   0  10  53.322 134.748   2-0.04881-0.07876-0.92969 0.92969 0.36508 0.35981  0 177.27  94.56   88.56 177.34  95.15   88.64
  -1   0  10-107.885 200.490   2-0.18095 0.05345 0.92204-0.92204 0.34219 0.38338  0 445.09 465.52  311.49 445.04 465.22  311.76
   1   0 -10-101.240 169.597   1-0.69727 0.82491-0.51666 0.51666-0.49687-0.22932  0 485.31 442.66   84.99 485.27 442.39   85.08
   1   0 -10-186.154 203.328   2 0.07529 0.05228-0.92982 0.92982-0.36024-0.36429  0 441.98 465.79  131.54 441.90 465.73  131.91
   1   0 -10  92.811 130.194   2-0.05647 0.18399 0.92175-0.92175-0.38366-0.34136  0 176.22  96.74  268.56 175.97  96.59  268.47
   1   0  10  74.867 111.567   1-0.21993 0.34764-0.88400 0.88400 0.41251 0.31255  0 124.29 171.90  151.46 124.56 171.90  151.17
   1   0  10 155.452 115.343   2-0.05242 0.17999-0.92230 0.92230 0.38290 0.34200  0 132.00 154.99   87.54 131.86 155.05   87.50
   1   0  10 -33.607 186.655   2-0.18989 0.31739 0.89331-0.89331 0.40735 0.31821  0 353.17 487.06  315.30 353.44 487.02  315.89
  -1   0 -11 27380.7   550.3   2-0.05309-0.07443 0.91477-0.91477-0.40047-0.39705  0 229.11  20.78  267.34 229.05  21.05  267.41
  -1   0  11 27825.8   464.7   1-0.26038 0.13267-0.89276 0.89276 0.36767 0.43055  0 137.85  95.04  147.71 137.92  95.30  147.69
  -1   0  11 31058.6   591.1   2-0.05588-0.07169-0.91483 0.91483 0.39996 0.39743  0 155.94  73.97   86.42 155.87  74.17   86.41
   1   0 -11 26737.7   729.0   2 0.08023 0.04734-0.91480 0.91480-0.39586-0.40113  2 473.06 503.78  134.02 473.20 503.72  134.14
   1   0 -11 27708.5   562.7   2-0.04971 0.17723 0.90759-0.90759-0.41690-0.38062  0 160.03  70.09  266.29 160.06  70.24  266.38
   1   0  11 27688.2   513.7   1-0.19427 0.32198-0.87668 0.87668 0.44011 0.35745  0 102.18 154.80  153.36 101.95 155.03  153.37
   1   0  11 30672.3   556.1   2-0.05967 0.18724-0.90628 0.90628 0.41844 0.37894  0 109.20 138.66   84.99 108.89 138.80   85.22
  -1   0  12 153.950 158.252   1-0.22034 0.09263-0.88411 0.88411 0.41207 0.45800  0 115.20  70.29  151.41 115.04  70.03  151.14
  -1   0  12 -60.375 195.887   2-0.06311-0.06446-0.89820 0.89820 0.43504 0.43484  0 131.06  50.24   84.11 131.01  49.94   84.16
   1   0 -12   3.370 192.619   2-0.04282 0.17034 0.89168-0.89168-0.45063-0.41939  0 140.91  39.27  264.00 141.27  39.46  264.19
   1   0  12 154.499 162.809   1-0.16655 0.29425-0.86743 0.86743 0.46885 0.40122  0  76.30 134.92  155.62  76.16 135.05  155.72
   1   0  12  18.362 164.405   2-0.06710 0.19466-0.88841 0.88841 0.45413 0.41574  0  82.26 120.49   82.90  82.10 120.58   82.91
  -1  -1   0   7.817  21.540   1-0.40204 0.27441 0.38465-0.48404-0.83091 0.83091  0 263.06 246.97   24.51 263.10 246.79   24.78
  -1  -1   0  57.356  16.076   2-0.23127 0.10372 0.16504-0.26451 0.95879-0.95879  0 340.75 257.52   10.45 340.86 257.69   10.61
  -1  -1   0   8.078  14.021   2 0.12809-0.25566-0.29577 0.19628-0.94663 0.94663  0 313.00 220.86  183.38 313.07 220.66  183.24
  -1   1   0  11.308  14.628   1-0.65016 0.52245-0.70329 0.80273-0.28752 0.28752  0 322.32 224.59  101.40 322.27 224.75  101.42
  -1   1   0  18.001  17.047   2-0.21089 0.08334-0.13891 0.23838 0.96759-0.96759  0 307.62 219.56   28.41 307.64 219.41   28.15
  -1   1   0  -8.028  16.575   2 0.09203-0.21958 0.24945-0.14993-0.96401 0.96401  0 340.40 263.24  214.83 340.34 263.27  214.93
   1  -1   0   0.996  15.326   1-0.54770 0.67541-0.83516 0.73573-0.05023 0.05023  0 278.27 289.79  117.91 278.44 289.96  118.11
   1  -1   0   7.648  16.313   2-0.18449 0.31204-0.36809 0.26862 0.91130-0.91130  0 291.39 296.33   41.49 291.37 295.92   41.77
   1  -1   0  17.599  16.756   2 0.11362 0.01394 0.01412-0.11364-0.99342 0.99342  0 261.43 253.34  201.22 261.35 253.31  201.26
   1   1   0  17.452  20.568   1-0.29959 0.42722 0.51637-0.41699-0.80225 0.80225  0 339.25 269.69   15.19 339.23 269.79   15.07
   1   1   0  14.378  13.908   2 0.11581 0.01175-0.01693 0.11645-0.99313 0.99313  0 286.15 294.07  199.54 285.91 294.07  199.47
   1   1   0   4.366  14.811   2-0.23635 0.36384 0.43451-0.33509 0.86910-0.86910  0 260.67 258.91  354.53 261.18 258.84  354.08
  -1  -1  -1  1108.4    56.8   1-0.18883 0.06120 0.63303-0.73242-0.75074 0.67810  0 257.64 256.11    5.34 257.79 256.16    5.38
  -1  -1  -1  1942.2    50.6   2-0.15424 0.02668-0.55546 0.45596 0.81711-0.88960  0 344.94 257.79   54.01 344.98 257.83   53.95
  -1  -1  -1  1888.8    49.4   2 0.07026-0.19781 0.41349-0.51301-0.90779 0.83528  0 314.14 216.92  225.00 314.20 216.95  224.97
  -1  -1   1  1167.5    52.4   1-0.59857 0.47094 0.02527-0.12465-0.80067 0.87331  0 262.92 237.36   48.24 263.09 237.40   48.46
  -1  -1   1  1572.0    52.0   2 0.11024-0.23781-0.76325 0.66376-0.63663 0.70913  0 305.06 215.08  150.54 305.19 215.16  150.57
  -1  -1   1  1421.1    51.3   2-0.22614 0.09864 0.65672-0.75619 0.71943-0.64688  0 344.02 267.22  339.00 344.05 267.20  338.68
  -1   1  -1  1373.2    54.5   1-0.61304 0.48533-0.76710 0.86654-0.18904 0.11647  0 337.97 234.15  108.43 337.96 234.21  108.49
  -1   1  -1  1705.2    52.8   2 0.12901-0.25658-0.35218 0.45167-0.92700 0.85449  0 344.50 263.48  180.19 344.50 263.50  179.82
  -1   1  -1  1396.0    48.0   2-0.23548 0.10799 0.47491-0.37548 0.84794-0.92052  0 308.72 215.67  351.60 308.84 215.75  351.46
  -1   1   1  1167.0    21.1   1-0.65560 0.52796-0.14180 0.24122-0.74168 0.81430  0 306.98 215.32   59.35 307.03 215.39   59.13
  -1   1   1  1900.0    60.1   2-0.14548 0.01791-0.60108 0.70058 0.78584-0.71335  0 300.44 214.96   56.90 300.54 215.03   57.16
  -1   1   1  1823.5    59.5   2 0.01661-0.14416 0.69966-0.60014-0.71428 0.78680  0 342.70 271.61  245.00 342.67 271.58  245.13
   1  -1  -1  1351.4    22.3   1-0.56265 0.69036-0.82287 0.72344-0.07942 0.00686  0 292.76 300.08  115.77 292.91 300.02  116.10
   1  -1  -1  1925.3    60.1   2 0.05201 0.07554 0.52688-0.62640-0.84835 0.77583  0 259.14 245.65  232.35 259.26 245.59  232.38
   1  -1   1  1412.5    55.7   1-0.52892 0.65663-0.84854 0.74910-0.01510 0.08767  0 264.05 280.32  120.45 264.19 280.30  120.51
   1  -1   1  1562.0    50.0   2-0.23365 0.36120 0.23137-0.33084 0.94439-0.87183  0 290.07 299.61    7.21 290.17 299.53    6.71
   1  -1   1  1686.5    51.4   2 0.12511 0.00246-0.58271 0.48322-0.80299 0.87550  0 257.44 253.21  164.94 257.66 253.16  164.68
   1   1  -1  1232.2    53.1   1-0.51251 0.64013 0.20728-0.10790-0.83329 0.76065  0 339.18 279.76   36.96 339.23 279.73   36.76
   1   1  -1  1446.9    51.4   2-0.20693 0.33443 0.81640-0.71693 0.53913-0.61169  0 258.10 250.05  324.99 258.28 250.01  324.74
   1   1   1  1905.3    48.9   2-0.19614 0.32369-0.27678 0.37625 0.94070-0.86814  0 257.21 258.77   36.03 257.45 258.77   36.24
   1   1   1  1827.0    48.3   2 0.02368 0.10387 0.66892-0.56940-0.74296 0.81547  0 284.63 297.76  242.79 284.74 297.68  242.66
  -1  -1  -2 27404.8   243.6   1-0.11516-0.01255-0.84685 0.74742 0.51922-0.66423  0 355.83 265.92  160.01 355.78 265.93  160.01
  -1  -1  -2 27417.4   202.6   2-0.07640-0.05117-0.86409 0.76458 0.49751-0.64249  0 355.37 265.88   80.00 355.36 265.90   80.02
  -1  -1  -2 27638.8   203.3   2 0.00709-0.13465 0.73763-0.83716-0.67516 0.53013  0 309.72 205.53  248.07 309.78 205.58  248.30
  -1  -1   2 16959.0   175.4   1-0.69052 0.56288-0.30757 0.20815-0.65467 0.79990  0 257.65 227.89   69.96 257.82 227.94   70.03
  -1  -1   2 25121.4   218.3   2 0.08015-0.20772-0.91506 0.81551-0.39528 0.54018  0 294.19 205.42  134.00 294.33 205.47  134.10
  -1  -1   2 22317.5   205.5   2-0.20703 0.07953 0.81582-0.91529 0.53998-0.39487  0 350.67 281.24  325.09 350.70 281.19  324.80
  -1   1  -2 21712.1   216.2   1-0.60334 0.47563-0.77995 0.87939-0.16629 0.02116  0 354.42 243.80  109.99 354.36 243.84  110.08
  -1   1  -2 25337.3   204.0   2 0.11954-0.24711-0.67316 0.77265-0.72977 0.58476  0 354.26 270.87  158.00 354.27 270.90  158.02
  -1   1  -2 22661.3   193.2   2-0.21030 0.08280 0.79592-0.69645 0.56770-0.71281  0 304.87 205.10  327.12 304.91 205.15  326.78
  -1   1   2 27476.1   232.6   2-0.10198-0.02558-0.78462 0.88412 0.61153-0.46655  0 290.19 206.16   72.03 290.31 206.23   71.92
  -1   1   2 25449.5   223.3   2-0.03771-0.08981 0.87959-0.78005-0.47423 0.61923  0 348.65 284.78  262.71 348.57 284.71  262.66
   1  -1  -2 15377.2    67.9   1-0.22274 0.35037 0.59969-0.69908-0.76860 0.62332  0 292.53 310.12    8.55 292.65 310.03    8.30
   1  -1  -2 19630.2    92.0   1-0.59041 0.71812-0.79532 0.69588-0.13744-0.00769  0 307.48 310.72  112.48 307.55 310.66  112.09
   1  -1  -2 27853.9   232.9   2-0.05807 0.18564-0.90994 0.81043 0.41066-0.55564  0 308.37 310.57   85.99 308.42 310.51   85.72
   1  -1  -2 29135.2   238.0   2 0.00548 0.12208 0.74382-0.84334-0.66835 0.52332  0 254.28 233.74  249.03 254.00 233.71  248.83
   1  -1   2 21366.4   213.0   1-0.50867 0.63638-0.86071 0.76128 0.02071 0.12442  0 250.14 270.90  123.01 249.99 270.87  122.96
   1  -1   2 24068.4   197.0   2 0.09527 0.03230-0.85557 0.75602-0.50884 0.65375  0 249.35 246.68  141.35 249.19 246.66  141.47
   1   1  -2 15364.5   165.5   1-0.63440 0.76204-0.07210 0.17152-0.76963 0.62440  0 345.23 290.15   54.62 345.24 290.14   54.66
   1   1  -2 21823.7   202.2   2-0.17767 0.30517 0.93085-0.83138 0.31931-0.46442  0 252.54 237.29  310.40 252.38 237.26  310.33
   1   1   2 26435.3   238.7   1 0.03868 0.08902-0.75943 0.85885 0.64944-0.50443  0 249.08 250.52  172.71 248.93 250.53  172.62
   1   1   2 27839.6   202.4   2-0.13238 0.25995-0.66460 0.76410 0.73538-0.59040  0 248.55 251.47   62.18 248.40 251.48   61.88
   1   1   2 24485.3   189.9   2-0.04977 0.17729 0.90772-0.80818-0.41661 0.56161  0 288.76 309.43  266.35 288.79 309.28  266.39
  -1  -1  -3 340.224  52.489   1-0.24727 0.11956-0.89019 0.79075 0.38265-0.60035  0 369.23 276.56  148.82 369.23 276.58  148.84
  -1  -1  -3 304.555  42.999   2-0.03353-0.09404-0.95687 0.85737 0.28857-0.50604  0 368.49 277.27   93.33 368.58 277.27   93.38
  -1  -1  -3 306.498  43.003   2-0.02354-0.10398 0.84127-0.94081-0.54011 0.32260  0 303.42 191.19  258.36 303.35 191.22  258.21
  -1  -1   3 214.416  34.002   1-0.69551 0.56787-0.53308 0.43366-0.48176 0.69962  0 248.97 218.29   86.33 248.83 218.31   86.36
  -1  -1   3 246.901  47.128   2 0.05804-0.18560-0.96885 0.86930-0.24075 0.45811  0 282.31 194.30  124.58 282.43 194.35  124.63
  -1  -1   3 267.028  47.114   2-0.19590 0.06840 0.87031-0.96978 0.45187-0.23421  0 358.81 297.24  319.03 358.78 297.16  318.80
  -1   1  -3 272.997  50.509   1-0.60479 0.47708-0.77811 0.87754-0.16964-0.04806  0 371.76 253.87  109.71 371.74 253.87  109.85
  -1   1  -3 274.986  43.496   2 0.10566-0.23322-0.79629 0.89584-0.59561 0.37825  0 366.97 281.85  147.43 367.01 281.72  147.50
  -1   1  -3 219.575  41.791   2-0.18298 0.05548 0.91605-0.81658 0.35690-0.57456  0 298.67 191.27  313.10 298.84 191.40  312.68
  -1   1   3 274.121  32.248   1-0.16887 0.04116-0.86817 0.96759 0.46665-0.24913  0 277.87 196.04  155.67 278.07 196.13  155.53
  -1   1   3 246.155  47.908   2-0.07977-0.04780-0.85459 0.95409 0.51314-0.29567  0 278.58 195.71   79.04 278.76 195.64   78.95
  -1   1   3 274.053  48.381   2-0.07153-0.05599 0.94892-0.84938-0.30729 0.52480  0 356.23 300.11  273.24 356.20 300.21  273.20
   1  -1  -3 256.610  31.738   1-0.60371 0.73142-0.77949 0.68005-0.16713-0.05056  0 322.92 322.24  109.97 322.87 322.08  110.02
   1  -1  -3 326.171  50.149   2-0.02740 0.15497-0.96602 0.86652 0.25702-0.47448  0 320.20 322.72   95.15 320.19 322.66   95.30
   1  -1  -3 344.889  47.441   2-0.01931 0.14682 0.82864-0.92818-0.55945 0.34194  0 247.52 220.09  256.97 247.31 220.05  256.87
   1  -1   3 211.030  42.083   1-0.48725 0.61496-0.87141 0.77197 0.05683 0.16087  0 235.81 261.49  125.41 235.70 261.55  125.45
   1  -1   3 284.918  37.767   2 0.06741 0.06016-0.94976 0.85021-0.30563 0.52299  0 238.59 237.48  128.50 238.49 237.39  128.55
   1   1  -3 189.304  39.106   1-0.68210 0.80974-0.25542 0.35484-0.68521 0.46735  0 355.76 301.16   66.51 355.76 301.14   66.54
   1   1  -3 283.230  48.904   2 0.09489 0.03267-0.85737 0.95692-0.50588 0.28852  0 316.27 323.39  141.22 316.25 323.45  141.27
   1   1  -3 215.717  40.273   2-0.15718 0.28468 0.97055-0.87108 0.18255-0.40022  0 245.50 222.92  301.94 245.29 223.16  302.02
   1   1   3 270.238  40.197   1-0.05435 0.18205-0.81687 0.91629 0.57426-0.35674  0 238.08 241.03  165.01 237.83 241.17  165.01
   1   1   3 229.602  34.841   2-0.09754 0.22511-0.79991 0.89942 0.59214-0.37467  0 237.32 241.64   73.25 237.27 241.66   73.36
  -1  -1  -4 19480.7   255.0   1-0.34153 0.21382-0.90068 0.80125 0.26856-0.55882  0 384.74 287.95  140.24 384.99 287.93  140.32
  -1  -1  -4 13588.4   202.2   2-0.00769-0.11987-0.98823 0.88868 0.15276-0.44257  0 383.35 290.33  101.63 383.51 290.29  101.55
  -1  -1  -4 17959.7   230.7   2-0.03748-0.09004 0.87900-0.97854-0.47534 0.18534  0 296.03 175.37  262.57 296.13 175.45  262.58
  -1  -1   4 14134.6   195.4   1-0.66365 0.53600-0.67086 0.57144-0.33094 0.62141  0 237.85 208.28   97.97 237.66 208.36   98.22
  -1  -1   4 19438.8   258.4   2 0.04121-0.16878-0.99040 0.89085-0.13198 0.42179  0 269.80 182.34  117.90 269.97 182.43  118.21
  -1  -1   4 16232.4   238.7   2-0.19050 0.06300 0.89110-0.99057 0.41189-0.12167  0 367.81 314.66  316.08 367.83 314.58  316.18
  -1   1  -4 15751.2   238.1   1-0.61132 0.48361-0.76948 0.86892-0.18490-0.10536  0 390.13 264.52  108.99 390.38 264.50  108.78
  -1   1  -4 18787.7   238.4   2 0.09712-0.22469-0.84643 0.94598-0.52357 0.23376  0 381.54 294.48  142.35 381.55 294.48  142.47
  -1   1  -4 16166.9   223.8   2-0.16149 0.03399 0.96401-0.86454 0.21118-0.50141  0 291.76 175.96  303.99 291.82 176.04  303.73
  -1   1   4 18475.7   170.2   1-0.24233 0.11462-0.88913 0.98857 0.38823-0.09797  0 263.43 185.79  149.16 263.60 185.96  149.27
  -1   1   4 20895.7   269.2   2-0.06900-0.05857-0.88367 0.98317 0.46300-0.17304  0 266.38 184.01   81.99 266.52 184.08   82.33
  -1   1   4 14265.0   225.4   2-0.09435-0.03317 0.97782-0.87828-0.18698 0.47699  0 365.10 317.42  280.41 364.91 317.32  280.41
   1  -1  -4 14400.6   151.3   1-0.61846 0.74617-0.75935 0.65991-0.20223-0.08803  0 338.82 334.63  107.81 338.86 334.52  107.55
   1  -1  -4 20435.5   265.5   2-0.00660 0.13417-0.98915 0.88960 0.14678-0.43660  0 333.02 336.58  101.95 333.05 336.47  101.90
   1  -1  -4 19445.1   257.0   2-0.03204 0.15956 0.86483-0.96437-0.50104 0.21104  0 239.88 205.42  261.01 239.75 205.41  260.87
   1  -1   4 16743.5   242.3   1-0.46485 0.59256-0.88047 0.78104 0.09315 0.19711  0 221.25 252.15  127.95 221.14 252.17  127.95
   1  -1   4 18767.0   235.2   2 0.04699 0.08058-0.98453 0.88498-0.16878 0.45860  0 226.74 227.02  120.17 226.61 227.06  120.36
   1  -1   4 16625.8   226.9   2-0.20910 0.33660 0.80348-0.90295 0.55741-0.26718  2 305.78 341.34  326.00 305.90 341.21  326.04
   1   1  -4 12061.9   184.1   1-0.69674 0.82439-0.36083 0.46025-0.61996 0.32949  0 369.35 313.16   73.82 369.38 313.08   73.69
   1   1  -4 18731.8   254.3   2 0.08825 0.03932-0.88584 0.98539-0.45552 0.16570  0 329.20 337.71  137.95 329.22 337.61  137.94
   1   1  -4 16142.9   233.3   2-0.14174 0.26926 0.98616-0.88662 0.08603-0.37604  0 237.63 208.29  296.33 237.51 208.27  296.37
   1   1   4 18893.1   248.2   1-0.10744 0.23515-0.84331 0.94273 0.52658-0.23656  0 225.47 231.51  160.79 225.38 231.58  160.65
   1   1   4 19404.2   235.4   2-0.08081 0.20837-0.85161 0.95111 0.51791-0.22795  0 225.27 230.96   78.62 225.11 230.98   78.63
  -1  -1  -5  2931.0   137.9   1-0.41205 0.28434-0.89465 0.79521 0.17271-0.53553  0 402.65 300.31  133.56 402.87 300.30  133.48
  -1  -1  -5  3076.3   129.8   2 0.01014-0.13771-0.99851 0.89896 0.05354-0.41581  0 399.81 304.73  107.39 400.10 304.69  107.38
  -1  -1  -5  2920.7   127.8   2-0.04350-0.08402 0.89331-0.99285-0.44733 0.08482  0 288.37 158.42  264.33 288.48 158.55  264.41
  -1  -1   5  2409.0   106.3   1-0.62087 0.49316-0.75578 0.65634-0.20815 0.57098  0 225.25 197.86  107.12 225.10 197.99  107.13
  -1  -1   5  3466.9   146.7   2 0.02741-0.15498-0.99850 0.89895-0.04746 0.40973  0 256.77 169.78  113.03 256.98 169.85  113.26
  -1  -1   5  2717.0   141.6   2-0.18858 0.06108 0.89806-0.99753 0.39740-0.03462  0 377.84 333.57  315.07 377.80 333.45  315.24
  -1   1  -5  2573.0   136.1   1-0.62024 0.49253-0.75672 0.85616-0.20659-0.15624  0 410.43 276.03  107.14 410.64 275.98  107.24
  -1   1  -5  2968.9   135.3   2 0.09265-0.22022-0.86772 0.96727-0.48834 0.12607  0 397.60 308.79  140.00 397.85 308.75  140.10
  -1   1  -5  2571.7   124.8   2-0.14461 0.01709 0.98404-0.88450 0.10372-0.46623  0 284.17 159.30  297.37 284.35 159.44  297.41
  -1   1   5  3074.6    91.6   1-0.25701 0.12930-0.89213 0.99157 0.37155-0.00872  0 249.13 174.95  148.01 249.06 175.16  147.99
  -1   1   5  3424.3   138.3   2-0.06426-0.06331-0.89543 0.99493 0.44054-0.07809  0 253.91 171.67   83.93 253.66 171.76   83.80
  -1   1   5  2935.9   143.4   2-0.11121-0.01631 0.98939-0.88985-0.09344 0.45595  0 374.71 336.14  285.76 374.58 336.01  285.90
   1  -1  -5  2327.3    90.9   1-0.63264 0.76035-0.73689 0.63746-0.23824-0.12459  0 355.81 348.49  105.00 355.81 348.32  104.99
   1  -1  -5  3395.9   147.7   2 0.00898 0.11859-0.99815 0.89860 0.06018-0.42244  0 347.06 352.03  107.09 347.03 351.89  106.99
   1  -1  -5  3009.2   129.6   2-0.03807 0.16559 0.88050-0.98004-0.47251 0.11000  0 231.58 189.92  262.79 231.47 189.94  262.77
   1  -1   5  2702.5   125.6   1-0.44138 0.56909-0.88792 0.78849 0.12953 0.23330  0 206.29 242.56  130.45 206.19 242.58  130.46
   1  -1   5  2826.6   118.1   2 0.03077 0.09679-0.99724 0.89769-0.06760 0.42987  0 213.94 215.98  114.38 213.83 216.07  114.44
   1  -1   5  2663.7   130.0   2-0.20423 0.33173 0.83119-0.93066 0.51712-0.15434  0 312.86 359.59  323.17 313.01 359.44  323.20
   1   1  -5  2032.3   107.3   1-0.70008 0.82772-0.41879 0.51821-0.57837 0.21527  0 385.03 326.37   77.90 385.40 326.22   77.78
   1   1  -5  2999.3   143.3   2 0.08534 0.04223-0.89700 0.99655-0.43371 0.07144  0 343.22 353.40  136.47 343.22 353.29  136.53
   1   1  -5  2780.7   126.1   2-0.12886 0.25637 0.99162-0.89208 0.00961-0.37212  0 229.20 192.72  291.75 229.05 192.67  291.90
   1   1   5  3125.4   125.9   1-0.13545 0.26316-0.85552 0.95495 0.49974-0.13721  0 211.97 221.55  158.33 211.91 221.65  158.32
   1   1   5  3157.1   123.2   2-0.07317 0.20073-0.87274 0.97224 0.48268-0.12023  0 212.30 219.79   81.00 212.16 219.83   81.01
   1   1   5  1465.7   102.2   2-0.12538 0.25289 0.99205-0.89251-0.01095 0.37346  0 308.52 359.59  290.77 308.50 359.48  290.70
  -1  -1  -6 17722.4   294.9   1-0.46680 0.33909-0.87977 0.78033 0.09006-0.52546  0 422.84 314.09  127.98 423.05 314.01  127.73
  -1  -1  -6 20020.0   309.7   2 0.02366-0.15123-0.99939 0.89984-0.02556-0.40916  0 418.41 320.69  112.15 418.62 320.57  111.99
  -1  -1  -6 18859.6   301.6   2-0.04509-0.08242 0.89705-0.99659-0.43963 0.00462  0 280.29 140.35  265.04 280.43 140.46  264.91
  -1  -1   6 15934.5   251.5   1-0.57568 0.44797-0.81074 0.71131-0.10624 0.54163  0 211.55 186.75  114.02 211.42 186.87  114.26
  -1  -1   6 19686.8   317.1   2 0.01548-0.14305-0.99961 0.90006 0.02311 0.41161  0 243.46 156.39  109.00 243.36 156.54  109.16
  -1  -1   6 16698.9   306.1   2-0.18861 0.06111 0.89795-0.99742 0.39764 0.03770  0 388.44 354.22  315.29 388.81 354.11  315.25
  -1   1  -6 15280.6   287.1   1-0.63032 0.50261-0.74083 0.84027-0.23209-0.20330  0 432.78 288.72  105.41 433.00 288.64  105.43
  -1   1  -6 19933.5   312.0   2 0.09075-0.21832-0.87551 0.97506-0.47460 0.03987  0 415.81 324.66  138.95 416.11 324.60  139.19
  -1   1  -6 17017.5   290.3   2-0.13017 0.00265 0.99134-0.89180 0.01741-0.45242  0 276.16 141.48  292.31 276.31 141.60  292.35
  -1   1   6 18460.2   230.8   1-0.25188 0.12417-0.89113 0.99057 0.37742 0.05797  0 234.33 163.26  148.39 234.24 163.48  148.44
  -1   1   6 20990.8   328.0   2-0.06302-0.06455-0.89841 0.99791 0.43461 0.00033  0 240.27 158.56   83.99 240.10 158.67   84.19
  -1   1   6 17113.2   307.2   2-0.12447-0.00304 0.99210-0.89256-0.01591 0.45093  0 385.07 356.64  290.44 385.32 356.54  290.41
   1  -1  -6 14110.7   210.7   1-0.64578 0.77349-0.71247 0.61304-0.27449-0.16091  0 373.94 363.98  102.42 373.98 363.83  102.37
   1  -1  -6 19774.1   325.4   2 0.02140 0.10616-0.99970 0.90015-0.01227-0.42245  0 362.41 369.29  111.05 362.34 369.12  111.22
   1  -1  -6 18625.3   309.7   2-0.04025 0.16776 0.88592-0.98545-0.46210 0.02709  0 222.59 173.55  263.38 222.47 173.56  263.45
   1  -1   6 17992.0   301.7   1-0.41674 0.54445-0.89376 0.79432 0.16590 0.26949  0 190.70 232.54  133.00 190.65 232.61  133.00
   1  -1   6 18984.1   296.5   2 0.01714 0.11042-0.99976 0.90021 0.01350 0.42122  0 200.21 204.48  109.76 200.12 204.56  109.72
   1  -1   6 16529.6   288.9   2-0.20203 0.32953 0.84250-0.94197 0.49938-0.06404  0 320.44 379.76  322.00 320.57 379.58  321.98
   1   1  -6 12073.0   235.4   1-0.70037 0.82802-0.44837 0.54779-0.55538 0.11966  0 403.33 341.08   80.00 403.71 340.98   79.92
   1   1  -6 19462.1   323.7   2 0.08462 0.04294-0.89951 0.99906-0.42863-0.00609  0 358.47 370.86  135.96 358.42 370.72  136.22
   1   1  -6 17150.4   297.2   2-0.11785 0.24537 0.99149-0.89195-0.05526-0.37975  0 220.01 176.23  288.00 219.91 176.25  288.12
   1   1   6 19008.6   297.3   1-0.14778 0.27548-0.86044 0.95986 0.48765-0.05262  0 197.59 211.07  157.19 197.53 211.19  157.29
   1   1   6 20722.3   306.5   2-0.07038 0.19795-0.88010 0.97960 0.46955-0.03461  0 198.43 208.20   82.05 198.31 208.25   81.89
   1   1   6 17688.7   293.9   2-0.13772 0.26524 0.98854-0.88900 0.06176 0.37325  0 316.03 379.91  295.12 316.00 379.70  294.95
  -1  -1  -7  1482.8   157.9   1-0.51084 0.38314-0.85951 0.76007 0.01692-0.52488  0 445.73 329.66  122.66 445.90 329.60  122.70
  -1  -1  -7  1639.5   164.3   2 0.03486-0.16243-0.99507 0.89552-0.09286-0.41432  0 439.46 338.42  116.15 439.59 338.30  115.90
  -1  -1  -7  1523.6   156.3   2-0.04420-0.08332 0.89495-0.99449-0.44396-0.06355  0 271.78 120.62  264.58 271.91 120.91  264.63
  -1  -1   7  1184.5   115.7   1-0.53139 0.40368-0.84690 0.74746-0.01962 0.52758  0 196.76 174.68  119.99 196.74 174.84  120.20
  -1  -1   7  1467.9   140.0   2 0.00456-0.13212-0.99637 0.89682 0.08498 0.42220  0 229.05 142.24  105.57 228.89 142.33  105.53
  -1  -1   7  1259.9   147.0   2-0.18984 0.06234 0.89347-0.99294 0.40702 0.10087  0 400.84 377.00  315.68 401.07 377.01  315.87
  -1   1  -7  1314.9   162.6   1-0.64064 0.51293-0.72244 0.82188-0.26012-0.24784  0 457.83 302.96  103.45 458.06 302.92  103.42
  -1   1  -7  1751.1   168.0   2 0.09069-0.21826-0.87578 0.97533-0.47411-0.03306  0 436.50 342.38  139.32 436.79 342.36  139.16
  -1   1  -7  1511.1   160.8   2-0.11782-0.00970 0.99148-0.89195-0.05547-0.45204  0 267.61 122.34  288.29 267.78 122.27  288.11
  -1   1   7  1689.9   105.6   1-0.23665 0.10894-0.88812 0.98754 0.39401 0.11353  0 219.06 150.42  149.79 218.97 150.64  149.73
  -1   1   7  1736.5   148.5   2-0.06397-0.06360-0.89613 0.99564 0.43915 0.06828  0 225.80 144.55   83.68 225.67 144.67   83.89
  -1   1   7  1414.5   149.9   2-0.13588 0.00836 0.98939-0.88985 0.05135 0.45617  0 397.15 379.49  294.36 397.26 379.32  294.33
   1  -1  -7  1193.1   126.8   1-0.65762 0.78533-0.68626 0.58683-0.31076-0.19719  0 393.46 381.70  100.33 393.76 381.63   99.72
   1  -1  -7  1635.2   180.0   2 0.03204 0.09553-0.99661 0.89706-0.07573-0.43145  0 379.43 388.71  114.66 379.31 388.58  114.90
   1  -1  -7  1595.2   143.1   2-0.04001 0.16753 0.88533-0.98487-0.46323-0.04428  0 212.77 156.02  263.30 212.64 156.05  263.38
   1  -1   7  1421.4   132.0   1-0.39104 0.51875-0.89786 0.79842 0.20232 0.30564  0 174.31 222.03  135.60 174.29 222.03  135.58
   1  -1   7  1678.9   133.2   2 0.00499 0.12258-0.99658 0.89703 0.08254 0.42464  0 185.39 192.36  105.72 185.31 192.50  105.67
   1  -1   7  1484.8   166.6   2-0.20157 0.32907 0.84476-0.94423 0.49574 0.01215  0 328.60 402.18  321.70 328.67 401.99  321.74
   1   1  -7  1042.8   118.3   1-0.70024 0.82788-0.46023 0.55965-0.54576 0.03742  0 424.29 357.84   81.01 424.47 357.83   80.80
   1   1  -7  1731.3   177.1   2 0.08537 0.04219-0.89687 0.99642-0.43397-0.07321  0 375.36 390.56  136.53 375.27 390.35  136.55
   1   1  -7  1416.0   136.5   2-0.10776 0.23528 0.98775-0.88821-0.11289-0.39463  0 209.98 158.71  284.68 209.95 158.75  284.77
   1   1   7  1549.5   125.3   1-0.14955 0.27726-0.86113 0.96055 0.48590 0.02165  0 182.22 199.83  157.20 182.17 199.99  157.14
   1   1   7  2023.9   141.0   2-0.07042 0.19799-0.87998 0.97948 0.46977 0.03766  0 183.46 196.13   81.73 183.40 196.18   81.88
   1   1   7  1435.7   157.3   2-0.14788 0.27540 0.98117-0.88163 0.12426 0.38326  0 324.02 402.31  298.71 323.95 402.20  298.62
  -1  -1  -8  6870.9   260.2   1-0.54723 0.41952-0.83553 0.73609-0.04932-0.53120  0 472.05 347.83  118.05 472.16 347.71  118.17
  -1  -1  -8  7568.6   271.5   2 0.04443-0.17200-0.98729 0.88774-0.15262-0.42701  0 463.60 358.53  119.40 463.77 358.41  119.41
  -1  -1  -8  8122.6   280.5   2-0.04171-0.08581 0.88902-0.98856-0.45597-0.12405  0 262.69  99.29  263.78 262.82  99.49  263.85
  -1  -1   8  7169.4   212.9   1-0.48755 0.35984-0.87128 0.77184 0.05633 0.52419  0 180.97 161.35  125.40 180.94 161.57  125.41
  -1  -1   8  8619.7   269.0   2-0.00557-0.12199-0.98997 0.89042 0.14115 0.43848  0 213.38 126.82  102.29 213.32 127.00  102.23
  -1  -1   8  7271.7   292.9   2-0.19191 0.06441 0.88586-0.98533 0.42240 0.15804  0 414.66 402.94  317.01 414.95 402.81  316.86
  -1   1  -8  6044.3   259.2   1-0.65092 0.52321-0.70165 0.80109-0.28981-0.29071  0 486.51 319.49  101.22 486.73 319.36  101.26
  -1   1  -8  7881.9   280.2   2 0.09186-0.21943-0.87121 0.97076-0.48224-0.09738  0 460.42 362.65  139.71 460.60 362.56  139.69
  -1   1  -8  7021.4   262.9   2-0.10647-0.02105 0.98708-0.88754-0.11976-0.46025  0 258.37 100.87  284.31 258.63 101.09  284.37
  -1   1   8  8114.4   205.7   1-0.21643 0.08872-0.88308 0.98251 0.41632 0.16373  0 203.12 136.15  151.41 203.08 136.37  151.48
  -1   1   8  8681.0   274.2   2-0.06637-0.06120-0.89022 0.98972 0.45067 0.12924  0 210.17 129.38   82.99 210.11 129.54   83.13
  -1   1   8  7684.8   297.4   2-0.14598 0.01846 0.98295-0.88341 0.11178 0.46823  0 410.62 405.11  297.80 410.81 405.09  297.88
   1  -1  -8  5780.3   204.7   1-0.66820 0.79585-0.65798 0.55857-0.34722-0.23373  0 415.25 402.57   97.00 415.73 402.57   97.00
   1  -1  -8  8419.9   298.8   2 0.04141 0.08616-0.99022 0.89067-0.13322-0.44641  0 398.28 411.05  118.30 398.49 410.86  118.28
   1  -1  -8  7929.9   264.6   2-0.03816 0.16567 0.88072-0.98026-0.47210-0.10792  0 201.82 137.02  262.76 201.79 137.10  262.80
   1  -1   8  7177.7   240.4   1-0.36434 0.49205-0.90013 0.80069 0.23880 0.34173  0 156.86 210.54  138.03 156.84 210.63  138.17
   1  -1   8  8646.6   258.7   2-0.00605 0.13362-0.98959 0.89004 0.14377 0.43586  0 169.25 179.63  102.18 169.14 179.73  102.08
   1  -1   8  7068.8   272.0   2-0.20228 0.32977 0.84127-0.94074 0.50135 0.07910  0 337.27 427.50  321.94 337.41 427.28  322.12
   1   1  -8  4989.5   227.4   1-0.70024 0.82788-0.46037 0.55979-0.54564-0.03531  0 447.84 377.57   80.98 448.19 377.49   80.81
   1   1  -8  7801.4   288.7   2 0.08701 0.04055-0.89068 0.99023-0.44622-0.13341  0 393.95 412.94  137.29 394.21 412.80  137.34
   1   1  -8  7549.2   256.1   2-0.09813 0.22565 0.98127-0.88174-0.16574-0.41428  0 199.00 139.80  281.66 198.96 139.86  281.67
   1   1   8  8168.0   242.4   1-0.14387 0.27158-0.85891 0.95833 0.49150 0.08854  0 165.65 187.56  157.66 165.65 187.77  157.62
   1   1   8  8590.1   253.7   2-0.07229 0.19986-0.87507 0.97457 0.47857 0.10134  0 167.18 183.40   81.16 167.14 183.46   81.29
   1   1   8  7026.0   268.0   2-0.15692 0.28442 0.97092-0.87144 0.18083 0.39962  0 332.59 427.79  302.01 332.56 427.52  301.92
  -1  -1  -9  -3.625 163.794   1-0.57772 0.45001-0.80872 0.70928-0.11050-0.54259  2 502.82 369.32  113.64 502.86 369.22  113.96
  -1  -1  -9 127.639 155.578   2 0.05306-0.18062-0.97682 0.87727-0.20737-0.44471  0 492.03 381.55  122.67 492.24 381.65  122.64
  -1  -1  -9  14.797 111.778   2-0.03793-0.08959 0.88016-0.97970-0.47316-0.17935  0 253.13  76.00  263.08 252.99  75.64  262.73
  -1  -1   9  95.924  93.524   1-0.44462 0.31691-0.88701 0.78758 0.12460 0.52848  0 163.80 146.73  130.36 163.80 146.66  130.12
  -1  -1   9 108.971 106.380   2-0.01544-0.11213-0.98095 0.88145 0.19363 0.45877  0 196.00 109.89   99.33 196.21 110.19   99.11
  -1  -1   9  43.866 158.591   2-0.19453 0.06703 0.87570-0.97517 0.44194 0.21107  0 430.69 432.21  317.95 430.92 432.49  318.14
  -1   1  -9 107.262 159.695   2 0.09366-0.22123-0.86314 0.96269-0.49621-0.15587  0 488.88 386.12  140.39 488.67 386.01  140.62
  -1   1  -9  64.641 108.937   2-0.09599-0.03153 0.97931-0.87977-0.17816-0.47436  0 248.94  77.62  281.04 248.68  77.46  280.94
  -1   1   9  47.083  79.080   1-0.19229 0.06458-0.87606 0.97549 0.44219 0.21036  0 186.26 120.13  153.55 186.27 120.15  153.54
  -1   1   9  31.497 102.714   2-0.06985-0.05772-0.88147 0.98097 0.46704 0.18536  0 193.02 113.03   81.92 193.08 112.98   82.06
  -1   1   9-170.116 156.377   2-0.15491 0.02741 0.97354-0.87407 0.16798 0.48502  0 426.14 434.43  300.95 426.43 434.73  301.16
   1  -1  -9  -5.730 119.058   1-0.67760 0.80524-0.62740 0.52798-0.38371-0.26986  0 440.59 427.77   93.97 440.47 427.46   94.22
   1  -1  -9 135.114 165.311   2 0.04979 0.07778-0.98118 0.88163-0.18659-0.46550  0 420.98 437.26  121.42 420.59 436.86  121.41
   1  -1  -9  54.964 110.523   2-0.03515 0.16267 0.87305-0.97259-0.48636-0.16616  0 189.98 116.48  262.08 189.69 116.29  261.85
   1  -1   9  54.289  96.221   1-0.33636 0.46407-0.90061 0.80117 0.27525 0.37784  0 138.27 197.92  140.55 138.00 198.10  140.81
   1  -1   9  51.223  95.845   2-0.01664 0.14421-0.97963 0.88013 0.20011 0.45230  0 150.98 166.00   98.58 151.17 166.06   98.73
   1  -1   9 186.025 154.450   2-0.20376 0.33126 0.83367-0.93314 0.51330 0.13970  0 346.85 456.63  323.09 346.98 456.32  322.94
   1   1  -9 -19.724 137.602   1-0.70035 0.82799-0.45211 0.55153-0.55236-0.10121  0 475.79 401.22   79.97 475.67 400.98   80.20
   1   1  -9  90.105 162.564   2 0.08927 0.03830-0.88171 0.98126-0.46326-0.18882  0 416.23 439.12  138.45 415.97 438.97  138.45
   1   1  -9 115.855 111.054   2-0.08910 0.21662 0.97246-0.87292-0.21538-0.43714  0 187.01 119.11  278.56 186.70 119.16  278.73
   1   1   9 172.883  99.198   1-0.13265 0.26036-0.85435 0.95378 0.50248 0.15007  0 147.75 174.22  158.64 147.71 174.16  158.56
   1   1   9  32.932  97.124   2-0.07547 0.20304-0.86664 0.96614 0.49320 0.15921  0 148.76 170.05   79.98 149.18 169.93   80.31
   1   1   9 -52.228 139.404   2-0.16480 0.29230 0.95848-0.85901 0.23270 0.42031  0 341.83 456.28  305.39 341.84 456.53  305.04
  -1  -1 -10  1884.6   228.3   2-0.03354-0.09397 0.86885-0.96839-0.49394-0.23108  0 242.23  48.46  261.29 242.17  48.59  261.35
  -1  -1  10  1460.3   173.8   1-0.40172 0.27401-0.89639 0.79696 0.18734 0.53831  0 144.91 129.52  134.51 145.07 129.55  134.51
  -1  -1  10  2080.3   244.0   2-0.02474-0.10283-0.96970 0.87020 0.24304 0.48185  0 177.33  91.40   96.40 177.30  91.53   96.14
  -1  -1  10  1403.3   253.9   2-0.19753 0.07003 0.86329-0.96276 0.46444 0.26112  0 449.61 467.42  319.75 449.80 467.52  319.63
  -1   1 -10  1512.3   186.5   2-0.08585-0.04167 0.96881-0.86927-0.23245-0.49257  0 237.83  50.55  277.61 237.66  50.66  277.72
  -1   1  10  1696.0   173.5   1-0.16502 0.03731-0.86689 0.96631 0.47040 0.25466  0 168.21 101.06  156.00 168.21 101.34  155.85
  -1   1  10  1695.8   198.1   2-0.07407-0.05350-0.87030 0.96980 0.48693 0.23797  0 174.19  94.50   81.08 174.11  94.55   80.73
  -1   1  10  1417.4   248.0   2-0.16288 0.03538 0.96173-0.86226 0.22033 0.50523  0 444.85 469.85  304.26 444.79 469.68  304.28
   1  -1 -10  1223.1   183.5   1-0.68557 0.81321-0.59448 0.49506-0.42023-0.30596  0 468.74 458.16   91.44 469.04 457.92   91.37
   1  -1 -10  1601.5   256.4   2 0.05761 0.06995-0.96981 0.87026-0.23694-0.48759  0 446.62 468.13  124.38 446.75 467.95  124.40
   1  -1 -10  1449.8   190.5   2-0.03130 0.15881 0.86283-0.96237-0.50452-0.22050  0 176.01  92.87  260.63 175.94  93.01  260.64
   1  -1  10  1583.0   192.9   1-0.30736 0.43507-0.89907 0.79964 0.31177 0.41388  0 117.62 183.95  143.41 117.25 184.01  143.49
   1  -1  10  1529.3   172.4   2-0.02652 0.15409-0.96726 0.86776 0.25240 0.47250  0 131.12 151.17   95.79 131.08 151.27   95.58
   1  -1  10  1561.5   235.0   2-0.20580 0.33330 0.82280-0.92227 0.52977 0.19579  0 357.47 490.28  324.37 357.64 490.40  324.08
   1   1 -10  1821.1   261.0   2 0.09205 0.03551-0.87037 0.96992-0.48372-0.24082  0 441.71 470.49  139.69 441.67 470.23  139.79
   1   1 -10  1835.4   198.4   2-0.08015 0.20766 0.96156-0.86202-0.26264-0.46238  0 172.78  96.00  275.63 172.75  96.02  275.90
   1   1  10  1513.9   169.9   1-0.11703 0.24474-0.84768 0.94710 0.51745 0.20761  0 127.89 158.54  159.81 127.95 158.74  159.85
   1   1  10  1672.3   204.2   2-0.07950 0.20707-0.85536 0.95486 0.51190 0.21299  0 128.93 155.23   78.94 128.99 155.28   79.04
   1   1  10  1516.0   227.5   2-0.17212 0.29962 0.94396-0.84449 0.28163 0.44393  0 352.20 490.78  308.32 352.14 490.52  308.00
  -1  -1 -11 126.709 172.688   2-0.02852-0.09900 0.85529-0.95483-0.51736-0.28016  0 229.98  17.29  259.52 229.98  17.06  259.77
  -1  -1  11 124.460 129.727   1-0.35879 0.23108-0.90043 0.80100 0.24595 0.55227  0 123.94 109.28  138.98 124.14 109.44  138.69
  -1  -1  11 387.109 172.927   2-0.03387-0.09369-0.95632 0.85682 0.29035 0.50703  0 156.47  70.87   93.55 155.81  70.34   93.27
  -1   1 -11 -10.092 168.933   2-0.07613-0.05139 0.95589-0.85635-0.28369-0.51383  0 225.39  19.52  274.21 225.22  19.50  274.63
  -1   1  11 272.671 125.333   1-0.13496 0.00725-0.85532 0.95474 0.50022 0.29735  0 148.68  79.43  158.09 148.44  79.05  158.36
  -1   1  11 219.523 174.623   2-0.07896-0.04861-0.85690 0.95640 0.50940 0.28798  0 152.54  73.50   79.46 152.55  73.70   79.21
   1  -1 -11 113.099 210.081   1-0.69209 0.81973-0.55886 0.45945-0.45682-0.34199  0 502.25 495.80   88.61 502.81 496.28   88.42
   1  -1 -11  30.939 167.706   2-0.02675 0.15427 0.85033-0.94987-0.52557-0.27195  0 159.96  66.16  259.42 160.01  66.35  259.21
   1  -1  11 299.373 134.933   1-0.27693 0.40464-0.89556 0.79612 0.34826 0.44995  0  94.00 167.71  146.34  94.02 167.83  146.21
   1  -1  11 304.772 152.500   2-0.03614 0.16371-0.95262 0.85312 0.30201 0.49537  0 107.83 134.86   92.50 108.05 134.90   92.56
   1   1 -11 201.816 161.144   2-0.07136 0.19888 0.94865-0.84911-0.30818-0.48935  0 156.34  69.57  273.43 156.66  69.65  273.14
   1   1  11 113.430 134.912   1-0.09789 0.22559-0.83887 0.93830 0.53545 0.26211  0 105.83 140.84  161.44 105.83 140.87  161.44
   1   1  11 410.702 148.469   2-0.08443 0.21200-0.84150 0.94100 0.53362 0.26376  0 105.82 138.96   77.47 105.88 139.15   77.54
  -1  -1  12  2825.1   279.8   1-0.31574 0.18803-0.89971 0.80027 0.30139 0.56939  0 100.46  84.91  143.02 100.37  85.27  142.72
  -1  -1  12  3201.8   361.0   2-0.04302-0.08455-0.94086 0.84136 0.33605 0.53382  0 130.83  45.53   90.46 130.82  45.79   90.45
  -1   1  12  2832.5   267.1   1-0.10254-0.02517-0.84105 0.94048 0.53115 0.33892  0 126.35  51.67  160.97 126.31  51.96  161.05
  -1   1  12  3034.8   350.1   2-0.08448-0.04309-0.84136 0.94086 0.53383 0.33604  0 127.49  49.38   77.50 127.45  49.48   77.52
   1  -1 -12  2929.6   351.4   2-0.02163 0.14915 0.83565-0.93519-0.54883-0.32119  0 140.99  35.06  257.55 141.19  35.16  257.61
   1  -1  12  2974.9   313.2   1-0.24536 0.37307-0.88979 0.79035 0.38481 0.48597  0  67.72 148.65  149.03  67.44 148.74  149.00
   1  -1  12  3655.7   314.5   2-0.04572 0.17329-0.93577 0.83626 0.34965 0.52023  0  81.16 116.36   89.60  81.14 116.50   89.60
   1   1 -12  3005.5   347.9   2-0.06276 0.19028 0.93373-0.83420-0.35242-0.51760  0 137.58  38.73  270.41 137.60  38.81  270.42
   1   1  12  3363.3   282.4   1-0.07538 0.20309-0.82792 0.92734 0.55576 0.31431  0  80.61 119.35  163.31  80.52 119.56  163.28
   1   1  12  3521.7   317.1   2-0.08969 0.21725-0.82529 0.92480 0.55754 0.31234  0  79.04 120.95   76.06  78.82 121.00   75.86
  -1  -2   0 23701.8   237.0   1-0.51985 0.39222 0.19343-0.39220-0.83207 0.83207  0 243.97 257.08   37.74 243.89 257.01   37.66
  -1  -2   0 34628.0   256.5   2-0.22231 0.09477 0.00218-0.20112 0.97497-0.97497  0 358.16 277.06   20.00 358.17 277.10   20.01
  -1  -2   0 32343.6   248.2   2 0.12622-0.25380-0.22131 0.02233-0.96700 0.96700  0 300.23 200.10  187.63 300.35 200.15  187.67
  -1   2   0 22110.8   185.3   1-0.68979 0.56215-0.30242 0.50126-0.65782 0.65782  0 339.43 212.68   69.71 339.40 212.74   69.69
  -1   2   0 35204.6   270.9   2-0.22203 0.09448-0.00199 0.20093 0.97504-0.97504  0 291.86 201.02   20.00 291.99 201.09   20.25
  -1   2   0 37146.2   277.7   2 0.09728-0.22483 0.20273-0.00369-0.97439 0.97439  0 354.53 284.97  211.88 354.51 284.96  212.17
   1  -2   0 21157.6   182.2   1-0.68805 0.81569-0.58208 0.38324-0.43333 0.43333  0 262.68 300.46   90.09 262.85 300.44   90.33
   1  -2   0 33564.1   263.3   2-0.19730 0.32485-0.26686 0.06792 0.94332-0.94332  0 306.57 315.73   35.67 306.65 315.68   35.65
   1  -2   0 36247.0   273.5   2 0.11869 0.00889-0.06429-0.13469-0.99085 0.99085  0 249.03 233.77  196.99 248.87 233.71  196.79
   1   2   0 24248.4   242.3   1-0.39525 0.52288 0.39415-0.19538-0.82971 0.82971  0 361.73 258.87   24.00 361.70 258.91   24.10
   1   2   0 32862.2   248.7   2-0.23500 0.36255 0.29103-0.09209 0.92740-0.92740  0 246.15 241.36    3.00 245.98 241.33    3.15
  -1  -2  -1 39458.0   309.8   1-0.39086 0.26323 0.40026-0.59903-0.82887 0.75623  0 241.99 266.44   23.98 241.92 266.36   23.67
  -1  -2  -1 62406.5   346.2   2-0.18454 0.05700-0.36773 0.16880 0.91144-0.98400  0 361.73 276.20   42.01 361.76 276.25   41.75
  -1  -2  -1 58279.8   335.2   2 0.10344-0.23099 0.13892-0.33797-0.98489 0.91237  0 302.08 197.29  208.39 302.16 197.35  208.45
  -1  -2   1 36925.0   299.1   1-0.62301 0.49537-0.03904-0.15980-0.78124 0.85386  0 242.26 247.73   52.46 242.16 247.70   52.56
  -1  -2   1 58297.8   349.9   2 0.12703-0.25460-0.53855 0.33956-0.83296 0.90547  0 294.69 197.74  168.09 294.81 197.81  167.76
  -1   2  -1 39069.4   281.3   1-0.69938 0.57174-0.48654 0.68538-0.52359 0.45097  0 353.05 222.31   82.99 352.98 222.37   82.78
  -1   2  -1 59947.6   356.1   2 0.12212-0.24970-0.12680 0.32578-0.98438 0.91188  0 358.23 284.44  192.85 358.20 284.44  193.18
  -1   2   1 39068.2   209.9   1-0.57425 0.44662 0.08258 0.11619-0.81451 0.88715  0 328.86 202.88   44.96 328.87 202.95   44.80
  -1   2   1 62050.2   373.4   2-0.19221 0.06466-0.30936 0.50829 0.93132-0.85875  0 286.78 199.31   38.00 286.93 199.39   38.19
  -1   2   1 61681.2   371.3   2 0.05606-0.18362 0.50361-0.30457-0.86211 0.93462  0 354.77 290.66  231.01 354.75 290.59  230.81
   1  -2  -1 32943.2   193.9   1-0.69829 0.82593-0.38047 0.18163-0.60633 0.53371  0 272.12 310.54   75.00 272.31 310.45   75.06
   1  -2  -1 61683.1   370.6   2-0.15497 0.28254-0.55150 0.35249 0.81966-0.89215  0 311.76 317.98   53.75 311.83 317.95   53.68
   1  -2  -1 63310.2   376.4   2 0.09132 0.03624 0.25557-0.45461-0.96247 0.88995  0 248.77 228.62  215.03 248.60 228.61  215.29
   1  -2   1 38556.3   280.7   1-0.65689 0.78460-0.68804 0.48917-0.30839 0.38096  0 251.20 290.75  100.04 251.11 290.73   99.89
   1  -2   1 54069.7   351.9   2-0.22583 0.35338 0.05636-0.25530 0.97253-0.89997  2 304.91 318.66   17.08 304.86 318.58   16.90
   1  -2   1 56962.3   346.8   2 0.12943-0.00186-0.40106 0.20207-0.90686 0.97937  0 245.87 234.42  176.98 245.71 234.37  176.78
   1   2  -1 41732.7   320.5   1-0.52373 0.65136 0.18612 0.01265-0.83130 0.75866  0 363.86 269.20   38.00 363.78 269.19   38.13
   1   2  -1 51251.9   326.8   2-0.23095 0.35845 0.58509-0.38615 0.77739-0.84995  0 245.50 235.59  343.81 245.34 235.60  344.00
   1   2   1 36159.0   296.7   1-0.23477 0.36240 0.58742-0.38865-0.77448 0.84712  0 364.09 248.62    9.13 364.06 248.60    9.34
   1   2   1 58222.8   333.5   2-0.21744 0.34498-0.06231 0.26125 0.97408-0.90152  0 243.17 242.30   23.85 243.01 242.27   23.73
  -1  -2  -2  4323.2   115.0   1-0.26632 0.13870 0.55405-0.75282-0.78873 0.64345  0 236.65 275.83   12.01 236.55 275.78   12.09
  -1  -2  -2  6678.9   130.9   2-0.13545 0.00788-0.65069 0.45169 0.74716-0.89214  0 369.49 280.59   61.11 369.48 280.62   60.82
  -1  -2  -2  6235.7   126.3   2 0.06907-0.19663 0.42138-0.62042-0.90425 0.75922  0 300.47 189.55  225.42 300.55 189.61  225.47
  -1  -2   2  3846.8   108.4   1-0.68217 0.55453-0.25584 0.05700-0.68497 0.83021  0 237.15 238.29   66.50 237.04 238.28   66.57
  -1  -2   2  5915.8   132.3   2 0.11247-0.24004-0.74473 0.54574-0.65782 0.80284  0 286.34 191.51  152.01 286.49 191.58  152.19
  -1  -2   2  5564.7   129.7   2-0.23301 0.10551 0.54403-0.74298 0.80606-0.66095  0 363.04 294.24  347.00 362.98 294.19  346.89
  -1   2  -2  4215.7   117.0   1-0.68973 0.56209-0.57283 0.77167-0.44287 0.29764  0 368.56 231.99   89.56 368.48 232.08   89.56
  -1   2  -2  6008.4   130.4   2 0.12936-0.25693-0.38865 0.58764-0.91226 0.76725  0 365.70 288.79  177.59 365.74 288.82  177.55
  -1   2  -2  5042.3   121.4   2-0.22994 0.10244 0.60305-0.40411 0.76385-0.90896  0 292.05 190.49  342.84 292.10 190.56  342.71
  -1   2   2  4081.6    68.1   1-0.20571 0.07808 0.61673-0.41796-0.75982 0.90510  0 324.50 192.58    6.98 324.50 192.64    6.82
  -1   2   2  5966.6   137.0   2-0.16045 0.03288-0.52058 0.71959 0.83860-0.69362  0 278.92 193.80   51.60 279.08 193.91   51.57
  -1   2   2  6802.4   144.7   2 0.01333-0.14088 0.71275-0.51371-0.70129 0.84632  0 358.22 300.62  245.99 358.17 300.54  246.20
   1  -2  -2  3864.0    66.7   1-0.61186 0.73950-0.00849-0.19035-0.79092 0.64569  0 276.19 320.88   50.72 276.32 320.76   50.62
   1  -2  -2  6298.9   139.2   2-0.11299 0.24056-0.74477 0.54576 0.65769-0.80267  0 319.82 324.56   68.23 319.88 324.49   68.38
   1  -2  -2  6487.5   136.8   2 0.05962 0.06793 0.48194-0.68098-0.87418 0.72914  0 245.74 219.84  229.33 245.58 219.82  229.38
   1  -2   2  4402.5   114.9   1-0.62380 0.75151-0.75128 0.55240-0.21554 0.36067  0 238.41 281.26  106.61 238.31 281.26  106.61
   1  -2   2  6047.2   126.6   2 0.12074 0.00684-0.65769 0.45870-0.74355 0.88856  0 239.50 230.94  158.92 239.38 230.91  159.21
   1   2  -2  3707.6   112.7   1-0.60741 0.73505 0.00311 0.19572-0.79438 0.64914  0 370.08 279.80   49.98 370.05 279.82   49.88
   1   2  -2  5986.5   133.3   2 0.12783-0.00026-0.50904 0.70803-0.85120 0.70618  0 311.84 325.86  170.01 311.87 325.77  169.77
   1   2  -2  4902.0   117.8   2-0.21415 0.34165 0.76943-0.57049 0.60176-0.74687  0 241.95 226.21  329.26 241.82 226.23  329.27
   1   2   2  6417.4   124.8   2-0.18622 0.31377-0.35551 0.55444 0.91593-0.77080  0 236.68 238.74   41.09 236.57 238.73   41.00
  -1  -2  -3 217.745  45.027   1-0.16520 0.03757 0.65483-0.85360-0.73750 0.51958  0 228.59 285.40    3.34 228.51 285.41    3.39
  -1  -2  -3 286.169  59.598   1-0.07116-0.05655-0.82575 0.62691 0.55952-0.77704  0 381.21 288.67  163.71 381.01 288.59  163.63
  -1  -2  -3 358.986  55.171   2-0.09174-0.03583-0.81914 0.62013 0.56621-0.78368  0 380.47 288.71   75.33 380.54 288.84   75.25
  -1  -2  -3 389.159  56.578   2 0.03958-0.16713 0.59375-0.79279-0.80368 0.58613  0 296.45 178.23  237.00 296.49 178.30  237.04
  -1  -2   3 229.655  45.061   1-0.70036 0.57272-0.43239 0.23355-0.56792 0.78578  0 229.36 228.70   78.79 229.20 228.70   78.76
  -1  -2   3 330.320  58.604   2 0.09383-0.22139-0.86235 0.66326-0.49753 0.71490  0 276.38 182.77  140.60 276.39 182.84  140.71
  -1  -2   3 288.588  58.560   2-0.22552 0.09802 0.66457-0.86351 0.71239-0.49472  0 369.21 307.85  338.34 369.32 307.83  338.07
  -1   2  -3 248.137  58.727   1-0.68103 0.55339-0.61423 0.81307-0.39865 0.18079  0 385.39 241.98   93.25 385.54 242.07   93.06
  -1   2  -3 252.927  52.160   2 0.12631-0.25389-0.55703 0.75601-0.82083 0.60332  0 376.42 296.91  166.56 376.41 296.90  166.49
  -1   2  -3 248.741  51.724   2-0.21346 0.08596 0.77434-0.57540 0.59567-0.81334  0 288.23 179.47  328.99 288.18 179.65  328.82
  -1   2   3 292.506  58.923   2-0.13614 0.00858-0.64746 0.84647 0.74984-0.53237  0 269.29 185.72   60.65 269.39 185.84   60.57
  -1   2   3 344.199  58.922   2-0.02272-0.10480 0.83886-0.63978-0.54387 0.76138  0 363.85 313.81  257.64 363.86 313.62  257.95
   1  -2  -3 223.010  29.312   1-0.39326 0.52089 0.39693-0.59570-0.82933 0.61141  0 272.30 331.22   24.06 272.33 331.20   23.91
   1  -2  -3 306.034  32.713   1-0.18075 0.30845-0.87236 0.67351 0.45423-0.67175  0 329.34 334.59  154.56 329.37 334.57  154.52
   1  -2  -3 289.866  59.418   2-0.07784 0.20541-0.86008 0.66107 0.50419-0.72166  0 330.04 334.39   79.53 330.04 334.25   79.57
   1  -2  -3 382.318  55.877   2 0.03435 0.09320 0.61971-0.81875-0.78408 0.56653  0 240.81 208.70  238.77 240.62 208.55  238.94
   1  -2   3 261.156  49.229   1-0.59188 0.71959-0.79366 0.59479-0.14067 0.35837  0 224.84 271.91  111.87 224.83 271.88  111.87
   1  -2   3 297.493  48.631   2 0.10274 0.02483-0.81532 0.61623-0.56982 0.78718  0 230.77 224.52  145.83 230.64 224.48  145.66
   1  -2   3 210.150  49.895   2-0.23467 0.36216 0.50167-0.70052 0.83262-0.61490  0 309.56 338.25  349.62 309.76 338.11  349.68
   1   2  -3 173.919  52.413   1-0.65395 0.78159-0.13589 0.33473-0.74424 0.52638  0 380.08 290.91   58.75 379.96 290.95   58.74
   1   2  -3 321.913  57.280   2 0.12168 0.00590-0.64419 0.84317-0.75513 0.53761  0 322.24 336.28  160.01 322.27 336.20  160.22
   1   2  -3 235.030  48.203   2-0.19515 0.32265 0.87317-0.67422 0.44665-0.66432  0 236.34 214.44  318.54 236.41 214.50  318.45
   1   2   3 354.504  48.874   2-0.15659 0.28416-0.54239 0.74139 0.82541-0.60794  0 227.70 232.07   53.34 227.58 232.11   53.05
  -1  -2  -4  3468.0   134.2   1-0.19121 0.06351-0.87573 0.67688 0.44333-0.73335  0 393.96 300.59  153.70 394.16 300.52  153.63
  -1  -2  -4  3987.8   136.4   2-0.05775-0.06982-0.91066 0.71166 0.40909-0.69905  0 393.80 299.76   86.01 394.12 299.76   85.82
  -1  -2  -4  3516.9   130.5   2 0.01884-0.14639 0.69026-0.88930-0.72332 0.43325  0 290.85 164.48  244.28 290.93 164.56  244.37
  -1  -2   4  2472.3   109.9   1-0.69097 0.56332-0.56597 0.36713-0.44971 0.74019  0 219.38 218.78   88.99 219.25 218.82   89.00
  -1  -2   4  3327.1   139.0   2 0.07571-0.20328-0.92861 0.72951-0.36325 0.65306  0 264.91 172.44  132.01 265.10 172.50  132.10
  -1  -2   4  3041.3   135.1   2-0.21897 0.09147 0.73105-0.93000 0.64623-0.35601  0 377.25 323.86  332.70 377.24 323.78  332.67
  -1   2  -4  2636.7   131.0   1-0.67608 0.54844-0.63282 0.83166-0.37743 0.08695  0 404.08 252.57   94.96 404.26 252.60   94.70
  -1   2  -4  3359.3   131.2   2 0.12084-0.24841-0.65629 0.85528-0.74477 0.45474  0 389.26 307.71  158.87 389.55 307.69  159.31
  -1   2  -4  2773.2   125.3   2-0.19478 0.06728 0.87468-0.67574 0.44384-0.73407  0 282.70 166.24  318.15 282.73 166.34  318.27
  -1   2   4  3620.5   144.2   2-0.11921-0.00836-0.72035 0.91936 0.68329-0.39333  0 258.21 175.94   66.30 258.41 176.04   66.32
  -1   2   4  3309.7   140.6   2-0.05170-0.07582 0.91183-0.71275-0.40730 0.69731  0 371.36 329.24  267.00 371.23 329.15  266.98
   1  -2  -4  2218.4    74.9   1-0.19748 0.32511 0.62477-0.82353-0.75543 0.46486  0 262.57 342.14    6.07 262.71 342.02    6.12
   1  -2  -4  3295.6    85.1   1-0.39175 0.51946-0.89776 0.69889 0.20139-0.49165  0 340.06 347.43  135.79 339.99 347.32  135.50
   1  -2  -4  3669.7   144.9   2-0.05032 0.17789-0.92666 0.72765 0.37252-0.66248  0 341.93 346.53   88.00 341.93 346.46   88.16
   1  -2  -4  3568.4   134.2   2 0.01659 0.11096 0.69972-0.89876-0.71423 0.42416  0 234.44 195.56  245.20 234.27 195.56  245.13
   1  -2   4  2630.2   117.6   1-0.56115 0.68886-0.82418 0.62531-0.07644 0.36670  0 210.90 262.49  116.03 210.78 262.49  116.31
   1  -2   4  3411.1   121.5   2 0.08304 0.04452-0.90511 0.70601-0.41698 0.70680  0 220.23 216.15  135.32 220.16 216.13  135.47
   1  -2   4  3021.9   128.4   2-0.22969 0.35719 0.60868-0.80762 0.75944-0.46922  0 314.81 352.77  342.17 314.93 352.66  342.30
   1   2  -4  2085.0   118.3   1-0.67755 0.80519-0.23205 0.43088-0.69791 0.40744  0 392.65 302.93   64.99 392.90 302.90   65.00
   1   2  -4  3106.0   135.9   2 0.11521 0.01237-0.71983 0.91881-0.68453 0.39450  0 334.19 349.00  154.03 334.18 348.93  154.29
   1   2  -4  3105.7   124.0   2-0.17761 0.30511 0.93101-0.73207 0.31886-0.60908  0 229.84 201.15  310.33 229.69 201.18  310.30
   1   2   4  3731.2   124.8   2-0.13550 0.26307-0.65045 0.84945 0.74737-0.45741  0 216.97 223.52   61.07 216.86 223.59   60.80
   1   2   4  3479.9   128.5   2-0.05944 0.18696 0.92746-0.72838-0.36916 0.65917  0 306.18 352.96  269.32 306.20 352.82  269.38
  -1  -2  -5 465.155  86.289   1-0.28825 0.16054-0.89712 0.69825 0.33480-0.69762  0 409.76 313.63  145.35 410.02 313.64  145.20
  -1  -2  -5 494.477  82.284   2-0.03182-0.09575-0.95955 0.76054 0.27975-0.64219  0 409.90 312.87   94.02 409.97 312.83   93.92
  -1  -2  -5 616.345  85.973   2 0.00552-0.13308 0.74365-0.94270-0.66854 0.30597  0 284.21 148.93  248.99 284.39 148.96  248.82
  -1  -2   5 310.365  63.299   1-0.66609 0.53844-0.66416 0.46532-0.33944 0.70253  0 207.92 208.46   97.54 207.71 208.48   97.58
  -1  -2   5 526.729  76.951   2 0.05968-0.18725-0.96599 0.76690-0.25158 0.61385  0 253.05 160.99  125.18 252.89 160.96  125.28
  -1  -2   5 332.859  84.876   2-0.21439 0.08689 0.76764-0.96658 0.60396-0.24118  0 386.43 341.83  329.44 386.55 341.78  329.43
  -1   2  -5 326.674  79.694   1-0.67447 0.54682-0.63837 0.83721-0.37091 0.00781  0 424.78 264.12   95.24 424.96 263.90   95.20
  -1   2  -5 398.075  81.748   2 0.11582-0.24339-0.71370 0.91268-0.69081 0.32828  0 404.84 320.70  154.66 404.91 320.70  154.80
  -1   2  -5 378.075  79.343   2-0.17708 0.04958 0.93236-0.73342 0.31518-0.67796  0 276.43 151.07  310.04 276.21 151.14  310.07
  -1   2   5 519.643  77.383   2-0.10843-0.01914-0.76194 0.96095 0.63850-0.27605  0 246.53 165.06   70.02 246.36 164.95   69.88
  -1   2   5 491.628  89.954   2-0.07461-0.05290 0.95363-0.75455-0.29160 0.65411  0 380.07 346.77  274.41 379.98 346.84  274.15
   1  -2  -5 378.097  52.528   1-0.49599 0.62370-0.86729 0.66842 0.04241-0.40524  0 354.18 361.76  124.58 354.02 361.61  124.45
   1  -2  -5 548.216  89.082   2-0.02826 0.15583-0.96479 0.76579 0.26148-0.62393  0 355.23 361.06   95.01 355.35 360.88   95.03
   1  -2  -5 470.842  75.591   2 0.00494 0.12261 0.74587-0.94491-0.66608 0.30350  0 226.99 181.31  248.96 226.84 181.17  249.01
   1  -2   5 341.192  67.515   1-0.53106 0.65877-0.84712 0.64825-0.01901 0.38183  0 196.11 252.96  120.35 196.09 252.94  120.24
   1  -2   5 413.075  67.721   2 0.06527 0.06230-0.95495 0.75585-0.28951 0.65177  0 208.27 206.53  127.54 208.31 206.56  127.56
   1  -2   5 400.065  82.031   2-0.22492 0.35242 0.67178-0.87072 0.70578-0.34300  0 320.89 369.80  337.59 321.09 369.67  337.51
   1   2  -5 308.734  75.550   1-0.68878 0.81642-0.29513 0.49396-0.66218 0.29908  0 408.36 316.12   69.23 408.60 316.05   69.20
   1   2  -5 474.262  91.032   2 0.11037 0.01721-0.76221 0.96120-0.63785 0.27532  0 347.52 363.83  150.61 347.50 363.76  150.67
   1   2  -5 431.719  75.127   2-0.16179 0.28929 0.96352-0.76458 0.21317-0.57596  0 222.03 186.64  304.04 221.93 186.63  303.85
   1   2   5 411.459  69.586   1 0.04665 0.08106-0.75387 0.95272 0.65536-0.29283  0 206.81 210.65  173.12 206.79 210.66  173.27
   1   2   5 439.933  67.259   2-0.12130 0.24887-0.71180 0.91081 0.69182-0.32938  0 204.89 213.74   65.85 204.81 213.87   65.62
   1   2   5 445.036  80.281   2-0.08389 0.21141 0.96642-0.76735-0.24287 0.60538  0 312.06 370.08  277.16 312.22 370.02  277.10
  -1  -2  -6 15283.8   292.5   1-0.36597 0.23826-0.90004 0.70117 0.23661-0.67200  0 428.48 328.33  138.00 428.59 328.25  138.02
  -1  -2  -6 15947.2   292.1   2-0.01142-0.11614-0.98490 0.78580 0.17276-0.60748  0 427.96 327.99  100.44 428.14 327.84  100.35
  -1  -2  -6 15068.2   286.9   2-0.00224-0.12527 0.77273-0.97181-0.63473 0.19971  0 276.99 131.46  251.35 277.11 131.65  251.41
  -1  -2   6 11815.8   241.4   1-0.63329 0.50558-0.73576 0.53689-0.23999 0.67538  0 194.94 197.42  105.11 194.83 197.57  104.86
  -1  -2   6 15266.6   293.8   2 0.04511-0.17267-0.98658 0.78748-0.15694 0.59166  0 239.84 148.20  119.63 239.74 148.30  119.66
  -1  -2   6 13032.0   287.7   2-0.21162 0.08412 0.78703-0.98597 0.57948-0.14414  0 396.86 362.11  327.78 397.21 361.97  327.64
  -1   2  -6 11208.3   267.4   1-0.67528 0.54764-0.63561 0.83445-0.37416-0.06155  0 447.88 276.29   94.98 448.09 276.32   94.95
  -1   2  -6 15374.8   297.0   2 0.11228-0.23986-0.74634 0.94532-0.65603 0.22100  0 422.43 335.82  151.96 422.63 335.82  152.05
  -1   2  -6 12220.8   267.5   2-0.16075 0.03325 0.96518-0.76624 0.20636-0.64169  0 268.79 134.08  303.55 268.89 134.21  303.45
  -1   2   6 15747.1   209.5   1 0.02673-0.15444-0.76757 0.96642 0.64040-0.20537  0 237.27 150.20  171.73 237.25 150.40  171.65
  -1   2   6 16089.5   302.4   2-0.10187-0.02570-0.78503 0.98404 0.61102-0.17608  0 233.49 152.57   72.00 233.35 152.71   71.96
  -1   2   6 15327.6   307.7   2-0.09331-0.03421 0.97682-0.77774-0.19264 0.62765  0 389.87 366.90  280.00 390.07 366.79  280.08
   1  -2  -6 13400.3   202.2   1-0.55615 0.68386-0.82841 0.62954-0.06659-0.36881  0 370.30 378.02  117.40 370.27 377.84  116.99
   1  -2  -6 16258.8   314.9   2-0.01028 0.13784-0.98593 0.78683 0.16686-0.60158  0 370.35 377.61  100.95 370.33 377.44  100.70
   1  -2  -6 15701.6   299.9   2-0.00203 0.12955 0.77199-0.97106-0.63564 0.20063  0 218.54 165.42  251.22 218.43 165.46  251.34
   1  -2   6 12925.0   272.1   1-0.50105 0.62876-0.86476 0.66589 0.03382 0.40157  0 180.66 243.04  123.99 180.63 243.06  123.86
   1  -2   6 15510.4   284.2   2 0.04915 0.07842-0.98198 0.78288-0.18249 0.61721  0 195.27 195.95  121.00 195.20 196.00  121.17
   1  -2   6 12190.6   267.2   2-0.22149 0.34899 0.70825-0.90719 0.67032-0.23499  0 327.89 389.29  334.66 328.05 389.08  334.58
   1   2  -6  9502.2   232.9   1-0.69404 0.82168-0.33412 0.53295-0.63771 0.20200  0 426.73 330.82   72.08 427.01 330.74   71.85
   1   2  -6 15088.6   304.4   2 0.10728 0.02029-0.78524 0.98434-0.60982 0.17510  0 362.44 380.83  148.50 362.36 380.71  148.53
   1   2  -6 12617.0   269.9   2-0.14783 0.27535 0.98121-0.78214 0.12396-0.55897  0 213.37 170.86  298.64 213.27 170.87  298.60
   1   2   6 15841.4   280.2   1 0.01505 0.11266-0.77515 0.97400 0.63160-0.19656  0 193.78 199.66  170.97 193.79 199.78  170.69
   1   2   6 15162.6   276.9   2-0.11262 0.24019-0.74618 0.94518 0.65615-0.22122  0 191.59 203.22   68.50 191.51 203.30   68.50
   1   2   6 15109.2   287.7   2-0.10301 0.23052 0.98495-0.78587-0.13881 0.57382  0 319.04 389.79  283.04 318.99 389.57  283.26
  -1  -2  -7  2909.4   190.9   1-0.42906 0.30135-0.89110 0.69223 0.14779-0.65575  0 450.06 345.00  131.92 450.17 344.90  131.74
  -1  -2  -7  2936.4   192.6   2 0.00522-0.13279-0.99668 0.79758 0.08124-0.58841  0 448.96 345.23  105.71 449.18 345.14  105.75
  -1  -2  -7  2688.0   192.1   2-0.00651-0.12101 0.78761-0.98669-0.61614 0.10862  0 268.99 112.46  253.00 269.13 112.50  252.80
  -1  -2   7  2356.3   143.0   1-0.59606 0.46835-0.78886 0.58998-0.14974 0.65770  0 180.65 185.53  111.07 180.61 185.72  111.24
  -1  -2   7  3009.1   179.1   2 0.03184-0.15941-0.99671 0.79761-0.07455 0.58173  0 225.68 134.31  115.10 225.57 134.47  114.84
  -1  -2   7  2590.6   208.9   2-0.21032 0.08282 0.79582-0.99476 0.56784-0.05995  0 409.18 384.89  326.68 409.41 384.72  326.79
  -1   2  -7  1939.6   183.2   1-0.67771 0.55006-0.62700 0.82584-0.38416-0.12417  0 474.10 290.31   94.12 474.31 290.27   94.18
  -1   2  -7  2757.3   193.2   2 0.11016-0.23774-0.76382 0.96280-0.63596 0.12842  0 442.92 353.19  150.44 443.10 353.27  150.52
  -1   2  -7  2513.2   192.4   2-0.14624 0.01872 0.98273-0.78365 0.11341-0.62092  0 260.80 115.39  298.00 260.90 115.44  297.98
  -1   2   7  2972.8   122.2   1-0.00418-0.12353-0.78752 0.98637 0.61628-0.10874  0 223.08 136.70  169.06 223.02 136.91  169.11
  -1   2   7  2876.9   174.3   2-0.09852-0.02905-0.79660 0.99561 0.59642-0.08900  0 219.32 139.15   73.00 219.23 139.29   73.05
  -1   2   7  2586.2   206.4   2-0.10894-0.01857 0.98835-0.78927-0.10624 0.61376  0 401.46 389.50  285.34 401.65 389.37  285.16
   1  -2  -7  2275.6   142.1   1-0.59621 0.72392-0.78868 0.58981-0.15008-0.35788  0 388.24 396.63  111.24 388.49 396.53  111.21
   1  -2  -7  2825.0   206.6   2 0.00479 0.12278-0.99648 0.79738 0.08368-0.59085  0 387.02 396.70  105.67 387.30 396.61  105.61
   1  -2  -7  2888.8   175.3   2-0.00596 0.13348 0.78573-0.98481-0.61854 0.11102  0 209.04 148.26  252.61 208.98 148.34  252.62
   1  -2   7  2308.5   153.3   1-0.47090 0.59861-0.87823 0.67935 0.08352 0.42444  0 164.17 232.58  127.24 164.18 232.67  127.28
   1  -2   7  3064.9   167.6   2 0.03450 0.09306-0.99528 0.79618-0.09068 0.59786  0 180.89 184.49  115.73 180.76 184.54  115.78
   1  -2   7  2781.9   197.4   2-0.21928 0.34678 0.72829-0.92724 0.64923-0.14134  0 335.65 411.31  332.75 335.80 411.19  332.90
   1   2  -7  1685.2   167.5   1-0.69631 0.82395-0.35606 0.55490-0.62320 0.11487  0 448.23 347.53   73.35 448.43 347.52   73.36
   1   2  -7  2672.1   206.2   2 0.10568 0.02189-0.79680 0.99590-0.59493 0.08775  0 379.04 400.24  147.39 379.01 400.22  147.46
   1   2  -7  2679.6   171.5   2-0.13492 0.26243 0.98981-0.79073 0.04554-0.55306  0 203.50 153.85  293.74 203.53 153.81  293.99
   1   2   7  2833.8   155.6   1-0.00256 0.13027-0.78651 0.98535 0.61758-0.11004  0 179.45 187.83  169.14 179.48 188.06  169.25
   1   2   7  3079.6   164.0   2-0.10776 0.23533-0.76441 0.96342 0.63566-0.12823  0 176.94 191.81   70.00 176.90 191.91   70.10
   1   2   7  2555.0   182.6   2-0.11871 0.24623 0.99165-0.79257-0.05034 0.55785  0 326.51 411.97  288.46 326.41 411.72  288.41
  -1  -2  -8  4941.5   262.0   1-0.48113 0.35342-0.87409 0.67522 0.06691-0.64744  0 475.19 364.43  126.22 475.38 364.32  126.14
  -1  -2  -8  5161.8   258.2   2 0.01927-0.14683-0.99981 0.80072 0.00114-0.58077  0 473.63 365.26  110.47 473.72 365.09  110.43
  -1  -2  -8  5864.9   264.1   2-0.00820-0.11931 0.79336-0.99244-0.60869 0.02868  0 260.26  91.00  253.28 260.41  91.20  253.34
  -1  -2   8  4963.1   211.9   1-0.55673 0.42903-0.82792 0.62905-0.06773 0.64825  0 165.02 172.51  117.01 165.00 172.69  116.91
  -1  -2   8  5542.2   238.0   2 0.01950-0.14706-0.99981 0.80071-0.00109 0.58072  0 210.21 119.16  110.56 210.16 119.30  110.57
  -1  -2   8  5219.1   280.8   2-0.21005 0.08255 0.79753-0.99648 0.56553 0.01492  0 423.07 410.82  326.70 423.45 410.69  326.63
  -1   2  -8  4051.1   248.6   1-0.68111 0.55346-0.61392 0.81275-0.39900-0.18195  2 504.13 306.29   93.09 504.65 306.35   93.03
  -1   2  -8  5385.7   272.6   2 0.10912-0.23669-0.77147 0.97046-0.62684 0.04679  0 466.97 373.50  150.15 467.02 373.50  149.84
  -1   2  -8  5052.1   227.8   2-0.13244 0.00492 0.99071-0.79163 0.03097-0.61098  0 252.08  94.44  293.26 251.99  94.57  293.14
  -1   2   8  5641.6   172.3   1-0.01547-0.11223-0.79446 0.99331 0.60711-0.02707  0 207.90 121.48  168.15 207.94 121.75  168.19
  -1   2   8  5368.2   234.3   2-0.09738-0.03019-0.80047 0.99948 0.59141-0.01149  0 203.93 124.36   73.31 203.80 124.55   73.42
  -1   2   8  5193.0   278.6   2-0.12221-0.00531 0.99208-0.79300-0.02919 0.60920  0 414.91 415.42  289.70 415.02 415.23  289.64
   1  -2  -8  4269.9   192.4   1-0.62530 0.75301-0.74891 0.55004-0.21938-0.36115  0 408.72 418.54  106.40 408.95 418.46  106.34
   1  -2  -8  5950.7   283.1   2 0.01786 0.10970-0.99980 0.80070 0.00931-0.58894  0 406.51 419.19  110.10 406.69 418.91  109.96
   1  -2  -8  5722.7   243.5   2-0.00758 0.13510 0.79125-0.99033-0.61144 0.03142  0 198.36 129.49  253.01 198.36 129.56  253.14
   1  -2   8  5004.0   220.0   1-0.44030 0.56801-0.88825 0.68938 0.13094 0.44958  0 146.56 221.45  130.59 146.55 221.50  130.57
   1  -2   8  5965.6   235.9   2 0.02101 0.10655-0.99973 0.80063-0.00998 0.58961  0 164.81 172.07  110.99 164.78 172.15  111.08
   1  -2   8  4972.3   262.9   2-0.21827 0.34577 0.73754-0.93649 0.63905-0.05860  0 344.24 436.66  332.15 344.41 436.49  332.10
   1   2  -8  3603.8   243.8   1-0.69714 0.82479-0.36547 0.56431-0.61678 0.03583  0 473.16 367.21   74.03 473.38 367.11   74.02
   1   2  -8  5461.5   283.9   2 0.10510 0.02247-0.80060 0.99969-0.58992 0.01029  0 397.61 422.93  146.98 397.93 422.84  147.10
   1   2  -8  4807.7   226.9   2-0.12297 0.25049 0.99210-0.79302-0.02471-0.55531  0 192.73 135.15  289.70 192.64 135.17  289.90
   1   2   8  5707.2   216.8   1-0.01001 0.13771-0.79112 0.98997 0.61158-0.03153  0 163.74 174.95  168.68 163.79 175.16  168.64
   1   2   8  5990.2   228.5   2-0.10555 0.23312-0.77233 0.97134 0.62639-0.04647  0 160.82 179.59   71.02 160.77 179.69   70.80
   1   2   8  5070.4   261.0   2-0.13179 0.25930 0.99091-0.79183 0.02705 0.55296  0 334.64 437.24  293.15 334.52 437.04  292.92
  -1  -2  -9 26035.7   521.0   1-0.52471 0.39700-0.85125 0.65237-0.00749-0.64560  2 504.84 387.66  120.85 505.10 387.59  121.03
  -1  -2  -9 30010.6   521.7   2 0.03119-0.15875-0.99702 0.79792-0.07060-0.58148  2 502.89 388.77  114.69 503.00 388.58  114.60
  -1  -2  -9 32106.2   509.9   2-0.00804-0.11948 0.79282-0.99190-0.60940-0.04312  0 250.96  66.98  253.18 250.82  67.21  253.29
  -1  -2   9 26852.9   440.6   1-0.51636 0.38865-0.85634 0.65747 0.00757 0.64551  0 147.82 157.92  122.00 147.80 158.10  122.06
  -1  -2   9 31357.0   519.9   2 0.00798-0.13555-0.99780 0.79870 0.06582 0.58626  0 193.23 102.31  106.65 193.19 102.51  106.66
  -1  -2   9 26841.0   530.1   2-0.21058 0.08308 0.79414-0.99309 0.57008 0.08292  0 439.47 440.97  326.77 439.85 440.88  326.95
  -1   2  -9 28898.0   525.5   2 0.10902-0.23659-0.77226 0.97124-0.62589-0.02667  0 495.36 397.35  149.82 495.48 397.36  149.77
  -1   2  -9 27911.2   480.6   2-0.11997-0.00755 0.99184-0.79277-0.04304-0.60948  0 242.23  70.83  288.83 242.13  71.05  288.83
  -1   2   9 31458.9   391.7   1-0.01421-0.11350-0.79370 0.99255 0.60815 0.04440  0 191.76 104.00  168.15 191.86 104.40  168.30
  -1   2   9 31787.6   523.0   2-0.09787-0.02970-0.79882 0.99783 0.59356 0.05885  0 186.79 107.98   73.02 186.74 108.21   73.26
  -1   2   9 28170.7   537.5   2-0.13413 0.00661 0.99012-0.79105 0.04080 0.61172  0 430.44 445.52  294.01 430.53 445.28  293.71
   1  -2  -9 23089.4   363.8   1-0.64775 0.77546-0.70844 0.50956-0.28025-0.37284  0 431.81 444.97  102.00 432.13 444.76  101.95
   1  -2  -9 31603.5   560.2   2 0.02926 0.09830-0.99786 0.79876-0.05852-0.59357  0 429.15 445.62  114.11 429.30 445.27  113.91
   1  -2  -9 31345.3   523.5   2-0.00749 0.13500 0.79093-0.99001-0.61186-0.04066  0 186.40 108.56  252.99 186.35 108.69  253.11
   1  -2   9 22133.3   431.7   1-0.40916 0.53687-0.89519 0.69631 0.17673 0.47636  0 127.43 209.14  133.97 127.34 209.27  133.77
   1  -2   9 31354.9   498.9   2 0.00857 0.11900-0.99801 0.79891 0.06252 0.58956  0 146.95 158.56  106.83 146.94 158.70  106.86
   1  -2   9 26095.0   500.5   2-0.21806 0.34556 0.73932-0.93826 0.63707 0.01594  0 353.85 466.12  332.00 354.02 465.90  331.95
   1   2  -9 18787.9   426.5   1-0.69714 0.82478-0.36542 0.56426-0.61682-0.03675  2 502.42 390.59   73.89 502.87 390.57   74.01
   1   2  -9 28968.1   538.2   2 0.10536 0.02220-0.79886 0.99796-0.59222-0.05987  0 419.63 449.70  147.02 419.89 449.53  147.26
   1   2  -9 27518.3   489.9   2-0.11199 0.23951 0.98971-0.79064-0.08902-0.56350  0 180.33 114.49  285.95 180.33 114.56  286.16
   1   2   9 30778.6   468.5   1-0.00957 0.13727-0.79085 0.98970 0.61193 0.04062  0 146.38 160.50  168.80 146.51 160.73  168.67
   1   2   9 31063.7   492.3   2-0.10533 0.23290-0.77312 0.97213 0.62545 0.02695  0 142.75 166.34   71.10 142.73 166.48   70.87
   1   2   9 27937.9   506.7   2-0.14347 0.27098 0.98493-0.78585 0.09663 0.55589  0 343.60 466.66  296.90 343.48 466.35  296.99
  -1  -2 -10  1191.6   183.4   2-0.00650-0.12102 0.78759-0.98666-0.61617-0.10885  0 240.30  39.78  252.61 240.13  39.72  252.79
  -1  -2  10 906.258 153.583   1-0.47464 0.34693-0.87676 0.67789 0.07750 0.64816  0 128.62 141.48  126.68 128.64 141.41  126.87
  -1  -2  10  1201.3   187.2   2-0.00314-0.12443-0.99180 0.79270 0.12776 0.59678  0 174.00  83.51  102.99 174.12  83.62  103.02
  -1  -2  10  1023.5   255.0   2-0.21166 0.08416 0.78679-0.98573 0.57980 0.14577  0 459.26 476.86  327.68 459.38 476.79  327.66
  -1   2 -10 974.873 172.947   2-0.10814-0.01938 0.98795-0.78887-0.11076-0.61426  0 231.30  44.00  284.72 231.07  44.11  284.89
  -1   2  10  1195.6   140.5   1-0.00417-0.12354-0.78751 0.98636 0.61629 0.10877  0 174.47  83.97  168.69 174.51  84.10  169.12
  -1   2  10  1067.4   185.4   2-0.09960-0.02797-0.79291 0.99192 0.60114 0.12375  0 167.61  89.60   72.75 167.57  89.85   72.70
  -1   2  10 795.375 254.763   2-0.14489 0.01737 0.98381-0.78474 0.10543 0.61959  0 448.95 481.19  297.56 448.98 481.07  297.51
   1  -2 -10 843.053 176.651   1-0.66505 0.79269-0.66705 0.46822-0.33578-0.39040  0 459.11 477.39   97.64 459.02 477.21   97.85
   1  -2 -10  1031.4   251.1   2 0.03949 0.08807-0.99182 0.79272-0.12135-0.60318  0 456.38 477.11  117.59 456.34 477.17  117.58
   1  -2 -10  1064.6   184.5   2-0.00609 0.13361 0.78616-0.98524-0.61799-0.10703  0 172.45  85.10  252.56 172.58  85.14  252.66
   1  -2  10 916.007 155.064   1-0.37731 0.50502-0.89926 0.70039 0.22127 0.50439  0 106.10 195.56  136.78 106.04 195.57  136.92
   1  -2  10  1001.8   167.7   2-0.00335 0.13092-0.99165 0.79255 0.12895 0.59559  0 126.87 143.84  103.17 126.68 143.90  102.95
   1  -2  10 917.884 231.609   2-0.21851 0.34601 0.73550-0.93444 0.64132 0.08424  0 364.83 500.40  332.36 364.92 500.70  332.28
   1   2 -10  1146.6   255.9   2 0.10617 0.02140-0.79289 0.99199-0.60004-0.12449  0 445.98 481.92  148.13 445.98 481.74  147.82
   1   2 -10 936.518 174.867   2-0.10121 0.22873 0.98368-0.78460-0.14876-0.57627  0 166.12  91.21  282.60 166.23  91.35  282.67
   1   2  10 822.784 148.427   1-0.00289 0.13060-0.78671 0.98556 0.61731 0.10775  0 127.18 143.92  169.37 127.28 144.25  169.22
   1   2  10 949.560 157.944   2-0.10661 0.23418-0.76862 0.96763 0.63076 0.09413  0 122.46 152.05   70.39 122.30 152.06   70.47
   1   2  10 849.877 225.149   2-0.15381 0.28131 0.97490-0.77596 0.16098 0.56458  2 353.69 501.44  301.00 353.68 501.06  300.75
  -1  -2 -11  3054.3   324.8   2-0.00390-0.12361 0.77858-0.97766-0.62753-0.16999  2 228.00   7.69  251.82 227.98   7.54  251.95
  -1  -2  11  2456.1   241.6   1-0.43220 0.30450-0.89035 0.69147 0.14312 0.65509  0 107.30 121.78  131.35 107.03 121.89  131.41
  -1  -2  11  2950.1   309.6   2-0.01387-0.11370-0.98247 0.78337 0.18592 0.61107  0 152.22  61.88   99.59 152.34  62.02   99.57
  -1   2 -11  2535.9   307.5   2-0.09681-0.03071 0.98003-0.78095-0.17369-0.62384  0 218.42  12.25  281.28 218.43  12.60  281.20
  -1   2  11  3109.8   233.7   1 0.01250-0.14020-0.77690 0.97575 0.62949 0.16807  0 155.43  59.43  170.51 155.51  59.90  170.48
  -1   2  11  2520.4   300.1   2-0.10230-0.02527-0.78351 0.98251 0.61291 0.18448  0 145.75  68.85   72.01 145.62  68.87   71.82
   1  -2 -11  2668.3   311.6   2-0.00367 0.13119 0.77777-0.97685-0.62854-0.16898  0 156.57  58.10  251.99 156.53  58.01  251.87
   1  -2  11  2469.2   274.4   1-0.34443 0.47214-0.90069 0.70182 0.26480 0.53342  0  82.11 179.82  140.18  82.05 179.89  140.05
   1  -2  11  2964.5   282.5   2-0.01499 0.14255-0.98144 0.78243 0.19118 0.60620  0 103.32 127.42   99.30 103.25 127.38   99.26
   1   2 -11  2571.5   294.2   2-0.09101 0.21853 0.97450-0.77542-0.20510-0.59242  0 149.79  64.58  279.30 149.78  64.74  279.34
   1   2  11  3024.0   272.1   1 0.00888 0.11883-0.77925 0.97809 0.62666 0.17091  0 105.60 124.79  170.31 105.56 124.97  170.18
   1   2  11  2915.6   269.5   2-0.10897 0.23654-0.75992 0.95892 0.64082 0.15656  0  99.08 135.83   69.64  98.78 136.03   69.70
  -1  -2  12  3096.6   309.6   1-0.38889 0.26118-0.89812 0.69924 0.20532 0.66547  0  82.22  98.12  136.09  82.17  98.41  135.79
  -1  -2  12  3077.3   381.1   2-0.02446-0.10311-0.97008 0.77108 0.24154 0.62834  0 126.83  36.34   96.31 126.80  36.76   96.23
  -1   2  12  3972.0   288.3   1 0.03465-0.16236-0.76220 0.96105 0.64641 0.22366  0 134.09  29.64  172.29 134.27  30.13  172.29
  -1   2  12  3193.3   358.1   2-0.10591-0.02166-0.77104 0.97005 0.62792 0.24195  0 119.91  44.00   70.62 119.90  44.41   70.68
   1  -2 -12  3843.1   392.5   2-0.00044 0.12796 0.76626-0.96534-0.64253-0.22749  0 137.58  26.32  250.72 137.39  26.00  250.82
   1  -2  12  3334.2   295.1   1-0.31070 0.43841-0.89935 0.70047 0.30764 0.56315  0  54.44 161.34  143.17  54.41 161.43  143.18
   1  -2  12  3256.7   329.5   2-0.02595 0.15352-0.96805 0.76905 0.24939 0.62048  0  76.25 108.54   96.06  75.82 108.58   95.76
   1   2 -12  3572.0   378.5   2-0.08089 0.20840 0.96256-0.76348-0.25874-0.61129  0 130.19  33.18  276.02 130.11  33.36  276.13
   1   2  12  3699.3   303.2   1 0.02507 0.10264-0.76869 0.96754 0.63913 0.23094  0  80.59 101.68  171.49  80.55 101.77  171.51
   1   2  12  3666.4   321.3   2-0.11224 0.23981-0.74763 0.94664 0.65456 0.21532  0  71.64 117.80   68.61  71.07 117.87   68.62
  -1  -3   0  -3.090  34.457   1-0.57915 0.45152 0.07152-0.36967-0.81208 0.81208  0 223.29 266.88   45.43 223.39 267.32   45.51
  -1  -3   0 -12.306  40.286   2-0.21564 0.08809-0.08429-0.21411 0.97283-0.97283  0 377.12 298.09   24.93 377.18 298.02   25.00
  -1  -3   0   5.419  41.750   2 0.12632-0.25389-0.23049-0.06799-0.96484 0.96484  0 287.28 178.80  186.88 287.36 178.80  187.13
  -1   3   0  25.638  35.753   1-0.64289 0.51525-0.09869 0.39695-0.75957 0.75957  0 362.15 199.33   56.41 362.28 199.19   56.36
  -1   3   0   2.556  47.255   2-0.22713 0.09959 0.07938 0.21903 0.97062-0.97062  0 276.11 182.28   15.43 276.06 182.14   15.58
  -1   3   0  12.145  44.345   2 0.09569-0.22324 0.21741 0.08116-0.97138 0.97138  0 369.63 308.53  213.67 369.95 308.26  213.03
   1  -3   0   6.488  27.838   1-0.69980 0.82744-0.47593 0.17767-0.53270 0.53270  0 242.97 311.22   81.65 243.29 311.30   81.97
   1  -3   0   6.122  44.932   2-0.19797 0.32552-0.26108-0.03732 0.94480-0.94480  0 322.81 337.28   35.50 322.78 337.23   35.31
   1  -3   0  19.366  37.886   2 0.12200 0.00557-0.12436-0.17412-0.98471 0.98471  0 236.09 213.59  193.47 235.71 213.80  193.32
   1   3   0  16.064  48.826   1-0.42131 0.54894 0.35674-0.05859-0.83380 0.83380  0 387.57 247.31   26.49 387.43 247.18   26.72
   1   3   0  11.121  32.661   2-0.23480 0.36235 0.27682 0.02158 0.93179-0.93179  0 230.25 223.56    3.89 230.17 223.71    4.00
   1   3   0  26.153  43.842   2 0.10409 0.02346 0.13206 0.16651-0.98576 0.98576  0 310.50 338.86  208.50 310.57 338.75  208.05
  -1  -3  -1  3540.8   117.8   1-0.49887 0.37125 0.23177-0.52993-0.83511 0.76247  0 223.15 276.85   34.99 223.13 276.76   35.15
  -1  -3  -1  4870.4   134.9   2-0.18980 0.06225-0.32910 0.03070 0.92502-0.99759  0 380.67 296.81   39.31 380.71 296.88   39.39
  -1  -3  -1  4876.8   136.6   2 0.11413-0.24168 0.00719-0.30576-0.99344 0.92092  0 289.32 176.18  201.01 289.40 176.23  200.86
  -1  -3   1  3423.7   117.7   1-0.64198 0.51433-0.09576-0.20250-0.76072 0.83334  0 220.90 257.99   56.05 220.88 257.94   56.17
  -1  -3   1  4676.5   136.7   2-0.23055 0.10300 0.14716-0.44557 0.96187-0.88930  0 376.92 303.27   11.81 376.89 303.24   11.65
  -1  -3   1  4567.0   134.3   2 0.12882-0.25639-0.45447 0.15600-0.88140 0.95390  0 282.55 177.65  173.40 282.72 177.74  173.35
  -1   3  -1  3217.4   111.6   1-0.68515 0.55751-0.27242 0.57067-0.67554 0.60292  0 374.54 209.06   67.68 374.44 209.13   67.67
  -1   3  -1  5012.3   143.2   2-0.23523 0.10769 0.30884-0.01044 0.92157-0.99413  0 277.74 179.23    2.00 277.87 179.28    2.08
  -1   3  -1  5331.1   146.9   2 0.11510-0.24265-0.00675 0.30532-0.99333 0.92082  0 373.65 307.51  199.93 373.64 307.49  200.05
  -1   3   1  3440.4    97.7   1-0.53929 0.41166 0.15602 0.14214-0.82754 0.90019  0 353.11 188.83   39.61 353.06 188.94   40.09
  -1   3   1  5220.9   147.1   2-0.21078 0.08323-0.14007 0.43848 0.96745-0.89488  0 271.61 181.51   27.90 271.77 181.57   28.22
  -1   3   1  5402.7   148.4   2 0.06741-0.19497 0.43251-0.13395-0.89911 0.97162  0 369.29 312.94  226.19 369.23 312.86  226.18
   1  -3  -1  3002.0    86.8   1-0.69280 0.82044-0.32504 0.02679-0.64372 0.57110  0 251.06 321.58   71.00 251.01 321.48   71.22
   1  -3  -1  5095.2   147.5   2-0.16951 0.29706-0.46857 0.17017 0.86701-0.93957  0 327.35 338.50   47.99 327.41 338.46   48.12
   1  -3  -1  5134.7   139.2   2 0.10686 0.02069 0.10057-0.39913-0.98917 0.91666  0 236.35 209.70  205.99 236.18 209.69  206.23
   1  -3   1  2936.0   101.6   1-0.68760 0.81524-0.58445 0.28619-0.43085 0.50347  0 233.51 301.56   90.51 233.43 301.50   90.52
   1  -3   1  4614.0   138.1   2-0.21910 0.34665-0.04189-0.25652 0.97480-0.90224  0 320.67 340.01   22.55 320.70 339.90   22.55
   1  -3   1  4562.8   130.3   2 0.12903-0.00146-0.35507 0.05660-0.92589 0.99840  0 232.86 214.84  179.70 232.72 214.78  179.64
   1   3  -1  3425.8   121.1   1-0.51497 0.64259 0.20276 0.09540-0.83289 0.76024  0 390.50 257.88   37.06 390.72 257.89   37.06
   1   3  -1  4790.4   137.0   2 0.12109 0.00648-0.10620 0.40467-0.98694 0.91444  0 315.34 340.61  194.04 315.30 340.49  194.39
   1   3  -1  4035.7   121.7   2-0.23510 0.36259 0.48994-0.19166 0.83945-0.91203  0 230.48 219.10  350.51 230.42 219.11  350.47
   1   3   1  3188.7   123.0   1-0.30399 0.43162 0.51123-0.21308-0.80389 0.87653  0 387.54 236.35   15.44 387.77 236.43   15.47
   1   3   1  4578.1   125.3   2-0.22522 0.35277 0.04487 0.25353 0.97327-0.90071  0 227.52 225.04   17.57 227.41 225.04   17.55
   1   3   1  5100.5   137.0   2 0.07569 0.05186 0.37719-0.07862-0.92304 0.99555  0 308.20 341.22  222.71 308.26 341.07  222.70
  -1  -3  -2 278.800  50.714   1-0.41207 0.28444 0.37027-0.66843-0.83252 0.68724  0 220.19 286.26   25.75 220.07 286.38   25.79
  -1  -3  -2 349.375  62.578   2-0.15611 0.02854-0.54507 0.24656 0.82373-0.96871  0 387.32 299.63   52.99 387.43 299.62   53.23
  -1  -3  -2 478.888  67.073   2 0.09550-0.22305 0.21913-0.51769-0.97101 0.82598  0 288.93 170.05  212.93 289.01 170.06  213.14
  -1  -3   2 311.740  56.924   1-0.68184 0.55420-0.25404-0.04422-0.68597 0.83121  0 215.72 248.48   66.37 215.77 248.49   66.45
  -1  -3   2 411.233  67.452   2 0.12232-0.24989-0.63471 0.33623-0.76301 0.90802  0 275.61 173.58  160.79 275.83 173.53  160.93
  -1   3  -2 329.494  63.532   1-0.69838 0.57074-0.38186 0.68011-0.60535 0.46011  0 388.69 219.02   75.23 388.99 219.04   75.16
  -1   3  -2 375.349  65.270   2 0.12567-0.25325-0.20603 0.50451-0.97044 0.82543  0 380.33 310.59  188.52 380.28 310.56  188.56
  -1   3  -2 382.600  65.143   2-0.23419 0.10669 0.51319-0.21478 0.82571-0.97082  0 277.35 173.06  349.03 277.40 173.13  348.98
  -1   3   2 257.835  42.150   1-0.34387 0.21624 0.46274-0.16458-0.81708 0.96237  0 348.01 177.99   19.11 347.94 178.15   19.14
  -1   3   2 418.227  69.486   2-0.19083 0.06328-0.32098 0.61939 0.92766-0.78253  0 265.23 177.68   39.00 265.29 177.96   38.90
  -1   3   2 328.601  66.699   2 0.03607-0.16362 0.61122-0.31266-0.79064 0.93567  0 371.35 321.23  238.34 371.23 321.08  238.31
   1  -3  -2 143.781  32.146   1-0.65117 0.77881-0.12605-0.17221-0.74839 0.60315  0 255.33 332.24   57.99 255.41 332.04   58.11
   1  -3  -2 434.229  71.169   2-0.13806 0.26563-0.63846 0.33995 0.75717-0.90215  0 334.35 343.32   59.66 334.36 343.30   59.90
   1  -3  -2 412.122  61.561   2 0.08738 0.04017 0.28871-0.58728-0.95342 0.80839  0 234.48 202.53  217.15 234.41 202.63  217.28
   1  -3   2 192.274  49.174   1-0.66645 0.79409-0.66303 0.36478-0.34092 0.48616  0 222.08 291.96   97.38 222.10 291.91   97.47
   1  -3   2 333.101  65.584   2-0.23092 0.35847 0.15658-0.45499 0.96029-0.81516  0 321.05 346.35   11.04 321.00 346.49   11.10
   1  -3   2 336.419  54.876   2 0.12635 0.00122-0.55664 0.25816-0.82109 0.96610  0 227.47 212.80  166.62 227.33 212.74  166.52
   1   3  -2 263.964  65.706   1-0.58168 0.70931 0.06573 0.23243-0.81076 0.66547  0 397.33 268.86   45.65 397.47 268.84   45.88
   1   3  -2 380.190  66.811   2 0.12821-0.00064-0.30201 0.60049-0.94464 0.79963  0 322.55 346.11  182.63 322.45 345.99  182.86
   1   3  -2 330.671  55.607   2-0.22606 0.35356 0.65772-0.35931 0.71854-0.86365  0 228.31 211.56  338.72 228.17 211.61  338.60
   1   3   2 277.723  58.825   1-0.17327 0.30090 0.64755-0.34940-0.74206 0.88735  0 391.52 225.26    4.25 391.77 225.21    4.07
   1   3   2 455.967  58.751   2-0.20808 0.33563-0.16795 0.46635 0.96358-0.81845  0 222.05 223.10   29.66 222.05 223.15   29.84
   1   3   2 369.745  62.253   2 0.04090 0.08666 0.58703-0.28847-0.80853 0.95356  0 308.30 347.49  236.58 308.39 347.47  236.56
  -1  -3  -3 222.953  52.371   1-0.33035 0.20272 0.47957-0.77772-0.81294 0.59502  0 214.38 296.06   17.59 214.44 296.23   17.88
  -1  -3  -3 312.384  72.118   1 0.04676-0.17446-0.75379 0.45552 0.65544-0.87296  0 399.58 301.87  173.25 399.68 301.91  173.28
  -1  -3  -3 232.479  63.180   2-0.12192-0.00564-0.70937 0.41086 0.69421-0.91168  0 397.04 305.92   65.46 397.22 305.83   65.41
  -1  -3  -3 265.057  65.666   2 0.07486-0.20241 0.38308-0.68164-0.92068 0.70313  0 286.45 160.59  223.33 286.55 160.68  223.07
  -1  -3   3 207.845  54.009   1-0.69904 0.57140-0.39314 0.09488-0.59731 0.81517  0 208.51 238.82   75.78 208.44 238.88   75.95
  -1  -3   3 218.609  68.696   2 0.10994-0.23751-0.76511 0.46663-0.63445 0.85196  0 266.90 166.50  150.20 267.15 166.73  150.42
  -1  -3   3 249.350  68.762   2-0.23566 0.10816 0.46697-0.76526 0.85229-0.63457  0 384.30 324.16  351.74 384.26 324.09  351.98
  -1   3  -3 214.314  65.643   1-0.70037 0.57273-0.44901 0.74727-0.55486 0.33700  0 405.57 229.15   79.69 405.62 229.14   79.97
  -1   3  -3 272.416  68.239   2 0.12909-0.25666-0.36188 0.66036-0.92324 0.70572  0 389.64 316.91  179.02 389.78 316.95  179.22
  -1   3  -3 201.913  65.887   2-0.22477 0.09727 0.67346-0.37505 0.70422-0.92189  0 274.68 163.85  337.41 274.82 163.94  337.38
  -1   3   3 245.467  70.347   2-0.17173 0.04418-0.45498 0.75339 0.87378-0.65609  0 256.78 171.96   47.24 256.95 171.82   47.24
  -1   3   3 318.366  75.029   2 0.00530-0.13285 0.74450-0.44593-0.66761 0.88515  0 375.58 332.29  249.05 375.48 332.45  248.89
   1  -3  -3 106.222  32.981   1-0.56674 0.69437 0.09918-0.39734-0.81791 0.59998  0 255.72 342.96   43.58 255.54 343.01   43.74
   1  -3  -3 289.210  71.497   2-0.10770 0.23526-0.76464 0.46613 0.63539-0.85286  0 343.53 351.18   70.45 343.46 351.29   70.12
   1  -3  -3 321.740  60.861   2 0.06789 0.05967 0.42940-0.72797-0.90056 0.68301  0 230.87 193.24  225.65 230.74 193.08  225.98
   1  -3   3 195.688  52.377   1-0.64119 0.76890-0.72139 0.42308-0.26168 0.47937  0 209.75 282.46  103.21 209.73 282.53  103.31
   1  -3   3 178.112  66.466   2-0.23531 0.36286 0.31446-0.61286 0.91964-0.70195  0 323.21 356.71    2.06 323.32 356.52    1.74
   1  -3   3 204.494  52.633   2 0.11605 0.01152-0.71134 0.41286-0.69320 0.91072  0 219.93 208.28  154.68 219.79 208.13  154.99
   1   3  -3 185.292  56.677   1-0.62528 0.75292-0.04546 0.34372-0.77908 0.56122  0 407.55 280.15   52.97 407.47 280.28   52.97
   1   3  -3 203.806  64.269   2 0.12903-0.00146-0.44515 0.74363-0.88611 0.66859  0 331.56 354.54  173.70 331.65 354.69  173.97
   1   3  -3  82.118  49.028   2-0.21295 0.34045 0.77798-0.47956 0.59111-0.80877  0 224.06 201.65  328.53 224.08 201.73  328.48
   1   3   3 313.754  56.543   2-0.18885 0.31639-0.33645 0.63486 0.92257-0.70488  0 214.43 218.64   39.62 214.45 218.61   39.84
   1   3   3 236.581  65.088   2 0.00600 0.12155 0.74182-0.44326-0.67057 0.88811  0 310.37 357.63  248.72 310.51 357.48  248.66
  -1  -3  -4 45732.4   429.5   1-0.26084 0.13321 0.56002-0.85817-0.78635 0.49578  0 206.60 306.58   11.65 206.59 306.46   11.61
  -1  -3  -4 70518.5   531.8   1-0.07410-0.05361-0.82726 0.52899 0.55691-0.84693  0 410.29 314.75  163.36 410.43 314.62  163.39
  -1  -3  -4 71826.5   538.3   2-0.09035-0.03722-0.82319 0.52468 0.56053-0.85048  0 409.51 315.00   75.65 409.80 314.99   75.65
  -1  -3  -4 70457.9   535.1   2 0.05681-0.18437 0.49862-0.79719-0.86496 0.57489  0 282.36 148.53  230.47 282.45 148.62  230.48
  -1  -3   4 44896.3   443.6   1-0.69788 0.57024-0.50948 0.21122-0.50339 0.79386  0 199.28 228.95   84.45 199.17 228.99   84.53
  -1  -3   4 70131.8   559.0   2 0.09557-0.22314-0.85412 0.55547-0.51122 0.80104  0 256.74 157.90  141.59 256.98 157.97  141.63
  -1  -3   4 61915.4   525.6   2-0.23244 0.10494 0.55711-0.85552 0.79725-0.50702  0 390.83 338.81  346.01 391.19 338.68  345.98
  -1   3  -4 49501.2   476.3   1-0.69925 0.57161-0.48912 0.78738-0.52136 0.23088  0 424.22 239.65   82.97 424.43 239.70   82.97
  -1   3  -4 67516.8   536.6   2 0.12852-0.25609-0.47406 0.77253-0.87106 0.58104  0 401.65 326.23  171.90 401.94 326.24  172.09
  -1   3  -4 55142.6   487.5   2-0.21141 0.08391 0.78870-0.49028 0.57729-0.86752  0 270.60 152.10  327.54 270.64 152.24  327.47
  -1   3   4 72359.9   569.8   2-0.15564 0.02807-0.54770 0.84621 0.82207-0.53212  0 247.22 163.61   53.41 247.07 163.72   53.41
  -1   3   4 72308.1   571.1   2-0.02233-0.10519 0.83773-0.53911-0.54563 0.83564  0 381.72 346.71  257.94 381.59 346.58  257.83
   1  -3  -4 46515.2   306.5   1-0.45738 0.58501 0.30153-0.59968-0.83659 0.54602  0 251.32 354.71   30.58 251.19 354.51   30.51
   1  -3  -4 72023.6   381.2   1-0.14179 0.26950-0.85808 0.55981 0.49355-0.78357  0 353.72 362.79  157.96 353.60 362.63  157.79
   1  -3  -4 73409.9   574.8   2-0.08038 0.20795-0.85285 0.55434 0.51594-0.80590  0 354.52 362.21   78.80 354.48 362.13   78.76
   1  -3  -4 72791.4   571.7   2 0.05179 0.07577 0.52814-0.82670-0.84758 0.55752  0 225.67 181.51  232.47 225.51 181.54  232.46
   1  -3   4 49850.7   474.8   1-0.61376 0.74147-0.76609 0.46778-0.19077 0.48103  0 196.43 273.08  108.22 196.41 273.10  108.36
   1  -3   4 69050.1   538.9   2 0.10192 0.02565-0.82009 0.52144-0.56309 0.85290  0 210.50 201.49  144.94 210.41 201.49  145.19
   1  -3   4 58487.7   498.1   2-0.23641 0.36391 0.42952-0.72780 0.87156-0.58127  0 327.08 369.88  354.43 327.12 369.69  354.40
   1   3  -4 41955.6   430.2   1-0.65234 0.77999-0.13012 0.42838-0.74667 0.45619  0 420.27 292.46   57.98 420.50 292.48   58.38
   1   3  -4 66580.7   542.3   2 0.12686 0.00071-0.54324 0.84172-0.82994 0.53991  0 342.67 366.18  167.49 342.63 366.09  167.44
   1   3  -4 59463.9   512.5   2-0.19831 0.32581 0.85985-0.56144 0.47046-0.76068  0 218.57 189.88  319.94 218.44 189.95  320.03
   1   3   4 69498.5   527.0   2-0.17129 0.29884-0.45776 0.75616 0.87242-0.58216  0 205.02 212.00   47.41 204.93 212.01   47.42
   1   3   4 71916.3   536.7   2-0.02514 0.15266 0.84574-0.54712-0.53301 0.82302  0 314.20 370.87  258.73 314.21 370.64  258.70
  -1  -3  -5  3074.3   136.7   1-0.20605 0.07842 0.61640-0.91456-0.75999 0.39679  0 196.85 317.31    6.85 196.79 317.26    6.85
  -1  -3  -5  4205.5   176.3   1-0.18052 0.05282-0.87216 0.57388 0.45470-0.81723  0 424.18 328.77  154.60 424.27 328.63  154.55
  -1  -3  -5  4913.7   188.6   2-0.06316-0.06441-0.89808 0.59957 0.43528-0.79773  0 424.80 326.75   83.99 425.07 326.72   84.14
  -1  -3  -5  4566.9   184.8   2 0.04303-0.17058 0.57614-0.87471-0.81621 0.45364  0 277.03 134.22  236.00 277.08 134.32  235.79
  -1  -3   5  3161.9   146.5   1-0.68346 0.55582-0.60401 0.30576-0.40994 0.77303  0 188.32 218.63   92.04 188.26 218.69   92.18
  -1  -3   5  4430.9   173.7   2 0.08056-0.20812-0.91375 0.61510-0.39822 0.76049  0 245.70 147.46  134.03 245.62 147.57  134.29
  -1  -3   5  3697.0   187.1   2-0.22919 0.10169 0.61660-0.91501 0.75318-0.39040  0 399.50 356.00  341.71 399.78 355.81  341.72
  -1   3  -5  2709.4   171.2   1-0.69770 0.57006-0.51161 0.80987-0.50146 0.13837  0 445.52 250.93   84.91 445.65 250.95   84.69
  -1   3  -5  4394.2   189.5   2 0.12657-0.25414-0.55105 0.84953-0.82482 0.46229  0 416.44 338.17  166.95 416.62 338.15  166.90
  -1   3  -5  3770.1   182.3   2-0.19649 0.06899 0.86782-0.56941 0.45637-0.81916  0 265.11 138.19  319.15 265.16 138.32  319.10
  -1   3   5  4700.9   181.1   2-0.14360 0.01603-0.61052 0.90903 0.77888-0.41643  0 236.03 153.82   57.99 235.88 153.92   57.85
  -1   3   5  4253.4   196.1   2-0.04671-0.08081 0.90077-0.60216-0.43177 0.79428  0 389.22 363.45  265.33 389.44 363.35  265.42
   1  -3  -5  2917.7    96.2   1-0.35407 0.48170 0.44972-0.74787-0.81999 0.45678  0 243.46 366.94   20.09 243.36 366.73   20.10
   1  -3  -5  4526.3   128.1   1-0.31502 0.44273-0.89966 0.60135 0.30228-0.66511  0 363.12 377.76  142.94 362.93 377.62  142.79
   1  -3  -5  4803.5   201.3   2-0.05690 0.18447-0.91256 0.61405 0.40496-0.76740  0 367.42 375.67   86.00 367.41 375.55   86.09
   1  -3  -5  4734.4   180.0   2 0.03933 0.08823 0.59500-0.89356-0.80277 0.44019  0 219.12 168.22  237.00 218.95 168.26  237.13
   1  -3   5  3342.5   155.4   1-0.58518 0.71289-0.80104 0.50273-0.12610 0.48893  0 182.15 263.51  112.78 182.14 263.55  112.88
   1  -3   5  4069.2   163.6   2 0.08623 0.04133-0.89366 0.59501-0.44039 0.80266  0 199.51 193.24  136.94 199.44 193.23  136.97
   1  -3   5  3624.3   177.4   2-0.23431 0.36181 0.50948-0.80790 0.82797-0.46518  0 332.32 385.84  349.14 332.41 385.70  349.23
   1   3  -5  2539.4   158.9   1-0.66847 0.79612-0.19139 0.48964-0.71869 0.35559  0 436.24 305.78   62.08 436.50 305.76   62.34
   1   3  -5  4269.8   192.8   2 0.12389 0.00368-0.60840 0.90688-0.78390 0.42137  0 355.35 380.15  162.93 355.32 380.06  162.85
   1   3  -5  3612.4   164.9   2-0.18356 0.31106 0.91431-0.61589 0.36104-0.72382  0 211.61 176.46  312.86 211.47 176.54  312.94
   1   3   5  4339.8   167.1   2-0.15699 0.28455-0.54020 0.83871 0.82676-0.46431  0 193.88 203.88   53.00 193.78 203.91   52.90
   1   3   5  4407.3   184.3   2-0.05187 0.17939 0.91218-0.61356-0.40649 0.76900  0 319.10 386.95  267.04 319.09 386.71  267.03
  -1  -3  -6  6865.2   199.1   1-0.16565 0.03802 0.65443-0.95258-0.73776 0.30191  0 185.32 328.89    3.45 185.32 328.85    3.43
  -1  -3  -6 11034.5   265.6   1-0.27197 0.14426-0.89475 0.59644 0.35419-0.78959  0 441.15 344.56  147.14 441.24 344.44  146.67
  -1  -3  -6 12056.9   285.7   2-0.04020-0.08737-0.94578 0.64727 0.32230-0.75723  0 442.89 341.00   91.30 443.18 340.96   91.30
  -1  -3  -6 11353.0   278.3   2 0.03287-0.16042 0.62683-0.92540-0.77846 0.34337  0 270.58 117.65  239.45 270.70 117.85  239.46
  -1  -3   6  8409.8   236.4   1-0.66037 0.53273-0.67940 0.38114-0.31989 0.75560  0 175.90 207.71   99.01 175.79 207.76   99.04
  -1  -3   6 10660.2   268.5   2 0.06629-0.19385-0.95276 0.65411-0.29642 0.73114  0 233.13 135.62  128.10 233.03 135.69  127.98
  -1  -3   6  9840.6   284.6   2-0.22629 0.09879 0.65476-0.95317 0.72117-0.28583  0 409.68 375.71  338.99 410.10 375.58  338.83
  -1   3  -6  7094.0   249.9   1-0.69666 0.56902-0.52214 0.82040-0.49196 0.05625  0 469.55 263.22   85.49 469.77 263.25   85.50
  -1   3  -6 10826.6   282.4   2 0.12422-0.25179-0.60248 0.90096-0.78841 0.35337  0 433.82 352.60  163.23 434.05 352.64  163.28
  -1   3  -6  9918.8   275.0   2-0.18144 0.05394 0.92067-0.62225 0.34562-0.78096  0 258.51 122.21  311.98 258.57 122.32  311.97
  -1   3   6 12407.1   290.1   2-0.13522 0.00765-0.65176 0.95027 0.74628-0.31134  0 223.51 142.51   60.98 223.41 142.62   60.90
  -1   3   6 10825.6   293.1   2-0.06752-0.06000 0.94228-0.64366-0.32794 0.76295  0 398.77 383.00  272.00 398.91 382.86  271.93
   1  -3  -6  7214.1   152.5   1-0.27396 0.40159 0.54557-0.84372-0.79202 0.35617  0 233.14 380.23   12.91 233.05 380.02   12.77
   1  -3  -6 10245.5   194.2   1-0.43073 0.55844-0.89071 0.59240 0.14531-0.58070  0 375.77 394.90  131.87 375.64 394.75  131.56
   1  -3  -6 11435.4   297.7   2-0.03662 0.16419-0.95197 0.65346 0.30401-0.73894  0 382.26 391.71   92.47 382.28 391.66   92.43
   1  -3  -6 11404.8   279.0   2 0.03025 0.09730 0.63920-0.93777-0.76844 0.33335  0 211.30 153.23  240.34 211.16 153.31  240.39
   1  -3   6  9322.0   247.0   1-0.55588 0.68359-0.82863 0.53032-0.06606 0.50146  0 166.93 253.67  117.02 166.89 253.70  117.02
   1  -3   6 11280.7   266.2   2 0.07082 0.05675-0.94166 0.64301-0.32903 0.76375  0 187.01 183.67  130.02 186.92 183.70  129.98
   1  -3   6  8875.4   261.8   2-0.23215 0.35965 0.56346-0.86188 0.79285-0.35752  0 338.65 404.73  345.55 338.74 404.54  345.54
   1   3  -6  6995.3   236.2   1-0.67786 0.80550-0.23357 0.53183-0.69710 0.26139  0 455.43 320.66   65.04 455.63 320.63   65.10
   1   3  -6 10737.8   288.8   2 0.12121 0.00636-0.65075 0.94923-0.74955 0.31452  0 369.86 396.73  160.09 369.77 396.63  159.73
   1   3  -6  9889.6   261.6   2-0.16935 0.29685 0.94985-0.65143 0.26289-0.69822  0 203.39 161.51  306.87 203.27 161.59  306.86
   1   3   6 11457.6   263.5   2-0.14665 0.27421-0.59517 0.89368 0.79011-0.35517  0 181.18 194.43   56.98 181.09 194.50   56.74
   1   3   6 10825.7   274.4   2-0.07420 0.20172 0.95300-0.65438-0.29375 0.72876  0 325.03 405.81  274.20 324.96 405.58  274.02
  -1  -3  -7  1579.3   192.4   1-0.34887 0.22116-0.90067 0.60236 0.25902-0.76698  0 461.60 362.67  139.82 461.59 362.55  139.63
  -1  -3  -7  1513.2   163.5   2-0.02066-0.10691-0.97501 0.67650 0.22122-0.72865  0 464.45 357.99   97.55 464.58 357.88   97.46
  -1  -3  -7  1855.2   208.2   2 0.02592-0.15348 0.65896-0.95752-0.75173 0.24413  0 263.32  99.10  241.99 263.37  99.14  241.89
  -1  -3   7  1189.9   136.0   1-0.63145 0.50374-0.73892 0.44062-0.23508 0.74304  0 161.87 195.96  105.11 161.87 196.08  105.22
  -1  -3   7  1625.7   167.3   2 0.05265-0.18022-0.97740 0.67875-0.20474 0.71191  0 219.23 122.13  122.42 219.20 122.34  122.48
  -1  -3   7  1573.7   172.5   2-0.22436 0.09686 0.67821-0.97663 0.69978-0.19189  0 422.14 398.55  337.26 422.26 398.36  337.00
  -1   3  -7  1035.7   158.4   1-0.69648 0.56884-0.52400 0.82225-0.49025-0.01808  0 497.50 277.00   85.78 497.55 277.03   85.64
  -1   3  -7  1577.6   170.0   2 0.12225-0.24982-0.63574 0.93421-0.76216 0.25462  0 454.56 369.85  160.75 454.57 369.89  160.86
  -1   3  -7  1649.0   165.4   2-0.16671 0.03921 0.95500-0.65658 0.24534-0.75324  0 251.24 104.13  305.70 250.99 104.11  305.80
  -1   3   7  1819.7   173.8   2-0.12943 0.00186-0.67781 0.97632 0.72376-0.21633  0 209.70 129.81   63.01 209.61 129.87   62.90
  -1   3   7  1513.1   175.0   2-0.08561-0.04191 0.96852-0.66990-0.23375 0.74127  0 410.07 405.46  277.68 410.11 405.42  277.64
   1  -3  -7 994.624  93.610   1-0.21870 0.34633 0.60376-0.90191-0.76658 0.25809  0 221.05 394.88    7.76 220.96 394.77    7.95
   1  -3  -7  1399.3   134.4   1-0.50932 0.63703-0.86036 0.56205 0.01958-0.52754  0 391.05 414.84  122.76 391.18 414.64  122.89
   1  -3  -7  1830.6   178.5   2-0.01901 0.14657-0.97699 0.67848 0.21242-0.71984  0 399.23 410.81   98.07 399.44 410.76   97.98
   1  -3  -7  1796.1   176.0   2 0.02400 0.10355 0.66751-0.96607-0.74422 0.23661  0 202.26 136.56  242.57 202.12 136.63  242.55
   1  -3   7  1184.9   131.1   1-0.52590 0.65361-0.85049 0.55219-0.00962 0.51758  0 150.55 243.31  120.85 150.44 243.37  120.89
   1  -3   7  1696.7   160.0   2 0.05638 0.07119-0.97182 0.67317-0.22887 0.73605  0 172.87 172.85  124.14 172.84 172.97  123.91
   1  -3   7  1420.3   162.1   2-0.23019 0.35769 0.59871-0.89712 0.76718-0.25928  0 345.97 426.56  343.28 346.10 426.50  343.03
   1   3  -7 960.700 145.774   1-0.68307 0.81071-0.26077 0.55903-0.68221 0.17388  0 478.38 337.63   66.76 478.34 337.60   66.90
   1   3  -7  1421.5   173.2   2 0.11920 0.00838-0.67734 0.97582-0.72595 0.21840  0 386.25 416.14  157.59 386.31 416.17  157.69
   1   3  -7  1518.4   164.0   2-0.15593 0.28343 0.97224-0.67382 0.17448-0.68237  0 193.95 145.04  301.67 193.81 145.03  301.54
   1   3   7  1630.4   152.5   2-0.13951 0.26708-0.63051 0.92902 0.76354-0.25612  0 166.75 183.94   58.96 166.81 184.00   59.31
   1   3   7  1644.4   198.0   2-0.09313 0.22065 0.97665-0.67803-0.19362 0.70114  0 331.73 427.67  280.23 331.71 427.52  280.02
  -1  -3  -8 -50.015 141.228   1-0.41414 0.28643-0.89426 0.59595 0.16968-0.75020  0 485.69 383.35  133.46 485.89 383.84  133.27
  -1  -3  -8  -2.126 142.286   2-0.00369-0.12387-0.99140 0.69275 0.13083-0.71046  0 489.74 377.67  103.16 489.81 377.84  102.84
  -1  -3  -8  47.998 114.086   2 0.02159-0.14914 0.67810-0.97667-0.73465 0.15453  0 254.87  77.63  243.61 255.10  77.90  243.38
  -1  -3   8  15.480  83.212   1-0.59825 0.47054-0.78624 0.48793-0.15468 0.73520  0 146.53 183.48  110.55 146.25 183.16  110.89
  -1  -3   8   0.131 106.036   2 0.03952-0.16709-0.99180 0.69315-0.12153 0.70116  0 203.81 107.02  118.10 203.91 107.36  117.59
  -1  -3   8 143.123 162.150   2-0.22315 0.09565 0.69125-0.98966 0.68730-0.10685  0 436.63 424.77  335.58 436.61 424.79  335.96
  -1   3  -8  33.394 150.547   2 0.12086-0.24843-0.65602 0.95450-0.74500 0.16495  0 479.28 390.42  159.48 478.97 390.42  159.33
  -1   3  -8 -50.030  98.158   2-0.15272 0.02522 0.97613-0.67771 0.15445-0.73489  0 242.26  83.63  300.45 242.36  83.44  300.36
  -1   3   8 -42.773 100.232   2-0.12580-0.00177-0.69301 0.99152 0.70987-0.12995  0 194.19 115.64   64.37 194.26 115.53   64.09
  -1   3   8-165.594 153.185   2-0.10137-0.02615 0.98379-0.68518-0.14789 0.72791  0 423.38 431.56  282.55 423.36 431.69  282.72
   1  -3  -8  37.652  61.148   1-0.18462 0.31225 0.63700-0.93516-0.74843 0.16729  0 207.53 411.59    5.39 207.52 411.42    5.03
   1  -3  -8   4.945 101.846   1-0.56450 0.69221-0.82123 0.52292-0.08314-0.49738  0 409.48 438.44  115.60 409.47 438.17  115.85
   1  -3  -8   0.354 148.792   2-0.00343 0.13099-0.99159 0.69294 0.12936-0.70899  0 419.17 433.44  103.11 419.24 433.29  102.93
   1  -3  -8  11.049 107.010   2 0.02019 0.10736 0.68448-0.98305-0.72875 0.14862  0 191.45 118.10  243.42 191.74 117.97  243.91
   1  -3   8  68.126  90.650   1-0.49498 0.62269-0.86779 0.56949 0.04392 0.53661  0 132.60 232.32  124.52 132.57 232.32  124.56
   1  -3   8 -16.086  91.134   2 0.04214 0.08543-0.98949 0.69084-0.13831 0.71794  0 156.42 161.08  118.53 156.97 161.01  118.57
   1  -3   8 -94.087 144.284   2-0.22888 0.35638 0.62039-0.91880 0.75016-0.16971  0 355.05 452.43  341.51 354.58 452.17  341.44
   1   3  -8  56.423 164.634   1-0.68576 0.81340-0.27604 0.57430-0.67345 0.09250  2 503.96 357.32   67.43 505.34 357.52   67.92
   1   3  -8 -26.048 157.777   2 0.11778 0.00979-0.69280 0.99128-0.71144 0.13140  0 405.04 439.23  156.51 405.42 439.30  156.48
   1   3  -8 -92.529 104.186   2-0.14317 0.27069 0.98514-0.68653 0.09482-0.67484  0 183.20 126.33  296.56 183.06 126.60  296.89
   1   3   8  -5.075  92.958   2-0.13518 0.26275-0.65193 0.95044 0.74613-0.16622  0 150.76 172.58   61.17 150.72 172.40   60.91
   1   3   8  -9.739 139.535   2-0.10934 0.23686 0.98855-0.68993-0.10401 0.68403  0 339.54 452.86  285.06 339.39 453.08  285.29
  -1  -3  -9 385.542 142.491   2 0.01940-0.14695 0.68789-0.98645-0.72556 0.07292  0 245.76  53.19  243.92 245.80  53.59  244.18
  -1  -3   9 168.160 111.901   1-0.56233 0.43462-0.82315 0.52484-0.07879 0.73188  0 128.81 168.67  116.36 128.78 168.72  116.15
  -1  -3   9 177.068 132.357   2 0.02703-0.15459-0.99861 0.69997-0.04516 0.69724  0 186.93  90.28  113.54 186.84  90.45  113.13
  -1  -3   9 298.517 215.557   2-0.22264 0.09514 0.69663-0.99504 0.68201-0.02901  0 453.50 455.84  335.53 453.72 456.02  335.52
  -1   3  -9 239.886 135.493   2-0.13948 0.01196 0.98759-0.68897 0.07217-0.72469  0 232.74  59.52  295.52 232.69  59.79  295.56
  -1   3   9 185.573 130.660   2-0.12411-0.00346-0.70020 0.99871 0.70308-0.05067  0 176.62  99.07   64.32 177.04  99.35   64.67
  -1   3   9 369.099 212.888   2-0.11547-0.01205 0.99091-0.69229-0.06900 0.72152  0 438.94 462.75  287.48 439.09 462.73  287.32
   1  -3  -9 276.571  78.808   1-0.16610 0.29373 0.65402-0.95217-0.73802 0.08424  0 192.77 430.77    3.52 192.70 430.59    3.47
   1  -3  -9 203.869 135.803   1-0.60504 0.73274-0.77779 0.47949-0.17020-0.48289  0 430.59 467.15  109.51 430.67 466.50  109.81
   1  -3  -9 167.321 201.321   2 0.01034 0.11723-0.99857 0.69992 0.05245-0.70453  0 442.95 460.71  107.51 442.80 460.52  107.44
   1  -3  -9 195.568 139.473   2 0.01817 0.10939 0.69311-0.99167-0.72060 0.06797  0 179.82  96.65  244.45 179.77  96.93  244.60
   1  -3   9 191.519 110.612   1-0.46344 0.59115-0.88098 0.58267 0.09538 0.55770  0 112.78 220.09  127.90 112.84 220.29  128.10
   1  -3   9 172.763 124.759   2 0.02881 0.09876-0.99803 0.69938-0.05581 0.70790  0 139.30 147.71  113.63 138.99 147.72  113.75
   1  -3   9 285.300 193.493   2-0.22809 0.35559 0.63212-0.93054 0.74054-0.08753  0 364.24 482.43  340.58 364.30 482.46  340.57
   1   3  -9 284.944 205.595   2 0.11711 0.01046-0.70013 0.99860-0.70435 0.05180  0 427.80 467.14  156.00 427.90 467.03  155.89
   1   3  -9 180.891 133.149   2-0.13077 0.25829 0.99119-0.69257 0.02100-0.67352  0 170.50 105.97  292.65 170.62 105.97  292.56
   1   3   9 206.889 120.858   2-0.13265 0.26022-0.66338 0.96189 0.73643-0.08403  0 132.84 159.95   62.18 132.52 159.59   61.78
   1   3   9 256.596 180.265   2-0.12328 0.25080 0.99211-0.69349-0.02289 0.67540  0 347.99 483.00  290.53 348.09 483.19  290.01
  -1  -3 -10  2989.1   275.7   2 0.01874-0.14630 0.69067-0.98924-0.72292-0.00223  0 235.37  24.92  244.18 235.21  25.34  244.40
  -1  -3  10  2212.8   235.9   1-0.52440 0.39669-0.85144 0.55313-0.00693 0.73258  0 109.16 152.00  121.06 109.02 152.24  121.07
  -1  -3  10  3356.2   289.8   2 0.01504-0.14260-0.99956 0.70091 0.02569 0.69885  0 167.57  71.10  109.29 167.51  71.17  109.01
  -1  -3  10  2332.9   320.9   2-0.22269 0.09519 0.69611-0.99453 0.68252 0.04304  0 474.13 493.70  335.58 474.49 493.66  335.57
  -1   3 -10  2421.6   274.5   2-0.12649-0.00103 0.99196-0.69334-0.00441-0.72061  0 221.38  32.24  290.95 221.48  32.39  291.08
  -1   3  10  3349.0   281.7   2-0.12387-0.00370-0.70122 0.99973 0.70210 0.02280  0 157.60  80.86   64.67 157.48  80.91   64.75
  -1   3  10  2400.5   318.7   2-0.12795 0.00043 0.99177-0.69315 0.00423 0.72079  0 458.13 500.23  291.62 458.18 500.26  291.59
   1  -3 -10  2138.8   161.8   1-0.15993 0.28756 0.65958-0.95773-0.73443 0.00801  0 176.43 453.13    3.00 176.41 453.14    2.95
   1  -3 -10  2263.7   278.1   1-0.63573 0.76344-0.73148 0.43317-0.24656-0.47909  2 455.35 501.32  104.60 455.52 501.56  104.39
   1  -3 -10  2968.1   323.8   2 0.02256 0.10500-0.99956 0.70092-0.01906-0.70547  0 471.29 494.16  112.12 471.38 493.93  111.61
   1  -3 -10  3132.2   288.5   2 0.01764 0.10992 0.69535-0.99392-0.71845-0.00670  0 165.92  72.85  244.62 165.83  72.86  244.78
   1  -3  10  2785.9   243.3   1-0.43089 0.55860-0.89067 0.59236 0.14507 0.58058  0  90.98 206.79  131.54  90.86 206.84  131.55
   1  -3  10  3281.0   258.5   2 0.01599 0.11157-0.99967 0.70102 0.02018 0.70436  0 118.60 132.78  109.24 118.40 132.85  109.33
   1   3 -10  2987.6   325.9   2 0.11701 0.01056-0.70123 0.99971-0.70327-0.02179  0 454.91 501.02  155.98 454.99 501.00  155.80
   1   3 -10  2608.4   269.6   2-0.11916 0.24668 0.99173-0.69311-0.04771-0.67731  0 156.11  82.34  288.57 156.13  82.48  288.56
   1   3  10  3360.3   264.0   2-0.13180 0.25937-0.66723 0.96574 0.73309-0.00820  0 111.77 145.18   62.00 111.67 145.36   62.08
  -1  -3  11 552.666 163.738   1-0.48447 0.35676-0.87265 0.57434 0.06143 0.73679  0  86.55 133.15  125.60  86.40 132.95  125.76
  -1  -3  11 880.836 218.387   2 0.00329-0.13086-0.99575 0.69710 0.09206 0.70493  0 144.80  48.79  104.94 145.17  48.85  105.12
  -1   3  11 427.503 198.962   2-0.12480-0.00277-0.69729 0.99580 0.70584 0.09154  0 135.35  59.81   64.37 134.83  59.58   64.43
   1  -3 -11 479.013 125.556   1-0.16332 0.29095 0.65653-0.95469-0.73641-0.06266  0 158.36 480.86    3.46 158.34 480.36    3.23
   1  -3 -11 674.455 213.770   2 0.01831 0.10924 0.69250-0.99107-0.72118-0.07649  0 149.55  44.76  244.43 149.37  44.82  244.55
   1  -3  11 396.505 173.598   1-0.39743 0.52513-0.89702 0.59871 0.19342 0.60480  0  65.68 191.39  135.06  65.83 191.46  134.94
   1  -3  11 550.371 181.856   2 0.00349 0.12407-0.99585 0.69720 0.09093 0.70606  0  94.13 115.81  105.42  94.44 116.02  105.18
   1   3 -11 652.038 204.430   2-0.10788 0.23540 0.98781-0.68919-0.11224-0.68528  0 139.29  55.48  284.65 139.06  55.25  284.81
   1   3  11 617.445 183.691   2-0.13227 0.25983-0.66512 0.96363 0.73493 0.06246  0  87.56 129.30   62.20  87.39 129.33   61.92
  -1  -3  12  5105.8   344.4   1-0.44314 0.31543-0.88743 0.58912 0.12685 0.74393  0  60.23 109.65  130.31  59.92 109.78  130.28
  -1  -3  12  5241.6   427.9   2-0.00807-0.11950-0.98791 0.68926 0.15485 0.71459  0 119.07  22.14  101.44 118.78  22.41  101.41
  -1   3  12  6188.7   426.1   2-0.12669-0.00088-0.68918 0.98769 0.71343 0.15644  0 108.38  34.41   63.98 108.02  34.38   63.79
   1  -3 -12  6246.1   468.1   2 0.01998 0.10757 0.68540-0.98396-0.72790-0.14229  0 129.52  11.34  243.69 129.51  11.32  243.98
   1  -3  12  4885.7   346.8   1-0.36292 0.49063-0.90020 0.60189 0.24070 0.63009  0  36.83 173.19  138.33  36.66 173.36  138.31
   1  -3  12  5926.4   394.6   2-0.00854 0.13611-0.98749 0.68885 0.15743 0.71202  0  65.96  96.38  101.20  65.93  96.56  101.26
   1   3 -12  5536.7   436.7   2-0.09686 0.22438 0.98008-0.68146-0.17341-0.69661  0 118.46  22.58  281.23 118.45  22.86  281.22
   1   3  12  6003.9   384.0   2-0.13385 0.26142-0.65807 0.95658 0.74096 0.12891  0  58.56 110.70   61.39  58.53 110.97   61.38
  -1  -4   0  5952.2   170.4   1-0.61668 0.48903-0.02139-0.37629-0.78693 0.78693  0 201.77 278.11   51.35 201.76 278.01   51.44
  -1  -4   0  9049.9   210.7   2-0.20966 0.08211-0.15217-0.24570 0.96586-0.96586  0 398.16 321.14   29.04 398.48 321.14   28.92
  -1  -4   0  8668.8   205.0   2 0.12726-0.25483-0.26023-0.13774-0.95712 0.95712  0 273.66 156.15  185.28 273.88 156.22  185.36
  -1   4   0  6079.6   158.1   1-0.59773 0.47010 0.02736 0.37018-0.80123 0.80123  0 388.47 183.33   47.95 388.69 183.47   48.33
  -1   4   0  8920.4   217.0   2-0.23048 0.10293 0.14550 0.25238 0.96214-0.96214  0 259.30 162.09   11.98 259.48 162.20   11.75
  -1   4   0  9629.4   221.7   2 0.09208-0.21963 0.24898 0.14910-0.96412 0.96412  0 386.86 333.94  215.07 387.11 333.87  214.90
   1  -4   0  5536.4   144.5   1-0.70038 0.82803-0.44413 0.04645-0.55876 0.55876  0 222.29 323.13   79.62 222.27 323.03   79.61
   1  -4   0  8330.8   208.5   2-0.19554 0.32309-0.28207-0.11581 0.93926-0.93926  0 340.21 361.36   36.56 340.22 361.28   36.55
   1  -4   0  8903.8   205.4   2 0.12468 0.00289-0.17947-0.21851-0.97583 0.97583  0 221.64 193.21  190.04 221.56 193.17  190.12
   1   4   0  6354.2   187.5   1-0.42255 0.55018 0.35492 0.04262-0.83396 0.83396  0 416.55 233.96   26.98 416.76 234.04   26.85
   1   4   0  8703.4   198.2   2-0.23506 0.36261 0.29474 0.10314 0.92622-0.92622  0 213.39 205.63    3.10 213.27 205.64    2.93
   1   4   0  9313.4   212.2   2 0.09883 0.02872 0.18781 0.21028-0.97722 0.97722  0 323.86 364.61  211.21 323.88 364.49  211.30
  -1  -4  -1 16676.2   270.3   1-0.56411 0.43648 0.10487-0.50241-0.81901 0.74637  0 202.47 287.81   43.34 202.51 287.70   43.38
  -1  -4  -1 25424.4   329.2   2-0.18919 0.06165-0.33377-0.06410 0.92347-0.99604  0 401.79 319.78   39.72 402.13 319.82   39.67
  -1  -4  -1 22941.5   313.7   2 0.11983-0.24741-0.08423-0.31374-0.98921 0.91671  0 275.93 153.59  195.60 276.11 153.67  195.65
  -1  -4   1 16047.5   272.1   1-0.65775 0.53010-0.14964-0.24803-0.73823 0.81084  0 198.76 268.51   59.62 198.75 268.46   59.63
  -1  -4   1 24073.8   326.4   2-0.22386 0.09632 0.02347-0.42134 0.97434-0.90177  0 397.29 325.85   19.00 397.57 325.84   18.78
  -1  -4   1 24118.7   327.8   2 0.12917-0.25674-0.43022 0.03225-0.89344 0.96594  0 269.46 155.77  174.99 269.65 155.85  174.92
  -1   4  -1 16282.6   255.5   1-0.64929 0.52165-0.11961 0.51728-0.75108 0.67846  0 400.25 193.74   57.67 400.47 193.90   57.70
  -1   4  -1 22387.2   321.6   2-0.23535 0.10781 0.31805 0.07982 0.91840-0.99096  0 261.22 159.27    1.52 261.39 159.36    1.52
  -1   4  -1 25911.3   342.3   2 0.10867-0.23622 0.08041 0.31767-0.99082 0.91830  0 390.68 333.07  204.97 390.95 333.02  205.06
  -1   4   1 16982.3   235.4   1-0.50821 0.38058 0.21512 0.18242-0.83394 0.90658  0 379.83 172.51   35.86 379.75 172.65   36.25
  -1   4   1 13035.9   249.1   2-0.22061 0.09307-0.02257 0.42044 0.97510-0.90253  0 255.48 162.12   21.34 255.57 162.27   21.44
  -1   4   1 27138.7   352.0   2 0.07020-0.19775 0.41391-0.01582-0.90761 0.98012  0 385.57 338.10  225.00 385.84 338.01  224.99
   1  -4  -1 15011.9   217.0   1-0.69378 0.82143-0.33193-0.06575-0.63913 0.56651  0 229.23 333.59   71.71 229.23 333.47   71.70
   1  -4  -1 25153.6   339.5   2-0.17364 0.30119-0.44215 0.04428 0.87997-0.95254  0 344.65 362.05   46.38 344.65 361.97   46.41
   1  -4  -1 26760.9   344.2   2 0.11520 0.01235-0.00823-0.38986-0.99331 0.92079  0 222.53 189.46  199.96 222.40 189.48  199.97
   1  -4   1 14673.0   238.5   1-0.69512 0.82276-0.53646 0.13878-0.47857 0.55118  0 213.43 313.08   86.63 213.43 313.00   86.63
   1  -4   1 24191.8   330.8   2-0.21286 0.34041-0.11732-0.28055 0.97001-0.89745  0 337.90 364.03   26.99 337.90 363.93   26.90
   1  -4   1 24616.0   328.8   2 0.12902-0.00145-0.35348-0.04449-0.92650 0.99901  0 218.73 194.35  180.10 218.63 194.32  179.74
   1   4  -1 16433.0   284.0   1-0.49807 0.62570 0.23319 0.16435-0.83519 0.76255  0 420.86 245.26   35.01 421.05 245.32   35.06
   1   4  -1 24449.7   328.0   2 0.11402 0.01353 0.00858 0.38950-0.99344 0.92093  0 328.48 365.85  201.10 328.48 365.72  200.94
   1   4  -1 21099.7   299.9   2-0.23596 0.36345 0.45795-0.06024 0.85709-0.92966  0 214.01 201.51  352.61 213.97 201.53  352.57
   1   4   1 15993.2   272.1   1-0.32978 0.45740 0.48028-0.08274-0.81276 0.88540  0 415.55 222.50   17.99 415.70 222.63   17.83
   1   4   1 25256.6   323.5   2-0.22946 0.35701 0.12348 0.27440 0.96545-0.89289  0 210.69 207.18   13.00 210.60 207.18   13.03
   1   4   1 25192.5   327.2   2 0.07677 0.05079 0.37013 0.02796-0.92580 0.99832  0 321.29 366.88  222.03 321.31 366.70  222.26
  -1  -4  -2  4998.2   159.1   1-0.50483 0.37720 0.22121-0.61875-0.83439 0.68911  0 200.80 297.72   35.97 200.88 297.58   35.85
  -1  -4  -2  7507.9   203.7   2-0.16359 0.03603-0.50263 0.10462 0.84888-0.99386  0 408.27 321.74   50.31 408.59 321.77   50.37
  -1  -4  -2  7610.3   204.9   2 0.10868-0.23623 0.08026-0.47835-0.99083 0.84580  0 276.22 148.05  205.00 276.32 148.16  205.05
  -1  -4   2  4589.6   161.9   1-0.68518 0.55754-0.27260-0.12507-0.67544 0.82067  0 193.60 258.84   67.67 193.58 258.86   67.69
  -1  -4   2  6848.8   202.7   2-0.23176 0.10421 0.17733-0.57521 0.95647-0.81134  0 399.05 333.77   10.00 399.26 333.75    9.89
  -1  -4   2  6451.4   197.2   2 0.12527-0.25284-0.57945 0.18148-0.80532 0.95033  0 263.34 152.67  165.00 263.54 152.76  164.91
  -1   4  -2  4644.7   168.4   1-0.67654 0.54890-0.22714 0.62482-0.70050 0.55526  0 414.58 204.00   64.66 414.70 204.13   64.68
  -1   4  -2  7049.8   204.7   2 0.11938-0.24695-0.07657 0.47454-0.98989 0.84488  0 397.13 335.46  196.01 397.33 335.45  196.09
  -1   4  -2  6345.8   196.3   2-0.23538 0.10789 0.47896-0.08125 0.84569-0.99084  0 261.37 153.66  351.18 261.55 153.79  351.19
  -1   4   2  4791.1   135.2   1-0.37048 0.24285 0.42811-0.03057-0.82430 0.96958  0 374.07 161.05   21.70 374.01 161.19   21.68
  -1   4   2  7629.3   202.7   2-0.20769 0.08014-0.17198 0.56985 0.96296-0.81783  0 249.90 159.66   29.92 249.80 159.74   30.07
  -1   4   2  7589.7   212.1   2 0.04580-0.17335 0.56156-0.16347-0.82617 0.97120  0 386.69 345.47  234.96 386.97 345.36  234.76
   1  -4  -2  4581.1   124.3   1-0.67053 0.79817-0.20016-0.19751-0.71437 0.56913  0 233.81 344.55   62.97 233.78 344.41   62.91
   1  -4  -2  7701.3   215.3   2-0.14881 0.27637-0.58418 0.18616 0.79787-0.94285  0 351.20 365.99   56.11 351.19 365.93   55.96
   1  -4  -2  7467.2   199.4   2 0.10299 0.02457 0.14558-0.54367-0.98397 0.83894  0 221.52 183.28  209.01 221.35 183.29  208.84
   1  -4   2  4564.7   153.0   1-0.68172 0.80936-0.61140 0.21373-0.40180 0.54704  0 203.10 303.32   92.97 203.10 303.27   92.82
   1  -4   2  6961.9   204.7   2-0.22475 0.35230 0.03727-0.43515 0.97370-0.82857  0 337.57 370.05   18.05 337.58 369.96   17.99
   1  -4   2  6384.9   183.9   2 0.12780-0.00022-0.51397 0.11600-0.84824 0.99325  0 213.75 193.08  169.51 213.67 193.05  169.43
   1   4  -2  4739.7   180.9   1-0.55531 0.68293 0.12352 0.27401-0.82242 0.67714  0 428.34 256.72   42.05 428.52 256.78   42.18
   1   4  -2  6873.8   200.1   2 0.12332 0.00425-0.15106 0.54903-0.98080 0.83579  0 335.08 370.38  191.80 334.96 370.24  191.77
   1   4  -2  6100.8   179.5   2-0.23016 0.35766 0.59924-0.20135 0.76677-0.91189  0 212.60 194.96  342.96 212.46 195.01  342.99
   1   4   2  4596.3   168.3   1-0.22372 0.35135 0.59870-0.20116-0.76909 0.91438  0 417.86 210.59    8.36 418.00 210.67    8.38
   1   4   2  6972.6   183.2   2-0.21929 0.34684-0.03945 0.43732 0.97486-0.82973  0 205.84 206.19   22.32 205.75 206.19   22.41
   1   4   2  7287.0   200.5   2 0.05029 0.07727 0.53665-0.13857-0.84230 0.98733  0 320.69 372.62  233.00 320.71 372.40  233.04
  -1  -4  -3  1974.5   117.3   1-0.44446 0.31683 0.32196-0.71950-0.83594 0.61802  0 196.86 308.00   29.06 196.93 307.84   29.12
  -1  -4  -3  2956.4   158.6   2-0.13654 0.00897-0.64562 0.24761 0.75135-0.96882  0 417.62 326.82   60.42 417.91 326.88   60.43
  -1  -4  -3  3056.2   159.6   2 0.09530-0.22285 0.22097-0.61905-0.97061 0.75307  0 274.72 139.67  212.99 274.80 139.83  213.24
  -1  -4   3  1934.7   123.9   1-0.69860 0.57095-0.38512-0.01255-0.60303 0.82089  0 186.57 249.13   75.06 186.44 249.14   75.39
  -1  -4   3  2695.0   163.2   2-0.23513 0.10759 0.30194-0.69981 0.92388-0.70618  0 403.10 344.73    2.52 403.26 344.65    2.49
  -1  -4   3  1584.7   134.2   2 0.11704-0.24461-0.70094 0.30296-0.70356 0.92107  0 255.57 147.29  155.74 255.72 147.28  155.83
  -1   4  -3  1963.3   145.0   1-0.68983 0.56219-0.30270 0.70037-0.65765 0.43979  0 431.25 214.42   69.95 431.41 214.46   69.71
  -1   4  -3  2972.7   164.8   2 0.12584-0.25342-0.21064 0.60861-0.96943 0.75191  0 406.27 340.97  188.20 406.40 341.00  188.29
  -1   4  -3  2640.1   159.0   2-0.22915 0.10165 0.61724-0.21935 0.75267-0.97034  0 259.59 145.47  341.69 259.70 145.55  341.68
  -1   4   3  1931.3   109.3   1-0.19218 0.06456 0.62984-0.23230-0.75257 0.97050  0 371.94 148.51    5.84 371.88 148.59    5.67
  -1   4   3  3334.0   154.9   2-0.19396 0.06641-0.29513 0.69301 0.93556-0.71787  0 242.34 154.83   37.29 242.29 154.90   37.34
  -1   4   3  3646.9   182.2   2 0.02032-0.14787 0.68395-0.28586-0.72925 0.94679  0 390.04 355.93  244.02 390.26 355.77  243.86
   1  -4  -3  2037.6    91.8   1-0.62903 0.75667-0.05614-0.34154-0.77535 0.55750  0 235.52 356.04   53.74 235.45 355.94   53.64
   1  -4  -3  3263.3   174.1   2-0.12373 0.25130-0.70182 0.30381 0.70153-0.91899  0 359.77 373.04   65.10 359.80 372.94   64.80
   1  -4  -3  3119.0   150.3   2 0.08928 0.03828 0.27312-0.67121-0.95783 0.74028  0 218.67 174.82  216.20 218.53 174.85  216.34
   1  -4   3  2000.0   124.4   1-0.66315 0.79079-0.67220 0.27453-0.32922 0.54707  0 191.54 293.81   98.17 191.50 293.70   98.34
   1  -4   3  2941.4   164.6   2-0.23150 0.35905 0.17086-0.56873 0.95771-0.74002  0 339.10 379.37   10.20 339.11 379.22   10.27
   1  -4   3  2891.0   143.5   2 0.12127 0.00631-0.65002 0.25205-0.75017 0.96769  0 206.85 189.59  160.01 206.78 189.54  159.78
   1   4  -3  1846.4   148.8   1-0.59635 0.72398 0.03073 0.36681-0.80213 0.58421  0 438.92 268.51   48.09 439.13 268.63   48.11
   1   4  -3  2939.1   167.7   2 0.12781-0.00023-0.28183 0.67980-0.95091 0.73340  0 343.59 378.03  183.99 343.49 377.92  184.07
   1   4  -3  2390.3   137.5   2-0.22089 0.34839 0.71347-0.31558 0.66496-0.88263  0 209.36 186.21  333.99 209.19 186.31  334.14
   1   4   3  3036.5   141.5   2-0.20680 0.33435-0.18086 0.57874 0.96152-0.74383  0 198.92 202.92   30.57 198.87 202.94   30.59
   1   4   3  3220.9   165.8   2 0.02233 0.10522 0.67486-0.27677-0.73761 0.95516  0 321.87 381.60  242.98 321.86 381.45  243.13
  -1  -4  -4  1971.1   124.4   1-0.38783 0.26020 0.40445-0.80199-0.82826 0.53769  0 190.83 318.72   23.36 190.84 318.57   23.37
  -1  -4  -4  3253.6   173.2   1 0.00517-0.13288-0.78162 0.38393 0.62373-0.91375  0 433.11 331.18  169.92 433.22 331.00  169.88
  -1  -4  -4  3134.7   174.7   2-0.10942-0.01815-0.75824 0.36022 0.64273-0.93269  0 429.88 334.95   69.56 430.10 334.91   69.55
  -1  -4  -4  3431.2   180.7   2 0.08179-0.20935 0.33308-0.73117-0.93934 0.64928  0 271.68 128.73  220.00 271.74 128.85  219.98
  -1  -4   4  2096.9   137.2   1-0.69948 0.57184-0.48457 0.08690-0.52528 0.81575  0 177.44 239.19   82.60 177.46 239.18   82.63
  -1  -4   4  3043.7   157.7   2 0.10595-0.23352-0.79432 0.39612-0.59819 0.88801  0 246.53 139.60  147.69 246.37 139.65  147.69
  -1  -4   4  2944.5   189.0   2-0.23681 0.10931 0.39769-0.79540 0.88643-0.59614  0 409.07 358.71  356.45 409.23 358.63  356.42
  -1   4  -4  2109.4   161.3   1-0.69613 0.56849-0.35417 0.75184-0.62447 0.33400  0 450.49 225.16   73.15 450.69 225.16   73.23
  -1   4  -4  3303.4   188.1   2 0.12850-0.25607-0.31820 0.71617-0.93927 0.64925  0 417.98 349.43  181.70 418.12 349.46  181.88
  -1   4  -4  2387.0   167.6   2-0.21926 0.09176 0.72842-0.33053 0.64910-0.93932  0 256.41 134.76  333.02 256.34 134.82  332.89
  -1   4   4  3371.0   166.4   2-0.18122 0.05367-0.39111 0.78898 0.90233-0.61207  0 233.26 147.90   43.24 233.18 147.99   43.18
  -1   4   4  3043.9   192.4   2-0.00424-0.12328 0.77976-0.38161-0.62606 0.91607  0 395.22 369.17  251.98 395.49 369.09  252.06
   1  -4  -4  2052.7    94.9   1-0.57236 0.69999 0.08679-0.48433-0.81540 0.52483  0 234.10 368.42   44.65 234.04 368.24   44.53
   1  -4  -4  3372.7   132.5   1 0.00888 0.11883-0.77925 0.38155 0.62665-0.91668  0 374.87 381.27  170.07 374.77 381.13  170.18
   1  -4  -4  3150.8   185.2   2-0.09931 0.22687-0.79391 0.39590 0.59987-0.88983  0 370.43 383.02   73.06 370.43 382.89   72.79
   1  -4  -4  3334.0   166.6   2 0.07636 0.05120 0.37306-0.77114-0.92466 0.63460  0 214.26 164.19  222.43 214.12 164.29  222.44
   1  -4   4  2330.6   140.4   1-0.64102 0.76873-0.72172 0.32397-0.26119 0.55145  0 178.78 284.19  103.06 178.78 284.24  103.34
   1  -4   4  2945.2   181.1   2-0.23484 0.36239 0.27879-0.67667 0.93120-0.64094  0 342.28 391.71    3.94 342.22 391.57    3.89
   1  -4   4  3003.0   154.5   2 0.11089 0.01668-0.75799 0.36002-0.64277 0.93280  0 198.04 184.02  151.25 198.09 184.04  151.04
   1   4  -4  1856.5   161.3   1-0.62463 0.75227-0.04362 0.44130-0.77970 0.48922  0 452.79 281.19   52.87 452.87 281.25   52.85
   1   4  -4  2988.0   184.7   2 0.12934-0.00177-0.38293 0.78090-0.91468 0.62465  0 353.99 388.66  177.80 353.89 388.53  177.91
   1   4  -4  2558.8   148.0   2-0.20947 0.33697 0.80120-0.40332 0.56053-0.85076  0 204.44 175.46  326.06 204.32 175.62  326.26
   1   4   4  3093.1   148.7   2-0.19397 0.32152-0.29509 0.69296 0.93557-0.64531  0 190.19 197.69   37.17 190.12 197.72   37.33
   1   4   4  2972.4   174.0   2-0.00467 0.13219 0.78126-0.38310-0.62419 0.91420  0 324.45 393.89  251.97 324.51 393.67  252.20
  -1  -4  -5  96.171  65.081   1-0.33901 0.21138 0.46886-0.86639-0.81563 0.45242  0 182.60 330.22   18.62 182.70 329.98   18.69
  -1  -4  -5 116.572 100.858   1-0.09935-0.02836-0.83956 0.44186 0.53410-0.89663  0 445.95 346.47  161.44 445.44 346.27  161.32
  -1  -4  -5 169.279 105.274   2-0.08416-0.04341-0.84231 0.44430 0.53238-0.89483  0 445.46 345.71   77.56 445.30 345.85   77.62
  -1  -4  -5 158.350 101.557   2 0.06957-0.19713 0.41807-0.81615-0.90575 0.54317  0 267.10 115.06  225.00 267.32 115.37  225.26
  -1  -4   5 158.375  76.508   1-0.69026 0.56262-0.57021 0.17254-0.44542 0.80851  0 166.75 228.59   89.49 166.79 228.82   89.35
  -1  -4   5  74.271  80.807   2 0.09344-0.22101-0.86414 0.46594-0.49450 0.85677  0 235.49 130.27  141.10 235.64 130.21  140.51
  -1  -4   5 110.899 105.490   2-0.23564 0.10814 0.46788-0.86559 0.85180-0.48893  0 417.73 375.30  352.05 417.32 375.28  351.92
  -1   4  -5 125.009 109.125   1-0.69874 0.57110-0.38797 0.78564-0.60104 0.23794  0 472.77 236.46   75.47 472.89 236.49   75.59
  -1   4  -5 132.084 107.086   2 0.12944-0.25701-0.40034 0.79831-0.90718 0.54465  0 432.58 360.86  176.89 432.63 360.82  176.82
  -1   4  -5  95.527  75.931   2-0.20742 0.07992 0.81357-0.41569 0.54321-0.90599  0 251.43 121.75  324.99 251.61 121.77  325.02
  -1   4   5 200.221  88.700   2-0.17039 0.04285-0.46301 0.86088 0.86982-0.50700  0 222.32 139.45   48.11 222.59 139.22   47.76
  -1   4   5  65.921 110.903   2-0.02731-0.10021 0.85192-0.45376-0.52296 0.88547  0 402.78 385.52  259.33 402.65 385.39  259.39
   1  -4  -5  86.471  46.143   1-0.50933 0.63696 0.21308-0.61061-0.83377 0.47057  0 229.55 381.47   36.50 229.58 381.47   36.38
   1  -4  -5 189.528  73.586   1-0.16450 0.29220-0.86670 0.46900 0.47093-0.83346  0 380.31 397.51  155.52 380.41 397.13  155.89
   1  -4  -5  59.809 108.567   2-0.07668 0.20425-0.86331 0.46529 0.49882-0.86127  0 383.18 396.07   79.90 383.14 395.79   79.93
   1  -4  -5 113.582  79.565   2 0.06497 0.06259 0.44824-0.84633-0.89155 0.52897  0 208.27 151.84  227.46 208.23 151.79  227.19
   1  -4   5  71.254  68.600   1-0.61633 0.74404-0.76245 0.36471-0.19699 0.55982  0 165.07 274.49  107.53 164.89 274.62  107.92
   1  -4   5 173.509  77.789   2 0.09845 0.02912-0.83927 0.44107-0.53473 0.89700  0 187.91 176.86  143.59 187.65 176.86  143.23
   1  -4   5  59.183 106.669   2-0.23686 0.36435 0.36188-0.75959 0.90163-0.53877  0 346.51 407.27  358.60 346.59 407.12  358.65
   1   4  -5  83.336 109.012   1-0.64367 0.77131-0.10096 0.49864-0.75861 0.39552  0 469.66 295.21   56.46 469.89 294.96   56.50
   1   4  -5 103.751 105.395   2 0.12877-0.00120-0.45798 0.85595-0.87959 0.51706  0 366.29 401.70  172.92 366.21 402.01  173.13
   1   4  -5 105.175  78.514   2-0.19683 0.32433 0.86635-0.46846 0.45902-0.82180  0 197.88 163.32  319.39 197.98 163.10  319.27
   1   4   5  79.479  73.539   2-0.18241 0.30996-0.38264 0.78051 0.90571-0.54289  0 179.39 190.83   42.32 179.58 190.83   42.66
   1   4   5 166.774 104.811   2-0.02992 0.15744 0.85918-0.46102-0.51080 0.87331  0 328.52 409.30  260.40 328.45 409.04  260.21
  -1  -4  -6  8635.6   240.9   1-0.29896 0.17133 0.51710-0.91464-0.80201 0.36616  0 172.60 342.45   14.99 172.65 342.32   15.01
  -1  -4  -6 12364.4   303.8   1-0.19408 0.06638-0.87662 0.47892 0.44031-0.87535  0 461.10 363.82  153.36 461.12 363.59  153.39
  -1  -4  -6 13647.2   336.3   2-0.06118-0.06638-0.90276 0.50474 0.42578-0.86071  0 463.54 359.65   85.09 463.75 359.60   84.75
  -1  -4  -6 13547.1   333.2   2 0.05993-0.18748 0.48008-0.87817-0.87517 0.44008  0 261.60  99.25  229.09 261.69  99.44  229.26
  -1  -4   6  8961.5   258.5   1-0.67314 0.54550-0.64272 0.24505-0.36578 0.80149  0 154.51 217.80   95.57 154.49 217.85   95.60
  -1  -4   6 12293.1   307.7   2 0.08024-0.20780-0.91477 0.51658-0.39592 0.83064  0 223.60 118.91  134.04 223.52 118.99  134.14
  -1  -4   6 10502.9   320.5   2-0.23404 0.10654 0.51779-0.91568 0.82287-0.38753  0 427.32 395.17  348.71 427.62 395.05  348.67
  -1   4  -6  8441.5   295.1   1-0.69978 0.57214-0.40860 0.80628-0.58596 0.15025  0 498.52 248.74   77.06 498.61 248.79   77.05
  -1   4  -6 12848.3   337.4   2 0.12873-0.25630-0.46120 0.85917-0.87791 0.44287  0 449.99 375.05  172.99 450.18 375.08  172.92
  -1   4  -6 10616.8   289.0   2-0.19428 0.06678 0.87672-0.47883 0.44003-0.87536  0 245.89 106.14  318.22 245.64 106.35  318.02
  -1   4   6 13566.4   325.2   2-0.16153 0.03396-0.51477 0.91278 0.84198-0.40704  0 210.60 128.69   51.05 210.54 128.80   51.18
  -1   4   6 13140.2   350.5   2-0.04833-0.07919 0.90453-0.50637-0.42366 0.85867  0 411.60 405.06  265.93 411.72 404.86  265.94
   1  -4  -6  8383.3   178.0   1-0.44923 0.57686 0.31444-0.71198-0.83625 0.40040  0 222.47 396.24   29.75 222.42 396.00   29.63
   1  -4  -6 12302.9   229.9   1-0.30582 0.43353-0.89901 0.50126 0.31347-0.74886  0 389.42 415.83  143.86 389.58 415.60  143.62
   1  -4  -6 13848.5   353.5   2-0.05623 0.18380-0.91405 0.51604 0.40168-0.83661  0 397.90 411.85   86.20 398.18 411.72   86.30
   1  -4  -6 13476.2   325.9   2 0.05613 0.07142 0.50323-0.90131-0.86233 0.42724  0 201.06 137.28  230.94 200.94 137.37  230.79
   1  -4   6  9404.9   269.5   1-0.58979 0.71750-0.79601 0.39827-0.13608 0.57148  0 149.68 264.70  112.02 149.71 264.75  112.19
   1  -4   6 12373.1   301.1   2 0.08479 0.04278-0.89892 0.50072-0.42983 0.86455  0 175.58 168.11  135.97 175.55 168.12  136.29
   1  -4   6 11132.2   319.4   2-0.23650 0.36400 0.42380-0.82151 0.87434-0.43890  0 352.48 426.12  354.78 352.42 425.84  354.77
   1   4  -6  7486.8   275.7   1-0.65602 0.78366-0.14331 0.54099-0.74101 0.30530  0 490.32 310.13   59.18 490.55 310.21   59.22
   1   4  -6 12174.8   336.8   2 0.12775-0.00017-0.51217 0.91014-0.84933 0.41429  0 380.69 418.66  169.62 380.56 418.54  169.57
   1   4  -6 10938.0   297.4   2-0.18382 0.31132 0.91351-0.51562 0.36292-0.79826  0 190.32 148.70  313.26 190.18 148.80  313.06
   1   4   6 13084.4   304.0   2-0.17293 0.30048-0.44724 0.84512 0.87754-0.44215  0 167.34 182.44   47.03 167.29 182.46   46.74
   1   4   6 12395.9   320.8   2-0.05266 0.18017 0.91386-0.51570-0.40260 0.83761  0 333.63 427.95  267.22 333.55 427.69  267.28
  -1  -4  -7  3064.0   172.1   1-0.26843 0.14080 0.55174-0.94928-0.78964 0.28114  0 160.71 355.96   12.22 160.74 355.84   12.28
  -1  -4  -7  4534.5   272.7   1-0.27896 0.15125-0.89586 0.49811 0.34586-0.85382  0 480.52 383.88  146.02 480.53 383.76  146.03
  -1  -4  -7  5450.0   289.8   2-0.04081-0.08675-0.94469 0.54668 0.32541-0.83284  0 485.79 376.53   90.98 486.02 376.52   91.11
  -1  -4  -7  4626.6   249.0   2 0.05252-0.18007 0.52402-0.92211-0.85008 0.34248  0 255.00  80.56  231.97 254.96  80.92  232.19
  -1  -4   7  3602.5   200.0   1-0.65036 0.52265-0.70286 0.30512-0.28812 0.79608  0 140.49 206.04  101.34 140.46 206.15  101.38
  -1  -4   7  4861.1   236.2   2 0.06731-0.19488-0.95049 0.55229-0.30338 0.81055  0 210.03 105.92  128.30 209.88 105.97  128.41
  -1  -4   7  4019.6   290.6   2-0.23264 0.10514 0.55261-0.95049 0.80032-0.29242  0 439.73 418.35  346.26 440.06 418.30  346.29
  -1   4  -7  4603.0   296.6   2 0.12794-0.25552-0.50472 0.90269-0.85375 0.34621  0 471.08 392.56  169.99 471.29 392.61  170.06
  -1   4  -7  4198.5   231.5   2-0.18092 0.05342 0.92212-0.52423 0.34201-0.84990  0 238.63  88.37  311.69 238.43  88.44  311.74
  -1   4   7  5313.9   252.1   2-0.15494 0.02738-0.55163 0.94964 0.81957-0.31215  0 196.94 116.44   53.70 196.90 116.59   53.68
  -1   4   7  4470.4   291.4   2-0.06717-0.06034 0.94169-0.54353-0.32970 0.83721  0 422.73 428.07  271.74 422.79 427.86  271.82
   1  -4  -7  3300.5   139.4   1-0.39845 0.52608 0.38966-0.78720-0.83030 0.32181  0 213.14 412.36   24.44 213.09 412.14   24.42
   1  -4  -7  4283.9   191.7   1-0.41350 0.54121-0.89438 0.49663 0.17061-0.67856  0 401.88 437.34  133.50 401.99 437.23  133.33
   1  -4  -7  5279.9   301.4   2-0.03776 0.16533-0.95004 0.55202 0.30985-0.81727  0 415.58 431.22   91.96 415.85 431.14   92.07
   1  -4  -7  5404.9   252.9   2 0.04928 0.07828 0.54223-0.94032-0.83878 0.33118  0 192.35 120.80  233.42 192.22 120.91  233.43
   1  -4   7  3846.9   208.9   1-0.56186 0.68957-0.82356 0.42582-0.07785 0.58581  0 133.00 254.41  116.10 133.13 254.43  116.21
   1  -4   7  4843.0   228.8   2 0.07107 0.05649-0.94104 0.54284-0.33076 0.83794  0 161.68 157.97  130.21 161.62 157.98  130.09
   1  -4   7  4297.6   276.0   2-0.23563 0.36312 0.46840-0.86611 0.85152-0.34351  0 359.53 448.44  352.03 359.53 448.12  351.88
   1   4  -7  4589.6   296.6   2 0.12660 0.00097-0.55017 0.94814-0.82540 0.31786  0 397.18 438.66  166.98 397.29 438.54  166.96
   1   4  -7  3854.3   222.5   2-0.17084 0.29834 0.94673-0.54884 0.27298-0.78087  0 181.04 132.49  307.59 180.91 132.60  307.47
   1   4   7  4829.3   225.8   2-0.16519 0.29276-0.49310 0.89111 0.85415-0.34672  0 153.17 172.74   50.17 153.19 172.83   49.74
   1   4   7  4578.3   265.9   2-0.07269 0.20021 0.95066-0.55250-0.30159 0.80911  0 339.78 450.05  273.55 339.71 449.84  273.54
  -1  -4  -8 756.830 117.191   1-0.24655 0.11892 0.57526-0.97280-0.77993 0.19879  0 146.87 371.06   10.30 146.87 370.99   10.35
  -1  -4  -8  1218.3   199.5   1-0.35265 0.22494-0.90061 0.50286 0.25406-0.83459  2 503.68 407.31  139.33 504.42 407.60  139.28
  -1  -4  -8  1284.6   172.9   2 0.04712-0.17467 0.55399-0.95208-0.83119 0.25106  0 247.23  59.03  233.93 247.10  59.42  234.24
  -1  -4   8  1089.4   145.6   1-0.62257 0.49486-0.75318 0.35543-0.21243 0.79296  0 124.83 193.06  106.67 124.57 193.24  106.83
  -1  -4   8  1362.4   177.7   2 0.05454-0.18211-0.97466 0.57646-0.21694 0.79657  0 194.71  91.02  123.34 194.56  91.01  123.20
  -1  -4   8  1076.8   225.2   2-0.23157 0.10407 0.57557-0.97346 0.78428-0.20383  0 454.87 445.86  344.66 455.09 445.88  344.68
  -1   4  -8  1223.4   215.4   2 0.12716-0.25473-0.53471 0.93269-0.83541 0.25536  0 496.63 414.06  168.30 496.85 414.06  168.02
  -1   4  -8  1290.0   169.9   2-0.16739 0.03989 0.95369-0.55581 0.24991-0.83035  0 230.07  67.43  305.96 229.96  67.69  306.07
  -1   4   8  1145.1   165.8   2-0.15028 0.02271-0.57648 0.97450 0.80317-0.22326  0 181.51 102.42   55.29 181.46 102.53   55.42
  -1   4   8  1329.9   223.8   2-0.08416-0.04336 0.96676-0.56860-0.24146 0.82147  0 436.18 455.09  277.00 436.22 455.22  277.18
   1  -4  -8 987.899 121.457   1-0.36029 0.48792 0.44154-0.83908-0.82173 0.24059  0 201.89 430.55   20.64 201.88 430.52   20.70
   1  -4  -8 -69.373 104.189   1-0.49392 0.62163-0.86830 0.47056 0.04569-0.62622  0 417.55 463.40  124.71 417.61 463.00  124.68
   1  -4  -8  1343.6   228.2   2-0.02110 0.14867-0.97446 0.57644 0.22358-0.80350  0 436.62 454.84   97.31 436.84 454.78   97.31
   1  -4  -8  1437.6   179.6   2 0.04442 0.08313 0.56884-0.96693-0.82125 0.24112  0 182.02 102.08  235.23 181.93 102.16  235.27
   1  -4   8 956.800 140.459   1-0.53265 0.66036-0.84605 0.44831-0.02193 0.60245  0 114.84 243.60  120.17 114.84 243.43  120.04
   1  -4   8  1055.6   152.7   2 0.05779 0.06977-0.96951 0.57132-0.23813 0.81776  0 145.66 146.48  124.39 145.67 146.35  124.47
   1  -4   8  1151.0   206.9   2-0.23474 0.36223 0.49925-0.89696 0.83406-0.25347  0 367.99 474.94  350.05 367.98 474.72  349.84
   1   4  -8  1075.6   160.2   2-0.15818 0.28568 0.96915-0.57127 0.18899-0.76944  0 170.15 114.27  302.51 170.01 114.25  302.40
   1   4   8  1389.7   163.1   2-0.15968 0.28725-0.52498 0.92299 0.83600-0.25609  0 136.95 161.70   51.71 137.00 161.80   51.87
   1   4   8  1060.5   199.7   2-0.09047 0.21799 0.97394-0.57578-0.20799 0.78801  0 347.07 476.14  278.96 346.95 476.18  279.17
  -1  -4  -9  8020.4   289.1   1-0.23253 0.10490 0.58972-0.98726-0.77341 0.11963  0 130.93 388.25    8.99 130.89 388.23    9.14
  -1  -4  -9 13361.9   396.7   2 0.04361-0.17116 0.57313-0.97122-0.81830 0.16566  0 238.21  34.13  235.59 237.98  34.37  235.57
  -1  -4   9 10363.9   346.1   1-0.59124 0.46353-0.79438 0.39664-0.13926 0.79235  0 106.76 178.66  112.00 106.46 178.78  111.97
  -1  -4   9 11957.0   389.4   2 0.04188-0.16945-0.98980 0.59161-0.13614 0.78822  0 177.26  73.62  118.39 177.20  73.80  118.45
  -1  -4   9 10587.7   481.1   2-0.23072 0.10322 0.58936-0.98724 0.77423-0.12122  0 473.10 479.19  343.91 473.47 478.98  343.70
  -1   4  -9 11507.0   383.5   2-0.15423 0.02673 0.97439-0.57650 0.16365-0.81666  0 220.36  43.45  301.11 220.08  43.53  300.90
  -1   4   9 12814.9   399.1   2-0.14728 0.01971-0.59194 0.98995 0.79241-0.14001  0 163.92  86.15   56.52 163.88  86.33   56.51
  -1   4   9 12638.5   494.0   2-0.09943-0.02809 0.98232-0.58416-0.15863 0.81115  0 452.68 488.29  282.28 452.58 488.10  282.09
   1  -4  -9  8469.9   233.0   1-0.33421 0.46184 0.47481-0.87234-0.81417 0.16039  0 188.98 452.16   18.16 188.93 451.90   18.24
   1  -4  -9 10356.9   316.3   1-0.55440 0.68211-0.82985 0.43211-0.06316-0.58993  0 436.34 494.46  117.27 436.47 494.30  117.22
   1  -4  -9 13010.6   492.3   2-0.00593 0.13349-0.98969 0.59149 0.14310-0.79518  0 461.82 483.82  101.99 461.91 483.55  102.12
   1  -4  -9 13975.2   418.6   2 0.04117 0.08639 0.58576-0.98384-0.80944 0.15680  0 169.95  80.47  236.48 169.82  80.64  236.47
   1  -4   9 10612.9   345.1   1-0.50211 0.62982-0.86421 0.46647 0.03201 0.62108  0  94.71 231.43  123.79  94.44 231.46  123.74
   1  -4   9 10653.9   354.1   2 0.04426 0.08330-0.98746 0.58926-0.15155 0.80364  0 127.52 133.00  119.29 127.33 133.11  119.35
   1   4  -9 12638.1   504.8   2 0.12468 0.00290-0.59161 0.98958-0.79653 0.14398  0 440.45 492.44  163.98 440.53 492.35  164.05
   1   4  -9 11233.6   382.1   2-0.14587 0.27339 0.98304-0.58488 0.11114-0.76366  0 157.35  93.27  297.79 157.32  93.33  297.84
   1   4   9 13504.3   382.1   2-0.15602 0.28359-0.54556 0.94357 0.82342-0.17102  0 118.70 149.21   53.18 118.38 149.33   53.27
  -1  -4 -10  75.454 118.801   1-0.22572 0.09809 0.59668-0.99422-0.77008 0.04366  0 112.41 408.61    8.45 112.45 408.32    8.55
  -1  -4  10  90.131 136.401   1-0.55717 0.42946-0.82756 0.42981-0.06859 0.79424  0  86.18 162.78  116.36  85.71 162.28  116.85
  -1  -4  10  54.067 172.350   2 0.02955-0.15711-0.99775 0.59955-0.06023 0.78476  0 157.27  53.58  114.43 157.26  53.79  114.01
  -1   4 -10  78.646 182.412   2-0.14134 0.01382 0.98643-0.58827 0.08352-0.80854  0 208.47  14.91  296.29 208.65  15.09  296.23
  -1   4  10 229.762 182.762   2-0.14571 0.01814-0.59991 0.99792 0.78669-0.06179  0 143.48  67.21   56.94 143.61  67.55   57.08
   1  -4 -10 263.332 110.420   1-0.31904 0.44667 0.49332-0.89086-0.80923 0.08281  0 174.29 477.06   16.61 174.27 477.36   16.84
   1  -4 -10 271.082 185.637   2 0.03933 0.08822 0.59499-0.99307-0.80277 0.07762  0 155.28  55.76  237.57 155.48  55.62  237.13
   1  -4  10 209.132 142.302   1-0.47037 0.59808-0.87843 0.48068 0.08437 0.64129  0  71.27 218.18  127.52  71.33 218.14  127.34
   1  -4  10 185.416 165.077   2 0.03118 0.09639-0.99702 0.59883-0.07052 0.79506  0 106.10 118.11  114.66 106.04 117.98  114.60
   1   4 -10 346.607 189.392   2-0.13355 0.26107 0.99034-0.59218 0.03732-0.76234  0 141.99  69.19  293.56 142.20  69.17  293.51
   1   4  10 131.901 148.288   2-0.15392 0.28149-0.55722 0.95523 0.81598-0.09108  0  96.75 135.36   54.55  96.75 135.18   54.07
  -1  -4 -11  2922.6   255.5   1-0.22514 0.09751 0.59727-0.99480-0.76979-0.02927  0  91.16 432.31    8.43  90.94 432.31    8.50
  -1  -4  11  3479.8   292.5   1-0.52078 0.39308-0.85369 0.45594-0.00029 0.79850  0  61.84 142.77  121.54  61.55 142.95  121.52
  -1  -4  11  4745.4   392.3   2 0.01749-0.14506-0.99978 0.60158 0.01146 0.78553  0 134.14  30.23  109.67 133.94  30.21  109.83
  -1   4  11  4526.0   384.5   2-0.14535 0.01778-0.60176 0.99977 0.78534 0.01204  0 119.93  45.24   57.34 119.81  45.47   57.21
   1  -4 -11  4191.0   393.5   2 0.03874 0.08881 0.59796-0.99604-0.80059 0.00292  0 138.37  26.02  237.23 138.24  26.03  237.34
   1  -4  11  3852.8   306.2   1-0.43735 0.56506-0.88904 0.49129 0.13540 0.66282  0  45.12 202.95  130.75  44.76 202.89  130.88
   1  -4  11  5004.5   361.3   2 0.01849 0.10908-0.99981 0.60162 0.00569 0.79130  0  81.02 100.33  110.30  80.90 100.46  110.17
   1   4 -11  3841.0   366.0   2-0.12177 0.24929 0.99202-0.59387-0.03255-0.76497  0 124.32  40.78  289.44 124.07  40.79  289.44
   1   4  11  4462.8   333.8   2-0.15310 0.28067-0.56166 0.95968 0.81308-0.01569  0  71.20 118.92   54.39  71.24 118.97   54.38
  -1  -5   0 -37.257  56.906   1-0.64322 0.51558-0.09977-0.39732-0.75915 0.75915  0 178.37 289.18   56.35 178.67 289.43   56.43
  -1  -5   0   0.570  87.208   2-0.20344 0.07589-0.21285-0.28449 0.95567-0.95567  0 422.85 347.73   32.57 423.02 347.33   32.47
  -1  -5   0  -3.251  86.640   2 0.12813-0.25570-0.29795-0.19951-0.94594 0.94594  0 259.47 131.92  183.53 259.57 131.71  183.11
  -1   5   0   3.673  75.890   1-0.55601 0.42838 0.12205 0.37488-0.82216 0.82216  0 419.01 164.86   42.46 419.23 164.71   42.28
  -1   5   0  14.438  68.529   2-0.23284 0.10530 0.20531 0.29203 0.95059-0.95060  0 241.89 140.65    8.59 241.80 140.72    8.25
  -1   5   0 -16.713  89.713   2 0.08752-0.21508 0.28759 0.21002-0.95375 0.95375  0 406.65 362.74  217.37 406.77 362.88  217.21
   1  -5   0  31.554  52.173   1-0.70038 0.82803-0.44478-0.05232-0.55824 0.55824  0 199.67 335.97   79.47 199.85 336.06   79.66
   1  -5   0  18.326  93.343   2-0.19169 0.31924-0.31419-0.18315 0.92981-0.92981  0 359.59 389.30   38.60 359.63 388.87   38.48
   1  -5   0  20.265  64.181   2 0.12639 0.00118-0.23268-0.26479-0.96431 0.96431  0 205.82 171.21  187.17 206.01 171.20  187.00
   1   5   0  -7.512  87.622   1-0.41183 0.53946 0.37063 0.12630-0.83249 0.83249  0 450.93 218.71   25.53 450.89 218.75   25.76
   1   5   0  44.015  88.069   2 0.09296 0.03459 0.24132 0.25628-0.96598 0.96598  0 338.09 393.67  214.77 338.33 393.75  214.45
  -1  -5  -1 16150.1   301.9   1-0.60790 0.48026 0.00185-0.49894-0.79401 0.72139  0 179.99 299.61   49.96 180.04 299.46   49.96
  -1  -5  -1 22761.3   367.2   2-0.18613 0.05859-0.35619-0.14115 0.91569-0.98825  0 426.69 345.90   40.92 426.96 345.90   41.04
  -1  -5  -1 22493.3   362.6   2 0.12380-0.25137-0.15937-0.33809-0.97943 0.90692  0 261.69 128.96  191.03 261.92 129.07  191.29
  -1  -5   1 15988.5   310.0   1-0.67099 0.54334-0.20216-0.29493-0.71338 0.78600  0 175.19 279.63   63.03 175.25 279.56   63.04
  -1  -5   1 21779.7   362.7   2-0.21659 0.08905-0.07273-0.42462 0.97355-0.90098  0 421.45 351.87   24.02 421.71 351.83   24.33
  -1  -5   1 13278.7   286.1   2 0.12915-0.25672-0.43348-0.06398-0.89186 0.96437  0 255.35 131.63  174.80 255.52 131.78  174.71
  -1   5  -1 15056.4   285.5   1-0.60941 0.48177-0.00207 0.49916-0.79285 0.72023  0 431.10 175.54   49.86 431.29 175.76   50.21
  -1   5  -1 23455.6   378.9   2 0.10222-0.22978 0.15341 0.34420-0.98286 0.91035  0 410.58 362.05  208.93 410.90 362.01  209.29
  -1   5   1 14915.1   259.9   1-0.47671 0.34909 0.27001 0.22691-0.83656 0.90920  0 409.76 152.95   32.59 409.96 153.14   32.62
  -1   5   1 23639.3   370.1   2-0.22663 0.09908 0.07046 0.42688 0.97143-0.89886  0 238.20 141.10   15.94 238.09 141.21   16.09
  -1   5   1 23441.0   379.4   2 0.06927-0.19683 0.42006 0.07755-0.90485 0.97737  0 404.78 366.91  225.33 405.04 366.82  225.38
   1  -5  -1 13973.0   243.5   1-0.69651 0.82416-0.35827-0.13883-0.62170 0.54908  0 206.41 347.07   73.50 206.49 346.92   73.51
   1  -5  -1 21183.5   365.7   2-0.17349 0.30104-0.44314-0.05420 0.87951-0.95207  0 364.10 389.31   46.46 364.13 389.28   46.48
   1  -5  -1 23051.9   363.8   2 0.12048 0.00709-0.09546-0.40201-0.98812 0.91561  0 207.21 167.66  194.97 207.15 167.67  195.00
   1  -5   1 14018.5   264.9   1-0.69685 0.82449-0.52116 0.02406-0.49275 0.56537  0 191.47 325.77   85.36 191.54 325.69   85.43
   1  -5   1 22614.3   370.7   2-0.20658 0.33413-0.18306-0.31428 0.96115-0.88859  0 357.11 391.70   30.74 357.07 391.58   30.72
   1  -5   1 21804.0   354.2   2 0.12915-0.00158-0.37127-0.12619-0.91950 0.99200  0 203.12 172.55  178.68 203.05 172.53  178.64
   1   5  -1 13742.7   300.9   1-0.47656 0.60419 0.27027 0.22665-0.83657 0.76392  0 456.10 230.67   32.58 456.23 230.80   32.61
   1   5  -1 22517.8   366.0   2 0.10701 0.02054 0.09883 0.39878-0.98933 0.91682  0 342.97 394.86  205.93 342.97 394.74  206.13
   1   5  -1 19753.2   332.7   2-0.23600 0.36349 0.45601 0.04113 0.85812-0.93069  0 195.81 182.73  352.79 195.80 182.77  352.69
   1   5   1 14311.5   298.2   1-0.33407 0.46170 0.47497 0.02195-0.81412 0.88676  0 448.64 206.25   18.02 448.72 206.44   18.23
   1   5   1 22300.2   350.0   2-0.23234 0.35989 0.19075 0.30659 0.95375-0.88118  0 192.22 188.36    9.00 192.15 188.39    9.11
   1   5   1 24124.1   371.7   2 0.07453 0.05302 0.38536 0.11224-0.91975 0.99227  0 335.52 396.15  222.87 335.50 395.96  223.21
  -1  -5  -2  2884.6   148.0   1-0.56699 0.43936 0.09863-0.59556-0.81780 0.67251  0 179.34 309.92   43.94 179.39 309.83   43.78
  -1  -5  -2  4149.7   208.2   2-0.16524 0.03767-0.49282-0.00470 0.85430-0.99928  0 433.34 347.49   50.14 433.59 347.49   49.72
  -1  -5  -2  4337.5   206.1   2 0.11623-0.24380-0.02661-0.47085-0.99287 0.84785  0 262.42 123.72  199.01 262.57 123.80  198.96
  -1  -5   2  2844.1   156.8   1-0.68965 0.56201-0.30144-0.19565-0.65842 0.80366  0 169.86 269.80   69.62 169.92 269.74   69.62
  -1  -5   2  4188.8   214.0   2-0.22578 0.09824 0.05552-0.55286 0.97259-0.82746  0 422.65 359.46   17.02 422.84 359.43   16.95
  -1  -5   2  3696.9   174.9   2 0.12628-0.25386-0.55774 0.06028-0.82035 0.96536  0 249.88 129.32  166.53 249.79 129.39  166.44
  -1   5  -2  2741.0   172.3   1-0.64362 0.51597-0.10078 0.59788-0.75868 0.61345  0 445.98 186.31   56.41 445.95 186.46   56.49
  -1   5  -2  4236.9   213.6   2 0.11296-0.24051 0.02575 0.47186-0.99327 0.84823  0 417.23 364.19  201.74 417.44 364.19  201.91
  -1   5  -2  3536.7   173.8   2-0.23551 0.10802 0.47350 0.02364 0.84872-0.99387  0 244.36 132.34  351.61 244.27 132.43  351.55
  -1   5   2  2726.2   147.0   1-0.36713 0.23950 0.43255 0.06437-0.82348 0.96876  0 403.32 140.51   21.30 403.52 140.75   21.35
  -1   5   2  4285.1   186.6   2-0.21816 0.09061-0.05409 0.55143 0.97441-0.82928  0 232.75 139.33   23.24 232.64 139.37   23.25
  -1   5   2  4107.0   214.1   2 0.04911-0.17666 0.54317-0.04556-0.83819 0.98322  0 405.32 373.95  233.47 405.62 373.83  233.49
   1  -5  -2  2594.6   123.0   1-0.68340 0.81104-0.26261-0.23448-0.68117 0.53594  0 211.07 358.57   67.00 211.17 358.42   67.02
   1  -5  -2  4374.9   216.5   2-0.15298 0.28055-0.56228 0.06476 0.81267-0.95765  0 370.70 392.89   54.40 370.65 392.83   54.42
   1  -5  -2  4322.0   188.2   2 0.11248 0.01507 0.03200-0.52961-0.99314 0.84811  0 206.60 161.92  202.29 206.44 161.93  202.27
   1  -5   2  2514.1   142.1   1-0.68700 0.81464-0.58750 0.09041-0.42764 0.57288  0 181.77 315.73   90.94 181.76 315.70   90.78
   1  -5   2  3860.1   207.8   2-0.21787 0.34542-0.05777-0.43957 0.97427-0.82914  0 356.44 397.55   23.42 356.36 397.43   23.47
   1  -5   2  3739.5   176.7   2 0.12800-0.00043-0.50263 0.00516-0.85497 0.99999  0 198.25 171.70  169.94 198.27 171.71  170.20
   1   5  -2  2651.0   189.5   1-0.52759 0.65522 0.17879 0.31813-0.83047 0.68519  0 464.71 242.84   38.57 464.71 242.90   38.61
   1   5  -2  3736.0   201.8   2 0.11667 0.01091-0.03305 0.53051-0.99262 0.84761  0 349.45 398.97  198.50 349.31 398.87  198.59
   1   5  -2  3372.4   171.6   2-0.23162 0.35912 0.57460-0.07724 0.78498-0.93009  0 194.81 176.66  344.80 194.70 176.75  344.75
   1   5   2  2718.0   176.5   1-0.24504 0.37267 0.57685-0.07993-0.77923 0.92451  0 449.71 193.36   10.18 449.80 193.46   10.22
   1   5   2  4179.6   177.2   2-0.22608 0.35363 0.06047 0.43687 0.97223-0.82710  0 187.60 187.97   16.70 187.52 187.96   16.66
   1   5   2  4410.2   207.2   2 0.05305 0.07450 0.52098-0.02338-0.85192 0.99695  0 334.39 401.61  232.01 334.41 401.44  231.98
  -1  -5  -3  48.924  61.917   1-0.52357 0.39594 0.18642-0.68334-0.83134 0.61341  0 176.43 320.33   38.38 176.60 320.62   38.11
  -1  -5  -3 103.203 102.919   2-0.14269 0.01512-0.61503 0.11751 0.77549-0.99296  0 442.71 352.11   59.15 443.04 352.11   58.17
  -1  -5  -3 221.197 110.026   2 0.10757-0.23513 0.09248-0.59009-0.98989 0.77234  0 261.59 115.94  206.06 261.57 115.88  205.76
  -1  -5   3  76.725  68.863   1-0.69912 0.57147-0.39450-0.10259-0.59633 0.81418  0 162.76 260.05   76.38 162.73 259.83   76.05
  -1  -5   3 213.480 117.914   2-0.23132 0.10377 0.16624-0.66358 0.95857-0.74088  0 426.22 369.96   10.47 426.37 370.00   10.54
  -1  -5   3 186.355  84.636   2 0.12014-0.24771-0.66555 0.16808-0.73662 0.95414  0 242.28 124.70  158.57 242.46 124.70  158.60
  -1   5  -3  79.526 102.512   1-0.66477 0.53713-0.17619 0.67328-0.72597 0.50812  0 463.38 196.94   61.42 463.36 197.13   61.35
  -1   5  -3 165.772 113.352   2 0.12011-0.24768-0.08890 0.58636-0.98877 0.77126  0 426.46 369.24  195.37 426.51 369.44  195.38
  -1   5  -3 129.216  81.932   2-0.23059 0.10309 0.59164-0.09428 0.77253-0.99019  0 242.90 124.80  343.47 242.85 124.60  343.54
  -1   5   3 197.248  81.534   1-0.23012 0.10249 0.59220-0.09528-0.77224 0.99016  0 400.15 126.99    8.71 400.08 127.07    8.93
  -1   5   3 244.849  90.840   2-0.20857 0.08103-0.16293 0.66027 0.96434-0.74664  0 225.56 135.40   29.56 225.57 135.32   29.54
  -1   5   3 171.769 113.784   2 0.02761-0.15516 0.65131-0.15370-0.75831 0.97586  0 408.35 384.07  241.35 408.30 383.90  241.31
   1  -5  -3  88.592  53.236   1-0.66079 0.78843-0.16107-0.33603-0.73308 0.51523  0 213.55 370.72   60.30 213.67 370.69   60.37
   1  -5  -3 198.608 114.191   2-0.13185 0.25942-0.66699 0.16947 0.73331-0.95078  0 379.37 399.43   61.97 379.20 399.42   62.06
   1  -5  -3 295.394  94.960   2 0.10314 0.02442 0.14400-0.64161-0.98419 0.76664  0 204.27 154.20  208.78 204.15 154.01  208.75
   1  -5   3 135.074  66.774   1-0.67254 0.80019-0.64466 0.14756-0.36346 0.58132  0 170.39 305.68   95.69 170.61 305.91   95.77
   1  -5   3 207.270 110.326   2-0.22576 0.35331 0.05516-0.55250 0.97262-0.75492  0 357.49 406.63   16.57 357.36 406.51   16.97
   1  -5   3 222.632  82.818   2 0.12322 0.00435-0.61989 0.12243-0.77495 0.99247  0 191.46 168.92  161.99 191.68 168.86  162.02
   1   5  -3 159.296 110.690   1-0.56662 0.69425 0.09945 0.39747-0.81796 0.60003  0 476.27 255.32   43.19 476.44 255.41   43.72
   1   5  -3 229.801 111.482   2 0.12317 0.00440-0.14801 0.64548-0.98128 0.76377  0 357.55 406.28  191.61 357.62 406.12  191.95
   1   5  -3 189.929  84.470   2-0.22447 0.35197 0.67697-0.17961 0.70095-0.91862  0 192.00 168.70  337.41 191.92 168.69  337.10
   1   5   3 155.005 105.889   1-0.14838 0.27601 0.66982-0.17289-0.72755 0.94548  0 454.12 179.53    1.35 454.12 179.54    1.98
   1   5   3 205.676  83.988   2-0.21786 0.34541-0.05791 0.55525 0.97426-0.75657  0 180.95 185.80   23.58 180.97 185.50   23.47
   1   5   3 191.824 104.815   2 0.02997 0.09758 0.64050-0.14290-0.76737 0.98492  0 334.73 410.08  240.41 334.88 410.13  240.49
  -1  -5  -4 16081.7   315.2   1-0.48100 0.35337 0.26281-0.75973-0.83640 0.54584  0 171.63 332.24   32.96 171.73 332.05   33.10
  -1  -5  -4 23213.0   388.5   1 0.05383-0.18154-0.74880 0.25168 0.66061-0.95063  0 462.73 350.88  173.98 462.77 350.68  173.86
  -1  -5  -4 23295.4   408.9   2-0.11971-0.00786-0.71833 0.22081 0.68533-0.97528  0 455.33 359.73   65.92 455.52 359.69   66.15
  -1  -5  -4 23017.5   402.1   2 0.09819-0.22575 0.19409-0.69170-0.97606 0.68599  0 259.06 105.21  211.69 259.17 105.38  211.66
  -1  -5   4 15503.4   329.7   1-0.69965 0.57201-0.47961-0.01748-0.52958 0.82006  0 153.72 249.69   82.01 153.74 249.68   82.24
  -1  -5   4 21162.4   404.3   2-0.23438 0.10683 0.25748-0.75483 0.93743-0.64717  0 431.92 383.66    5.00 432.14 383.60    5.16
  -1  -5   4 21889.2   388.4   2 0.11126-0.23884-0.75495 0.25748-0.64628 0.93630  0 233.66 117.73  151.19 233.60 117.84  151.31
  -1   5  -4 14880.1   350.3   1-0.67754 0.54990-0.23201 0.72910-0.69793 0.40745  0 483.84 207.96   65.00 483.85 208.06   65.00
  -1   5  -4 21462.5   401.7   2 0.12497-0.25254-0.18645 0.68391-0.97448 0.68446  0 438.26 377.66  189.71 438.41 377.72  189.71
  -1   5  -4 19570.1   367.9   2-0.22301 0.09551 0.69274-0.19538 0.68584-0.97607  0 240.26 114.10  336.01 240.00 114.32  335.84
  -1   5   4 24300.7   411.2   2-0.19881 0.07127-0.25373 0.75107 0.94662-0.65636  0 216.97 129.12   35.00 216.89 129.24   34.87
  -1   5   4 23557.5   426.4   2 0.00596-0.13351 0.74199-0.24439-0.67038 0.96044  0 412.86 397.24  248.68 413.08 397.08  248.68
   1  -5  -4 15361.8   244.5   1-0.63005 0.75769-0.05912-0.43797-0.77430 0.48383  0 213.82 384.17   54.02 213.79 383.90   53.83
   1  -5  -4 23584.4   425.9   2-0.11036 0.23793-0.75477 0.25726 0.64664-0.93659  0 389.63 409.22   68.98 389.91 409.08   69.24
   1  -5  -4 24696.8   413.5   2 0.09336 0.03419 0.23781-0.73542-0.96682 0.67675  0 200.39 143.91  214.01 200.24 144.02  214.24
   1  -5   4 15512.8   326.9   1-0.65453 0.78224-0.69355 0.19637-0.30095 0.59121  0 158.12 296.27  100.38 158.18 296.31  100.44
   1  -5   4 21203.2   398.6   2-0.23072 0.35827 0.15201-0.64935 0.96107-0.67081  0 360.09 418.96   11.32 360.02 418.79   11.37
   1  -5   4 21214.9   378.3   2 0.11525 0.01232-0.71941 0.22195-0.68496 0.97498  0 183.33 164.08  154.21 183.27 164.10  154.33
   1   5  -4 14348.8   344.0   1-0.59531 0.72294 0.03328 0.46365-0.80281 0.51224  0 491.58 268.50   47.97 491.63 268.59   47.95
   1   5  -4 21408.9   403.0   2 0.12673 0.00084-0.24348 0.74094-0.96159 0.67157  0 368.09 416.66  186.26 367.89 416.52  186.36
   1   5  -4 20110.2   374.3   2-0.21528 0.34277 0.76158-0.26422 0.61127-0.90149  0 187.64 158.48  329.96 187.50 158.63  329.99
   1   5   4 23555.8   386.6   2-0.20893 0.33648-0.15977 0.65711 0.96479-0.67453  0 172.58 181.17   29.20 172.56 181.20   29.36
   1   5   4 22343.0   394.7   2 0.00647 0.12109 0.74005-0.24245-0.67252 0.96258  0 336.84 422.37  248.47 336.82 422.11  248.51
  -1  -5  -5  4786.9   193.2   1-0.44143 0.31380 0.32664-0.82356-0.83573 0.47252  0 164.74 344.51   28.94 164.83 344.33   28.80
  -1  -5  -5  7044.6   285.6   1-0.04397-0.08374-0.81115 0.31403 0.58318-0.94571  0 473.90 367.93  166.00 473.96 367.76  165.86
  -1  -5  -5  6375.5   277.4   2-0.09702-0.03055-0.80182 0.30430 0.58964-0.95209  0 471.14 370.39   73.53 471.34 370.41   73.55
  -1  -5  -5  4092.9   225.0   2 0.08880-0.21635 0.27710-0.77471-0.95673 0.59415  0 255.42  91.96  216.60 255.40  92.24  216.58
  -1  -5   5  5072.0   217.3   1-0.69256 0.56492-0.55569 0.05859-0.45997 0.82306  0 142.98 239.11   88.08 143.00 239.17   88.16
  -1  -5   5  6077.6   243.6   2 0.10085-0.22842-0.82625 0.32851-0.55420 0.91647  0 223.23 108.87  144.52 223.15 108.96  144.57
  -1   5  -5  6562.4   293.4   2 0.12742-0.25500-0.26639 0.76386-0.95540 0.59288  0 453.20 389.05  185.04 453.30 389.11  185.00
  -1   5  -5  5892.1   239.1   2-0.21326 0.08576 0.77581-0.27846 0.59383-0.95661  0 235.99 101.39  328.96 235.73 101.60  328.68
  -1   5   5  7136.9   260.7   2-0.19009 0.06255-0.32677 0.82411 0.92579-0.56296  0 206.67 121.12   38.89 206.59 121.19   39.25
  -1   5   5  6926.1   302.7   2-0.01494-0.11258 0.81515-0.31745-0.57906 0.94157  0 419.65 413.60  255.45 419.85 413.47  255.48
   1  -5  -5  4630.9   155.0   1-0.59354 0.72117 0.03757-0.53449-0.80393 0.44072  0 211.53 398.61   47.81 211.54 398.39   47.68
   1  -5  -5  7028.0   215.5   1-0.06864 0.19635-0.82445 0.32733 0.56176-0.92428  0 404.38 421.79  163.93 404.51 421.49  163.84
   1  -5  -5  7217.5   307.2   2-0.08953 0.21710-0.82577 0.32825 0.55685-0.91930  0 402.72 422.18   75.70 402.94 422.00   75.91
   1  -5  -5  7584.6   268.4   2 0.08431 0.04324 0.31353-0.81114-0.94583 0.58325  0 194.93 131.83  219.00 194.79 131.92  218.78
   1  -5   5  4897.7   214.9   1-0.63344 0.76115-0.73551 0.23833-0.24038 0.60320  0 144.28 286.51  104.95 144.37 286.56  104.84
   1  -5   5  5545.9   275.3   2-0.23366 0.36121 0.23162-0.72896 0.94433-0.58150  0 364.23 434.45    6.79 364.18 434.40    6.69
   1  -5   5  6702.1   248.2   2 0.10519 0.02238-0.80001 0.30226-0.59069 0.95296  0 173.13 157.58  147.00 173.08 157.58  147.15
   1   5  -5  7023.2   297.8   2 0.12853-0.00096-0.31986 0.81732-0.93871 0.57618  0 380.43 430.22  181.70 380.21 430.09  181.78
   1   5  -5  5420.8   235.5   2-0.20461 0.33211 0.82920-0.33184 0.52016-0.88294  0 181.59 146.48  323.50 181.49 146.65  323.41
   1   5   5  7211.6   248.1   2-0.19999 0.32754-0.24367 0.74101 0.94901-0.58619  0 162.31 175.11   33.91 162.28 175.18   34.28
   1   5   5  6930.0   285.2   2-0.01618 0.14370 0.81906-0.32136-0.57348 0.93599  0 340.16 437.69  255.77 340.09 437.43  255.88
  -1  -5  -6  6540.6   229.3   1-0.40674 0.27911 0.37795-0.87487-0.83169 0.39584  0 155.83 357.89   25.18 155.93 357.70   25.25
  -1  -5  -6  8911.7   324.1   1-0.13698 0.00928-0.85615 0.35902 0.49825-0.93328  0 488.94 387.57  157.98 488.91 387.30  158.19
  -1  -5  -6  9337.2   339.1   2-0.07541-0.05215-0.86680 0.36929 0.49291-0.92785  0 490.72 384.33   80.06 490.91 384.37   80.33
  -1  -5  -6  9440.2   300.4   2 0.08055-0.20810 0.34246-0.84007-0.93607 0.50098  0 250.53  76.15  220.55 250.35  76.37  220.55
  -1  -5   6  6590.7   256.9   1-0.67887 0.55123-0.62266 0.12557-0.38914 0.82485  0 130.46 227.98   94.01 130.48 228.06   93.80
  -1  -5   6  8233.1   290.6   2 0.08919-0.21676-0.88202 0.38428-0.46269 0.89741  0 211.31  97.93  138.24 211.21  98.08  138.41
  -1  -5   6  7916.3   356.2   2-0.23686 0.10936 0.38603-0.88317 0.89156-0.45612  0 450.27 421.16  357.23 450.39 420.99  357.15
  -1   5  -6  8538.1   344.2   2 0.12868-0.25625-0.32962 0.82708-0.93530 0.50027  0 471.46 403.72  180.90 471.66 403.86  181.19
  -1   5  -6  7739.4   287.8   2-0.20217 0.07467 0.84180-0.34445 0.50050-0.93583  0 230.33  86.13  322.11 230.08  86.35  322.06
  -1   5   6  9840.8   312.0   2-0.18227 0.05472-0.38367 0.88102 0.90530-0.46991  0 194.71 111.13   42.96 194.62 111.23   42.72
  -1   5   6  9198.7   362.8   2-0.03491-0.09261 0.87243-0.37474-0.48748 0.92249  0 428.71 433.73  261.70 428.82 433.52  261.78
   1  -5  -6  5916.2   176.4   1-0.55583 0.68346 0.12243-0.61935-0.82223 0.38638  0 206.85 414.73   42.17 206.86 414.44   42.25
   1  -5  -6  8895.9   242.7   1-0.20828 0.33599-0.88085 0.38373 0.42512-0.86016  0 410.86 442.17  152.09 410.97 441.88  152.17
   1  -5  -6  9469.0   359.5   2-0.06985 0.19742-0.88146 0.38394 0.46707-0.90201  0 418.41 438.56   82.03 418.62 438.46   82.06
   1  -5  -6  9121.6   307.1   2 0.07639 0.05116 0.37280-0.87041-0.92476 0.48967  0 187.86 117.55  222.42 187.79 117.67  222.43
   1  -5   6  6732.2   248.4   1-0.60994 0.73765-0.77136 0.27417-0.18162 0.61701  0 129.07 276.53  109.01 129.09 276.59  109.01
   1  -5   6  8121.9   337.4   2-0.23506 0.36261 0.29491-0.79225 0.92616-0.49077  0 370.01 453.83    3.12 369.85 453.66    2.92
   1  -5   6  8393.5   286.0   2 0.09354 0.03402-0.86367 0.36592-0.49530 0.93002  0 161.07 149.35  140.51 161.03 149.40  140.56
   1   5  -6  8584.1   349.2   2 0.12933-0.00176-0.37913 0.87660-0.91626 0.48122  0 394.69 447.26  178.00 394.87 447.24  178.14
   1   5  -6  7554.3   281.6   2-0.19298 0.32048 0.88176-0.38440 0.43041-0.86575  0 174.01 132.50  317.47 173.87 132.66  317.38
   1   5   6  9911.2   298.3   2-0.19210 0.31965-0.31021 0.80755 0.93106-0.49567  0 150.09 167.61   38.17 150.08 167.62   38.25
   1   5   6  8683.0   328.2   2-0.03769 0.16521 0.87954-0.38184-0.47433 0.90934  0 344.71 456.76  262.65 344.61 456.42  262.65
  -1  -5  -7 11005.5   296.8   1-0.37836 0.25073 0.41754-0.91446-0.82614 0.31765  0 144.91 372.71   22.41 144.98 372.52   22.44
  -1  -5  -7 16837.5   402.5   2 0.07352-0.20108 0.39238-0.88999-0.91686 0.40925  0 244.23  57.27  223.63 244.03  57.52  223.65
  -1  -5   7 11826.4   342.1   1-0.65984 0.53220-0.68074 0.18365-0.31813 0.82646  0 116.28 216.05   99.08 115.98 216.14   99.17
  -1  -5   7 16040.8   403.0   2 0.07714-0.20471-0.92429 0.42654-0.37382 0.88100  0 197.63  85.07  132.67 197.55  85.14  132.75
  -1  -5   7 14126.1   451.3   2-0.23646 0.10897 0.42769-0.92483 0.87245-0.36444  0 463.45 445.62  354.56 463.52 445.49  354.52
  -1   5  -7 14894.4   449.0   2 0.12933-0.25690-0.37809 0.87556-0.91669 0.40915  0 493.94 422.36  177.99 494.19 422.51  178.21
  -1   5  -7 13831.3   387.0   2-0.19004 0.06254 0.89276-0.39541 0.40848-0.91637  0 223.26  67.99  315.99 223.04  68.28  315.96
  -1   5   7 16273.7   408.0   2-0.17597 0.04842-0.42673 0.92407 0.88709-0.37914  0 180.92  99.18   45.44 180.84  99.30   45.43
  -1   5   7 14889.0   457.8   2-0.05362-0.07390 0.91589-0.41819-0.39783 0.90535  0 440.10 458.04  267.58 440.19 457.81  267.58
   1  -5  -7 10813.5   234.3   1-0.52021 0.64784 0.19275-0.68967-0.83200 0.32351  0 199.98 432.80   37.82 199.99 432.58   37.70
   1  -5  -7 14734.6   306.9   1-0.32844 0.45615-0.90039 0.40320 0.28536-0.79332  0 420.51 466.33  141.77 420.58 466.07  141.55
   1  -5  -7 16976.7   468.1   2-0.05167 0.17924-0.92387 0.42636 0.37919-0.88662  0 437.25 459.16   88.12 437.46 458.94   87.74
   1  -5  -7 17046.2   415.8   2 0.06961 0.05795 0.41784-0.91545-0.90585 0.39824  0 179.25 100.92  224.92 179.16 101.07  225.24
   1  -5   7 11346.3   335.3   1-0.58444 0.71215-0.80182 0.30464-0.12452 0.63248  0 112.37 266.13  112.97 112.07 266.22  112.99
   1  -5   7 15080.4   379.7   2 0.08095 0.04662-0.91218 0.41444-0.40171 0.90888  0 146.97 139.54  134.42 146.99 139.56  134.50
   1   5  -7 15205.5   451.3   2 0.12921-0.00164-0.42379 0.92126-0.89650 0.38895  0 412.07 468.53  175.34 412.29 468.45  175.33
   1   5  -7 13812.7   379.6   2-0.18113 0.30863 0.92153-0.42417 0.34347-0.85137  0 164.66 116.38  311.81 164.55 116.51  311.84
   1   5   7 16282.2   383.6   2-0.18544 0.31299-0.36133 0.85867 0.91381-0.40586  0 135.80 158.47   41.28 135.78 158.51   41.36
   1   5   7 15444.9   430.4   2-0.05770 0.18522 0.92406-0.42636-0.37787 0.88539  0 350.43 479.87  268.81 350.35 479.54  268.83
  -1  -5  -8  1273.8   151.3   1-0.35647 0.22884 0.44662-0.94354-0.82065 0.23951  0 131.73 389.38   20.30 131.87 389.29   20.33
  -1  -5  -8  1981.3   211.5   2 0.06791-0.19546 0.42925-0.92686-0.90063 0.32050  0 236.56  35.16  226.04 236.37  35.20  225.97
  -1  -5   8  1089.5   160.2   1-0.63636 0.50865-0.73035 0.23317-0.24828 0.82880  0  99.54 203.03  104.19  99.45 203.18  104.27
  -1  -5   8  1384.2   192.9   2 0.06511-0.19267-0.95528 0.45754-0.28844 0.86807  0 181.87  69.78  127.33 181.92  69.86  127.50
  -1  -5   8  1392.2   275.0   2-0.23597 0.10847 0.45769-0.95483 0.85723-0.27664  0 479.85 475.24  352.67 479.88 475.14  352.59
  -1   5  -8  1456.6   196.1   2-0.17767 0.05017 0.93084-0.43349 0.31931-0.89976  0 214.79  46.98  310.44 214.49  46.99  310.33
  -1   5   8  1713.4   206.5   2-0.17123 0.04368-0.45817 0.95551 0.87222-0.29170  0 165.02  85.12   47.44 164.98  85.20   47.44
  -1   5   8  1431.3   266.7   2-0.07078-0.05674 0.94770-0.45001-0.31120 0.89122  0 454.49 487.53  273.03 454.30 487.19  272.96
   1  -5  -8  1026.1   115.5   1-0.49016 0.61779 0.24701-0.74393-0.83590 0.25477  0 191.21 453.87   34.37 191.12 453.39   34.15
   1  -5  -8  1503.9   181.2   1-0.42551 0.55322-0.89192 0.39474 0.15305-0.73358  0 433.41 494.94  132.11 433.49 495.04  132.10
   1  -5  -8  1680.5   273.8   2-0.03465 0.16222-0.95507 0.45755 0.29434-0.87426  0 460.03 484.41   92.95 460.25 484.47   93.03
   1  -5  -8  1885.7   213.2   2 0.06453 0.06302 0.45102-0.94863-0.89018 0.31005  0 168.72  81.75  227.32 168.70  81.78  227.37
   1  -5   8  1402.8   174.6   1-0.55730 0.68501-0.82745 0.33027-0.06885 0.64937  0  93.23 255.07  116.78  93.06 255.18  116.83
   1  -5   8  1894.8   200.2   2 0.06825 0.05931-0.94783 0.45008-0.31139 0.89101  0 130.79 127.85  129.15 130.61 128.00  128.90
   1   5  -8  1910.5   279.1   2 0.12879-0.00122-0.45636 0.95382-0.88043 0.30038  0 432.96 494.40  173.24 433.15 494.68  173.23
   1   5  -8  1522.4   205.0   2-0.16894 0.29644 0.95067-0.45331 0.26016-0.84061  0 153.36  97.80  306.77 153.34  97.88  306.70
   1   5   8  1894.7   226.1   2-0.18005 0.30760-0.39931 0.89665 0.89896-0.31844  0 119.42 147.91   44.18 119.11 147.86   43.70
  -1  -5  -9 260.722 141.149   1-0.34091 0.21328 0.46647-0.96339-0.81620 0.16242  0 116.48 408.76   18.43 116.37 408.64   18.86
  -1  -5  -9 416.494 185.294   2 0.06395-0.19150 0.45523-0.95284-0.88808 0.23544  2 227.41   8.64  227.53 227.22   8.71  227.64
  -1  -5   9 279.933 138.325   1-0.60887 0.48116-0.77279 0.27561-0.17909 0.83218  0  80.16 188.39  109.59  80.27 188.57  109.18
  -1  -5   9 367.172 188.064   2 0.05298-0.18055-0.97694 0.47919-0.20686 0.85894  0 163.72  51.63  122.52 163.91  51.89  122.61
  -1   5  -9 295.130 191.983   2-0.16495 0.03745 0.95822-0.46086 0.23368-0.88668  0 204.26  21.55  304.96 204.25  21.69  305.09
  -1   5   9 426.778 180.397   2-0.16768 0.04013-0.47996 0.97730 0.86112-0.20803  0 146.77  68.89   49.14 146.61  68.64   48.86
   1  -5  -9 206.906 106.463   1-0.46709 0.59472 0.28592-0.78285-0.83671 0.18293  0 180.20 478.19   31.60 180.32 477.94   31.56
   1  -5  -9 342.081 188.725   2 0.06087 0.06668 0.47433-0.97193-0.87824 0.22560  0 156.18  59.08  228.97 156.14  59.27  228.88
   1  -5   9 155.367 137.157   1-0.52859 0.65630-0.84876 0.35157-0.01450 0.66759  0  71.26 243.27  120.66  71.55 243.20  120.55
   1  -5   9 355.810 167.552   2 0.05577 0.07179-0.97277 0.47502-0.22496 0.87704  0 112.06 114.75  124.15 111.48 114.49  123.68
   1   5  -9 268.035 169.988   2-0.15687 0.28437 0.97097-0.47362 0.18055-0.83356  0 139.71  76.46  301.57 139.86  76.28  301.90
   1   5   9 264.371 156.841   2-0.17605 0.30360-0.42622 0.92356 0.88733-0.23424  0 100.07 135.53   45.55  99.64 135.50   45.40
  -1  -5 -10 110.412 165.741   1-0.33144 0.20381 0.47823-0.97515-0.81329 0.08687  0  97.81 431.46   17.61  98.05 431.44   17.99
  -1  -5  10 -36.234 162.027   1-0.57806 0.45035-0.80838 0.31120-0.11121 0.83686  0  57.52 171.86  113.30  57.94 171.82  113.91
  -1  -5  10 162.355 206.431   2 0.04073-0.16830-0.99080 0.49306-0.12903 0.85356  0 142.99  30.64  119.14 142.90  30.62  118.03
  -1   5  10  95.476 210.261   2-0.16514 0.03757-0.49341 0.99092 0.85398-0.12908  0 125.43  49.35   50.15 125.21  49.16   49.76
   1  -5 -10   3.405 206.194   2 0.05836 0.06919 0.48941-0.98702-0.87010 0.14494  0 141.19  32.65  229.60 140.97  32.65  229.87
   1  -5  10   3.834 139.203   1-0.49823 0.62594-0.86618 0.36900 0.03861 0.68705  0  46.51 229.80  123.88  46.88 229.86  124.19
   1  -5  10-220.714 163.793   2 0.04280 0.08477-0.98888 0.49114-0.14241 0.86695  0  89.71  98.94  118.44  88.94  98.73  118.81
   1   5 -10 124.499 207.205   2-0.14487 0.27239 0.98383-0.48613 0.10533-0.83035  0 123.68  51.09  297.51 123.74  50.88  297.50
   1   5  10 141.580 174.244   2-0.17345 0.30100-0.44385 0.94119 0.87916-0.15351  0  76.81 121.14   46.48  76.65 121.16   46.52
  -1  -6   0 412.462  96.327   1-0.66321 0.53556-0.17000-0.42651-0.72887 0.72887  0 153.34 301.88   60.72 153.45 302.06   60.95
  -1  -6   0 610.523 143.658   2-0.19694 0.06940-0.26994-0.32687 0.94252-0.94252  0 452.43 378.03   35.68 452.39 378.15   35.83
  -1  -6   0 640.262 116.759   2 0.12881-0.25638-0.33964-0.25732-0.93170 0.93170  0 244.06 104.35  180.60 243.95 104.37  180.58
  -1   6   0 504.536 129.751   1-0.51568 0.38805 0.20144 0.39487-0.83276 0.83276  0 455.33 141.27   36.93 455.42 141.44   37.14
  -1   6   0 463.077 110.186   2-0.23448 0.10693 0.26192 0.33489 0.93617-0.93617  0 222.57 116.81    4.68 222.41 116.95    4.89
  -1   6   0 566.490 145.127   2 0.08223-0.20978 0.32975 0.26738-0.94048 0.94048  0 429.83 396.64  219.68 430.00 396.89  219.77
   1  -6   0 468.757  96.263   1-0.70021 0.82785-0.46174-0.13477-0.54452 0.54452  0 175.64 351.16   81.06 175.58 351.00   80.91
   1  -6   0 651.707 150.092   2-0.18670 0.31425-0.35194-0.24487 0.91722-0.91722  0 381.96 421.83   40.61 382.01 421.53   40.78
   1  -6   0 730.461 117.007   2 0.12788-0.00030-0.28478-0.31217-0.95002 0.95002  0 188.67 147.16  183.98 188.49 147.21  183.90
   1   6   0 431.422 132.896   1-0.39385 0.52148 0.39611 0.20020-0.82945 0.82945  0 492.29 199.73   23.50 491.95 200.11   23.97
   1   6   0 623.290 142.257   2 0.08681 0.04074 0.29364 0.30349-0.95196 0.95196  0 354.55 428.34  217.55 354.58 428.13  217.58
   1   6   0 518.370 107.391   2-0.23686 0.36436 0.36253 0.23404 0.90137-0.90137  0 174.45 166.21  358.59 174.35 166.24  358.61
  -1  -6  -1  3550.6   180.4   1-0.63906 0.51142-0.08654-0.50997-0.76427 0.69165  0 155.29 312.78   55.58 155.35 312.61   55.58
  -1  -6  -1  4858.2   268.8   2-0.18173 0.05418-0.38750-0.20931 0.90378-0.97635  0 456.61 376.63   43.14 456.74 376.61   42.96
  -1  -6  -1  5174.5   222.1   2 0.12617-0.25375-0.22616-0.37079-0.96588 0.89338  0 246.48 101.40  187.29 246.42 101.54  187.38
  -1  -6   1  3481.0   187.9   1-0.68182 0.55418-0.25395-0.34256-0.68602 0.75864  0 149.59 291.86   66.38 149.68 291.75   66.45
  -1  -6   1  5105.1   264.7   2-0.20946 0.08191-0.15428-0.44253 0.96557-0.89301  0 450.45 382.66   28.97 450.68 382.69   29.04
  -1  -6   1  5005.0   220.1   2 0.12896-0.25654-0.45132-0.14564-0.88299 0.95550  0 240.02 104.63  173.66 239.94 104.77  173.57
  -1   6  -1  3894.5   237.1   1-0.56866 0.44103 0.09499 0.50132-0.81707 0.74443  0 468.25 153.08   44.00 468.29 153.27   44.01
  -1   6  -1  5408.2   268.5   2 0.09550-0.22306 0.21907 0.37806-0.97102 0.89851  0 434.28 396.15  213.28 434.53 396.06  213.13
  -1   6  -1  4828.5   223.1   2-0.23687 0.10938 0.37474 0.22183 0.89636-0.96893  0 224.69 113.70  358.01 224.67 113.88  357.85
  -1   6   1  3543.6   217.1   1-0.44372 0.31609 0.32309 0.27321-0.83589 0.90854  0 445.16 128.73   29.09 445.30 128.87   29.04
  -1   6   1  5186.4   228.7   2-0.23065 0.10310 0.15026 0.44655 0.96137-0.88880  0 218.86 117.67   11.46 218.76 117.78   11.47
  -1   6   1  5221.5   267.5   2 0.06633-0.19388 0.43954 0.15759-0.89577 0.96829  0 427.64 400.91  226.61 427.84 400.83  226.63
   1  -6  -1  3414.8   165.4   1-0.69905 0.82669-0.39320-0.20331-0.59727 0.52465  0 182.05 362.61   76.00 182.14 362.47   75.96
   1  -6  -1  5207.8   273.5   2-0.17103 0.29857-0.45900-0.13781 0.87182-0.94438  0 386.51 421.92   47.50 386.83 421.88   47.50
   1  -6  -1  5464.4   231.0   2 0.12433 0.00325-0.17123-0.42572-0.97735 0.90485  0 189.84 143.61  190.59 189.81 143.66  190.60
   1  -6   1  3553.8   171.8   1-0.69639 0.82403-0.52492-0.07159-0.48939 0.56201  0 167.37 340.27   85.69 167.46 340.14   85.72
   1  -6   1  5194.5   268.1   2-0.19998 0.32753-0.24380-0.35301 0.94898-0.87642  0 379.22 424.57   34.07 379.16 424.40   34.29
   1  -6   1  5497.7   230.7   2 0.12944-0.00186-0.39910-0.19785-0.90772 0.98023  0 185.42 148.66  176.82 185.46 148.69  176.90
   1   6  -1  3338.1   239.9   1-0.45143 0.57906 0.31097 0.28533-0.83636 0.76372  0 498.56 213.09   29.88 498.55 213.21   29.87
   1   6  -1  5434.2   265.7   2 0.10002 0.02753 0.17631 0.42082-0.97924 0.90673  0 359.51 429.20  210.60 359.45 429.07  210.63
   1   6  -1  4551.8   208.5   2-0.23559 0.36308 0.47014 0.12643 0.85057-0.92314  0 175.27 162.32  351.79 175.33 162.38  351.77
   1   6   1  2952.4   232.3   1-0.32600 0.45363 0.48487 0.11143-0.81156 0.88420  0 488.71 186.45   17.43 488.69 186.65   17.48
   1   6   1  4800.0   214.6   2-0.23425 0.36180 0.25236 0.34445 0.93885-0.86629  0 171.49 168.11    5.46 171.41 168.15    5.46
   1   6   1  5232.3   255.5   2 0.07050 0.05705 0.41186 0.18527-0.90852 0.98103  0 351.46 430.69  225.01 351.41 430.40  224.86
  -1  -6  -2 439.534  99.360   1-0.61095 0.48331-0.00611-0.59040-0.79164 0.64641  0 155.43 323.54   50.38 155.30 323.57   50.46
  -1  -6  -2 631.025 157.696   2-0.16385 0.03629-0.50108-0.09594 0.84975-0.99473  0 463.63 377.98   50.35 463.92 378.13   50.27
  -1  -6  -2 543.938 113.639   2 0.12164-0.24921-0.11626-0.48069-0.98574 0.84073  0 247.44  96.23  193.66 247.33  96.19  193.80
  -1  -6   2 455.423 104.690   1-0.69425 0.56661-0.33601-0.26050-0.63649 0.78173  0 144.27 281.31   71.65 144.06 281.55   71.98
  -1  -6   2 546.153 150.492   2-0.21880 0.09125-0.04590-0.55091 0.97469-0.82956  0 451.59 390.30   23.00 451.54 390.30   22.78
  -1  -6   2 500.551 117.181   2 0.12636-0.25394-0.55625-0.04071-0.82135 0.96636  0 234.43 102.95  166.58 234.34 102.79  166.54
  -1   6  -2 251.908 133.337   1-0.60620 0.47855 0.00624 0.59027-0.79529 0.65005  0 484.42 164.44   49.66 484.24 164.64   49.68
  -1   6  -2 596.919 154.830   2 0.10579-0.23335 0.11243 0.48470-0.98801 0.84298  0 441.60 398.41  206.65 441.52 398.28  206.91
  -1   6  -2 507.243 114.771   2-0.23525 0.10775 0.48431 0.11226 0.84267-0.98782  0 225.26 108.58  351.04 225.14 108.44  350.84
  -1   6   2 401.520 117.885   1-0.35074 0.22311 0.45400 0.14231-0.81906 0.96435  0 437.80 115.34   20.05 437.96 115.23   19.79
  -1   6   2 544.722 122.939   2-0.22522 0.09767 0.04487 0.55194 0.97327-0.82814  0 213.46 116.27   17.58 213.43 116.37   17.55
  -1   6   2 400.755 152.657   2 0.04900-0.17655 0.54376 0.05337-0.83781 0.98284  0 427.87 407.84  233.54 428.06 407.88  233.53
   1  -6  -2 468.181  89.692   1-0.69220 0.81984-0.32024-0.27627-0.64677 0.50153  0 186.87 374.77   70.68 186.99 374.75   70.90
   1  -6  -2 604.231 162.931   2-0.15337 0.28094-0.56019-0.03683 0.81404-0.95902  0 393.53 425.52   54.38 393.61 425.32   54.28
   1  -6  -2 761.931 124.665   2 0.11865 0.00892-0.06366-0.53330-0.99089 0.84588  0 189.68 138.05  196.63 189.42 138.04  196.83
   1  -6   2 518.696 100.475   1-0.68801 0.81566-0.58227-0.01424-0.43313 0.57836  0 157.94 329.84   90.32 157.87 329.75   90.34
   1  -6   2 490.448 149.445   2-0.21084 0.33839-0.13946-0.45735 0.96752-0.82239  0 378.22 430.25   27.97 378.15 430.45   28.18
   1  -6   2 479.563 114.729   2 0.12783-0.00026-0.50916-0.08780-0.85113 0.99614  0 180.78 148.33  169.93 180.65 148.16  169.77
   1   6  -2 704.942 155.547   2 0.10993 0.01763 0.06543 0.53170-0.99178 0.84675  0 366.24 433.21  204.41 366.09 433.19  204.19
   1   6  -2 562.987 116.710   2-0.23181 0.35931 0.57073 0.02610 0.78774-0.93285  0 174.65 156.49  345.41 174.44 156.55  345.03
   1   6   2 471.093 143.947   1-0.24866 0.37629 0.57300 0.02331-0.78093 0.92621  0 488.77 172.29   10.54 488.77 172.22   10.54
   1   6   2 645.674 117.629   2-0.23045 0.35800 0.14494 0.45187 0.96223-0.81710  0 166.95 168.11   11.91 166.81 168.09   11.78
   1   6   2 670.414 150.087   2 0.05235 0.07520 0.52495 0.07218-0.84952 0.99455  0 349.91 435.98  231.91 349.92 435.96  232.25
  -1  -6  -3 15804.7   333.0   1-0.58020 0.45257 0.06913-0.66544-0.81154 0.59361  0 153.18 335.33   45.68 153.32 335.15   45.66
  -1  -6  -3 22775.3   444.3   2-0.14454 0.01697-0.60584 0.00882 0.78235-0.99982  0 473.88 382.72   57.50 474.08 382.73   57.51
  -1  -6  -3 23134.7   420.8   2 0.11565-0.24321-0.01468-0.58244-0.99318 0.77563  0 246.87  88.11  199.60 246.65  88.27  199.60
  -1  -6   3 15527.8   352.9   1-0.69999 0.57235-0.41434-0.18217-0.58166 0.79952  0 136.55 271.33   77.39 136.61 271.33   77.46
  -1  -6   3 21170.3   442.3   2-0.22553 0.09798 0.05133-0.64814 0.97288-0.75519  0 454.68 401.17   16.97 454.89 401.15   17.19
  -1  -6   3 22062.0   418.6   2 0.12121-0.24879-0.65076 0.05380-0.74955 0.96706  0 227.21  98.38  159.77 227.17  98.54  159.73
  -1   6  -3 15140.8   368.5   1-0.63222 0.50457-0.06554 0.66205-0.77201 0.55416  2 503.21 175.51   53.87 503.30 175.76   54.24
  -1   6  -3 23224.8   457.7   2 0.11361-0.24117 0.01416 0.58297-0.99342 0.77588  0 451.13 403.74  201.07 451.29 403.71  201.26
  -1   6  -3 20773.3   408.6   2-0.23091 0.10341 0.58574 0.01109 0.77691-0.99458  0 224.15 100.41  343.99 223.94 100.63  343.96
  -1   6   3 14730.9   301.1   1-0.23794 0.11032 0.58426 0.01204-0.77590 0.99382  0 433.33  99.80    9.63 433.44  99.99    9.60
  -1   6   3 23797.2   435.8   2-0.21845 0.09090-0.05043 0.64724 0.97455-0.75685  0 206.55 112.71   22.99 206.47 112.83   23.04
  -1   6   3 23554.7   463.9   2 0.03041-0.15796 0.63849-0.04136-0.76903 0.98658  0 430.26 418.34  240.29 430.43 418.14  240.34
   1  -6  -3 14832.2   278.3   1-0.68010 0.80774-0.24485-0.35166-0.69102 0.47317  0 189.96 388.17   65.99 190.03 387.99   65.84
   1  -6  -3 24258.6   472.0   2-0.13510 0.26267-0.65229 0.05527 0.74583-0.96330  0 402.27 432.09   60.93 402.55 432.00   60.94
   1  -6  -3 23488.0   433.8   2 0.11233 0.01523 0.03398-0.63111-0.99309 0.77554  0 187.44 130.20  202.41 187.29 130.27  202.38
   1  -6   3 15447.0   340.2   1-0.67582 0.80346-0.63375 0.03724-0.37634 0.59419  0 146.77 319.71   94.97 146.82 319.64   94.79
   1  -6   3 20970.3   437.4   2-0.21902 0.34657-0.04298-0.55383 0.97477-0.75708  0 378.98 439.98   22.61 378.90 439.78   22.62
   1  -6   3 21841.7   414.5   2 0.12378 0.00379-0.61037 0.01341-0.78239 0.99990  0 174.08 145.69  162.79 174.08 145.69  162.71
   1   6  -3 20811.2   404.1   2-0.22581 0.35331 0.66096-0.06414 0.71564-0.93330  0 171.99 148.57  338.40 171.88 148.74  338.35
   1   6   3 14207.7   354.5   1-0.16393 0.29156 0.65598-0.05967-0.73676 0.95469  0 492.16 156.55    3.03 492.19 156.64    3.28
   1   6   3 22911.7   411.3   2-0.22522 0.35277 0.04486 0.55195 0.97327-0.75558  0 160.35 166.12   17.57 160.30 166.16   17.55
   1   6   3 22268.8   432.6   2 0.03261 0.09495 0.62809-0.03096-0.77745 0.99500  0 349.95 445.08  239.55 349.91 444.81  239.56
  -1  -6  -4  19.936  80.309   1-0.54892 0.42130 0.13670-0.73301-0.82462 0.53405  0 149.32 347.61   41.37 149.30 347.53   41.33
  -1  -6  -4  47.293 160.426   2-0.12456-0.00300-0.69829 0.10127 0.70490-0.99485  0 487.42 390.45   64.58 487.57 390.50   64.51
  -1  -6  -4 150.919 114.674   2 0.10908-0.23664 0.07553-0.67266-0.99116 0.70110  0 244.99  77.57  204.88 244.67  77.67  204.78
  -1  -6   4   3.220  87.664   1-0.69933 0.57169-0.48754-0.10897-0.52272 0.81320  0 127.52 260.92   82.45 127.33 260.91   82.85
  -1  -6   4 -36.711 161.347   2-0.23001 0.10247 0.13526-0.73207 0.96374-0.67348  0 461.10 415.56   12.56 460.79 415.27   12.35
  -1  -6   4 -56.110 101.989   2 0.11380-0.24138-0.73281 0.13585-0.67085 0.96088  0 218.13  91.59  152.94 218.43  92.01  153.21
  -1   6  -4  48.293 161.802   2 0.11917-0.24674-0.07304 0.67000-0.99018 0.70016  0 463.83 412.28  196.47 463.85 412.42  196.29
  -1   6  -4  79.842 113.255   2-0.22456 0.09706 0.67595-0.07912 0.70190-0.99213  0 221.44  90.29  337.13 221.31  90.32  337.18
  -1   6   4 -19.939 103.488   2-0.21139 0.08385-0.13347 0.73028 0.96825-0.67799  0 198.16 107.24   27.88 197.85 107.19   27.83
  -1   6   4  35.271 166.526   2 0.01118-0.13873 0.72139-0.12426-0.69244 0.98250  0 434.72 431.79  246.44 435.03 431.80  246.91
   1  -6  -4  11.652  69.031   1-0.66307 0.79071-0.16947-0.42704-0.72912 0.43864  0 191.24 402.47   61.12 191.12 402.48   60.91
   1  -6  -4  -5.479 166.376   2-0.11607 0.24364-0.73292 0.13590 0.67034-0.96030  0 413.57 441.75   67.36 413.87 442.01   67.37
   1  -6  -4 -64.322 109.019   2 0.10516 0.02240 0.11940-0.71653-0.98726 0.69720  0 183.72 120.60  207.48 183.63 120.36  207.32
   1  -6   4 -29.921  89.165   1-0.66030 0.78794-0.67958 0.08307-0.31965 0.61012  0 133.79 309.61   99.48 134.31 309.70   99.06
   1  -6   4  58.691 159.306   2-0.22509 0.35264 0.04269-0.63950 0.97340-0.68314  0 381.01 452.69   17.57 381.30 452.60   17.67
   1  -6   4  37.796 104.083   2 0.11714 0.01043-0.69986 0.10290-0.70461 0.99464  0 165.74 141.21  155.95 165.65 141.33  155.91
   1   6  -4  58.912 166.578   2 0.12188 0.00569-0.12204 0.71900-0.98501 0.69499  0 384.84 451.73  193.45 384.99 451.32  193.45
   1   6  -4 -42.787  97.706   2-0.21809 0.34559 0.73910-0.14227 0.63731-0.92754  0 167.54 138.95  331.54 167.62 138.91  331.97
   1   6   4  16.866  99.242   2-0.21889 0.34644-0.04466 0.64147 0.97473-0.68447  0 152.19 162.36   22.44 151.89 162.43   22.71
   1   6   4 -37.947 146.622   2 0.01200 0.11555 0.71809-0.12096-0.69585 0.98591  0 351.29 456.92  246.52 351.35 457.12  246.64
  -1  -6  -5  2176.2   172.1   1-0.51872 0.39109 0.19554-0.79184-0.83228 0.46907  0 143.08 361.17   37.54 143.23 360.96   37.52
  -1  -6  -5  3077.2   325.2   2-0.10429-0.02328-0.77686 0.17984 0.62097-0.98342  2 504.19 401.55   70.98 504.88 401.71   71.21
  -1  -6  -5  3116.8   233.7   2 0.10229-0.22984 0.15274-0.74987-0.98296 0.62038  0 241.46  64.05  209.00 241.28  64.27  209.25
  -1  -6   5  2390.1   191.8   1-0.69270 0.56506-0.55474-0.04177-0.46090 0.82399  0 116.42 250.08   88.23 116.19 250.13   88.09
  -1  -6   5  2838.3   320.2   2-0.23285 0.10530 0.20534-0.80215 0.95059-0.58776  0 469.10 432.93    8.38 469.31 433.04    8.25
  -1  -6   5  3262.1   238.1   2 0.10495-0.23251-0.80156 0.20426-0.58863 0.95090  0 208.05  83.18  147.29 208.00  83.32  147.01
  -1   6  -5  3048.3   317.0   2 0.12315-0.25072-0.14747 0.74443-0.98137 0.61884  0 479.90 424.48  191.96 479.92 424.62  191.98
  -1   6  -5  2466.7   222.3   2-0.21633 0.08883 0.75347-0.15664 0.62087-0.98365  0 217.37  77.24  330.98 217.20  77.45  330.71
  -1   6   5  3416.7   248.3   2-0.20443 0.07688-0.20347 0.80028 0.95750-0.59468  0 187.53  99.49   31.70 187.50  99.48   31.92
  -1   6   5  3201.4   328.1   2-0.00766-0.11986 0.79153-0.19429-0.61108 0.97359  0 441.97 449.38  253.37 441.90 449.14  253.17
   1  -6  -5  1870.0   143.8   1-0.64242 0.77006-0.09717-0.49934-0.76017 0.39707  0 190.21 418.79   56.28 190.21 418.49   56.26
   1  -6  -5  3033.8   225.1   1-0.01536 0.14307-0.79440 0.19785 0.60721-0.96974  0 435.08 453.09  167.66 435.14 452.74  168.20
   1  -6  -5  3357.3   318.4   2-0.09717 0.22474-0.80130 0.20428 0.59032-0.95276  0 427.54 455.59   73.42 427.84 455.75   73.50
   1  -6  -5  3070.8   239.4   2 0.09844 0.02911 0.19170-0.78883-0.97650 0.61393  0 178.41 108.16  211.56 178.34 108.22  211.52
   1  -6   5  2124.9   187.0   1-0.64189 0.76960-0.72004 0.12342-0.26366 0.62648  0 120.45 299.81  103.10 120.30 299.83  103.16
   1  -6   5  3044.7   310.9   2-0.22911 0.35666 0.11625-0.71306 0.96643-0.60361  0 385.17 469.16   13.43 385.43 469.14   13.45
   1  -6   5  3103.2   224.7   2 0.10858 0.01898-0.77587 0.17858-0.62147 0.98374  0 155.41 135.18  149.35 155.32 135.12  149.39
   1   6  -5  2991.8   312.5   2 0.12526 0.00231-0.19530 0.79226-0.97271 0.61018  0 397.81 465.75  188.98 397.89 465.82  189.19
   1   6  -5  2550.6   227.1   2-0.20890 0.33640 0.80470-0.20788 0.55571-0.91849  0 161.74 126.83  326.00 161.65 127.02  325.92
   1   6   5  3486.7   226.1   2-0.21247 0.34001-0.12171 0.71851 0.96956-0.60673  0 141.55 156.96   27.02 141.49 156.98   27.15
   1   6   5  2874.6   286.1   2-0.00822 0.13574 0.79342-0.19619-0.60862 0.97113  0 354.36 473.64  253.30 354.21 473.18  253.35
  -1  -6  -6  44.487  94.148   1-0.49133 0.36371 0.24497-0.84128-0.83581 0.39996  0 135.16 375.92   34.56 135.11 375.74   34.28
  -1  -6  -6  33.329 132.870   2 0.09576-0.22331 0.21673-0.81386-0.97152 0.53643  0 236.66  47.86  212.54 236.50  47.87  212.99
  -1  -6   6  85.842 108.911   1-0.68071 0.55307-0.61552 0.01901-0.39721 0.83292  0 102.60 238.67   93.41 103.07 238.77   93.17
  -1  -6   6 112.768 219.425   2-0.23449 0.10694 0.26218-0.85899 0.93610-0.50071  0 481.00 455.10    4.68 480.73 454.98    4.88
  -1  -6   6 104.949 135.000   2 0.09475-0.22231-0.85806 0.26076-0.50474 0.93946  0 195.87  72.26  142.12 195.89  72.38  141.19
  -1   6  -6  59.594 218.114   2 0.12579-0.25336-0.20920 0.80616-0.96975 0.53471  0 500.01 440.88  188.49 500.05 440.83  188.38
  -1   6  -6  25.050 137.612   2-0.20663 0.07913 0.81811-0.22128 0.53666-0.97199  0 211.47  62.19  324.53 211.59  61.80  324.56
  -1   6   6 130.259 135.595   2-0.19801 0.07046-0.26078 0.85759 0.94487-0.50948  0 175.53  89.71   35.68 175.31  89.70   35.29
  -1   6   6 120.440 218.534   2-0.02635-0.10117 0.84919-0.25196-0.52742 0.96244  0 451.11 470.54  259.28 451.26 470.72  259.08
   1  -6  -6  52.676  83.859   1-0.62021 0.74785-0.03123-0.56528-0.78381 0.34810  0 187.43 436.44   52.68 187.26 436.53   52.06
   1  -6  -6   2.147 147.113   1-0.14487 0.27257-0.85930 0.26275 0.49053-0.92556  0 439.33 476.05  157.48 439.58 476.04  157.54
   1  -6  -6 103.178 221.868   2-0.07871 0.20627-0.85763 0.26061 0.50822-0.94315  0 445.06 474.13   79.47 444.96 473.62   79.29
   1  -6  -6  28.853 134.267   2 0.09184 0.03571 0.25104-0.84817-0.96361 0.52852  0 171.25  93.45  215.02 171.31  93.66  215.02
   1  -6   6  52.340 107.221   1-0.62090 0.74861-0.75572 0.15910-0.20824 0.64363  0 104.15 289.64  107.43 104.50 289.72  107.13
   1  -6   6 216.270 209.767   2-0.23176 0.35931 0.17739-0.77420 0.95646-0.52107  0 391.33 489.79    9.57 391.29 489.91    9.89
   1  -6   6 235.783 129.039   2 0.09851 0.02906-0.83896 0.24166-0.53520 0.96992  0 142.83 127.22  143.56 142.97 127.14  143.26
   1   6  -6 -26.536 210.255   2 0.12707 0.00050-0.25507 0.85202-0.95854 0.52350  0 413.29 484.30  185.58 413.42 484.42  185.67
   1   6  -6  69.220 136.368   2-0.19865 0.32615 0.85832-0.26150 0.47309-0.90843  0 153.68 112.75  319.86 153.89 112.91  320.21
   1   6   6 141.363 127.330   2-0.20629 0.33384-0.18590 0.78271 0.96067-0.52528  0 129.56 149.79   31.05 128.95 149.85   30.88
   1   6   6 255.871 202.808   2-0.02823 0.15575 0.85449-0.25725-0.51870 0.95371  0 358.21 493.77  259.49 358.39 493.39  259.68
  -1  -6  -7  5271.2   248.1   1-0.46767 0.34004 0.28497-0.88128-0.83671 0.32821  0 124.86 392.62   31.64 124.75 392.38   31.62
  -1  -6  -7  8364.3   361.4   2 0.08986-0.21742 0.26822-0.86535-0.95916 0.45155  0 230.47  27.75  216.00 230.32  28.00  216.05
  -1  -6   7  5606.0   283.7   1-0.66408 0.53644-0.66969 0.07318-0.33243 0.84076  0  87.86 226.60   98.22  87.71 226.58   98.11
  -1  -6   7  6872.1   469.0   2-0.23521 0.10766 0.30697-0.90378 0.92220-0.41424  0 495.40 482.01    2.27 495.55 481.97    2.19
  -1  -6   7  7279.6   346.0   2 0.08362-0.21118-0.90310 0.30581-0.42120 0.92838  0 181.98  59.08  135.69 181.83  59.04  135.74
  -1   6  -7  6677.9   340.9   2-0.19585 0.06835 0.87051-0.27369 0.45149-0.95939  0 204.55  42.79  318.71 204.38  42.92  318.77
  -1   6   7  7776.1   351.1   2-0.19258 0.06503-0.30639 0.90320 0.93222-0.42427  0 161.07  77.54   37.95 161.00  77.64   38.02
  -1   6   7  7103.8   467.2   2-0.04431-0.08321 0.89522-0.29798-0.44342 0.95094  0 463.41 497.56  264.62 463.55 497.49  264.66
   1  -6  -7  5293.5   208.3   1-0.59812 0.72575 0.02638-0.62269-0.80097 0.29248  0 182.40 457.63   48.40 182.39 457.29   48.39
   1  -6  -7  7533.7   468.6   2-0.06119 0.18876-0.90275 0.30573 0.42579-0.93322  0 465.96 496.68   84.71 465.92 496.35   84.74
   1  -6  -7  7982.7   356.9   2 0.08621 0.04134 0.29849-0.89562-0.95051 0.44290  0 162.58  76.29  217.99 162.46  76.41  217.87
   1  -6   7  5560.6   276.1   1-0.59773 0.72544-0.78686 0.19024-0.15351 0.66147  0  86.96 279.08  110.79  86.69 279.20  110.97
   1  -6   7  6340.8   317.9   2 0.08729 0.04028-0.88961 0.29232-0.44830 0.95547  0 128.49 117.29  137.42 128.35 117.27  137.47
   1   6  -7  6150.9   330.6   2-0.18771 0.31521 0.90102-0.30419 0.39105-0.89895  0 144.29  96.21  314.73 144.15  96.38  314.83
   1   6   7  7577.4   325.8   2-0.20065 0.32820-0.23779 0.83460 0.95037-0.44241  0 114.46 141.06   34.01 114.08 141.05   33.94
  -1  -6  -8 252.512 133.070   1-0.44830 0.32067 0.31589-0.91220-0.83620 0.25507  0 111.97 411.33   29.60 111.99 411.43   29.53
  -1  -6   8 219.344 126.860   1-0.64333 0.51562-0.71724 0.12062-0.26776 0.84828  0  70.38 213.40  102.66  69.96 213.34  102.87
  -1  -6   8 322.874 179.618   2 0.07226-0.19983-0.93798 0.34069-0.33907 0.91869  0 165.15  42.92  130.57 165.45  42.95  130.60
  -1   6  -8 224.350 204.008   2-0.18438 0.05688 0.91178-0.31496 0.36695-0.94740  0 195.46  20.42  313.44 195.38  20.32  313.31
  -1   6   8 259.407 185.426   2-0.18818 0.06063-0.34155 0.93836 0.92083-0.34031  0 143.95  62.77   40.27 144.26  63.10   40.15
   1  -6  -8 146.206 107.698   1-0.57854 0.70617 0.07290-0.66921-0.81239 0.23125  0 175.53 481.26   45.40 175.52 481.53   45.42
   1  -6  -8 347.086 188.988   2 0.08150 0.04605 0.33528-0.93241-0.93859 0.35846  0 151.20  55.81  220.39 151.51  56.01  220.11
   1  -6   8  73.268 137.013   1-0.57256 0.70027-0.81380 0.21718-0.09951 0.68004  0  66.64 268.10  114.55  66.46 268.06  114.72
   1  -6   8 312.040 160.802   2 0.07558 0.05198-0.92898 0.33169-0.36233 0.94196  0 110.89 105.09  131.97 111.06 105.37  132.04
   1   6  -8 -24.564 163.020   2-0.17641 0.30391 0.93403-0.33721 0.31058-0.89103  0 132.83  77.35  310.08 132.19  76.97  309.79
   1   6   8 326.359 154.722   2-0.19595 0.32350-0.27836 0.87517 0.94028-0.35976  0  96.07 130.51   36.50  96.46 130.47   36.34
  -1  -6  -9 522.956 180.319   1-0.43367 0.30604 0.33827-0.93458-0.83517 0.18139  0  96.33 433.70   28.05  96.53 433.69   28.00
  -1  -6   9 691.057 188.186   1-0.61869 0.49098-0.75900 0.16238-0.20281 0.85590  0  49.47 198.27  107.39  49.06 198.36  107.51
  -1  -6   9 885.180 236.397   2 0.06081-0.18837-0.96396 0.36667-0.25900 0.91108  0 146.63  24.08  125.70 146.23  23.53  125.73
  -1   6   9 770.542 237.790   2-0.18457 0.05702-0.36754 0.96435 0.91151-0.25843  0 124.88  45.83   41.95 124.49  45.58   41.74
   1  -6  -9 985.489 246.593   2 0.07779 0.04976 0.36274-0.95987-0.92864 0.27600  0 138.07  31.87  221.95 138.01  31.72  221.80
   1  -6   9 576.263 170.328   1-0.54559 0.67329-0.83678 0.24016-0.04619 0.69928  0  43.19 255.93  118.40  43.20 256.00  118.38
   1  -6   9 818.525 213.749   2 0.06359 0.06397-0.95840 0.36111-0.27824 0.93033  0  90.70  90.96  126.95  90.54  91.14  126.88
   1   6  -9 972.238 227.064   2-0.16474 0.29224 0.95860-0.36177 0.23228-0.88528  0 117.63  53.88  305.46 117.53  54.02  305.01
   1   6   9  1073.4   203.3   2-0.19227 0.31982-0.30885 0.90566 0.93147-0.27839  0  75.33 117.67   38.28  75.48 117.89   38.16
   1  -6  10 871.151 254.947   2 0.05137 0.07619-0.97915 0.38185-0.19654 0.92108  0  66.08  74.07  122.17  65.91  74.10  121.99
  -1  -7   0  80.562  92.620   1-0.67821 0.55056-0.23528-0.46065-0.69619 0.69619  0 125.37 316.50   65.58 125.23 316.52   65.21
  -1  -7   0-172.401 176.876   2-0.19033 0.06278-0.32496-0.37132 0.92638-0.92638  0 488.76 415.97   39.44 489.02 415.97   39.14
  -1  -7   0 -30.142 114.984   2 0.12935-0.25692-0.38360-0.31285-0.91440 0.91440  0 226.40  73.21  178.12 226.39  72.87  177.87
  -1   7   0 -95.198 157.336   1-0.47531 0.34768 0.27235 0.42334-0.83660 0.83660  0 499.84 111.22   32.57 499.97 111.30   32.47
  -1   7   0  93.320 122.948   2-0.23534 0.10779 0.31671 0.37957 0.91886-0.91886  0 200.57  89.90    1.41 200.48  89.85    1.60
  -1   7   0 0.00920 181.371   2 0.07623-0.20378 0.37396 0.32269-0.92431 0.92431  0 458.93 438.50  222.70 458.59 438.44  222.50
   1  -7   0   6.434  90.290   1-0.69931 0.82695-0.48793-0.20800-0.52238 0.52238  0 148.44 368.83   82.96 148.63 368.71   82.88
   1  -7   0 -71.997 189.794   2-0.18096 0.30850-0.39297-0.30331 0.90157-0.90157  0 408.86 461.74   44.13 408.89 461.76   43.30
   1  -7   0   7.794 113.153   2 0.12877-0.00119-0.33632-0.36013-0.93290 0.93290  0 168.29 120.25  180.64 168.18 120.17  180.78
   1   7   0 -22.784 169.908   2 0.08016 0.04739 0.34533 0.35133-0.93505 0.93505  0 373.54 470.56  220.43 373.49 470.02  220.73
   1   7   0 -19.173 106.873   2-0.23669 0.36418 0.40303 0.29296 0.88405-0.88405  0 150.35 143.69  355.91 150.56 143.64  356.08
  -1  -7  -1  1555.4   174.4   1-0.66212 0.53448-0.16576-0.53017-0.73084 0.65822  0 127.56 328.03   60.66 127.54 327.81   60.67
  -1  -7  -1  2741.7   323.1   2-0.17640 0.04885-0.42387-0.27240 0.88838-0.96094  0 493.74 414.31   45.00 494.03 414.38   45.25
  -1  -7  -1  2838.2   228.5   2 0.12796-0.25553-0.28833-0.40812-0.94894 0.87644  0 228.97  69.53  183.65 228.97  69.74  183.68
  -1  -7   1  2338.2   193.3   1-0.69020 0.56256-0.30532-0.39061-0.65605 0.72866  0 121.17 305.51   69.68 121.06 305.60   69.88
  -1  -7   1  3148.7   316.1   2-0.20188 0.07433-0.22734-0.46894 0.95266-0.88010  0 486.65 420.65   32.94 486.90 420.73   33.32
  -1  -7   1  2434.9   226.2   2 0.12845-0.25602-0.47769-0.21876-0.86909 0.94159  0 222.33  73.40  172.02 222.26  73.52  171.85
  -1   7  -1  3219.1   315.5   2 0.08839-0.21594 0.28047 0.41618-0.95578 0.88327  0 463.60 437.78  216.67 463.73 437.71  216.78
  -1   7  -1  2633.5   230.1   2-0.23662 0.10913 0.41187 0.28412 0.87998-0.95256  0 202.85  86.44  355.55 202.82  86.51  355.52
  -1   7   1  1601.3   191.2   1-0.40862 0.28099 0.37526 0.32044-0.83199 0.90464  0 488.40  97.28   25.31 488.42  97.40   25.44
  -1   7   1  3020.1   235.7   2-0.23338 0.10583 0.22219 0.47409 0.94666-0.87409  0 196.73  90.93    7.19 196.75  90.95    7.25
  -1   7   1  3101.5   317.1   2 0.06207-0.18962 0.46696 0.22969-0.88210 0.95461  0 456.00 442.76  228.38 456.00 442.55  228.40
   1  -7  -1  1864.6   172.8   1-0.70037 0.82801-0.43268-0.26325-0.56769 0.49507  0 155.12 381.28   79.03 155.32 381.05   78.78
   1  -7  -1  2642.6   259.9   2-0.16707 0.29461-0.48374-0.21254 0.85912-0.93168  0 413.78 462.12   48.99 414.22 462.17   49.11
   1  -7  -1  2518.7   222.0   2 0.12663 0.00094-0.24029-0.45616-0.96241 0.88990  0 169.70 116.61  186.58 169.64 116.48  186.55
   1  -7   1  1871.0   187.6   1-0.69464 0.82228-0.54041-0.15552-0.47480 0.54742  0 140.27 357.23   86.97 140.44 357.15   86.94
   1  -7   1  2536.7   299.7   2-0.19316 0.32071-0.30169-0.39459 0.93364-0.86107  0 405.55 464.88   38.13 405.68 464.90   37.73
   1  -7   1  2844.8   230.2   2 0.12915-0.00158-0.43290-0.26354-0.89214 0.96465  0 165.11 121.97  174.70 165.00 121.81  174.75
   1   7  -1  3183.9   306.7   2 0.09237 0.03518 0.24644 0.45021-0.96475 0.89223  0 378.82 471.32  214.69 378.77 471.03  214.75
   1   7  -1  2820.2   222.2   2-0.23490 0.36239 0.49379 0.20221 0.83725-0.90983  0 151.51 139.51  350.29 151.65 139.67  350.21
   1   7   1  2811.8   226.7   2-0.23526 0.36281 0.31072 0.38556 0.92093-0.84836  0 147.48 145.82    1.98 147.46 145.73    1.96
   1   7   1  3147.9   298.9   2 0.06551 0.06204 0.44476 0.25189-0.89325 0.96577  0 370.06 472.61  227.03 369.90 472.44  226.96
  -1  -7  -2 13447.0   343.9   1-0.64279 0.51515-0.09838-0.59755-0.75969 0.61446  0 127.94 339.84   56.33 127.97 339.64   56.34
  -1  -7  -2 20811.3   493.2   2-0.16051 0.03294-0.52023-0.17629 0.83881-0.98379  0 501.97 416.03   51.54 502.20 416.08   51.55
  -1  -7  -2 22270.1   451.8   2 0.12527-0.25284-0.19542-0.50103-0.97269 0.82767  0 230.09  63.91  189.02 230.08  64.05  189.19
  -1  -7   2 14826.7   370.7   1-0.69784 0.57020-0.37428-0.32165-0.61068 0.75592  0 115.19 294.92   74.62 115.02 294.88   74.63
  -1  -7   2 20005.2   495.3   2-0.21130 0.08376-0.13445-0.56183 0.96813-0.82300  0 487.55 428.92   27.98 487.69 428.89   27.89
  -1  -7   2 21361.5   452.0   2 0.12588-0.25345-0.56749-0.12896-0.81370 0.95871  0 216.59  71.67  165.79 216.58  71.78  165.76
  -1   7  -2 20563.7   497.8   2 0.09863-0.22618 0.18979 0.50686-0.97686 0.83183  0 471.47 440.41  211.38 471.66 440.38  211.42
  -1   7  -2 19627.7   438.2   2-0.23456 0.10707 0.50506 0.19094 0.83060-0.97575  0 203.39  80.55  349.52 203.38  80.79  349.46
  -1   7   2 13384.5   349.3   1-0.32647 0.19884 0.48434 0.21135-0.81169 0.95697  0 479.81  81.65   17.48 479.87  82.03   17.52
  -1   7   2 21615.9   456.9   2-0.22986 0.10231 0.13185 0.56442 0.96425-0.81912  0 191.41  89.68   12.53 191.36  89.83   12.54
  -1   7   2 21547.5   508.4   2 0.04668-0.17423 0.55636 0.14029-0.82963 0.97466  0 455.71 450.17  234.37 455.96 450.05  234.40
   1  -7  -2 13799.1   312.5   1-0.69794 0.82558-0.37558-0.32035-0.60977 0.46453  0 160.18 394.58   74.72 160.40 394.39   74.72
   1  -7  -2 21878.4   516.0   2-0.15136 0.27893-0.57074-0.12578 0.80706-0.95204  0 421.41 465.95   55.00 421.66 465.87   55.01
   1  -7  -2 22363.2   462.8   2 0.12318 0.00439-0.14813-0.54832-0.98127 0.83626  0 169.36 110.63  192.00 169.38 110.68  191.94
   1  -7   2 15446.8   368.5   1-0.68659 0.81423-0.58955-0.10638-0.42548 0.57072  0 130.56 346.26   90.99 130.72 346.19   90.95
   1  -7   2 20426.8   493.1   2-0.20342 0.33097-0.21302-0.48326 0.95564-0.81051  0 404.20 471.63   32.44 404.42 471.46   32.48
   1  -7   2 20466.8   441.0   2 0.12742 0.00016-0.52666-0.16978-0.84047 0.98548  0 159.97 121.48  168.64 160.01 121.46  168.58
   1   7  -2 22389.5   507.4   2 0.10239 0.02516 0.15168 0.54497-0.98311 0.83808  0 385.66 475.69  208.99 385.97 475.60  209.19
   1   7  -2 19346.3   427.9   2-0.23121 0.35871 0.58006 0.11624 0.78107-0.92618  0 150.88 133.57  344.36 150.82 133.76  344.36
   1   7   2 21234.0   435.1   2-0.23332 0.36087 0.22027 0.47601 0.94712-0.80199  0 142.71 145.88    7.29 142.70 145.94    7.36
   1   7   2 21448.9   484.6   2 0.04953 0.07802 0.54084 0.15582-0.83967 0.98470  0 368.07 478.64  233.28 368.05 478.38  233.33
  -1  -7  -3 497.988 122.744   1-0.62149 0.49384-0.03478-0.66115-0.78265 0.56480  0 126.42 352.39   52.41 126.45 352.23   52.29
  -1  -7  -3 634.423 154.763   2 0.12119-0.24876-0.10789-0.58856-0.98675 0.76923  0 229.76  55.26  193.95 229.69  55.68  194.29
  -1  -7   3 436.056 129.867   1-0.70044 0.57280-0.44097-0.25496-0.56118 0.77904  0 107.20 284.04   79.34 107.08 284.20   79.39
  -1  -7   3 600.361 224.505   2-0.21855 0.09100-0.04911-0.64717 0.97459-0.75689  0 491.33 440.45   23.07 491.30 440.53   22.97
  -1  -7   3 562.889 154.781   2 0.12125-0.24882-0.65031-0.04614-0.74993 0.96745  0 209.45  67.69  160.06 209.30  67.66  159.76
  -1   7  -3 583.774 228.186   2 0.10649-0.23405 0.10469 0.59196-0.98879 0.77124  0 482.46 446.53  206.50 482.47 446.45  206.47
  -1   7  -3 505.933 150.290   2-0.23052 0.10302 0.59285 0.10345 0.77162-0.98928  0 202.23  72.38  343.38 202.20  72.62  343.45
  -1   7   3 474.454 167.616   1-0.22894 0.10131 0.59341 0.10228-0.77166 0.98958  0 474.03  64.88    8.82 474.10  64.60    8.83
  -1   7   3 644.794 161.451   2-0.22535 0.09780 0.04833 0.64794 0.97308-0.75538  0 184.24  86.77   17.28 184.26  86.51   17.36
  -1   7   3 563.873 227.462   2 0.03021-0.15776 0.63941 0.05724-0.76827 0.98582  0 458.33 461.47  240.48 458.29 461.12  240.41
   1  -7  -3 413.623 107.121   1-0.69188 0.81952-0.31770-0.37823-0.64836 0.43050  0 163.66 409.41   70.66 163.83 409.00   70.72
   1  -7  -3 727.043 231.762   2-0.13524 0.26280-0.65168-0.04484 0.74634-0.96381  0 431.80 473.40   61.13 431.53 473.23   60.89
   1  -7  -3 764.407 156.839   2 0.11859 0.00899-0.06265-0.63380-0.99097 0.77345  0 167.42 102.81  196.62 167.42 102.74  196.89
   1  -7   3 426.953 123.390   1-0.67545 0.80310-0.63501-0.06092-0.37487 0.59273  0 119.86 335.35   94.58 119.42 335.63   94.90
   1  -7   3 634.400 217.650   2-0.21173 0.33928-0.12978-0.56650 0.96867-0.75098  0 405.11 481.83   27.63 405.09 481.67   27.62
   1  -7   3 560.184 145.035   2 0.12354 0.00404-0.61458-0.08186-0.77912 0.99664  0 153.13 118.97  162.44 153.20 119.17  162.41
   1   7  -3 628.775 216.092   2 0.11004 0.01751 0.06409 0.63256-0.99186 0.77431  0 395.16 483.71  204.44 395.11 483.68  204.12
   1   7  -3 537.559 146.594   2-0.22594 0.35344 0.65938 0.03692 0.71706-0.93473  0 148.34 125.88  338.47 148.25 125.85  338.47
   1   7   3 637.074 139.557   2-0.22999 0.35753 0.13464 0.56164 0.96384-0.74614  0 136.08 144.31   12.28 135.99 144.31   12.38
   1   7   3 504.957 204.251   2 0.03214 0.09541 0.63031 0.06634-0.77568 0.99322  0 367.79 488.29  239.98 367.69 487.91  239.72
  -1  -7  -4  11.581 102.360   1-0.59913 0.47150 0.02394-0.71963-0.80030 0.50973  0 122.78 365.81   48.58 122.97 365.92   48.55
  -1  -7  -4 198.136 139.769   2 0.11634-0.24391-0.02817-0.66828-0.99281 0.70279  0 227.73  44.36  198.52 227.85  44.51  198.87
  -1  -7   4 -45.531 102.304   1-0.69828 0.57064-0.50427-0.19166-0.50804 0.79852  0  96.94 273.65   84.54  97.20 273.36   84.13
  -1  -7   4 158.689 235.944   2-0.22408 0.09654 0.02685-0.72312 0.97420-0.68394  0 497.62 456.02   18.42 497.80 456.09   18.58
  -1  -7   4 204.343 148.290   2 0.11473-0.24231-0.72439 0.02794-0.67977 0.96980  0 200.47  61.00  154.03 200.36  61.15  153.91
  -1   7  -4 149.726 227.070   2 0.11283-0.24038 0.02750 0.66915-0.99323 0.70317  0 496.75 456.23  202.00 496.85 456.37  202.01
  -1   7  -4  47.218 139.726   2-0.22482 0.09732 0.67289 0.02341 0.70475-0.99498  0 199.79  61.52  337.61 199.53  61.82  337.42
  -1   7   4 123.083 137.589   2-0.22026 0.09271-0.02651 0.72279 0.97508-0.68482  0 175.48  80.99   21.54 175.36  81.03   21.67
  -1   7   4  33.705 232.305   2 0.01298-0.14053 0.71416-0.01751-0.69986 0.98992  0 463.47 476.29  246.47 463.13 476.11  246.31
   1  -7  -4 210.765 101.181   1-0.68309 0.81073-0.26085-0.43508-0.68217 0.39169  0 165.66 425.17   66.56 165.58 425.18   66.90
   1  -7  -4 233.922 241.496   2-0.11816 0.24573-0.72459 0.02807 0.67897-0.96893  0 444.52 484.44   66.53 444.14 484.39   66.67
   1  -7  -4 -67.885 136.292   2 0.11362 0.01393 0.01404-0.71069-0.99342 0.70336  0 163.41  92.45  201.47 163.61  92.47  201.26
   1  -7   4 -15.234 113.798   1-0.66145 0.78910-0.67663-0.01930-0.32349 0.61397  0 106.79 325.04   98.58 106.48 325.33   98.77
   1  -7   4 -53.712 224.413   2-0.21816 0.34571-0.05408-0.64220 0.97441-0.68415  0 407.43 495.07   23.45 407.63 495.76   23.25
   1  -7   4  73.476 130.549   2 0.11764 0.00994-0.69438-0.00206-0.70992 0.99995  0 144.24 114.61  156.40 144.43 114.90  156.35
   1   7  -4 -83.477 225.951   2 0.11563 0.01193-0.01431 0.71096-0.99319 0.70313  0 406.66 496.12  199.41 406.57 495.70  199.62
   1   7  -4 163.704 135.118   2-0.21907 0.34657 0.73018-0.03388 0.64719-0.93741  0 144.20 115.97  333.05 143.87 115.80  332.74
   1   7   4 -93.826 119.213   2-0.22583 0.35338 0.05626 0.64001 0.97254-0.68228  0 127.39 140.75   16.60 127.24 140.89   16.91
   1   7   4 245.185 209.776   2 0.01383 0.11373 0.71071-0.01406-0.70335 0.99341  2 368.58 500.97  246.45 368.82 501.33  246.03
  -1  -7  -5  4761.8   257.0   1-0.57717 0.44954 0.07602-0.77171-0.81308 0.44987  0 117.52 381.05   45.00 117.33 380.92   45.22
  -1  -7  -5  7591.2   355.8   2 0.11171-0.23926 0.04193-0.73858-0.99286 0.63028  0 224.61  30.08  203.01 224.42  30.12  202.84
  -1  -7   5  5102.2   271.9   1-0.69136 0.56372-0.56351-0.13242-0.45219 0.81528  0  85.49 262.21   88.80  85.25 262.19   88.80
  -1  -7   5  6546.2   338.1   2 0.10679-0.23436-0.78862 0.09177-0.60554 0.96781  0 189.61  52.12  147.99 189.54  52.12  148.22
  -1   7  -5  5625.1   320.3   2-0.21753 0.09003 0.74379-0.04749 0.63203-0.99481  0 195.51  47.81  331.62 195.27  48.21  331.56
  -1   7   5  7452.0   346.3   2-0.21501 0.08747-0.09169 0.78797 0.97230-0.60947  0 164.62  73.18   25.40 164.56  73.29   25.42
  -1   7   5  6393.1   471.3   2-0.00416-0.12335 0.77949-0.08272-0.62640 0.98891  0 470.60 495.62  251.97 470.64 495.48  252.03
   1  -7  -5  4710.6   223.0   1-0.67200 0.79964-0.20661-0.48932-0.71115 0.34805  0 165.54 443.66   63.30 165.59 443.40   63.33
   1  -7  -5  6413.7   338.0   1 0.00925 0.11845-0.77900 0.08303 0.62695-0.98948  0 473.92 494.79  170.01 473.93 494.36  170.21
   1  -7  -5  7281.9   470.2   2-0.10089 0.22845-0.78846 0.09194 0.60676-0.96920  0 459.86 500.16   72.32 459.96 499.99   72.28
   1  -7  -5  7835.4   357.3   2 0.10860 0.01895 0.08118-0.77783-0.99076 0.62819  0 158.21  79.50  204.97 158.12  79.69  205.10
   1  -7   5  5226.5   273.1   1-0.64478 0.77249-0.71436 0.01830-0.27193 0.63476  0  91.99 315.12  102.55  91.80 315.16  102.57
   1  -7   5  6224.1   313.4   2 0.11000 0.01757-0.76465 0.06820-0.63499 0.99752  0 133.67 108.72  150.41 133.57 108.64  150.46
   1   7  -5  6062.1   320.1   2-0.21096 0.33846 0.79168-0.09538 0.57335-0.93614  0 137.60 103.33  327.17 137.60 103.57  327.19
   1   7   5  7150.2   318.0   2-0.22129 0.34884-0.01324 0.70951 0.97512-0.61229  0 116.59 135.63   21.03 116.28 135.70   20.90
  -1  -7  -6  6194.4   281.6   1-0.55652 0.42889 0.12098-0.81668-0.82198 0.38613  0 109.60 398.01   42.33 109.51 397.69   42.35
  -1  -7  -6  9747.2   402.9   2 0.10671-0.23426 0.10228-0.79893-0.98902 0.55392  0 219.81  12.06  206.27 219.64  12.33  206.33
  -1  -7   6  7206.9   327.2   1-0.68004 0.55240-0.61816-0.07777-0.39423 0.82995  0  71.28 250.37   93.37  71.05 250.46   93.41
  -1  -7   6  9351.7   394.1   2 0.09768-0.22524-0.84329 0.14644-0.52851 0.96323  0 176.94  40.67  142.79 176.81  40.61  142.80
  -1   7  -6  8331.8   394.5   2-0.20887 0.08137 0.80492-0.10862 0.55541-0.99075  0 189.52  31.19  326.00 189.30  31.45  325.90
  -1   7   6  9923.6   400.2   2-0.21015 0.08261-0.14695 0.84323 0.96656-0.53117  0 151.66  63.06   28.58 151.62  63.17   28.61
   1  -7  -6  6258.0   242.1   1-0.65970 0.78734-0.15691-0.53902-0.73497 0.29926  0 163.71 464.60   60.15 163.84 464.22   60.10
   1  -7  -6  9785.0   398.7   2 0.10351 0.02405 0.13825-0.83490-0.98497 0.54988  0 150.89  64.19  208.44 150.71  64.21  208.41
   1  -7   6  6785.8   317.3   1-0.62561 0.75332-0.74842 0.05237-0.22017 0.65556  0  75.22 304.78  106.08  75.01 304.82  106.28
   1  -7   6  9588.8   381.3   2 0.10116 0.02641-0.82450 0.12766-0.55674 0.99147  0 120.89 100.47  144.68 120.43 100.47  144.74
   1   7  -6  8018.7   376.8   2-0.20177 0.32927 0.84378-0.14748 0.49731-0.93265  0 129.46  88.64  322.00 129.27  88.85  321.84
   1   7   6  9868.6   377.3   2-0.21656 0.34411-0.07314 0.76941 0.97353-0.53814  0 103.15 128.63   24.17 102.97 128.71   24.35
  -1  -7  -7 820.254 177.660   1-0.53806 0.41043 0.15844-0.85413-0.82788 0.31939  0  99.24 416.79   39.69  99.27 416.85   39.93
  -1  -7   7 958.369 180.766   1-0.66474 0.53710-0.66789-0.02804-0.33472 0.84305  0  54.88 237.99   97.71  54.23 237.86   97.93
  -1  -7   7  1076.2   230.7   2 0.08757-0.21513-0.88851 0.19167-0.45042 0.95759  0 161.82  26.09  138.14 161.80  26.19  137.61
  -1   7  -7  1019.0   240.4   2-0.19910 0.07160 0.85626-0.15996 0.47663-0.98452  0 181.33  10.64  320.52 181.49  10.97  320.44
  -1   7   7  1260.9   238.7   2-0.20561 0.07806-0.19255 0.88882 0.95950-0.45155  0 135.97  49.93   31.47 136.23  50.47   31.27
   1  -7  -7 647.433 135.168   1-0.64754 0.77518-0.11371-0.58222-0.75350 0.24517  0 160.47 488.84   57.49 160.33 488.53   57.32
   1  -7  -7  1269.4   242.0   2 0.09907 0.02849 0.18555-0.88220-0.97763 0.47002  0 141.37  45.58  210.96 141.18  45.57  211.17
   1  -7   7  1026.6   183.1   1-0.60424 0.73195-0.77881 0.08276-0.16836 0.67631  0  56.26 293.97  109.69  55.80 294.11  109.94
   1  -7   7  1120.3   211.9   2 0.09096 0.03660-0.87461 0.17777-0.47622 0.98339  0 104.44  89.93  139.00 104.65  90.06  139.30
   1   7  -7 910.856 223.961   2-0.19165 0.31915 0.88684-0.19054 0.42046-0.92835  0 119.19  71.58  317.00 118.62  71.28  316.73
   1   7   7  1567.1   223.0   2-0.21233 0.33988-0.12320 0.81948 0.96940-0.46145  0  86.86 119.83   27.31  86.86 119.82   27.24
  -1  -7  -8  7074.8   350.1   1-0.52263 0.39500 0.18821-0.88390-0.83153 0.25039  0  86.44 439.33   38.01  86.34 439.11   38.00
  -1  -7   8  7776.1   364.1   1-0.64583 0.51812-0.71238 0.01632-0.27463 0.85515  0  34.67 224.06  102.35  34.50 224.19  102.36
  -1  -7   8 10704.4   475.0   2 0.07693-0.20449-0.92492 0.22807-0.37230 0.95193  2 144.03   8.38  132.59 144.03   8.44  132.66
  -1   7   8  9146.0   456.8   2-0.20169 0.07414-0.22908 0.92536 0.95228-0.37176  0 118.27  34.83   33.36 117.89  34.80   33.43
   1  -7  -8  9155.9   466.7   2 0.09500 0.03255 0.22363-0.92028-0.97003 0.38991  0 129.31  23.01  213.42 129.08  23.11  213.40
   1  -7   8  7722.2   366.3   1-0.58068 0.70839-0.80572 0.10967-0.11673 0.69725  0  33.82 282.74  113.49  33.62 282.82  113.53
   1  -7   8 10240.8   448.2   2 0.08013 0.04744-0.91514 0.21829-0.39510 0.97473  0  85.92  77.22  133.99  85.74  77.25  134.09
   1   7  -8  8597.0   450.9   2-0.18116 0.30866 0.92144-0.22514 0.34369-0.92414  0 105.55  50.05  311.71 105.26  50.32  311.85
   1   7   8  9848.6   423.2   2-0.20848 0.33603-0.16388 0.86016 0.96420-0.38368  0  67.78 108.77   29.58  67.48 108.84   29.60
  -1  -8   0  5481.5   276.2   1-0.68911 0.56147-0.29732-0.49802-0.66085 0.66085  0  92.63 333.87   69.35  92.60 333.76   69.35
  -1  -8   0  7794.6   361.1   2 0.12918-0.25675-0.42890-0.36704-0.89407 0.89407  0 205.80  35.08  175.22 205.83  35.13  175.01
  -1   8   0  8010.4   486.1   2 0.06937-0.19692 0.41942 0.37675-0.90514 0.90514  0 495.46 492.14  225.34 495.57 492.01  225.34
  -1   8   0  7400.6   355.4   2-0.23687 0.10938 0.36996 0.42546 0.89834-0.89834  0 174.83  57.64  358.00 174.95  57.84  358.15
   1  -8   0  5417.3   259.4   1-0.69698 0.82462-0.51977-0.27558-0.49402 0.49402  0 117.80 390.64   85.31 117.76 390.50   85.33
   1  -8   0  7676.5   349.2   2 0.12936-0.00178-0.38746-0.40848-0.91277 0.91277  0 143.74  88.52  177.65 143.84  88.57  177.63
   1   8   0  7540.0   331.4   2-0.23618 0.36367 0.44579 0.34964 0.86342-0.86342  0 122.29 117.60  353.35 122.19 117.73  353.35
  -1  -8  -1  5009.1   274.1   1-0.67893 0.55129-0.23888-0.55646-0.69426 0.62164  0  95.38 346.20   65.41  95.30 346.07   65.45
  -1  -8  -1  6606.6   346.0   2 0.12896-0.25653-0.34756-0.44838-0.92875 0.85624  0 208.53  31.45  179.93 208.58  31.55  180.10
  -1  -8   1  4706.3   270.9   1-0.69634 0.56869-0.35636-0.43899-0.62300 0.69561  0  87.95 322.07   73.35  87.93 321.99   73.38
  -1  -8   1  6920.1   350.1   2 0.12782-0.25539-0.50950-0.28644-0.85093 0.92343  0 201.48  36.00  169.73 201.47  36.03  169.74
  -1   8  -1  6347.7   474.8   2 0.08098-0.20853 0.33922 0.45695-0.93722 0.86470  2 501.68 491.61  220.27 501.74 491.51  220.35
  -1   8  -1  6190.4   341.4   2-0.23607 0.10858 0.45189 0.34353 0.86027-0.93284  0 177.12  53.96  353.01 177.16  54.06  352.96
  -1   8   1  6942.9   359.2   2-0.23497 0.10742 0.28912 0.50663 0.92801-0.85545  0 170.76  58.98    3.26 170.78  59.19    3.27
  -1   8   1  6331.8   479.5   2 0.05678-0.18433 0.49944 0.29673-0.86449 0.93700  0 492.40 496.53  230.51 492.55 496.45  230.53
   1  -8  -1  4185.8   250.0   1-0.69984 0.82748-0.47482-0.32052-0.53363 0.46101  0 124.77 404.22   82.00 124.69 404.05   81.88
   1  -8  -1  6611.7   341.5   2 0.12827-0.00070-0.30497-0.49097-0.94368 0.87118  0 145.38  84.54  182.70 145.40  84.57  182.68
   1  -8   1  4900.7   261.0   1-0.69137 0.81901-0.56348-0.23187-0.45222 0.52484  0 109.40 378.00   88.84 109.22 377.97   88.80
   1  -8   1  6502.4   332.7   2 0.12858-0.00101-0.47042-0.32552-0.87303 0.94553  0 140.41  90.36  172.40 140.39  90.41  172.32
   1   8  -1  6152.2   321.0   2-0.23378 0.36128 0.52356 0.27221 0.81928-0.89184  0 123.40 113.35  348.17 123.25 113.53  348.29
   1   8   1  6226.3   315.5   2-0.23687 0.36436 0.36714 0.42829 0.89950-0.82693  0 119.24 120.00  358.13 119.06 120.03  358.33
  -1  -8  -2  86.029 128.334   1-0.66626 0.53861-0.18220-0.61314-0.72312 0.57788  0  96.56 358.96   61.67  96.04 359.13   61.74
  -1  -8  -2  -9.789 156.267   2 0.12746-0.25503-0.26784-0.52810-0.95499 0.80998  0 209.71  25.25  184.43 209.78  25.21  184.91
  -1  -8   2-227.187 114.563   1-0.69996 0.57232-0.41498-0.38036-0.58125 0.72648  0  81.33 310.52   77.63  81.27 310.54   77.50
  -1  -8   2  16.183 170.356   2 0.12490-0.25247-0.58714-0.20880-0.79979 0.94481  0 195.59  34.75  164.53 195.50  34.34  164.37
  -1   8  -2  34.643 165.980   2-0.23347 0.10597 0.53231 0.26346 0.81372-0.95883  0 177.20  47.74  347.53 177.55  47.80  347.69
  -1   8   2 -95.782 154.827   2-0.23303 0.10548 0.21084 0.58491 0.94934-0.80421  0 165.11  57.98    7.93 165.11  58.20    7.93
   1  -8  -2 -80.811 104.606   1-0.70032 0.82796-0.42944-0.36590-0.57020 0.42496  0 130.03 418.85   78.57 130.11 418.91   78.55
   1  -8  -2 108.494 158.162   2 0.12614 0.00143-0.22517-0.57077-0.96612 0.82111  0 144.96  78.29  187.54 145.15  78.34  187.44
   1  -8   2  42.823 124.373   1-0.68314 0.81079-0.60539-0.18995-0.40843 0.55366  0  98.54 366.50   92.55  99.02 366.21   92.30
   1  -8   2  28.066 150.286   2 0.12656 0.00102-0.55136-0.24459-0.82462 0.96963  0 135.27  90.13  166.57 135.06  90.15  166.88
   1   8  -2  12.167 150.770   2-0.23022 0.35772 0.59819 0.19758 0.76757-0.91269  0 122.29 107.12  342.92 122.44 107.24  343.07
   1   8   2 -94.241 146.336   2-0.23498 0.36252 0.28978 0.50597 0.92780-0.78267  0 113.48 120.14    3.49 113.73 120.45    3.23
  -1  -8  -3  3005.7   240.3   1-0.65185 0.52421-0.12842-0.66693-0.74739 0.52953  0  94.77 373.46   58.12  94.79 373.19   58.27
  -1  -8  -3  4451.5   324.5   2 0.12513-0.25270-0.19196-0.60398-0.97339 0.75588  0 209.45  15.71  189.32 209.46  15.91  189.39
  -1  -8   3  2879.4   246.0   1-0.69993 0.57229-0.47220-0.32315-0.53584 0.75370  0  72.65 299.22   81.84  72.55 299.19   81.69
  -1  -8   3  4515.0   340.4   2 0.12057-0.24814-0.65991-0.13603-0.74161 0.95913  0 187.70  29.93  158.99 187.81  30.04  159.04
  -1   8  -3  3743.4   325.0   2-0.22968 0.10218 0.60878 0.18699 0.75936-0.97703  0 176.50  38.68  342.25 176.34  38.85  342.29
  -1   8   3  4498.7   331.3   2-0.23011 0.10257 0.13742 0.65832 0.96341-0.74572  0 157.46  54.67   12.00 157.57  54.88   12.22
   1  -8  -3  2603.0   219.6   1-0.69856 0.82620-0.38458-0.41077-0.60342 0.38556  0 133.69 435.40   75.32 133.91 435.43   75.35
   1  -8  -3  4297.6   324.1   2 0.12327 0.00430-0.15008-0.64586-0.98096 0.76344  0 143.11  69.86  191.71 143.04  69.74  191.83
   1  -8   3  3166.6   242.4   1-0.67241 0.80005-0.64508-0.15027-0.36295 0.58080  0  87.25 355.06   95.86  87.07 355.02   95.81
   1  -8   3  3500.6   300.7   2 0.12273 0.00484-0.62821-0.16773-0.76830 0.98582  0 127.81  87.87  161.47 127.71  87.80  161.41
   1   8  -3  3664.6   308.2   2-0.22524 0.35274 0.66797 0.12780 0.70929-0.92695  0 119.93  98.65  338.02 119.61  98.87  337.81
   1   8   3  4569.1   305.1   2-0.23319 0.36074 0.21586 0.57989 0.94817-0.73048  0 106.75 118.98    7.61 106.50 118.96    7.63
  -1  -8  -4 -91.315 137.074   1-0.63653 0.50889-0.07860-0.71675-0.76723 0.47676  0  91.11 388.49   55.30  91.40 388.62   55.08
  -1  -8   4 407.722 142.958   1-0.69615 0.56851-0.52720-0.26815-0.48727 0.77775  0  61.97 287.57   85.55  61.67 287.79   85.90
  -1  -8   4 216.026 192.329   2 0.11453-0.24210-0.72634-0.06960-0.67773 0.96775  0 178.20  23.19  153.56 178.26  23.07  153.75
  -1   8  -4 265.250 195.740   2-0.22422 0.09672 0.67978 0.11600 0.69830-0.98853  0 173.59  27.17  337.02 173.36  26.96  336.88
  -1   8   4 326.170 195.880   2-0.22663 0.09908 0.07036 0.72538 0.97144-0.68118  0 148.03  48.77   16.54 148.02  49.12   16.10
   1  -8  -4 224.061 133.134   1-0.69483 0.82247-0.34127-0.45408-0.63305 0.34257  0 136.12 453.45   71.95 136.11 454.06   72.34
   1  -8  -4 138.725 181.503   2 0.11966 0.00791-0.08131-0.71463-0.98948 0.69946  0 139.46  58.92  196.08 139.02  58.61  195.81
   1  -8   4  40.800 146.288   1-0.65924 0.78689-0.68223-0.11312-0.31617 0.60664  0  73.16 344.29   99.52  73.22 344.22   99.31
   1  -8   4 367.468 179.665   2 0.11720 0.01038-0.69922-0.09672-0.70523 0.99526  0 118.20  83.24  155.56 118.20  83.33  155.96
   1   8  -4 123.302 174.493   2-0.21891 0.34641 0.73157 0.06420 0.64566-0.93589  0 114.48  88.23  332.56 114.76  88.17  332.62
   1   8   4  81.439 164.130   2-0.23055 0.35810 0.14713 0.64862 0.96187-0.67161  0  97.33 115.57   12.01  97.01 115.60   11.66
  -1  -8  -5 329.539 157.637   1-0.62108 0.49344-0.03365-0.76169-0.78302 0.41993  0  85.74 405.71   52.63  85.81 405.83   52.22
  -1  -8   5 360.707 159.237   1-0.68855 0.56091-0.57939-0.21596-0.43612 0.79921  0  48.30 276.22   90.32  48.41 276.09   90.10
  -1  -8   5 559.562 226.245   2 0.10726-0.23483-0.78534-0.01106-0.60971 0.97197  0 166.63  12.87  148.56 166.54  13.15  148.53
  -1   8  -5 233.130 212.035   2-0.21750 0.09000 0.74398 0.05179 0.63181-0.99459  0 168.85  12.15  331.54 168.54  11.87  331.54
  -1   8   5 264.476 220.780   2-0.22289 0.09534 0.01063 0.78512 0.97479-0.61196  0 136.20  40.92   19.60 136.20  40.83   19.52
   1  -8  -5 264.324 142.923   1-0.68954 0.81718-0.30066-0.49469-0.65889 0.29580  0 136.65 475.57   69.58 136.71 475.40   69.57
   1  -8  -5 215.943 209.369   2 0.11577 0.01181-0.01988-0.77606-0.99308 0.63055  0 133.03  44.82  199.47 132.95  44.63  199.35
   1  -8   5 200.957 150.841   1-0.64365 0.77136-0.71661-0.07888-0.26867 0.63149  0  57.49 333.56  102.62  57.31 333.67  102.80
   1  -8   5 326.930 194.885   2 0.11025 0.01732-0.76312-0.03282-0.63678 0.99931  0 106.65  76.85  150.55 106.32  76.62  150.59
   1   8  -5 197.265 194.778   2-0.21149 0.33899 0.78817 0.00760 0.57798-0.94076  0 107.50  74.95  327.53 107.72  75.02  327.52
   1   8   5 199.412 183.040   2-0.22744 0.35499 0.08495 0.71079 0.97008-0.60725  0  84.76 110.40   15.15  85.00 110.30   15.26
  -1  -8  -6 985.062 195.702   1-0.60643 0.47879 0.00565-0.80099-0.79512 0.35940  0  77.64 425.90   49.62  77.73 425.45   49.72
  -1  -8   6 740.673 188.874   1-0.67737 0.54973-0.62823-0.16711-0.38275 0.81846  0  32.24 263.76   94.35  32.44 263.80   94.29
  -1   8   6  1276.3   267.8   2-0.21915 0.09160-0.04129 0.83703 0.97482-0.53943  0 121.82  29.62   22.50 121.92  29.91   22.52
   1  -8  -6 821.010 168.582   1-0.68371 0.81136-0.26437-0.53098-0.68018 0.24447  2 135.72 500.42   67.30 135.73 500.30   67.14
   1  -8  -6  1207.9   261.5   2 0.11236 0.01519 0.03352-0.82970-0.99310 0.55801  0 124.69  27.32  202.44 124.41  27.26  202.36
   1  -8   6 666.196 188.493   1-0.62572 0.75343-0.74825-0.04724-0.22044 0.65583  0  38.86 322.96  106.39  38.82 323.02  106.26
   1  -8   6 630.048 223.572   2 0.10211 0.02545-0.81896 0.02256-0.56470 0.99942  0  91.07  67.19  144.95  91.70  67.66  145.30
   1   8  -6  1112.2   254.8   2-0.20305 0.33055 0.83736-0.04159 0.50754-0.94287  0  98.03  58.72  322.54  98.23  58.96  322.54
   1   8   6 833.719 214.645   2-0.22430 0.35185 0.03021 0.76554 0.97405-0.53866  0  70.31 102.93   18.33  70.15 103.03   18.39
  -1  -9   0 -88.153 151.051   1-0.69641 0.56877-0.35714-0.53762-0.62247 0.62247  0  53.33 355.14   73.48  53.31 355.30   73.44
  -1   9   0  30.517 212.409   2-0.23652 0.10902 0.42281 0.47204 0.87481-0.87481  0 143.73  18.60  354.98 143.31  18.27  354.83
   1  -9   0  46.252 161.842   1-0.69262 0.82026-0.55529-0.33947-0.46036 0.46036  0  80.99 418.36   88.41  80.89 418.51   88.13
   1  -9   0  80.143 209.536   2 0.12910-0.00153-0.43841-0.45702-0.88945 0.88945  0 113.55  49.99  174.37 113.37  49.95  174.40
   1   9   0 152.985 192.367   2-0.23510 0.36259 0.49000 0.40485 0.83942-0.83942  0  87.12  86.70  350.68  86.94  86.75  350.46
  -1  -9  -1 478.239 182.088   1-0.69055 0.56291-0.30780-0.58696-0.65452 0.58190  0  56.18 369.13   70.50  56.43 369.04   70.05
  -1  -9   1  95.560 172.907   1-0.69973 0.57208-0.40725-0.48751-0.58697 0.65958  0  47.83 342.27   76.92  48.00 342.32   76.96
  -1   9  -1 492.417 229.781   2-0.23490 0.10740 0.49388 0.40097 0.83720-0.90977  0 145.43  13.45  350.43 145.63  13.87  350.20
   1  -9  -1 407.527 172.647   1-0.69708 0.82472-0.51870-0.37607-0.49501 0.42239  0  88.58 433.18   84.91  88.33 433.83   85.24
   1  -9  -1 414.343 225.555   2 0.12912-0.00155-0.36674-0.52869-0.92132 0.84881  0 114.96  45.50  178.53 115.05  45.45  178.92
   1  -9   1 186.496 178.808   1-0.68615 0.81380-0.59167-0.30310-0.42323 0.49585  0  72.05 404.09   90.95  71.71 404.58   91.13
   1  -9   1 452.759 223.647   2 0.12779-0.00022-0.51039-0.38504-0.85039 0.92290  0 109.96  52.11  169.55 109.56  52.03  169.68
   1   9  -1 225.602 202.792   2-0.23243 0.35993 0.55734 0.33790 0.79708-0.86964  0  88.16  82.21  345.57  88.02  82.10  345.96
   1   9   1 356.778 202.259   2-0.23652 0.36402 0.42218 0.47268 0.87511-0.80254  0  83.78  89.52  354.95  83.52  89.36  354.87
  -1  -9  -2 929.159 200.848   1-0.68294 0.55530-0.26005-0.63472-0.68262 0.53738  0  57.04 384.04   66.67  57.37 383.84   66.85
  -1  -9   2  1110.2   206.1   1-0.70029 0.57265-0.45735-0.43742-0.54812 0.69335  0  40.84 329.84   80.55  40.45 329.84   80.59
  -1   9   2  1394.9   279.4   2-0.23495 0.10740 0.28429 0.61092 0.92950-0.78437  0 132.28  18.70    3.53 132.54  18.93    3.56
   1  -9  -2  1105.4   186.7   1-0.69953 0.82717-0.48251-0.41226-0.52711 0.38188  0  94.24 450.87   82.30  94.05 450.92   82.46
   1  -9  -2  1339.2   260.0   2 0.12811-0.00054-0.29706-0.59838-0.94623 0.80121  0 114.53  38.24  182.98 114.64  38.39  183.16
   1  -9   2  1312.5   205.7   1-0.67764 0.80528-0.62725-0.26751-0.38388 0.52911  0  60.43 392.08   94.28  60.60 391.72   94.21
   1  -9   2  1610.0   264.8   2 0.12520 0.00237-0.58095-0.31448-0.80425 0.94926  0 104.18  52.02  165.05 103.61  51.76  164.81
   1   9  -2  1178.8   249.5   2-0.22875 0.35625 0.62237 0.27287 0.74855-0.89366  0  86.63  74.87  340.95  86.97  75.21  341.29
  -1  -9  -3 651.386 197.369   1-0.67390 0.54625-0.21475-0.68001-0.70693 0.48907  0  56.06 400.29   63.65  56.05 400.07   63.86
  -1  -9   3 693.338 197.923   1-0.69811 0.57047-0.50661-0.38816-0.50595 0.72381  0  30.08 317.69   84.54  30.55 317.63   84.31
  -1   9   3 780.753 261.470   2-0.23330 0.10575 0.21956 0.67565 0.94729-0.72960  0 123.95  15.14    7.47 124.14  15.26    7.41
   1  -9  -3 496.830 187.793   1-0.70038 0.82802-0.44754-0.44723-0.55604 0.33818  0  97.83 470.70   80.06  98.16 470.26   79.86
   1  -9  -3 868.845 252.818   2 0.12633 0.00124-0.23087-0.66456-0.96475 0.74723  0 111.95  28.56  187.00 112.09  28.61  187.10
   1  -9   3 449.462 183.125   1-0.66696 0.79460-0.66160-0.23317-0.34272 0.56058  0  47.81 379.44   97.44  47.48 379.67   97.34
   1  -9   3 749.015 241.723   2 0.12138 0.00620-0.64848-0.24695-0.75149 0.96901  0  95.72  49.26  159.68  95.34  49.11  159.90
   1   9  -3 750.464 241.357   2-0.22385 0.35135 0.68388 0.21136 0.69440-0.91207  0  83.57  65.74  336.64  83.54  65.85  336.56
   1   9   3 932.650 245.049   2-0.23500 0.36255 0.29113 0.60408 0.92737-0.70968  0  69.21  88.32    2.96  69.39  88.39    3.14
  -2   0   0 146564.    957.   1-0.12771-0.12771-0.85228 0.85228 0.50725-0.50725  0 345.82 211.05  159.16 345.83 211.13  158.97
  -2   0   0 162744.    623.   2-0.12757-0.12757-0.68595 0.68595 0.71638-0.71638  0 346.22 211.83   63.32 346.26 211.92   63.54
  -2   0   0 121800.    529.   2-0.12752-0.12752 0.99183-0.99183 0.00169-0.00169  0 359.88 229.44  291.54 359.86 229.52  291.44
  -2   0  -1  13.194  33.228   1-0.24686-0.00856-0.89010 0.89010 0.38311-0.45568  0 358.15 221.12  148.52 358.42 220.92  148.87
  -2   0  -1 8.80081  8.2194   2 0.12858-0.38372-0.32297 0.32297-0.93764 0.86513  0 360.05 224.21  181.94 360.16 224.24  181.59
  -2   0  -1  10.891   8.135   2-0.11112-0.14391 0.98936-0.98936-0.09393 0.02142  0 351.64 213.07  286.68 351.58 213.20  285.88
  -2   0   1  -0.643  23.962   1-0.37270 0.11744 0.42515-0.42515-0.82483 0.89747  0 265.42 204.40   21.64 265.25 204.59   21.89
  -2   0   1  -3.929  19.086   2-0.04270-0.21244-0.94127 0.94127 0.33495-0.26246  0 332.38 199.57   90.56 332.57 199.38   90.52
  -2   0   1   7.044  19.646   2-0.13117-0.12386 0.99108-0.99108 0.02340 0.04911  0 368.77 246.22  292.19 368.74 246.26  292.70
   2   0  -1  10.267  18.525   2 0.06202 0.19312-0.96169 0.96169-0.26705 0.19459  0 266.36 312.29  126.12 266.36 312.26  126.21
   2   0  -1   0.429  14.308   2-0.02014 0.27518 0.83117-0.83117-0.55566 0.48316  0 237.86 270.69  256.94 237.94 270.59  257.13
   2   0   1  -0.391  28.074   1-0.03076 0.28617-0.80353 0.80353 0.59447-0.52197  0 246.46 291.63  167.00 246.65 291.78  166.94
  -2   0  -2  4041.8   120.6   1-0.32998 0.07456-0.90044 0.90044 0.28341-0.42854  0 373.25 230.60  141.38 373.21 230.72  141.41
  -2   0  -2  4154.8    69.6   2 0.08771-0.34284-0.88796 0.88796-0.45148 0.30657  0 375.07 237.00  137.75 375.11 237.02  137.68
  -2   0  -2  3896.8    67.9   2-0.10922-0.14582 0.98849-0.98849-0.10468-0.04032  0 343.35 196.30  285.10 343.36 196.42  285.25
  -2   0   2  2840.4    69.3   1-0.61666 0.36138-0.02136 0.02136-0.78694 0.93217  0 268.41 194.26   51.12 268.58 194.32   51.44
  -2   0   2  4360.8    99.3   2-0.02622-0.22891-0.96767 0.96767 0.25084-0.10586  0 319.18 186.71   95.93 319.27 186.81   95.67
  -2   0   2  3792.3    94.3   2-0.13680-0.11824 0.98900-0.98900 0.05618 0.08883  0 378.19 263.28  294.94 378.13 263.29  294.62
   2   0  -2  2708.5    68.2   1-0.28421 0.53947 0.53409-0.53409-0.79622 0.65094  0 333.03 325.11   13.78 333.08 324.99   13.68
   2   0  -2  3862.3    93.2   2 0.05260 0.20253-0.97747 0.97747-0.20444 0.05953  0 278.65 326.28  122.38 278.75 326.23  122.46
   2   0  -2  4197.1    93.3   2-0.05462 0.30966 0.91798-0.91798-0.39286 0.24785  0 230.12 255.09  267.94 229.98 255.00  267.89
   2   0   2  4188.7   117.0   1-0.12215 0.37756-0.84991 0.84991 0.51258-0.36757  0 234.69 282.31  159.37 234.53 282.31  159.43
   2   0   2  4705.0    66.0   2-0.05442 0.30955-0.91803 0.91803 0.39275-0.24777  0 233.46 279.93   86.98 233.31 279.92   86.88
   2   0   2  1988.2    47.2   2-0.22332 0.47832 0.68946-0.68946 0.68904-0.54392  0 256.00 313.43  336.17 256.04 313.37  336.10
  -2   0  -3  30.145  55.473   1-0.39192 0.13650-0.89774 0.89774 0.20115-0.41884  0 390.06 240.72  135.51 389.84 240.76  135.49
  -2   0  -3  13.590  30.735   2 0.07298-0.32811-0.93610 0.93610-0.34408 0.12672  0 390.95 250.23  130.61 390.88 250.15  130.91
  -2   0  -3  12.940  29.709   2-0.10330-0.15173 0.98515-0.98515-0.13715-0.08036  0 335.38 179.50  283.53 335.42 179.39  283.35
  -2   0   3  22.852  26.463   1-0.70043 0.44515-0.43960 0.43960-0.56227 0.78013  0 265.71 183.83   79.32 265.67 183.81   79.28
  -2   0   3  -7.247  39.702   2-0.02266-0.23248-0.97250 0.97250 0.23182-0.01435  0 306.04 173.89   96.87 306.08 173.99   96.82
  -2   0   3  56.935  41.499   2-0.14257-0.11247 0.98558-0.98558 0.09111 0.12640  0 388.25 280.95  296.53 388.15 280.91  296.67
   2   0  -3   8.623  26.668   1-0.49281 0.74807 0.24241-0.24241-0.83569 0.61776  0 336.16 336.22   34.43 336.40 336.47   34.45
   2   0  -3 -12.787  36.389   2 0.05158 0.20355-0.97887 0.97887-0.19787-0.01949  0 291.39 340.63  123.26 291.13 340.67  122.07
   2   0  -3  16.082  30.044   2-0.06605 0.32108 0.93964-0.93964-0.33572 0.11821  0 221.69 239.94  271.64 221.88 239.77  271.45
   2   0   3   6.447  39.021   1-0.17327 0.42868-0.86970 0.86970 0.46217-0.24465  0 221.43 273.04  155.57 221.54 272.95  155.16
   2   0   3  28.201  22.125   2-0.03583 0.29097-0.95313 0.95313 0.30044-0.08297  0 220.23 267.63   92.65 220.31 267.60   92.65
   2   0   3  20.422  28.883   2-0.20136 0.45636 0.84576-0.84576 0.49410-0.27643  0 263.12 331.28  321.72 263.23 331.04  321.63
  -2   0  -4 490.770  85.580   1-0.44072 0.18530-0.88814 0.88814 0.13031-0.42057  0 408.35 251.42  130.56 408.35 251.30  130.52
  -2   0  -4 433.099  55.600   2 0.06924-0.32437-0.94550 0.94550-0.31816 0.02835  0 407.74 263.85  129.09 407.92 263.84  129.31
  -2   0  -4 443.124  55.839   2-0.09717-0.15787 0.98035-0.98035-0.17169-0.11832  0 327.58 161.71  281.25 327.60 161.78  281.32
  -2   0   4 345.800  45.093   1-0.66162 0.40633-0.67621 0.67621-0.32405 0.61452  0 257.77 172.94   98.83 257.77 172.93   98.73
  -2   0   4 438.361  67.347   2-0.02354-0.23159-0.97134 0.97134 0.23651 0.05345  0 292.66 160.75   96.61 292.84 160.76   96.54
  -2   0   4 480.063  70.911   2-0.14828-0.10676 0.98079-0.98079 0.12675 0.16326  0 398.90 299.33  298.64 399.02 299.41  298.76
   2   0  -4 281.473  42.930   1-0.60932 0.86461-0.00184 0.00184-0.79292 0.50244  0 345.54 349.30   50.20 345.44 349.28   50.19
   2   0  -4 454.613  60.499   2-0.06942 0.32446 0.94548-0.94548-0.31819 0.02819  0 213.42 224.54  272.48 213.34 224.45  272.53
   2   0   4 531.417  70.715   1-0.20023 0.45564-0.87847 0.87847 0.43381-0.14379  0 207.86 263.55  152.82 207.81 263.59  152.86
   2   0   4 550.078  57.741   2-0.03310 0.28823-0.95755 0.95755 0.28635 0.00361  0 207.29 256.01   93.59 207.23 256.02   93.52
   2   0   4 450.708  56.919   2-0.19242 0.44742 0.88392-0.88392 0.42621-0.13598  0 269.65 349.21  317.02 269.89 349.11  317.10
  -2   0  -5  27.286  73.976   1-0.48093 0.22551-0.87418 0.87418 0.06724-0.43007  0 429.22 262.74  126.55 428.96 262.63  126.16
  -2   0  -5  22.135  53.237   2 0.06950-0.32463-0.94489 0.94489-0.31992-0.04235  0 426.62 278.29  129.57 426.65 278.36  129.42
  -2   0  -5   8.819  52.551   2-0.09062-0.16442 0.97409-0.97409-0.20722-0.15529  0 320.03 143.14  279.87 319.82 143.31  279.22
  -2   0   5   4.310  30.608   1-0.59510 0.33968-0.78998 0.78998-0.14762 0.51044  0 247.10 161.30  111.57 246.98 161.42  111.38
  -2   0   5  -2.983  63.703   2-0.02651-0.22862-0.96727 0.96727 0.25236 0.11009  0 279.29 146.72   95.54 279.37 146.97   95.58
  -2   0   5  36.124  69.222   2-0.15409-0.10091 0.97457-0.97457 0.16270 0.20008  0 410.93 319.07  300.77 410.86 319.09  300.85
   2   0  -5   2.339  42.558   1-0.65964 0.91492-0.15669 0.15669-0.73507 0.37197  0 358.28 363.79   60.27 358.32 363.67   60.09
   2   0  -5  16.615  67.238   2 0.05671 0.19842-0.97129 0.97129-0.23104-0.13123  0 317.09 372.80  124.00 317.23 372.92  124.04
   2   0  -5   1.596  46.862   2-0.06914 0.32418 0.94502-0.94502-0.31961-0.04290  0 203.95 208.72  272.41 204.21 208.80  272.44
   2   0   5  33.946  56.062   1-0.21229 0.46770-0.88196 0.88196 0.42080-0.05827  0 193.12 254.10  151.57 193.33 254.04  151.83
   2   0   5   3.541  40.270   2-0.03489 0.29002-0.95468 0.95468 0.29558 0.06687  0 193.16 244.51   92.91 193.60 244.64   92.95
   2   0   5  23.623  53.003   2-0.18946 0.44446 0.89484-0.89484 0.40418-0.04140  0 276.50 368.20  315.48 276.36 368.30  315.68
  -2   0  -6 32401.3   427.7   1-0.51520 0.25978-0.85702 0.85702 0.00962-0.44501  0 451.95 275.10  122.01 452.05 275.09  122.20
  -2   0  -6 35637.9   388.3   2 0.07157-0.32670-0.93977 0.93977-0.33423-0.10049  0 447.30 294.04  130.17 447.55 294.00  130.30
  -2   0  -6 33787.9   380.4   2-0.08385-0.17119 0.96637-0.96637-0.24311-0.19190  0 311.87 123.47  276.81 311.98 123.65  277.08
  -2   0   6 31609.3   296.3   1-0.53099 0.27557-0.84717 0.84717-0.01889 0.45428  0 234.67 148.74  120.12 234.49 148.97  120.25
  -2   0   6 38772.4   452.6   2-0.03076-0.22437-0.96117 0.96117 0.27425 0.16068  0 265.32 132.17   94.19 265.46 132.37   94.25
  -2   0   6 32233.2   417.1   2-0.15960-0.09540 0.96694-0.96694 0.19887 0.23647  0 423.90 340.49  303.00 424.08 340.46  303.00
   2   0  -6 19434.1   241.9   1-0.68007 0.93536-0.24472 0.24472-0.69110 0.25538  0 373.63 380.14   65.94 373.76 380.03   65.83
   2   0  -6 35355.3   430.9   2 0.06046 0.19467-0.96459 0.96459-0.25674-0.17798  0 331.49 391.65  125.59 331.46 391.46  125.59
   2   0  -6 34713.6   421.1   2-0.06683 0.32187 0.94110-0.94110-0.33145-0.10356  0 194.41 192.58  271.71 194.34 192.56  271.72
   2   0   6 33146.0   426.9   1-0.21449 0.46990-0.88256 0.88256 0.41843 0.01661  0 178.07 244.08  151.69 178.01 244.16  151.64
   2   0   6 38396.7   393.3   2-0.03878 0.29391-0.94828 0.94828 0.31505 0.11989  0 179.27 233.18   92.15 179.15 233.26   91.75
   2   0   6 30079.9   354.3   2-0.18933 0.44433 0.89529-0.89529 0.40325 0.03208  0 282.57 389.28  315.72 282.77 389.08  315.62
  -2   0  -7 -89.736 107.416   1-0.54461 0.28919-0.83752 0.83752-0.04435-0.46361  0 478.67 288.98  118.58 478.41 289.06  118.51
  -2   0  -7 -35.239  87.098   2 0.07458-0.32971-0.93178 0.93178-0.35528-0.15190  0 471.65 311.05  131.47 471.35 311.19  131.60
  -2   0  -7  46.874  86.624   2-0.07700-0.17804 0.95716-0.95716-0.27914-0.22837  0 304.20 102.34  274.56 304.00 102.38  274.90
  -2   0   7  -2.994  49.381   1-0.47280 0.21738-0.87749 0.87749 0.08045 0.42750  0 220.85 135.19  126.97 220.81 135.26  127.07
  -2   0   7 -25.622  79.725   2-0.03573-0.21941-0.95330 0.95330 0.29989 0.20753  0 250.79 116.81   92.63 250.87 116.70   92.69
  -2   0   7  -6.995 110.087   2-0.16515-0.08985 0.95785-0.95785 0.23504 0.27285  0 439.24 364.25  304.98 439.00 364.04  305.18
   2   0  -7  -8.606  71.961   1-0.68834 0.94362-0.29217 0.29217-0.66395 0.15562  0 391.65 399.19   68.42 391.47 398.95   69.00
   2   0  -7 -29.452 106.624   2 0.06463 0.19050-0.95627 0.95627-0.28525-0.22193  0 347.20 412.80  127.53 346.96 412.35  127.30
   2   0  -7 -19.873  73.349   2-0.06331 0.31834 0.93474-0.93474-0.34965-0.15786  0 183.50 175.37  270.60 183.52 175.47  270.59
   2   0   7  23.614  71.997   1-0.20972 0.46513-0.88125 0.88125 0.42358 0.08397  0 161.59 233.83  152.59 161.66 233.75  152.05
   2   0   7 -49.154  58.081   2-0.04378 0.29891-0.93945 0.93945 0.33987 0.16756  0 163.46 221.73   90.39 163.62 221.70   90.21
   2   0   7  30.667  85.150   2-0.19075 0.44575 0.89019-0.89019 0.41373 0.09416  0 289.57 412.23  316.19 289.21 411.98  316.30
  -2   0  -8 46698.5   544.8   2 0.07805-0.33319-0.92155 0.92155-0.38032-0.19931  0 498.76 330.50  132.87 499.01 330.48  133.16
  -2   0  -8 44348.5   526.9   2-0.06998-0.18506 0.94641-0.94641-0.31531-0.26471  0 295.59  78.76  272.68 295.75  79.02  272.71
  -2   0   8 44830.2   425.7   1-0.41950 0.16408-0.89320 0.89320 0.16188 0.41864  0 206.21 119.59  132.95 206.13 119.90  132.72
  -2   0   8 51385.1   605.0   2-0.04131-0.21383-0.94381 0.94381 0.32791 0.25201  0 235.46  99.42   91.05 235.31  99.67   90.96
  -2   0   8 38080.4   542.7   2-0.17059-0.08441 0.94726-0.94726 0.27129 0.30916  0 455.99 390.72  307.44 456.17 390.62  307.37
   2   0  -8 24761.6   338.9   1-0.69145 0.94673-0.31444 0.31444-0.65041 0.06945  0 411.09 421.31   70.44 411.64 421.16   70.50
   2   0  -8 41829.3   563.4   2 0.06888 0.18626-0.94637 0.94637-0.31565-0.26398  0 364.20 436.49  128.95 364.11 436.25  129.16
   2   0  -8 47343.4   576.9   2-0.05888 0.31392 0.92638-0.92638-0.37197-0.20805  0 171.54 157.18  269.03 171.51 157.19  269.20
   2   0   8 47243.7   582.2   1-0.19982 0.45523-0.87835 0.87835 0.43424 0.14580  0 144.04 222.45  152.93 144.04 222.59  152.90
   2   0   8 48965.3   532.0   2-0.04937 0.30451-0.92859 0.92859 0.36780 0.21211  0 146.67 209.71   88.50 146.61 209.78   88.46
  -2   0  -9-125.645 133.824   2-0.06294-0.19210 0.93407-0.93407-0.35150-0.30102  0 286.86  53.11  270.56 287.08  52.81  270.48
  -2   0   9   2.974  81.946   1-0.36938 0.11396-0.89984 0.89984 0.23203 0.42106  0 190.44 102.62  137.59 190.31 102.27  137.69
  -2   0   9 110.385 117.920   2-0.04731-0.20783-0.93268 0.93268 0.35759 0.29481  0 218.48  80.71   89.42 218.46  80.84   89.11
  -2   0   9 119.814 181.760   2-0.17598-0.07902 0.93511-0.93511 0.30757 0.34543  0 476.31 421.30  309.46 476.31 421.28  309.60
   2   0  -9 -19.074 119.886   1-0.69215 0.94744-0.31987 0.31987-0.64700-0.00657  0 434.71 447.54   70.50 434.63 447.82   70.87
   2   0  -9 151.943 184.915   2 0.07343 0.18170-0.93490 0.93490-0.34722-0.30486  0 383.47 464.58  131.65 383.65 464.22  131.11
   2   0  -9  97.816 118.610   2-0.05376 0.30880 0.91619-0.91619-0.39711-0.25540  0 157.86 137.12  267.39 157.99 137.30  267.62
   2   0   9   6.963  95.295   1-0.18580 0.44121-0.87401 0.87401 0.44899 0.20357  0 124.41 210.08  154.56 124.79 210.36  154.09
   2   0   9 -77.659  88.169   2-0.05544 0.31058-0.91581 0.91581 0.39777 0.25463  0 128.52 196.91   86.41 127.77 197.34   86.56
  -2   0 -10 16891.1   454.4   2-0.05564-0.19940 0.92006-0.92006-0.38779-0.33723  0 277.63  22.49  267.95 277.80  22.83  268.21
  -2   0  10 16982.9   329.3   1-0.32096 0.06554-0.90004 0.90004 0.29480 0.43085  0 173.12  81.40  142.23 173.19  81.72  142.24
  -2   0  10 18566.7   461.8   2-0.05355-0.20158-0.91989 0.91989 0.38850 0.33640  0 199.88  59.39   87.21 199.75  59.61   87.15
  -2   0  10 14799.1   517.7   2-0.18119-0.07381 0.92135-0.92135 0.34391 0.38165  2 500.37 457.68  311.97 500.55 457.66  311.86
   2   0 -10  9414.1   331.3   1-0.69132 0.94661-0.31349 0.31349-0.65099-0.07519  0 460.70 480.57   70.39 461.32 480.61   70.44
   2   0 -10 17244.0   521.5   2 0.07797 0.17716-0.92180 0.92180-0.37973-0.34480  0 406.31 497.96  133.00 406.46 497.74  133.12
   2   0 -10 17281.8   435.2   2-0.04820 0.30323 0.90423-0.90423-0.42432-0.30070  0 142.55 115.23  265.82 142.52 115.24  265.90
   2   0  10 16096.9   409.1   1-0.16850 0.42391-0.86812 0.86812 0.46687 0.25819  0 103.68 196.51  155.57 103.47 196.67  155.55
   2   0  10 18263.7   397.0   2-0.06188 0.31701-0.90112 0.90112 0.42912 0.29577  0 106.91 184.04   84.56 106.50 184.15   84.53
   2   0  10 14417.2   419.0   2-0.19923 0.45423 0.85568-0.85568 0.47761 0.24795  0 309.16 501.62  320.56 309.39 501.30  320.51
  -2   0  11  14.083 117.160   1-0.27343 0.01801-0.89498 0.89498 0.35248 0.44574  0 154.39  57.33  146.43 154.29  57.09  146.54
  -2   0  11  29.453 176.712   2-0.06005-0.19508-0.90540 0.90540 0.42029 0.37709  0 178.31  34.95   85.58 178.59  35.22   85.10
   2   0 -11 -39.865 157.603   2-0.04231 0.29735 0.89047-0.89047-0.45307-0.34445  0 124.74  90.34  264.42 124.47  90.25  264.04
   2   0  11 -58.118 130.541   1-0.14827 0.40369-0.86063 0.86063 0.48716 0.31040  0  79.08 180.53  157.60  79.37 181.00  157.25
   2   0  11 -18.508 122.710   2-0.06868 0.32381-0.88449 0.88449 0.46148 0.33590  0  81.63 169.98   82.07  82.07 169.90   82.43
  -2   0  12 634.685 171.719   1-0.22561-0.02981-0.88545 0.88545 0.40630 0.46377  0 133.07  27.33  150.55 133.17  26.97  150.69
   2   0 -12 696.874 237.767   2-0.03588 0.29091 0.87494-0.87494-0.48291-0.38711  0 102.89  61.14  262.49 102.94  61.15  262.08
   2   0  12 687.569 191.541   1-0.12551 0.38092-0.85135 0.85135 0.50937 0.36070  0  51.55 162.45  159.29  51.53 162.53  159.15
   2   0  12 715.069 181.621   2-0.07577 0.33091-0.86583 0.86583 0.49458 0.37530  0  53.32 154.15   80.35  53.40 154.21   80.22
  -2  -1   0 -27.476  21.611   1-0.33261 0.07735 0.47678-0.57617-0.81366 0.81366  0 243.53 225.44   18.56 243.62 225.18   18.09
  -2  -1   0  -9.668  16.929   2-0.23336-0.02173 0.22164-0.32111 0.94679-0.94679  0 369.22 238.03    7.41 369.30 237.97    7.28
  -2  -1   0  27.812  17.269   2 0.11876-0.37391-0.68146 0.58197-0.72216 0.72216  0 340.68 201.14  157.39 340.79 201.25  157.37
  -2   1   0  24.788  26.289   1-0.48645 0.23103-0.87177 0.97121 0.05815-0.05815  0 339.19 200.27  125.65 339.28 200.13  125.54
  -2   1   0  -1.149  20.624   2-0.20899-0.04611-0.15913 0.25860 0.96488-0.96488  0 332.35 196.97   29.37 332.44 196.71   29.32
  -2   1   0   2.951  20.266   2 0.05405-0.30916 0.51527-0.41575-0.85532 0.85532  0 371.16 247.42  231.41 371.41 247.25  231.59
   2  -1   0 -17.104  25.910   1-0.19419 0.44961-0.87665 0.77723 0.44019-0.44019  0 263.06 312.36  153.62 262.99 312.36  153.38
   2  -1   0  12.387  20.420   2-0.12486 0.38000-0.69701 0.59751 0.70610-0.70610  0 266.62 315.11   64.41 266.62 315.02   64.41
   2  -1   0   4.877  15.269   2 0.11908 0.13607-0.07153-0.02796-0.99030 0.99030  0 235.70 269.57  196.65 235.62 269.52  196.38
   2   1   0  12.268  15.523   2 0.10660 0.14851 0.10347-0.00394-0.98890 0.98890  0 258.56 309.13  206.52 258.54 309.03  206.39
   2   1   0   7.623  12.671   2-0.19459 0.44959 0.87544-0.77597 0.44243-0.44243  0 238.06 279.20  318.21 238.11 279.06  318.17
  -2  -1  -1  44.673  30.983   1-0.18968-0.06557 0.63222-0.73160-0.75121 0.67857  0 236.68 234.82    5.36 236.73 234.68    5.46
  -2  -1  -1  71.003  40.992   1-0.01886-0.23656-0.79650 0.69708 0.60434-0.67685  0 370.60 231.41  167.65 370.38 231.68  167.92
  -2  -1  -1  76.197  18.764   2-0.14517-0.10997-0.60268 0.50317 0.78467-0.85716  0 370.89 234.42   57.29 370.98 234.36   57.28
  -2  -1  -1  85.100  19.430   2 0.11246-0.36757 0.03221-0.13173-0.99313 0.92062  0 344.67 200.59  202.30 344.67 200.66  202.28
  -2  -1   1  37.031  24.018   1-0.49087 0.23561 0.24578-0.34516-0.83585 0.90849  0 247.41 214.90   34.69 247.33 215.46   34.23
  -2  -1   1  72.040  26.716   2 0.08178-0.33691-0.90943 0.80988-0.40774 0.48020  0 330.40 193.17  134.68 330.53 193.01  134.88
  -2  -1   1  84.588  27.156   2-0.22416-0.03084 0.68047-0.77994 0.69765-0.62509  0 374.84 250.40  336.38 374.83 250.45  336.83
  -2   1  -1  78.306  35.215   1-0.50258 0.24716-0.86397 0.96340 0.03120-0.10376  0 355.45 209.62  123.69 355.63 209.55  123.68
  -2   1  -1  98.497  25.055   2 0.11598-0.37112-0.02291 0.12240-0.99299 0.92048  0 373.87 244.45  199.03 373.76 244.54  199.17
  -2   1  -1  82.390  23.633   2-0.23638-0.01861 0.43217-0.33274 0.87026-0.94283  0 335.87 195.59  353.97 335.87 195.53  354.23
  -2   1   1  91.114  21.500   1-0.47758 0.22216-0.87557 0.97501 0.07273-0.00017  0 323.42 190.62  126.53 323.42 190.63  126.54
  -2   1   1  83.327  29.727   2-0.15116-0.10397-0.57179 0.67129 0.80635-0.73386  0 323.93 190.75   54.92 323.87 190.84   55.09
  -2   1   1  66.983  28.416   2-0.01176-0.24328 0.80490-0.70536-0.59329 0.66579  0 375.06 257.45  254.40 375.10 257.41  254.46
   2  -1  -1  88.431  27.352   2-0.06502 0.32015-0.89357 0.79406 0.44420-0.51669  0 274.52 321.83   83.46 274.55 321.83   83.56
   2  -1  -1 138.903  26.391   2 0.06809 0.18701 0.42805-0.52757-0.90119 0.82867  0 232.45 260.23  225.87 232.37 260.17  225.89
   2  -1   1  82.738  30.210   1-0.28728 0.54270-0.89700 0.79756 0.33596-0.26339  0 248.92 302.34  145.36 248.94 302.36  145.29
   2  -1   1  94.901  22.674   2-0.20201 0.45710-0.22620 0.12674 0.95290-0.88034  0 263.26 315.76   32.95 263.34 315.70   33.26
   2  -1   1  63.843  17.423   2 0.12180 0.13334-0.64238 0.54289-0.75665 0.82915  0 233.69 272.29  160.25 233.81 272.20  160.36
   2   1  -1  80.685  38.413   1-0.27893 0.53419 0.54003-0.44065-0.79408 0.72144  0 357.48 304.31   13.11 357.55 304.35   13.21
   2   1  -1  77.348  25.724   2 0.12723 0.12792-0.53269 0.63218-0.83669 0.76419  0 267.98 318.70  168.47 268.18 318.56  168.16
   2   1  -1  64.556  20.972   2-0.16070 0.41569 0.96527-0.86579 0.20601-0.27856  0 233.08 266.97  303.56 232.99 266.95  303.43
   2   1   1  81.775  14.482   2-0.02782 0.28286 0.85336-0.75382-0.52057 0.59308  0 254.66 308.74  259.98 254.60 308.67  259.55
  -2  -1  -2 23164.5   272.3   1-0.13748-0.11793-0.85635 0.75692 0.49776-0.64277  0 382.06 241.84  158.00 381.97 241.85  158.15
  -2  -1  -2 24964.1   178.0   2-0.05484-0.20030-0.91712 0.81762 0.39482-0.53980  0 381.39 241.19   86.95 381.39 241.24   86.74
  -2  -1  -2 24187.0   175.5   2 0.04039-0.29550 0.58962-0.68914-0.80667 0.66164  0 341.04 189.66  236.81 341.04 189.73  236.75
  -2  -1   2 15219.7   185.1   1-0.62093 0.36565-0.03323-0.06618-0.78316 0.92840  0 247.37 205.58   51.81 247.24 205.59   52.19
  -2  -1   2 22106.1   215.4   2 0.05725-0.31238-0.97040 0.87085-0.23460 0.37951  0 318.31 181.97  123.87 318.45 182.06  124.26
  -2  -1   2 16243.1   186.4   2-0.20604-0.04896 0.82146-0.92094 0.53174-0.38663  0 382.87 265.92  324.25 382.99 265.88  324.22
  -2   1  -2 18959.5   232.7   1-0.52065 0.26523-0.85377 0.95321-0.00004-0.14509  0 372.91 218.95  121.55 372.83 219.04  121.54
  -2   1  -2 19834.0   177.2   2 0.12868-0.38382-0.46448 0.56398-0.87618 0.73117  0 382.66 249.71  172.93 382.76 249.77  172.71
  -2   1  -2 18171.6   170.1   2-0.21172-0.04328 0.78634-0.68687 0.58038-0.72549  0 333.51 186.31  327.88 333.49 186.37  327.70
  -2   1   2 14785.8    64.8   1-0.67433 0.41905-0.21677 0.31619-0.70589 0.85113  0 292.83 181.71   63.50 292.98 181.81   64.00
  -2   1   2 19283.5    72.6   1-0.52129 0.26588-0.85338 0.95281-0.00136 0.14649  0 306.51 180.80  120.94 306.67 180.98  121.45
  -2   1   2 23004.3   228.5   2-0.11133-0.14380-0.75111 0.85062 0.65072-0.50574  0 312.80 181.23   69.13 312.92 181.34   68.93
  -2   1   2 22841.0   227.1   2-0.05433-0.20071 0.91736-0.81782-0.39433 0.53933  0 382.18 271.38  268.16 382.06 271.40  267.80
   2  -1  -2 23359.6   227.1   2-0.03078 0.28592-0.96114 0.86163 0.27435-0.41933  0 284.68 332.60   94.17 284.77 332.53   94.25
   2  -1  -2 22316.4   220.8   2 0.02431 0.23080 0.66617-0.76570-0.74540 0.60037  0 226.79 247.85  242.35 226.65 247.79  242.45
   2  -1   2 19946.2   237.1   1-0.32605 0.58147-0.90029 0.80085 0.28839-0.14326  0 234.90 292.79  141.99 234.80 292.74  141.77
   2  -1   2 21026.9   177.0   2-0.23477 0.48987 0.27537-0.37483 0.93223-0.78710  0 265.15 324.86    4.01 265.25 324.73    4.09
   2  -1   2 19853.5   171.1   2 0.08552 0.16961-0.89632 0.79677-0.43509 0.57999  0 226.67 267.58  136.62 226.54 267.50  136.62
   2   1  -2 14906.6   187.0   1-0.42386 0.67912 0.35298-0.25360-0.83412 0.68883  0 357.70 315.27   27.00 357.70 315.20   26.98
   2   1  -2 19849.4   201.4   2 0.11168 0.14347-0.75150 0.85099-0.65021 0.50520  0 279.33 330.97  151.62 279.39 330.89  151.60
   2   1  -2 19000.9   196.5   2-0.14301 0.39805 0.98526-0.88572 0.09385-0.23886  0 226.30 253.08  297.22 226.16 252.98  296.83
   2   1   2 23385.2   163.5   2-0.18385 0.43894-0.37282 0.47228 0.90951-0.76438  0 228.20 275.85   42.02 228.08 275.80   42.06
   2   1   2 20874.4   155.6   2-0.09731 0.35234 0.98046-0.88092-0.17095 0.31595  0 257.97 320.27  281.34 258.08 320.11  281.36
  -2  -1  -3 28694.9   325.8   1-0.23315-0.02227-0.88731 0.78788 0.39791-0.61542  0 395.97 252.37  150.04 396.18 252.36  150.04
  -2  -1  -3 27976.7   231.0   2-0.01367-0.24146-0.98266 0.88311 0.18489-0.40225  0 395.42 252.31   99.94 395.70 252.33   99.63
  -2  -1  -3 27064.7   228.1   2-0.00281-0.25223 0.77472-0.87426-0.63230 0.41480  0 334.67 174.59  251.67 334.68 174.69  251.59
  -2  -1   3 18256.2   210.4   1-0.68897 0.43369-0.29640 0.19698-0.66141 0.87927  0 243.50 195.32   69.01 243.32 195.38   69.28
  -2  -1   3 27299.8   278.1   2 0.04018-0.29531-0.99126 0.89172-0.12561 0.34298  0 305.69 169.89  118.04 305.83 169.99  117.83
  -2  -1   3 23256.4   256.4   2-0.19564-0.05936 0.87137-0.97084 0.44993-0.23227  0 392.19 282.80  319.08 392.47 282.76  318.67
  -2   1  -3 23815.6   289.2   1-0.53889 0.28347-0.84171 0.94114-0.03359-0.18411  0 390.98 228.72  119.01 391.21 228.78  119.25
  -2   1  -3 26389.3   238.1   2 0.11951-0.37465-0.67355 0.77304-0.72941 0.51190  0 395.53 259.37  158.24 395.85 259.45  157.99
  -2   1  -3 22207.2   219.6   2-0.18237-0.07263 0.91798-0.81851 0.35222-0.56989  0 328.22 172.72  312.27 328.18 172.82  312.38
  -2   1   3 28037.0   287.8   2-0.08913-0.16601-0.82705 0.92655 0.55502-0.33755  0 300.87 170.04   76.00 301.00 170.15   76.04
  -2   1   3 26149.6   276.7   2-0.08151-0.17352 0.96339-0.86385-0.25541 0.47292  0 390.57 287.43  276.26 390.79 287.43  276.33
   2  -1  -3 27639.6   281.2   2-0.00188 0.25692 0.77144-0.87098-0.63630 0.41879  0 219.79 234.18  251.13 219.68 234.13  251.29
   2  -1   3 23839.0   287.9   1-0.34066 0.59608-0.90068 0.80124 0.26969-0.05199  0 220.58 283.34  140.35 220.48 283.32  140.40
   2  -1   3 27215.8   235.8   2 0.05657 0.19856-0.97151 0.87196-0.23013 0.44749  0 216.38 259.24  124.21 216.25 259.22  123.99
   2  -1   3 22571.3   216.3   2-0.23287 0.48787 0.54733-0.64680 0.80386-0.58620  0 269.49 338.59  346.91 269.69 338.46  346.66
   2   1  -3 17739.1   209.7   1-0.53324 0.78850 0.16789-0.06851-0.82914 0.61121  0 362.50 326.93   39.01 362.45 326.85   39.32
   2   1  -3 19110.4   231.8   2 0.09975 0.15539-0.83228 0.93183-0.54531 0.32795  0 291.08 344.77  144.27 291.24 344.62  143.96
   2   1  -3 23501.1   254.2   2-0.13053 0.38556 0.99125-0.89171 0.01954-0.23704  0 218.67 238.57  292.49 218.55 238.49  292.48
   2   1   3 27576.3   316.8   1 0.00912 0.24630-0.77909 0.87852 0.62684-0.40933  0 216.91 262.68  170.09 216.82 262.70  170.20
   2   1   3 27186.1   221.3   2-0.13346 0.38860-0.65970 0.75920 0.73959-0.52212  0 216.74 265.82   61.62 216.62 265.83   61.50
   2   1   3 22980.0   205.1   2-0.12210 0.37714 0.99207-0.89253-0.02979 0.24729  0 263.53 335.69  289.82 263.62 335.52  289.61
  -2  -1  -4  1966.8   132.7   1-0.31102 0.05560-0.89937 0.79993 0.30725-0.59751  0 412.66 263.45  143.20 412.83 263.53  143.15
  -2  -1  -4  1886.9    95.6   2 0.00888-0.26401-0.99812 0.89857 0.06072-0.35054  0 411.91 265.16  106.90 412.18 265.11  106.96
  -2  -1  -4  1844.9    96.8   2-0.02308-0.23196 0.83992-0.93946-0.54222 0.25221  0 327.54 157.90  258.18 327.64 157.94  258.07
  -2  -1   4  1172.5    75.2   1-0.69852 0.44323-0.50101 0.40159-0.51094 0.80142  0 236.39 184.62   84.01 236.19 184.72   83.88
  -2  -1   4  1768.7   112.4   2 0.02699-0.28212-0.99862 0.89908-0.04496 0.33477  0 292.76 157.02  113.01 292.92 157.16  113.12
  -2  -1   4  1440.7   110.7   2-0.19054-0.06446 0.89097-0.99044 0.41215-0.12192  0 402.93 300.89  316.24 403.07 300.85  316.20
  -2   1  -4  1581.9   123.8   1-0.55691 0.30149-0.82778 0.92722-0.06806-0.22220  0 410.89 238.95  116.90 411.08 238.97  116.88
  -2   1  -4  1725.8    95.8   2 0.10986-0.36500-0.76578 0.86527-0.63365 0.34363  0 411.18 271.32  150.06 411.54 271.44  150.36
  -2   1  -4  1540.9    96.1   2-0.15937-0.09563 0.96729-0.86782 0.19737-0.48759  0 321.69 156.96  303.01 321.73 157.03  302.91
  -2   1   4  1691.3    46.3   1-0.30597 0.05055-0.89902 0.99846 0.31328-0.02302  0 281.62 159.42  143.68 281.74 159.66  143.60
  -2   1   4  1884.1   116.6   2-0.07734-0.17780-0.86147 0.96098 0.50188-0.21192  0 288.35 157.82   79.71 288.46 157.93   79.72
  -2   1   4  1703.5   111.5   2-0.10067-0.15437 0.98327-0.88373-0.15179 0.44180  0 400.65 305.06  282.52 400.86 305.01  282.49
   2  -1  -4  1233.9    42.7   1-0.58636 0.84162 0.05467-0.15406-0.80821 0.51764  0 319.38 359.55   46.54 319.49 359.42   46.58
   2  -1  -4 908.472  91.647   2 0.00651 0.24862-0.99724 0.89769 0.07397-0.36379  0 308.33 359.92  106.28 308.30 359.85  106.17
   2  -1  -4  1941.5   104.4   2-0.01678 0.27182 0.82094-0.92048-0.57076 0.28075  0 211.93 219.77  256.21 211.80 219.71  256.07
   2  -1   4  1676.2   107.1   1-0.34247 0.59789-0.90069 0.80125 0.26735 0.02291  0 205.85 273.99  140.22 205.82 273.97  140.24
   2  -1   4  1866.3    84.9   2 0.03584 0.21929-0.99446 0.89491-0.09884 0.38865  0 204.53 249.52  116.13 204.43 249.52  116.25
   2  -1   4  1487.4    91.1   2-0.22465 0.47965 0.67490-0.77437 0.70288-0.41266  0 274.91 354.83  337.26 275.12 354.71  337.26
   2   1  -4  1067.4    89.4   1-0.60233 0.85759 0.01593 0.08345-0.79809 0.50752  0 371.23 339.68   48.95 371.25 339.63   49.06
   2   1  -4  1562.5    96.6   2-0.12053 0.37557 0.99191-0.89237-0.03977-0.25024  0 210.41 223.63  288.99 210.29 223.60  289.02
   2   1   4  1829.7   110.5   1-0.03974 0.29516-0.80877 0.90819 0.58678-0.29676  0 204.71 253.21  166.20 204.66 253.23  166.20
   2   1   4  1862.9    81.0   2-0.10685 0.36199-0.76775 0.86725 0.63178-0.34182  0 204.18 255.17   70.26 204.14 255.18   70.40
   2   1   4  1588.1    90.2   2-0.13658 0.39162 0.98911-0.88957 0.05485 0.23516  0 269.47 352.82  294.73 269.55 352.65  294.54
  -2  -1  -5 37174.3   427.0   1-0.37445 0.11903-0.89949 0.80006 0.22517-0.58800  0 431.75 275.45  136.93 431.92 275.47  137.20
  -2  -1  -5 38798.3   364.2   2 0.02388-0.27901-0.99935 0.89980-0.02685-0.33541  0 430.47 279.14  111.75 430.69 279.09  112.06
  -2  -1  -5 38749.6   366.3   2-0.03235-0.22269 0.86567-0.96521-0.49957 0.13706  0 320.21 139.71  261.13 320.27 139.90  260.97
  -2  -1   5 28014.7   296.5   1-0.67279 0.41751-0.64386 0.54444-0.36442 0.72751  0 226.88 173.29   95.69 226.68 173.45   95.70
  -2  -1   5 38208.2   411.3   2 0.01583-0.27096-0.99965 0.90010 0.02110 0.34117  0 279.50 143.42  109.17 279.65 143.58  109.27
  -2  -1   5 32526.3   383.5   2-0.18869-0.06631 0.89770-0.99717 0.39816-0.03538  0 414.62 320.42  315.35 414.90 320.35  315.29
  -2   1  -5 31193.1   395.2   1-0.57425 0.31883-0.81214 0.91158-0.10326-0.25956  0 432.71 249.85  114.46 432.90 249.84  114.46
  -2   1  -5 36530.7   360.9   2 0.10393-0.35906-0.80804 0.90759-0.57989 0.21762  0 429.21 284.92  146.26 429.56 284.91  146.38
  -2   1  -5 32208.4   341.7   2-0.14172-0.11332 0.98618-0.88664 0.08586-0.44837  0 314.71 139.44  296.30 314.82 139.60  296.36
  -2   1   5 37241.9   226.5   1-0.30112 0.04570-0.89857 0.99800 0.31923 0.04360  0 266.65 147.72  144.07 266.84 148.02  144.04
  -2   1   5 38413.9   416.4   2-0.07155-0.18358-0.87703 0.97653 0.47509-0.11264  0 275.27 144.59   81.46 275.44 144.75   81.52
  -2   1   5 34869.0   396.4   2-0.11552-0.13952 0.99093-0.89139-0.06873 0.43124  0 412.06 324.19  287.34 412.23 324.18  287.34
   2  -1  -5 20199.6   170.5   1-0.67764 0.93292-0.23248 0.13306-0.69768 0.33459  0 335.46 374.50   64.96 335.64 374.35   65.03
   2  -1  -5 38546.4   414.1   2 0.01888 0.23625-0.99982 0.90027 0.00339-0.36566  0 321.32 376.25  110.29 321.35 376.10  110.30
   2  -1  -5 36862.6   401.5   2-0.02489 0.27993 0.84501-0.94455-0.53417 0.17166  0 203.17 204.65  258.61 203.09 204.61  258.62
   2  -1   5 33592.5   404.3   1-0.33653 0.59195-0.90061 0.80118 0.27503 0.08780  0 190.66 264.51  140.92 190.64 264.51  140.80
   2  -1   5 38541.2   363.8   2 0.02003 0.23511-0.99979 0.90024-0.00419 0.36646  0 191.62 239.16  110.78 191.52 239.19  110.75
   2  -1   5 31662.5   334.4   2-0.21838 0.47338 0.73659-0.83606 0.64012-0.27734  0 280.73 373.07  332.15 280.94 372.92  332.18
   2   1  -5 15731.8   233.3   1-0.64135 0.89664-0.09376 0.19318-0.76150 0.39840  0 383.19 353.94   56.00 383.39 353.89   56.05
   2   1  -5 35316.6   394.0   2 0.08935 0.16578-0.88136 0.98091-0.46392 0.10165  0 316.83 376.50  138.41 316.82 376.34  138.49
   2   1  -5 34655.7   387.5   2-0.11157 0.36660 0.98954-0.89000-0.09141-0.27110  0 201.40 208.27  285.84 201.31 208.22  286.02
   2   1   5 38221.6   428.8   1-0.07004 0.32545-0.82517 0.92460 0.56052-0.19799  0 191.44 243.43  163.99 191.37 243.49  163.72
   2   1   5 37622.2   350.9   2-0.09345 0.34858-0.81363 0.91313 0.57383-0.21138  0 190.90 244.28   74.74 190.82 244.32   74.70
   2   1   5 32013.3   327.3   2-0.14704 0.40208 0.98201-0.88247 0.11844 0.24407  0 275.57 371.59  298.25 275.59 371.40  298.27
  -2  -1  -6 964.928 122.630   1-0.42735 0.17193-0.89150 0.79206 0.15033-0.58573  0 453.76 288.71  131.84 453.78 288.65  131.92
  -2  -1  -6 911.440  99.949   2 0.03549-0.29062-0.99468 0.89513-0.09668-0.33805  0 451.59 294.55  116.25 451.60 294.43  116.13
  -2  -1  -6 942.597 105.821   2-0.03589-0.21914 0.87498-0.97452-0.48283 0.04781  0 312.66 120.24  262.23 312.73 120.44  262.09
  -2  -1   6 706.261  79.340   1-0.63151 0.37609-0.73883 0.63939-0.23523 0.67063  0 215.38 161.15  105.03 215.33 161.31  105.20
  -2  -1   6 841.322 116.443   2 0.00568-0.26081-0.99688 0.89733 0.07867 0.35605  0 265.71 129.03  106.13 265.86 129.06  105.90
  -2  -1   6 666.822 116.920   2-0.18870-0.06630 0.89764-0.99711 0.39829 0.03705  0 428.09 341.63  315.26 428.16 341.64  315.30
  -2   1  -6 795.040 109.224   1-0.59100 0.33558-0.79465 0.89408-0.13875-0.29664  0 457.19 261.81  112.00 457.21 261.76  112.00
  -2   1  -6 751.658  97.502   2 0.10058-0.35571-0.82764 0.92719-0.55218 0.11746  0 449.62 300.02  144.41 449.99 300.06  144.43
  -2   1  -6 826.664 101.929   2-0.12684-0.12820 0.99192-0.89238-0.00232-0.43269  0 307.32 120.40  291.28 307.44 120.61  291.21
  -2   1   6 960.152  67.296   1-0.28045 0.02504-0.89607 0.99551 0.34409 0.09130  0 252.27 134.94  146.01 252.17 135.24  145.90
  -2   1   6  1079.4   125.0   2-0.06940-0.18574-0.88264 0.98214 0.46490-0.02996  0 261.69 130.33   81.98 261.80 130.58   82.20
  -2   1   6 795.879 118.231   2-0.12756-0.12748 0.99183-0.89229 0.00192 0.43309  0 424.91 345.28  291.51 425.12 345.24  291.45
   2  -1  -6 471.288  57.861   1-0.69479 0.95007-0.34093 0.24151-0.63327 0.19756  0 352.41 391.41   72.17 352.50 391.28   72.32
   2  -1  -6  1083.9   127.3   2 0.02917 0.22596-0.99789 0.89834-0.05799-0.37673  0 335.57 394.58  114.13 335.47 394.33  113.88
   2  -1  -6 944.521 107.602   2-0.02873 0.28377 0.85590-0.95544-0.51635 0.08133  0 193.51 188.78  259.98 193.49 188.70  259.84
   2  -1   6 763.196  99.590   1-0.32538 0.58079-0.90026 0.80082 0.28924 0.14615  0 174.80 254.74  141.94 174.73 254.80  141.83
   2  -1   6 995.464  97.986   2 0.00702 0.24811-0.99744 0.89790 0.07110 0.36363  0 177.49 228.44  106.37 177.51 228.46  106.34
   2  -1   6 718.812  94.093   2-0.21446 0.46946 0.76710-0.86657 0.60462-0.16928  0 286.96 393.22  329.48 286.99 393.17  329.48
   2   1  -6 525.459  85.779   1-0.66245 0.91774-0.16706 0.26648-0.73024 0.29452  0 398.37 370.11   60.64 398.50 370.06   60.76
   2   1  -6 941.636 119.962   2 0.08815 0.16698-0.88621 0.98576-0.45483 0.02010  0 330.83 394.93  137.77 330.92 394.88  137.90
   2   1  -6 836.304  99.587   2-0.10303 0.35807 0.98496-0.88542-0.13868-0.29633  0 191.67 192.23  283.22 191.50 192.15  283.26
   2   1   6 820.168 102.223   1-0.08698 0.34239-0.83362 0.93305 0.54544-0.11041  0 177.12 233.28  162.15 176.98 233.35  162.33
   2   1   6 944.095  96.376   2-0.08700 0.34214-0.83363 0.93313 0.54543-0.11050  0 176.54 233.25   76.66 176.50 233.26   76.72
   2   1   6 649.428  89.406   2-0.15564 0.41064 0.97261-0.87314 0.17265 0.26269  0 281.82 392.09  301.49 281.80 391.97  301.44
  -2  -1  -7  2184.7   198.4   1-0.47225 0.21683-0.87771 0.77827 0.08135-0.58931  0 478.65 303.47  127.05 478.99 303.49  127.13
  -2  -1  -7  2174.7   167.4   2 0.04504-0.30017-0.98665 0.88710-0.15653-0.35065  0 475.55 311.46  119.66 475.57 311.42  119.63
  -2  -1  -7  2191.3   176.3   2-0.03624-0.21880 0.87588-0.97542-0.48117-0.02634  0 304.93  99.08  262.20 304.96  99.24  262.20
  -2  -1   7  2004.0   129.6   1-0.58357 0.32815-0.80275 0.70331-0.12265 0.63061  0 202.54 147.72  113.12 202.46 147.96  113.12
  -2  -1   7  2169.9   163.6   2-0.00374-0.25140-0.99137 0.89182 0.13106 0.37611  0 251.47 113.31  102.73 251.34 113.41  102.83
  -2  -1   7  1897.3   207.6   2-0.18988-0.06512 0.89333-0.99280 0.40732 0.10057  0 442.92 365.24  316.01 443.22 365.25  315.89
  -2   1  -7  1764.5   197.3   1-0.60693 0.35151-0.77536 0.87479-0.17453-0.33343  0 484.73 275.09  109.52 484.78 275.07  109.50
  -2   1  -7  2193.9   175.5   2 0.09926-0.35439-0.83492 0.93447-0.54134 0.03417  0 473.39 317.02  143.87 473.52 316.98  143.68
  -2   1  -7  1938.0   173.7   2-0.11426-0.14077 0.99055-0.89101-0.07590-0.43161  0 299.57  99.60  286.98 299.74  99.80  286.92
  -2   1   7  2196.0   101.3   1-0.25439-0.00103-0.89163 0.99106 0.37456 0.13340  0 237.37 120.80  148.13 237.33 121.00  148.22
  -2   1   7  2396.0   171.0   2-0.06955-0.18558-0.88224 0.98174 0.46564 0.04179  0 247.51 115.12   82.00 247.38 115.23   82.15
  -2   1   7  2571.2   212.3   2-0.13815-0.11689 0.98832-0.88878 0.06434 0.44318  0 439.79 368.78  295.30 439.77 368.68  295.10
   2  -1  -7  1304.4   109.6   1-0.69854 0.95383-0.38426 0.28484-0.60365 0.09531  0 370.37 410.88   75.15 370.53 410.76   75.33
   2  -1  -7  2507.6   207.8   2 0.03821 0.21692-0.99281 0.89326-0.11344-0.39374  0 350.97 415.18  117.23 350.95 415.06  117.12
   2  -1  -7  2007.6   161.0   2-0.02986 0.28490 0.85901-0.95855-0.51108 0.00357  0 182.70 171.75  259.97 182.85 171.80  260.20
   2  -1   7  2018.4   153.3   1-0.31043 0.56585-0.89932 0.79989 0.30797 0.19998  0 157.87 244.63  143.08 157.85 244.63  143.21
   2  -1   7  2142.4   137.8   2-0.00451 0.25964-0.99079 0.89124 0.13532 0.37185  0 162.24 217.15  102.63 162.20 217.28  102.57
   2  -1   7  79.011  80.965   2-0.21252 0.46752 0.78093-0.88040 0.58735-0.07946  0 293.26 415.67  328.41 293.22 415.78  328.21
   2   1  -7  1200.1   147.2   1-0.67349 0.92878-0.21292 0.31234-0.70786 0.19953  0 415.99 388.67   63.71 416.39 388.73   63.74
   2   1  -7  2275.6   201.6   2 0.08842 0.16672-0.88517 0.98472-0.45679-0.05038  0 346.32 415.96  138.29 346.29 415.81  138.02
   2   1  -7  2001.3   155.7   2-0.09502 0.35006 0.97843-0.87889-0.18345-0.32406  0 180.70 175.15  280.60 180.70 175.19  280.62
   2   1   7  2215.0   159.6   1-0.09399 0.34940-0.83702 0.93644 0.53904-0.03150  0 161.46 222.52  161.94 161.39 222.59  161.76
   2   1   7  2062.4   133.8   2-0.08472 0.33985-0.84057 0.94007 0.53504-0.02761  0 160.98 221.93   77.40 161.00 221.93   77.45
   2   1   7  1963.2   160.6   2-0.16302 0.41802 0.96150-0.86203 0.22124 0.28665  0 287.95 414.96  304.38 288.00 414.79  304.33
  -2  -1  -8  84.850 122.428   2 0.05353-0.30866-0.97614 0.87659-0.21043-0.36920  2 503.20 330.54  123.23 503.51 330.56  122.82
  -2  -1  -8  65.092 115.348   2-0.03459-0.22044 0.87160-0.97114-0.48899-0.09103  0 296.87  76.17  261.40 296.89  75.80  261.68
  -2  -1   8 141.070  81.585   1-0.53422 0.27880-0.84498 0.74555-0.02481 0.60534  0 188.20 132.99  119.84 188.21 133.07  119.85
  -2  -1   8 223.292 107.560   2-0.01276-0.24237-0.98359 0.88404 0.17997 0.39966  0 235.83  96.37   99.50 235.81  96.31   99.92
  -2  -1   8 259.782 150.272   2-0.19190-0.06310 0.88592-0.98539 0.42228 0.15817  0 460.72 391.92  317.05 460.62 391.93  316.85
  -2   1  -8 113.187 125.140   2 0.09929-0.35442-0.83476 0.93431-0.54158-0.03804  0 501.87 336.31  144.22 501.06 336.22  143.70
  -2   1  -8 165.579 119.098   2-0.10271-0.15233 0.98474-0.88520-0.14046-0.43955  0 291.56  76.53  282.93 291.64  76.71  283.16
  -2   1   8 189.296  65.637   1-0.22431-0.03111-0.88512 0.98455 0.40773 0.17232  0 222.12 104.58  150.92 222.09 104.86  150.80
  -2   1   8 119.374 105.649   2-0.07129-0.18385-0.87771 0.97722 0.47385 0.10606  0 231.75  98.33   81.49 231.91  98.41   81.60
  -2   1   8 112.242 149.832   2-0.14750-0.10754 0.98159-0.88206 0.12131 0.45871  0 457.03 395.32  298.32 456.78 395.31  298.44
   2  -1  -8 119.721  83.320   1-0.69926 0.95454-0.39719 0.29777-0.59437 0.01342  0 390.17 433.21   76.55 390.12 433.64   76.24
   2  -1  -8 172.559 141.580   2 0.04637 0.20876-0.98522 0.88567-0.16489-0.41473  0 368.32 438.81  120.35 368.27 438.91  120.13
   2  -1  -8 134.145 101.489   2-0.02913 0.28417 0.85699-0.95653-0.51450-0.06551  0 170.95 153.47  259.94 170.97 153.59  259.96
   2  -1   8 188.717  99.274   1-0.29236 0.54778-0.89762 0.79818 0.32985 0.25067  0 139.95 233.83  144.64 139.72 233.79  144.83
   2  -1   8 180.193  87.957   2-0.01533 0.27046-0.98107 0.88157 0.19303 0.38689  0 145.19 205.65   98.91 145.30 205.59   99.15
   2   1  -8  82.289 104.197   1-0.67892 0.93420-0.23884 0.33826-0.69428 0.11333  0 437.01 410.82   65.15 437.34 410.69   65.45
   2   1  -8 139.022 142.017   2 0.08966 0.16548-0.88012 0.97967-0.46621-0.11342  0 363.39 439.58  138.66 363.40 439.86  138.64
   2   1  -8 210.430 100.791   2-0.08699 0.34202 0.97015-0.87061-0.22638-0.35364  0 168.52 156.78  277.94 168.63 156.97  278.08
   2   1   8 165.467  95.448   1-0.09357 0.34899-0.83682 0.93625 0.53942 0.04063  0 144.70 210.90  161.65 144.39 210.97  161.79
   2   1   8 141.488  76.744   2-0.08495 0.34008-0.83987 0.93937 0.53610 0.04382  0 144.01 210.34   77.17 144.01 210.21   77.37
   2   1   8  46.455 103.156   2-0.16993 0.42493 0.94864-0.84917 0.26685 0.31360  2 293.90 440.47  307.32 294.32 440.47  307.10
  -2  -1  -9 949.542 173.541   2-0.03160-0.22344 0.86366-0.96320-0.50309-0.14943  0 288.19  49.50  260.69 288.38  49.44  260.74
  -2  -1   9 826.810 117.558   1-0.48424 0.22883-0.87275 0.77331 0.06179 0.59129  0 172.55 115.83  126.05 172.46 116.12  125.79
  -2  -1   9  1019.9   158.9   2-0.02169-0.23345-0.97373 0.87422 0.22669 0.42572  0 218.87  77.26   97.46 218.84  77.30   97.13
  -2  -1   9 695.719 201.118   2-0.19445-0.06054 0.87600-0.97547 0.44137 0.21163  0 480.99 422.68  317.91 481.08 422.78  318.10
  -2   1  -9 850.009 169.807   2-0.09217-0.16287 0.97569-0.87615-0.19883-0.45369  0 282.89  50.85  279.95 283.02  50.67  279.71
  -2   1   9 802.456  95.369   1-0.19249-0.06292-0.87613 0.97555 0.44198 0.21057  0 206.25  86.40  153.43 206.20  86.31  153.52
  -2   1   9 843.797 155.451   2-0.07417-0.18097-0.87004 0.96954 0.48737 0.16503  0 215.02  79.55   80.65 215.04  79.73   80.70
  -2   1   9 580.699 205.198   2-0.15599-0.09901 0.97216-0.87269 0.17487 0.47814  0 476.64 425.99  301.66 476.78 426.10  301.57
   2  -1  -9 525.604 120.054   1-0.69903 0.95431-0.39291 0.29349-0.59748-0.05609  0 411.78 461.12   75.95 411.83 461.07   75.94
   2  -1  -9 958.174 204.791   2 0.05401 0.20112-0.97545 0.87590-0.21350-0.43858  0 388.03 467.02  123.12 388.05 466.93  123.00
   2  -1  -9 942.933 152.798   2-0.02706 0.28210 0.85121-0.95075-0.52412-0.12840  0 157.66 133.74  259.38 157.52 133.68  259.31
   2  -1   9 880.439 139.396   1-0.27197 0.52739-0.89475 0.79532 0.35419 0.29889  0 120.11 222.05  146.64 119.95 221.99  146.67
   2  -1   9 828.596 129.915   2-0.02526 0.28040-0.96900 0.86950 0.24577 0.40664  0 126.88 193.13   96.11 126.55 193.29   95.98
   2  -1   9 724.409 169.091   2-0.21236 0.46736 0.78205-0.88152 0.58592 0.06708  2 306.35 470.64  328.35 306.39 470.80  328.10
   2   1  -9 369.530 144.284   1-0.68107 0.93635-0.24992 0.34934-0.68825 0.03468  0 461.74 437.36   65.97 461.91 437.10   66.18
   2   1  -9 721.525 201.393   2 0.09168 0.16346-0.87202 0.97157-0.48081-0.17127  0 382.82 467.98  139.60 382.85 468.05  139.60
   2   1  -9 798.107 144.961   2-0.07910 0.33414 0.96013-0.86059-0.26814-0.38437  0 154.99 137.09  275.54 155.01 137.14  275.57
   2   1   9 987.116 142.987   1-0.08737 0.34279-0.83382 0.93324 0.54508 0.10748  0 125.63 198.12  162.34 125.69 198.15  162.30
   2   1   9  1035.9   133.2   2-0.08688 0.34201-0.83402 0.93352 0.54486 0.10755  0 125.29 197.82   76.65 125.10 197.92   76.76
  -2  -1 -10  2932.7   310.1   2-0.02761-0.22743 0.85276-0.95230-0.52157-0.20346  0 279.17  18.82  259.44 279.27  19.05  259.48
  -2  -1  10  3060.1   213.1   1-0.43447 0.17905-0.88978 0.79035 0.13974 0.58591  0 155.02  96.38  131.27 154.98  96.41  131.18
  -2  -1  10  3242.9   279.5   2-0.03023-0.22490-0.96197 0.86246 0.27149 0.45340  0 200.23  55.64   94.43 200.15  55.90   94.42
  -2   1 -10  2547.2   306.3   2-0.08197-0.17307 0.96398-0.86444-0.25302-0.47200  0 273.47  20.63  276.43 273.69  20.67  276.48
  -2   1  10  3123.0   181.6   1-0.15839-0.09702-0.86447 0.96389 0.47708 0.24798  0 189.35  64.15  156.36 189.39  64.47  156.40
  -2   1  10  3269.5   272.3   2-0.07796-0.17718-0.85974 0.95924 0.50475 0.22014  0 196.31  58.38   79.48 196.29  58.65   79.53
  -2   1  10  2339.5   294.3   2-0.16367-0.09133 0.96046-0.86099 0.22521 0.50035  0 500.84 462.87  304.74 500.95 462.78  304.59
   2  -1 -10  1591.9   173.7   1-0.69807 0.95336-0.37738 0.27797-0.60851-0.11768  0 436.02 494.86   74.75 436.41 494.75   74.85
   2  -1 -10  3079.9   307.4   2 0.06098 0.19415-0.96364 0.86409-0.26015-0.46438  0 411.20 501.09  125.69 411.19 500.62  125.80
   2  -1 -10  2587.2   253.8   2-0.02393 0.27897 0.84243-0.94197-0.53828-0.18674  0 142.04 111.45  258.15 142.07 111.49  258.34
   2  -1  10  3322.6   245.3   1-0.24933 0.50475-0.89062 0.79118 0.38031 0.34534  0  98.17 208.78  148.64  98.02 208.83  148.66
   2  -1  10  3629.7   240.2   2-0.03485 0.28999-0.95474 0.85524 0.29539 0.42951  0 105.53 179.97   92.77 105.29 180.10   92.96
   2   1 -10  1436.5   211.0   1-0.68103 0.93631-0.24971 0.34912-0.68837-0.03782  0 490.89 469.85   66.05 491.11 469.69   66.17
   2   1 -10  3340.4   391.4   2 0.09405 0.16108-0.86134 0.96089-0.49925-0.22528  2 405.50 502.22  140.62 405.60 501.92  140.83
   2   1 -10  2938.8   259.6   2-0.07120 0.32623 0.94838-0.84884-0.30904-0.41598  0 139.37 115.11  272.96 139.39 115.10  273.09
   2   1  10  3364.9   238.6   1-0.07640 0.33182-0.82844 0.92786 0.55485 0.17021  0 105.02 183.55  163.33 104.83 183.71  163.20
   2   1  10  3243.9   223.2   2-0.09001 0.34515-0.82427 0.92377 0.55900 0.16589  0 104.25 184.80   75.73 103.72 184.87   75.76
   2   1  10  2634.2   310.9   2-0.18244 0.43744 0.91778-0.81831 0.35270 0.37286  2 307.61 503.85  312.45 307.55 504.41  312.41
  -2  -1  11 611.087 151.652   1-0.38469 0.12927-0.89857 0.79914 0.21113 0.58708  0 135.22  72.86  136.04 135.43  72.95  136.20
  -2  -1  11 808.376 217.938   2-0.03876-0.21637-0.94831 0.84880 0.31498 0.48241  0 179.18  31.66   92.09 178.93  31.23   91.76
  -2   1  11 579.119 131.721   1-0.12196-0.13345-0.84983 0.94925 0.51276 0.28481  0 171.41  38.38  159.30 171.27  38.13  159.44
  -2   1  11 697.194 205.129   2-0.08255-0.17259-0.84708 0.94659 0.52501 0.27237  0 174.64  33.78   78.35 174.99  34.30   78.13
   2  -1 -11 734.684 196.423   2-0.02009 0.27512 0.83101-0.93055-0.55589-0.24163  0 123.89  86.19  257.00 124.00  86.26  257.12
   2  -1  11 594.841 167.801   1-0.22456 0.47998-0.88519 0.78577 0.40744 0.39012  0  73.69 194.04  150.58  73.26 193.95  150.78
   2  -1  11 715.217 166.667   2-0.04436 0.29950-0.93835 0.83885 0.34282 0.45457  0  80.75 165.76   89.85  80.81 165.81   90.03
   2   1 -11 461.393 182.320   2-0.06337 0.31840 0.93485-0.83531-0.34934-0.44819  0 121.53  90.08  270.61 121.13  90.10  270.61
   2   1  11 624.954 170.524   1-0.06163 0.31704-0.82077 0.92019 0.56793 0.22964  0  81.24 166.87  164.40  81.17 167.07  164.41
   2   1  11 324.130 138.433   2-0.09418 0.34932-0.81124 0.91074 0.57708 0.22030  0  79.22 170.71   74.41  79.11 170.77   74.47
  -2  -1  12 273.579 178.468   1-0.33456 0.07915-0.90057 0.80114 0.27756 0.59323  0 113.10  43.94  141.02 113.11  44.30  140.98
   2  -1 -12 556.903 230.477   2-0.01559 0.27063 0.81719-0.91673-0.57615-0.29387  0 102.82  57.19  255.69 102.37  56.82  255.69
   2  -1  12 556.792 196.261   1-0.19812 0.45353-0.87784 0.77842 0.43605 0.43402  0  44.95 176.49  153.02  44.70 176.44  153.04
   2  -1  12 605.498 180.847   2-0.05356 0.30870-0.91988 0.82038 0.38853 0.48134  0  51.58 150.13   86.92  51.92 149.91   87.14
   2   1 -12 502.462 223.847   2-0.05537 0.31041 0.91952-0.81998-0.38912-0.48091  0  98.89  60.71  268.43  99.29  60.98  268.13
   2   1  12 353.651 195.604   1-0.04346 0.29887-0.81086 0.91029 0.58362 0.28645  0  53.35 147.20  166.01  53.79 147.37  165.90
   2   1  12 318.685 171.761   2-0.09889 0.35402-0.79535 0.89486 0.59803 0.27185  0  50.39 155.10   72.42  50.10 155.19   72.93
  -2  -2   0  9304.9   175.9   1-0.44952 0.19426 0.31398-0.51275-0.83627 0.83627  0 226.34 235.47   29.96 226.29 235.45   29.66
  -2  -2   0 13142.5   160.8   2-0.22390-0.03119 0.02409-0.22303 0.97431-0.97431  0 387.29 256.71   18.97 387.63 256.80   18.74
  -2  -2   0 13071.2   160.5   2 0.12918-0.38433-0.42871 0.22973-0.89416 0.89416  0 328.13 180.36  174.65 328.24 180.48  175.02
  -2   2   0 10157.1   139.7   1-0.68162 0.42633-0.61183 0.81066-0.40133 0.40133  0 345.74 187.46   92.98 345.67 187.60   92.85
  -2   2   0 13751.8   179.8   2-0.22079-0.03430-0.02010 0.21904 0.97511-0.97511  0 316.45 177.90   21.01 316.53 178.02   21.30
  -2   2   0 14664.9   185.5   2 0.07780-0.33290 0.36271-0.16367-0.92865 0.92865  0 386.42 269.01  222.13 386.69 269.02  221.80
   2  -2   0 14486.9   182.4   2-0.16794 0.42303-0.47837 0.27943 0.86195-0.86195  0 281.13 335.38   48.82 281.24 335.30   48.76
   2  -2   0 13631.0   174.5   2 0.12118 0.13397-0.10770-0.09129-0.98677 0.98677  0 223.16 250.13  194.22 223.03 250.04  194.30
   2   2   0  6254.8   151.8   1-0.24456 0.49982 0.57735-0.37858-0.77901 0.77901  0 383.55 283.49   10.02 383.65 283.46   10.18
   2   2   0 14207.6   163.1   2 0.10436 0.15075 0.12925 0.06979-0.98611 0.98611  0 269.89 331.07  207.92 269.98 330.94  207.89
   2   2   0 10937.0   142.1   2-0.23228 0.48728 0.56063-0.36169 0.79482-0.79482  0 222.88 261.47  345.88 222.78 261.42  345.73
  -2  -2  -1  7276.2   163.2   1-0.34353 0.08827 0.46317-0.66194-0.81698 0.74434  0 222.21 244.94   18.95 222.17 244.89   19.11
  -2  -2  -1 11069.3   147.8   2-0.18393-0.07117-0.37225 0.17331 0.90973-0.98229  0 389.70 253.82   41.59 390.10 253.91   42.03
  -2  -2  -1  9934.2   140.1   2 0.11890-0.37405-0.06779-0.13119-0.99059 0.91808  0 331.52 179.02  196.37 331.59 179.12  196.59
  -2  -2   1  6837.9   151.1   1-0.55173 0.29647 0.13095-0.32972-0.82368 0.89632  0 227.72 225.91   41.81 227.66 225.90   41.71
  -2  -2   1 10244.0   155.7   2 0.11816-0.37330-0.68851 0.48953-0.71554 0.78804  0 321.03 176.35  156.95 321.17 176.49  156.82
  -2   2  -1  8005.1   147.1   1-0.65862 0.40334-0.68377 0.88260-0.31414 0.24152  0 363.18 196.88   99.41 362.99 197.02   99.46
  -2   2  -1  9680.3   154.6   2-0.23526-0.01984 0.31053-0.11159 0.92099-0.99356  0 319.43 176.13    2.00 319.51 176.21    1.97
  -2   2  -1 10549.4   159.5   2 0.11066-0.36577 0.05654 0.14250-0.99225 0.91973  0 389.23 266.71  203.87 389.53 266.76  203.68
  -2   2   1  7281.2    94.9   1-0.69974 0.44445-0.40753 0.60637-0.58676 0.65938  0 328.26 177.96   76.98 328.19 178.08   76.98
  -2   2   1 10629.0   170.6   2-0.19216-0.06294-0.30980 0.50874 0.93118-0.85862  0 310.23 175.06   37.82 310.37 175.19   38.22
  -2   2   1 11090.1   172.8   2 0.03617-0.29127 0.61074-0.41170-0.79100 0.86352  0 387.73 276.17  238.19 387.99 276.15  238.27
   2  -2  -1  8526.3   102.7   1-0.43858 0.69400-0.88871 0.68984 0.13354-0.20611  0 272.66 334.46  130.62 272.82 334.35  130.75
   2  -2  -1 10540.5   167.7   2-0.12536 0.38050-0.69490 0.49589 0.70810-0.78059  0 287.04 339.07   63.81 287.15 339.00   64.24
   2  -2  -1 11137.5   168.8   2 0.09721 0.15790 0.20333-0.40237-0.97427 0.90176  0 222.06 243.88  212.08 221.93 243.84  212.21
   2  -2   1  8045.6   145.5   1-0.48281 0.73823-0.87337 0.67450 0.06416 0.00841  0 242.80 313.35  126.00 242.69 313.27  125.95
   2  -2   1 10126.6   154.8   2-0.20586 0.46096-0.19008-0.00885 0.95994-0.88738  0 278.16 336.69   31.00 278.26 336.59   31.13
   2  -2   1  9158.4   144.3   2 0.12913 0.12602-0.43535 0.23636-0.89095 0.96346  0 221.01 252.29  174.83 220.88 252.19  174.60
   2   2  -1  6783.7   155.9   1-0.36133 0.61659 0.44018-0.24141-0.82200 0.74936  0 382.01 294.24   20.98 381.91 294.22   20.80
   2   2  -1  9303.2   146.7   2 0.12653 0.12862-0.23694 0.43593-0.96325 0.89074  0 276.50 335.98  186.67 276.51 335.82  186.74
   2   2  -1  7999.8   133.4   2-0.21409 0.46909 0.76983-0.57089 0.60127-0.67383  0 220.94 254.02  329.21 220.88 254.01  329.23
   2   2   1  9470.7   131.3   2-0.23365 0.48875 0.23139-0.03245 0.94439-0.87182  0 221.04 264.21    6.89 220.94 264.15    6.71
   2   2   1 11189.5   144.4   2 0.05347 0.20163 0.51857-0.31953-0.85336 0.92588  0 266.59 331.85  231.94 266.70 331.66  231.82
  -2  -2  -2 31254.5   337.7   1-0.24838-0.00688 0.57329-0.77206-0.78080 0.63552  0 215.62 254.33   10.55 215.55 254.34   10.52
  -2  -2  -2 55511.0   453.1   1 0.00668-0.26210-0.78065 0.58181 0.62493-0.76994  0 397.63 253.26  170.00 397.87 253.27  170.00
  -2  -2  -2 54364.2   333.2   2-0.12953-0.12561-0.67736 0.47835 0.72416-0.86914  0 397.22 256.73   63.25 397.55 256.82   62.86
  -2  -2  -2 54227.3   333.3   2 0.08990-0.34501 0.26788-0.46692-0.95925 0.81422  0 330.98 171.97  215.60 330.98 172.08  216.03
  -2  -2   2 34950.3   331.6   1-0.63281 0.37753-0.06732-0.13152-0.77137 0.91661  0 226.18 216.16   54.01 226.09 216.15   54.36
  -2  -2   2 45144.9   345.8   2 0.09910-0.35423-0.83579 0.63669-0.54004 0.68494  0 311.52 168.70  143.55 311.64 168.78  143.59
  -2  -2   2 42327.6   335.1   2-0.23225-0.02275 0.56129-0.76024 0.79436-0.64925  0 395.20 277.49  345.77 395.48 277.45  345.69
  -2   2  -2 38600.0   343.7   1-0.64563 0.39021-0.71278 0.91165-0.27404 0.12891  0 381.15 206.28  102.32 381.04 206.35  102.40
  -2   2  -2 47543.7   339.7   2 0.12618-0.38132-0.22619 0.42518-0.96588 0.82086  0 396.38 269.39  187.33 396.67 269.49  187.38
  -2   2  -2 44353.2   329.5   2-0.23088-0.02412 0.58628-0.38734 0.77651-0.92162  0 319.21 169.58  344.20 319.20 169.68  343.92
  -2   2   2 53914.1   395.7   2-0.16259-0.09255-0.50857 0.70757 0.84553-0.70055  0 301.62 168.69   50.99 301.76 168.83   50.77
  -2   2   2 50977.8   383.0   2-0.00255-0.25249 0.77381-0.57473-0.63341 0.77842  0 392.27 287.16  251.51 392.46 287.12  251.51
   2  -2  -2 53507.0   390.3   2 0.06809 0.18702 0.42807-0.62711-0.90118 0.75615  0 218.44 234.51  226.11 218.31 234.46  225.89
   2  -2   2 36914.7   335.9   1-0.47718 0.73260-0.87573 0.67686 0.07337 0.07176  0 228.33 303.58  126.57 228.24 303.51  126.58
   2  -2   2 44510.7   324.4   2-0.22815 0.48325 0.09815-0.29709 0.96867-0.82354  0 278.18 343.14   14.45 278.27 343.01   14.50
   2  -2   2 50228.4   344.6   2 0.11830 0.13684-0.68683 0.48784-0.71713 0.86214  0 215.52 250.28  157.17 215.41 250.21  156.95
   2   2  -2 24575.8   281.5   1-0.46061 0.71587 0.29636-0.09759-0.83667 0.69138  0 383.89 305.45   30.99 383.98 305.41   30.85
   2   2  -2 47094.7   349.1   2 0.12839 0.12676-0.48082 0.67980-0.86737 0.72236  0 285.39 344.91  171.76 285.44 344.79  171.64
   2   2  -2 41064.3   326.4   2-0.19343 0.44843 0.88007-0.68113 0.43365-0.57877  0 216.47 243.49  317.76 216.41 243.49  317.60
   2   2   2 50860.1   316.0   2-0.21273 0.46782-0.11880 0.31774 0.96986-0.82473  0 215.29 261.86   27.29 215.17 261.80   26.98
   2   2   2 53832.3   324.8   2-0.00376 0.25879 0.77807-0.57899-0.62817 0.77317  0 266.84 338.65  251.99 266.94 338.45  251.90
  -2  -2  -3 23827.5   315.3   1-0.17122-0.08404 0.64943-0.84820-0.74089 0.52297  0 206.97 263.84    4.01 206.92 263.86    3.89
  -2  -2  -3 36641.3   387.5   1-0.09917-0.15625-0.83948 0.64063 0.53427-0.75179  0 409.47 264.39  161.24 409.65 264.35  161.33
  -2  -2  -3 38177.9   310.9   2-0.08215-0.17299-0.84826 0.64925 0.52317-0.74064  0 408.90 264.08   78.14 409.21 264.14   78.26
  -2  -2  -3 39389.5   316.1   2 0.05778-0.31288 0.49292-0.69196-0.86815 0.65061  0 327.57 160.50  229.65 327.57 160.61  230.10
  -2  -2   3 23747.2   283.4   1-0.68232 0.42703-0.25663 0.05779-0.68453 0.90239  0 221.81 206.04   66.54 221.68 206.09   66.62
  -2  -2   3 35695.2   344.3   2 0.08008-0.33521-0.91528 0.71618-0.39478 0.61214  0 300.56 158.79  134.00 300.72 158.88  134.07
  -2  -2   3 33036.0   330.7   2-0.22464-0.03036 0.67495-0.87390 0.70283-0.48516  0 403.07 292.32  337.26 403.37 292.25  337.26
  -2   2  -3 28020.5   327.1   1-0.64024 0.38482-0.72319 0.92207-0.25901 0.04131  0 399.97 215.90  103.47 400.19 215.96  103.50
  -2   2  -3 35435.1   320.1   2 0.12918-0.38432-0.42945 0.62844-0.89380 0.67628  0 407.29 276.15  175.15 407.57 276.23  174.97
  -2   2  -3 28650.1   289.2   2-0.21437-0.04063 0.76780-0.56886 0.60376-0.82143  0 316.29 159.01  329.45 316.26 159.12  329.42
  -2   2   3 38259.9   366.6   2-0.13943-0.11571-0.63091 0.82992 0.76323-0.54576  0 291.43 159.84   59.21 291.58 159.99   59.34
  -2   2   3 35536.1   353.1   2-0.03460-0.22044 0.87162-0.67254-0.48896 0.70647  0 399.21 301.01  261.73 399.37 300.94  261.68
   2  -2  -3 17121.2   247.9   2-0.05862 0.31375-0.90869 0.70969 0.41333-0.63079  2 305.26 357.30   85.56 305.29 357.27   85.55
   2  -2  -3 36926.9   355.6   2 0.04406 0.21105 0.57075-0.76979-0.81994 0.60240  0 213.01 223.05  235.39 212.88 223.04  235.41
   2  -2   3 28728.7   328.3   1-0.46568 0.72110-0.88017 0.68130 0.09184 0.12586  0 213.77 294.06  127.99 213.69 294.01  127.86
   2  -2   3 35519.2   314.5   2 0.09845 0.15668-0.83928 0.64018-0.53472 0.75208  0 207.32 245.03  142.80 207.21 244.99  143.22
   2   2  -3 21855.4   275.7   1-0.53591 0.79117 0.16267 0.03610-0.82846 0.61053  0 389.44 317.35   39.65 389.74 317.32   39.66
   2   2  -3 30706.1   314.9   2-0.17518 0.43018 0.93704-0.73810 0.30209-0.51976  0 210.33 231.15  309.29 210.25 231.13  309.27
   2   2   3 36691.6   297.8   2-0.18334 0.43844-0.37649 0.57543 0.90810-0.69040  0 206.47 255.90   42.06 206.39 255.84   42.29
   2   2   3 37347.7   302.6   2-0.04865 0.30368 0.90523-0.70615-0.42212 0.63963  0 269.59 350.17  265.61 269.65 349.96  266.04
  -2  -2  -4  3630.1   163.4   1-0.19128-0.06413-0.87575 0.67690 0.44325-0.73327  0 424.14 276.15  153.73 424.28 276.11  153.62
  -2  -2  -4  3959.4   133.6   2-0.04706-0.20808-0.93317 0.73416 0.35635-0.64631  0 423.79 274.37   89.13 424.07 274.42   89.18
  -2  -2  -4  3943.5   136.4   2 0.03385-0.28896 0.62212-0.82117-0.78219 0.49212  0 322.49 146.07  239.00 322.50 146.23  239.12
  -2  -2   4  2519.9   116.0   1-0.70011 0.44483-0.42009 0.22125-0.57738 0.86786  0 214.89 195.46   77.89 214.81 195.58   77.87
  -2  -2   4  3663.8   150.1   2 0.06343-0.31857-0.95872 0.75962-0.27719 0.56700  0 288.67 147.35  126.84 288.86 147.41  126.82
  -2  -2   4  3238.4   148.4   2-0.21828-0.03672 0.73751-0.93645 0.63909-0.34886  0 412.72 309.16  332.20 413.01 309.08  332.10
  -2   2  -4  2785.9   146.6   1-0.63999 0.38457-0.72367 0.92254-0.25830-0.03196  0 420.80 225.90  103.57 420.91 225.93  103.55
  -2   2  -4  3574.2   133.8   2 0.12625-0.38140-0.55856 0.75754-0.81980 0.52978  0 421.32 285.85  166.40 421.61 285.94  166.38
  -2   2  -4  3078.2   130.6   2-0.19494-0.06006 0.87401-0.67507 0.44508-0.73530  0 311.61 145.48  318.38 311.62 145.64  318.35
  -2   2   4  3905.2   157.9   2-0.12332-0.13182-0.70354 0.90255 0.69987-0.40991  0 280.12 149.29   65.16 280.28 149.39   64.94
  -2   2   4  3669.4   155.1   2-0.06023-0.19481 0.92898-0.72990-0.36520 0.65520  0 408.08 317.09  269.67 408.21 317.09  269.63
   2  -2  -4  3913.1   157.7   2-0.03537 0.29050-0.95390 0.75489 0.29805-0.58800  0 316.51 370.42   93.04 316.55 370.33   92.80
   2  -2  -4  3822.8   144.7   2 0.02632 0.22879 0.65715-0.85619-0.75330 0.46324  0 206.24 210.15  242.07 206.08 210.14  241.76
   2  -2   4  2896.4   134.6   1-0.45052 0.70594-0.88526 0.68639 0.11554 0.17472  0 198.83 284.66  129.46 198.81 284.64  129.49
   2  -2   4  3650.0   125.8   2 0.07756 0.17757-0.92304 0.72394-0.37680 0.66661  0 197.06 237.67  132.77 196.98 237.65  132.94
   2  -2   4  2966.1   127.2   2-0.23565 0.49064 0.46711-0.66597 0.85222-0.56192  0 284.11 367.90  352.01 284.24 367.71  351.97
   2   2  -4  2159.9   128.7   1-0.58803 0.84329 0.05075 0.14802-0.80725 0.51668  0 398.66 330.33   47.01 398.93 330.29   46.84
   2   2  -4  3719.1   152.0   2 0.11703 0.13811-0.70099 0.89998-0.70350 0.41348  0 307.35 370.50  155.86 307.38 370.38  155.82
   2   2  -4  3076.7   128.6   2-0.15941 0.41441 0.96723-0.76829 0.19763-0.48786  0 203.01 217.64  302.85 202.87 217.62  302.93
   2   2   4  3608.4   117.1   2-0.15818 0.41331-0.53352 0.73252 0.83087-0.54091  0 195.64 247.87   52.38 195.57 247.86   52.45
   2   2   4  3544.5   126.4   2-0.07987 0.33491 0.96118-0.76210-0.26410 0.55411  0 273.69 364.94  275.86 273.74 364.73  275.81
  -2  -2  -5  7938.8   229.0   1-0.27101 0.01559-0.89460 0.69573 0.35531-0.71814  0 441.64 288.92  146.97 441.78 288.93  146.75
  -2  -2  -5  8108.7   194.9   2-0.02123-0.23391-0.97430 0.77530 0.22424-0.58669  0 441.42 286.87   97.29 441.77 286.86   97.28
  -2  -2  -5  7986.7   197.0   2 0.01788-0.27298 0.69435-0.89339-0.71942 0.35684  0 316.43 129.44  244.70 316.48 129.62  244.70
  -2  -2   5  5665.0   167.7   1-0.69312 0.43783-0.55182 0.35298-0.46377 0.82687  0 205.97 184.31   87.98 205.81 184.43   87.85
  -2  -2   5  7570.8   218.9   2 0.04875-0.30388-0.98247 0.78337-0.17994 0.54221  0 276.07 134.59  120.99 276.26 134.68  121.02
  -2  -2   5  6588.5   210.3   2-0.21379-0.04121 0.77198-0.97092 0.59862-0.23584  0 424.02 327.97  329.00 424.33 327.87  329.04
  -2   2  -5  6147.7   208.8   1-0.64297 0.38755-0.71795 0.91683-0.26672-0.09611  0 443.53 236.52  102.79 443.69 236.51  102.94
  -2   2  -5  7512.9   197.5   2 0.12217-0.37732-0.63689 0.83587-0.76122 0.39869  0 438.26 297.91  160.84 438.50 298.01  160.77
  -2   2  -5  6668.2   191.6   2-0.17642-0.07858 0.93401-0.73507 0.31064-0.67342  0 305.88 129.70  309.87 305.87 129.82  309.79
  -2   2   5  7562.7   220.2   2-0.11261-0.14252-0.74622 0.94523 0.65611-0.29366  0 267.90 137.22   68.46 268.05 137.37   68.50
  -2   2   5  8115.5   229.5   2-0.08072-0.17432 0.96233-0.76325-0.25963 0.62214  0 418.64 335.38  275.86 418.74 335.34  276.08
   2  -2  -5  5126.6    65.6   1-0.35640 0.61166 0.44671-0.64547-0.82063 0.45742  0 283.69 383.38   20.43 283.73 383.13   20.33
   2  -2  -5  4179.1    60.9   1-0.69757 0.95285-0.37067 0.17184-0.61319 0.25010  0 316.92 386.75   74.42 317.10 386.57   74.38
   2  -2  -5  7894.9   222.4   2-0.01670 0.27184-0.97957 0.78056 0.20043-0.56288  0 329.03 385.78   99.00 329.07 385.66   98.71
   2  -2  -5  8439.9   217.5   2 0.01422 0.24089 0.70912-0.90816-0.70495 0.34237  0 198.22 196.06  246.00 198.13 196.06  245.89
   2  -2   5  6579.1   199.9   1-0.43266 0.68808-0.89023 0.69136 0.14244 0.22038  0 183.43 275.21  131.32 183.38 275.23  131.37
   2  -2   5  7700.3   187.5   2 0.05905 0.19608-0.96711 0.76801-0.24741 0.60968  0 185.20 228.98  124.75 185.12 229.00  125.03
   2  -2   5  6433.3   186.6   2-0.23234 0.48734 0.55943-0.75837 0.79565-0.43287  0 288.74 384.68  345.86 288.96 384.49  345.82
   2   2  -5  4512.1   166.0   1-0.62178 0.87706-0.03559 0.23443-0.78238 0.41929  0 411.05 344.72   52.05 411.28 344.69   52.34
   2   2  -5  7441.1   218.1   2 0.11230 0.14285-0.74619 0.94518-0.65619 0.29366  0 319.95 386.45  152.00 319.92 386.32  152.06
   2   2  -5  7004.4   198.1   2-0.14593 0.40097 0.98299-0.78391 0.11152-0.47403  0 194.52 203.13  298.01 194.46 203.10  297.87
   2   2   5  8007.3   183.2   2-0.14065 0.39578-0.62502 0.82402 0.76784-0.40539  0 183.32 238.63   59.08 183.24 238.68   58.90
   2   2   5  7466.6   189.8   2-0.10224 0.35728 0.98442-0.78534-0.14305 0.50556  0 278.59 382.28  282.83 278.60 382.05  283.01
  -2  -2  -6 27364.0   413.9   1-0.33880 0.08339-0.90065 0.70178 0.27211-0.70750  0 462.26 303.11  140.66 462.40 303.10  140.58
  -2  -2  -6 28716.7   371.3   2-0.00136-0.25377-0.99304 0.79394 0.11778-0.55250  0 462.12 301.29  103.77 462.27 301.22  103.61
  -2  -2  -6 29743.0   382.4   2 0.00790-0.26300 0.73454-0.93358-0.67852 0.24343  0 309.77 110.80  247.77 309.84 110.97  248.03
  -2  -2   6 20311.6   309.1   1-0.66968 0.41439-0.65360 0.45476-0.35262 0.78833  0 195.15 172.32   96.55 195.01 172.48   96.59
  -2  -2   6 28938.4   416.5   2 0.03552-0.29065-0.99466 0.79556-0.09688 0.53160  0 262.71 120.50  115.87 262.90 120.69  116.14
  -2  -2   6 23148.4   377.5   2-0.21118-0.04382 0.79025-0.98919 0.57525-0.13991  0 437.12 348.92  327.36 437.42 348.80  327.32
  -2   2  -6 22254.3   384.3   1-0.64806 0.39264-0.70780 0.90667-0.28116-0.15424  0 469.08 248.03  101.98 469.19 247.98  101.89
  -2   2  -6 27950.3   380.8   2 0.11857-0.37372-0.68367 0.88265-0.72010 0.28506  0 458.12 312.14  156.87 458.36 312.22  157.20
  -2   2  -6 24645.6   360.0   2-0.15940-0.09560 0.96724-0.76830 0.19757-0.63291  0 299.37 111.70  303.00 299.39 111.87  302.92
  -2   2   6 26613.5   397.7   2-0.10599-0.14914-0.77072 0.96973 0.62830-0.19336  0 255.00 123.75   70.62 254.95 123.99   70.66
  -2   2   6 25583.4   399.2   2-0.09766-0.15737 0.98088-0.78180-0.16833 0.60334  0 430.97 355.97  281.54 431.07 355.91  281.52
   2  -2  -6 15217.9   153.3   1-0.69960 0.95488-0.48099 0.28215-0.52841 0.09269  0 336.29 404.68   82.41 336.47 404.50   82.35
   2  -2  -6 30150.3   425.0   2-0.00112 0.25625-0.99320 0.79410 0.11640-0.55112  0 342.89 403.56  103.97 342.88 403.33  103.69
   2  -2  -6 28311.7   404.4   2 0.00648 0.24863 0.73999-0.93903-0.67259 0.23749  0 189.12 180.79  248.48 189.02 180.82  248.50
   2  -2   6 23331.9   378.7   1-0.41280 0.66822-0.89451 0.69563 0.17162 0.26377  0 167.22 265.60  133.36 167.18 265.61  133.40
   2  -2   6 26709.0   358.1   2 0.04243 0.21270-0.98922 0.79012-0.14014 0.57486  0 171.86 219.36  118.64 171.77 219.38  118.68
   2  -2   6  22.985  72.477   2-0.22923 0.48423 0.61606-0.81500 0.75361-0.31827  2 293.88 403.81  341.91 294.26 403.86  341.76
   2   2  -6 15378.1   283.4   1-0.64285 0.89813-0.09855 0.29739-0.75963 0.32392  0 426.53 361.04   56.10 426.79 360.95   56.35
   2   2  -6 27347.9   405.3   2 0.10911 0.14604-0.77154 0.97052-0.62676 0.19172  0 333.72 404.70  149.99 333.67 404.55  149.84
   2   2  -6 23163.6   363.7   2-0.13352 0.38855 0.99035-0.79127 0.03713-0.47214  0 185.02 187.66  293.52 184.97 187.63  293.50
   2   2   6 29186.4   413.9   1 0.04651 0.20890-0.75397 0.95282 0.65526-0.22023  0 171.60 222.10  173.04 171.59 222.16  173.26
   2   2   6 29765.7   367.5   2-0.12945 0.38459-0.67770 0.87671 0.72385-0.28891  0 169.59 228.70   63.07 169.52 228.75   62.89
   2   2   6 26009.8   350.9   2-0.11945 0.37449 0.99177-0.79269-0.04602 0.48103  0 283.86 402.05  288.75 283.88 401.80  288.66
  -2  -2  -7 794.347 142.584   1-0.39716 0.14174-0.89705 0.69818 0.19379-0.70175  0 486.73 319.22  134.71 486.62 319.15  134.97
  -2  -2  -7 828.759 125.633   2 0.01461-0.26974-0.99950 0.80040 0.02818-0.53536  0 486.19 317.61  108.67 486.29 317.64  108.86
  -2  -2  -7 933.945 128.549   2 0.00238-0.25742 0.75596-0.95504-0.65461 0.14710  0 302.58  90.06  249.88 302.71  90.21  249.90
  -2  -2   7 668.117  98.777   1-0.63654 0.38112-0.73003 0.53115-0.24876 0.75672  0 182.62 159.29  104.30 182.56 159.43  104.24
  -2  -2   7 836.768 118.050   2 0.02336-0.27849-0.99944 0.80035-0.02376 0.53093  0 248.75 105.10  111.64 248.66 105.29  111.88
  -2  -2   7 614.642 142.789   2-0.20991-0.04509 0.79845-0.99739 0.56429-0.05639  0 452.60 372.37  326.58 452.58 372.35  326.53
  -2   2  -7 584.934 147.202   1-0.65422 0.39880-0.69427 0.89314-0.29998-0.20798  0 498.24 260.74  100.60 498.26 260.76  100.51
  -2   2  -7 742.059 132.141   2 0.11612-0.37127-0.71065 0.90963-0.69390 0.18636  0 481.48 328.68  155.02 481.66 328.71  155.05
  -2   2  -7 710.159 124.505   2-0.14429-0.11075 0.98429-0.78521 0.10173-0.60924  0 292.49  91.68  297.36 292.38  91.69  297.29
  -2   2   7 847.057 123.436   2-0.10227-0.15286-0.78361 0.98262 0.61278-0.10535  0 240.90 109.03   71.94 240.85 109.16   71.83
  -2   2   7 832.782 149.500   2-0.11221-0.14283 0.98980-0.79072-0.08777 0.59528  0 445.31 379.15  286.42 445.43 379.21  286.24
   2  -2  -7 449.238  64.806   1-0.69867 0.95396-0.49875 0.29991-0.51294 0.00461  0 354.41 425.08   83.55 354.55 424.95   83.71
   2  -2  -7 825.833 145.288   2 0.01228 0.24285-0.99906 0.79996 0.04153-0.54871  0 358.36 424.04  108.04 358.33 423.82  108.08
   2  -2  -7 929.568 123.544   2 0.00200 0.25304 0.75738-0.95646-0.65297 0.14546  0 178.79 164.27  250.34 178.73 164.28  250.02
   2  -2   7 729.236 114.637   1-0.39109 0.64651-0.89786 0.69898 0.20225 0.30570  0 149.94 255.67  135.57 149.96 255.59  135.57
   2  -2   7 769.661 105.356   2 0.02767 0.22746-0.99841 0.79932-0.04902 0.55620  0 156.89 208.91  113.04 156.90 208.97  113.35
   2   2  -7 517.575 121.802   1-0.65554 0.91083-0.14160 0.34044-0.74176 0.23343  0 445.53 379.75   59.30 445.55 379.73   59.11
   2   2  -7 672.848 140.157   2 0.10739 0.14775-0.78449 0.98358-0.61078 0.10360  0 348.95 425.66  148.58 348.88 425.44  148.60
   2   2  -7 718.991 110.391   2-0.12221 0.37725 0.99208-0.79300-0.02914-0.47837  0 174.22 170.91  289.64 174.31 171.03  289.64
   2   2   7 729.427 115.156   1 0.02926 0.22616-0.76587 0.96472 0.64233-0.13479  0 156.85 210.83  171.74 156.92 210.91  171.85
   2   2   7 771.705  98.673   2-0.12234 0.37748-0.70763 0.90663 0.69592-0.18849  0 154.23 218.25   64.94 154.32 218.20   65.27
   2   2   7 515.760 109.321   2-0.13316 0.38820 0.99047-0.79139 0.03528 0.47224  0 289.47 424.15  293.42 289.43 424.22  293.39
  -2  -2  -8  3534.2   234.7   2-0.00033-0.25470 0.76589-0.96497-0.64297 0.06296  0 294.92  66.54  250.75 295.10  66.84  250.79
  -2  -2   8  3117.6   183.3   1-0.59707 0.34165-0.78766 0.58878-0.15201 0.73254  0 168.55 144.66  110.96 168.45 144.83  111.08
  -2  -2   8  3669.7   223.1   2 0.01214-0.26727-0.99903 0.79993 0.04234 0.53729  0 233.36  88.05  108.29 233.29  88.24  108.04
  -2  -2   8  3130.3   278.0   2-0.20968-0.04532 0.79987-0.99881 0.56236 0.01809  0 470.28 399.40  326.46 470.36 399.31  326.39
  -2   2  -8  3111.4   234.9   2-0.13014-0.12490 0.99135-0.79227 0.01724-0.59726  0 284.56  68.63  292.28 284.63  68.95  292.34
  -2   2   8  3249.7   216.4   2-0.10083-0.15431-0.78866 0.98766 0.60651-0.02659  0 225.61  92.44   72.08 225.50  92.66   72.30
  -2   2   8  3589.0   277.0   2-0.12462-0.13042 0.99209-0.79301-0.01507 0.59508  0 462.42 406.08  290.51 462.40 406.02  290.46
   2  -2  -8  1992.2   134.4   1-0.69915 0.95443-0.49092 0.29209-0.51979-0.06116  0 373.12 449.06   83.02 373.35 448.94   83.11
   2  -2  -8  3732.8   282.2   2 0.02381 0.23133-0.99937 0.80027-0.02640-0.55322  0 375.97 448.02  112.18 375.83 447.83  112.04
   2  -2  -8  4015.2   227.0   2-0.00029 0.25532 0.76571-0.96479-0.64318 0.06317  0 167.05 146.25  250.71 167.02 146.24  250.77
   2  -2   8  2892.0   196.1   1-0.36786 0.62328-0.89994 0.70106 0.23407 0.34645  0 131.44 244.94  137.91 131.40 244.99  137.83
   2  -2   8  3518.3   190.9   2 0.01418 0.24095-0.99943 0.80033 0.03062 0.54901  0 140.32 197.71  108.66 140.28 197.81  108.72
   2  -2   8  3103.5   234.7   2-0.22517 0.48016 0.66884-0.86778 0.70849-0.12804  2 306.09 451.85  337.75 306.22 451.62  337.74
   2   2  -8  2056.9   226.1   1-0.66284 0.91812-0.16855 0.36739-0.72955 0.14860  0 467.68 401.85   60.72 467.94 401.84   60.86
   2   2  -8  3657.1   277.5   2 0.10666 0.14847-0.78951 0.98861-0.60440 0.02477  0 365.94 449.94  148.02 365.94 449.79  148.14
   2   2  -8  3075.1   208.6   2-0.11186 0.36690 0.98966-0.79058-0.08975-0.49027  0 162.35 153.10  285.98 162.28 153.06  286.12
   2   2   8  3482.0   203.5   1 0.02050 0.23492-0.77157 0.97041 0.63582-0.05577  0 140.54 198.55  171.07 140.63 198.67  171.14
   2   2   8  3303.1   177.1   2-0.11853 0.37367-0.72308 0.92209 0.68051-0.10060  0 137.62 206.93   66.57 137.43 207.03   66.55
  -2  -2  -9  7517.3   331.1   2-0.00093-0.25411 0.76802-0.96710-0.64042-0.01209  0 286.80  39.88  250.99 286.94  40.22  250.98
  -2  -2   9  6643.4   252.9   1-0.55417 0.29875-0.83004 0.63117-0.06272 0.71581  0 152.67 128.12  117.25 152.58 128.28  117.25
  -2  -2   9  7075.2   302.9   2 0.00127-0.25640-0.99467 0.79557 0.10315 0.54894  0 216.45  68.81  104.48 216.41  69.12  104.47
  -2  -2   9  6256.9   380.2   2-0.21023-0.04477 0.79636-0.99530 0.56712 0.08589  0 491.41 430.99  326.80 491.56 430.80  326.74
  -2   2  -9  6460.2   324.7   2-0.11736-0.13768 0.99139-0.79231-0.05813-0.59438  0 276.02  42.75  287.78 276.18  42.98  287.95
  -2   2   9  7445.7   310.2   2-0.10101-0.15412-0.78802 0.98702 0.60731 0.04509  0 208.65  73.82   72.00 208.60  74.11   72.24
  -2   2   9  6060.1   374.6   2-0.13590-0.11914 0.98938-0.79030 0.05150 0.60102  0 482.52 437.51  294.42 482.54 437.38  294.34
   2  -2  -9  7347.6   373.9   2 0.03423 0.22090-0.99544 0.79634-0.08902-0.56306  0 395.91 476.65  116.12 396.05 476.37  115.68
   2  -2  -9  7487.6   308.1   2-0.00080 0.25584 0.76757-0.96665-0.64096-0.01156  0 153.60 126.25  250.75 153.61 126.30  250.94
   2  -2   9  6692.1   279.1   1-0.34301 0.59843-0.90069 0.70182 0.26665 0.38644  0 111.28 233.47  140.28 111.09 233.50  140.18
   2  -2   9  6897.4   259.8   2 0.00147 0.25366-0.99478 0.79568 0.10204 0.55004  0 121.89 185.59  104.56 121.54 185.79  104.54
   2  -2   9  6652.0   328.7   2-0.22444 0.47944 0.67734-0.87629 0.70060-0.04759  0 312.63 481.60  337.10 312.83 481.40  337.07
   2   2  -9  3772.8   293.9   1-0.66641 0.92170-0.18284 0.38168-0.72282 0.06925  0 494.53 428.54   61.97 494.79 428.55   61.78
   2   2  -9  7065.4   376.6   2 0.10678 0.14836-0.78873 0.98783-0.60539-0.04669  0 385.26 478.68  147.99 385.50 478.61  148.21
   2   2  -9  7021.1   292.5   2-0.10171 0.35675 0.98404-0.78496-0.14600-0.50652  0 148.53 133.27  282.74 148.55 133.28  282.83
   2   2   9  7706.7   300.1   1 0.01891 0.23651-0.77262 0.97146 0.63459 0.01796  0 122.66 184.94  171.19 122.48 185.07  171.01
   2   2   9  7268.4   265.8   2-0.11709 0.37223-0.72887 0.92788 0.67456-0.02216  0 118.79 195.09   66.86 118.43 195.15   67.03
  -2  -2 -10  4681.4   345.7   2 0.00005-0.25509 0.76449-0.96357-0.64463-0.08039  2 277.84   9.30  250.66 278.06   9.35  250.66
  -2  -2  10  4619.1   251.7   1-0.50907 0.25365-0.86049 0.66162 0.02002 0.70563  0 134.65 108.87  123.01 134.68 109.10  122.92
  -2  -2  10  4980.0   315.3   2-0.00904-0.24609-0.98706 0.78796 0.16012 0.56441  0 197.58  47.05  101.29 197.57  47.34  101.10
  -2   2 -10  4589.2   362.5   2-0.10520-0.14984 0.98633-0.78725-0.12686-0.59816  0 266.77  12.71  283.71 266.90  12.84  283.95
  -2   2  10  4948.2   318.1   2-0.10245-0.15268-0.78298 0.98198 0.61356 0.11134  0 189.77  52.81   71.99 189.65  52.96   71.77
   2  -2 -10  5363.8   307.9   2 0.00004 0.25499 0.76451-0.96359-0.64461-0.08041  0 138.01 103.84  250.63 138.06 103.89  250.66
   2  -2  10  4468.7   266.8   1-0.31687 0.57229-0.89978 0.70091 0.29997 0.42568  0  88.79 220.70  142.61  88.50 220.76  142.62
   2  -2  10  5367.1   267.7   2-0.01036 0.26549-0.98585 0.78676 0.16728 0.55725  0 100.43 172.56  100.68 100.13 172.74  100.68
   2   2 -10  5018.2   298.5   2-0.09210 0.34714 0.97562-0.77654-0.19921-0.52581  0 132.68 111.23  279.65 132.67 111.18  279.69
   2   2  10  4986.9   273.7   1 0.02306 0.23235-0.76986 0.96871 0.63780 0.08726  0 102.26 169.45  171.36 102.03 169.63  171.35
   2   2  10  5033.8   262.9   2-0.11738 0.37252-0.72772 0.92672 0.67576 0.04914  0  96.99 182.18   67.00  96.78 182.38   66.93
  -2  -2  11  5294.3   293.7   1-0.46227 0.20685-0.88139 0.68252 0.09723 0.70099  0 114.51  86.15  128.29 114.17  86.32  128.23
  -2  -2  11  6897.0   399.0   2-0.01938-0.23576-0.97655 0.77754 0.21442 0.58296  0 176.11  21.99   97.68 175.93  21.99   97.86
  -2   2  11  6096.6   382.0   2-0.10499-0.15014-0.77434 0.97334 0.62400 0.17338  0 168.00  28.10   70.72 167.93  28.41   70.98
   2  -2 -11  6618.1   383.8   2 0.00197 0.25307 0.75749-0.95657-0.65284-0.14468  0 120.03  78.09  249.95 119.73  78.19  250.03
   2  -2  11  5440.6   308.1   1-0.28914 0.54456-0.89723 0.69836 0.33373 0.46449  0  62.87 206.24  145.31  62.85 206.30  145.12
   2  -2  11  5830.7   320.6   2-0.02202 0.27716-0.97330 0.77429 0.22848 0.56890  0  75.53 158.21   97.23  75.17 158.34   97.02
   2   2 -11  5221.3   344.7   2-0.08256 0.33759 0.96473-0.76565-0.24997-0.54755  0 114.01  85.81  276.58 113.94  85.94  276.67
   2   2  11  6720.4   354.0   1 0.03224 0.22318-0.76385 0.96270 0.64459 0.15298  0  78.82 151.60  172.14  78.65 151.67  172.10
   2   2  11  6191.9   303.5   2-0.11900 0.37413-0.72121 0.92022 0.68241 0.11497  0  71.83 168.43   66.39  71.68 168.45   66.39
  -2  -2  12  8276.6   372.5   1-0.41400 0.15858-0.89428 0.69541 0.16989 0.70090  0  90.80  58.70  133.30  90.46  58.54  133.28
   2  -2 -12  9313.0   479.0   2 0.00463 0.25048 0.74704-0.94608-0.66477-0.20542  0  97.70  47.76  249.28  97.60  48.03  249.11
   2  -2  12  8373.1   390.9   1-0.26011 0.51553-0.89271 0.69384 0.36798 0.50281  0  33.30 189.37  147.77  33.07 189.42  147.71
   2  -2  12  9855.5   401.0   2-0.03297 0.28810-0.95776 0.75875 0.28567 0.58420  0  46.17 142.04   93.59  45.72 142.19   93.56
   2   2 -12  8048.3   443.3   2-0.07321 0.32824 0.95147-0.75239-0.29891-0.57111  0  91.73  56.57  273.63  91.36  56.36  273.70
   2   2  12  9853.3   434.0   1 0.04538 0.21004-0.75477 0.95361 0.65442 0.21565  0  51.57 130.21  172.98  51.35 130.25  173.17
   2   2  12  8259.3   363.8   2-0.12170 0.37684-0.71029 0.90930 0.69331 0.17656  0  42.31 152.82   65.52  41.94 152.96   65.48
  -2  -3   0 -24.465  30.733   1-0.52230 0.26705 0.18882-0.48697-0.83159 0.83159  0 206.76 245.67   37.96 206.92 245.65   37.96
  -2  -3   0  32.044  46.337   2-0.21656-0.03853-0.07311-0.22530 0.97353-0.97353  0 408.71 277.47   24.43 408.52 277.44   24.35
  -2  -3   0  17.483  46.668   2 0.12914-0.38428-0.36868 0.07020-0.92054 0.92054  0 315.37 158.38  178.57 315.35 158.16  178.80
  -2   3   0  12.711  43.840   1-0.69423 0.43894-0.33583 0.63408-0.63660 0.63660  0 362.16 173.00   72.14 362.08 172.92   71.97
  -2   3   0  12.488  51.739   2-0.22630-0.02879 0.06478 0.23362 0.97190-0.97190  0 300.67 158.12   16.46 300.44 158.19   16.42
  -2   3   0 -36.662  48.545   2 0.08237-0.33748 0.32865-0.03009-0.94085 0.94085  0 403.97 292.76  219.57 403.98 292.55  219.71
   2  -3   0  -1.967  29.751   1-0.60562 0.86104-0.77704 0.47874-0.17155 0.17155  0 243.33 335.30  110.06 243.38 335.23  109.71
   2  -3   0   4.598  36.912   2 0.12340 0.13174-0.15281-0.14567-0.98052 0.98052  0 209.91 230.33  191.49 209.60 230.52  191.67
   2   3   0  66.734  59.275   1-0.30035 0.55561 0.51548-0.21733-0.80254 0.80254  0 409.39 272.43   15.54 409.59 272.41   15.14
   2   3   0  11.884  45.362   2 0.10031 0.15479 0.17256 0.12601-0.97988 0.97988  0 281.52 354.49  210.63 281.39 354.55  210.41
   2   3   0  17.999  32.193   2-0.23592 0.49091 0.45981-0.16152 0.85611-0.85611  0 206.67 244.41  352.36 206.77 244.15  352.45
  -2  -3  -1 26375.3   332.4   1-0.44650 0.19125 0.31877-0.61693-0.83607 0.76343  0 204.52 255.25   29.18 204.53 255.18   29.33
  -2  -3  -1 38536.6   334.1   2-0.18971-0.06539-0.32978 0.03137 0.92480-0.99737  0 411.02 274.72   39.27 411.38 274.81   39.43
  -2  -3  -1 40332.0   342.3   2 0.12243-0.37758-0.13283-0.16565-0.98355 0.91104  0 318.42 156.36  192.79 318.56 156.47  192.83
  -2  -3   1 26461.2   328.6   1-0.59134 0.33608 0.04287-0.34103-0.80528 0.87792  0 206.89 236.13   47.01 206.89 236.09   47.34
  -2  -3   1 35903.3   336.4   2-0.23122-0.02388 0.16381-0.46221 0.95901-0.88645  0 409.04 284.13   10.81 409.30 284.16   10.68
  -2  -3   1 34088.4   328.7   2 0.12563-0.38078-0.57148 0.27301-0.81094 0.88344  0 309.46 155.85  165.57 309.62 155.97  165.47
  -2   3  -1 27170.7   289.2   1-0.70016 0.44487-0.46416 0.76241-0.54253 0.46991  0 378.89 182.44   80.83 378.75 182.56   81.09
  -2   3  -1 37049.2   352.2   2-0.23501-0.02009 0.29164 0.00677 0.92721-0.99978  0 303.11 156.00    2.77 303.21 156.11    3.11
  -2   3  -1 42501.7   374.7   2 0.10535-0.36046 0.11725 0.18131-0.98750 0.91498  0 406.90 290.45  206.97 407.13 290.47  207.19
  -2   3   1 25262.2   215.5   1-0.64261 0.38732-0.09777 0.39603-0.75993 0.83255  0 346.53 162.84   56.19 346.49 163.00   56.30
  -2   3   1 38221.7   366.5   2-0.21010-0.04500-0.14757 0.44597 0.96648-0.89391  0 295.12 156.67   28.63 295.29 156.77   28.65
  -2   3   1 42588.6   385.6   2 0.05328-0.30838 0.51970-0.22113-0.85269 0.92520  0 403.86 298.40  232.19 404.10 298.35  231.89
   2  -3  -1 20411.6   196.3   1-0.62506 0.88047-0.74931 0.45100-0.21874 0.14617  0 256.41 346.31  106.08 256.54 346.29  106.38
   2  -3  -1 38114.6   361.3   2 0.10975 0.14535 0.06756-0.36612-0.99166 0.91915  0 209.52 225.62  204.29 209.41 225.61  204.32
   2  -3   1 25450.8   277.7   1-0.58599 0.84141-0.80017 0.50186-0.12785 0.20042  0 229.99 324.91  112.73 229.96 324.82  112.76
   2  -3   1 -10.794  38.357   2-0.20388 0.45897-0.20875-0.08965 0.95648-0.88392  0 293.08 358.99   32.22 293.31 359.02   32.23
   2  -3   1 39065.1   355.4   2 0.12933 0.12581-0.37912 0.08064-0.91626 0.98877  0 207.39 232.62  177.93 207.29 232.53  178.14
   2   3  -1 25247.4   325.0   1-0.39104 0.64629 0.40002-0.10186-0.82890 0.75626  0 409.47 283.63   23.97 409.65 283.65   23.69
   2   3  -1 37712.9   341.7   2 0.11931 0.13584-0.07538 0.37386-0.98999 0.91749  0 286.83 357.88  195.76 286.81 357.69  196.16
   2   3  -1 33351.1   320.6   2-0.22754 0.48254 0.63988-0.34147 0.73402-0.80657  0 206.11 238.46  340.10 206.04 238.46  339.98
   2   3   1 24840.3   327.6   1-0.19976 0.45502 0.62256-0.32441-0.75664 0.82928  0 412.74 261.16    5.93 412.93 261.14    6.32
   2   3   1 35329.3   314.5   2-0.23383 0.48892 0.23769 0.06071 0.94278-0.87021  0 204.77 246.73    6.25 204.68 246.67    6.33
   2   3   1 40344.1   337.0   2 0.06814 0.18697 0.42777-0.12920-0.90132 0.97383  0 278.07 355.74  225.94 278.13 355.56  225.87
  -2  -3  -2 805.448  87.648   1-0.37178 0.11653 0.42637-0.72452-0.82461 0.67933  0 199.77 264.79   21.90 199.87 264.74   21.80
  -2  -3  -2  1206.9    97.4   2-0.15376-0.10138-0.55810 0.25959 0.81540-0.96038  0 417.62 276.17   54.15 417.96 276.24   54.13
  -2  -3  -2  1127.8    99.7   2 0.10731-0.36241 0.09554-0.39410-0.98963 0.84459  0 319.04 150.61  206.02 319.08 150.76  205.94
  -2  -3   2 772.736  82.584   1-0.64603 0.39075-0.10870-0.18956-0.75553 0.90077  0 204.50 226.34   56.87 204.45 226.36   57.00
  -2  -3   2  1033.1   104.6   2 0.11490-0.37005-0.72280 0.42432-0.68144 0.82645  0 301.67 150.57  153.98 301.75 150.57  154.04
  -2   3  -2 903.994 100.587   1-0.69528 0.44000-0.53506 0.83331-0.47989 0.33466  0 396.55 191.87   86.49 396.68 192.09   86.52
  -2   3  -2  1074.5   100.5   2 0.11986-0.37500-0.08461 0.38309-0.98918 0.84417  0 413.57 292.11  195.63 413.68 292.20  195.62
  -2   3  -2 993.880 101.637   2-0.23475-0.02023 0.49876-0.20048 0.83434-0.97949  0 303.72 150.44  349.82 303.84 150.58  349.88
  -2   3   2 815.955  52.400   1-0.44637 0.19111 0.31899-0.02084-0.83606 0.98135  0 331.98 152.55   29.37 331.96 152.60   29.32
  -2   3   2  1063.0   109.5   2-0.19085-0.06424-0.32082 0.61922 0.92771-0.78258  0 287.99 152.26   39.18 288.12 152.32   38.88
  -2   3   2  1148.3   114.6   2 0.02289-0.27799 0.67242-0.37386-0.73981 0.88484  0 406.92 307.58  242.87 407.10 307.58  242.94
   2  -3  -2 777.879  53.809   1-0.64529 0.90071-0.71348 0.41517-0.27304 0.12791  0 269.09 358.24  102.24 269.35 358.17  102.48
   2  -3  -2  1152.5   108.8   2-0.11821 0.37335-0.72439 0.42588 0.67918-0.82416  0 308.52 365.92   66.63 308.56 365.73   66.66
   2  -3  -2  1110.6    93.4   2 0.09165 0.16346 0.25270-0.55126-0.96319 0.81816  0 207.21 218.02  215.00 207.04 218.03  215.12
   2  -3   2 817.518  81.282   1-0.56584 0.82126-0.82004 0.52173-0.08582 0.23095  0 216.30 314.90  115.62 216.24 314.88  115.66
   2  -3   2 -16.241  41.737   2-0.22161 0.47671-0.00874-0.28967 0.97510-0.82997  0 292.46 364.47   20.95 292.50 364.53   20.64
   2  -3   2  1174.4    87.9   2 0.12533 0.12981-0.57810 0.27962-0.80628 0.95129  0 202.65 231.61  164.98 202.51 231.62  165.01
   2   3  -2 730.743  92.799   1-0.46709 0.72235 0.28592 0.01223-0.83671 0.69142  0 412.87 295.41   31.48 413.07 295.31   31.56
   2   3  -2  -1.609  43.802   2 0.12772 0.12742-0.27818 0.57666-0.95200 0.80699  2 294.15 364.37  184.00 294.32 364.57  184.29
   2   3  -2 880.491  80.540   2-0.21418 0.46918 0.76921-0.47080 0.60203-0.74714  0 203.21 230.13  329.30 203.03 230.10  329.29
   2   3   2  1130.6    77.4   2-0.22284 0.47794 0.00993 0.28847 0.97480-0.82967  0 199.91 245.86   19.66 199.85 245.86   19.56
   2   3   2  1198.1    92.6   2 0.02995 0.22516 0.64062-0.34205-0.76728 0.91231  0 277.17 361.10  240.44 277.25 360.96  240.50
  -2  -3  -3  3498.3   144.4   1-0.30459 0.04933 0.51052-0.80868-0.80411 0.58618  0 193.09 274.53   15.56 193.12 274.47   15.52
  -2  -3  -3  5772.8   195.7   1-0.00231-0.25311-0.78635 0.48808 0.61778-0.83530  0 429.36 277.33  169.04 429.53 277.29  169.27
  -2  -3  -3  6069.1   164.5   2-0.11709-0.13804-0.72886 0.43035 0.67458-0.89205  0 428.02 281.30   67.00 428.28 281.36   67.03
  -2  -3  -3  6140.9   167.0   2 0.08807-0.34318 0.28310-0.58167-0.95504 0.73749  0 317.42 141.23  217.00 317.43 141.38  216.94
  -2  -3   3  3912.0   146.8   1-0.68200 0.42672-0.25491-0.04335-0.68549 0.90335  0 199.77 216.31   66.40 199.70 216.31   66.51
  -2  -3   3  5276.6   169.1   2 0.10080-0.35593-0.82655 0.52790-0.55376 0.77112  0 292.11 142.45  144.50 292.27 142.53  144.54
  -2  -3   3  5004.8   170.8   2-0.23535-0.01964 0.48032-0.77860 0.84493-0.62721  0 419.37 307.58  351.00 419.55 307.55  351.10
  -2   3  -3  4212.4   165.5   1-0.68945 0.43416-0.57445 0.87271-0.44121 0.22336  0 415.95 201.60   89.79 416.17 201.69   89.69
  -2   3  -3  5605.0   169.1   2 0.12701-0.38216-0.25285 0.55133-0.95913 0.74161  0 423.35 297.29  186.21 423.57 297.38  185.80
  -2   3  -3  4935.1   164.4   2-0.22553-0.02947 0.66450-0.36608 0.71245-0.93011  0 302.16 141.46  338.00 302.13 141.56  338.08
  -2   3   3  6056.4   188.9   2-0.17260-0.08249-0.44935 0.74776 0.87652-0.65883  0 279.13 145.22   47.11 279.28 145.34   46.87
  -2   3   3  5810.0   186.4   2-0.00558-0.24946 0.78441-0.48579-0.62021 0.83772  0 412.40 319.83  252.47 412.53 319.77  252.49
   2  -3  -3  3412.8    61.2   1-0.66970 0.92498-0.65353 0.35528-0.35270 0.13484  0 280.80 371.18   96.50 281.11 371.05   96.59
   2  -3  -3  5889.1    75.9   1-0.01354 0.26896-0.79329 0.49502 0.60869-0.82621  0 320.52 374.73  168.44 320.42 374.56  168.35
   2  -3  -3  5677.7   182.2   2-0.09037 0.34550-0.82314 0.52463 0.56060-0.77807  0 317.45 374.86   75.59 317.45 374.73   75.65
   2  -3  -3  6094.7   175.3   2 0.07342 0.18168 0.39306-0.69163-0.91657 0.69903  0 202.97 208.25  223.75 202.83 208.27  223.69
   2  -3   3  4250.7   150.8   1-0.54492 0.80033-0.83729 0.53898-0.04492 0.26262  0 202.16 305.31  118.38 202.10 305.27  118.47
   2  -3   3   2.204  49.586   2-0.23124 0.48633 0.16425-0.46265 0.95893-0.74124  0 293.37 373.95   10.81 293.59 373.74   10.65
   2  -3   3  5374.0   154.1   2 0.11404 0.14111-0.73064 0.43217-0.67317 0.89069  0 195.45 228.17  153.28 195.37 228.10  153.39
   2   3  -3  3719.9   161.2   1-0.52626 0.78152 0.18131 0.11684-0.83077 0.61284  0 419.60 307.65   38.33 419.80 307.62   38.45
   2   3  -3  4599.3   149.9   2-0.19919 0.45419 0.85588-0.55747 0.47727-0.69494  0 198.25 219.61  320.59 198.18 219.65  320.49
   2   3   3  6155.8   153.3   2-0.20620 0.46129-0.18680 0.48521 0.96051-0.74282  0 192.61 242.22   30.99 192.51 242.18   30.94
   2   3   3  5830.5   160.9   2-0.00723 0.26227 0.79008-0.49146-0.61297 0.83047  0 278.24 370.57  252.84 278.33 370.35  253.03
  -2  -3  -4  2444.0   135.1   1-0.24823-0.00703 0.57345-0.87160-0.78073 0.49016  0 184.46 284.52   10.53 184.43 284.49   10.50
  -2  -3  -4  3951.1   185.2   1-0.09674-0.15868-0.83833 0.54006 0.53651-0.82653  0 442.32 290.00  161.58 442.43 289.92  161.53
  -2  -3  -4  4167.9   157.5   2-0.08386-0.17128-0.84322 0.54471 0.53099-0.82095  0 441.83 289.57   77.78 442.03 289.64   77.72
  -2  -3  -4  4360.3   160.2   2 0.06920-0.32431 0.42056-0.71913-0.90462 0.61456  0 314.01 128.67  225.35 314.06 128.84  225.41
  -2  -3   4  2733.8   135.7   1-0.69871 0.44342-0.38748 0.08923-0.60138 0.89186  0 192.93 205.81   75.46 192.84 205.83   75.55
  -2  -3   4  3822.1   171.0   2 0.08570-0.34083-0.89565 0.59700-0.43642 0.72624  0 281.43 132.54  136.65 281.57 132.54  136.71
  -2  -3   4  3283.8   169.3   2-0.23197-0.02303 0.56737-0.86578 0.79012-0.49989  0 428.02 323.18  345.23 428.32 323.11  345.26
  -2   3  -4  2746.3   163.2   1-0.68540 0.43011-0.59527 0.89352-0.41939 0.12891  0 437.43 211.45   91.38 437.56 211.57   91.44
  -2   3  -4  3778.2   164.8   2 0.12933-0.38448-0.38015 0.67862-0.91584 0.62582  0 436.42 305.48  178.00 436.63 305.57  178.08
  -2   3  -4  3419.4   157.5   2-0.21197-0.04303 0.78469-0.48628 0.58252-0.87274  0 298.85 129.53  327.82 298.85 129.68  327.86
  -2   3   4  4206.1   184.3   2-0.15720-0.09794-0.53903 0.83754 0.82749-0.53753  0 268.93 136.23   53.07 269.06 136.33   52.82
  -2   3   4  4202.7   186.0   2-0.03123-0.22381 0.86265-0.56403-0.50484 0.79484  0 420.15 334.73  260.62 420.22 334.65  260.62
   2  -3  -4  2012.3    40.9   1-0.69882 0.95411-0.49638 0.19813-0.51502 0.22455  0 287.72 384.94   83.41 288.04 384.77   83.52
   2  -3  -4  3444.0    50.3   1-0.48987 0.74529-0.87021 0.57191 0.05247-0.34273  0 313.26 387.51  125.84 312.97 387.28  125.15
   2  -3  -4  4254.2   184.2   2-0.06595 0.32108-0.89127 0.59276 0.44865-0.73861  0 327.96 386.66   83.22 327.96 386.54   83.27
   2  -3  -4  4225.7   165.8   2 0.05770 0.19740 0.49334-0.79190-0.86792 0.57786  0 197.13 196.75  230.22 197.01 196.75  230.13
   2  -3   4  3016.0   145.4   1-0.52316 0.77858-0.85222 0.55391-0.00469 0.29495  0 187.43 295.89  121.04 187.41 295.82  121.22
   2  -3   4  3845.0   143.7   2 0.09890 0.15623-0.83688 0.53824-0.53837 0.82819  0 186.26 222.55  143.40 186.22 222.53  143.48
   2   3  -4  2286.8   149.9   1-0.56995 0.82521 0.09217 0.20599-0.81649 0.52593  0 429.65 320.97   44.01 429.77 320.97   44.19
   2   3  -4  3664.5   168.1   2 0.12742 0.12772-0.52649 0.82497-0.84058 0.55055  0 314.14 387.42  168.75 314.12 387.18  168.59
   2   3  -4  3247.8   147.9   2-0.18420 0.43920 0.91233-0.61392 0.36567-0.65590  0 191.80 207.56  313.27 191.77 207.60  313.23
   2   3   4  4293.7   143.5   2-0.18884 0.44393-0.33653 0.63493 0.92255-0.63229  0 183.12 236.40   39.85 183.02 236.34   39.84
   2   3   4  3766.9   150.7   2-0.03965 0.29469 0.88445-0.58583-0.46495 0.75496  0 280.81 383.50  263.11 280.84 383.24  263.27
  -2  -3  -5 557.199  93.090   1-0.20352-0.05174 0.61887-0.91703-0.75867 0.39546  0 174.05 294.97    6.67 174.00 294.96    6.64
  -2  -3  -5 906.278 130.703   1-0.18228-0.07313-0.87286 0.57459 0.45264-0.81517  0 458.37 303.86  154.39 458.53 303.71  154.39
  -2  -3  -5 859.042 104.779   2-0.05569-0.19944-0.91524 0.61673 0.39904-0.76149  0 458.59 300.54   86.54 459.06 300.51   86.47
  -2  -3  -5 856.267 107.587   2 0.05418-0.30929 0.51452-0.81308-0.85576 0.49319  0 309.40 113.55  231.49 309.42 113.63  231.54
  -2  -3   5 663.545  92.872   1-0.69843 0.44315-0.50226 0.20400-0.50983 0.87293  0 183.97 194.50   84.09 183.99 194.76   83.97
  -2  -3   5 829.427 118.580   2 0.07116-0.32629-0.94081 0.64216-0.33139 0.69366  0 269.62 120.74  130.02 269.79 120.85  130.12
  -2  -3   5 835.490 122.834   2-0.22860-0.02640 0.62454-0.92295 0.74679-0.38401  0 439.03 341.13  341.04 439.07 341.12  341.13
  -2   3  -5 775.984 122.557   1-0.68340 0.42812-0.60427 0.90252-0.40966 0.04657  0 461.04 221.99   92.27 461.35 221.97   92.20
  -2   3  -5 932.651 115.367   2 0.12856-0.38371-0.47139 0.76987-0.87251 0.50998  0 452.53 316.36  172.26 452.87 316.44  172.26
  -2   3  -5 746.848 109.223   2-0.19666-0.05834 0.86707-0.56866 0.45772-0.82050  0 294.36 115.08  319.02 294.27 115.20  319.19
  -2   3   5  1001.8   127.4   2-0.14557-0.10957-0.60064 0.89915 0.78616-0.42371  0 257.50 125.30   56.96 257.67 125.48   57.13
  -2   3   5 762.700 124.761   2-0.05357-0.20147 0.91578-0.61716-0.39810 0.76061  0 429.95 352.18  267.62 430.00 352.14  267.56
   2  -3  -5 560.820  40.728   1-0.65071 0.90599-0.12445-0.17380-0.74906 0.38596  0 282.31 398.81   58.16 282.29 398.61   58.01
   2  -3  -5 715.762  45.557   1-0.62355 0.87897-0.75167 0.45336-0.21490-0.14793  0 319.09 402.91  107.17 318.84 402.78  106.66
   2  -3  -5 912.795 126.414   2-0.04502 0.30016-0.93710 0.63859 0.34615-0.70860  0 339.92 401.15   90.06 340.00 401.04   89.82
   2  -3  -5 937.034 109.985   2 0.04556 0.20954 0.56280-0.86136-0.82534 0.46276  0 189.91 183.77  234.80 189.79 183.70  234.85
   2  -3   5 775.290 101.340   1-0.50039 0.75581-0.86510 0.56679 0.03494 0.32788  0 172.12 286.40  123.83 172.01 286.38  123.94
   2  -3   5 990.677 109.328   2 0.08236 0.17277-0.90745 0.60880-0.41202 0.77428  0 175.34 215.36  135.26 175.26 215.31  135.15
   2   3  -5 578.249 108.808   1-0.60065 0.85591 0.02015 0.27800-0.79926 0.43605  0 443.03 335.71   48.79 443.00 335.71   48.79
   2   3  -5 976.963 126.162   2 0.12457 0.13058-0.59366 0.89213-0.79502 0.43249  0 326.01 402.45  163.82 326.08 402.39  163.90
   2   3  -5 834.426 103.011   2-0.16997 0.42497 0.94857-0.65016 0.26706-0.62984  0 183.95 194.26  307.21 184.01 194.18  307.11
   2   3   5 982.874 100.800   2-0.17358 0.42868-0.44252 0.74093 0.87980-0.51697  0 171.74 229.06   46.45 171.67 228.93   46.44
   2   3   5 698.862  95.720   2-0.06635 0.32139 0.94027-0.64165-0.33391 0.69642  0 284.28 399.45  271.56 284.37 399.22  271.56
  -2  -3  -6 283.460  79.757   1-0.16995-0.08531 0.65059-0.94874-0.74017 0.30432  0 161.94 306.14    3.70 161.93 306.08    3.79
  -2  -3  -6 444.256 128.613   1-0.25934 0.00392-0.89257 0.59426 0.36887-0.80426  0 478.26 319.30  147.62 478.09 319.21  147.78
  -2  -3  -6 362.226 105.251   2-0.03231-0.22283-0.95879 0.66028 0.28226-0.71720  0 479.54 313.56   94.17 479.57 313.87   93.76
  -2  -3  -6 389.865 109.124   2 0.04290-0.29801 0.57682-0.87538-0.81574 0.38065  0 303.97  95.89  235.75 303.88  95.89  235.84
  -2  -3   6 190.777  73.911   1-0.68472 0.42943-0.59838 0.30012-0.41606 0.85177  0 173.53 182.91   91.60 173.36 182.85   91.70
  -2  -3   6 440.274 124.301   2 0.05769-0.31283-0.96968 0.67103-0.23748 0.67221  0 256.69 107.57  124.39 257.00 107.52  124.43
  -2  -3   6 233.874 126.861   2-0.22580-0.02920 0.66109-0.95950 0.71553-0.28019  0 452.06 361.92  338.37 452.03 361.73  338.34
  -2   3  -6 236.421 122.704   1-0.68320 0.42791-0.60516 0.90342-0.40868-0.02703  0 488.15 233.30   92.41 488.30 233.19   92.28
  -2   3  -6 362.318 114.213   2 0.12718-0.38232-0.53413 0.83260-0.83578 0.40075  0 471.97 329.85  167.97 472.47 329.90  168.06
  -2   3  -6 299.073 109.463   2-0.18110-0.07390 0.92164-0.62322 0.34321-0.77855  0 288.49  98.26  312.06 288.64  98.21  311.82
  -2   3   6 414.667  98.858   2-0.13737-0.11776-0.64169 0.94020 0.75456-0.31963  0 245.17 112.84   59.98 245.11 112.94   60.14
  -2   3   6 298.364 125.897   2-0.07286-0.18218 0.95092-0.65231-0.30072 0.73574  0 442.03 372.51  273.56 441.87 372.38  273.59
   2  -3  -6 267.960  41.931   1-0.51856 0.77382 0.19583-0.49398-0.83231 0.39646  0 270.90 413.58   38.05 270.53 413.36   37.50
   2  -3  -6 280.928  44.824   1-0.65726 0.91268-0.68714 0.38883-0.30959-0.12580  0 331.88 421.09  100.35 331.52 421.15   99.80
   2  -3  -6 343.063 125.525   2-0.02669 0.28183-0.96702 0.66851 0.25330-0.68823  0 353.71 418.62   95.53 353.69 418.41   95.52
   2  -3  -6 398.165  98.722   2 0.03638 0.21873 0.60968-0.90825-0.79181 0.35672  0 181.43 169.29  238.03 181.22 169.17  238.20
   2  -3   6 224.244  86.365   1-0.47664 0.73206-0.87596 0.57765 0.07426 0.36113  0 155.80 276.79  126.65 155.67 276.81  126.64
   2  -3   6 307.667  79.927   2 0.06658 0.18856-0.95213 0.65348-0.29836 0.73308  0 162.47 206.85  128.50 162.52 206.87  128.10
   2   3  -6 257.394 113.128   1-0.62148 0.87677-0.03477 0.33303-0.78265 0.34694  0 459.31 352.32   52.34 459.58 352.38   52.29
   2   3  -6 336.676 124.618   2 0.12212 0.13302-0.63764 0.93612-0.76059 0.32556  0 339.43 420.85  160.77 339.46 420.35  160.71
   2   3  -6 365.789  93.940   2-0.15669 0.41169 0.97123-0.67281 0.17935-0.61468  0 175.13 179.50  301.71 174.92 179.45  301.83
   2   3   6 433.915  87.368   2-0.16165 0.41678-0.51407 0.81258 0.84238-0.40744  0 158.61 220.48   51.26 158.61 220.42   51.13
   2   3   6 386.229 100.564   2-0.08810 0.34313 0.97142-0.67280-0.22043 0.65544  0 289.01 418.10  278.37 288.60 418.15  278.44
  -2  -3  -7 26443.4   430.3   1-0.14618-0.10908 0.67174-0.96990-0.72622 0.21773  0 148.17 318.03    1.98 148.16 318.09    1.80
  -2  -3  -7 39946.1   548.6   1-0.32690 0.07148-0.90033 0.60202 0.28732-0.79528  0 501.60 336.93  141.98 501.70 336.89  141.69
  -2  -3  -7 44318.6   538.6   2-0.01275-0.24238-0.98360 0.68495 0.17991-0.68709  2 503.88 329.83  100.00 504.01 329.69   99.93
  -2  -3  -7 44371.3   533.4   2 0.03491-0.29001 0.61702-0.91558-0.78617 0.27857  0 297.51  75.29  238.74 297.59  75.51  238.74
  -2  -3   7 31269.3   444.5   1-0.66144 0.40615-0.67668 0.37842-0.32344 0.83177  0 161.03 169.75   98.98 160.92 169.85   98.77
  -2  -3   7 39998.0   535.3   2 0.04453-0.29966-0.98719 0.68854-0.15322 0.66039  0 243.16  92.27  119.38 243.05  92.44  119.45
  -2  -3   7 35478.5   530.4   2-0.22389-0.03111 0.68347-0.98189 0.69479-0.18690  0 467.11 385.61  336.65 467.43 385.47  336.59
  -2   3  -7 39598.8   524.4   2 0.12542-0.38056-0.57624 0.87472-0.80760 0.30006  0 495.81 346.03  164.96 496.08 346.13  165.14
  -2   3  -7 33832.4   483.2   2-0.16585-0.08914 0.95658-0.65816 0.23968-0.74758  0 282.13  78.35  305.54 282.14  78.58  305.45
  -2   3   7 43548.8   564.5   2-0.13163-0.12350-0.66799 0.96650 0.73244-0.22501  0 231.40  98.45   62.00 231.30  98.67   62.14
  -2   3   7 39553.2   557.9   2-0.08973-0.16531 0.97314-0.67452-0.21199 0.71951  0 456.08 395.92  278.99 456.11 395.81  278.93
   2  -3  -7 31098.4   239.0   1-0.40638 0.66164 0.37846-0.67661-0.83164 0.32314  0 257.22 430.12   25.23 257.43 429.88   25.21
   2  -3  -7 26915.0   228.0   1-0.67381 0.92910-0.64056 0.34231-0.36832-0.14001  0 346.35 442.88   95.61 346.46 442.72   95.40
   2  -3  -7 43734.7   578.8   2-0.01072 0.26585-0.98552 0.68687 0.16924-0.67641  0 369.25 439.16  100.69 369.19 438.87  100.56
   2  -3  -7 43246.1   560.4   2 0.02998 0.22513 0.64050-0.93906-0.76738 0.25977  0 171.30 152.98  240.48 171.22 153.06  240.49
   2  -3   7 34287.3   506.5   1-0.45191 0.70733-0.88483 0.58652 0.11339 0.39457  0 138.20 266.88  129.31 138.18 266.91  129.34
   2  -3   7 41829.4   512.1   2 0.05140 0.20373-0.97911 0.68046-0.19671 0.70389  0 148.05 197.29  121.78 148.00 197.31  122.00
   2  -3   7 35620.6   493.3   2-0.23417 0.48917 0.51401-0.81242 0.82520-0.31731  0 309.20 442.92  349.00 309.41 442.68  348.93
   2   3  -7 23974.2   415.1   1-0.63527 0.89056-0.07475 0.37301-0.76866 0.26033  0 479.73 371.62   54.97 479.92 371.61   54.83
   2   3  -7 40325.9   551.8   2 0.12014 0.13500-0.66552 0.96399-0.73665 0.22911  0 354.60 441.60  158.59 354.51 441.46  158.61
   2   3  -7 36843.8   512.3   2-0.14418 0.39922 0.98438-0.68576 0.10106-0.60857  0 164.50 163.30  297.18 164.46 163.27  297.25
   2   3   7 43493.4   504.9   2-0.15310 0.40823-0.56168 0.86019 0.81306-0.30564  0 143.76 210.83   54.39 143.75 210.88   54.38
   2   3   7 -24.487  97.486   2-0.10613 0.36117 0.98688-0.68826-0.12165 0.62916  2 293.20 440.24  284.59 293.38 440.31  284.26
  -2  -3  -8  3194.1   253.9   2 0.02967-0.28478 0.64177-0.94034-0.76632 0.18620  0 290.53  52.10  240.58 290.57  52.10  240.58
  -2  -3   8  2474.3   179.2   1-0.63124 0.37582-0.73928 0.44097-0.23453 0.81505  0 146.75 155.25  105.11 146.72 155.50  105.26
  -2  -3   8  3135.6   234.8   2 0.03215-0.28728-0.99656 0.69791-0.07641 0.65604  0 227.89  75.35  115.13 227.78  75.40  114.94
  -2  -3   8  2624.4   306.1   2-0.22272-0.03228 0.69581-0.99422 0.68282-0.10237  0 485.79 413.15  335.64 485.87 413.03  335.59
  -2   3  -8  2641.5   261.8   2-0.15141-0.10359 0.97760-0.67919 0.14617-0.72662  0 274.82  55.80  299.99 274.79  55.98  299.87
  -2   3   8  3322.1   233.6   2-0.12809-0.12704-0.68366 0.98217 0.71847-0.13855  0 216.05  82.19   63.29 216.03  82.44   63.36
  -2   3   8  3298.5   306.8   2-0.10453-0.15051 0.98591-0.68729-0.13060 0.71062  0 473.19 423.20  283.66 473.20 423.20  283.73
   2  -3  -8  2117.7    99.1   1-0.33292 0.58818 0.47640-0.77455-0.81376 0.23263  0 244.07 449.15   18.22 243.81 448.87   18.12
   2  -3  -8  1936.1   133.0   1-0.68506 0.94035-0.59678 0.29852-0.41778-0.16317  0 362.54 468.23   91.61 362.66 468.14   91.56
   2  -3  -8  3486.8   305.1   2 0.00337 0.25176-0.99579 0.69714 0.09165-0.67128  0 386.93 463.59  104.99 387.12 463.38  105.14
   2  -3  -8  3478.7   242.1   2 0.02577 0.22934 0.65964-0.95821-0.75114 0.17102  0 159.75 135.15  242.05 159.61 135.15  241.95
   2  -3   8  2608.3   197.9   1-0.42603 0.68145-0.89180 0.59349 0.15228 0.42824  0 119.34 256.46  132.03 119.18 256.45  132.05
   2  -3   8  2831.5   193.7   2 0.03689 0.21824-0.99375 0.69510-0.10536 0.68499  0 131.64 186.63  116.62 131.47 186.69  116.65
   2  -3   8  2777.9   260.5   2-0.23297 0.48797 0.54495-0.84336 0.80546-0.22501  0 315.10 468.74  346.98 315.27 468.56  346.83
   2   3  -8  2020.1   239.5   1-0.64391 0.89919-0.10174 0.39999-0.75831 0.17736  2 503.91 394.18   56.50 504.66 394.36   56.55
   2   3  -8  3288.9   293.2   2 0.11872 0.13643-0.68200 0.98048-0.72165 0.14161  0 371.70 466.62  157.31 371.66 466.46  157.33
   2   3  -8  2793.1   218.1   2-0.13212 0.38716 0.99081-0.69219 0.02907-0.60908  0 152.39 145.50  293.22 152.40 145.52  293.03
   2   3   8  2745.5   182.5   2-0.14731 0.40244-0.59193 0.89044 0.79241-0.21250  0 127.04 200.36   56.50 126.92 200.46   56.51
  -2  -3  -9  65.950 177.137   2 0.02669-0.28180 0.65546-0.95402-0.75476 0.10212  0 282.90  25.62  241.93 282.83  24.99  241.63
  -2  -3   9 109.585 103.577   1-0.59567 0.34025-0.78931 0.49101-0.14888 0.80196  0 129.97 138.92  111.66 130.43 139.11  111.30
  -2  -3   9  84.323 140.069   2 0.02027-0.27540-0.99978 0.70113-0.00562 0.65770  0 210.76  55.89  110.68 210.85  55.96  110.83
  -2   3  -9 -24.114 181.426   2-0.13773-0.11731 0.98854-0.68992 0.06180-0.71431  0 266.51  29.82  295.11 266.68  29.75  294.95
  -2   3   9 106.695 135.689   2-0.12618-0.12896-0.69139 0.98989 0.71138-0.05898  0 199.11  63.89   63.96 198.97  63.88   63.96
  -2   3   9 123.295 227.908   2-0.11784-0.13720 0.99149-0.69287-0.05537 0.70789  0 493.86 455.59  287.93 493.98 455.78  288.11
   2  -3  -9  87.567  62.787   1-0.28996 0.54522 0.52755-0.82571-0.79851 0.14473  0 230.19 471.74   14.62 229.82 471.21   14.20
   2  -3  -9   5.765  99.526   1-0.69307 0.94835-0.55217 0.25391-0.46343-0.19014  0 381.05 498.07   88.58 380.14 498.69   87.88
   2  -3  -9  15.685 216.434   2 0.01606 0.23907-0.99968 0.70103 0.01978-0.67187  0 408.14 493.07  109.56 408.13 492.96  109.35
   2  -3  -9  -7.743 134.729   2 0.02341 0.23170 0.67012-0.96869-0.74188 0.08924  0 146.28 115.27  243.14 146.11 115.06  242.76
   2  -3   9  44.477 109.425   1-0.39909 0.65450-0.89678 0.59847 0.19108 0.46201  0  98.17 245.31  134.58  98.23 245.16  134.78
   2  -3   9 -30.736 108.197   2 0.02314 0.23199-0.99948 0.70083-0.02246 0.67455  0 113.13 175.11  111.73 112.58 174.97  111.81
   2  -3   9 210.120 191.589   2-0.23214 0.48714 0.56366-0.86207 0.79271-0.13971  0 321.74 499.01  345.43 321.78 499.21  345.52
   2   3  -9 -63.712 216.539   2 0.11801 0.13713-0.69017 0.98865-0.71396 0.06141  0 391.38 495.70  156.54 391.60 496.50  156.69
   2   3  -9  71.816 123.562   2-0.12088 0.37592 0.99195-0.69333-0.03772-0.61480  0 138.34 125.76  289.02 138.39 125.74  289.14
   2   3   9 103.549 106.400   2-0.14378 0.39892-0.60962 0.90813 0.77954-0.12714  0 107.85 188.97   57.53 107.72 189.10   57.78
  -2  -3  10 645.021 162.648   1-0.55647 0.30105-0.82814 0.52983-0.06722 0.79287  0 111.80 119.91  116.83 111.75 120.14  116.94
  -2  -3  10 925.921 200.843   2 0.00893-0.26406-0.99813 0.69948 0.06046 0.66408  0 191.61  33.34  106.62 191.73  33.55  106.98
  -2   3  10 791.204 195.810   2-0.12581-0.12933-0.69298 0.99149 0.70990 0.01500  0 179.47  42.45   63.98 179.59  42.44   64.09
   2  -3 -10 404.274  89.667   1-0.26918 0.52443 0.55092-0.84908-0.78995 0.06354  0 215.66 498.28   12.51 215.35 498.03   12.34
   2  -3 -10 923.573 202.344   2 0.02254 0.23256 0.67393-0.97249-0.73845 0.01330  0 130.38  92.23  243.46 130.25  92.18  243.06
   2  -3  10 736.379 169.313   1-0.37102 0.62644-0.89974 0.60143 0.22981 0.49584  0  74.78 232.56  137.58  74.73 232.72  137.53
   2  -3  10 542.142 149.371   2 0.01014 0.24500-0.99851 0.69986 0.05359 0.67095  0  90.33 162.03  106.97  90.78 161.98  107.38
   2   3 -10 512.951 172.305   2-0.11000 0.36504 0.98886-0.69024-0.10027-0.62475  0 121.80 103.35  285.62 122.02 103.39  285.51
   2   3  10 830.446 151.735   2-0.14210 0.39724-0.61793 0.91644 0.77329-0.04839  0  85.45 176.78   58.32  85.58 176.68   58.39
  -2  -3  11  3812.6   299.4   1-0.51462 0.25920-0.85735 0.55904 0.01064 0.78758  0  90.44  97.71  122.07  90.05  97.63  122.27
  -2  -3  11  5251.9   405.9   2-0.00222-0.25291-0.99244 0.69379 0.12269 0.67430  2 169.74   7.38  103.23 169.63   7.14  103.32
  -2   3  11  4962.4   385.8   2-0.12659-0.12854-0.68960 0.98811 0.71304 0.08434  0 157.28  17.24   64.15 157.15  17.22   63.82
   2  -3 -11  5002.0   396.0   2 0.02290 0.23221 0.67238-0.97095-0.73985-0.05782  0 111.65  65.62  243.05 111.33  65.62  242.93
   2  -3  11  4288.5   305.1   1-0.34163 0.59705-0.90068 0.60237 0.26843 0.52979  0  48.04 218.56  140.34  47.86 218.63  140.31
   2  -3  11  5054.3   321.5   2-0.00250 0.25764-0.99224 0.69360 0.12427 0.67272  0  65.24 147.36  103.31  65.14 147.42  103.22
   2   3 -11  4176.7   356.5   2-0.09928 0.35432 0.98220-0.68359-0.15943-0.63810  0 102.62  77.62  281.95 102.51  77.57  282.05
   2   3  11  4977.0   295.4   2-0.14189 0.39703-0.61896 0.91747 0.77250 0.02488  0  59.56 162.90   58.48  59.65 162.91   58.46
  -2  -4   0  4640.2   168.8   1-0.57236 0.31710 0.08679-0.48433-0.81540 0.81540  0 185.70 256.16   44.50 185.78 256.05   44.53
  -2  -4   0  6480.2   184.6   2-0.21025-0.04484-0.14591-0.25196 0.96670-0.96670  0 432.26 300.20   28.57 432.47 300.22   28.55
  -2  -4   0  6804.8   190.9   2 0.12910-0.38425-0.36354-0.03443-0.92259 0.92259  0 302.05 133.99  178.89 302.20 134.15  179.12
  -2   4   0  4722.9   151.1   1-0.65502 0.39973-0.13971 0.53738-0.74259 0.74259  0 384.54 155.34   59.01 384.70 155.54   58.99
  -2   4   0  6794.2   199.4   2-0.22992-0.02517 0.13330 0.26458 0.96404-0.96404  0 283.68 136.81   12.42 283.85 136.96   12.46
  -2   4   0  7374.4   209.4   2 0.08178-0.33689 0.33319 0.06490-0.93931 0.93931  0 423.53 318.47  220.00 423.74 318.44  219.98
   2  -4   0  4587.5   135.7   1-0.65189 0.90731-0.69951 0.30176-0.29278 0.29278  0 225.22 348.10  100.87 225.27 348.05  101.04
   2  -4   0  7086.7   202.6   2-0.18046 0.43556-0.39642-0.00145 0.90016-0.90016  0 312.12 382.54   43.54 312.18 382.40   43.52
   2  -4   0  7594.1   196.8   2 0.12546 0.12969-0.20034-0.19763-0.97166 0.97166  0 194.99 210.55  188.85 194.91 210.49  188.90
   2   4   0  4328.6   186.1   1-0.32322 0.57848 0.48826-0.09072-0.81064 0.81064  0 440.01 260.22   17.03 440.12 260.28   17.23
   2   4   0  -0.886  49.487   2 0.09544 0.15966 0.21962 0.17847-0.97091 0.97091  0 293.11 380.64  213.14 293.04 380.79  213.16
   2   4   0  6268.7   169.8   2-0.23638 0.49137 0.43215-0.03443 0.87027-0.87027  0 189.45 226.77  354.15 189.46 226.73  354.23
  -2  -4  -1  9320.6   228.4   1-0.51791 0.26265 0.19729-0.59483-0.83237 0.75973  0 184.52 265.87   37.36 184.58 265.76   37.41
  -2  -4  -1 13787.0   249.9   2-0.18910-0.06599-0.33447-0.06340 0.92324-0.99580  0 435.39 297.55   40.09 435.69 297.65   39.71
  -2  -4  -1 12876.3   241.1   2 0.12512-0.38027-0.19019-0.20778-0.97374 0.90124  0 305.20 132.05  189.43 305.37 132.22  189.49
  -2  -4   1  9807.4   234.2   1-0.62054 0.36525-0.03213-0.36554-0.78352 0.85614  0 184.83 246.40   52.02 184.83 246.34   52.12
  -2  -4   1 13541.3   255.7   2-0.22456-0.03054 0.03426-0.43213 0.97386-0.90129  0 432.20 306.13   17.83 432.41 306.19   18.16
  -2  -4   1 12712.0   250.3   2 0.12754-0.38268-0.52272 0.12475-0.84291 0.91542  0 296.92 132.79  169.00 297.09 132.94  168.85
  -2   4  -1  9380.5   210.3   1-0.68572 0.43044-0.27579 0.67347-0.67359 0.60097  0 400.63 165.45   68.06 400.84 165.58   67.90
  -2   4  -1 13322.9   261.6   2-0.23518-0.01992 0.30487 0.09301 0.92290-0.99547  0 286.46 134.47    1.98 286.58 134.64    2.32
  -2   4  -1 13496.1   262.1   2 0.10025-0.35536 0.17316 0.22493-0.97978 0.90726  0 427.03 316.46  210.43 427.27 316.47  210.44
  -2   4   1  9496.8   174.3   1-0.58405 0.32879 0.06025 0.33729-0.80948 0.88212  0 370.32 144.86   46.04 370.21 145.03   46.23
  -2   4   1 14132.9   272.7   2-0.21989-0.03521-0.03148 0.42935 0.97502-0.90245  0 279.06 136.20   22.00 279.21 136.35   21.95
  -2   4   1 13410.6   266.2   2 0.05921-0.31432 0.48434-0.08625-0.87288 0.94539  0 422.92 323.68  229.56 423.14 323.63  229.53
   2  -4  -1  8099.2   154.7   1-0.66991 0.92519-0.65290 0.25523-0.35347 0.28085  0 236.64 359.48   96.49 236.65 359.36   96.53
   2  -4  -1 14149.9   273.4   2-0.15722 0.41236-0.53889 0.14088 0.82757-0.90006  0 316.99 384.24   53.00 317.05 384.13   52.81
   2  -4  -1 14494.8   265.1   2 0.11658 0.13856-0.03178-0.36619-0.99267 0.92017  0 195.32 206.20  198.70 195.23 206.14  198.66
   2  -4   1  8793.9   191.9   1-0.63252 0.88794-0.73709 0.33935-0.23793 0.31049  0 213.08 337.43  104.85 213.08 337.38  105.01
   2  -4   1 13601.2   261.8   2-0.20012 0.45522-0.24251-0.15537 0.94928-0.87672  0 309.12 384.28   34.00 309.13 384.13   34.22
   2  -4   1 13097.2   247.6   2 0.12916 0.12599-0.37204-0.02593-0.91919 0.99169  0 192.56 212.54  178.62 192.49 212.46  178.59
   2   4  -1  8951.4   240.8   1-0.39755 0.65281 0.39093 0.00661-0.83014 0.75750  0 441.46 272.14   24.03 441.57 272.19   24.33
   2   4  -1 11230.1   223.4   2-0.23131 0.48631 0.57819-0.18031 0.78243-0.85498  0 189.36 221.81  344.48 189.31 221.82  344.49
   2   4   1  9051.6   241.8   1-0.23927 0.49453 0.58289-0.18535-0.77653 0.84917  0 441.81 248.24    9.96 441.95 248.27    9.72
   2   4   1 12390.8   228.0   2-0.23460 0.48970 0.26729 0.13059 0.93462-0.86206  0 187.31 229.21    4.61 187.21 229.19    4.57
   2   4   1 13240.9   241.0   2 0.07113 0.18398 0.40764-0.00956-0.91037 0.98288  0 289.67 382.18  224.56 289.72 381.95  224.60
  -2  -4  -2 10645.1   247.6   1-0.46154 0.20628 0.29486-0.69240-0.83668 0.69140  0 181.19 275.70   30.99 181.25 275.61   30.96
  -2  -4  -2 15218.9   269.0   2-0.16222-0.09292-0.51074 0.11273 0.84429-0.98927  0 441.91 298.32   51.19 442.18 298.40   50.91
  -2  -4  -2 14809.7   264.1   2 0.11574-0.37089-0.01954-0.37843-0.99309 0.84808  0 306.41 126.82  199.17 306.53 127.00  199.37
  -2  -4   2 10171.2   241.3   1-0.65876 0.40348-0.15341-0.24427-0.73654 0.88178  0 181.79 236.51   59.94 181.79 236.49   59.87
  -2  -4   2 14200.8   273.3   2-0.23230-0.02280 0.18973-0.58760 0.95396-0.80883  0 435.11 315.24    8.84 435.29 315.26    9.17
  -2  -4   2 13849.4   269.1   2 0.12085-0.37600-0.65611 0.25814-0.74493 0.88994  0 289.98 128.68  159.28 290.18 128.84  159.33
  -2   4  -2 10406.2   240.0   1-0.69714 0.44186-0.36549 0.76316-0.61677 0.47154  0 418.62 175.20   74.00 418.75 175.35   74.02
  -2   4  -2 14526.3   275.7   2 0.11354-0.36865 0.01806 0.38003-0.99337 0.84834  0 433.58 317.71  201.48 433.77 317.74  201.47
  -2   4  -2 12943.7   264.2   2-0.23566-0.01933 0.46703-0.06932 0.85226-0.99741  0 287.46 129.24  352.05 287.63 129.44  351.97
  -2   4   2  9891.9   160.3   1-0.43831 0.18305 0.33120 0.06634-0.83558 0.98086  0 357.69 133.65   28.51 357.63 133.83   28.48
  -2   4   2 15313.7   291.5   2-0.20722-0.04788-0.17666 0.57453 0.96221-0.81708  0 272.65 132.89   29.96 272.85 133.05   30.34
  -2   4   2 15829.2   295.9   2 0.03506-0.29016 0.61629-0.21821-0.78674 0.93177  0 424.98 332.01  238.74 425.21 331.94  238.69
   2  -4  -2  8405.2   143.8   1-0.68572 0.94101-0.59373 0.19605-0.42104 0.27580  0 246.96 371.70   91.15 247.01 371.55   91.30
   2  -4  -2 14977.7   287.5   2-0.13309 0.38823-0.66138 0.26336 0.73815-0.88313  0 323.68 389.20   61.62 323.70 389.07   61.63
   2  -4  -2 15775.7   283.4   2 0.10512 0.14999 0.11982-0.51791-0.98721 0.84218  0 193.68 199.57  207.31 193.56 199.56  207.34
   2  -4   2  9747.1   215.1   1-0.61204 0.86746-0.76849 0.37075-0.18663 0.33176  0 200.20 327.26  108.63 200.21 327.21  108.65
   2  -4   2 14035.9   270.0   2-0.21512 0.47022-0.09041-0.30746 0.97239-0.82726  0 307.85 389.45   25.25 307.87 389.28   25.35
   2  -4   2 14406.1   263.7   2 0.12729 0.12786-0.53088 0.13291-0.83783 0.98285  0 188.05 212.17  168.29 187.97 212.10  168.28
   2   4  -2  9400.8   248.4   1-0.46021 0.71547 0.29700 0.10053-0.83666 0.69137  0 446.09 284.40   30.96 446.23 284.47   30.81
   2   4  -2 15326.9   287.5   2 0.12227 0.13287-0.12974 0.52771-0.98398 0.83897  2 305.01 389.10  192.82 304.85 388.86  193.01
   2   4  -2 11867.3   239.1   2-0.22251 0.47751 0.69797-0.30009 0.68068-0.82579  0 187.22 214.61  335.46 187.15 214.66  335.42
   2   4   2  9544.2   252.2   1-0.14918 0.40443 0.66912-0.27158-0.72803 0.87331  0 446.80 236.02    2.03 447.02 235.97    2.05
   2   4   2 14040.3   245.6   2-0.22826 0.48336 0.10029 0.29759 0.96842-0.82329  0 182.83 229.16   14.27 182.79 229.13   14.37
   2   4   2 15491.5   265.7   2 0.04288 0.21222 0.57689-0.17881-0.81569 0.96072  0 288.12 387.04  235.88 288.21 386.83  235.84
  -2  -4  -3 11892.3   267.0   1-0.40735 0.15209 0.37708-0.77462-0.83179 0.61387  0 175.84 285.80   25.20 175.92 285.68   25.31
  -2  -4  -3 17093.7   290.6   2-0.13365-0.12148-0.65896 0.26094 0.74021-0.95768  0 451.83 302.34   61.46 452.11 302.42   61.44
  -2  -4  -3 18017.0   301.8   2 0.10412-0.35923 0.13177-0.52985-0.98580 0.76825  0 305.77 118.40  207.80 305.82 118.57  208.04
  -2  -4   3 11620.8   262.9   1-0.68495 0.42966-0.27121-0.12646-0.67623 0.89409  0 176.70 226.34   67.54 176.71 226.36   67.59
  -2  -4   3 15133.2   296.8   2-0.23530-0.01979 0.31388-0.71176 0.91984-0.70215  0 440.71 327.29    2.02 440.85 327.26    1.77
  -2  -4   3 15868.5   299.7   2 0.11056-0.36570-0.76070 0.36273-0.63962 0.85714  0 281.53 122.03  150.84 281.72 122.21  150.80
  -2   4  -3 12043.4   268.0   1-0.70021 0.44492-0.42380 0.82147-0.57455 0.35669  0 438.53 184.97   78.03 438.63 185.06   78.14
  -2   4  -3 15567.9   295.9   2 0.12184-0.37699-0.12017 0.51814-0.98525 0.76773  0 443.18 322.08  193.56 443.35 322.19  193.58
  -2   4  -3 14631.0   287.5   2-0.22970-0.02530 0.60852-0.21063 0.75957-0.97724  0 286.62 121.02  342.27 286.65 121.23  342.31
  -2   4   3 11081.4   153.2   1-0.19258-0.06268 0.62947-0.23193-0.75279 0.97071  0 347.47 121.39    5.86 347.33 121.57    5.70
  -2   4   3 17872.2   327.3   2-0.19388-0.06122-0.29582 0.69369 0.93536-0.71767  0 264.68 127.17   37.28 264.88 127.34   37.38
  -2   4   3 17985.6   329.9   2 0.01054-0.26565 0.72394-0.32585-0.68979 0.90733  0 429.62 343.33  246.86 429.78 343.22  247.13
   2  -4  -3  4712.9   105.2   1-0.69739 0.95268-0.51522 0.11754-0.49819 0.28033  0 255.46 384.95   84.96 255.75 384.73   84.97
   2  -4  -3 17585.2   324.8   2-0.10893 0.36407-0.76006 0.36205 0.64065-0.85812  0 332.08 397.27   69.70 332.08 397.09   69.71
   2  -4  -3 18809.7   322.3   2 0.09240 0.16271 0.24623-0.64431-0.96480 0.74725  0 190.26 190.87  214.82 190.13 190.91  214.74
   2  -4   3 11911.9   257.9   1-0.59057 0.84599-0.79513 0.39739-0.13781 0.35550  0 186.58 317.47  112.00 186.59 317.43  112.07
   2  -4   3 15557.0   292.6   2-0.22531 0.48041 0.04771-0.44558 0.97312-0.75542  0 308.19 398.04   17.37 308.18 397.86   17.40
   2  -4   3 15639.7   282.4   2 0.12012 0.13502-0.66573 0.26776-0.73646 0.95398  0 181.43 209.64  158.59 181.38 209.58  158.59
   2   4  -3 10321.8   268.0   1-0.51037 0.76563 0.21118 0.18636-0.83362 0.61569  0 453.99 297.34   36.41 454.12 297.36   36.51
   2   4  -3 16701.7   306.8   2 0.12736 0.12779-0.26400 0.66197-0.95608 0.73856  0 313.42 397.98  184.92 313.30 397.78  185.14
   2   4  -3 13745.3   269.4   2-0.21118 0.46618 0.79024-0.39235 0.57526-0.79293  0 183.20 205.42  327.36 183.14 205.49  327.33
   2   4   3 17379.2   281.1   2-0.21825 0.47334-0.05297 0.45085 0.97445-0.75676  0 176.20 226.80   22.85 176.13 226.75   23.19
   2   4   3 18389.7   296.6   2 0.01294 0.24217 0.71431-0.31622-0.69971 0.91726  0 288.21 395.49  246.25 288.26 395.23  246.32
  -2  -4  -4  1875.2   139.6   1-0.35865 0.10339 0.44368-0.84121-0.82129 0.53073  0 168.56 296.20   20.57 168.62 296.14   20.54
  -2  -4  -4  2854.7   198.7   1-0.02905-0.22637-0.80253 0.40483 0.59590-0.88593  0 467.31 305.71  167.10 467.37 305.68  167.08
  -2  -4  -4  2848.7   177.4   2-0.10510-0.15004-0.77395 0.37594 0.62446-0.91442  0 465.31 309.43   71.02 465.52 309.43   70.95
  -2  -4  -4  2843.1   173.0   2 0.09124-0.34635 0.25624-0.65433-0.96230 0.67224  0 303.59 106.97  215.28 303.60 107.11  215.33
  -2  -4   4  1756.8   135.3   1-0.69833 0.44305-0.38112-0.01655-0.60587 0.89635  0 169.68 215.66   75.33 169.68 215.81   75.11
  -2  -4   4  2347.2   178.4   2 0.09851-0.35364-0.83895 0.44076-0.53521 0.82503  0 271.65 113.27  143.13 271.82 113.33  143.26
  -2  -4   4  2344.7   189.7   2-0.23665-0.01834 0.40860-0.80631 0.88150-0.59121  0 448.67 342.30  356.03 448.71 342.30  355.73
  -2   4  -4  2015.9   178.4   1-0.70023 0.44494-0.46089 0.85856-0.54522 0.25474  0 460.88 194.89   80.85 460.90 194.93   80.85
  -2   4  -4  2591.4   183.4   2 0.12646-0.38161-0.23483 0.63280-0.96378 0.67375  0 455.98 329.58  186.72 456.18 329.61  186.87
  -2   4  -4  2210.6   169.6   2-0.21985-0.03515 0.72318-0.32530 0.65473-0.94496  0 284.29 109.91  333.32 284.23 110.21  333.33
  -2   4   4  1873.9   165.8   2-0.18155-0.07355-0.38877 0.78664 0.90327-0.61301  0 255.39 119.30   43.00 255.44 119.44   43.04
  -2   4   4  2769.8   202.4   2-0.01261-0.24243 0.80767-0.40952-0.58950 0.87950  0 436.64 357.48  254.71 436.65 357.37  254.74
   2  -4  -4  1453.5    78.5   1-0.69973 0.95502-0.40738 0.00970-0.58687 0.29640  0 261.62 399.12   76.94 261.90 399.07   76.97
   2  -4  -4  2765.1    93.5   1-0.10006 0.35547-0.83990 0.44220 0.53344-0.82347  0 341.97 408.50  161.34 341.81 408.25  161.26
   2  -4  -4  2586.9   198.5   2-0.08616 0.34130-0.83620 0.43819 0.54161-0.83157  0 342.22 408.28   76.98 342.17 408.16   76.99
   2  -4  -4  2942.3   166.7   2 0.08007 0.17504 0.34600-0.74408-0.93481 0.64475  0 185.20 180.36  220.71 185.06 180.36  220.77
   2  -4   4  1941.9   142.2   1-0.56823 0.82365-0.81786 0.42011-0.09066 0.38092  0 172.16 307.83  115.10 172.19 307.85  115.33
   2  -4   4  2321.4   173.5   2-0.23125 0.48635 0.16466-0.56253 0.95886-0.66860  0 309.91 409.97   10.63 309.92 409.74   10.63
   2  -4   4  2608.7   149.4   2 0.10898 0.14616-0.77249 0.37452-0.62560 0.91563  0 172.85 205.16  149.73 172.81 205.11  149.75
   2   4  -4  1737.5   180.8   1-0.54894 0.80420 0.13666 0.26087-0.82461 0.53404  0 465.32 311.24   41.37 465.32 311.30   41.34
   2   4  -4  2701.0   187.8   2 0.12913 0.12602-0.36752 0.76549-0.92101 0.63098  0 323.32 409.84  178.77 323.27 409.64  178.87
   2   4  -4  2015.8   145.5   2-0.19860 0.45360 0.85856-0.46068 0.47268-0.76291  0 177.51 194.54  320.00 177.48 194.57  320.18
   2   4   4  2691.4   140.6   2-0.20666 0.46176-0.18220 0.58007 0.96130-0.67104  0 167.50 222.40   30.66 167.37 222.39   30.67
   2   4   4  2549.9   159.3   2-0.01539 0.27042 0.81655-0.41839-0.57707 0.86707  0 289.55 407.43  255.64 289.68 407.09  255.63
  -2  -4  -5  2365.3   156.3   1-0.31708 0.06182 0.49569-0.89322-0.80855 0.44534  0 159.37 307.32   16.92 159.45 307.17   16.66
  -2  -4  -5  4034.1   229.8   1-0.11444-0.14097-0.84653 0.44883 0.51990-0.88243  0 482.42 320.94  160.18 482.53 320.85  160.07
  -2  -4  -5  3742.6   205.4   2-0.07862-0.17651-0.85786 0.45985 0.50783-0.87028  0 482.42 319.31   79.25 482.61 319.33   79.32
  -2  -4  -5  4161.6   208.5   2 0.07918-0.33429 0.35260-0.75069-0.93242 0.56984  0 300.04  92.59  221.09 300.11  92.78  221.18
  -2  -4   5  2679.6   163.9   1-0.69962 0.44434-0.48036 0.08269-0.52894 0.89203  0 160.77 204.62   82.07 160.74 204.68   82.30
  -2  -4   5  3659.1   218.2   2 0.08553-0.34066-0.89629 0.49810-0.43513 0.79740  0 260.54 102.35  136.56 260.73 102.47  136.63
  -2  -4   5  3092.1   224.3   2-0.23542-0.01956 0.47726-0.87498 0.84664-0.48377  0 458.90 359.92  351.34 459.15 359.92  351.30
  -2   4  -5  2498.3   216.0   1-0.69955 0.44426-0.48320 0.88088-0.52645 0.16336  0 485.93 205.14   82.51 486.14 205.23   82.52
  -2   4  -5  3613.5   214.7   2 0.12861-0.38376-0.32511 0.72308-0.93689 0.57436  0 472.23 339.80  181.44 472.39 339.87  181.46
  -2   4  -5  3056.3   203.7   2-0.20782-0.04718 0.81121-0.41332 0.54658-0.90936  0 280.42  96.23  325.29 280.46  96.52  325.26
  -2   4   5  3789.4   195.9   2-0.17114-0.08395-0.45872 0.85659 0.87194-0.50912  0 244.73 109.41   47.48 244.64 109.52   47.48
  -2   4   5  3608.5   238.2   2-0.03423-0.22081 0.87065-0.47249-0.49072 0.85323  0 445.84 374.58  261.54 445.90 374.50  261.56
   2  -4  -5  2060.6    84.8   1-0.68373 0.93902-0.26448-0.13320-0.68012 0.31702  0 263.78 414.91   67.21 264.00 414.65   67.15
   2  -4  -5  3512.2    99.2   1-0.36066 0.61607-0.90029 0.50255 0.24372-0.60655  0 339.60 424.52  138.86 339.26 424.30  138.52
   2  -4  -5  3986.6   232.2   2-0.06523 0.32037-0.89305 0.49504 0.44521-0.80765  0 354.12 422.42   83.45 354.03 422.27   83.49
   2  -4  -5  3770.6   192.8   2 0.06902 0.18609 0.42176-0.81985-0.90408 0.54150  0 178.50 167.97  225.52 178.42 168.07  225.49
   2  -4   5  2962.0   174.0   1-0.54492 0.80034-0.83728 0.43954-0.04493 0.40776  0 156.84 298.37  118.42 156.85 298.35  118.47
   2  -4   5  3729.0   215.2   2-0.23439 0.48949 0.25823-0.65610 0.93722-0.57439  0 312.83 425.01    4.97 312.81 424.87    5.11
   2  -4   5  3693.4   177.8   2 0.09598 0.15916-0.85214 0.45395-0.51443 0.87670  0 162.46 199.06  141.77 162.34 199.02  141.84
   2   4  -5  2342.9   207.8   1-0.57766 0.83292 0.07491 0.32263-0.81283 0.44963  0 479.84 326.57   45.31 480.01 326.65   45.29
   2   4  -5  3517.4   222.5   2 0.12904 0.12610-0.44438 0.84235-0.88649 0.52396  0 334.83 424.60  173.99 334.81 424.49  174.02
   2   4  -5  3077.5   182.4   2-0.18564 0.44064 0.90784-0.50995 0.37599-0.73877  0 170.33 181.96  314.03 170.24 182.05  313.88
   2   4   5  3975.2   171.6   2-0.19524 0.45033-0.28456 0.68244 0.93857-0.57574  0 156.77 216.39   36.70 156.67 216.40   36.70
   2   4   5  85.707  85.987   2-0.04149 0.29653 0.88848-0.49032-0.45704 0.81955  0 292.12 422.24  263.89 292.12 422.30  263.78
  -2  -4  -6  2001.3   162.2   1-0.28343 0.02818 0.53497-0.93250-0.79591 0.36006  0 148.26 319.15   13.80 148.41 318.98   13.61
  -2  -4  -6  3040.6   248.0   1-0.19370-0.06172-0.87650 0.47880 0.44072-0.87575  0 501.62 338.08  153.39 501.50 337.96  153.42
  -2  -4  -6  2961.7   219.6   2-0.05519-0.19995-0.91636 0.51835 0.39653-0.83147  2 503.43 331.95   86.75 503.68 332.03   86.64
  -2  -4  -6  3098.0   215.1   2 0.06866-0.32377 0.42430-0.82238-0.90292 0.46782  0 295.42  75.35  225.66 295.53  75.53  225.65
  -2  -4   6  2219.4   167.9   1-0.69075 0.43546-0.56730 0.16963-0.44837 0.88408  0 149.93 192.67   89.11 149.94 192.74   89.11
  -2  -4   6  3005.3   199.2   2 0.07258-0.32771-0.93717 0.53897-0.34124 0.77596  0 248.45  89.58  130.63 248.37  89.66  130.74
  -2  -4   6  2533.1   252.7   2-0.23370-0.02130 0.52581-0.92370 0.81787-0.38253  0 472.21 380.66  348.00 472.41 380.64  348.13
  -2   4  -6  2646.6   236.5   2 0.12944-0.38458-0.39343 0.79140-0.91020 0.47516  0 492.16 353.06  177.00 492.42 353.14  177.25
  -2   4  -6  2391.3   226.4   2-0.19436-0.06064 0.87638-0.47850 0.44066-0.87599  0 275.57  79.77  317.93 275.56  80.04  318.06
  -2   4   6  2890.0   204.5   2-0.16247-0.09267-0.50926 0.90728 0.84514-0.41020  0 232.53  97.57   50.70 232.49  97.73   50.81
  -2   4   6  2697.3   255.1   2-0.05397-0.20107 0.91661-0.51846-0.39612 0.83113  0 457.53 394.92  267.87 457.64 394.87  267.69
   2  -4  -6  1893.3    88.7   1-0.64412 0.89940-0.10241-0.29526-0.75804 0.32233  0 261.33 431.93   56.72 261.41 431.65   56.60
   2  -4  -6  2495.1    98.2   1-0.52024 0.77565-0.85402 0.45628 0.00069-0.43609  0 342.34 443.40  121.95 341.99 443.19  121.59
   2  -4  -6  3066.0   251.3   2-0.04646 0.30159-0.93434 0.53632 0.35335-0.78829  0 367.78 439.87   89.40 367.80 439.64   89.37
   2  -4  -6  2967.9   203.6   2 0.06029 0.19482 0.47789-0.87598-0.87635 0.44125  0 170.16 153.87  229.20 170.21 154.04  229.12
   2  -4   6  2273.3   173.3   1-0.52071 0.77613-0.85373 0.45599-0.00015 0.43554  0 140.27 288.82  121.52 140.39 288.75  121.53
   2  -4   6  2846.7   176.1   2 0.08164 0.17349-0.90988 0.51169-0.40675 0.84147  0 150.01 191.44  134.73 149.99 191.44  134.82
   2   4  -6  1814.3   188.5   1-0.59834 0.85360 0.02584 0.37170-0.80082 0.36497  0 498.51 343.96   48.19 498.56 343.99   48.42
   2   4  -6  2748.8   245.6   2 0.12807 0.12708-0.49990 0.89787-0.85656 0.42153  0 348.04 442.61  170.41 348.00 442.51  170.38
   2   4  -6  2513.5   184.7   2-0.17277 0.42777 0.94251-0.54463 0.28605-0.72139  0 161.39 167.93  308.30 161.45 167.94  308.27
   2   4   6  3056.3   170.2   2-0.18536 0.44045-0.36195 0.75982 0.91358-0.47819  0 143.96 209.05   41.38 143.99 209.02   41.39
  -2  -4  -7 -41.904  85.461   1-0.25757 0.00231 0.56349-0.96102-0.78495 0.27646  0 135.24 331.70   11.47 135.45 331.85   11.32
  -2  -4  -7  29.062 140.472   2 0.06065-0.31576 0.47567-0.87376-0.87753 0.36992  0 290.07  55.09  228.59 289.99  55.23  228.97
  -2  -4   7  46.833  87.471   1-0.67335 0.41807-0.64203 0.24435-0.36660 0.87494  0 137.12 179.55   95.57 137.27 179.71   95.53
  -2  -4   7 -20.548 109.221   2 0.06001-0.31514-0.96542 0.56722-0.25371 0.76089  0 234.77  74.62  125.65 234.66  74.75  125.41
  -2  -4   7 -20.575 175.233   2-0.23233-0.02267 0.55958-0.95747 0.79554-0.28765  0 488.56 405.29  345.87 488.49 405.00  345.81
  -2   4  -7 -10.565 145.843   2-0.18063-0.07437 0.92295-0.52506 0.33992-0.84781  0 269.59  61.05  311.57 269.54  60.61  311.61
  -2   4   7 -11.380 109.736   2-0.15602-0.09911-0.54556 0.94357 0.82342-0.31600  0 218.93  84.11   53.61 218.83  83.84   53.27
  -2   4   7  73.055 175.811   2-0.07167-0.18337 0.94913-0.55098-0.30661 0.81413  0 472.21 418.86  273.10 472.07 418.95  273.24
   2  -4  -7  79.436  49.336   1-0.58976 0.84501 0.04665-0.44419-0.80623 0.29774  0 255.08 450.68   47.26 255.04 450.62   47.10
   2  -4  -7  11.568  65.619   1-0.60370 0.85912-0.77950 0.38176-0.16711-0.34085  0 349.66 465.69  110.25 349.38 465.72  110.02
   2  -4  -7  85.347 173.741   2-0.02929 0.28443-0.96328 0.56527 0.26689-0.77432  0 383.94 460.74   94.65 383.84 460.81   94.70
   2  -4  -7  16.229 113.297   2 0.05353 0.20158 0.51826-0.91635-0.85355 0.34594  0 160.43 138.22  232.25 160.39 138.16  231.80
   2  -4   7 116.640 100.924   1-0.49522 0.75064-0.86768 0.46993 0.04351 0.46444  0 122.51 278.76  124.36 122.54 278.86  124.53
   2  -4   7 -24.717  84.668   2 0.06740 0.18774-0.94979 0.55160-0.30553 0.81271  0 135.95 182.54  128.68 135.58 182.58  128.54
   2  -4   7  -1.088 149.789   2-0.23686 0.49185 0.38337-0.78109 0.89270-0.38469  0 321.42 465.25  356.93 321.24 465.83  357.32
   2   4  -7 -11.993 165.051   2 0.12701 0.12813-0.53897 0.93694-0.83269 0.32515  0 362.86 464.75  167.70 363.12 464.24  167.73
   2   4  -7  38.890 100.546   2-0.16017 0.41517 0.96607-0.56819 0.20260-0.71049  0 150.97 152.23  302.93 151.02 152.17  303.22
   2   4   7  14.029  85.691   2-0.17718 0.43228-0.41860 0.81647 0.89072-0.38276  0 129.45 200.60   44.81 129.28 200.45   44.91
  -2  -4  -8  2258.8   192.5   1-0.23909-0.01617 0.58307-0.98061-0.77644 0.19531  0 120.65 346.15    9.88 120.39 346.15    9.70
  -2  -4  -8  3804.9   307.7   2 0.05474-0.30985 0.51129-0.90938-0.85766 0.27754  0 283.62  30.94  230.98 283.58  31.41  231.33
  -2  -4   8  2903.9   210.9   1-0.64961 0.39419-0.70450 0.30676-0.28580 0.86632  0 122.92 165.14  101.52 122.54 165.33  101.55
  -2  -4   8  3334.0   253.3   2 0.04754-0.30267-0.98390 0.58571-0.17226 0.75189  0 219.34  57.34  120.53 219.36  57.49  120.56
  -2   4  -8  3126.8   317.2   2-0.16669-0.08831 0.95502-0.55713 0.24527-0.82572  0 262.49  37.60  306.01 262.47  37.75  305.79
  -2   4   8  3935.8   273.1   2-0.15146-0.10368-0.57023 0.96825 0.80740-0.22748  0 203.47  67.49   54.71 203.46  67.69   54.98
  -2   4   8  3526.9   362.7   2-0.08773-0.16731 0.97100-0.57284-0.22239 0.80241  0 489.87 447.64  278.18 489.87 447.71  278.32
   2  -4  -8  2408.4   105.4   1-0.53719 0.79244 0.16016-0.55770-0.82812 0.24698  0 246.37 472.51   39.87 246.27 472.43   39.82
   2  -4  -8  2538.3   144.8   1-0.64965 0.90507-0.70443 0.30668-0.28590-0.29462  0 360.10 492.96  101.88 359.75 492.82  101.54
   2  -4  -8  3805.1   347.7   2-0.01389 0.26902-0.98244 0.58424 0.18606-0.76569  0 402.35 486.67   99.70 402.54 486.34   99.56
   2  -4  -8  3960.0   267.0   2 0.04855 0.20656 0.54624-0.94432-0.83622 0.25610  0 148.71 120.13  233.69 148.74 120.17  233.70
   2  -4   8  3013.2   221.7   1-0.46887 0.72429-0.87900 0.48125 0.08676 0.49376  0 103.02 268.47  127.50 102.89 268.51  127.51
   2  -4   8  3480.2   227.9   2 0.05367 0.20146-0.97594 0.57774-0.21134 0.79097  0 119.17 172.37  122.73 118.88 172.41  122.87
   2  -4   8  3554.4   321.9   2-0.23653 0.49151 0.42177-0.81948 0.87531-0.29472  0 326.82 492.96  355.02 326.85 492.65  354.90
   2   4  -8  4044.3   363.0   2 0.12597 0.12918-0.56538 0.96335-0.81516 0.23511  0 380.77 490.56  166.00 380.68 490.51  165.91
   2   4  -8  3083.3   238.7   2-0.14808 0.40312 0.98097-0.58282 0.12555-0.70556  0 139.01 134.49  299.04 138.80 134.45  298.69
   2   4   8  3948.9   221.0   2-0.17119 0.42628-0.45844 0.85631 0.87208-0.29156  0 112.40 190.86   47.49 112.27 190.75   47.46
  -2  -4  -9  5831.9   272.4   1-0.22718-0.02808 0.59519-0.99273-0.77080 0.11702  0 103.17 362.37    8.73 102.95 362.32    8.68
  -2  -4   9  7645.9   308.4   1-0.61999 0.36457-0.75710 0.35935-0.20596 0.85904  0 105.86 148.76  107.07 105.45 148.91  107.29
  -2  -4   9 10198.2   390.1   2 0.03539-0.29052-0.99475 0.59655-0.09607 0.74815  0 202.20  37.24  115.90 202.13  37.47  116.09
  -2   4   9 10148.6   390.9   2-0.14850-0.10663-0.58575 0.98376 0.79677-0.14437  0 186.07  48.68   56.01 186.00  48.88   56.07
   2  -4  -9  6225.1   155.8   1-0.49575 0.75100 0.23728-0.63482-0.83542 0.18165  0 236.31 498.31   34.83 236.17 498.08   34.79
   2  -4  -9 10121.1   387.6   2 0.04525 0.20986 0.56447-0.96256-0.82421 0.17157  0 135.04  99.52  235.02 134.93  99.63  234.97
   2  -4   9  8005.6   330.1   1-0.44141 0.69683-0.88791 0.49017 0.12948 0.52361  0  81.37 257.39  130.43  81.04 257.38  130.46
   2  -4   9  9074.4   330.6   2 0.03985 0.21528-0.99154 0.59334-0.12355 0.77563  0  99.90 160.83  117.63  99.54 160.87  117.71
   2   4  -9  7614.1   339.4   2-0.13613 0.39117 0.98928-0.59112 0.05286-0.70538  0 124.57 114.41  294.43 124.30 114.43  294.42
   2   4   9  9578.6   329.3   2-0.16682 0.42192-0.48522 0.88310 0.85833-0.20524  0  92.90 179.89   49.14  92.57 179.91   49.20
  -2  -4 -10  5654.7   313.4   1-0.22142-0.03384 0.60103-0.99856-0.76795 0.04153  0  83.01 380.97    7.97  82.66 381.06    8.18
  -2  -4  10  7392.0   329.6   1-0.58608 0.33066-0.80007 0.40233-0.12804 0.85370  0  85.94 129.74  112.81  85.55 129.85  112.74
  -2  -4  10  8847.9   422.6   2 0.02347-0.27860-0.99943 0.60123-0.02440 0.74894  0 182.41  13.76  111.81 182.40  13.90  111.92
  -2   4  10  8179.7   407.1   2-0.14689-0.10824-0.59391 0.99192 0.79101-0.06611  0 165.83  26.46   56.64 165.88  26.74   56.65
   2  -4 -10  9815.4   423.3   2 0.04327 0.21184 0.57489-0.97297-0.81709 0.09193  0 118.91  75.87  235.68 118.44  75.89  235.70
   2  -4  10  7720.0   351.9   1-0.41271 0.66813-0.89452 0.49678 0.17175 0.55391  0  56.57 245.09  133.39  56.31 245.12  133.41
   2  -4  10  9257.8   371.7   2 0.02643 0.22870-0.99878 0.60059-0.04162 0.76615  0  77.32 147.74  113.22  76.87 147.76  112.92
   2   4 -10  7580.6   368.9   2-0.12452 0.37955 0.99209-0.59394-0.01567-0.70935  0 107.44  91.53  290.44 107.09  91.50  290.43
   2   4  10  9353.7   353.9   2-0.16380 0.41894-0.50140 0.89942 0.84957-0.12467  0  69.78 167.79   50.23  69.61 167.84   50.29
  -2  -4 -11  1706.8   229.7   1-0.22106-0.03420 0.60139-0.99893-0.76777-0.03129  0  59.15 403.02    7.99  58.74 403.33    8.15
  -2  -4  11  2818.1   335.8   1-0.54877 0.29335-0.83434 0.43659-0.05227 0.85049  0  62.08 107.16  117.69  62.12 107.19  117.97
   2  -4 -11  2988.0   317.0   2 0.04250 0.21261 0.57891-0.97700-0.81428 0.01661  0  98.71  47.75  235.71  98.46  47.90  235.98
   2  -4  11  1956.7   245.7   1-0.38281 0.63823-0.89876 0.50102 0.21372 0.58450  0  27.63 231.12  136.30  27.70 231.24  136.39
   2  -4  11  2667.8   295.5   2 0.01338 0.24176-0.99929 0.60109 0.03525 0.76174  0  50.34 132.66  108.46  49.92 132.74  108.45
   2   4 -11  2342.8   287.7   2-0.11340 0.36844 0.99026-0.59210-0.08081-0.71671  0  86.39  64.62  286.61  86.25  64.67  286.63
   2   4  11  2455.9   293.9   2-0.16245 0.41759-0.50937 0.90739 0.84507-0.04769  0  42.58 154.05   50.99  42.29 154.13   50.82
  -2  -5   0  35.969  62.723   1-0.60911 0.35382-0.00129-0.49581-0.79309 0.79309  0 162.34 266.92   50.42 162.65 266.96   50.16
  -2  -5   0 -63.594  89.057   2-0.20379-0.05131-0.20956-0.28778 0.95632-0.95632  0 460.60 325.77   32.06 460.66 325.98   32.28
  -2  -5   0 112.917  92.728   2 0.12934-0.38448-0.38050-0.11696-0.91569 0.91569  0 288.60 107.76  178.29 288.51 107.73  178.06
  -2   5   0 -68.643  81.169   1-0.60787 0.35259 0.00192 0.49517-0.79403 0.79403  0 412.46 134.43   49.69 412.52 134.43   49.95
  -2   5   0  12.412  97.449   2-0.23248-0.02261 0.19485 0.30249 0.95288-0.95288  0 266.46 113.88    9.05 266.38 113.68    8.87
  -2   5   0 -17.770 100.055   2 0.07890-0.33401 0.35465 0.14296-0.93167 0.93167  0 446.76 347.57  221.43 446.93 347.78  221.30
   2  -5   0  18.131  56.797   1-0.66841 0.92370-0.65737 0.16027-0.34798 0.34798  0 204.55 362.49   96.94 204.53 362.45   96.94
   2  -5   0 -59.059  99.591   2-0.17909 0.43419-0.40595-0.09139 0.89617-0.89617  0 329.67 411.18   43.97 329.54 411.19   44.11
   2  -5   0  -3.640  66.494   2 0.12690 0.12825-0.24908-0.24839-0.96013 0.96013  0 178.65 189.44  186.12 178.50 189.37  186.03
   2   5   0 -71.439 109.388   1-0.32797 0.58323 0.48250 0.01443-0.81218 0.81218  0 476.63 246.25   17.48 476.55 246.36   17.66
   2   5   0 -16.101  87.400   2 0.08988 0.16523 0.26812 0.22949-0.95918 0.95918  2 305.75 411.03  216.62 305.30 410.73  216.04
   2   5   0  -3.506  59.920   2-0.23634 0.49132 0.43518 0.06196 0.86877-0.86877  0 170.25 208.78  354.06 170.32 208.71  354.04
  -2  -5  -1  2403.7   150.0   1-0.56971 0.31445 0.09269-0.58961-0.81660 0.74396  0 162.14 277.14   44.05 162.31 277.03   44.16
  -2  -5  -1  3316.2   196.2   2-0.18595-0.06914-0.35754-0.13980 0.91520-0.98776  0 464.10 323.30   41.00 464.34 323.41   41.12
  -2  -5  -1  3435.1   186.2   2 0.12676-0.38190-0.24434-0.25312-0.96137 0.88886  0 291.50 105.33  186.19 291.70 105.52  186.31
  -2  -5   1  2082.9   147.3   1-0.64328 0.38799-0.09994-0.39716-0.75908 0.83170  0 160.94 257.00   56.34 161.05 256.96   56.44
  -2  -5   1  3178.0   197.0   2-0.21715-0.03795-0.06591-0.43143 0.97391-0.90135  0 459.99 331.58   23.99 460.09 331.62   23.94
  -2  -5   1  3127.0   190.1   2 0.12783-0.38298-0.50907 0.01161-0.85118 0.92369  0 283.48 106.98  170.00 283.69 107.11  169.77
  -2   5  -1  2266.2   175.7   1-0.65063 0.39534-0.12418 0.62127-0.74918 0.67656  0 428.69 144.81   58.04 428.76 144.99   57.99
  -2   5  -1  3174.1   197.4   2 0.09460-0.34971 0.22672 0.27089-0.96935 0.89684  0 450.72 345.91  213.60 450.85 345.90  213.58
  -2   5   1  2353.8   149.7   1-0.53414 0.27889 0.16613 0.33080-0.82891 0.90155  0 398.04 122.94   39.31 398.15 123.17   39.43
  -2   5   1  3289.8   204.2   2-0.22614-0.02895 0.06155 0.43579 0.97215-0.89958  0 261.80 113.44   16.61 262.02 113.61   16.60
  -2   5   1  3494.2   209.0   2 0.06026-0.31537 0.47807 0.01954-0.87625 0.94877  0 445.62 352.73  229.15 445.78 352.72  229.13
   2  -5  -1  1829.8   110.6   1-0.68187 0.93716-0.61078 0.11369-0.40249 0.32987  0 214.90 374.46   92.82 214.95 374.27   92.76
   2  -5  -1  3560.9   210.2   2-0.15995 0.41509-0.52343 0.02591 0.83692-0.90941  0 334.41 412.69   51.99 334.42 412.57   51.76
   2  -5  -1  3380.2   173.0   2 0.12149 0.13366-0.11341-0.38405-0.98609 0.91359  0 179.17 185.32  193.79 179.13 185.30  193.97
   2  -5   1  2002.3   132.6   1-0.65264 0.90806-0.69785 0.20067-0.29508 0.36764  0 193.07 351.50  100.88 193.18 351.45  100.87
   2  -5   1  3024.8   189.6   2-0.19547 0.45057-0.28263-0.21471 0.93910-0.86654  0 326.32 413.21   36.60 326.33 413.10   36.59
   2  -5   1  3441.6   169.2   2 0.12935 0.12579-0.38622-0.11125-0.91329 0.98580  0 176.07 191.46  177.70 175.97 191.37  177.70
   2   5  -1  2311.1   201.0   1-0.39157 0.64682 0.39928 0.09764-0.82901 0.75636  0 479.31 259.02   23.76 479.28 259.18   23.74
   2   5  -1  3383.1   187.6   2 0.10493 0.15018 0.12185 0.37575-0.98699 0.91447  0 310.33 412.99  207.40 310.33 412.74  207.46
   2   5  -1  2921.0   157.1   2-0.23253 0.48753 0.55507-0.05771 0.79864-0.87120  0 170.49 204.10  346.27 170.51 204.18  346.12
   2   5   1  2313.1   192.9   1-0.25581 0.51107 0.56537-0.06845-0.78417 0.85681  0 477.13 233.23   11.23 477.19 233.35   11.17
   2   5   1  3122.9   156.5   2-0.23519 0.49028 0.30539 0.19196 0.92273-0.85016  0 167.88 211.21    1.87 167.93 211.21    2.29
  -2  -5  -2  8130.8   243.8   1-0.52769 0.27243 0.17860-0.67552-0.83045 0.68517  0 159.82 287.40   38.66 159.94 287.28   38.62
  -2  -5  -2 12081.4   294.2   2-0.16420-0.09094-0.49905 0.00153 0.85088-0.99586  0 470.96 323.78   49.81 471.16 323.85   50.13
  -2  -5  -2 11890.1   284.1   2 0.12130-0.37644-0.10994-0.38752-0.98651 0.84150  0 293.05 100.24  194.00 293.23 100.37  194.17
  -2  -5   2  8342.4   248.7   1-0.67044 0.41515-0.19978-0.29731-0.71456 0.85980  0 157.44 246.88   62.97 157.48 246.86   62.89
  -2  -5   2 10892.9   288.2   2-0.22628-0.02881 0.06442-0.56176 0.97193-0.82680  0 462.21 340.25   16.42 462.38 340.32   16.44
  -2  -5   2 11011.2   286.6   2 0.12300-0.37815-0.62346 0.12600-0.77212 0.91713  0 277.05 103.67  162.01 277.28 103.83  161.76
  -2   5  -2  7835.6   255.4   1-0.67443 0.41915-0.21722 0.71431-0.70566 0.56042  0 447.08 154.94   63.99 447.13 155.12   64.03
  -2   5  -2 11956.8   302.2   2 0.10675-0.36186 0.10179 0.39582-0.98906 0.84403  0 457.54 347.02  206.27 457.67 347.03  206.30
  -2   5  -2  9993.0   280.0   2-0.23573-0.01926 0.46361 0.03353 0.85411-0.99925  0 270.19 105.73  352.00 270.39 105.95  352.20
  -2   5   2  7894.6   189.5   1-0.41542 0.16016 0.36541 0.13151-0.83301 0.97829  0 385.71 110.77   26.06 385.91 111.03   26.12
  -2   5   2  7029.2   246.1   2-0.21757-0.03752-0.06060 0.55794 0.97416-0.82903  0 256.06 110.94   23.61 256.03 111.05   23.63
  -2   5   2 11895.5   311.0   2 0.04016-0.29527 0.59078-0.09318-0.80583 0.95086  0 447.09 360.75  236.97 447.31 360.68  236.83
   2  -5  -2  6365.9   157.7   1-0.69239 0.94768-0.55684 0.05975-0.45883 0.31359  0 224.16 387.19   88.12 224.26 387.04   88.26
   2  -5  -2 12605.9   316.0   2-0.13969 0.39483-0.62964 0.13212 0.76423-0.90921  0 340.97 417.19   58.91 340.97 417.09   59.24
   2  -5  -2 12256.2   288.0   2 0.11373 0.14137 0.01252-0.51013-0.99343 0.84840  0 177.96 179.23  201.20 177.88 179.24  201.17
   2  -5   2  7333.7   213.1   1-0.63493 0.89034-0.73290 0.23572-0.24439 0.38952  0 180.83 341.02  104.51 180.89 340.98  104.55
   2  -5   2 10559.8   282.5   2-0.20882 0.46392-0.16089-0.33646 0.96463-0.81950  0 324.71 418.41   29.38 324.71 418.26   29.42
   2  -5   2 11580.2   274.6   2 0.12772 0.12742-0.51659 0.01913-0.84665 0.99166  0 171.50 191.43  169.23 171.51 191.36  169.26
   2   5  -2  6917.2   264.3   1-0.44582 0.70108 0.31984 0.17708-0.83603 0.69075  0 485.23 272.22   29.06 485.32 272.30   29.26
   2   5  -2 11454.6   290.2   2 0.11556 0.13954-0.01339 0.51100-0.99321 0.84818  0 316.92 418.21  199.61 316.92 418.01  199.67
   2   5  -2  9893.3   252.6   2-0.22589 0.48089 0.66007-0.16271 0.71644-0.86155  0 168.91 197.58  338.45 168.81 197.66  338.42
   2   5   2  7530.7   267.2   1-0.17722 0.43248 0.64390-0.14698-0.74430 0.88958  0 481.05 219.91    4.37 481.11 219.93    4.40
   2   5   2 11118.7   257.0   2-0.23166 0.48675 0.17484 0.32250 0.95696-0.81183  0 163.68 211.61   10.00 163.63 211.60   10.04
  -2  -5  -3 10850.6   279.3   1-0.48582 0.23056 0.25446-0.75139-0.83620 0.61827  0 155.49 298.01   33.66 155.63 297.85   33.65
  -2  -5  -3 16502.9   338.6   2-0.14062-0.11452-0.62517 0.12765 0.76772-0.98518  0 481.23 327.29   59.16 481.40 327.35   58.91
  -2  -5  -3 16594.5   335.2   2 0.11360-0.36871 0.01432-0.51193-0.99342 0.77588  0 293.05  92.09  201.06 293.10  92.27  201.27
  -2  -5   3 10530.9   282.3   1-0.68914 0.43385-0.29751-0.19959-0.66074 0.87860  0 152.02 236.55   69.22 152.01 236.54   69.36
  -2  -5   3 15287.7   347.1   2-0.23170-0.02340 0.17589-0.67324 0.95675-0.73906  0 467.36 351.92   10.08 467.50 351.96    9.97
  -2  -5   3 14450.1   331.4   2 0.11519-0.37033-0.72002 0.22256-0.68433 0.90184  0 269.16  97.87  153.91 269.37  98.05  154.28
  -2   5  -3 10967.1   296.3   1-0.68708 0.43179-0.28410 0.78119-0.66874 0.45088  0 468.01 164.85   68.38 468.03 165.03   68.46
  -2   5  -3 16261.8   354.3   2 0.11555-0.37066-0.01323 0.51083-0.99321 0.77567  0 467.55 351.20  199.74 467.66 351.22  199.68
  -2   5  -3 14281.3   332.4   2-0.23101-0.02399 0.58386-0.08650 0.77829-0.99596  0 269.80  97.75  344.15 269.82  98.00  344.09
  -2   5   3 10702.3   200.3   1-0.24394-0.01132 0.57801-0.08109-0.77872 0.99664  0 375.86  97.31   10.05 375.71  97.55   10.12
  -2   5   3 16696.6   344.2   2-0.20819-0.04691-0.16689 0.66424 0.96375-0.74605  0 248.66 105.96   29.98 248.54 106.12   29.77
  -2   5   3 16869.0   369.4   2 0.01924-0.27435 0.68855-0.19094-0.72494 0.94248  0 451.20 371.76  244.18 451.37 371.66  244.23
   2  -5  -3  8641.2   167.6   1-0.69896 0.95424-0.49426-0.00283-0.51688 0.29903  0 232.17 401.15   83.23 232.25 400.99   83.36
   2  -5  -3 16170.7   357.8   2-0.11903 0.37416-0.72109 0.22357 0.68254-0.90001  0 349.28 424.90   66.30 349.27 424.74   66.38
   2  -5  -3 16575.7   338.7   2 0.10490 0.15021 0.12344-0.62105-0.98679 0.76925  0 175.03 171.12  207.60 174.92 171.15  207.55
   2  -5   3 10816.7   273.3   1-0.61557 0.87099-0.76354 0.26636-0.19514 0.41284  0 167.61 330.93  108.00 167.68 330.93  108.06
   2  -5   3 14625.1   334.0   2-0.21869 0.47378-0.04729-0.45006 0.97465-0.75695  0 324.58 426.92   23.00 324.57 426.71   22.86
   2  -5   3 15360.5   319.0   2 0.12242 0.13273-0.63313 0.13566-0.76431 0.98182  0 165.15 189.47  161.15 165.10 189.42  161.05
   2   5  -3 10116.7   305.6   1-0.49016 0.74542 0.24701 0.24992-0.83590 0.61798  0 494.60 285.96   33.93 494.72 286.01   34.15
   2   5  -3 16498.1   350.4   2 0.12235 0.13280-0.13119 0.62866-0.98378 0.76626  0 325.09 426.68  193.00 324.87 426.40  192.92
   2   5  -3 13529.5   301.4   2-0.21706 0.47205 0.74765-0.25029 0.62762-0.84529  0 165.38 189.12  331.18 165.31 189.24  331.22
   2   5   3 16197.4   310.4   2-0.22555 0.48064 0.05158 0.44576 0.97287-0.75517  0 157.30 210.05   17.00 157.25 210.02   17.18
  -2  -5  -4 21252.1   388.6   1-0.44627 0.19101 0.31914-0.81606-0.83606 0.54549  0 149.19 309.11   29.24 149.32 308.95   29.31
  -2  -5  -4 30021.1   482.0   1 0.01515-0.27057-0.77508 0.27796 0.63168-0.92170  0 500.02 324.58  170.97 500.06 324.46  170.70
  -2  -5  -4 31334.7   459.2   2-0.11660-0.13854-0.73083 0.23332 0.67252-0.96248  0 495.12 333.79   66.90 495.30 333.82   67.19
  -2  -5  -4 31725.5   454.4   2 0.10497-0.36007 0.12271-0.62032-0.98688 0.69681  0 291.63  80.98  207.50 291.69  81.19  207.51
  -2  -5   4 20683.9   389.0   1-0.69888 0.44359-0.39029-0.10680-0.59937 0.88984  0 144.61 225.79   75.78 144.64 225.82   75.75
  -2  -5   4 26386.4   451.9   2-0.23460-0.02050 0.26704-0.76439 0.93469-0.64443  0 475.25 366.63    4.62 475.35 366.59    4.59
  -2  -5   4 27837.0   455.1   2 0.10548-0.36061-0.79810 0.30036-0.59322 0.88303  0 259.81  89.71  147.26 260.00  89.84  147.34
  -2   5  -4 19355.0   397.9   1-0.69368 0.43840-0.33107 0.82817-0.63968 0.34921  0 491.73 174.83   71.63 491.82 174.96   71.64
  -2   5  -4 29223.5   468.6   2 0.12151-0.37665-0.11384 0.61130-0.98604 0.69602  0 480.79 358.39  194.00 480.85 358.52  193.94
  -2   5  -4 25048.0   432.6   2-0.22351-0.03149 0.68738-0.19002 0.69105-0.98127  0 267.91  87.04  336.28 267.91  87.28  336.27
  -2   5   4 32366.7   482.7   2-0.19863-0.05646-0.25533 0.75267 0.94623-0.65597  0 239.66  98.82   34.98 239.55  98.99   34.96
  -2   5   4 30706.0   494.9   2-0.00144-0.25360 0.76985-0.27215-0.63823 0.92824  0 457.84 385.90  250.97 457.87 385.73  251.15
   2  -5  -4 17034.4   214.9   1-0.70016 0.95545-0.42200-0.07509-0.57593 0.28545  0 238.46 416.59   78.00 238.58 416.35   78.01
   2  -5  -4 31201.5   494.8   2-0.09849 0.35363-0.79670 0.29919 0.59629-0.88625  0 359.41 435.85   72.92 359.37 435.66   73.06
   2  -5  -4 33702.3   489.5   2 0.09577 0.15934 0.21668-0.71429-0.97153 0.68147  0 170.35 161.10  213.00 170.27 161.17  212.99
   2  -5   4 20109.4   373.7   1-0.59482 0.85023-0.79031 0.29313-0.14698 0.43724  0 153.37 321.17  111.36 153.42 321.18  111.43
   2  -5   4 28272.0   454.8   2-0.22564 0.48074 0.05319-0.55053 0.97276-0.68250  0 325.79 438.80   16.90 325.73 438.56   17.08
   2  -5   4 29574.3   440.7   2 0.11390 0.14125-0.73194 0.23448-0.67178 0.96181  0 156.76 185.70  153.17 156.73 185.64  153.28
   2   5  -4 29569.7   466.1   2 0.12626 0.12888-0.22880 0.72626-0.96525 0.67523  0 334.81 438.33  186.87 334.61 438.11  187.23
   2   5  -4 25419.9   416.5   2-0.20666 0.46166 0.81796-0.32061 0.53687-0.82709  0 160.12 178.90  324.69 160.07 179.03  324.58
   2   5   4 29621.3   420.7   2-0.21785 0.47294-0.05807 0.55541 0.97425-0.68399  0 148.85 206.67   23.45 148.80 206.63   23.48
  -2  -5  -5  9242.5   279.5   1-0.41055 0.15530 0.37247-0.86939-0.83229 0.46908  0 140.95 320.91   25.66 141.07 320.75   25.63
  -2  -5  -5 14554.5   356.0   2 0.09618-0.35129 0.21288-0.71049-0.97233 0.60976  0 288.92  66.86  212.76 288.98  67.08  212.77
  -2  -5   5  9591.2   296.1   1-0.69979 0.44450-0.47624-0.02085-0.53244 0.89553  0 135.36 214.47   82.08 135.35 214.51   81.99
  -2  -5   5 13172.7   338.7   2 0.09439-0.34952-0.85976 0.36202-0.50190 0.86417  0 249.42  79.39  141.00 249.30  79.48  141.00
  -2   5  -5 13039.4   370.6   2 0.12536-0.38051-0.19792 0.69538-0.97217 0.60964  0 497.79 368.77  188.99 497.84 368.91  189.04
  -2   5  -5 11545.7   348.5   2-0.21369-0.04131 0.77275-0.27539 0.59766-0.96044  0 264.71  73.44  329.00 264.67  73.75  328.97
  -2   5   5 14100.1   352.6   2-0.19013-0.06497-0.32653 0.82387 0.92587-0.56304  0 229.14  89.47   38.99 229.04  89.66   39.23
  -2   5   5 12888.4   378.6   2-0.02152-0.23352 0.83532-0.33762-0.54935 0.91186  0 467.04 403.29  257.57 467.06 403.16  257.57
   2  -5  -5  7582.1   147.8   1-0.69480 0.95008-0.34098-0.15611-0.63324 0.27014  0 242.71 433.70   72.25 242.82 433.49   72.32
   2  -5  -5 10637.1   188.3   1-0.17800 0.43341-0.87131 0.37419 0.45731-0.81984  0 364.83 451.53  154.89 364.56 451.27  154.76
   2  -5  -5 14351.0   391.8   2-0.07883 0.33396-0.85728 0.35976 0.50878-0.87123  0 371.52 450.05   79.01 371.43 450.00   79.25
   2  -5  -5 14076.6   346.2   2 0.08695 0.16816 0.29223-0.78984-0.95239 0.58981  0 164.02 149.19  217.52 163.95 149.29  217.49
   2  -5   5  9440.3   287.8   1-0.57271 0.82813-0.81366 0.31648-0.09982 0.46265  0 137.97 311.54  114.71 138.00 311.53  114.70
   2  -5   5 12516.6   353.7   2-0.23015 0.48525 0.13826-0.63560 0.96328-0.60046  0 328.18 454.14   12.00 328.15 453.93   12.17
   2  -5   5 12371.2   314.4   2 0.10335 0.15178-0.81161 0.31386-0.57499 0.93726  0 146.49 180.30  146.00 146.43 180.25  146.03
   2   5  -5 12509.8   360.4   2 0.12830 0.12684-0.30682 0.80428-0.94308 0.58055  0 346.23 453.30  182.54 346.03 453.12  182.57
   2   5  -5 11242.7   308.1   2-0.19524 0.45024 0.87278-0.37542 0.44737-0.81015  0 153.16 166.92  318.59 153.10 167.07  318.50
   2   5   5 14027.9   316.5   2-0.20980 0.46489-0.15072 0.64806 0.96606-0.60323  0 138.32 201.64   28.85 138.30 201.63   28.83
  -2  -5  -6  28.346  91.639   1-0.38006 0.12480 0.41508-0.91200-0.82660 0.39075  0 131.15 333.47   22.46 130.81 333.52   22.61
  -2  -5  -6  43.500 144.611   2 0.08782-0.34293 0.28511-0.78272-0.95446 0.51937  0 285.31  49.89  217.55 285.13  49.77  217.06
  -2  -5   6  75.014 101.635   1-0.69282 0.43753-0.55394 0.05684-0.46169 0.89740  0 124.21 202.37   87.92 124.10 202.40   88.02
  -2  -5   6 -52.611 101.019   2 0.08249-0.33762-0.90702 0.40928-0.41293 0.84765  0 237.14  66.64  134.79 237.16  66.86  135.21
  -2  -5   6 165.741 188.896   2-0.23682-0.01816 0.39448-0.89162 0.88786-0.45242  0 499.21 406.06  356.61 499.53 406.24  356.62
  -2   5  -6 -54.174 156.292   2-0.20241-0.05259 0.84058-0.34323 0.50244-0.93778  0 260.26  57.03  322.06 260.15  57.27  322.19
  -2   5   6  28.069 119.535   2-0.18249-0.07260-0.38203 0.87938 0.90595-0.47056  0 216.73  77.65   42.60 216.95  78.14   42.62
  -2   5   6   4.872 189.194   2-0.04066-0.21438 0.88645-0.38875-0.46104 0.89606  0 479.14 424.28  263.35 479.14 424.38  263.52
   2  -5  -6  57.654  47.634   1-0.68180 0.93709-0.25382-0.24327-0.68609 0.25038  0 244.96 453.09   66.85 244.61 452.72   66.44
   2  -5  -6  65.537  77.580   1-0.36600 0.62142-0.90004 0.40286 0.23658-0.67197  0 362.60 471.70  138.43 362.24 471.84  138.01
   2  -5  -6  38.474 173.486   2-0.06046 0.31560-0.90445 0.40694 0.42227-0.85721  0 385.73 468.22   84.54 385.78 468.06   84.97
   2  -5  -6  37.571 109.060   2 0.07929 0.17582 0.35178-0.84939-0.93272 0.49763  0 155.71 135.37  221.48 155.91 135.43  221.13
   2  -5   6 134.649 106.589   1-0.54938 0.80479-0.83387 0.33668-0.05343 0.48883  0 121.82 301.77  117.45 121.20 301.86  117.89
   2  -5   6  47.231 160.590   2-0.23292 0.48802 0.20759-0.70494 0.95008-0.51469  0 331.60 472.99    8.05 331.68 473.13    8.12
   2  -5   6 -41.415  91.554   2 0.09108 0.16405-0.87411 0.37636-0.47711 0.91183  0 133.74 172.97  139.44 134.03 173.29  139.36
   2   5  -6 -16.756 165.470   2 0.12913 0.12602-0.36734 0.86480-0.92108 0.48604  0 359.30 471.95  178.60 359.35 471.89  178.88
   2   5  -6 -35.192 104.863   2-0.18352 0.43852 0.91443-0.41707 0.36075-0.79609  0 144.36 153.43  313.10 144.38 153.32  312.92
   2   5   6  31.068  91.515   2-0.20203 0.45713-0.22595 0.72330 0.95296-0.51757  0 125.65 195.52   32.90 125.65 195.16   33.24
  -2  -5  -7  3262.0   214.4   1-0.35548 0.10022 0.44790-0.94482-0.82038 0.31189  0 118.62 347.69   19.99 118.42 347.57   20.24
  -2  -5  -7  4864.9   316.1   2 0.08075-0.33586 0.34094-0.83854-0.93661 0.42900  0 280.13  28.70  220.45 280.23  28.97  220.46
  -2  -5   7  3903.9   238.4   1-0.67879 0.42350-0.62298 0.12589-0.38877 0.89711  0 111.06 189.20   93.91 110.79 189.18   93.83
  -2  -5   7  5305.4   291.0   2 0.07057-0.32570-0.94229 0.44455-0.32727 0.83445  0 223.45  51.79  130.04 223.41  51.77  129.87
  -2   5  -7  4536.3   301.8   2-0.19001-0.06499 0.89287-0.39551 0.40827-0.91616  0 254.69  37.18  315.99 254.42  37.45  315.95
  -2   5   7  5576.3   303.9   2-0.17635-0.07874-0.42417 0.92151 0.88825-0.38029  0 203.22  64.18   45.27 203.15  64.30   45.27
  -2   5   7  4482.2   394.3   2-0.05831-0.19673 0.92527-0.42757-0.37480 0.88232  0 494.35 449.99  269.24 494.38 450.02  269.03
   2  -5  -7  2915.0   113.3   1-0.66272 0.91801-0.16810-0.32899-0.72976 0.22142  0 244.21 475.02   61.01 243.98 474.69   60.83
   2  -5  -7  4383.1   161.3   1-0.50228 0.75770-0.86412 0.36694 0.03171-0.53967  0 363.40 496.54  124.00 362.91 496.30  123.72
   2  -5  -7  5329.4   378.6   2-0.04343 0.29857-0.94009 0.44258 0.33814-0.84557  0 402.59 490.96   90.38 402.75 490.57   90.32
   2  -5  -7  5352.3   294.1   2 0.07280 0.18231 0.39737-0.89498-0.91477 0.40716  0 146.07 119.36  224.00 146.02 119.44  223.96
   2  -5   7  4078.4   234.4   1-0.52483 0.78025-0.85117 0.35399-0.00770 0.51566  0 102.86 291.99  121.10 102.74 291.97  121.02
   2  -5   7  4721.8   347.1   2-0.23449 0.48958 0.26228-0.75962 0.93607-0.42811  0 336.31 496.84    4.98 336.25 496.67    4.87
   2  -5   7  4915.0   254.0   2 0.07820 0.17694-0.92113 0.42338-0.38133 0.88851  0 119.55 164.81  133.17 119.40 164.84  133.23
   2   5  -7  4926.7   373.8   2 0.12941 0.12574-0.41304 0.91050-0.90147 0.39393  0 375.03 495.08  175.94 374.95 495.03  176.02
   2   5  -7  4135.7   261.2   2-0.17157 0.42657 0.94516-0.44780 0.27793-0.78582  0 133.84 137.53  308.08 133.76 137.64  307.77
   2   5   7  5278.2   243.5   2-0.19520 0.45030-0.28489 0.78223 0.93847-0.43052  0 111.11 187.36   36.73 110.74 187.36   36.72
   2   5   7  4417.6   315.0   2-0.06747 0.32251 0.94220-0.44450-0.32819 0.83571  0 307.05 494.03  272.02 307.09 493.59  271.92
  -2  -5  -8  3638.5   245.3   1-0.33648 0.08122 0.47198-0.96890-0.81487 0.23374  0 103.88 363.51   18.42 103.70 363.35   18.45
  -2  -5   8  4556.2   272.6   1-0.65885 0.40356-0.68321 0.18612-0.31487 0.89582  0  95.29 174.41   99.34  95.07 174.49   99.41
  -2  -5   8  5186.6   330.8   2 0.05875-0.31388-0.96764 0.46989-0.24541 0.82503  0 207.83  33.82  125.14 207.83  33.89  124.91
  -2   5  -8  4899.3   322.8   2-0.17733-0.07767 0.93172-0.43437 0.31693-0.89738  0 247.71  13.35  310.19 247.37  13.75  310.18
  -2   5   8  6055.8   338.5   2-0.17172-0.08338-0.45506 0.95240 0.87375-0.29323  0 187.36  47.68   47.19 187.33  47.82   47.24
   2  -5  -8  3324.9   125.8   1-0.64072 0.89600-0.09175-0.40534-0.76227 0.18132  2 241.48 500.47   56.01 241.30 500.24   55.92
   2  -5  -8  5694.4   324.1   2 0.06761 0.18750 0.43121-0.92882-0.89971 0.31959  0 134.05 100.85  226.18 134.00 100.97  226.09
   2  -5   8  4423.7   267.7   1-0.49896 0.75438-0.86582 0.36864 0.03737 0.54315  0  82.28 281.63  124.11  82.22 281.62  124.11
   2  -5   8  4962.3   267.7   2 0.06522 0.18992-0.95506 0.45731-0.28916 0.86879  0 102.54 154.86  127.48 102.18 154.87  127.54
   2   5  -8  5144.0   305.5   2-0.15962 0.41462 0.96690-0.46955 0.19905-0.77950  0 121.18 119.63  303.30 120.97 119.73  303.01
   2   5   8  5414.0   270.9   2-0.18976 0.44485-0.32939 0.82673 0.92493-0.34441  0  93.32 178.28   39.39  93.20 178.24   39.41
  -2  -5  -9 159.817 139.049   1-0.32313 0.06787 0.48837-0.98529-0.81061 0.15683  0  85.84 381.80   17.34  86.26 381.44   17.22
  -2  -5   9-126.905 129.632   1-0.63386 0.37845-0.73477 0.23758-0.24153 0.89461  0  77.25 158.18  104.23  76.78 157.93  104.75
  -2  -5   9 110.572 189.852   2 0.04678-0.30191-0.98477 0.48702-0.16747 0.81955  0 189.65  12.18  120.57 189.96  12.68  120.28
  -2   5   9 175.950 195.462   2-0.16824-0.08686-0.47653 0.97387 0.86291-0.20983  0 169.18  28.06   48.62 169.03  28.25   48.64
   2  -5  -9  38.668 177.008   2 0.06394 0.19117 0.45530-0.95291-0.88804 0.23540  0 119.37  79.22  227.45 119.50  79.53  227.64
   2  -5   9 229.834 146.234   1-0.47185 0.72727-0.87786 0.38068 0.08198 0.57111  0  58.77 270.75  127.42  59.02 270.59  127.18
   2  -5   9  93.543 150.254   2 0.05209 0.20304-0.97818 0.48043-0.20112 0.85320  0  81.30 143.25  122.49  81.87 143.24  122.26
   2   5  -9 -76.415 161.014   2-0.14793 0.40297 0.98112-0.48342 0.12461-0.77712  0 105.68  98.82  298.57 105.69  99.12  298.64
   2   5   9  56.776 136.617   2-0.18538 0.44048-0.36178 0.85912 0.91365-0.26056  0  71.85 167.70   41.47  72.52 167.73   41.38
  -2  -5 -10  5104.7   315.3   1-0.31519 0.05993 0.49795-0.99487-0.80790 0.08148  0  65.75 402.79   16.49  65.55 402.69   16.49
  -2  -5  10  5132.6   351.0   1-0.60418 0.34876-0.77889 0.28171-0.16822 0.89387  0  55.17 138.29  110.00  55.05 138.47  109.95
   2  -5 -10  6761.8   418.7   2 0.06139 0.19372 0.47117-0.96877-0.87991 0.15475  0 102.10  54.07  228.66 101.86  54.29  228.67
   2  -5  10  5138.0   329.1   1-0.44353 0.69895-0.88732 0.39014 0.12627 0.59939  0  32.64 258.45  130.09  32.43 258.46  130.24
   2   5 -10  5624.7   389.3   2-0.13615 0.39119 0.98927-0.49157 0.05301-0.77803  0  87.25  75.09  294.45  87.05  75.07  294.43
   2   5  10  6296.9   344.4   2-0.18224 0.43734-0.38384 0.88118 0.90524-0.17959  0  48.54 155.75   42.75  47.95 155.67   42.73
  -2  -6   0 38456.0   533.5   1-0.63707 0.38178-0.08024-0.51627-0.76662 0.76662  0 136.85 278.93   55.01 137.00 278.80   55.18
  -2  -6   0 52940.1   606.7   2-0.19709-0.05800-0.26868-0.32813 0.94285-0.94285  0 494.94 356.20   36.11 495.16 356.29   35.76
  -2  -6   0 51423.6   596.6   2 0.12942-0.38457-0.40832-0.18864-0.90362 0.90362  0 273.62  77.61  176.32 273.88  77.80  176.32
  -2   6   0 35939.4   455.6   1-0.56034 0.30508 0.11292 0.48338-0.82053 0.82053  0 446.01 107.60   42.91 446.10 107.90   42.86
  -2   6   0 52611.0   610.8   2-0.23426-0.02083 0.25279 0.34402 0.93873-0.93873  0 247.53  87.28    5.41 247.40  87.47    5.44
  -2   6   0 57551.3   656.3   2 0.07459-0.32970 0.38493 0.21220-0.91993 0.91993  0 474.91 382.34  222.91 475.08 382.33  223.18
   2  -6   0 31372.9   403.7   1-0.67363 0.92891-0.64117 0.04466-0.36759 0.36759  0 181.28 379.42   95.40 181.41 379.31   95.46
   2  -6   0 53140.7   626.5   2-0.17577 0.43087-0.42805-0.16875 0.88649-0.88649  0 349.19 445.71   45.52 349.13 445.51   45.51
   2  -6   0 52796.4   607.6   2 0.12814 0.12701-0.29824-0.29872-0.94585 0.94585  0 159.70 166.55  182.90 159.73 166.50  183.09
   2   6   0 57427.4   623.1   2 0.08383 0.17127 0.31724 0.27989-0.94463 0.94463  0 318.56 446.31  219.00 318.56 446.05  219.00
   2   6   0 48770.3   563.0   2-0.23604 0.49103 0.45367 0.14290 0.85934-0.85934  0 148.55 189.59  353.16 148.62 189.59  352.85
  -2  -6  -1 145.943  84.541   1-0.60870 0.35341-0.00021-0.59630-0.79340 0.72078  0 137.19 289.36   50.44 137.25 289.35   50.09
  -2  -6  -1 124.309 141.624   2-0.18144-0.07366-0.38957-0.20724 0.90295-0.97551  0 499.26 353.58   42.87 499.37 353.63   43.09
  -2  -6  -1 123.782 126.486   2 0.12812-0.38326-0.29724-0.29971-0.94617 0.87366  0 276.94  74.50  183.50 277.12  75.26  183.15
  -2  -6   1 -28.015  79.258   1-0.66149 0.40620-0.16332-0.43319-0.73196 0.80458  0 134.54 268.45   60.56 134.82 268.38   60.52
  -2  -6   1  70.441 136.152   2-0.20985-0.04525-0.15017-0.44664 0.96613-0.89357  0 494.38 362.00   29.02 494.12 361.94   28.80
  -2  -6   1  81.867 130.881   2 0.12777-0.38291-0.51497-0.08199-0.84763 0.92014  0 268.81  78.03  169.61 269.14  77.60  169.37
  -2   6  -1 -81.478 128.500   1-0.60851 0.35322 0.00028 0.59623-0.79355 0.72093  0 463.19 119.05   50.40 463.41 119.16   50.06
  -2   6  -1  93.670 145.522   2 0.08855-0.34365 0.27918 0.31795-0.95615 0.88363  0 479.96 380.74  217.06 479.58 380.50  216.70
  -2   6  -1 102.793 102.705   2-0.23687-0.01812 0.36546 0.23111 0.90019-0.97276  0 250.08  84.92  358.54 250.36  84.69  358.43
  -2   6   1  55.238 111.833   1-0.48844 0.23318 0.24997 0.34634-0.83603 0.90867  0 431.18  95.72   33.44 431.22  95.67   33.95
  -2   6   1 -29.155  94.588   2-0.23031-0.02478 0.14184 0.45497 0.96272-0.89016  0 243.03  87.66   11.57 243.15  87.81   11.96
  -2   6   1  52.718 145.864   2 0.05856-0.31367 0.48822 0.10890-0.87075 0.94327  0 473.49 387.27  229.91 473.49 387.23  229.79
   2  -6  -1  11.789  70.253   1-0.68442 0.93971-0.59974 0.00323-0.41459 0.34197  0 191.06 392.22   92.01 191.36 391.84   91.81
   2  -6  -1  16.951 142.064   2-0.15935 0.41448-0.52689-0.07013 0.83486-0.90735  0 354.52 446.99   51.44 354.27 446.78   52.00
   2  -6  -1  60.998  93.495   2 0.12494 0.13021-0.18563-0.41133-0.97465 0.90214  0 160.50 162.44  189.89 160.56 162.51  189.76
   2  -6   1   8.835  81.311   1-0.66053 0.91582-0.67899 0.08248-0.32042 0.39304  0 170.35 367.75   99.07 170.43 367.68   99.00
   2  -6   1  86.379 141.207   2-0.19019 0.44528-0.32603-0.27078 0.92603-0.85346  0 345.77 447.61   39.10 345.68 447.64   39.20
   2  -6   1 125.895  96.932   2 0.12941 0.12573-0.41166-0.18529-0.90210 0.97461  0 156.82 168.55  176.54 157.05 168.58  176.11
   2   6  -1 116.559 132.339   2 0.09786 0.15724 0.19719 0.39994-0.97547 0.90295  0 323.83 448.09  211.40 323.75 447.97  211.84
   2   6  -1  15.060  84.915   2-0.23258 0.48758 0.55386 0.04296 0.79946-0.87202  0 148.73 185.18  346.35 149.02 185.20  346.20
   2   6   1 106.562 120.220   2 0.06658 0.18852 0.43789 0.15923-0.89656 0.96907  0 314.91 447.27  226.42 314.76 447.48  226.52
  -2  -6  -2 637.388 114.254   1-0.57769 0.32243 0.07484-0.67114-0.81282 0.66753  0 135.59 300.11   45.24 135.61 300.21   45.30
  -2  -6  -2 713.830 147.151   2 0.12501-0.38015-0.18737-0.40959-0.97430 0.82929  0 278.65  70.05  189.81 278.93  69.92  189.66
  -2  -6   2 650.778 106.099   1-0.68056 0.42527-0.24724-0.34927-0.68972 0.83496  0 130.71 258.03   66.00 130.75 257.92   66.00
  -2  -6   2 863.616 169.194   2-0.21926-0.03583-0.03979-0.55702 0.97485-0.82972  0 496.02 370.55   22.47 496.16 370.63   22.43
  -2  -6   2 925.105 162.221   2 0.12363-0.37877-0.61302 0.01606-0.78034 0.92535  0 262.92  74.70  162.59 262.92  74.79  162.52
  -2   6  -2 619.626 146.157   1-0.63989 0.38460-0.08913 0.68564-0.76328 0.61805  0 483.07 129.57   55.67 483.12 129.72   55.75
  -2   6  -2 942.635 182.526   2 0.10009-0.35520 0.17557 0.42156-0.97937 0.83434  0 486.82 381.72  210.72 487.15 381.79  210.59
  -2   6  -2 848.268 136.809   2-0.23545-0.01953 0.47596 0.12061 0.84736-0.99251  0 251.63  79.08  351.42 251.62  79.25  351.39
  -2   6   2 665.345 116.057   1-0.38601 0.13075 0.40695 0.18935-0.82788 0.97316  0 418.32  81.92   22.94 418.38  82.29   23.19
  -2   6   2 942.206 146.766   2-0.22478-0.03032 0.03772 0.55909 0.97368-0.82855  0 237.38  85.63   17.99 237.33  85.70   17.96
  -2   6   2 983.335 182.332   2 0.04131-0.29641 0.58504 0.01209-0.80995 0.95498  0 474.67 395.24  236.40 474.66 395.27  236.42
   2  -6  -2 627.524  88.858   1-0.69269 0.94798-0.55480-0.04171-0.46084 0.31560  0 200.17 405.48   88.22 200.26 405.49   88.09
   2  -6  -2  1108.6   183.6   2-0.14191 0.39704-0.61888 0.02186 0.77256-0.91754  0 361.26 451.46   58.46 361.04 451.27   58.45
   2  -6  -2  1098.3   140.9   2 0.11953 0.13561-0.07912-0.51784-0.98967 0.84466  0 159.63 156.62  196.02 159.61 156.59  195.94
   2  -6   2 663.350 109.450   1-0.64534 0.90076-0.71337 0.11675-0.27320 0.41833  0 158.43 356.72  102.43 158.43 356.83  102.47
   2  -6   2  1012.7   170.6   2-0.20212 0.45721-0.22518-0.37163 0.95312-0.80799  0 343.71 452.84   33.04 343.76 453.05   33.20
   2  -6   2  1107.8   140.8   2 0.12759 0.12756-0.52109-0.07587-0.84391 0.98893  0 152.61 168.71  168.70 152.49 168.79  168.96
   2   6  -2  1084.7   169.6   2 0.10838 0.14673 0.08378 0.51335-0.99057 0.84554  0 330.41 453.21  205.28 330.41 453.18  205.25
   2   6  -2 719.539 121.083   2-0.22716 0.48216 0.64499-0.04816 0.72965-0.87476  0 147.67 178.82  339.69 147.59 178.94  339.60
   2   6   2  1018.6   131.8   2-0.23393 0.48903 0.24154 0.35527 0.94177-0.79664  0 141.69 192.85    6.02 141.70 192.89    6.11
   2   6   2 948.727 156.618   2 0.04739 0.20772 0.55254 0.04459-0.83214 0.97717  0 312.45 452.51  234.05 312.39 452.34  234.14
  -2  -6  -3 612.444 118.450   1-0.54593 0.29067 0.14280-0.73910-0.82557 0.60765  0 131.82 311.50   40.66 131.97 311.52   40.94
  -2  -6  -3 619.724 153.018   2 0.11978-0.37493-0.08335-0.51360-0.98929 0.77178  0 279.02  61.76  195.59 279.31  61.66  195.70
  -2  -6   3 526.804 113.632   1-0.69353 0.43825-0.32978-0.26673-0.64051 0.85837  0 125.00 247.29   71.45 124.79 247.25   71.55
  -2  -6   3 709.290 178.907   2-0.22597-0.02913 0.05865-0.65545 0.97237-0.75467  2 501.31 382.63   16.62 501.27 382.58   16.77
  -2  -6   3 402.287 128.372   2 0.11717-0.37231-0.69956 0.10261-0.70490 0.92242  0 255.07  69.45  155.62 255.23  69.44  155.94
  -2   6  -3 809.005 185.711   2 0.10886-0.36397 0.07816 0.51897-0.99098 0.77343  0 497.79 386.23  204.99 497.91 386.18  204.93
  -2   6  -3 635.645 134.446   2-0.23127-0.02373 0.57893 0.01790 0.78189-0.99956  0 251.32  71.06  344.41 251.25  71.16  344.44
  -2   6   3 452.183 109.803   1-0.25045-0.00481 0.57110 0.02521-0.78174 0.99967  0 407.09  67.18   10.51 407.52  67.23   10.70
  -2   6   3 733.784 139.993   2-0.21801-0.03708-0.05596 0.65277 0.97434-0.75665  0 230.11  81.16   23.36 229.97  81.26   23.36
  -2   6   3 702.730 191.599   2 0.02296-0.27806 0.67212-0.07499-0.74008 0.95763  0 478.79 406.99  242.57 478.56 406.54  242.91
   2  -6  -3 276.389  74.021   1-0.69811 0.95339-0.50666-0.08985-0.50591 0.28805  0 208.13 420.96   84.52 208.05 420.58   84.31
   2  -6  -3 724.841 186.603   2-0.12385 0.37899-0.70128 0.10427 0.70204-0.91951  0 369.69 459.15   64.66 369.65 459.12   64.75
   2  -6  -3 583.020 128.678   2 0.11357 0.14154 0.01774-0.61487-0.99337 0.77583  0 156.65 148.80  201.53 156.77 148.72  201.45
   2  -6   3 300.137 104.037   1-0.62815 0.88357-0.74434 0.14772-0.22670 0.44440  0 145.43 346.40  105.68 145.29 346.44  105.82
   2  -6   3 603.982 167.996   2-0.21173 0.46683-0.12979-0.46702 0.96867-0.75098  0 343.44 462.26   27.64 343.29 461.91   27.62
   2  -6   3 565.913 121.129   2 0.12310 0.13204-0.62183 0.02488-0.77341 0.99093  0 145.85 167.16  162.01 146.01 167.20  161.88
   2   6  -3 709.637 174.640   2 0.11568 0.13946-0.01868 0.61563-0.99311 0.77559  0 338.51 462.05  199.33 338.40 461.73  199.42
   2   6  -3 423.579 113.274   2-0.21968 0.47468 0.72466-0.12783 0.65316-0.87082  0 144.39 170.78  333.29 144.26 170.87  333.21
   2   6   3 731.270 118.774   2-0.23022 0.48532 0.13974 0.45707 0.96305-0.74536  0 135.43 191.97   12.01 135.30 191.83   12.09
   2   6   3 672.135 156.526   2 0.02655 0.22856 0.65611-0.05898-0.75420 0.97174  0 311.21 460.54  241.55 311.21 460.65  241.68
  -2  -6  -4  43.807 102.680   1-0.51499 0.25973 0.20271-0.79902-0.83288 0.54232  0 126.35 323.34   36.82 126.35 323.47   37.06
  -2  -6  -4  -7.715 151.741   2 0.11389-0.36900 0.01041-0.60754-0.99344 0.70338  0 278.51  50.37  201.03 278.24  50.30  201.05
  -2  -6   4  17.470  94.475   1-0.69980 0.44452-0.40923-0.18728-0.58550 0.87597  0 116.75 236.06   77.39 116.86 236.22   77.10
  -2  -6   4  23.956 116.769   2 0.10886-0.36401-0.77339 0.17644-0.62451 0.91453  0 245.99  61.63  149.48 246.11  61.55  149.67
  -2   6  -4   7.130 112.699   2-0.22499-0.03001 0.67092-0.07409 0.70658-0.99680  0 249.93  60.22  337.49 249.59  60.20  337.58
  -2   6   4  27.559 115.197   2-0.21103-0.04406-0.13738 0.73419 0.96778-0.67752  0 221.07  74.40   27.99 221.05  74.46   28.06
  -2   6   4  29.406 185.317   2 0.00441-0.25952 0.74786-0.15073-0.66384 0.95390  0 485.02 420.98  249.52 485.30 421.33  249.19
   2  -6  -4  41.218  65.915   1-0.70031 0.95559-0.45579-0.14073-0.54939 0.25891  0 214.61 437.59   80.48 214.66 437.44   80.47
   2  -6  -4   2.911 179.268   2-0.10548 0.36061-0.77259 0.17557 0.62608-0.91604  0 380.25 470.80   70.43 380.24 470.55   70.82
   2  -6  -4  39.776 114.672   2 0.10669 0.14842 0.10249-0.69962-0.98900 0.69893  0 152.57 139.09  206.57 152.28 138.86  206.34
   2  -6   4  -9.047  90.565   1-0.60935 0.86477-0.77214 0.17553-0.18023 0.47049  0 130.82 336.30  109.67 130.93 336.39  109.10
   2  -6   4   8.199 165.355   2-0.21902 0.47411-0.04304-0.55377 0.97477-0.68451  0 344.43 474.38   22.51 344.18 474.36   22.62
   2  -6   4  77.952 104.462   2 0.11610 0.13904-0.71085 0.11390-0.69369 0.98371  0 137.69 164.01  155.46 137.52 163.83  155.03
   2   6  -4 -34.454 159.651   2 0.12118 0.13397-0.10774 0.70470-0.98677 0.69674  0 348.41 473.40  194.44 348.28 473.85  194.30
   2   6  -4  74.194 110.433   2-0.21089 0.46589 0.79210-0.19527 0.57280-0.86303  0 138.96 160.98  326.87 139.15 160.97  327.15
   2   6   4-100.051  87.284   2-0.22524 0.48033 0.04646 0.55035 0.97320-0.68294  0 127.10 189.17   17.54 126.80 189.08   17.47
   2   6   4  64.624 153.819   2 0.00511 0.25000 0.74523-0.14810-0.66679 0.95685  0 311.11 472.76  248.98 311.16 472.57  248.96
  -2  -6  -5 -39.646 101.337   1-0.48610 0.23084 0.25399-0.85030-0.83618 0.47297  0 118.85 336.34   33.46 118.68 336.33   33.68
  -2  -6  -5 299.163 178.796   2 0.10762-0.36273 0.09197-0.68910-0.98993 0.62735  0 275.97  36.09  205.96 276.08  35.72  205.73
  -2  -6   5 120.044 109.186   1-0.69951 0.44422-0.48404-0.11247-0.52573 0.88883  0 107.30 224.82   82.39 106.94 224.61   82.59
  -2  -6   5 243.925 132.560   2 0.09937-0.35450-0.83432 0.23703-0.54225 0.90451  0 235.42  51.39  143.40 235.38  51.20  143.74
  -2   6  -5 -34.553 127.210   2-0.21673-0.03827 0.75023-0.15340 0.62464-0.98742  0 246.75  46.24  330.81 246.56  46.28  331.00
  -2   6   5 274.054 140.513   2-0.20418-0.05092-0.20588 0.80269 0.95704-0.59421  0 210.56  65.26   32.00 210.49  65.32   32.06
  -2   6   5  18.559 213.908   2-0.01384-0.24119 0.81165-0.21441-0.58399 0.94650  0 494.63 439.69  254.89 494.86 439.86  255.13
   2  -6  -5  79.241  65.993   1-0.69959 0.95487-0.40407-0.19244-0.58933 0.22623  0 220.26 456.92   76.92 220.07 456.50   76.73
   2  -6  -5 148.816 112.063   1-0.08379 0.33920-0.83214 0.23559 0.54821-0.91074  0 394.05 485.71  162.94 393.79 485.83  162.59
   2  -6  -5 181.018 210.091   2-0.08737 0.34250-0.83251 0.23549 0.54708-0.90952  0 392.79 485.32   76.44 393.08 485.86   76.60
   2  -6  -5 144.177 130.881   2 0.10021 0.15490 0.17446-0.77159-0.97955 0.61698  0 145.61 126.90  210.60 146.01 126.95  210.52
   2  -6   5  55.193 110.114   1-0.58890 0.84431-0.79700 0.20038-0.13414 0.49697  0 115.21 326.55  112.45 115.12 326.56  112.32
   2  -6   5  84.112 189.080   2-0.22447 0.47957 0.03293-0.62974 0.97392-0.61110  0 346.39 490.60   18.58 346.30 490.73   18.24
   2  -6   5  67.036 109.511   2 0.10713 0.14800-0.78630 0.18900-0.60849 0.97076  0 126.88 158.75  149.19 126.96 158.78  148.44
   2   6  -5 138.925 197.599   2 0.12481 0.13034-0.18252 0.77948-0.97525 0.61272  0 359.71 490.04  190.07 360.06 489.90  189.94
   2   6  -5 104.712 123.017   2-0.20099 0.45599 0.84757-0.25074 0.49115-0.85393  0 132.28 148.97  321.61 132.15 149.19  321.43
   2   6   5 100.506 103.191   2-0.21958 0.47467-0.03564 0.63245 0.97494-0.61212  0 116.08 184.65   21.93 116.11 184.74   22.19
   2   6   5  48.520 167.510   2-0.01600 0.27104 0.81850-0.22126-0.57428 0.93679  0 312.06 488.98  255.62 312.14 488.37  255.82
  -2  -6  -6  1154.8   157.6   1-0.46048 0.20522 0.29657-0.89288-0.83666 0.40081  0 109.16 350.27   30.78 108.80 350.42   30.84
  -2  -6  -6  1303.5   231.7   2 0.10153-0.35664 0.16044-0.75757-0.98181 0.54672  0 272.64  17.95  210.04 272.71  17.56  209.70
  -2  -6   6  1052.5   161.0   1-0.69292 0.43763-0.55322-0.04329-0.46240 0.89811  0  95.27 212.12   87.74  94.87 212.17   87.96
  -2  -6   6  1416.5   196.2   2 0.08878-0.34391-0.88371 0.28642-0.45953 0.89425  0 223.07  38.12  138.01 223.11  38.26  138.20
  -2   6  -6  1230.1   195.2   2-0.20692-0.04808 0.81645-0.21962 0.53906-0.97440  0 242.22  29.12  325.02 242.16  29.12  324.73
  -2   6   6  1394.1   197.1   2-0.19787-0.05722-0.26194 0.85875 0.94458-0.50919  0 198.22  53.71   35.43 198.18  53.76   35.36
   2  -6  -6 830.359  89.965   1-0.69605 0.95134-0.35336-0.24315-0.62502 0.18930  0 224.32 478.71   73.33 224.29 478.47   73.18
   2  -6  -6  1700.8   199.3   2 0.09383 0.16128 0.23368-0.83080-0.96778 0.53268  0 137.80 112.69  214.04 137.76 112.86  213.99
   2  -6   6  1124.8   171.9   1-0.56702 0.82244-0.81897 0.22235-0.08821 0.52360  0  97.99 316.72  115.34  97.68 316.75  115.50
   2  -6   6  1332.9   173.3   2 0.09669 0.15844-0.84860 0.25130-0.52013 0.95485  0 114.35 152.00  142.40 114.13 152.08  142.23
   2   6  -6  1172.3   180.7   2-0.19025 0.44525 0.89202-0.29519 0.41001-0.84535  0 123.10 135.19  315.96 123.14 135.43  316.06
   2   6   6  1410.7   165.1   2-0.21392 0.46902-0.10531 0.70212 0.97116-0.53577  0 102.93 178.86   26.31 103.07 178.88   26.21
  -2  -6  -7  53.347 121.765   1-0.43878 0.18352 0.33072-0.92702-0.83553 0.32703  0  96.77 366.02   28.58  96.61 366.14   28.52
  -2  -6   7 129.884 133.515   1-0.68056 0.42527-0.61613 0.01962-0.39652 0.90485  0  79.95 198.51   93.56  80.46 198.61   93.23
  -2  -6   7  95.578 168.510   2 0.07772-0.33285-0.92257 0.32527-0.37793 0.88510  0 209.00  22.36  134.14 208.99  22.46  133.01
  -2   6  -7 205.130 179.507   2-0.19594-0.05906 0.87011-0.27329 0.45223-0.96012  2 236.44   9.09  319.05 236.38   8.10  318.82
  -2   6   7 378.441 175.281   2-0.19255-0.06254-0.30659 0.90340 0.93216-0.42421  0 183.78  39.27   38.28 183.81  39.47   38.03
   2  -6  -7  28.240 156.395   2 0.08830 0.16681 0.28122-0.87835-0.95557 0.44796  0 127.65  96.47  217.08 127.43  96.28  216.83
   2  -6   7 0.05237 135.293   1-0.54367 0.79909-0.83822 0.24160-0.04257 0.55053  0  78.69 306.82  118.35  78.21 306.80  118.63
   2  -6   7  46.017 133.824   2 0.08496 0.17017-0.89827 0.30097-0.43115 0.93833  0  98.39 143.72  136.33  98.81 143.70  136.38
   2   6  -7 152.068 154.235   2-0.17926 0.43426 0.92669-0.32986 0.33032-0.83822  0 111.84 119.38  311.39 111.94 119.45  311.02
   2   6   7 156.939 129.633   2-0.20861 0.46371-0.16256 0.75937 0.96439-0.45644  0  87.62 171.50   29.46  87.41 171.54   29.52
  -2  -6  -8 13301.6   400.3   1-0.42120 0.16594 0.35691-0.95322-0.83379 0.25265  0  81.84 384.16   26.69  81.76 383.98   26.71
  -2  -6   8 14517.4   434.9   1-0.66307 0.40779-0.67240 0.07588-0.32897 0.90992  0  63.61 183.43   98.34  63.29 183.48   98.36
  -2   6   8 19917.3   549.6   2-0.18824-0.06685-0.34106 0.93787 0.92100-0.34048  0 167.12  22.02   40.00 167.07  22.13   40.12
   2  -6  -8 20780.9   544.9   2 0.08370 0.17141 0.31830-0.91542-0.94429 0.36417  0 115.04  76.65  219.00 114.64  76.78  219.07
   2  -6   8 13867.5   427.1   1-0.51899 0.77441-0.85477 0.25816 0.00291 0.57762  0  56.55 296.43  121.95  56.26 296.47  121.74
   2  -6   8 18577.9   479.6   2 0.07287 0.18226-0.93640 0.33910-0.34330 0.92293  0  80.89 133.58  130.80  80.51 133.59  130.86
   2   6  -8 15545.6   477.2   2-0.16784 0.42284 0.95282-0.35599 0.25290-0.83335  0  98.46 100.70  306.32  98.17 100.87  306.25
   2   6   8 19880.8   473.0   2-0.20395 0.45904-0.20807 0.80488 0.95661-0.37610  0  69.13 162.76   31.76  68.75 162.71   32.19
  -2  -6  -9 261.171 169.328   1-0.40830 0.15304 0.37572-0.97203-0.83194 0.17817  0  63.65 404.96   25.54  63.80 404.75   25.40
  -2  -6   9  27.402 158.662   1-0.64097 0.38555-0.72180 0.12518-0.26107 0.91415  0  43.05 166.20  103.41  43.03 166.38  103.35
   2  -6  -9 405.544 225.083   2 0.08005 0.17506 0.34614-0.94327-0.93476 0.28212  0  99.29  54.00  220.50  98.89  53.70  220.78
   2  -6   9   2.601 153.878   1-0.49262 0.74804-0.86893 0.27231 0.04788 0.60521  0  31.75 285.45  123.89  31.14 285.45  124.83
   2  -6   9 102.564 177.919   2 0.06058 0.19455-0.96437 0.36707-0.25754 0.90962  0  59.24 121.39  126.20  58.53 121.43  125.64
   2   6  -9 374.057 211.949   2-0.15645 0.41145 0.97154-0.37472 0.17784-0.83084  0  81.81  79.25  301.62  81.30  79.11  301.74
   2   6   9 115.853 158.882   2-0.20008 0.45517-0.24292 0.83973 0.94919-0.29610  0  46.01 152.34   34.17  46.43 152.27   34.24
  -2  -7   0   1.318  99.412   1-0.65870 0.40341-0.15316-0.54277-0.73666 0.73666  0 108.44 292.03   59.44 107.84 292.17   59.86
  -2  -7   0 -18.945 166.165   2 0.12906-0.38421-0.44224-0.25420-0.88756 0.88756  0 257.59  42.01  174.43 257.68  42.73  174.16
  -2   7   0-114.328 168.557   1-0.51295 0.25769 0.20647 0.48923-0.83322 0.83322  0 488.18  73.51   37.09 488.02  73.14   36.81
  -2   7   0-139.235 125.282   2-0.23523-0.01986 0.30869 0.38759 0.92162-0.92162  0 226.04  56.52    2.66 226.13  57.03    2.09
   2  -7   0  12.134  82.811   1-0.67342 0.92870-0.64181-0.05412-0.36686 0.36686  0 155.29 400.06   95.29 155.34 399.67   95.51
   2  -7   0  -4.348 200.035   2-0.17131 0.42641-0.45763-0.23864 0.87248-0.87248  0 372.22 488.44   47.51 372.24 488.12   47.41
   2  -7   0  56.463 116.787   2 0.12896 0.12618-0.34771-0.34873-0.92869 0.92869  0 137.63 140.78  180.10 137.64 140.95  180.09
   2   7   0-137.182 164.359   2 0.07724 0.17787 0.36675 0.32990-0.92711 0.92711  0 333.25 489.28  222.08 333.42 489.25  222.05
   2   7   0  86.260 112.405   2-0.23533 0.49032 0.48092 0.21507 0.84459-0.84459  0 123.36 168.57  351.24 123.31 168.71  351.06
  -2  -7  -1  2820.1   209.1   1-0.63846 0.38317-0.08455-0.61138-0.76500 0.69238  0 108.77 303.54   55.40 108.60 303.41   55.46
  -2  -7  -1  4227.1   325.6   2 0.12898-0.38413-0.34937-0.34708-0.92807 0.85556  0 260.85  39.63  180.04 261.07  39.78  179.99
  -2  -7   1  3091.1   219.9   1-0.67586 0.42058-0.22392-0.47201-0.70219 0.77480  0 105.29 281.14   64.41 105.12 281.12   64.47
  -2  -7   1  4002.5   263.8   2 0.12723-0.38238-0.53247-0.16398-0.83683 0.90934  0 252.94  42.56  168.21 252.86  42.86  168.17
  -2   7  -1  3911.1   267.6   2-0.23668-0.01831 0.40392 0.29208 0.88365-0.95622  0 229.16  53.68  355.99 229.16  53.88  356.02
  -2   7   1  2881.3   271.9   1-0.44385 0.18859 0.32289 0.37280-0.83590 0.90855  0 471.43  59.64   29.25 471.55  59.71   29.05
  -2   7   1  4217.9   269.2   2-0.23314-0.02196 0.21438 0.48190 0.94852-0.87595  0 221.94  57.71    7.80 221.82  57.70    7.72
   2  -7  -1  2433.3   178.7   1-0.68287 0.93815-0.60659-0.08934-0.40712 0.33450  0 164.98 413.21   92.37 165.23 413.21   92.40
   2  -7  -1  4276.3   365.8   2-0.15665 0.41179-0.54207-0.15446 0.82561-0.89809  0 377.81 489.38   53.18 377.86 489.42   53.03
   2  -7  -1  4127.0   253.3   2 0.12700 0.12815-0.25234-0.44411-0.95927 0.88676  0 138.74 136.86  185.79 138.62 136.87  185.83
   2  -7   1  2543.9   187.4   1-0.66196 0.91724-0.67533-0.02060-0.32518 0.39780  0 144.24 387.30   98.66 144.39 387.23   98.65
   2  -7   1  4081.0   359.1   2-0.18406 0.43916-0.37124-0.32504 0.91011-0.83755  0 368.43 490.54   42.03 368.44 490.43   41.96
   2  -7   1  4144.1   253.9   2 0.12905 0.12610-0.44378-0.25267-0.88680 0.95930  0 134.81 143.23  174.24 134.77 143.16  174.06
   2   7  -1  4421.6   333.4   2 0.09014 0.16497 0.26590 0.43076-0.95978 0.88726  0 338.96 491.45  215.72 338.96 491.26  215.91
   2   7  -1  3519.8   232.0   2-0.23203 0.48703 0.56603 0.13027 0.79106-0.86361  0 124.06 164.13  345.33 123.84 164.28  345.36
   2   7   1  4184.5   304.4   2 0.06192 0.19319 0.46790 0.22875-0.88161 0.95412  0 329.28 491.01  228.41 329.24 490.85  228.46
   2   7   1  3779.9   232.6   2-0.23683 0.49182 0.39259 0.30341 0.88870-0.81612  0 121.08 171.40  356.73 120.73 171.42  356.74
  -2  -7  -2  5629.9   264.0   1-0.61602 0.36074-0.01962-0.67631-0.78748 0.64224  0 107.46 315.30   51.32 107.38 315.07   51.33
  -2  -7  -2  7359.0   351.1   2 0.12713-0.38228-0.25717-0.43928-0.95797 0.81296  0 262.88  33.76  185.54 263.08  33.92  185.55
  -2  -7   2  5655.6   267.7   1-0.68883 0.43354-0.29542-0.40051-0.66200 0.80724  0 100.52 270.13   69.07 100.48 270.11   69.22
  -2  -7   2  8418.6   329.0   2 0.12339-0.37854-0.61708-0.07937-0.77717 0.92218  0 246.66  39.96  162.25 246.60  40.28  162.22
  -2   7  -2  7432.3   319.2   2-0.23478-0.02021 0.49793 0.19807 0.83483-0.97998  0 230.59  47.72  350.00 230.50  48.01  349.93
  -2   7   2  5111.0   274.8   1-0.35258 0.09733 0.45163 0.24406-0.81958 0.96486  0 457.30  44.35   20.00 457.37  44.68   19.96
  -2   7   2  8456.9   336.2   2-0.22952-0.02558 0.12470 0.57157 0.96528-0.82015  0 216.05  55.74   12.99 215.95  55.87   12.96
   2  -7  -2  4639.7   207.7   1-0.69026 0.94555-0.57019-0.12574-0.44544 0.30021  0 173.88 428.34   89.23 174.10 428.15   89.35
   2  -7  -2  8272.3   408.5   2-0.14124 0.39638-0.62211-0.07442 0.77009-0.91507  0 384.99 494.40   58.80 385.21 494.29   58.69
   2  -7  -2  8323.0   317.9   2 0.12386 0.13128-0.16080-0.53565-0.97918 0.83417  0 137.67 130.82  191.18 137.76 130.83  191.21
   2  -7   2  5318.1   248.2   1-0.64849 0.90391-0.70688 0.01083-0.28245 0.42758  0 132.06 375.88  102.01 132.29 375.75  101.79
   2  -7   2  8600.2   396.0   2-0.19508 0.45017-0.28591-0.41037 0.93819-0.79306  0 366.25 496.64   37.11 366.22 496.45   36.78
   2  -7   2  8592.4   318.8   2 0.12708 0.12807-0.53713-0.15932-0.83387 0.97888  0 129.90 143.55  167.74 129.96 143.52  167.86
   2   7  -2  8457.6   397.0   2 0.10066 0.15445 0.16916 0.52749-0.98044 0.83540  0 346.08 497.04  209.93 346.04 496.94  210.21
   2   7  -2  6543.2   281.5   2-0.22715 0.48215 0.64518 0.05112 0.72949-0.87460  0 122.72 157.80  339.59 122.48 158.03  339.58
   2   7   2  8048.9   296.6   2-0.23516 0.49026 0.30370 0.39258 0.92329-0.77816  0 116.16 172.40    2.34 115.95 172.43    2.39
   2   7   2  7936.8   374.4   2 0.04513 0.20998 0.56510 0.13155-0.82379 0.96882  0 326.44 496.31  235.16 326.42 496.11  235.01
  -2  -7  -3  3711.2   234.6   1-0.59229 0.33703 0.04059-0.73628-0.80470 0.58678  0 104.17 327.56   47.48 104.23 327.39   47.48
  -2  -7  -3  5348.8   348.1   2 0.12423-0.37938-0.16907-0.52738-0.97774 0.76023  0 263.55  24.95  190.70 263.76  25.00  190.73
  -2  -7   3  3390.2   231.2   1-0.69719 0.44191-0.36609-0.32984-0.61636 0.83422  0  93.88 258.93   74.07  93.84 258.95   74.06
  -2  -7   3  4910.8   283.8   2 0.11768-0.37282-0.69391-0.00254-0.71038 0.92790  0 238.89  34.90  156.36 238.84  34.99  156.39
  -2   7  -3  4853.9   299.2   2-0.23085-0.02415 0.58692 0.10938 0.77604-0.99371  0 230.42  39.11  343.74 230.18  39.33  343.87
  -2   7   3  3455.9   263.7   1-0.23759-0.01767 0.58463 0.11106-0.77573 0.99366  0 445.23  27.18    9.64 445.14  27.43    9.57
  -2   7   3  5021.4   298.5   2-0.22505-0.03005 0.04210 0.65418 0.97344-0.75574  0 208.42  51.36   17.67 208.44  51.55   17.71
   2  -7  -3  3395.0   183.8   1-0.69549 0.95078-0.53325-0.16268-0.48160 0.26375  0 181.81 445.08   86.29 181.98 444.86   86.37
   2  -7  -3  4971.0   394.2   2-0.12518 0.38032-0.69565-0.00087 0.70739-0.92486  2 394.31 502.71   64.31 394.60 502.95   64.30
   2  -7  -3  5590.6   291.3   2 0.11935 0.13580-0.07602-0.62042-0.98994 0.77242  0 135.05 122.83  196.24 135.03 122.82  196.12
   2  -7   3  3490.3   237.6   1-0.63308 0.88850-0.73613 0.04007-0.23943 0.45712  0 118.93 364.88  105.02 118.86 364.85  104.90
   2  -7   3  5357.9   279.0   2 0.12293 0.13222-0.62473-0.07172-0.77110 0.98862  0 123.54 142.19  161.67 123.16 142.10  161.66
   2   7  -3  4540.3   267.5   2-0.22057 0.47557 0.71652-0.02022 0.66178-0.87945  0 119.37 149.75  333.79 119.10 149.95  333.89
   2   7   3  5397.3   260.6   2-0.23325 0.48835 0.21807 0.47821 0.94765-0.72995  0 109.56 171.67    7.51 109.26 171.70    7.49
   2   7   3  5321.1   384.0   2 0.02679 0.22831 0.65500 0.04165-0.75515 0.97270  2 324.72 504.82  241.55 324.75 505.10  241.59
  -2  -7  -4  2034.8   225.0   1-0.56884 0.31359 0.09459-0.79028-0.81699 0.52642  0  98.95 340.78   44.06  98.91 340.57   44.04
  -2  -7  -4  2337.1   258.7   2 0.12003-0.37517-0.08751-0.60894-0.98891 0.69888  0 262.86  12.61  195.39 263.10  12.80  195.46
  -2  -7   4  1813.0   212.3   1-0.70039 0.44511-0.43476-0.26117-0.56607 0.85654  0  85.43 247.46   78.86  85.12 247.46   78.93
  -2  -7   4  2510.7   267.3   2 0.11043-0.36558-0.76168 0.06524-0.63847 0.92849  0 229.50  27.22  150.69 229.56  26.95  150.71
  -2   7  -4  2393.1   274.1   2-0.22521-0.02979 0.66834 0.02795 0.70894-0.99917  0 228.65  27.76  338.03 228.52  27.61  337.78
  -2   7   4  3115.7   282.0   2-0.21988-0.03522-0.03165 0.72792 0.97501-0.68475  0 199.30  44.78   21.68 199.24  44.78   21.96
   2  -7  -4  1646.3   156.1   1-0.69878 0.95407-0.49700-0.19893-0.51448 0.22401  0 188.94 463.89   83.56 189.02 463.83   83.57
   2  -7  -4  2959.0   268.3   2 0.11460 0.14050 0.00017-0.69682-0.99341 0.70335  0 130.33 112.53  200.50 130.26 112.70  200.45
   2  -7   4  1831.3   195.6   1-0.61588 0.87130-0.76310 0.06705-0.19590 0.48616  0 104.09 354.38  108.14 104.00 354.41  108.00
   2  -7   4  2436.4   239.5   2 0.11673 0.13841-0.70422 0.00777-0.70032 0.99034  0 114.48 138.93  155.54 114.21 138.87  155.56
   2   7  -4  2060.8   232.8   2-0.21279 0.46779 0.77906-0.08276 0.58973-0.87996  0 113.96 139.88  328.43 113.78 139.95  328.38
   2   7   4  2696.4   232.1   2-0.23015 0.48524 0.13811 0.55817 0.96331-0.67305  0 100.49 169.35   12.00 100.34 169.33   12.18
  -2  -7  -5 17232.4   440.7   1-0.54636 0.29110 0.14193-0.83762-0.82544 0.46223  0  91.47 355.09   40.99  91.41 354.89   41.00
  -2  -7   5 17089.8   442.4   1-0.69857 0.44329-0.50020-0.19573-0.51166 0.87475  0  74.39 235.30   83.98  74.19 235.38   83.82
  -2  -7   5 23079.5   528.2   2 0.10199-0.35712-0.81967 0.12283-0.56368 0.92595  0 218.59  15.96  145.22 218.46  16.05  145.23
  -2   7  -5 20410.7   506.4   2-0.21790-0.03710 0.74068-0.04438 0.63555-0.99833  0 225.72  12.24  331.90 225.40  12.61  331.83
  -2   7   5 25125.3   551.9   2-0.21475-0.04035-0.09576 0.79204 0.97196-0.60914  0 188.32  35.19   25.61 188.22  35.35   25.65
   2  -7  -5 13684.8   272.4   1-0.70019 0.95548-0.46265-0.23328-0.54377 0.18068  0 195.06 485.95   81.00 195.33 485.70   80.98
   2  -7  -5 24592.9   538.6   2 0.10980 0.14531 0.06696-0.76361-0.99170 0.62912  0 124.02 100.14  204.24 123.62 100.23  204.28
   2  -7   5 17759.1   450.8   1-0.59702 0.85244-0.78771 0.09166-0.15190 0.51473  0  87.57 344.32  110.98  87.41 344.32  111.08
   2  -7   5 23236.2   502.5   2 0.10877 0.14637-0.77410 0.07765-0.62365 0.98618  0 103.36 133.88  149.57 102.96 133.82  149.61
   2   7  -5 20692.1   492.1   2-0.20399 0.45899 0.83246-0.13616 0.51516-0.87794  0 106.69 127.70  323.17 106.35 127.95  323.06
   2   7   5 23611.4   484.9   2-0.22637 0.48147 0.06594 0.63034 0.97181-0.60898  0  89.28 165.37   16.27  89.01 165.34   16.36
  -2  -7  -6 760.306 170.796   1-0.52577 0.27051 0.18225-0.87794-0.83087 0.39502  0  81.47 370.99   38.44  81.52 370.80   38.39
  -2  -7   6 715.812 174.701   1-0.69165 0.43636-0.56171-0.13422-0.45399 0.88970  0  61.06 222.59   88.55  60.83 222.45   88.65
  -2   7   6  1464.2   241.7   2-0.20986-0.04523-0.15004 0.84631 0.96615-0.53076  0 175.50  23.15   28.62 175.14  23.13   28.79
   2  -7  -6  1261.6   221.5   2 0.10487 0.15024 0.12378-0.82043-0.98675 0.55166  0 114.73  85.08  207.57 114.79  85.29  207.57
   2  -7   6 999.341 181.912   1-0.57643 0.83185-0.81001 0.11395-0.10779 0.54318  0  68.65 334.52  114.30  68.80 334.35  114.15
   2  -7   6  1238.7   196.2   2 0.09954 0.15559-0.83341 0.13657-0.54361 0.97834  0  89.28 126.95  143.61  89.21 127.05  143.84
   2   7  -6  1235.6   214.7   2-0.19423 0.44922 0.87693-0.18063 0.43963-0.87497  0  96.80 113.75  318.07  96.60 113.64  317.99
   2   7   6  1504.2   192.3   2-0.22236 0.47745 0.00281 0.69347 0.97496-0.53957  0  75.15 159.76   19.73  74.99 159.78   19.97
  -2  -7  -7  81.830 146.949   1-0.50802 0.25276 0.21545-0.91114-0.83396 0.32547  0  68.73 388.93   36.47  69.01 388.79   36.23
  -2  -7   7 -17.269 155.133   1-0.67992 0.42464-0.61862-0.07731-0.39372 0.90206  0  44.84 208.13   93.49  44.73 208.33   93.45
  -2   7   7  34.672 224.596   2-0.20538-0.04971-0.19479 0.89106 0.95910-0.45115  2 160.10   8.80   31.58 159.65   7.74   31.40
   2  -7  -7 114.305 210.064   2 0.10047 0.15464 0.17099-0.86764-0.98014 0.47253  0 103.51  67.36  210.44 103.49  67.42  210.32
   2  -7   7 104.603 163.969   1-0.55443 0.80985-0.82983 0.13377-0.06323 0.57118  0  47.19 324.49  117.55  47.72 324.31  117.22
   2  -7   7 -89.137 162.916   2 0.08900 0.16613-0.88280 0.18596-0.46124 0.96841  0  71.83 118.30  138.40  72.51 118.33  138.32
   2   7  -7 -27.017 189.837   2-0.18398 0.43898 0.91302-0.21672 0.36408-0.87197  0  83.84  96.76  312.94  84.25  96.81  313.13
   2   7   7  51.360 150.470   2-0.21842 0.47351-0.05078 0.74705 0.97453-0.46658  0  57.47 152.68   22.89  58.04 152.63   23.06
  -2  -7  -8  2174.6   246.9   1-0.49326 0.23800 0.24163-0.93733-0.83565 0.25452  0  53.27 409.78   34.59  53.44 409.57   34.50
  -2  -7   8  2290.6   253.6   1-0.66380 0.40851-0.67046-0.02547-0.33145 0.91240  0  25.41 192.45   98.24  25.28 192.53   98.18
   2  -7  -8  3473.6   397.8   2 0.09659 0.15852 0.20913-0.90578-0.97311 0.39298  0  89.43  45.84  212.59  89.21  46.04  212.55
   2  -7   8  2177.2   257.7   1-0.53083 0.78625-0.84727 0.15122-0.01860 0.59912  0  23.65 313.97  120.20  23.53 313.97  120.27
   2  -7   8  3195.6   350.1   2 0.07777 0.17736-0.92240 0.22556-0.37832 0.95795  0  52.23 107.28  133.31  52.31 107.51  133.04
   2   7  -8  2493.5   289.3   2-0.17325 0.42825 0.94142-0.24512 0.28933-0.86978  0  68.99  76.73  308.55  68.77  76.86  308.47
   2   7   8  2960.3   310.2   2-0.21482 0.46992-0.09485 0.79113 0.97204-0.39152  0  38.09 143.71   25.58  37.42 143.74   25.60
  -2  -8   0  6337.0   309.6   1-0.67543 0.42014-0.22185-0.57350-0.70327 0.70327  0  73.69 308.00   64.29  73.64 307.87   64.33
  -2   8   0  7795.5   383.0   2-0.23686-0.01812 0.36265 0.43277 0.90132-0.90132  0 201.41  20.16  358.60 201.51  20.35  358.60
   2  -8   0  5106.6   261.1   1-0.66968 0.92496-0.65359-0.14176-0.35263 0.35263  0 125.20 425.41   96.60 125.19 425.20   96.59
   2  -8   0  8621.2   371.3   2 0.12944 0.12571-0.39737-0.39857-0.90848 0.90848  0 110.97 111.38  177.00 110.80 111.34  177.01
   2   8   0  7469.9   339.0   2-0.23417 0.48917 0.51378 0.28199 0.82534-0.82534  0  92.96 145.06  348.74  92.74 145.18  348.94
  -2  -8  -1 163.780 141.499   1-0.66136 0.40607-0.16283-0.63252-0.73218 0.65956  0  74.93 319.96   60.56  74.82 320.13   60.48
  -2  -8   1 159.577 128.552   1-0.68684 0.43156-0.28264-0.51271-0.66960 0.74222  0  70.30 296.06   68.48  70.39 295.96   68.36
  -2   8  -1 252.731 185.493   2-0.23619-0.01880 0.44499 0.35043 0.86383-0.93640  0 204.37  16.80  353.18 204.41  16.63  353.41
  -2   8   1 149.195 186.531   2-0.23490-0.02019 0.28194 0.51381 0.93023-0.85767  0 197.03  21.94    3.54 196.74  21.27    3.70
   2  -8  -1 126.579 133.474   1-0.67842 0.93371-0.62436-0.17099-0.38719 0.31458  0 135.23 440.37   93.60 135.34 440.23   93.95
   2  -8  -1  49.611 158.734   2 0.12845 0.12669-0.31534-0.48060-0.94025 0.86774  0 111.72 107.09  182.57 111.88 106.99  182.06
   2  -8   1   4.498 132.901   1-0.65918 0.91446-0.68239-0.11296-0.31596 0.38858  0 113.95 411.30   99.11 113.89 411.60   99.33
   2  -8   1 121.964 165.057   2 0.12840 0.12674-0.48006-0.31588-0.86779 0.94029  0 108.03 113.90  171.54 107.64 113.74  171.69
   2   8  -1 212.242 152.884   2-0.23085 0.48585 0.58679 0.20898 0.77613-0.84869  0  93.82 140.66  343.46  93.40 140.49  343.88
   2   8   1 191.652 136.007   2-0.23629 0.49128 0.43853 0.35690 0.86710-0.79453  0  90.11 148.10  354.01  90.00 148.06  353.82
  -2  -8  -2  3694.3   259.3   1-0.64541 0.39012-0.10663-0.68872-0.75636 0.61112  0  74.03 333.07   57.03  73.94 332.95   56.87
  -2  -8   2  3422.9   261.2   1-0.69512 0.43984-0.34406-0.45129-0.63121 0.77645  0  65.29 284.19   72.48  65.01 284.19   72.53
  -2   8  -2  4671.6   350.1   2-0.23369-0.02131 0.52619 0.26958 0.81763-0.96274  2 205.59   9.74  348.29 205.58  10.02  348.11
  -2   8   2  5046.3   349.9   2-0.23280-0.02230 0.20394 0.59181 0.95090-0.80577  0 190.62  19.35    8.25 190.57  19.54    8.33
   2  -8  -2  2847.7   231.1   1-0.68539 0.94067-0.59532-0.20003-0.41933 0.27409  0 144.28 457.31   91.45 144.49 457.03   91.44
   2  -8  -2  4408.3   321.4   2 0.12650 0.12865-0.23599-0.55995-0.96349 0.81848  0 111.25 100.64  187.02 110.95 100.57  186.80
   2  -8   2  3127.7   262.7   1-0.64684 0.90226-0.71032-0.08517-0.27757 0.42270  0 101.47 399.16  102.31 101.29 399.22  102.15
   2  -8   2  5154.6   323.2   2 0.12616 0.12898-0.56072-0.23522-0.81833 0.96335  0 102.52 114.12  165.98 102.41 114.20  166.23
   2   8  -2  4541.8   306.6   2-0.22621 0.48121 0.65580 0.13997 0.72025-0.86536  0  92.25 133.78  338.72  91.90 133.98  338.75
   2   8   2  4778.4   292.3   2-0.23686 0.49185 0.36334 0.43209 0.90104-0.75590  0  85.08 149.23  358.55  84.98 149.24  358.56
  -2  -8  -3  4087.1   279.2   1-0.62837 0.37309-0.05423-0.74112-0.77602 0.55816  0  70.82 346.75   53.47  70.86 346.62   53.52
  -2  -8   3  3798.2   267.5   1-0.69964 0.44435-0.40513-0.39022-0.58854 0.80640  0  57.65 272.37   76.86  57.43 272.33   76.80
  -2   8   3  4689.1   355.1   2-0.22982-0.02528 0.13104 0.66471 0.96437-0.74668  0 182.66  14.91   12.58 182.62  15.08   12.59
   2  -8  -3  3344.3   225.1   1-0.69073 0.94602-0.56740-0.22795-0.44827 0.23041  0 152.40 476.24   88.92 152.73 476.14   89.12
   2  -8  -3  5654.1   344.6   2 0.12389 0.13126-0.16130-0.63464-0.97910 0.76158  0 108.06  91.90  191.28 107.98  91.97  191.18
   2  -8   3  3948.2   293.7   1-0.63265 0.88807-0.73688-0.05861-0.23827 0.45596  0  87.18 387.66  104.97  87.12 387.63  104.99
   2  -8   3  5837.1   349.1   2 0.12214 0.13300-0.63736-0.15859-0.76083 0.97835  0  95.37 112.84  161.04  94.97 112.75  160.74
   2   8  -3  5200.9   326.4   2-0.22027 0.47527 0.71931 0.07646 0.65884-0.87651  0  88.60 125.36  333.66  88.22 125.52  333.66
   2   8   3  5220.2   321.9   2-0.23498 0.49008 0.29007 0.50567 0.92771-0.71001  0  77.57 148.70    3.00  77.47 148.77    3.21
  -2  -8  -4 641.313 169.693   1-0.61109 0.35580-0.00646-0.78889-0.79154 0.50106  0  65.56 361.36   50.43  65.50 361.45   50.49
  -2  -8   4 389.937 156.451   1-0.70014 0.44486-0.46488-0.33047-0.54193 0.83240  0  46.68 260.29   81.47  47.54 260.16   81.14
  -2   8   4 474.225 222.959   2-0.22629-0.02880 0.06464 0.73111 0.97191-0.68165  2 173.16   8.37   16.42 172.74   7.77   16.43
   2  -8  -4 137.851 131.417   1-0.69449 0.94977-0.54162-0.25373-0.47364 0.18316  2 160.16 497.89   86.86 160.32 498.20   87.04
   2  -8  -4 466.147 194.478   2 0.12034 0.13480-0.09299-0.70295-0.98837 0.69834  0 102.82  80.99  195.41 102.84  81.06  195.14
   2  -8   4 245.176 170.411   1-0.61669 0.87211-0.76192-0.03357-0.19789 0.48815  0  71.09 377.02  107.62  71.23 376.66  107.86
   2  -8   4 555.895 192.793   2 0.11636 0.13878-0.70816-0.08778-0.69640 0.98642  0  84.72 109.22  155.42  85.14 109.36  155.25
   2   8  -4  11.403 175.966   2-0.21318 0.46818 0.77632 0.01945 0.59319-0.88342  0  83.15 115.16  328.40  82.30 114.98  328.64
   2   8   4 560.280 168.712   2-0.23335 0.48844 0.22110 0.57465 0.94692-0.65666  0  67.38 146.58    7.40  67.67 146.56    7.32
  -2  -8  -5  1601.5   214.9   1-0.59405 0.33879 0.03635-0.83143-0.80361 0.44040  0  58.08 377.99   47.76  57.78 377.90   47.75
  -2  -8   5  1775.9   222.5   1-0.69664 0.44135-0.52240-0.27294-0.49172 0.85482  0  35.12 247.54   85.45  35.08 247.42   85.52
   2  -8  -5  3025.2   344.8   2 0.11659 0.13855-0.03192-0.76402-0.99267 0.63014  0  95.56  67.48  198.59  95.39  67.50  198.66
   2  -8   5  1756.6   222.4   1-0.59907 0.85449-0.78524-0.01025-0.15654 0.51936  0  53.29 366.24  110.78  53.20 366.23  110.76
   2  -8   5  2690.8   322.2   2 0.10908 0.14607-0.77179-0.02415-0.62645 0.98898  0  73.00 104.18  149.66  72.66 104.00  149.82
   2   8  -5  2154.1   263.2   2-0.20516 0.46016 0.82630-0.03053 0.52453-0.88731  0  74.25 102.18  323.98  73.94 102.18  323.72
   2   8   5  2555.1   255.3   2-0.23097 0.48606 0.15776 0.63798 0.96009-0.59726  0  55.40 142.69   11.31  55.12 142.67   11.03
  -2  -8  -6 845.671 202.778   1-0.57846 0.32320 0.07310-0.86818-0.81243 0.37658  0  47.03 396.65   45.40  47.23 396.42   45.41
  -2  -8   6 618.329 194.899   1-0.68898 0.43369-0.57708-0.21827-0.43851 0.87422  0  20.23 233.83   89.68  19.74 233.79   89.91
   2  -8  -6 962.011 262.326   2 0.11330 0.14181 0.02130-0.81747-0.99333 0.55824  0  85.04  50.86  201.68  85.10  50.83  201.65
   2  -8   6 544.462 198.147   1-0.57967 0.83509-0.80675 0.01126-0.11460 0.54999  0  32.98 355.82  113.60  32.67 356.06  113.68
   2  -8   6  1027.6   224.9   2 0.10068 0.15445-0.82721 0.03082-0.55280 0.98752  0  57.26  96.55  144.32  57.24  96.66  144.47
   2   8  -6  1259.2   248.3   2-0.19619 0.45119 0.86909-0.07332 0.45408-0.88941  0  62.87  86.68  318.61  62.77  86.72  318.94
   2   8   6 527.693 199.543   2-0.22831 0.48341 0.10126 0.69449 0.96831-0.53292  0  38.97 137.19   14.00  39.45 137.05   14.32
  -2  -9   0 136.656 168.615   1-0.68763 0.43235-0.28761-0.60715-0.66666 0.66666  0  32.45 326.71   68.36  31.99 327.25   68.69
   2  -9   0 -27.810 164.476   1-0.66287 0.91816-0.67292-0.22184-0.32829 0.32829  0  89.24 457.60   98.02  88.94 458.70   98.41
   2  -9   0  96.943 208.814   2 0.12901 0.12614-0.44731-0.44813-0.88503 0.88503  0  77.45  75.85  174.02  76.76  75.44  173.83
   2   9   0 233.605 190.862   2-0.23274 0.48774 0.55023 0.34501 0.80192-0.80192  0  54.90 117.49  346.50  54.44 117.43  346.46
  -2  -9  -1 12781.2   442.3   1-0.67850 0.42321-0.23673-0.65804-0.69541 0.62280  0  33.48 341.09   65.32  33.53 340.93   65.31
  -2  -9   1 12706.2   449.6   1-0.69469 0.43940-0.33999-0.55477-0.63389 0.70651  0  28.03 314.18   72.07  28.06 314.14   72.25
   2  -9  -1 11785.5   385.9   1-0.67112 0.92641-0.64917-0.24560-0.35802 0.28540  0  99.77 475.83   96.08  99.68 475.93   96.18
   2  -9  -1 18161.3   549.5   2 0.12932 0.12583-0.37585-0.51958-0.91761 0.84511  0  78.02  70.59  178.38  77.95  70.59  178.35
   2  -9   1 18305.6   554.3   2 0.12765 0.12750-0.51906-0.37637-0.84515 0.91766  0  73.43  78.15  169.24  73.23  78.06  169.09
   2   9  -1 16344.6   514.4   2-0.22939 0.48439 0.61346 0.28178 0.75567-0.82823  0  55.27 112.06  342.01  55.09 112.31  341.95
   2   9   1 16224.5   499.0   2-0.23522 0.49021 0.48543 0.40942 0.84204-0.76946  0  51.63 120.61  350.78  51.37 120.58  350.77
  -2  -9  -2 961.480 199.232   1-0.66771 0.41242-0.18818-0.70659-0.72025 0.57501  0  32.38 355.62   62.38  32.72 355.44   62.13
  -2  -9   2 565.009 192.205   1-0.69904 0.44375-0.39311-0.50166-0.59734 0.74257  0  21.74 301.32   76.01  21.68 301.30   75.95
   2  -9  -2 763.224 194.218   1-0.67783 0.93312-0.62654-0.26823-0.38470 0.23946  0 109.17 495.33   94.24 109.36 495.59   94.14
   2  -9  -2 910.668 246.090   2 0.12830 0.12685-0.30651-0.58893-0.94318 0.79817  0  76.68  63.30  182.63  76.75  63.43  182.59
   2  -9   2 738.125 205.770   1-0.64129 0.89671-0.72119-0.17373-0.26196 0.40710  0  63.21 429.33  103.03  63.19 429.72  103.29
   2  -9   2 808.326 237.093   2 0.12478 0.13036-0.58950-0.30593-0.79807 0.94308  0  66.96  78.46  164.50  67.32  78.58  164.20
   2   9  -2 825.025 222.682   2-0.22474 0.47974 0.67381 0.22143 0.70390-0.84901  0  52.52 104.85  337.47  53.25 105.20  337.35
   2   9   2  1033.0   225.0   2-0.23654 0.49152 0.42088 0.47397 0.87573-0.73059  0  45.62 121.96  355.02  45.69 121.97  354.95
  -3   0   0   1.409  28.651   1-0.19144-0.19144 0.63055-0.63055-0.75217 0.75217  0 235.46 191.15    5.53 235.56 191.31    5.61
  -3   0   0  41.301  45.287   1-0.19156-0.19156-0.87584 0.87584 0.44296-0.44296  0 371.72 183.27  153.51 371.56 183.22  153.60
  -3   0   0  33.145  14.911   2-0.19132-0.19132-0.31711 0.31711 0.92889-0.92889  0 376.96 188.39   38.72 377.05 188.43   38.66
  -3   0   0  14.325  14.759   2-0.19125-0.19125 0.88835-0.88835 0.41745-0.41745  0 392.87 208.22  317.28 392.98 208.41  316.54
  -3   0  -1  4540.0   145.2   1-0.26669-0.11644-0.89388 0.89388 0.36036-0.43292  0 384.85 193.13  147.01 385.13 193.30  147.13
  -3   0   1  3033.9    93.6   1-0.35390-0.02899 0.44995-0.44995-0.81994 0.89259  0 244.75 180.67   19.99 244.63 180.76   20.09
  -3   0   1  4663.9   121.2   1-0.09692-0.28620-0.83842 0.83842 0.53634-0.46384  0 360.43 172.71  161.63 360.42 172.86  161.52
  -3   0   1  4793.4    89.4   2-0.09132-0.29138-0.82047 0.82047 0.56434-0.49185  0 360.44 173.10   75.13 360.51 173.19   75.38
  -3   0   1  4105.4    83.6   2-0.15996-0.22254 0.96640-0.96640 0.20123-0.12867  0 404.36 228.19  303.26 404.58 228.30  303.14
   3   0  -1  4393.4    72.5   2 0.09786 0.28483-0.84233 0.84233-0.53001 0.45755  0 238.98 330.71  142.87 238.79 330.55  142.90
   3   0  -1  4994.1    77.3   2 0.04332 0.33934 0.57460-0.57460-0.81728 0.74477  0 211.93 289.74  235.77 211.83 289.64  235.68
  -3   0  -2 -32.756  59.000   1-0.32757-0.05556-0.90035 0.90035 0.28647-0.43160  0 400.74 202.89  141.50 400.76 203.18  141.63
  -3   0  -2   0.576  16.626   2 0.12930-0.51202-0.37293 0.37293-0.91880 0.77379  0 401.77 205.77  179.05 401.90 205.89  178.53
  -3   0  -2   7.902  17.473   2-0.03607-0.34648 0.87545-0.87545-0.48197 0.33696  0 382.14 181.23  262.35 382.02 181.43  262.15
  -3   0   2  29.916  27.455   1-0.53358 0.15070 0.16722-0.16722-0.82905 0.97434  0 251.23 169.44   39.53 251.21 169.67   39.36
  -3   0   2  -2.031  39.651   1 0.02213-0.40525-0.77048 0.77048 0.63708-0.49207  0 352.35 161.69  171.54 352.44 161.86  171.27
  -3   0   2  -7.150  38.297   2-0.05989-0.32281-0.90577 0.90577 0.41951-0.27453  0 345.60 159.63   85.37 345.92 159.51   85.15
  -3   0   2  -4.917  37.320   2-0.15495-0.22755 0.97349-0.97349 0.16823-0.02312  0 415.45 246.54  301.42 415.55 246.65  301.17
   3   0  -2   7.507  28.194   2 0.07717 0.30553-0.92421 0.92421-0.37400 0.22909  0 252.14 346.85  132.72 252.13 347.02  132.77
   3   0  -2   5.864  26.329   2-0.00966 0.39221 0.79797-0.79797-0.60262 0.45762  0 202.66 272.02  253.48 202.56 271.98  253.78
   3   0   2  -0.729  45.351   1-0.01189 0.39501-0.79229 0.79229 0.61003-0.46502  0 213.34 305.40  168.42 213.32 305.08  168.49
  -3   0  -3 81798.7   590.8   1-0.37834-0.00479-0.89918 0.89918 0.21986-0.43756  0 418.27 212.99  136.98 418.46 213.14  136.82
  -3   0  -3 77449.5   330.3   2 0.11060-0.49332-0.76033 0.76033-0.64005 0.42254  0 420.62 220.63  150.83 420.94 220.80  150.83
  -3   0  -3 81997.2   339.2   2-0.06797-0.31459 0.94305-0.94305-0.32563 0.10813  0 372.49 161.13  271.98 372.47 161.30  272.07
  -3   0   3 88657.5   502.8   2-0.04799-0.33471-0.93132 0.93132 0.36102-0.14355  0 331.86 145.58   89.00 331.94 145.74   88.89
  -3   0   3 71064.0   449.9   2-0.15549-0.22701 0.97281-0.97281 0.17167 0.04599  0 427.06 265.17  301.54 427.23 265.24  301.38
   3   0  -3 49302.5   304.4   1-0.16677 0.54966 0.65349-0.65349-0.73834 0.52041  0 349.24 366.11    3.52 349.28 365.93    3.52
   3   0  -3 77350.1   459.2   2 0.06988 0.31282-0.94397 0.94397-0.32254 0.10518  0 264.47 363.08  129.55 264.53 362.91  129.58
   3   0  -3 81795.7   472.0   2-0.03196 0.41452 0.86463-0.86463-0.50139 0.28389  0 193.81 256.17  260.88 193.76 256.04  260.85
   3   0   3 83076.2   598.3   1-0.06664 0.44976-0.82340 0.82340 0.56353-0.34601  0 200.68 295.59  164.01 200.54 295.56  164.00
   3   0   3 84597.6   355.4   2-0.10754 0.49024-0.76521 0.76521 0.63473-0.41726  0 201.22 298.24   70.32 201.15 298.26   70.17
   3   0   3 67910.0   322.9   2-0.23605 0.61853 0.45337-0.45337 0.85950-0.64178  0 227.02 338.02  353.04 227.00 337.89  352.87
  -3   0  -4  -6.239  81.996   1-0.42171 0.03858-0.89274 0.89274 0.15865-0.44891  0 438.56 223.38  132.52 438.36 223.46  132.50
  -3   0  -4 -25.190  41.730   2 0.09739-0.48009-0.84478 0.84478-0.52618 0.23637  0 441.07 234.89  142.53 440.59 234.60  142.64
  -3   0  -4 -14.976  41.044   2-0.07273-0.30983 0.95073-0.95073-0.30138 0.01138  0 364.34 141.67  273.74 364.39 141.82  273.55
  -3   0   4  10.590  28.752   1-0.69943 0.31650-0.48559 0.48559-0.52440 0.81488  0 253.42 145.46   83.07 253.36 145.69   82.70
  -3   0   4 -18.195  62.041   2-0.04376-0.33895-0.93949 0.93949 0.33978-0.04982  0 317.92 131.36   90.11 318.13 131.44   90.22
  -3   0   4  21.123  60.495   2-0.15814-0.22435 0.96921-0.96921 0.18874 0.10148  0 439.69 284.86  302.07 440.04 284.59  302.39
   3   0  -4  -1.262  42.452   1-0.31002 0.69291 0.50412-0.50412-0.80607 0.51551  0 350.17 379.69   15.96 350.50 379.50   16.02
   3   0  -4  23.087  58.213   2 0.06777 0.31493-0.94894 0.94894-0.30809 0.01828  0 276.65 379.79  129.34 276.85 379.59  128.70
   3   0  -4  41.408  44.597   2-0.04230 0.42486 0.89044-0.89044-0.45313 0.16312  0 184.59 240.34  264.55 184.59 240.48  264.03
   3   0   4 -84.947  50.986   1-0.10148 0.48461-0.84056 0.84056 0.53212-0.24210  0 186.94 286.34  161.59 186.91 286.12  161.14
   3   0   4   0.811  27.393   2-0.07666 0.45936-0.86337 0.86337 0.49872-0.20876  0 186.02 284.43   80.10 186.07 284.37   79.94
   3   0   4  16.660  28.901   2-0.22359 0.60609 0.68656-0.68656 0.69184-0.40162  0 234.65 358.91  335.89 234.46 358.88  336.33
  -3   0  -5 14580.2   312.9   1-0.45952 0.07639-0.88234 0.88234 0.10154-0.46436  0 460.75 234.29  128.59 460.85 234.36  128.53
  -3   0  -5 15232.0   228.3   2 0.09157-0.47427-0.87247 0.87247-0.48001 0.11774  0 461.73 248.85  139.50 462.06 248.88  139.54
  -3   0  -5 15712.8   231.4   2-0.07145-0.31110 0.94879-0.94879-0.30771-0.05480  0 356.84 121.28  273.03 356.83 121.55  273.17
  -3   0   5 12867.2   171.4   1-0.65761 0.27448-0.68630 0.68630-0.31071 0.67353  0 248.64 132.34   99.86 248.36 132.53   99.72
  -3   0   5 16707.2   294.1   2-0.04331-0.33939-0.94032 0.94032 0.33754 0.02491  0 304.14 116.17   90.32 304.25 116.37   90.36
  -3   0   5 13981.4   274.4   2-0.16170-0.22080 0.96368-0.96368 0.21255 0.15023  0 454.23 305.12  304.09 454.33 305.15  303.82
   3   0  -5 10203.6   163.9   1-0.42798 0.81087 0.34684-0.34684-0.83459 0.47138  0 356.65 395.18   27.26 356.67 395.04   27.41
   3   0  -5 16083.1   284.7   2 0.06823 0.31447-0.94789 0.94789-0.31120-0.05107  0 289.47 397.90  128.99 289.48 397.67  128.89
   3   0  -5 15759.2   271.4   2-0.04660 0.42916 0.90053-0.90053-0.43229 0.06978  0 174.80 224.93  265.26 174.77 224.82  265.38
   3   0   5 15382.2   306.5   1-0.12204 0.50516-0.84986 0.84986 0.51268-0.15015  0 172.40 276.62  159.39 172.32 276.62  159.44
   3   0   5 17333.9   223.6   2-0.06709 0.44980-0.88841 0.88841 0.45411-0.09167  0 171.46 272.50   82.98 171.37 272.48   82.91
   3   0   5 14626.6   206.5   2-0.21512 0.59762 0.76277-0.76277 0.60985-0.24707  0 240.36 379.58  329.99 240.33 379.38  329.88
  -3   0  -6  54.365 117.752   1-0.49288 0.10975-0.86880 0.86880 0.04745-0.48284  0 486.27 246.12  124.58 486.58 246.20  124.80
  -3   0  -6  57.833  74.337   2 0.08944-0.47213-0.88102 0.88102-0.46454 0.02982  0 486.33 263.93  138.47 486.32 263.97  138.53
  -3   0  -6  23.574  76.625   2-0.06789-0.31466 0.94292-0.94292-0.32601-0.10900  0 349.32 100.06  271.87 349.59  99.88  272.05
  -3   0   6  26.318  43.460   1-0.58719 0.20406-0.79887 0.79887-0.13044 0.56583  0 240.54 118.10  112.96 240.27 118.21  112.58
  -3   0   6  16.924  94.353   2-0.04504-0.33767-0.93707 0.93707 0.34621 0.08872  0 290.15 100.11   89.47 290.07 100.21   89.82
  -3   0   6 -92.433 101.484   2-0.16589-0.21661 0.95651-0.95651 0.23995 0.19539  0 470.51 327.44  305.40 470.53 327.43  305.47
   3   0  -6  54.786  61.690   1-0.50955 0.89244 0.21267-0.21267-0.83374 0.39789  0 366.53 413.08   36.09 366.76 412.97   36.41
   3   0  -6  11.241  63.873   2-0.04754 0.43010 0.90275-0.90275-0.42753-0.00749  0 163.98 208.94  265.86 164.04 208.78  265.70
   3   0   6 -22.960  76.307   1-0.13235 0.51547-0.85423 0.85423 0.50277-0.06774  0 156.61 266.70  158.42 156.69 266.90  158.58
   3   0   6  13.291  47.666   2-0.06472 0.44743-0.89428 0.89428 0.44279-0.00786  0 155.95 261.11   83.60 155.99 261.23   83.65
   3   0   6  11.679  54.194   2-0.21066 0.59316 0.79361-0.79361 0.57080-0.13546  0 245.64 400.94  327.04 245.55 401.11  327.00
  -3   0  -7 18266.8   323.6   2-0.06317-0.31938 0.93450-0.93450-0.35032-0.15719  0 342.51  75.94  270.47 342.55  76.24  270.55
  -3   0   7 18476.2   240.7   1-0.51494 0.13181-0.85717 0.85717 0.01007 0.49788  0 230.06 102.01  122.18 229.88 102.31  122.23
  -3   0   7 20929.4   401.4   2-0.04813-0.33457-0.93104 0.93104 0.36173 0.14570  0 275.20  82.37   89.03 275.33  82.65   88.85
  -3   0   7 16801.3   373.9   2-0.17035-0.21215 0.94776-0.94776 0.26968 0.23821  0 489.06 352.08  307.35 489.23 352.10  307.27
   3   0  -7 11579.8   214.2   1-0.56051 0.94340 0.11255-0.11255-0.82046 0.31197  0 379.93 434.10   42.93 380.02 434.00   42.88
   3   0  -7 19677.6   390.0   2 0.07283 0.30987-0.93650 0.93650-0.34302-0.16416  0 316.95 440.66  131.15 316.88 440.36  130.85
   3   0  -7 20066.9   367.0   2-0.04646 0.42902 0.90021-0.90021-0.43296-0.07455  0 152.14 192.07  265.16 152.17 192.01  265.34
   3   0   7 19121.8   385.4   1-0.13494 0.51806-0.85531 0.85531 0.50023 0.00731  0 139.83 256.72  158.35 139.80 256.78  158.36
   3   0   7 20680.0   311.2   2-0.06573 0.44843-0.89181 0.89181 0.44761 0.05982  0 139.51 250.21   83.12 139.44 250.21   83.34
   3   0   7 17197.6   289.9   2-0.20885 0.59135 0.80502-0.80502 0.55526-0.04737  0 250.26 425.10  326.41 250.24 424.83  325.89
  -3   0  -8 -35.260 126.206   2-0.05764-0.32491 0.92395-0.92395-0.37815-0.20187  0 335.39  50.43  269.06 335.63  49.96  268.82
  -3   0   8  13.035  63.337   1-0.44617 0.06304-0.88656 0.88656 0.12223 0.45829  0 217.83  84.34  130.07 217.85  84.23  129.96
  -3   0   8-134.470 148.949   2-0.05219-0.33051-0.92277 0.92277 0.38179 0.19812  0 259.67  63.13   87.67 259.70  63.23   87.57
   3   0  -8   0.189  98.957   1-0.59052 0.97341 0.04482-0.04482-0.80578 0.22464  0 395.61 459.21   46.94 396.01 458.98   47.21
   3   0  -8 -38.342 153.295   2 0.07609 0.30661-0.92753 0.92753-0.36591-0.21372  0 332.58 466.20  132.03 332.39 466.44  132.27
   3   0  -8 -27.469  96.251   2-0.04395 0.42651 0.89437-0.89437-0.44516-0.13486  0 139.70 174.20  264.62 138.83 174.20  264.55
   3   0   8 -27.359 102.905   1-0.13162 0.51474-0.85392 0.85392 0.50348 0.07656  0 121.86 245.80  158.46 121.35 246.02  158.64
   3   0   8  -6.786  70.330   2-0.06869 0.45140-0.88444 0.88444 0.46157 0.11834  0 121.44 239.05   82.60 121.30 239.20   82.42
   3   0   8 -17.094  89.829   2-0.20867 0.59117 0.80611-0.80611 0.55376 0.02669  0 254.27 451.64  325.60 254.48 451.36  325.78
  -3   0  -9 490.414 174.235   2-0.05152-0.33104 0.91144-0.91144-0.40820-0.24432  0 328.69  19.96  266.97 328.72  20.11  266.92
  -3   0   9 681.780 100.307   1-0.38202-0.00111-0.89884 0.89884 0.21482 0.43827  0 204.63  63.23  136.42 204.49  63.23  136.46
  -3   0   9 886.620 172.044   2-0.05692-0.32578-0.91252 0.91252 0.40506 0.24735  0 242.88  41.54   86.35 242.83  41.41   86.08
   3   0  -9 213.564 130.241   1-0.60706 0.98999 0.00401-0.00401-0.79464 0.14107  0 414.36 489.01   49.90 414.47 489.11   49.82
   3   0  -9 621.947 213.055   2 0.07964 0.30306-0.91668 0.91668-0.39160-0.26048  0 349.62 497.18  133.62 349.79 497.18  133.87
   3   0  -9 512.305 136.638   2-0.04026 0.42282 0.88596-0.88596-0.46201-0.19051  0 123.95 155.02  263.37 123.62 154.92  263.46
   3   0   9 623.031 143.859   1-0.12352 0.50664-0.85050 0.85050 0.51127 0.14129  0 101.04 234.48  159.29 100.94 234.35  159.31
   3   0   9 740.759 112.359   2-0.07285 0.45555-0.87359 0.87359 0.48118 0.17122  0 101.19 227.97   81.34 101.06 228.01   81.11
   3   0   9 477.029 150.764   2-0.20956 0.59206 0.80066-0.80066 0.56128 0.09173  0 258.38 481.42  326.35 258.24 481.68  326.31
  -3   0  10  11.358  99.725   1-0.32137-0.06176-0.90006 0.90006 0.29429 0.43136  0 189.64  38.56  142.00 189.80  38.31  142.20
  -3   0  10 -46.959 173.419   2-0.06220-0.32051-0.90038 0.90038 0.43063 0.29426  0 224.33  16.23   84.51 224.20  16.41   84.44
   3   0 -10   3.942 144.030   2-0.03598 0.41854 0.87520-0.87520-0.48242-0.24260  0 106.03 133.84  262.02 106.02 133.63  262.12
   3   0  10  12.822 131.615   1-0.11150 0.49462-0.84521 0.84521 0.52267 0.20239  0  77.57 221.31  160.56  78.01 221.39  160.31
   3   0  10 -41.995  94.727   2-0.07793 0.46063-0.85982 0.85982 0.50461 0.22028  0  77.88 216.41   79.49  78.09 216.47   79.54
   3   0 -11 20142.2   521.1   2-0.03110 0.41366 0.86231-0.86231-0.50543-0.29209  0  85.40 109.53  260.54  85.20 109.57  260.58
   3   0  11 19899.6   510.1   1-0.09620 0.47932-0.83807 0.83807 0.53701 0.26056  0  52.02 206.50  161.59  51.81 206.65  161.58
   3   0  11 20618.8   445.9   2-0.08381 0.46651-0.84337 0.84337 0.53075 0.26663  0  51.72 204.24   77.67  51.42 204.36   77.74
  -3  -1   0  33.741  35.388   1-0.32919-0.05369 0.48100-0.58038-0.81257 0.81257  0 222.68 202.35   17.51 222.57 202.27   17.78
  -3  -1   0   7.221  54.767   1-0.00066-0.38246-0.78532 0.68589 0.61909-0.61909  0 388.32 193.79  169.65 388.28 193.81  169.40
  -3  -1   0  18.401  19.985   2-0.22773-0.15491 0.09034-0.18981 0.96952-0.96952  0 401.26 213.71   15.43 401.06 214.03   14.95
  -3  -1   0  22.459  20.607   2 0.05065-0.43335-0.98010 0.88055-0.19193 0.19193  0 373.49 179.99  122.35 373.71 180.04  121.72
  -3   1   0   6.054  44.483   1-0.43534 0.05221-0.88956 0.98900 0.13842-0.13842  0 362.02 171.72  131.46 361.92 171.70  131.09
  -3   1   0  -0.822  26.716   2-0.21819-0.16445-0.05364 0.15311 0.97443-0.97443  0 361.35 171.77   23.67 361.42 171.58   23.23
  -3   1   0  24.368  27.739   2-0.00272-0.37983 0.77443-0.67489-0.63265 0.63265  0 406.45 227.99  251.56 406.50 227.96  251.57
   3  -1   0  18.254  33.682   1 0.00092 0.38220-0.78432 0.68489 0.62036-0.62036  0 243.62 336.12  169.53 243.61 336.42  169.53
   3  -1   0  12.375  18.461   2-0.04117 0.42387-0.94406 0.84455 0.32720-0.32720  0 238.11 331.88   91.36 238.06 332.06   91.00
   3  -1   0  -8.554  17.259   2 0.12804 0.25468-0.29333 0.19384-0.94740 0.94740  0 210.24 289.91  183.22 210.33 289.90  183.38
  -3  -1  -1  1998.5    99.7   1-0.22151-0.16138 0.60094-0.70032-0.76799 0.69535  0 214.85 212.03    8.03 214.76 212.12    8.19
  -3  -1  -1  3096.5   134.4   1-0.09563-0.28749-0.83780 0.73838 0.53753-0.61004  0 398.44 204.20  161.69 398.63 204.28  161.62
  -3  -1  -1  3576.8    43.5   2-0.06882-0.31389-0.88413 0.78462 0.46215-0.53464  0 397.01 202.94   82.62 397.37 203.13   82.38
  -3  -1  -1  2395.5    37.3   2 0.10837-0.49107-0.77743 0.67788-0.61957 0.54711  0 383.24 185.86  149.30 383.51 185.90  149.25
  -3  -1   1  2315.4    98.5   1-0.45086 0.06797 0.31188-0.41127-0.83634 0.90898  0 228.24 192.01   29.99 228.16 192.08   29.80
  -3  -1   1  3195.4    82.3   2 0.03279-0.41549-0.99623 0.89668-0.08028 0.15273  0 359.93 168.24  115.06 359.98 168.33  115.17
  -3  -1   1  2652.5    77.0   2-0.22911-0.15339 0.61796-0.71743 0.75209-0.67953  0 409.59 230.49  341.77 409.84 230.53  341.62
  -3   1  -1  2852.8   114.9   1-0.45956 0.07643-0.88233 0.98177 0.10148-0.17404  0 378.88 181.13  128.53 378.82 181.30  128.52
  -3   1  -1  3427.3    73.2   2 0.06941-0.45207 0.41913-0.31961-0.90527 0.83275  0 406.56 221.81  225.46 406.83 221.91  225.32
  -3   1  -1  2790.6    69.1   2-0.23419-0.14831 0.51331-0.41384 0.82563-0.89819  0 367.47 172.89  349.03 367.46 172.98  348.98
  -3   1   1  2212.8    79.5   1-0.18964-0.19325 0.63226-0.53288-0.75119 0.82383  0 256.67 168.56    5.29 256.85 168.63    5.45
  -3   1   1  2983.5    90.3   1-0.41051 0.02738-0.89495 0.99439 0.17478-0.10222  0 345.90 161.62  133.67 345.92 161.85  133.63
  -3   1   1  3247.0    93.6   2-0.16920-0.21344-0.47050 0.56997 0.86603-0.79346  0 351.00 163.84   48.05 351.10 163.96   48.24
  -3   1   1  3123.9    91.4   2-0.05144-0.33112 0.91125-0.81172-0.40862 0.48112  0 411.80 240.14  266.99 411.97 240.26  266.89
   3  -1  -1  3304.7    82.1   2-0.01182 0.39452-0.98451 0.88496 0.17492-0.24738  0 247.89 341.99  100.13 247.73 341.92  100.22
   3  -1  -1  3367.9    81.9   2 0.09238 0.29028 0.24634-0.34587-0.96477 0.89225  0 205.44 277.90  214.94 205.37 277.84  214.75
   3  -1   1  3018.3   108.0   1-0.10720 0.49032-0.84320 0.74377 0.52681-0.45430  0 230.11 326.08  160.69 229.97 325.98  160.67
   3  -1   1  3160.3    55.8   2-0.10797 0.49067-0.76365 0.66414 0.63654-0.56405  0 232.17 328.70   69.79 231.98 328.54   70.03
   3  -1   1  3115.2    55.2   2 0.10067 0.28203-0.82715 0.72760-0.55289 0.62534  0 211.20 296.80  144.36 211.06 296.66  144.48
   3   1  -1  3015.9    68.2   2 0.12906 0.25366-0.35809 0.45758-0.92472 0.85222  0 239.52 335.49  179.39 239.28 335.28  179.45
   3   1  -1  2892.7    66.6   2-0.08537 0.46793 0.96824-0.86870-0.23501 0.16250  0 207.95 287.76  277.44 207.81 287.55  277.57
  -3  -1  -2 15781.5   266.8   1-0.17860-0.20453-0.87151 0.77209 0.45669-0.60170  0 411.46 214.60  154.98 411.69 214.66  154.71
  -3  -1  -2 16475.5   121.4   2 0.01217-0.39486-0.99904 0.89949 0.04220-0.18711  0 408.60 209.88  108.10 408.90 209.97  108.04
  -3  -1  -2 17094.9   124.2   2 0.10284-0.48550 0.14710-0.24662-0.98376 0.83873  0 379.69 173.99  208.71 379.62 174.07  208.93
  -3  -1   2 11173.2   185.6   1-0.56747 0.18458 0.09760-0.19698-0.81759 0.96288  0 231.26 181.44   43.98 231.18 181.47   43.84
  -3  -1   2 14237.5   184.5   2 0.02210-0.40480-0.99962 0.90007-0.01636 0.16127  0 346.12 155.49  111.40 346.21 155.62  111.45
  -3  -1   2 13592.7   181.6   2-0.21243-0.17007 0.78155-0.88102 0.58656-0.44145  0 419.81 247.87  328.10 420.04 247.89  328.15
  -3   1  -2 14588.3   243.9   1-0.48288 0.09975-0.87334 0.97278 0.06404-0.20917  0 396.68 190.62  126.03 396.93 190.78  125.94
  -3   1  -2 15206.9   151.6   2 0.12005-0.50277-0.08795 0.18745-0.98886 0.84385  0 414.61 224.39  195.57 414.94 224.60  195.43
  -3   1  -2 13727.2   145.4   2-0.20202-0.18048 0.84256-0.74309 0.49929-0.64440  0 367.13 165.32  321.94 367.06 165.39  321.98
  -3   1   2 11601.9   123.8   1-0.48110 0.09821 0.26265-0.16327-0.83640 0.98168  0 270.18 156.51   33.01 270.34 156.62   33.11
  -3   1   2 15427.8   140.7   1-0.38569 0.00256-0.89847 0.99791 0.20976-0.06463  0 330.54 151.25  136.03 330.61 151.51  136.10
  -3   1   2 16294.9   207.9   2-0.13063-0.25208-0.67249 0.77199 0.72849-0.58351  0 338.92 153.29   62.32 339.01 153.45   62.48
  -3   1   2 16036.7   205.1   2-0.08042-0.30214 0.96193-0.86239-0.26119 0.40619  0 420.20 255.42  276.42 420.39 255.51  275.99
   3  -1  -2 14872.6   192.0   2 0.00461 0.37809-0.99640 0.89685 0.08468-0.22959  0 258.30 354.42  105.72 258.45 354.32  105.55
   3  -1  -2 16923.8   201.4   2 0.05076 0.33190 0.53399-0.63351-0.84397 0.69894  0 198.84 264.28  232.99 198.74 264.20  232.86
   3  -1   2 14534.3   235.1   1-0.16976 0.55288-0.86848 0.76906 0.46575-0.32074  0 216.26 316.08  155.39 216.08 316.05  155.46
   3  -1   2 15894.9   132.6   2-0.19649 0.57914-0.27378 0.17431 0.94151-0.79638  0 232.56 336.25   36.04 232.42 336.10   36.06
   3  -1   2 15904.4   134.1   2 0.05133 0.33137-0.97921 0.87966-0.19627 0.34118  0 204.78 293.68  121.89 204.64 293.61  121.98
   3   1  -2 10195.3   185.6   1-0.21587 0.59876 0.60659-0.50720-0.76515 0.61987  0 377.52 344.16    7.89 377.45 344.05    7.70
   3   1  -2 15623.9   181.3   2 0.12077 0.26195-0.65728 0.75677-0.74391 0.59890  0 252.03 350.74  159.09 251.80 350.59  159.24
   3   1  -2 14393.0   174.8   2-0.09408 0.47664 0.97757-0.87803-0.18845 0.04345  0 199.48 271.39  280.11 199.38 271.20  280.33
  -3  -1  -3 145.666  81.315   1-0.25047-0.13266-0.89085 0.79141 0.37902-0.59671  0 427.16 225.33  148.56 427.29 225.26  148.56
  -3  -1  -3 148.754  36.440   2 0.03034-0.41304-0.99743 0.89788-0.06498-0.15238  0 425.54 221.79  114.40 425.69 221.87  114.28
  -3  -1  -3 179.005  37.917   2 0.04091-0.42357 0.58698-0.68650-0.80857 0.59102  0 372.60 156.86  236.45 372.52 156.93  236.56
  -3  -1   3 108.253  40.257   1-0.65414 0.27121-0.13656 0.03714-0.74395 0.96180  0 231.20 170.32   58.50 231.25 170.37   58.79
  -3  -1   3 132.406  52.562   2 0.01351-0.39621-0.99931 0.89976 0.03449 0.18288  0 332.50 142.39  108.43 332.57 142.28  108.49
  -3  -1   3 153.390  59.417   2-0.20188-0.18062 0.84322-0.94269 0.49822-0.28055  0 431.35 266.08  321.62 431.43 266.04  321.91
  -3   1  -3 128.401  76.205   1-0.50528 0.12215-0.86255 0.96198 0.02657-0.24427  0 416.56 200.19  122.87 416.50 200.34  123.37
  -3   1  -3 167.926  41.294   2 0.12916-0.51188-0.43149 0.53098-0.89282 0.67531  0 428.55 232.87  175.13 428.73 233.02  174.84
  -3   1  -3 146.291  43.311   2-0.16954-0.21296 0.94946-0.84999 0.26417-0.48184  0 362.63 151.69  307.03 362.70 151.85  306.94
  -3   1   3 110.688  21.266   1-0.70043 0.31750-0.43923 0.53865-0.56256 0.78042  0 283.93 143.40   79.19 284.02 143.53   79.26
  -3   1   3 141.750  23.359   1-0.36396-0.01917-0.90015 0.99958 0.23931-0.02161  0 315.55 140.51  138.17 315.60 140.55  138.21
  -3   1   3 146.685  58.237   2-0.10681-0.27589-0.76788 0.86739 0.63162-0.41415  0 326.25 141.27   70.59 326.31 141.34   70.41
  -3   1   3 130.524  57.440   2-0.09971-0.28285 0.98254-0.88300-0.15707 0.37457  0 430.37 272.52  282.38 430.69 272.48  282.18
   3  -1  -3 117.035  54.949   2 0.01633 0.36637-0.99970 0.90015 0.01823-0.23559  0 269.90 368.46  109.54 269.71 368.40  109.44
   3  -1  -3 166.632  48.015   2 0.02232 0.36034 0.67490-0.77442-0.73757 0.52002  0 191.20 250.19  243.43 191.14 250.04  243.13
   3  -1   3 152.132  59.418   1-0.20532 0.58844-0.88001 0.78058 0.42829-0.21077  0 201.99 306.29  152.42 201.84 306.45  152.43
   3  -1   3 115.331  30.286   2-0.23177 0.61441 0.17765-0.27712 0.95641-0.73872  0 236.24 350.25    9.95 236.27 350.15    9.87
   3  -1   3 117.838  30.290   2 0.02494 0.35775-0.99914 0.89959-0.03314 0.25050  0 193.98 285.38  112.51 194.07 285.37  112.43
   3   1  -3  56.800  58.028   1-0.32192 0.70481 0.48984-0.39045-0.81020 0.59227  0 377.36 356.38   16.91 377.35 356.59   17.11
   3   1  -3 133.609  55.786   2 0.10927 0.27344-0.77029 0.86978-0.62827 0.41075  0 263.91 366.12  149.75 263.85 366.07  149.95
   3   1  -3  86.102  39.289   2-0.09443 0.47699 0.97790-0.87836-0.18652-0.03098  0 190.90 255.64  280.37 190.88 255.71  280.44
   3   1   3 174.448  26.774   2-0.19577 0.57841-0.27990 0.37937 0.93986-0.72216  0 197.65 296.73   36.82 197.52 296.82   36.43
   3   1   3 122.415  25.632   2-0.18639 0.56889 0.90542-0.80595 0.38140-0.16373  0 227.15 342.22  314.35 227.20 342.23  314.22
  -3  -1  -4  9922.3   246.2   1-0.31243-0.07070-0.89948 0.80004 0.30551-0.59577  0 445.37 236.11  143.03 445.54 236.22  143.03
  -3  -1  -4  9505.9   159.5   2 0.04054-0.42324-0.99097 0.89142-0.12782-0.16199  0 444.45 234.84  118.00 444.73 234.86  117.96
  -3  -1  -4  8950.0   157.8   2 0.00752-0.39018 0.73598-0.83550-0.67696 0.38690  0 365.34 138.06  248.00 365.25 138.29  248.16
  -3  -1   4  6355.5   149.7   1-0.69615 0.31322-0.35436 0.25494-0.62435 0.91482  0 228.48 158.46   72.73 228.33 158.58   73.24
  -3  -1   4  9533.8   211.3   2 0.00552-0.38821-0.99681 0.89727 0.07957 0.21025  0 318.81 127.99  106.00 318.94 128.16  105.85
  -3  -1   4  7884.9   195.7   2-0.19613-0.18637 0.86932-0.96879 0.45367-0.16345  0 443.97 285.17  319.18 444.16 285.19  318.92
  -3   1  -4  8673.9   234.7   1-0.52667 0.14354-0.85000 0.94943-0.01103-0.27923  0 437.86 210.08  120.97 437.98 210.19  120.79
  -3   1  -4  8827.5   165.1   2 0.12405-0.50677-0.60560 0.70509-0.78604 0.49602  0 445.77 244.02  163.03 446.07 244.17  163.06
  -3   1  -4  8384.2   164.1   2-0.14669-0.23586 0.98233-0.88279 0.11627-0.40627  0 356.96 135.03  298.02 357.00 135.19  298.14
  -3   1   4  9660.4   216.7   2-0.09296-0.28974-0.81521 0.91471 0.57166-0.28171  0 313.20 127.92   74.84 313.33 128.05   74.86
  -3   1   4  8692.9   206.4   2-0.11421-0.26835 0.99053-0.89099-0.07623 0.36623  0 442.58 290.80  287.00 442.66 290.88  286.90
   3  -1  -4  9406.4   209.3   2 0.02575 0.35695-0.99896 0.89941-0.03755-0.25227  0 281.34 384.23  112.77 281.42 384.07  112.69
   3  -1  -4  9483.5   201.0   2 0.00462 0.37804 0.74706-0.84658-0.66474 0.37468  0 182.73 235.51  248.68 182.67 235.45  249.12
   3  -1   4  8758.2   223.3   1-0.22420 0.60732-0.88510 0.78567 0.40785-0.11782  0 187.16 296.99  150.98 187.07 297.00  150.81
   3  -1   4  9413.0   154.7   2 0.00903 0.37367-0.99816 0.89861 0.05989 0.22992  0 181.89 275.73  107.00 181.79 275.74  107.01
   3  -1   4  7549.4   140.7   2-0.23646 0.61894 0.42801-0.52744 0.87229-0.58200  0 240.91 367.04  354.64 240.81 366.86  354.50
   3   1  -4  6084.8   159.6   1-0.41305 0.79593 0.36887-0.26948-0.83267 0.54210  0 381.20 370.55   26.00 381.18 370.47   25.88
   3   1  -4  9345.0   204.6   2 0.10181 0.28089-0.82074 0.92029-0.56216 0.27234  0 275.95 382.72  144.66 275.98 382.56  145.12
   3   1  -4  8374.2   185.2   2-0.09181 0.47437 0.97533-0.87579-0.20075-0.08925  0 181.94 240.52  279.67 181.86 240.39  279.60
   3   1   4  9592.9   236.8   1 0.02782 0.35530-0.76684 0.86626 0.64123-0.35121  0 182.27 275.51  171.77 182.22 275.50  171.74
   3   1   4  9802.3   145.6   2-0.15214 0.53485-0.56657 0.66607 0.80985-0.51989  0 183.38 284.34   54.84 183.32 284.35   54.72
   3   1   4  8068.6   134.4   2-0.17980 0.56229 0.92525-0.82577 0.33406-0.04383  0 233.70 362.07  311.17 233.61 361.84  311.25
  -3  -1  -5  1054.8   125.9   1-0.36632-0.01681-0.90002 0.80059 0.23615-0.59898  0 466.54 247.84  137.98 466.68 247.85  137.98
  -3  -1  -5  1114.2   105.3   2 0.04845-0.43115-0.98283 0.88328-0.17806-0.18421  0 465.87 248.77  120.77 466.10 248.65  120.90
  -3  -1  -5  1044.5   112.5   2-0.00894-0.37361 0.79557-0.89511-0.60579 0.24328  0 358.05 118.19  253.58 358.09 118.38  253.55
  -3  -1   5 866.904  87.750   1-0.69557 0.31265-0.53251 0.43310-0.48229 0.84539  0 222.72 145.73   86.17 222.64 145.92   86.31
  -3  -1   5 955.312 109.836   2-0.00209-0.38060-0.99253 0.89298 0.12200 0.24027  0 305.20 112.94  103.34 305.17 113.16  103.36
  -3  -1   5 773.750 105.845   2-0.19347-0.18903 0.87992-0.97939 0.43395-0.07117  0 458.49 305.68  317.75 458.48 305.66  317.62
  -3   1  -5 962.146 128.546   1-0.54696 0.16383-0.83574 0.93517-0.04880-0.31402  0 461.90 220.42  118.17 461.90 220.52  118.20
  -3   1  -5  1154.9   113.3   2 0.11777-0.50049-0.69284 0.79233-0.71141 0.34888  0 466.08 256.90  156.38 466.37 257.01  156.47
  -3   1  -5  1078.3   114.9   2-0.12924-0.25332 0.99154-0.89200 0.01187-0.37438  0 350.57 116.36  291.97 350.63 116.47  292.03
  -3   1   5  1102.6    32.5   1-0.26455-0.11858-0.89351 0.99294 0.36284-0.00002  0 289.66 115.03  147.59 289.60 115.40  147.32
  -3   1   5  1002.7   115.5   2-0.08521-0.29749-0.83907 0.93858 0.53730-0.17486  0 299.88 113.47   76.96 299.94 113.64   77.29
  -3   1   5  1012.0   117.0   2-0.12581-0.25674 0.99202-0.89248-0.00838 0.37089  0 456.30 310.64  290.68 456.46 310.89  290.85
   3  -1  -5  20.102  65.522   2 0.03398 0.34872-0.99559 0.89604-0.08748-0.27479  2 293.36 401.55  115.23 293.72 401.56  115.59
   3  -1  -5  1207.7   111.2   2-0.00592 0.38848 0.78558-0.88512-0.61873 0.25622  0 173.35 220.42  252.58 173.28 220.35  252.60
   3  -1   5  1236.5   129.0   1-0.23197 0.61509-0.88703 0.78760 0.39922-0.03669  0 171.60 287.67  150.35 171.59 287.59  150.14
   3  -1   5  1195.7    85.2   2-0.00313 0.38583-0.99181 0.89226 0.12771 0.23456  0 168.32 265.64  102.63 168.28 265.71  103.02
   3  -1   5 884.422  86.583   2-0.23231 0.61481 0.56011-0.65958 0.79518-0.43240  0 245.68 385.72  345.78 245.58 385.66  345.77
   3   1  -5 727.689  89.676   1-0.48370 0.86659 0.25823-0.15884-0.83627 0.47306  0 388.52 386.11   33.37 388.65 386.18   33.41
   3   1  -5 909.792 107.473   2 0.09739 0.28531-0.84476 0.94431-0.52620 0.16393  0 288.44 400.78  142.58 288.46 400.60  142.64
   3   1  -5  1004.0   105.6   2-0.08767 0.47023 0.97094-0.87140-0.22269-0.13982  0 172.09 224.93  278.02 172.09 224.89  278.30
   3   1   5  1143.9   126.6   1-0.00346 0.38658-0.78707 0.88649 0.61685-0.25432  0 168.79 265.84  169.27 168.78 265.87  169.17
   3   1   5  1169.0    82.4   2-0.12843 0.51114-0.68218 0.78168 0.71982-0.35737  0 168.87 272.91   63.12 168.87 272.97   63.24
   3   1   5 873.088  81.427   2-0.17951 0.56201 0.92603-0.82656 0.33202 0.03076  0 238.98 382.02  311.23 239.08 381.92  311.12
  -3  -1  -6 12868.9   340.4   1-0.41354 0.03042-0.89437 0.79493 0.17054-0.60593  0 491.15 260.52  133.35 491.20 260.57  133.33
  -3  -1  -6 13286.9   254.1   2 0.05551-0.43820-0.97319 0.87364-0.22322-0.21150  0 490.18 263.48  123.67 490.40 263.44  123.58
  -3  -1  -6 13711.0   257.8   2-0.01691-0.36564 0.82135-0.92089-0.57017 0.13516  0 351.11  96.51  255.86 351.12  96.81  256.12
  -3  -1   6 10824.2   210.9   1-0.66610 0.28317-0.66413 0.56472-0.33947 0.77518  0 214.79 131.96   97.52 214.61 132.12   97.58
  -3  -1   6 14492.3   314.9   2-0.00954-0.37315-0.98660 0.88705 0.16288 0.27184  0 290.87  96.79  101.07 291.04  97.01  100.94
  -3  -1   6 11538.7   293.4   2-0.19283-0.18967 0.88236-0.98183 0.42926 0.00608  0 474.65 327.95  317.39 474.85 327.93  317.30
  -3   1  -6 11663.7   318.3   1-0.56621 0.18309-0.81970 0.91914-0.08658-0.34881  0 488.87 231.64  115.65 488.95 231.65  115.61
  -3   1  -6 12832.2   254.5   2 0.11327-0.49599-0.73767 0.83716-0.66559 0.23056  0 489.70 271.19  152.81 489.92 271.35  152.79
  -3   1  -6 11880.6   248.6   2-0.11551-0.26705 0.99092-0.89138-0.06879-0.36623  0 344.02  95.49  287.14 344.08  95.75  287.33
  -3   1   6 13942.8   126.4   1-0.24498-0.13815-0.88970 0.98914 0.38524 0.05015  0 274.95 100.52  149.09 275.09 100.92  149.04
  -3   1   6 13856.0   308.4   2-0.08147-0.30123-0.85024 0.94974 0.52005-0.08511  0 285.89  97.72   78.36 286.06  97.95   78.48
  -3   1   6 12381.6   302.3   2-0.13586-0.24670 0.98940-0.88986 0.05124 0.38378  0 472.17 332.86  294.39 472.28 332.86  294.32
   3  -1  -6  9066.4   109.2   1-0.38190 0.76479 0.41257-0.51195-0.82701 0.39116  0 327.31 422.27   22.72 327.40 422.07   22.79
   3  -1  -6 14055.1   309.1   2 0.04152 0.34117-0.99012 0.89057-0.13392-0.30080  0 306.82 421.52  118.30 306.82 421.28  118.32
   3  -1  -6 13652.9   287.9   2-0.01203 0.39459 0.80580-0.90533-0.59207 0.15706  0 162.87 204.72  254.53 162.83 204.66  254.55
   3  -1   6 13437.7   313.6   1-0.23201 0.61513-0.88704 0.78761 0.39917 0.03586  0 155.28 277.96  150.18 155.21 278.02  150.13
   3  -1   6 14138.3   243.8   2-0.01352 0.39621-0.98282 0.88328 0.18405 0.25068  0 153.62 255.43   99.88 153.55 255.48   99.68
   3  -1   6 11341.1   222.5   2-0.22818 0.61068 0.63075-0.73022 0.74168-0.30634  0 250.15 406.70  340.89 250.16 406.49  340.67
   3   1  -6  7907.6   206.6   1-0.53422 0.91711 0.16598-0.06660-0.82889 0.39304  0 399.23 404.26   39.26 399.59 404.21   39.44
   3   1  -6 12914.0   278.1   2-0.08273 0.46528 0.96495-0.86541-0.24906-0.18595  0 161.42 209.02  276.70 161.37 208.94  276.72
   3   1   6 13154.5   311.8   1-0.02327 0.40639-0.79913 0.89856 0.60071-0.16567  0 154.06 255.85  167.58 154.08 255.92  167.56
   3   1   6 13574.3   230.9   2-0.11522 0.49792-0.73609 0.83559 0.66701-0.23207  0 153.63 261.94   67.81 153.57 261.98   67.64
   3   1   6 11967.6   221.3   2-0.18153 0.56403 0.92041-0.82094 0.34626 0.08908  0 244.10 403.71  311.99 244.00 403.46  312.01
  -3  -1  -7 976.287 130.894   2-0.02017-0.36239 0.83125-0.93079-0.55553 0.04802  0 344.53  73.10  257.23 344.32  73.12  257.14
  -3  -1   7 732.953  91.064   1-0.62081 0.23768-0.75586 0.65642-0.20801 0.71597  0 204.51 116.77  106.97 204.55 116.83  107.14
  -3  -1   7 820.330 147.632   2-0.01716-0.36555-0.97906 0.87955 0.20286 0.30457  0 276.21  79.16   98.72 276.24  79.32   98.57
  -3  -1   7 675.079 153.178   2-0.19352-0.18898 0.87975-0.97922 0.43428 0.07361  0 494.18 352.90  318.00 493.78 352.69  317.64
  -3   1  -7 798.937 120.897   2-0.10342-0.27914 0.98523-0.88569-0.13651-0.37100  0 337.22  72.67  283.44 337.47  72.71  283.39
  -3   1   7 815.290  84.173   1-0.21274-0.17038-0.88209 0.98151 0.42032 0.08722  0 261.32  84.00  152.10 261.24  84.41  151.79
  -3   1   7 897.083 155.115   2-0.08012-0.30259-0.85359 0.95309 0.51475-0.00732  0 271.34  80.83   79.04 271.48  80.72   78.84
  -3   1   7 800.342 159.234   2-0.14496-0.23760 0.98380-0.88426 0.10548 0.40204  0 490.79 357.57  297.60 490.79 357.47  297.51
   3  -1  -7 548.130  61.744   1-0.51024 0.89313 0.21142-0.31081-0.83364 0.32515  0 343.05 443.75   36.67 342.93 443.73   36.49
   3  -1  -7 903.495 153.836   2 0.04848 0.33422-0.98279 0.88324-0.17826-0.32892  0 320.97 443.99  120.96 320.98 443.74  120.92
   3  -1  -7 759.452 115.786   2-0.01498 0.39754 0.81527-0.91481-0.57889 0.07138  0 151.23 188.05  255.43 151.13 188.10  255.50
   3  -1   7 766.546 123.754   1-0.22635 0.60947-0.88564 0.78621 0.40548 0.10206  0 137.81 268.09  150.64 137.67 268.13  150.62
   3  -1   7  1081.8   118.5   2-0.02320 0.40591-0.97178 0.87228 0.23473 0.27270  0 137.44 245.07   96.83 137.33 245.06   96.65
   3  -1   7 709.127  98.039   2-0.22515 0.60765 0.66903-0.76850 0.70831-0.20042  0 254.36 429.93  338.03 254.55 429.77  337.72
   3   1  -7 643.140 111.464   1-0.56825 0.95113 0.09590 0.00349-0.81725 0.30876  0 413.72 425.24   43.69 413.67 425.25   43.95
   3   1  -7  1032.9   157.2   2 0.09474 0.28796-0.85809 0.95764-0.50468-0.00249  0 315.78 443.36  141.29 315.65 443.43  141.19
   3   1  -7 820.244 119.691   2-0.07720 0.45976 0.95744-0.85790-0.27811-0.22941  0 149.52 192.37  275.04 149.44 192.25  274.97
   3   1   7 793.475 125.986   1-0.03412 0.41724-0.80547 0.90489 0.59165-0.08411  0 137.97 245.29  166.62 137.93 245.45  166.67
   3   1   7  1069.4   111.4   2-0.10854 0.49124-0.76153 0.86103 0.63898-0.13155  0 137.07 251.01   69.83 137.04 251.16   69.84
   3   1   7 639.163  94.893   2-0.18456 0.56706 0.91122-0.81175 0.36825 0.13964  0 248.50 427.24  313.40 248.48 427.15  313.39
  -3  -1  -8  6689.2   278.9   2-0.02050-0.36206 0.83225-0.93179-0.55402-0.02600  0 337.58  46.38  257.25 337.60  46.68  257.25
  -3  -1   8  5590.1   196.8   1-0.56773 0.18460-0.81832 0.71888-0.08965 0.67017  0 192.80  99.21  115.30 192.69  99.47  115.40
  -3  -1   8  6411.8   314.2   2-0.02457-0.35813-0.96993 0.87043 0.24214 0.33778  0 260.52  59.56   95.99 260.65  59.78   96.20
  -3   1  -8  6353.4   277.3   2-0.09268-0.28988 0.97620-0.87666-0.19605-0.38397  0 330.61  46.53  280.35 330.77  46.78  279.88
  -3   1   8  6426.3   135.9   1-0.17907-0.20405-0.87167 0.97110 0.45621 0.12384  0 247.34  65.10  154.70 247.30  65.46  154.67
  -3   1   8  3953.7   264.0   2-0.08075-0.30196-0.85178 0.95128 0.51764 0.06228  0 255.93  61.31   78.58 255.95  61.54   78.64
   3  -1  -8  3735.8   138.1   1-0.56997 0.95285 0.09213-0.19151-0.81649 0.23535  0 359.28 469.34   44.14 359.37 469.29   44.19
   3  -1  -8  6386.3   316.9   2 0.05517 0.32752-0.97370 0.87415-0.22104-0.35859  0 336.60 470.21  123.45 336.60 469.80  123.45
   3  -1  -8  6671.6   262.8   2-0.01575 0.39831 0.81770-0.91724-0.57543-0.00459  0 137.92 170.44  255.74 137.90 170.39  255.74
   3  -1   8  5936.9   261.0   1-0.21623 0.59935-0.88303 0.78361 0.41653 0.16351  0 118.97 257.64  151.46 118.60 257.71  151.49
   3  -1   8  6991.3   224.6   2-0.03215 0.41485-0.95904 0.85954 0.28143 0.29848  0 119.84 234.33   93.90 119.43 234.41   93.82
   3  -1   8  5320.8   245.5   2-0.22341 0.60591 0.68849-0.78796 0.68998-0.10953  0 258.35 456.26  336.22 258.62 456.10  336.18
   3   1  -8  3459.2   215.2   1-0.59002 0.97291 0.04602 0.05337-0.80607 0.22494  0 430.75 450.30   46.99 431.02 450.29   47.14
   3   1  -8  6249.6   308.1   2 0.09526 0.28744-0.85562 0.95517-0.50876-0.07087  0 331.12 469.99  141.41 331.05 469.67  141.46
   3   1  -8  6314.7   257.2   2-0.07122 0.45377 0.94842-0.84888-0.30892-0.27110  0 135.97 174.54  273.00 136.02 174.48  273.10
   3   1   8  6574.5   268.7   1-0.03777 0.42089-0.80765 0.90707 0.58845-0.00841  0 120.37 234.14  166.36 120.08 234.24  166.36
   3   1   8  6447.0   212.9   2-0.10568 0.48838-0.77186 0.87136 0.62695-0.04704  0 119.23 240.21   70.78 118.86 240.31   70.76
   3   1   8  5354.0   220.2   2-0.18821 0.57071 0.89933-0.79986 0.39468 0.18577  0 252.55 454.03  315.12 252.50 453.72  315.07
  -3  -1  -9 189.697 166.988   2-0.01894-0.36362 0.82751-0.92705-0.56113-0.09139  0 330.50  17.08  257.18 330.92  16.52  256.75
  -3  -1   9 152.274  98.195   1-0.51163 0.12850-0.85906 0.75963 0.01555 0.63754  0 178.99  79.34  122.67 179.09  79.44  122.61
  -3  -1   9 338.707 148.291   2-0.03205-0.35065-0.95919 0.85969 0.28094 0.37146  0 243.98  37.81   93.63 243.78  37.75   93.85
  -3   1  -9 172.824 159.797   2-0.08245-0.30010 0.96460-0.86506-0.25051-0.40201  0 323.76  17.28  277.03 323.98  17.11  276.64
  -3   1   9 300.219  72.528   1-0.14121-0.24191-0.85785 0.95728 0.49412 0.15844  0 233.30  43.10  157.94 233.28  43.13  157.84
  -3   1   9 393.972 148.011   2-0.08287-0.29983-0.84614 0.94564 0.52648 0.12593  0 239.05  39.66   77.94 239.11  39.86   78.03
   3  -1  -9  47.221  96.948   1-0.59824 0.98113 0.02609-0.12547-0.80089 0.14711  2 376.63 499.93   48.27 376.95 500.00   48.41
   3  -1  -9 346.379 211.429   2 0.06139 0.32130-0.96286 0.86331-0.26291-0.38917  0 354.23 500.73  125.63 354.17 500.62  125.96
   3  -1  -9 423.376 139.969   2-0.01493 0.39749 0.81512-0.91466-0.57909-0.07342  0 123.07 151.18  255.52 122.75 151.10  255.48
   3  -1   9 396.069 129.329   1-0.20258 0.58571-0.87917 0.77974 0.43131 0.22125  0  97.64 246.38  152.60  97.60 246.49  152.66
   3  -1   9 258.633 107.339   2-0.04093 0.42363-0.94448 0.84498 0.32600 0.32641  0  99.58 223.55   91.39  99.31 223.45   91.08
   3  -1   9 202.555 147.088   2-0.22269 0.60519 0.69606-0.79553 0.68258-0.02957  0 262.57 486.47  335.57 262.31 486.45  335.57
   3   1  -9 -61.053 149.571   1-0.60304 0.98593 0.01414 0.08524-0.79759 0.14381  0 451.85 480.97   49.66 451.90 480.69   49.17
   3   1  -9 119.095 199.711   2 0.09654 0.28616-0.84934 0.94889-0.51894-0.13314  0 348.45 500.34  143.17 348.35 500.67  142.15
   3   1  -9 385.691 128.060   2-0.06500 0.44756 0.93780-0.83826-0.34104-0.31147  0 120.89 155.32  271.48 120.69 155.25  271.13
   3   1   9 272.044 131.885   1-0.03582 0.41894-0.80645 0.90587 0.59022 0.06233  0  99.94 222.00  166.66 100.25 221.99  166.53
   3   1   9 221.626  94.751   2-0.10540 0.48810-0.77288 0.87238 0.62574 0.02666  0  98.49 229.15   70.98  98.51 229.28   70.85
   3   1   9 207.527 136.833   2-0.19210 0.57460 0.88515-0.78568 0.42379 0.22921  0 255.94 484.26  316.66 256.02 484.16  316.95
  -3  -1  10  1199.7   147.7   1-0.45422 0.07109-0.88410 0.78466 0.10982 0.61584  0 163.69  55.88  129.24 163.63  55.75  129.10
  -3  -1  10  1338.4   222.2   2-0.03963-0.34307-0.94679 0.84728 0.31941 0.40548  0 225.25  12.51   91.55 225.11  12.43   91.48
  -3   1  10  1188.8   141.1   1-0.10131-0.28181-0.84048 0.93990 0.53229 0.19277  0 219.12  15.86  161.32 218.96  16.30  161.15
  -3   1  10  1270.0   213.2   2-0.08579-0.29691-0.83732 0.93682 0.53994 0.18495  0 220.38  14.78   77.43 220.39  14.89   77.11
   3  -1 -10  1362.7   200.5   2-0.01292 0.39548 0.80868-0.90821-0.58811-0.13691  0 105.41 129.67  255.08 105.13 129.71  254.84
   3  -1  10 918.163 168.100   1-0.18586 0.56898-0.87403 0.77460 0.44892 0.27614  0  74.02 233.95  154.27  74.04 234.11  154.08
   3  -1  10  1181.8   148.6   2-0.04964 0.43234-0.92806 0.82855 0.36911 0.35578  0  76.04 212.05   88.40  76.31 211.99   88.37
   3   1 -10  1174.4   190.4   2-0.05846 0.44102 0.92557-0.82603-0.37405-0.35097  0 102.77 133.93  268.94 102.88 133.98  269.07
   3   1  10  1340.5   190.0   1-0.02900 0.41213-0.80251 0.90193 0.59594 0.12912  0  77.70 208.10  167.35  77.79 208.29  167.09
   3   1  10  1256.5   148.9   2-0.10692 0.48963-0.76748 0.86698 0.63210 0.09280  0  75.45 217.88   70.32  75.34 217.91   70.37
  -3  -1  11 322.209 145.688   1-0.39602 0.01289-0.89721 0.79777 0.19540 0.60282  0 146.16  27.03  134.96 146.16  27.05  135.08
   3  -1 -11 276.738 192.788   2-0.00997 0.39253 0.79901-0.89855-0.60123-0.19629  0  84.12 105.14  253.91  84.25 105.43  253.89
   3  -1  11 285.225 165.936   1-0.16654 0.54966-0.86743 0.76800 0.46886 0.32870  0  47.22 219.93  155.57  47.14 220.09  155.72
   3  -1  11 267.455 134.364   2-0.05817 0.44087-0.90972 0.81021 0.41114 0.38625  0  50.01 199.67   85.63  49.54 199.84   85.69
   3   1 -11 552.578 203.251   2-0.05162 0.43418 0.91165-0.81211-0.40770-0.38982  0  81.98 109.92  266.62  81.82 109.92  266.95
   3   1  11 306.288 180.666   1-0.01812 0.40125-0.79606 0.89549 0.60494 0.19262  0  51.99 192.40  167.73  51.97 192.56  167.98
   3   1  11 322.431 129.168   2-0.10971 0.49242-0.75721 0.85672 0.64389 0.15350  0  48.52 206.11   69.48  48.41 205.97   69.46
  -3  -2   0 18410.2   277.2   1-0.42523 0.04234 0.35095-0.54972-0.83428 0.83428  0 206.20 212.71   26.98 206.19 212.73   27.12
  -3  -2   0 25806.4   217.9   2-0.21873-0.16391-0.04675-0.15219 0.97466-0.97466  0 420.98 232.74   22.97 421.27 232.86   22.83
  -3  -2   0 23740.3   209.4   2 0.11768-0.50040-0.69388 0.49490-0.71040 0.71040  0 360.68 158.02  156.29 360.79 158.19  156.39
  -3   2   0 20281.1   225.3   1-0.62890 0.24577-0.74310 0.94197-0.22867 0.22867  0 361.50 158.17  105.76 361.43 158.34  105.68
  -3   2   0 26544.3   255.5   2-0.22463-0.15801 0.03540 0.16354 0.97380-0.97380  0 344.66 151.65   18.01 344.77 151.80   18.09
  -3   2   0 25164.8   248.5   2 0.04658-0.42924 0.55690-0.35786-0.82927 0.82927  0 423.57 250.38  234.46 423.80 250.42  234.44
   3  -2   0 24243.9   241.5   1-0.21497 0.59809-0.88269 0.68384 0.41790-0.41790  0 244.08 348.74  151.58 243.89 348.66  151.60
   3  -2   0 27042.0   245.4   2-0.12314 0.50584-0.70429 0.50529 0.69915-0.69915  0 253.37 354.83   64.99 253.15 354.72   65.00
   3  -2   0 24546.5   234.8   2 0.12613 0.25658-0.22494 0.02596-0.96617 0.96617  0 196.59 268.91  187.51 196.49 268.77  187.45
   3   2   0 27572.2   206.1   2 0.08569 0.29697 0.30261-0.10356-0.94926 0.94926  0 238.63 344.95  218.02 238.45 344.72  218.12
   3   2   0 21486.6   183.2   2-0.20009 0.58259 0.85188-0.65294 0.48401-0.48401  0 199.55 285.52  321.02 199.55 285.45  320.95
  -3  -2  -1 18651.3   288.7   1-0.33876-0.04413 0.46917-0.66794-0.81555 0.74291  0 200.69 222.45   18.97 200.68 222.48   18.66
  -3  -2  -1 28816.3   359.9   1 0.02702-0.41015-0.76738 0.56853 0.64062-0.71313  0 418.06 214.99  171.98 418.27 215.06  171.67
  -3  -2  -1 29869.1   223.8   2-0.16909-0.21356-0.47123 0.27229 0.86565-0.93822  0 421.73 227.09   48.26 422.17 227.25   48.29
  -3  -2  -1 29011.7   220.6   2 0.12944-0.51215-0.39892 0.19993-0.90781 0.83530  0 366.18 158.65  176.99 366.38 158.83  176.91
  -3  -2   1 20099.9   284.7   1-0.51408 0.13119 0.20439-0.40316-0.83303 0.90568  0 209.55 202.69   37.01 209.54 202.71   36.95
  -3  -2   1 26777.5   246.7   2-0.23522-0.14742 0.30800-0.50693 0.92185-0.84929  0 425.29 243.71    2.04 425.52 243.80    2.13
  -3  -2   1 26623.7   246.0   2 0.09597-0.47867-0.85218 0.65308-0.51437 0.58682  0 351.51 151.93  141.93 351.61 152.01  141.84
  -3   2  -1 22193.7   265.0   1-0.61276 0.22963-0.76749 0.96636-0.18836 0.11579  0 380.88 167.56  108.51 380.77 167.72  108.53
  -3   2  -1 29480.7   262.4   2 0.08604-0.46870 0.29984-0.10080-0.95010 0.87759  0 425.41 246.09  217.99 425.62 246.17  217.95
  -3   2   1 20842.0   187.5   1-0.66216 0.27924-0.67479 0.87363-0.32588 0.39850  0 341.44 148.60   98.61 341.35 148.83   98.59
  -3   2   1 28072.6   279.1   2-0.19940-0.18325-0.24858 0.44752 0.94787-0.87530  0 337.11 147.58   34.52 337.23 147.75   34.56
  -3   2   1 28780.4   282.3   2 0.00675-0.38941 0.73898-0.53993-0.67370 0.74621  0 426.11 259.21  248.27 426.32 259.26  248.41
   3  -2  -1 28775.9   220.8   1-0.07383 0.45695-0.82713 0.62828 0.55715-0.62965  0 260.86 360.50  163.29 260.91 360.38  163.41
   3  -2  -1 28242.0   273.0   2-0.08503 0.46773-0.83962 0.64062 0.53647-0.60896  0 259.85 360.21   77.04 259.93 360.09   77.35
   3  -2  -1 28174.0   269.4   2 0.10802 0.27464 0.08788-0.28693-0.99026 0.91774  0 194.57 261.21  205.68 194.47 261.17  205.49
   3  -2   1 25688.8   282.7   1-0.28028 0.66340-0.89605 0.69717 0.34430-0.27174  0 228.52 337.89  145.99 228.42 337.78  145.92
   3  -2   1 28001.8   242.8   2-0.16635 0.54899-0.48814 0.28920 0.85677-0.78420  0 249.06 354.27   49.27 248.86 354.13   49.40
   3  -2   1 27209.6   240.5   2 0.12698 0.25573-0.53975 0.34076-0.83219 0.90470  0 195.50 272.81  167.87 195.37 272.67  167.68
   3   2  -1 17597.4   272.2   1-0.21186 0.59475 0.61069-0.41192-0.76300 0.69036  0 405.83 322.77    7.18 406.04 322.66    7.35
   3   2  -1 27517.0   235.1   2 0.12142 0.26130-0.11214 0.31113-0.98625 0.91374  0 246.98 352.86  193.96 246.65 352.56  194.04
   3   2  -1 23440.0   218.5   2-0.17658 0.55908 0.93361-0.73467 0.31175-0.38430  0 195.89 275.30  310.00 195.84 275.24  309.86
   3   2   1 30551.1   201.7   2 0.01396 0.36870 0.71017-0.51113-0.70389 0.77641  0 233.28 342.67  245.96 233.12 342.44  245.98
   3   2   1 22938.9   175.9   2-0.22651 0.60901 0.65201-0.45306 0.72359-0.65103  0 199.53 291.17  338.99 199.49 291.07  339.04
  -3  -2  -2  2376.7   125.5   1-0.26206-0.12083 0.55870-0.75746-0.78688 0.64160  0 193.20 232.15   11.95 193.18 232.11   11.72
  -3  -2  -2  3431.3   165.9   1-0.06034-0.32278-0.82009 0.62125 0.56904-0.71405  0 428.91 226.03  164.59 429.06 226.05  164.52
  -3  -2  -2  3473.5    95.1   2-0.10528-0.27743-0.77332 0.57431 0.62521-0.77019  0 428.86 228.06   71.01 429.11 228.20   70.89
  -3  -2  -2  3496.4    98.4   2 0.11572-0.49844-0.01923-0.17976-0.99310 0.84808  0 367.23 152.47  199.08 367.27 152.60  199.39
  -3  -2   2  2332.0   111.1   1-0.59419 0.21130 0.03601-0.23478-0.80352 0.94881  0 210.52 192.30   47.95 210.49 192.35   47.78
  -3  -2   2  3432.6   122.2   2 0.07557-0.45827-0.92901 0.72991-0.36226 0.50717  0 340.39 142.53  131.73 340.48 142.62  132.04
  -3  -2   2  2955.4   116.6   2-0.23370-0.14880 0.52580-0.72474 0.81787-0.67276  0 432.91 258.20  347.98 433.12 258.15  348.13
  -3   2  -2  2729.0   134.8   1-0.60695 0.22382-0.77531 0.97418-0.17466 0.02953  0 400.46 176.86  109.48 400.63 176.97  109.49
  -3   2  -2  3426.0   113.4   2 0.11357-0.49623 0.01469 0.18435-0.99342 0.84839  0 432.16 246.82  201.24 432.37 246.94  201.29
  -3   2  -2  2774.1   106.9   2-0.22857-0.15393 0.62506-0.42611 0.74637-0.89148  0 350.56 145.56  341.05 350.51 145.67  341.09
  -3   2   2  2314.2    46.5   1-0.32932-0.05357 0.48085-0.28208-0.81261 0.95790  0 284.38 142.16   17.66 284.55 142.34   17.79
  -3   2   2  2484.6    48.5   1-0.69833 0.31541-0.38115 0.57999-0.60585 0.75109  0 315.49 139.18   75.23 315.37 139.35   75.11
  -3   2   2  3784.8   137.9   2-0.17244-0.21020-0.45037 0.64931 0.87603-0.73090  0 327.50 140.17   47.40 327.65 140.30   46.94
  -3   2   2  3638.6   134.5   2-0.02687-0.35569 0.85068-0.65160-0.52500 0.67001  0 432.02 271.53  259.14 432.15 271.54  259.25
   3  -2  -2  3424.0   127.4   2-0.05532 0.43803-0.91606 0.71705 0.39721-0.54219  0 268.46 369.31   86.69 268.51 369.16   86.59
   3  -2  -2  3464.8   115.4   2 0.08279 0.29987 0.32533-0.52437-0.94197 0.79694  0 190.17 250.94  219.58 190.10 250.90  219.50
   3  -2   2  3165.4   130.0   1-0.31210 0.69523-0.89945 0.70058 0.30591-0.16078  0 213.38 327.67  143.05 213.31 327.58  143.06
   3  -2   2  3248.7    96.9   2-0.20327 0.58592-0.21443 0.01550 0.95535-0.81022  0 247.60 359.23   32.54 247.42 359.06   32.56
   3  -2   2  3349.5    97.6   2 0.10945 0.27327-0.76892 0.56993-0.62991 0.77492  0 190.82 272.41  150.02 190.71 272.32  150.07
   3   2  -2  2222.7   127.6   1-0.30115 0.68404 0.51455-0.31578-0.80284 0.65755  0 404.52 334.78   14.82 404.69 334.72   15.21
   3   2  -2  2910.3   108.7   2 0.12943 0.25328-0.39225 0.59123-0.91071 0.76570  0 256.48 363.91  177.17 256.46 363.85  177.33
   3   2  -2  2945.7   100.7   2-0.15897 0.54147 0.96787-0.76893 0.19483-0.33994  0 190.09 262.97  302.92 190.04 262.91  302.76
   3   2   2  3454.2    80.7   2-0.05278 0.43534 0.91413-0.71505-0.40197 0.54698  0 232.21 348.15  267.33 232.06 347.95  267.32
  -3  -2  -3 -34.817  49.997   1-0.19856-0.18433 0.62373-0.82249-0.75600 0.53808  0 183.93 241.83    6.34 183.98 241.72    6.21
  -3  -2  -3  23.650  79.854   1-0.14064-0.24248-0.85762 0.65877 0.49468-0.71219  0 442.85 237.09  157.63 442.77 237.25  157.89
  -3  -2  -3 -14.708  40.575   2-0.05569-0.32702-0.91525 0.71624 0.39902-0.61648  0 441.72 234.67   86.46 441.73 234.50   86.47
  -3  -2  -3  12.455  43.399   2 0.08749-0.47015 0.28788-0.48693-0.95366 0.73611  0 364.80 140.90  216.86 364.58 140.80  217.23
  -3  -2   3  32.074  48.526   1-0.65501 0.27208-0.13968-0.05916-0.74260 0.96045  0 209.06 181.69   58.84 208.99 181.52   58.99
  -3  -2   3  -8.020  60.728   2 0.05882-0.44152-0.96751 0.76841-0.24589 0.46326  0 328.77 131.26  125.37 328.40 131.23  124.94
  -3  -2   3  -5.814  57.795   2-0.22691-0.15559 0.64673-0.84568 0.72818-0.51051  0 442.95 274.52  339.61 443.08 274.41  339.44
  -3   2  -3   9.034  74.800   1-0.60739 0.22426-0.77475 0.97362-0.17562-0.04208  0 421.51 186.41  109.48 421.70 186.25  109.43
  -3   2  -3   8.934  48.779   2 0.12619-0.50891-0.22659 0.42558-0.96578 0.74826  0 443.70 252.21  187.24 443.73 252.18  187.36
  -3   2  -3  12.751  48.496   2-0.20979-0.17271 0.79919-0.60025 0.56327-0.78094  0 348.80 135.35  326.58 348.81 135.34  326.46
  -3   2   3  56.558  65.256   2-0.14993-0.23278-0.57832 0.77733 0.80191-0.58445  0 316.64 130.54   55.40 316.71 130.50   55.54
  -3   2   3  -2.075  62.365   2-0.05379-0.32876 0.91626-0.71718-0.39696 0.61447  0 441.08 286.44  267.42 440.69 286.40  267.63
   3  -2  -3 -19.393  58.039   2-0.03252 0.41522-0.95847 0.75946 0.28334-0.50081  0 277.95 381.03   93.59 278.36 381.04   93.70
   3  -2  -3  28.500  46.008   2 0.05946 0.32320 0.48292-0.68197-0.87364 0.65610  0 184.15 239.03  229.36 184.01 238.99  229.45
   3  -2   3 -28.136  51.787   1-0.32611 0.70924-0.90029 0.70142 0.28831-0.07062  0 197.97 317.51  141.41 198.18 317.80  141.76
   3  -2   3  -9.371  34.350   2-0.22524 0.60789 0.04521-0.24414 0.97325-0.75556  0 248.55 369.02   17.31 248.36 368.90   17.53
   3  -2   3  -1.356  32.987   2 0.08549 0.29720-0.89643 0.69733-0.43487 0.65223  0 183.11 268.41  136.44 182.93 268.31  136.61
   3   2  -3   2.935  67.555   1-0.38059 0.76347 0.41435-0.21559-0.82672 0.60879  0 407.06 347.71   22.60 406.82 347.66   22.66
   3   2  -3  12.227  57.836   2 0.12640 0.25631-0.55526 0.75425-0.82201 0.60450  0 267.02 377.14  166.53 267.14 377.34  166.61
   3   2  -3  15.430  40.845   2-0.14539 0.52794 0.98345-0.78437 0.10813-0.32564  0 182.79 249.54  297.63 182.86 249.48  297.67
   3   2   3 -19.677  25.695   2-0.21754 0.60018-0.06099 0.25993 0.97414-0.75645  0 185.26 284.27   23.98 185.31 284.39   23.65
   3   2   3  57.056  32.306   2-0.09308 0.47564 0.97660-0.77752-0.19386 0.41137  0 234.09 359.67  279.94 234.11 359.61  280.01
  -3  -2  -4  1701.6   117.5   1-0.14865-0.23424 0.66958-0.86835-0.72771 0.43714  0 173.26 251.32    2.00 173.23 251.44    2.00
  -3  -2  -4  2692.1   184.8   1-0.21302-0.17010-0.88216 0.68331 0.42001-0.71003  0 459.36 248.97  151.92 459.43 248.95  151.77
  -3  -2  -4  2901.2   119.3   2-0.02259-0.36011-0.97257 0.77357 0.23150-0.52146  0 458.15 244.23   96.89 458.49 244.17   96.84
  -3  -2  -4  2791.0   122.6   2 0.05977-0.44243 0.48102-0.68006-0.87467 0.58461  0 360.11 125.06  229.14 360.04 125.25  229.32
  -3  -2   4  1826.0   116.3   1-0.69047 0.30755-0.30725 0.10841-0.65486 0.94534  0 205.16 169.92   69.88 205.08 170.01   70.01
  -3  -2   4  2444.9   144.3   2 0.04455-0.42725-0.98716 0.78807-0.15337 0.44318  0 315.58 118.17  119.40 315.75 118.32  119.46
  -3  -2   4  2188.8   147.3   2-0.22079-0.16171 0.71436-0.91330 0.66404-0.37381  0 454.74 292.48  334.25 455.00 292.47  334.07
  -3   2  -4  2249.6   167.2   1-0.61164 0.22852-0.76903 0.96791-0.18568-0.10458  0 444.44 195.60  108.75 444.56 195.72  108.72
  -3   2  -4  2717.9   132.8   2 0.12944-0.51215-0.39670 0.59569-0.90878 0.61875  0 458.85 260.51  176.74 459.07 260.65  177.05
  -3   2  -4  2358.9   132.4   2-0.18875-0.19375 0.89749-0.69854 0.39861-0.68884  0 345.26 121.27  315.21 345.21 121.45  315.32
  -3   2   4  2789.4   157.9   2-0.13383-0.24887-0.65815 0.85716 0.74090-0.45094  0 304.83 118.59   61.33 304.91 118.78   61.38
  -3   2   4  2547.6   150.9   2-0.07517-0.30739 0.95446-0.75538-0.28871 0.57871  0 451.38 303.42  274.31 451.47 303.44  274.32
   3  -2  -4  2638.6   149.2   2-0.01456 0.39726-0.98190 0.78289 0.18886-0.47882  0 289.16 395.52   99.45 289.20 395.31   99.40
   3  -2  -4  2823.5   135.2   2 0.04163 0.34103 0.58338-0.78242-0.81113 0.52107  0 176.59 225.96  236.27 176.56 225.93  236.30
   3  -2   4  2257.5   141.7   1-0.32946 0.71259-0.90042 0.70155 0.28406 0.00620  0 182.76 308.36  141.37 182.72 308.30  141.45
   3  -2   4  2602.3   109.5   2-0.23400 0.61664 0.24389-0.44283 0.94115-0.65089  0 250.96 382.77    6.33 250.79 382.57    5.97
   3  -2   4  2565.7   107.1   2 0.06332 0.31938-0.95895 0.75985-0.27643 0.56624  0 172.81 262.04  126.81 172.70 261.96  126.77
   3   2  -4  1682.6   133.5   1-0.44660 0.82949 0.31862-0.11985-0.83608 0.54551  0 412.14 361.90   29.28 412.35 361.99   29.35
   3   2  -4  2699.1   149.8   2 0.12134 0.26138-0.64906 0.84805-0.75100 0.46097  0 278.41 392.96  159.81 278.46 392.79  159.86
   3   2  -4  2363.2   122.4   2-0.13364 0.51620 0.99031-0.79123 0.03786-0.32787  0 174.67 235.52  293.60 174.61 235.41  293.54
   3   2   4  2804.3    98.8   2-0.19215 0.57480-0.30982 0.50876 0.93117-0.64091  0 173.95 276.40   38.11 173.88 276.34   38.22
   3   2   4  2451.3    98.3   2-0.11693 0.49949 0.99129-0.79221-0.06058 0.35059  0 237.68 375.30  288.00 237.54 375.02  287.81
  -3  -2  -5  1453.0   160.7   1-0.27829-0.10483-0.89576 0.69689 0.34665-0.70948  0 479.23 261.51  146.25 479.33 261.64  146.09
  -3  -2  -5  1536.8   127.1   2 0.00040-0.38310-0.99415 0.79506 0.10796-0.47023  0 478.71 255.91  104.25 478.68 256.02  104.19
  -3  -2  -5  1570.0   128.7   2 0.03993-0.42259 0.59198-0.79102-0.80496 0.44239  0 354.61 106.83  237.26 354.62 107.06  236.91
  -3  -2   5  1074.2   102.7   1-0.70032 0.31739-0.45515 0.25631-0.54991 0.91300  0 199.01 157.65   80.30 198.87 157.64   80.42
  -3  -2   5  1424.9   158.8   2 0.03206-0.41476-0.99660 0.79750-0.07587 0.43814  0 302.48 103.97  115.24 302.60 104.02  114.91
  -3  -2   5  1261.2   131.7   2-0.21645-0.16605 0.75249-0.95143 0.62202-0.25924  0 468.95 312.27  331.05 469.01 312.35  330.80
  -3   2  -5  1292.6   150.1   1-0.61825 0.23513-0.75965 0.95852-0.20173-0.16110  0 469.86 205.51  107.61 469.87 205.61  107.59
  -3   2  -5  1308.7   133.0   2 0.12786-0.51057-0.50810 0.70709-0.85175 0.48922  0 477.94 271.49  169.77 478.09 271.62  169.84
  -3   2  -5  1275.5   139.1   2-0.16919-0.21331 0.95016-0.75122 0.26186-0.62464  0 340.45 104.55  307.03 340.48 104.63  306.80
  -3   2   5  1678.8   166.0   2-0.12252-0.26018-0.70687 0.90588 0.69665-0.33420  0 292.27 105.21   65.27 292.34 105.45   65.21
  -3   2   5  1358.6   164.0   2-0.09267-0.28989 0.97619-0.77711-0.19611 0.55862  0 464.35 322.59  279.86 464.44 322.60  279.87
   3  -2  -5  1664.4   136.4   2 0.02867 0.35399 0.64641-0.84545-0.76245 0.39987  0 167.89 211.91  240.74 167.84 211.87  240.93
   3  -2   5  1221.3   134.7   1-0.32577 0.70890-0.90028 0.70140 0.28874 0.07408  0 166.65 298.93  141.65 166.65 298.89  141.80
   3  -2   5  1409.7   102.0   2 0.04425 0.33845-0.98747 0.78837-0.15146 0.51373  0 160.71 254.23  119.16 160.55 254.15  119.34
   3  -2   5  1291.1   108.0   2-0.23687 0.61935 0.37869-0.57754 0.89470-0.53183  0 254.02 399.46  357.65 253.86 399.27  357.61
   3   2  -5 918.554 118.330   1-0.49804 0.88093 0.23324-0.03447-0.83520 0.47199  0 421.08 377.99   34.92 421.21 378.01   35.06
   3   2  -5 838.628 108.703   2 0.11678 0.26594-0.70369 0.90267-0.70085 0.33832  0 290.32 410.54  155.60 290.44 410.29  155.60
   3   2  -5  1219.5   119.7   2-0.12326 0.50582 0.99211-0.79303-0.02302-0.33949  0 165.30 220.87  289.89 165.30 220.70  290.00
   3   2   5  1438.7    96.1   2-0.17066 0.55330-0.46134 0.66028 0.87066-0.50783  0 160.94 267.31   47.79 160.82 267.28   47.65
   3   2   5  1217.6    98.3   2-0.13297 0.51552 0.99053-0.79145 0.03412 0.32839  0 241.53 393.19  293.33 241.36 393.02  293.33
  -3  -2  -6  9306.2   309.4   1-0.33617-0.04696-0.90061 0.70173 0.27550-0.71089  2 502.94 275.43  140.94 503.01 275.46  140.83
  -3  -2  -6  9653.9   236.8   2 0.01757-0.40027-0.99978 0.80069 0.01102-0.44574  0 502.52 269.65  110.18 502.64 269.62  109.86
  -3  -2  -6 10056.4   244.7   2 0.02668-0.40934 0.65553-0.85457-0.75470 0.31961  0 348.82  86.16  241.72 348.78  86.41  241.63
  -3  -2   6  7605.4   212.6   1-0.68882 0.30589-0.57794 0.37911-0.43762 0.87333  0 190.76 144.04   89.99 190.58 144.14   89.98
  -3  -2   6  9546.6   282.8   2 0.02072-0.40341-0.99975 0.80065-0.00824 0.44296  0 288.69  88.04  111.20 288.88  88.22  110.98
  -3  -2   6  8206.7   279.3   2-0.21360-0.16890 0.77336-0.97230 0.59690-0.16156  0 485.20 334.48  328.74 485.42 334.42  328.91
  -3   2  -6  7791.8   284.8   1-0.62630 0.24317-0.74733 0.94620-0.22192-0.21347  0 498.35 216.17  106.06 498.46 216.16  106.16
  -3   2  -6  8783.4   242.0   2 0.12532-0.50804-0.57830 0.77729-0.80614 0.37110  0 500.80 284.63  164.92 501.02 284.77  164.99
  -3   2  -6  8229.6   242.5   2-0.15183-0.23067 0.97715-0.77820 0.14878-0.58412  0 335.15  84.89  300.00 335.07  85.14  300.02
  -3   2   6  9515.3   285.8   2-0.11519-0.26752-0.73622 0.93522 0.66687-0.23194  0 278.87  90.26   67.62 278.99  90.51   67.65
  -3   2   6  9022.6   287.6   2-0.10737-0.27518 0.98754-0.78846-0.11509 0.55010  0 479.83 344.18  284.73 479.85 344.16  284.64
   3  -2  -6  9722.3   285.3   2 0.01296 0.36974-0.99921 0.80011 0.03764-0.47236  0 313.73 431.37  108.33 313.76 431.13  108.31
   3  -2  -6 10672.2   274.4   2 0.01990 0.36276 0.68575-0.88480-0.72756 0.29247  0 157.92 196.86  243.99 157.86 196.85  244.01
   3  -2   6  8453.1   261.7   1-0.31708 0.70021-0.89980 0.70092 0.29971 0.13568  0 149.72 289.46  142.58 149.70 289.41  142.60
   3  -2   6  9003.2   214.0   2 0.02790 0.35479-0.99834 0.79924-0.05039 0.48511  0 146.83 245.41  113.25 146.69 245.43  113.43
   3  -2   6  8583.2   225.9   2-0.23564 0.61812 0.46792-0.66678 0.85178-0.41634  0 257.16 419.16  352.00 257.43 418.88  351.92
   3   2  -6  5429.9   219.8   1-0.53612 0.91901 0.16226 0.03651-0.82840 0.39255  0 433.20 396.41   39.68 433.45 396.42   39.68
   3   2  -6  8448.7   242.7   2-0.11387 0.49642 0.99042-0.79134-0.07816-0.35686  0 154.87 205.38  287.05 154.82 205.27  286.79
   3   2   6  9801.8   210.7   2-0.15505 0.53775-0.55106 0.75007 0.81994-0.38500  0 146.30 257.80   53.81 146.26 257.81   53.65
   3   2   6  8831.4   206.7   2-0.14558 0.52813 0.98329-0.78421 0.10930 0.32571  0 245.45 413.78  297.93 245.22 413.46  297.74
  -3  -2  -7  1083.5   136.9   2 0.01856-0.40122 0.69145-0.89049-0.72219 0.21458  0 342.79  63.09  244.46 342.79  63.14  244.46
  -3  -2   7 807.902 106.345   1-0.66205 0.27912-0.67508 0.47625-0.32550 0.83383  0 180.33 128.76   98.67 180.32 129.19   98.62
  -3  -2   7  1049.4   159.3   2 0.01027-0.39297-0.99855 0.79945 0.05281 0.45437  0 274.21  70.70  107.41 274.42  70.71  107.42
  -3  -2   7 952.252 181.213   2-0.21215-0.17035 0.78349-0.98243 0.58407-0.07617  2 503.89 359.02  327.61 504.72 359.26  327.97
  -3   2  -7 970.265 139.381   2-0.13628-0.24628 0.98921-0.79013 0.05377-0.56128  0 329.16  63.13  294.59 329.38  62.83  294.47
  -3   2   7  1135.5   171.0   2-0.11086-0.27185-0.75290 0.95191 0.64873-0.14130  0 264.60  73.59   68.93 264.73  73.72   69.08
  -3   2   7  1070.7   175.0   2-0.12005-0.26251 0.99185-0.79278-0.04257 0.55009  0 498.43 368.91  288.70 498.16 368.67  288.86
   3  -2  -7  1302.4   174.1   2 0.02386 0.35884-0.99936 0.80026-0.02674-0.48044  0 327.88 453.52  112.00 327.84 453.52  112.06
   3  -2  -7  1203.0   141.0   2 0.01413 0.36853 0.70946-0.90850-0.70460 0.19699  0 146.42 180.74  245.99 146.42 180.69  245.92
   3  -2   7 982.617 138.781   1-0.30447 0.68760-0.89889 0.70001 0.31512 0.19284  0 131.91 279.75  143.72 131.58 279.69  143.74
   3  -2   7  1147.4   126.1   2 0.01349 0.36920-0.99931 0.80021 0.03458 0.47260  0 131.27 235.88  108.50 131.06 236.06  108.49
   3  -2   7 907.690 133.218   2-0.23374 0.61624 0.52477-0.72371 0.81853-0.31063  0 260.98 441.59  348.28 261.16 441.60  348.20
   3   2  -7 617.424 136.629   1-0.56311 0.94599 0.10702 0.09175-0.81943 0.31093  0 448.84 418.06   42.93 449.12 417.89   43.24
   3   2  -7 947.392 158.385   2 0.11148 0.27124-0.75318 0.95216-0.64830 0.14076  0 317.03 453.38  151.34 317.07 453.07  151.46
   3   2  -7 913.201 125.491   2-0.10479 0.48734 0.98607-0.78699-0.12917-0.37834  0 143.02 188.83  284.01 142.96 188.89  283.82
   3   2   7  1165.3   122.2   2-0.14481 0.52751-0.60449 0.80349 0.78334-0.27592  0 130.11 247.93   57.38 130.07 247.94   57.41
   3   2   7 856.241 105.639   2-0.15575 0.53825 0.97247-0.77353 0.17332 0.33458  0 249.23 436.68  301.46 249.04 436.66  301.48
  -3  -2  -8  5176.8   280.8   2 0.01383-0.39650 0.71068-0.90973-0.70338 0.12325  0 336.68  36.37  245.97 336.68  36.65  246.02
  -3  -2   8  4153.0   199.9   1-0.62494 0.24181-0.74949 0.55061-0.21845 0.79897  0 168.27 112.25  106.34 168.20 112.36  106.40
  -3  -2   8  4915.1   309.5   2 0.00021-0.38291-0.99404 0.79494 0.10904 0.47059  0 258.79  50.82  103.98 258.91  51.03  104.13
  -3   2  -8  3910.8   258.8   2-0.12220-0.26036 0.99208-0.79300-0.02922-0.55079  0 323.05  37.16  289.64 323.21  37.27  289.64
  -3   2   8  4857.4   263.0   2-0.10872-0.27399-0.76086 0.95987 0.63974-0.05982  0 249.48  54.67   69.71 249.33  54.78   69.78
   3  -2  -8  4420.0   310.8   2 0.03374 0.34896-0.99572 0.79662-0.08605-0.49358  0 343.66 480.21  115.56 343.58 479.87  115.51
   3  -2  -8  5005.6   254.0   2 0.01087 0.37179 0.72261-0.92165-0.69117 0.11105  0 133.24 163.13  247.23 133.30 163.16  247.02
   3  -2   8  4499.0   240.9   1-0.28888 0.67200-0.89720 0.69833 0.33404 0.24648  0 112.21 269.51  145.20 111.88 269.51  145.15
   3  -2   8  4889.7   210.4   2 0.00027 0.38243-0.99407 0.79497 0.10871 0.47092  0 113.62 226.08  104.07 113.41 226.12  104.15
   3  -2   8  3840.4   252.8   2-0.23232 0.61482 0.55989-0.75883 0.79533-0.21488  0 264.42 468.10  345.82 264.76 467.82  345.78
   3   2  -8  2381.3   252.9   1-0.58132 0.96421 0.06655 0.13222-0.81095 0.22981  0 468.35 443.51   45.73 468.63 443.52   45.83
   3   2  -8  4427.0   308.0   2 0.11046 0.27225-0.76145 0.96043-0.63874 0.05870  0 332.46 480.08  150.78 332.39 479.79  150.73
   3   2  -8  4609.9   243.5   2-0.09610 0.47866 0.97941-0.78033-0.17756-0.40246  0 129.45 171.24  280.82 129.48 171.32  280.97
   3   2   8  4545.8   195.9   2-0.13877 0.52148-0.63506 0.83407 0.75989-0.17998  0 112.26 237.76   59.81 111.96 237.79   59.64
   3   2   8  4249.5   215.9   2-0.16438 0.54688 0.95923-0.76029 0.22990 0.35055  0 252.48 463.48  305.02 252.44 463.15  304.87
  -3  -2   9 18906.2   375.5   1-0.58072 0.19759-0.80568 0.60681-0.11681 0.76990  0 154.16  92.67  113.49 154.09  92.88  113.53
  -3  -2   9 24422.8   508.2   2-0.00937-0.37332-0.98675 0.78766 0.16195 0.49013  0 242.12  28.38  101.01 242.03  28.66  100.99
  -3   2  -9 19102.2   491.0   2-0.10953-0.27302 0.98864-0.78956-0.10293-0.54959  2 316.56   7.35  285.30 316.71   7.64  285.35
  -3   2   9 23680.7   503.7   2-0.10828-0.27443-0.76249 0.96150 0.63787 0.01453  0 232.57  32.81   69.97 232.42  33.13   69.93
   3  -2  -9 22591.6   474.7   2 0.00948 0.37318 0.72814-0.92718-0.68537 0.03273  0 118.40 143.79  247.47 118.10 143.86  247.48
   3  -2   9 20809.0   464.0   1-0.27074 0.65387-0.89455 0.69568 0.35563 0.29746  0  90.48 258.63  146.78  90.15 258.63  146.77
   3  -2   9 24423.4   429.4   2-0.01186 0.39456-0.98448 0.78538 0.17511 0.47697  0  93.62 215.50  100.15  93.30 215.62  100.21
   3  -2   9 18326.2   425.9   2-0.23120 0.61370 0.58015-0.77909 0.78101-0.12800  0 267.87 498.69  344.39 268.19 498.52  344.36
   3   2  -9 11264.2   376.4   1-0.59278 0.97566 0.03942 0.15935-0.80440 0.15063  0 492.30 474.58   47.50 492.62 474.76   47.56
   3   2  -9 21539.2   462.2   2-0.08745 0.47001 0.97068-0.77160-0.22389-0.42863  0 114.21 152.19  278.16 113.92 152.11  278.23
   3   2   9 23825.9   413.7   2-0.13536 0.51806-0.65111 0.85012 0.74682-0.09441  0  91.81 227.17   60.95  91.49 227.26   60.85
   3   2   9 15103.0   369.7   2-0.17220 0.55470 0.94379-0.74484 0.28217 0.37084  0 255.31 494.39  308.00 255.42 493.88  308.03
  -3  -2  10 605.119 148.592   1-0.53262 0.14949-0.84607 0.64720-0.02186 0.74752  0 137.79  70.16  119.92 137.76  69.95  120.05
  -3   2  10 762.439 216.283   2-0.10915-0.27355-0.75924 0.95824 0.64159 0.08330  2 213.62   8.39   69.53 213.49   7.99   69.64
   3  -2 -10 957.718 192.148   2 0.00954 0.37312 0.72790-0.92694-0.68562-0.03953  0 100.40 122.35  247.49 100.28 122.25  247.46
   3  -2  10 696.746 169.891   1-0.25028 0.63341-0.89081 0.69194 0.37923 0.34643  0  65.84 246.64  148.49  65.74 246.66  148.57
   3  -2  10 875.109 144.574   2-0.02355 0.40626-0.97133 0.77232 0.23656 0.48833  0  70.18 204.33   96.70  70.05 204.38   96.54
   3   2 -10 876.561 182.772   2-0.07897 0.46152 0.95994-0.76086-0.26885-0.45617  0  95.65 130.69  275.54  95.72 130.77  275.53
   3   2  10 619.338 133.576   2-0.13410 0.51680-0.65693 0.85594 0.74193-0.01704  0  67.90 216.41   61.32  67.99 216.26   61.29
  -3  -2  11  2046.5   211.6   1-0.48096 0.09783-0.87416 0.67529 0.06718 0.73103  0 119.03  42.36  126.24 118.80  42.21  126.16
   3  -2 -11  2546.6   275.5   2 0.01076 0.37190 0.72305-0.92209-0.69071-0.10696  0  79.04  97.41  247.37  79.00  97.51  247.05
   3  -2  11  2248.8   280.0   1-0.22764 0.61077-0.88596 0.68711 0.40406 0.39351  0  37.85 233.27  150.47  37.76 233.34  150.51
   3  -2  11  2753.2   261.5   2-0.03448 0.41719-0.95534 0.75634 0.29349 0.50390  0  43.02 192.22   93.23  42.89 192.26   93.08
   3   2 -11  2348.2   258.1   2-0.07048 0.45304 0.94723-0.74815-0.31272-0.48480  0  74.25 106.50  272.67  74.07 106.48  272.86
   3   2  11  2279.7   240.9   2-0.13448 0.51719-0.65516 0.85417 0.74342 0.05396  0  40.62 204.64   60.95  40.53 204.60   61.16
  -3  -3   0 -11.925  50.489   1-0.49429 0.11140 0.23983-0.53799-0.83556 0.83556  0 187.58 223.02   34.50 187.42 222.93   34.62
  -3  -3   0 -16.452  49.260   2-0.21243-0.17022-0.12214-0.17627 0.96951-0.96951  0 444.68 253.65   27.51 444.92 253.53   27.18
  -3  -3   0  18.040  51.669   2 0.12635-0.50907-0.55662 0.25814-0.82111 0.82111  0 347.90 134.06  166.48 347.83 134.25  166.52
  -3   3   0  30.814  52.168   1-0.69846 0.31553-0.50180 0.80006-0.51024 0.51024  0 370.56 142.15   83.87 370.51 142.40   83.94
  -3   3   0  24.939  61.873   2-0.22834-0.15431 0.10174 0.19667 0.96825-0.96825  0 328.31 130.68   14.49 328.21 130.55   14.29
  -3   3   0  10.092  57.542   2 0.06112-0.44378 0.47283-0.17427-0.87903 0.87903  0 443.95 274.56  228.96 443.69 274.59  228.78
   3  -3   0   9.679  41.147   1-0.39136 0.77449-0.89782 0.59951 0.20187-0.20187  0 236.39 361.92  135.48 236.39 361.71  135.55
   3  -3   0   4.495  60.372   2-0.14863 0.53133-0.58512 0.28661 0.79721-0.79721  0 267.71 378.16   56.05 267.49 378.35   56.02
   3  -3   0 -62.504  40.908   2 0.12639 0.25633-0.23255-0.06593-0.96434 0.96434  0 182.13 248.78  187.43 182.27 248.98  187.00
   3   3   0  -8.039  80.975   1-0.18686 0.56975 0.63489-0.33674-0.74966 0.74966  0 437.68 300.62    5.49 437.78 300.72    5.22
   3   3   0   9.950  37.609   2 0.08828 0.29438 0.28135 0.01721-0.95553 0.95553  0 249.34 369.86  216.59 249.33 369.97  216.83
   3   3   0   6.302  33.617   2-0.22406 0.60656 0.68154-0.38313 0.69663-0.69663  0 182.28 267.60  336.70 182.36 267.42  336.74
  -3  -3  -1  1423.2   117.0   1-0.42715 0.04426 0.34808-0.64623-0.83450 0.76185  0 183.42 232.73   27.07 183.53 232.75   27.32
  -3  -3  -1  2346.8   113.3   2-0.18133-0.20132-0.39034 0.09194 0.90264-0.97520  0 446.59 248.76   43.10 446.85 248.95   43.14
  -3  -3  -1  1964.3   107.3   2 0.12891-0.51163-0.34265 0.04417-0.93058 0.85807  0 352.48 133.50  180.31 352.58 133.67  180.40
  -3  -3   1  1424.7   112.4   1-0.55949 0.17660 0.11473-0.41288-0.82086 0.89350  0 189.18 212.90   42.92 189.21 212.95   42.74
  -3  -3   1  2146.2   118.7   2-0.22957-0.15308 0.12572-0.42412 0.96514-0.89257  0 447.00 262.04   13.04 447.09 262.16   12.90
  -3  -3   1  2059.4   115.7   2 0.11538-0.49810-0.71808 0.41960-0.68633 0.75883  0 340.45 130.57  154.31 340.58 130.69  154.44
  -3   3  -1  1671.4   111.8   1-0.68766 0.30474-0.58409 0.88235-0.43122 0.35861  0 390.78 151.66   90.47 390.89 151.82   90.49
  -3   3  -1  2380.2   127.0   2 0.08794-0.47061 0.28414 0.01443-0.95474 0.88223  0 446.13 270.88  217.19 446.28 270.97  217.00
  -3   3   1  1430.9    81.3   1-0.69368 0.31076-0.33108 0.62934-0.63968 0.71230  0 349.60 132.56   71.79 349.42 132.71   71.64
  -3   3   1  2114.8   130.7   2-0.21378-0.16886-0.10690 0.40531 0.97101-0.89845  0 321.94 128.09   25.76 321.97 128.21   26.30
  -3   3   1  2443.7   133.0   2 0.03177-0.41443 0.63208-0.33351-0.77425 0.84677  0 444.60 281.77  240.11 444.74 281.81  239.86
   3  -3  -1  2068.4    80.8   1-0.33388 0.71701-0.90056 0.60225 0.27843-0.35100  0 253.96 374.11  140.99 253.83 373.98  141.04
   3  -3  -1  2288.0   128.1   2-0.11893 0.50163-0.72150 0.42299 0.68213-0.75462  0 273.16 382.08   66.19 273.26 381.99   66.42
   3  -3  -1  2116.6   107.7   2 0.11560 0.26706-0.01392-0.28464-0.99320 0.92068  0 181.52 243.08  199.76 181.41 243.10  199.64
   3  -3   1  1786.3   104.0   1-0.41393 0.79706-0.89430 0.59599 0.16998-0.09741  0 220.54 350.57  133.08 220.51 350.51  133.29
   3  -3   1  2206.8   121.8   2-0.17781 0.56046-0.41430 0.11590 0.89260-0.82003  0 263.53 378.70   44.75 263.57 378.55   44.64
   3  -3   1  1937.4    98.5   2 0.12884 0.25387-0.45255 0.15407-0.88238 0.95489  0 180.73 252.26  173.61 180.63 252.17  173.48
   3   3  -1  1481.2   144.4   1-0.26651 0.64940 0.55385-0.25569-0.78881 0.71617  0 434.94 312.82   12.11 435.05 312.78   12.11
   3   3  -1  1301.1    95.6   2 0.11343 0.26923 0.01666 0.28191-0.99341 0.92089  0 255.87 375.26  201.19 255.83 375.03  201.41
   3   3  -1  1715.8    91.4   2-0.20876 0.59126 0.80557-0.50716 0.55451-0.62706  0 180.55 260.19  325.89 180.62 260.15  325.83
   3   3   1  2219.5    93.9   2 0.04895 0.33371 0.54402-0.24546-0.83764 0.91016  0 245.11 369.47  233.48 244.90 369.28  233.55
   3   3   1  1800.3    84.2   2-0.23467 0.61715 0.50150-0.20322 0.83272-0.76015  0 181.30 271.64  349.81 181.30 271.53  349.69
  -3  -3  -2  -1.149  41.656   1-0.36351-0.01937 0.43732-0.73547-0.82256 0.67728  0 177.25 242.11   21.01 177.69 242.48   21.01
  -3  -3  -2  19.343  92.894   1 0.02294-0.40606-0.76994 0.47167 0.63770-0.78271  0 452.31 237.74  171.48 452.61 237.87  171.34
  -3  -3  -2  14.986  52.407   2-0.14113-0.24157-0.62265 0.32414 0.76967-0.91464  0 453.33 248.96   58.46 453.27 248.70   58.73
  -3  -3  -2 -32.701  48.636   2 0.12106-0.50377-0.10552-0.19296-0.98702 0.84201  0 354.57 128.36  194.42 354.52 128.49  194.42
  -3  -3   2 -40.984  53.785   1-0.61676 0.23383-0.02162-0.27664-0.78685 0.93209  0 188.99 202.69   51.41 188.87 202.62   51.45
  -3  -3   2  49.125  59.947   2 0.10071-0.48341-0.82706 0.52841-0.55302 0.69792  0 331.48 123.67  144.58 331.42 123.68  144.48
  -3   3  -2  43.472  80.153   1-0.67773 0.29480-0.62693 0.92519-0.38425 0.23901  0 411.80 161.11   94.60 411.74 161.08   94.18
  -3   3  -2  11.021  61.365   2 0.10808-0.49074 0.08720 0.21136-0.99031 0.84528  0 452.81 271.01  205.52 452.78 271.12  205.45
  -3   3  -2 -28.351  62.021   2-0.23365-0.14885 0.52737-0.22896 0.81688-0.96199  0 334.09 124.14  348.08 333.96 124.21  348.03
  -3   3   2  40.094  27.759   1-0.56393 0.18105 0.10525 0.19291-0.81909 0.96437  0 323.45 123.12   43.93 323.10 123.06   43.35
  -3   3   2 -77.652  67.265   2-0.19592-0.18673-0.27866 0.57707 0.94019-0.79506  0 314.21 122.73   36.49 313.94 122.81   36.35
  -3   3   2   2.317  66.467   2 0.00316-0.38571 0.75308-0.45446-0.65792 0.80293  0 448.72 292.33  249.91 448.94 292.28  249.64
   3  -3  -2  12.651  29.038   1-0.15518 0.53830-0.86327 0.56500 0.48029-0.62531  0 276.86 388.31  156.93 276.79 388.01  156.67
   3  -3  -2  88.838  67.717   2-0.09125 0.47395-0.82070 0.52219 0.56402-0.70900  0 280.85 389.41   75.37 280.67 389.13   75.41
   3  -3  -2 -29.533  44.997   2 0.10012 0.28254 0.17443-0.47299-0.97957 0.83454  0 178.40 234.98  210.17 178.36 234.78  210.52
   3  -3   2  69.145  54.091   1-0.42072 0.80385-0.89295 0.59464 0.16009-0.01496  0 204.85 339.90  132.42 205.11 340.03  132.60
   3  -3   2 -33.569  59.150   2-0.20209 0.58473-0.22544-0.07297 0.95307-0.80794  0 261.76 382.99   33.43 261.58 382.96   33.21
   3  -3   2  18.880  40.556   2 0.12186 0.26086-0.64153 0.34305-0.75736 0.90237  0 176.19 252.44  160.33 176.37 252.52  160.42
   3   3  -2   8.122  86.385   1-0.33927 0.72215 0.46854-0.17038-0.81570 0.67042  0 435.66 325.46   18.24 435.57 325.43   18.71
   3   3  -2  65.838  62.807   2 0.12556 0.25716-0.20296 0.50144-0.97110 0.82609  0 263.44 383.63  189.10 263.82 383.64  188.74
   3   3  -2 -12.154  42.512   2-0.19247 0.57497 0.88375-0.58534 0.42655-0.57166  0 176.56 250.26  316.81 176.60 250.50  317.13
   3   3   2  19.359  37.461   2-0.23482 0.61747 0.27792 0.02048 0.93146-0.78633  0 176.96 272.01    4.01 177.00 272.09    3.94
   3   3   2  46.510  40.838   2 0.00470 0.37796 0.74677-0.44821-0.66507 0.81010  0 242.57 373.45  249.22 242.79 373.46  249.09
  -3  -3  -3 705.102  94.952   1-0.30687-0.07602 0.50785-0.80600-0.80494 0.58701  0 170.04 252.25   15.62 170.02 252.26   15.73
  -3  -3  -3 974.074 135.559   1-0.05704-0.32609-0.81832 0.52005 0.57192-0.78944  0 464.60 249.96  164.80 464.78 249.91  164.79
  -3  -3  -3 934.038 106.565   2-0.10125-0.28145-0.78718 0.48867 0.60836-0.82583  0 464.26 252.39   72.28 464.32 252.48   72.16
  -3  -3  -3  1050.2   111.6   2 0.10597-0.48863 0.11047-0.40904-0.98821 0.77067  0 354.01 118.86  206.76 353.87 118.97  206.80
  -3  -3   3 637.636  87.840   1-0.66087 0.27795-0.16139-0.13687-0.73294 0.95080  0 186.37 191.92   60.20 186.35 191.88   60.39
  -3  -3   3 905.791 102.527   2 0.08516-0.46785-0.89757 0.59892-0.43256 0.64993  0 320.91 114.19  136.31 320.91 114.24  136.47
  -3  -3   3 762.367  96.518   2-0.23601-0.14647 0.45539-0.75367 0.85844-0.64072  0 461.22 288.74  353.00 461.13 288.82  352.73
  -3   3  -3 837.108 110.287   1-0.67119 0.28827-0.64894 0.94720-0.35830 0.14044  0 433.79 170.04   96.34 433.90 170.24   96.16
  -3   3  -3 947.812  97.729   2 0.12030-0.50302-0.09222 0.39070-0.98845 0.77093  0 463.03 274.71  195.19 463.30 274.89  195.18
  -3   3  -3 881.416 100.141   2-0.22328-0.15922 0.68985-0.39144 0.68866-0.90633  0 333.45 115.30  336.25 333.55 115.29  336.07
  -3   3   3  1066.9   115.2   2-0.17875-0.20389-0.40832 0.70673 0.89517-0.67747  0 304.38 114.50   44.38 304.42 114.77   44.26
  -3   3   3  1081.1   116.6   2-0.02295-0.35961 0.83954-0.54092-0.54281 0.76032  0 456.16 305.45  258.25 456.08 305.56  258.03
   3  -3  -3  1211.5   136.5   2-0.06679 0.44949-0.88918 0.59067 0.45265-0.67012  0 289.44 399.49   83.24 289.49 399.38   83.00
   3  -3  -3  1157.5   108.3   2 0.08340 0.29926 0.32062-0.61919-0.94353 0.72598  0 173.54 224.67  219.29 173.46 224.63  219.21
   3  -3   3 719.347  90.753   1-0.41869 0.80182-0.89337 0.59506 0.16306 0.05464  0 189.76 330.06  132.68 189.69 330.08  132.80
   3  -3   3 919.903 114.064   2-0.21897 0.60162-0.04362-0.25479 0.97476-0.75706  0 261.37 391.55   22.64 261.34 391.34   22.65
   3  -3   3 870.704  90.920   2 0.10771 0.27499-0.78221 0.48357-0.61363 0.83099  0 169.71 250.18  149.46 169.59 250.18  148.81
   3   3  -3 611.786 109.702   1-0.40247 0.78536 0.38404-0.08589-0.83098 0.61306  0 439.31 338.98   24.66 439.39 338.99   24.82
   3   3  -3 988.931 103.280   2 0.12911 0.25361-0.36391 0.66239-0.92244 0.70492  0 273.24 395.34  179.21 273.15 395.25  179.10
   3   3  -3 842.522  96.689   2-0.17728 0.55977 0.93186-0.63345 0.31656-0.53423  0 170.81 239.19  309.97 170.77 239.15  310.16
   3   3   3 928.381  78.451   2-0.22567 0.60832 0.05369 0.24471 0.97272-0.75503  0 169.91 269.44   17.12 169.82 269.38   17.05
   3   3   3  1066.7    87.3   2-0.03511 0.41766 0.87294-0.57432-0.48656 0.70407  0 242.79 382.47  261.88 242.72 382.28  261.84
  -3  -3  -4 32783.6   454.8   1-0.25909-0.12380 0.56184-0.86000-0.78562 0.49506  0 160.53 262.24   11.44 160.56 262.25   11.46
  -3  -3  -4 50036.0   568.7   1-0.13267-0.25046-0.85436 0.55608 0.50247-0.79249  0 480.16 262.65  158.62 480.26 262.61  158.55
  -3  -3  -4 56784.9   458.9   2-0.06674-0.31597-0.88930 0.59079 0.45242-0.74238  0 479.44 259.53   82.62 479.71 259.62   83.02
  -3  -3  -4 52861.5   443.3   2 0.08846-0.47112 0.27994-0.57850-0.95594 0.66587  0 351.52 105.45  216.89 351.48 105.66  216.75
  -3  -3   4 34944.2   427.8   1-0.68894 0.30601-0.29617-0.00209-0.66155 0.95203  0 181.80 180.41   69.01 181.71 180.47   69.27
  -3  -3   4 50074.2   499.2   2 0.07048-0.45318-0.94250 0.64385-0.32670 0.61651  0 309.25 102.62  129.80 309.41 102.72  129.84
  -3  -3   4 44548.6   472.5   2-0.23293-0.14957 0.54586-0.84427 0.80485-0.51463  0 472.12 305.68  346.89 472.31 305.65  346.76
  -3   3  -4 38862.1   480.6   1-0.66799 0.28506-0.65862 0.95688-0.34643 0.05595  0 457.99 179.24   96.99 458.06 179.45   97.06
  -3   3  -4 46494.5   449.0   2 0.12656-0.50928-0.23794 0.53641-0.96300 0.67298  0 477.55 281.55  186.75 477.73 281.79  186.69
  -3   3  -4 43090.8   436.2   2-0.20863-0.17387 0.80632-0.50791 0.55346-0.84368  0 331.54 102.79  325.81 331.41 102.99  325.76
  -3   3   4 54995.6   541.7   2-0.16395-0.21875-0.50050 0.79901 0.85007-0.56011  0 293.55 104.36   49.90 293.72 104.59   50.23
  -3   3   4 51460.1   526.1   2-0.04597-0.33658 0.89908-0.60047-0.43536 0.72536  0 465.81 321.46  264.99 465.87 321.44  265.18
   3  -3  -4 55651.3   531.6   2 0.06816 0.31451 0.42765-0.72621-0.90137 0.61131  0 166.98 212.94  226.04 166.92 212.92  225.87
   3  -3   4 39190.8   470.0   1-0.41099 0.79412-0.89486 0.59655 0.17409 0.11617  0 173.94 320.52  133.56 173.90 320.45  133.58
   3  -3   4 47238.3   442.0   2-0.22884 0.61148 0.11152-0.40993 0.96706-0.67680  0 262.33 403.64   13.76 262.40 403.43   13.72
   3  -3   4 50763.9   452.3   2 0.09038 0.29232-0.87710 0.57845-0.47172 0.76154  0 160.58 245.80  138.66 160.50 245.73  139.00
   3   3  -4 30181.8   409.4   1-0.45490 0.83779 0.30548-0.00733-0.83651 0.54594  0 446.33 353.85   30.02 446.52 353.88   30.24
   3   3  -4 49659.3   490.2   2 0.12850 0.25422-0.47510 0.77358-0.87050 0.58048  0 283.56 409.74  171.79 283.55 409.52  172.02
   3   3  -4 42447.8   447.4   2-0.16323 0.54572 0.96116-0.66274 0.22257-0.51279  0 163.47 226.59  304.53 163.43 226.56  304.41
   3   3   4 51842.4   418.0   2-0.21125 0.59389-0.13505 0.43346 0.96806-0.67780  0 160.18 264.32   27.98 160.10 264.25   27.93
   3   3   4 49876.5   408.9   2-0.06712 0.44968 0.94161-0.64299-0.32995 0.61996  0 244.24 395.37  271.96 244.04 395.08  271.81
  -3  -3  -5  2706.3   168.6   1-0.22050-0.16239 0.60195-0.90011-0.76748 0.40427  0 149.47 272.60    8.08 149.41 272.57    8.10
  -3  -3  -5  3926.5   245.2   1-0.20270-0.18042-0.87920 0.58093 0.43118-0.79371  0 499.27 276.51  152.90 499.28 276.33  152.65
  -3  -3  -5  4380.9   183.8   2-0.03891-0.34380-0.94806 0.64955 0.31570-0.67815  0 499.01 269.46   91.88 499.26 269.51   91.71
  -3  -3  -5  4650.4   190.6   2 0.07219-0.45485 0.40155-0.70011-0.91299 0.55041  0 347.90  88.84  224.18 347.84  89.08  224.22
  -3  -3   5  2980.0   165.4   1-0.70011 0.31718-0.42004 0.12178-0.57742 0.94051  0 175.03 168.08   77.82 175.02 168.22   77.87
  -3  -3   5  4172.6   217.9   2 0.05709-0.43979-0.97067 0.67203-0.23353 0.59579  0 296.93  89.20  124.19 297.08  89.34  124.19
  -3  -3   5  3624.1   208.9   2-0.22986-0.15263 0.60578-0.90419 0.76171-0.39893  0 485.71 324.89  342.54 486.01 324.87  342.51
  -3   3  -5  3286.7   223.5   1-0.66743 0.28450-0.66024 0.95849-0.34442-0.01868  0 484.85 188.87   97.19 484.95 188.96   97.21
  -3   3  -5  4210.6   197.5   2 0.12896-0.51168-0.34781 0.64628-0.92865 0.56612  0 495.97 291.29  180.00 496.16 291.45  180.09
  -3   3  -5  3531.3   198.6   2-0.19221-0.19029 0.88472-0.58631 0.42464-0.78742  0 328.10  87.37  316.98 328.01  87.58  317.00
  -3   3   5  4519.6   224.2   2-0.15240-0.23030-0.56519 0.86370 0.81076-0.44832  0 281.82  92.19   54.63 281.97  92.35   54.63
  -3   3   5  3980.5   223.9   2-0.06579-0.31676 0.93920-0.64058-0.33700 0.69951  0 478.08 339.91  271.31 478.23 339.96  271.38
   3  -3  -5  4603.3   228.4   2-0.02787 0.41057-0.96536 0.66685 0.25944-0.62189  0 310.86 428.53   95.00 310.88 428.43   95.15
   3  -3  -5  4615.2   197.9   2 0.05602 0.32664 0.50389-0.80245-0.86195 0.49937  0 158.98 199.88  230.83 158.88 199.88  230.83
   3  -3   5  3507.6   184.0   1-0.39934 0.78247-0.89675 0.59844 0.19072 0.17210  0 157.43 311.05  134.80 157.46 311.00  134.75
   3  -3   5  3838.7   185.5   2-0.23370 0.61634 0.23299-0.53140 0.94398-0.58116  0 264.31 419.15    6.72 264.41 418.89    6.61
   3  -3   5  4251.4   162.6   2 0.07278 0.30992-0.93664 0.63799-0.34266 0.70493  0 149.37 239.65  130.73 149.32 239.63  130.82
   3   3  -5  2488.9   208.3   1-0.49644 0.87933 0.23606 0.06209-0.83536 0.47215  0 456.89 370.51   34.82 457.02 370.52   34.87
   3   3  -5  3357.0   165.8   2-0.15051 0.53301 0.97857-0.68016 0.14049-0.50327  0 154.80 212.91  299.63 154.68 212.88  299.54
   3   3   5  4299.9   148.3   2-0.19610 0.57874-0.27711 0.57551 0.94061-0.57779  0 148.30 257.53   36.10 148.26 257.50   36.26
   3   3   5  3914.9   150.6   2-0.09187 0.47443 0.97539-0.67677-0.20042 0.56293  0 246.41 411.57  279.74 246.20 411.25  279.62
  -3  -3  -6  5503.7   232.5   1-0.19100-0.19189 0.63097-0.92912-0.75193 0.31608  0 136.53 283.39    5.61 136.54 283.45    5.57
  -3  -3  -6  8664.2   255.5   2 0.05918-0.44184 0.48451-0.78307-0.87278 0.43769  0 343.41  69.16  229.52 343.40  69.41  229.54
  -3  -3   6  5929.1   221.6   1-0.69596 0.31303-0.52903 0.23077-0.48557 0.92128  0 166.46 154.81   85.99 166.30 154.87   86.04
  -3  -3   6  7968.1   284.2   2 0.04419-0.42689-0.98753 0.68888-0.15112 0.58584  0 283.68  73.85  119.15 283.87  74.02  119.32
  -3  -3   6  6473.8   282.6   2-0.22720-0.15530 0.64445-0.94286 0.73011-0.29478  2 502.35 346.83  339.73 502.56 346.80  339.64
  -3   3  -6  6666.9   250.0   2-0.17599-0.20651 0.93509-0.63668 0.30763-0.74296  0 323.72  68.86  309.66 323.65  69.07  309.61
  -3   3   6  8828.2   305.0   2-0.14386-0.23885-0.60923 0.90774 0.77983-0.34490  0 268.99  77.99   58.01 269.17  78.11   57.75
  -3   3   6  7802.5   302.5   2-0.08303-0.29953 0.96533-0.66671-0.24747 0.68248  0 493.43 361.32  277.01 493.41 361.35  276.82
   3  -3  -6  9015.1   306.2   2-0.01220 0.39490-0.98414 0.68550 0.17696-0.61168  0 323.44 447.56   99.93 323.48 447.35  100.10
   3  -3  -6  8592.1   264.6   2 0.04660 0.33606 0.55679-0.85535-0.82935 0.39426  0 149.34 185.52  234.44 149.30 185.54  234.43
   3  -3   6  6859.3   252.2   1-0.38461 0.76774-0.89858 0.60027 0.21124 0.22415  0 140.03 301.62  136.04 140.06 301.56  136.21
   3  -3   6  8276.6   228.3   2 0.05637 0.32632-0.97182 0.67318-0.22886 0.66359  0 136.19 232.31  124.28 136.11 232.29  123.91
   3   3  -6  4479.6   241.1   1-0.52809 0.91098 0.17783 0.12033-0.83036 0.39451  0 470.90 389.63   38.65 471.11 389.61   38.67
   3   3  -6  7986.5   281.5   2 0.12436 0.25835-0.59984 0.89832-0.79040 0.35536  0 307.35 446.39  163.51 307.33 446.19  163.47
   3   3  -6  6834.5   236.0   2-0.13875 0.52130 0.98799-0.68937 0.06799-0.50300  0 144.48 198.15  295.26 144.47 198.08  295.31
   3   3   6  8646.4   216.8   2-0.18322 0.56586-0.37737 0.67577 0.90776-0.47237  0 134.52 249.78   42.18 134.47 249.69   42.34
   3   3   6  7447.0   213.7   2-0.11126 0.49382 0.98942-0.69080-0.09314 0.52815  0 249.01 430.95  286.34 248.78 430.61  285.92
  -3  -3  -7  1353.6   163.3   1-0.16949-0.21339 0.65101-0.94916-0.73990 0.23141  0 122.17 294.95    3.64 121.83 295.08    3.75
  -3  -3  -7  1601.3   173.2   2 0.04980-0.43246 0.53934-0.83790-0.84061 0.33301  0 338.67  46.34  233.19 338.47  46.51  233.23
  -3  -3   7  1124.0   131.5   1-0.67917 0.29624-0.62155 0.32329-0.39040 0.89874  0 155.65 140.17   93.64 155.66 140.08   93.70
  -3  -3   7  1581.7   196.2   2 0.03219-0.41488-0.99654 0.69789-0.07662 0.58380  0 269.65  56.40  114.68 269.70  56.62  114.96
  -3   3  -7  1428.6   173.0   2-0.16017-0.22233 0.96607-0.66766 0.20260-0.71049  0 318.67  47.02  303.31 318.65  47.25  303.22
  -3   3   7  1191.5   165.5   2-0.13808-0.24463-0.63837 0.93688 0.75724-0.24982  0 255.27  61.73   60.17 255.21  61.70   59.89
   3  -3  -7  1426.2   193.2   2 0.00166 0.38103-0.99487 0.69622 0.10118-0.60835  0 337.70 470.20  104.63 337.61 469.96  104.58
   3  -3  -7  1536.9   187.7   2 0.03979 0.34287 0.59268-0.89125-0.80445 0.29685  0 138.03 169.74  236.69 138.08 169.78  236.97
   3  -3   7  1241.6   153.9   1-0.36742 0.75055-0.89996 0.60165 0.23467 0.27329  0 121.68 292.03  137.79 121.37 291.95  137.88
   3  -3   7  1255.9   147.3   2 0.04061 0.34209-0.99091 0.69226-0.12823 0.63541  0 121.06 223.83  118.34 120.84 223.95  117.99
   3  -3   7  1299.4   165.5   2-0.23685 0.61933 0.38702-0.68531 0.89113-0.38312  0 269.64 460.23  357.25 269.68 460.02  357.09
   3   3  -7  1031.9   176.5   1-0.55138 0.93427 0.13166 0.16650-0.82380 0.31531  0 489.05 411.95   41.67 489.11 411.97   41.66
   3   3  -7  1709.3   201.7   2 0.12249 0.26023-0.63206 0.93054-0.76518 0.25763  0 321.02 469.61  161.26 321.00 469.41  161.13
   3   3  -7  1397.1   167.9   2-0.12752 0.51007 0.99183-0.69322 0.00168-0.50919  0 132.76 182.20  291.42 132.68 182.14  291.44
   3   3   7  1636.0   142.8   2-0.17313 0.55577-0.44596 0.74436 0.87815-0.37020  0 118.89 241.18   46.72 118.68 241.07   46.66
   3   3   7  1300.9   159.4   2-0.12686 0.50941 0.99192-0.69330-0.00222 0.50974  0 251.68 453.73  290.71 251.44 453.32  291.21
  -3  -3  -8  51.055 111.188   1-0.15512-0.22777 0.66387-0.96202-0.73158 0.15045  0 105.04 307.82    2.57 105.02 307.78    2.54
  -3  -3  -8 158.041 160.171   2 0.04334-0.42600 0.57450-0.87306-0.81736 0.23723  0 332.80  20.40  235.62 333.22  19.87  235.67
  -3  -3   8  -3.054 105.174   1-0.65290 0.26977-0.69727 0.39896-0.29586 0.87639  0 142.91 123.33  100.95 142.91 123.47  100.81
  -3  -3   8 133.223 142.569   2 0.02073-0.40343-0.99975 0.70110-0.00833 0.58796  0 254.36  36.71  110.93 254.32  36.72  110.99
  -3   3  -8 144.121 165.360   2-0.14556-0.23699 0.98330-0.68468 0.10922-0.68923  0 312.94  21.86  297.40 313.18  21.71  297.73
  -3   3   8  16.154 133.305   2-0.13421-0.24849-0.65640 0.95491 0.74238-0.16246  0 239.76  42.15   60.96 239.86  42.85   61.25
   3  -3  -8 -97.603 189.235   2 0.01409 0.36861-0.99942 0.70077 0.03115-0.61078  0 353.62 497.79  108.72 353.70 497.04  108.69
   3  -3  -8 180.057 121.128   2 0.03512 0.34754 0.61600-0.91457-0.78696 0.20684  0 125.43 152.40  238.62 124.96 152.36  238.66
   3  -3   8  92.028 119.379   1-0.34799 0.73112-0.90067 0.60237 0.26017 0.32035  0 101.29 282.02  139.45 101.00 281.96  139.72
   3  -3   8  -5.147  92.360   2 0.02594 0.35675-0.99891 0.70027-0.03872 0.61835  0 103.37 214.56  112.51 103.26 214.73  112.75
   3  -3   8  99.966 149.097   2-0.23638 0.61886 0.43177-0.73006 0.87046-0.28987  0 272.96 485.83  353.89 272.72 486.49  354.25
   3   3  -8 112.437 191.817   2 0.12113 0.26158-0.65187 0.95035-0.74859 0.16854  0 336.28 497.39  159.41 336.33 496.98  159.64
   3   3  -8  71.817 113.425   2-0.11705 0.49961 0.99132-0.69270-0.05987-0.52015  0 119.42 164.84  288.07 119.00 164.77  287.85
   3   3   8  20.736  81.989   2-0.16550 0.54820-0.49125 0.78976 0.85515-0.27524  0 100.83 232.12   49.55 100.67 231.94   49.62
   3   3   8  34.157 112.299   2-0.14034 0.52289 0.98707-0.68845 0.07741 0.50260  0 253.98 479.78  295.56 253.92 479.86  295.87
  -3  -3  -9  48.252 119.680   1-0.14713-0.23576 0.67091-0.96906-0.72680 0.07302  0  86.12 321.80    1.40  85.75 321.92    1.87
  -3  -3   9  -1.421 118.876   1-0.61861 0.23548-0.75913 0.46082-0.20259 0.85568  0 128.04 104.35  107.43 128.02 104.22  107.53
  -3  -3   9 -20.926 155.571   2 0.00985-0.39254-0.99842 0.69978 0.05524 0.59684  0 237.42  12.88  107.53 237.37  13.75  107.28
  -3   3   9  63.793 164.908   2-0.13205-0.25066-0.66612 0.96463 0.73407-0.08166  0 222.96  21.03   61.50 222.78  20.97   61.99
   3  -3  -9  51.432 145.131   2 0.03223 0.35043 0.62986-0.92843-0.77604 0.12340  0 110.02 133.09  240.05 109.54 132.91  239.69
   3  -3   9 -69.269 120.527   1-0.32675 0.70988-0.90032 0.60201 0.28750 0.36558  0  78.62 271.43  141.40  78.40 271.33  141.71
   3  -3   9 172.481 109.087   2 0.01220 0.37050-0.99904 0.70039 0.04202 0.61006  0  82.74 204.72  108.50  82.95 204.67  108.06
   3   3  -9 -29.954 135.833   2-0.10693 0.48948 0.98729-0.68867-0.11760-0.53492  0 103.02 145.30  284.54 103.07 145.57  284.49
   3   3   9  97.429  97.479   2-0.16053 0.54323-0.52010 0.81861 0.83888-0.18648  0  79.96 222.17   51.40  79.95 222.10   51.54
  -3  -3 -10 953.606 174.268   1-0.14467-0.23822 0.67306-0.97121-0.72530-0.00112  0  63.62 337.71    1.79  63.44 338.05    1.67
  -3  -3  10  1756.2   204.2   1-0.57858 0.19545-0.80786 0.50955-0.11230 0.83795  0 110.61  81.28  113.67 110.48  81.57  113.84
   3  -3 -10  1914.4   240.0   2 0.03085 0.35181 0.63640-0.93496-0.77075 0.04559  0  91.17 110.78  239.97  91.22 110.84  240.18
   3  -3  10  1356.9   202.5   1-0.30366 0.68679-0.89881 0.60050 0.31612 0.40954  0  53.28 259.69  143.70  52.84 259.75  143.81
   3  -3  10  1962.3   223.8   2-0.00105 0.38375-0.99324 0.69460 0.11603 0.60850  0  59.73 193.70  103.65  59.28 193.69  103.72
   3   3 -10  1678.6   222.0   2-0.09704 0.47960 0.98023-0.68162-0.17240-0.55262  0  84.01 123.99  281.37  84.23 123.99  281.28
   3   3  10  1795.7   207.1   2-0.15766 0.54036-0.53645 0.83496 0.82908-0.10418  0  56.20 211.45   52.66  55.87 211.62   52.64
  -3  -3 -11 -51.255 168.902   1-0.14708-0.23581 0.67095-0.96911-0.72677-0.07229  0  37.58 356.57    1.58  37.21 356.94    1.87
  -3  -3  11 172.089 178.028   1-0.53458 0.15145-0.84473 0.54642-0.02548 0.82370  0  89.93  54.02  119.92  89.76  54.19  119.80
   3  -3 -11 321.577 222.542   2 0.03071 0.35195 0.63705-0.93562-0.77021-0.02746  0  68.49  84.92  239.90  69.11  85.26  240.23
   3  -3  11 468.764 184.568   1-0.27894 0.66207-0.89585 0.59755 0.34589 0.45233  0  23.01 246.73  146.38  23.35 246.77  146.03
   3  -3  11 233.833 156.746   2-0.01363 0.39632-0.98271 0.68407 0.18463 0.61236  0  31.66 181.45   99.93  31.15 181.60   99.65
   3   3 -11 353.507 199.190   2-0.08726 0.46982 0.97047-0.67185-0.22490-0.57262  0  61.29  98.87  278.46  61.54  99.18  278.17
   3   3  11 262.774 152.592   2-0.15644 0.53914-0.54326 0.84177 0.82486-0.02748  0  27.31 200.42   52.97  27.41 200.33   53.11
  -3  -4   0  7092.2   223.5   1-0.54598 0.16309 0.14270-0.54024-0.82556 0.82556  0 166.38 233.19   40.96 166.43 233.14   40.95
  -3  -4   0  9553.7   220.8   2-0.20644-0.17620-0.18439-0.21348 0.96093-0.96093  0 472.37 275.97   31.20 472.56 276.11   30.80
  -3  -4   0  8883.2   218.4   2 0.12791-0.51063-0.50602 0.10805-0.85299 0.85299  0 334.86 107.90  170.01 335.01 108.12  169.98
  -3   4   0  6694.8   176.4   1-0.68598 0.30305-0.27734 0.67501-0.67269 0.67269  0 387.51 122.73   67.91 387.61 122.96   68.00
  -3   4   0  9561.3   244.5   2-0.23109-0.15155 0.16069 0.23718 0.95957-0.95957  0 311.33 107.20   10.99 311.47 107.41   10.86
  -3   4   0 10260.7   248.7   2 0.06535-0.44802 0.44578-0.04770-0.89275 0.89275  0 466.89 301.05  226.74 467.03 301.09  227.03
   3  -4   0  6931.6   164.0   1-0.50018 0.88331-0.86520 0.46745 0.03529-0.03529  0 222.91 376.37  123.99 222.86 376.21  123.96
   3  -4   0  9488.9   235.2   2-0.15794 0.54064-0.53486 0.13685 0.83005-0.83005  0 281.99 404.87   52.57 282.10 404.77   52.54
   3  -4   0  9221.4   216.7   2 0.12727 0.25545-0.26062-0.13735-0.95702 0.95702  0 166.71 229.28  185.29 166.65 229.13  185.34
   3   4   0  5964.3   236.9   1-0.22376 0.60665 0.59867-0.20113-0.76911 0.76911  0 470.47 289.62    8.34 470.50 289.58    8.38
   3   4   0  9941.6   218.1   2 0.08598 0.29668 0.30031 0.09778-0.94996 0.94996  0 259.47 397.66  217.94 259.57 397.42  217.98
   3   4   0  7726.8   183.3   2-0.22989 0.61239 0.60380-0.20591 0.76327-0.76327  0 164.07 250.18  342.79 164.06 250.14  342.66
  -3  -4  -1 14684.7   308.5   1-0.49461 0.11172 0.23927-0.63680-0.83553 0.76289  0 163.67 243.19   34.72 163.76 243.12   34.66
  -3  -4  -1 19851.3   294.7   2-0.18299-0.19965-0.37901-0.01886 0.90712-0.97969  0 474.97 271.75   42.39 475.25 271.91   42.45
  -3  -4  -1 19398.4   292.0   2 0.12893-0.51164-0.34416-0.05381-0.93002 0.85751  0 339.28 106.67  180.10 339.43 106.90  180.31
  -3  -4   1 14553.7   301.5   1-0.59428 0.21140 0.03577-0.43331-0.80346 0.87610  0 167.09 223.04   47.97 167.14 223.01   47.79
  -3  -4   1 19743.3   306.3   2-0.22231-0.16034 0.00206-0.39994 0.97497-0.90241  0 473.46 283.54   20.00 473.62 283.67   20.01
  -3  -4   1 19428.4   304.9   2 0.12168-0.50439-0.64420 0.24623-0.75512 0.82762  0 328.50 105.66  160.18 328.67 105.87  160.22
  -3   4  -1 14510.0   264.4   1-0.69900 0.31607-0.39242 0.79009-0.59783 0.52521  0 408.24 132.42   75.99 408.35 132.64   75.90
  -3   4  -1 20885.6   327.8   2 0.08612-0.46878 0.29924 0.09885-0.95028 0.87777  0 470.07 297.73  218.00 470.24 297.78  217.92
  -3   4   1 14009.8   202.5   1-0.63877 0.25584-0.08562 0.48330-0.76462 0.83724  0 366.98 112.61   55.56 366.91 112.80   55.52
  -3   4   1 20884.5   336.9   2-0.22204-0.16061-0.00182 0.39969 0.97504-0.90247  0 305.79 105.88   20.00 305.93 106.07   20.24
  -3   4   1 21573.7   341.7   2 0.04252-0.42518 0.57878-0.18070-0.81437 0.88689  0 467.05 307.54  236.22 467.21 307.54  235.97
   3  -4  -1 14975.1   202.8   1-0.48876 0.87189-0.87073 0.47298 0.05432-0.12689  0 239.14 389.10  125.05 239.14 388.96  125.28
   3  -4  -1 21499.3   337.3   2-0.13462 0.51732-0.65453 0.25652 0.74395-0.81644  0 287.40 407.73   60.71 287.45 407.57   61.11
   3  -4  -1 21162.3   321.6   2 0.12039 0.26233-0.09379-0.30418-0.98829 0.91578  0 166.44 224.10  194.95 166.42 224.04  195.09
   3  -4   1 14817.4   252.8   1-0.50008 0.88321-0.86525 0.46751 0.03547 0.03710  0 207.51 364.72  123.99 207.47 364.59  123.98
   3  -4   1 20400.6   317.3   2-0.18013 0.56277-0.39879 0.00092 0.89918-0.82661  0 278.17 405.62   43.68 278.24 405.41   43.66
   3  -4   1 19686.2   303.3   2 0.12918 0.25353-0.42832 0.03035-0.89434 0.96685  0 164.78 232.19  174.91 164.73 232.04  175.04
   3   4  -1 12397.0   305.2   1-0.29212 0.67501 0.52508-0.12754-0.79935 0.72671  0 469.28 302.46   14.30 469.32 302.47   14.39
   3   4  -1 19863.4   299.1   2 0.10625 0.27641 0.10736 0.29073-0.98853 0.91601  0 265.31 401.50  206.58 265.38 401.26  206.62
   3   4  -1 15819.6   259.9   2-0.22010 0.60260 0.72085-0.32296 0.65722-0.72977  0 163.19 244.13  333.67 163.18 244.15  333.53
   3   4   1 12884.8   311.1   1-0.15051 0.53340 0.66794-0.27040-0.72883 0.80148  0 474.84 276.95    2.02 474.95 276.87    2.16
   3   4   1 15000.8   248.3   2 0.05791 0.32475 0.49212-0.09404-0.86860 0.94111  0 255.30 397.71  229.79 255.33 397.32  230.05
   3   4   1 16705.1   254.6   2-0.23592 0.61840 0.46009-0.06237 0.85596-0.78338  0 162.57 253.87  352.31 162.59 253.78  352.43
  -3  -4  -2  2996.0   166.0   1-0.44370 0.06081 0.32313-0.72067-0.83589 0.69061  0 159.00 253.15   29.04 159.12 253.11   29.04
  -3  -4  -2  4401.6   173.8   2-0.15368-0.22903-0.55855 0.16054 0.81511-0.96009  0 481.63 270.99   54.19 481.79 271.14   54.16
  -3  -4  -2  4084.3   171.4   2 0.12441-0.50712-0.17306-0.22491-0.97702 0.83201  0 341.76 101.72  190.29 341.87 101.97  190.50
  -3  -4   2  2817.8   163.5   1-0.63617 0.25325-0.07750-0.32018-0.76764 0.91288  0 165.76 212.57   55.00 165.85 212.60   55.01
  -3  -4   2  4020.6   182.9   2-0.23118-0.15147 0.16280-0.56068 0.95919-0.81406  0 477.94 294.17   11.19 478.12 294.29   10.74
  -3  -4   2  3985.1   181.6   2 0.11150-0.49422-0.75297 0.35500-0.64854 0.79355  0 320.52 100.34  151.33 320.71 100.52  151.48
  -3   4  -2  3150.6   188.2   1-0.70018 0.31726-0.46299 0.86066-0.54349 0.39825  0 429.95 141.69   80.99 430.00 141.93   81.00
  -3   4  -2  4320.9   193.4   2 0.10258-0.48525 0.14972 0.24837-0.98339 0.83836  0 476.76 297.57  208.97 477.03 297.69  209.08
  -3   4  -2  3488.4   178.1   2-0.23511-0.14737 0.48959-0.09188 0.83966-0.98480  0 317.31 100.44  350.57 317.37 100.67  350.49
  -3   4   2  3026.2    99.4   1-0.49540 0.11251 0.23789 0.15965-0.83546 0.98074  0 344.42 102.07   34.82 344.34 102.25   34.75
  -3   4   2  4227.7   195.9   2-0.21029-0.17235-0.14548 0.54335 0.96675-0.82162  0 298.69 101.75   28.49 298.78 101.89   28.53
  -3   4   2  4298.1   200.0   2 0.01873-0.40139 0.69074-0.29265-0.72286 0.86790  0 470.42 317.04  244.39 470.52 317.04  244.40
   3  -4  -2  3581.2   103.6   1-0.44947 0.83260-0.88558 0.48783 0.11715-0.26229  0 257.59 403.42  129.37 257.96 403.28  129.61
   3  -4  -2  19.660  78.909   2-0.11095 0.49366-0.75254 0.35453 0.64913-0.79411  2 293.90 413.71   68.97 294.31 413.69   69.05
   3  -4  -2  4614.4   176.5   2 0.11051 0.27215 0.05832-0.45640-0.99216 0.84713  0 164.23 216.90  204.01 164.11 216.89  203.78
   3  -4   2  2973.9   148.7   1-0.49360 0.87673-0.86846 0.47072 0.04624 0.09889  0 192.28 353.93  124.68 192.27 353.79  124.72
   3  -4   2  4138.5   184.0   2-0.19864 0.58128-0.25528-0.14259 0.94624-0.80111  0 275.88 409.90   35.14 275.91 409.73   34.96
   3  -4   2  3830.5   156.5   2 0.12515 0.25756-0.58188 0.18391-0.80359 0.94860  0 160.68 232.84  165.26 160.58 232.73  164.74
   3   4  -2  3054.5   203.9   1-0.35345 0.73634 0.45052-0.05298-0.81982 0.67454  0 471.30 315.88   20.19 471.45 315.90   20.04
   3   4  -2  4127.9   179.7   2 0.11878 0.26394-0.06580 0.46377-0.99074 0.84573  0 272.55 408.82  196.59 272.47 408.47  196.71
   3   4  -2  3303.2   145.2   2-0.20811 0.59061 0.80953-0.41164 0.54896-0.69407  0 160.24 235.97  325.56 160.19 236.03  325.43
   3   4   2  4012.3   142.2   2-0.23512 0.61776 0.29806 0.09981 0.92514-0.78001  0 158.59 254.99    2.90 158.48 254.90    2.73
   3   4   2  4580.9   155.2   2 0.02605 0.35661 0.65839-0.26031-0.75222 0.89726  0 252.85 401.49  241.93 252.71 401.17  241.85
  -3  -4  -3  1422.1   136.8   1-0.39587 0.01298 0.39329-0.79083-0.82983 0.61190  0 152.50 263.33   24.27 152.64 263.21   24.17
  -3  -4  -3  1855.3   216.8   1 0.00154-0.38466-0.78393 0.38623 0.62085-0.83837  0 493.83 263.84  169.74 493.88 263.87  169.58
  -3  -4  -3  2143.3   158.3   2-0.12282-0.25988-0.70561 0.30760 0.69787-0.91534  0 492.44 273.64   65.26 492.60 273.74   65.10
  -3  -4  -3  2190.3   160.6   2 0.11536-0.49802-0.01049-0.38759-0.99327 0.77572  0 342.26  93.17  199.78 342.27  93.30  199.84
  -3  -4   3  1380.4   136.6   1-0.66871 0.28579-0.19240-0.20527-0.71819 0.93605  0 162.61 201.83   62.22 162.54 201.77   62.41
  -3  -4   3  1867.7   176.0   2-0.23500-0.14765 0.29095-0.68882 0.92743-0.70973  0 485.63 307.69    2.73 485.72 307.69    3.16
  -3  -4   3  1850.2   168.6   2 0.09942-0.48212-0.83407 0.43587-0.54263 0.75999  0 311.10  92.36  144.28 311.27  92.38  143.77
  -3   4  -3  1343.8   145.1   1-0.69811 0.31519-0.50655 0.90423-0.50601 0.28815  0 453.24 150.85   84.12 453.36 150.99   84.30
  -3   4  -3  2075.5   180.0   2 0.11399-0.49665 0.00908 0.38901-0.99344 0.77589  0 487.42 300.69  201.05 487.50 300.79  200.97
  -3   4  -3  1903.8   170.6   2-0.22828-0.15422 0.62929-0.23140 0.74289-0.96056  0 317.56  92.21  340.80 317.52  92.33  340.78
  -3   4   3  2008.7   176.6   2-0.19762-0.18502-0.26409 0.66197 0.94403-0.72634  0 290.05  94.92   35.43 290.18  95.14   35.49
  -3   4   3  2007.8   195.7   2-0.00431-0.37825 0.77999-0.38183-0.62578 0.84329  0 476.51 329.47  251.99 476.68 329.44  252.08
   3  -4  -3  2016.5   147.4   2 0.09893 0.28373 0.18683-0.58491-0.97740 0.75985  0 159.92 207.88  211.22 159.99 207.84  211.24
   3  -4   3  1676.7   143.0   1-0.48300 0.86613-0.87329 0.47554 0.06383 0.15386  0 176.90 343.64  125.83 176.86 343.60  125.93
   3  -4   3  1764.8   161.5   2-0.21293 0.59558-0.11649-0.28138 0.97010-0.75240  0 274.88 417.93   27.02 274.96 417.61   26.85
   3  -4   3  1845.5   131.3   2 0.11616 0.26656-0.71024 0.31226-0.69431 0.91183  0 154.30 231.35  155.01 154.17 231.29  155.08
   3   4  -3  1244.0   155.2   1-0.40641 0.78930 0.37843 0.01911-0.83164 0.61371  0 476.80 330.12   25.18 476.93 330.24   25.21
   3   4  -3  1953.2   163.3   2 0.12577 0.25695-0.20860 0.60657-0.96988 0.75236  0 280.99 419.10  188.27 280.95 418.94  188.41
   3   4  -3  1653.9   127.0   2-0.19503 0.57753 0.87366-0.47578 0.44573-0.66340  0 155.18 226.12  318.46 155.28 226.13  318.39
   3   4   3  1903.8   117.1   2-0.23007 0.61272 0.13656 0.26131 0.96354-0.74585  0 152.04 253.63   12.10 152.00 253.59   12.27
   3   4   3  2053.1   126.5   2-0.00600 0.38855 0.78585-0.38769-0.61839 0.83590  0 251.77 409.14  252.68 251.59 408.93  252.63
  -3  -4  -4  2098.6   160.3   1-0.35354-0.02935 0.45040-0.84794-0.81985 0.52928  0 144.06 273.64   20.28 144.28 273.60   20.05
  -3  -4  -4  3115.9   192.2   2 0.10433-0.48699 0.12957-0.52765-0.98607 0.69601  0 341.30  80.84  208.01 341.28  81.09  207.91
  -3  -4   4  2099.5   157.2   1-0.69008 0.30715-0.30441-0.09326-0.65661 0.94708  0 157.41 190.29   69.89 157.28 190.33   69.82
  -3  -4   4  2578.1   203.7   2 0.08641-0.46911-0.89299 0.49479-0.44170 0.73152  0 300.60  81.93  137.14 300.71  81.97  137.05
  -3  -4   4  2340.3   215.9   2-0.23685-0.14563 0.38890-0.78662 0.89031-0.60002  0 496.06 324.04  356.86 496.15 324.19  356.97
  -3   4  -4  1952.6   208.8   1-0.69556 0.31263-0.53266 0.93033-0.48216 0.19168  0 478.88 159.83   86.15 479.05 160.00   86.33
  -3   4  -4  2693.7   199.3   2 0.12147-0.50419-0.11314 0.51111-0.98613 0.69610  0 501.92 306.89  194.01 501.92 306.98  193.98
  -3   4  -4  2403.2   193.8   2-0.21776-0.16474 0.74189-0.34400 0.63418-0.92440  0 316.35  80.64  331.77 316.29  80.72  331.73
  -3   4   4  2881.7   219.3   2-0.18594-0.19671-0.35764 0.75552 0.91516-0.62490  0 280.07  85.87   41.27 280.27  85.96   41.13
  -3   4   4  2924.1   233.7   2-0.02609-0.35647 0.84845-0.45029-0.52863 0.81864  0 485.82 344.73  258.98 485.84 344.75  259.00
   3  -4  -4  3152.3   218.0   2-0.06773 0.45044-0.88680 0.48879 0.45717-0.74712  0 312.15 435.63   82.72 312.23 435.46   82.71
   3  -4  -4  2925.7   171.3   2 0.08726 0.29540 0.28973-0.68781-0.95312 0.66306  0 154.11 197.16  217.29 154.12 197.16  217.34
   3  -4   4  1892.4   151.8   1-0.46941 0.85254-0.87879 0.48105 0.08589 0.20437  0 160.85 333.94  127.39 160.92 333.84  127.45
   3  -4   4  2346.7   177.4   2-0.22272 0.60537 0.00817-0.40604 0.97485-0.68459  0 275.03 429.40   19.65 275.16 429.05   19.66
   3  -4   4  2629.2   150.0   2 0.10370 0.27900-0.80945 0.41125-0.57796 0.86777  0 145.63 228.05  146.00 145.63 227.95  146.24
   3   4  -4  1725.8   215.3   1-0.45069 0.83358 0.31214 0.08539-0.83633 0.54576  0 485.96 345.97   29.79 485.91 345.97   29.79
   3   4  -4 282.491 105.062   2 0.12852 0.25420-0.31917 0.71714-0.93894 0.64892  0 290.37 432.77  181.63 290.61 432.39  181.83
   3   4  -4  2349.7   154.6   2-0.18205 0.56455 0.91891-0.52102 0.34995-0.64017  0 148.59 214.78  312.28 148.63 214.73  312.24
   3   4   4  2767.2   134.9   2-0.22156 0.60420-0.00948 0.40735 0.97510-0.68484  0 143.19 250.27   20.80 143.09 250.20   20.69
   3   4   4  2929.3   150.3   2-0.03583 0.41838 0.87481-0.47665-0.48314 0.77315  0 251.73 420.81  262.16 251.58 420.49  262.07
  -3  -4  -5 121.177  87.173   1-0.31734-0.06555 0.49538-0.89291-0.80864 0.44543  0 134.24 284.26   16.49 134.07 284.47   16.69
  -3  -4  -5  41.653 104.801   2 0.09285-0.47551 0.24228-0.64037-0.96575 0.60318  0 339.05  65.39  214.55 339.03  65.39  214.50
  -3  -4   5 -59.013  82.329   1-0.69981 0.31689-0.40950 0.01182-0.58529 0.94839  0 149.95 177.95   77.47 150.00 178.05   77.12
  -3  -4   5-117.826 117.419   2 0.07350-0.45620-0.93473 0.53653-0.34767 0.70994  0 289.17  69.06  131.43 289.06  69.30  131.13
  -3   4  -5 107.536 117.306   2-0.20491-0.17759 0.82763-0.42974 0.52254-0.88532  0 313.74  66.33  323.49 313.81  65.96  323.58
  -3   4   5  51.293 131.245   2-0.17568-0.20697-0.42872 0.82659 0.88619-0.52337  0 269.10  74.27   45.33 269.11  74.53   45.56
  -3   4   5  33.041 144.357   2-0.04610-0.33645 0.89939-0.50123-0.43472 0.79723  0 497.73 362.87  265.37 498.02 363.09  265.23
   3  -4  -5  57.924 133.176   2-0.04911 0.43181-0.92908 0.53107 0.36659-0.72904  0 323.42 451.46   88.47 323.31 451.14   88.54
   3  -4  -5 159.980  99.777   2 0.07688 0.30578 0.36933-0.76741-0.92611 0.56354  0 146.19 184.82  221.86 146.55 184.88  222.21
   3  -4   5   3.653  81.942   1-0.45343 0.83655-0.88435 0.48660 0.11105 0.25178  0 144.30 324.57  129.44 144.18 324.30  129.18
   3  -4   5  64.552 105.400   2-0.22892 0.61156 0.11316-0.51103 0.96685-0.60402  0 275.77 444.18   13.48 276.30 444.05   13.63
   3  -4   5 -28.901  67.455   2 0.08910 0.29360-0.88242 0.48423-0.46194 0.82421  0 134.76 223.29  138.31 134.90 223.01  138.36
   3   4  -5 108.044 144.587   1-0.48635 0.86924 0.25355 0.14398-0.83616 0.47295  0 498.68 363.75   33.61 498.51 363.53   33.71
   3   4  -5  62.441  82.262   2-0.16926 0.55175 0.95003-0.55215 0.26228-0.62506  0 140.56 202.20  306.39 140.33 201.96  306.83
   3   4   5  13.135  61.613   2-0.21159 0.59423-0.13132 0.52920 0.96850-0.60567  0 131.55 245.52   27.36 131.98 245.15   27.71
   3   4   5  38.069  77.724   2-0.06191 0.44446 0.93216-0.53400-0.35672 0.71923  0 252.63 435.41  270.52 252.40 435.67  270.15
  -3  -4  -6  5359.9   241.5   1-0.28795-0.09494 0.52985-0.92738-0.79771 0.36186  0 122.04 296.06   14.22 121.95 296.00   14.02
  -3  -4  -6  7940.1   287.1   2 0.08240-0.46506 0.32845-0.72654-0.94092 0.50583  0 335.90  45.96  219.66 335.87  46.25  219.69
  -3  -4   6  5647.8   232.4   1-0.69821 0.31528-0.50526 0.10758-0.50717 0.94288  0 140.71 164.52   84.26 140.71 164.67   84.20
  -3  -4   6  7661.5   319.6   2 0.06105-0.44375-0.96351 0.56531-0.26063 0.69535  0 276.15  54.19  125.78 276.33  54.32  125.83
  -3   4  -6  6764.6   295.9   2-0.19074-0.19176 0.89021-0.49233 0.41369-0.84903  0 310.39  47.49  316.34 310.29  47.85  316.30
  -3   4   6  7944.6   329.4   2-0.16745-0.21519-0.48138 0.87925 0.86037-0.42498  0 256.58  60.72   49.15 256.67  60.77   48.95
   3  -4  -6  8703.6   344.7   2-0.03214 0.41485-0.95905 0.56104 0.28140-0.71634  0 335.96 470.62   94.00 335.96 470.42   93.82
   3  -4  -6  8381.2   287.9   2 0.06794 0.31472 0.42904-0.82713-0.90073 0.46563  0 137.30 170.97  226.00 137.22 171.02  225.95
   3  -4   6  5349.3   247.8   1-0.43536 0.81849-0.88956 0.49181 0.13840 0.29699  0 126.41 314.92  131.06 126.34 314.85  131.08
   3  -4   6  6991.9   281.2   2-0.23257 0.61521 0.19733-0.59520 0.95235-0.51696  0 278.03 463.08    8.76 278.11 462.74    8.72
   3  -4   6  7088.1   235.9   2 0.07408 0.30861-0.93315 0.53495-0.35178 0.78650  0 122.28 216.76  131.26 122.01 216.69  131.39
   3   4  -6  7683.2   318.3   2 0.12871 0.25401-0.46213 0.86010-0.87742 0.44239  0 313.65 469.22  172.82 313.59 469.04  172.86
   3   4  -6  6840.2   260.1   2-0.15705 0.53955 0.97073-0.57285 0.18170-0.61703  0 130.36 187.86  302.05 130.31 187.86  301.97
   3   4   6  7777.1   227.7   2-0.20190 0.58454-0.22720 0.62507 0.95269-0.51730  0 119.01 238.89   33.10 118.63 238.81   33.31
   3   4   6  7740.6   245.5   2-0.08390 0.46646 0.96643-0.56827-0.24284 0.67785  0 254.01 454.77  277.15 253.72 454.48  277.10
  -3  -4  -7  2941.3   228.2   1-0.26519-0.11770 0.55529-0.95283-0.78824 0.27975  0 107.94 308.45   12.02 107.75 308.48   11.99
  -3  -4  -7  4743.0   289.5   2 0.07358-0.45624 0.39200-0.79008-0.91702 0.40941  0 331.92  23.14  223.60 332.02  23.23  223.62
  -3  -4   7  3827.1   238.0   1-0.68646 0.30354-0.59015 0.19247-0.42485 0.93318  0 129.41 149.75   90.87 129.36 149.83   91.00
  -3  -4   7  4556.1   333.3   2 0.04879-0.43149-0.98242 0.58422-0.18022 0.68739  0 262.23  36.62  120.93 262.39  36.81  121.03
  -3   4  -7  3914.2   299.5   2-0.17643-0.20607 0.93398-0.53609 0.31073-0.81862  0 305.98  26.02  309.77 305.86  26.07  309.80
  -3   4   7  4342.0   268.4   2-0.16084-0.22186-0.51871 0.91672 0.83968-0.33226  0 242.94  44.47   51.45 242.90  44.68   51.44
   3  -4  -7  4724.7   336.3   2-0.01687 0.39958-0.97938 0.58136 0.20134-0.70877  0 350.36 494.12   99.00 350.47 493.92   98.66
   3  -4  -7  4730.9   260.0   2 0.06110 0.32156 0.47294-0.87103-0.87897 0.37137  0 126.25 155.41  228.82 126.02 155.49  228.79
   3  -4   7  4145.5   246.8   1-0.41556 0.79869-0.89399 0.49624 0.16761 0.34034  0 107.27 305.34  133.07 107.01 305.30  133.12
   3  -4   7  4229.4   287.1   2-0.23449 0.61713 0.26234-0.66021 0.93605-0.42810  0 280.40 485.74    5.11 280.38 485.48    4.87
   3  -4   7  4729.0   222.5   2 0.05935 0.32335-0.96658 0.56839-0.24938 0.75656  0 107.15 209.22  125.00 106.79 209.19  125.15
   3   4  -7  4851.1   350.4   2 0.12794 0.25478-0.50499 0.90296-0.85359 0.34605  0 327.25 493.22  170.27 327.23 493.10  170.04
   3   4  -7  3901.9   234.4   2-0.14535 0.52790 0.98348-0.58532 0.10788-0.61540  0 118.93 172.22  297.69 118.44 172.22  297.65
   3   4   7  4625.1   202.0   2-0.19342 0.57607-0.29955 0.69743 0.93427-0.42631  0 103.19 231.51   37.66 102.99 231.44   37.60
   3   4   7  3180.8   228.1   2-0.10260 0.48516 0.98467-0.58652-0.14104 0.64855  0 255.35 477.66  283.22 255.30 477.20  283.13
  -3  -4  -8  1006.8   164.6   1-0.24860-0.13429 0.57306-0.97060-0.78090 0.19976  0  91.23 322.20   10.58  91.22 322.23   10.54
  -3  -4   8 838.699 150.824   1-0.66639 0.28346-0.66331 0.26563-0.34051 0.92146  0 116.00 133.01   97.35 115.75 133.07   97.50
  -3  -4   8  1249.9   199.4   2 0.03690-0.41960-0.99375 0.59555-0.10540 0.68503  0 247.14  16.60  116.77 246.99  16.38  116.65
  -3   4   8  1477.2   202.7   2-0.15613-0.22657-0.54495 0.94297 0.82380-0.24389  0 227.40  25.23   52.97 227.42  25.59   53.22
   3  -4  -8  1689.1   198.8   2 0.05598 0.32668 0.50409-0.90217-0.86184 0.28171  0 113.15 138.02  230.83 112.67 137.99  230.84
   3  -4   8 959.723 169.787   1-0.39408 0.77721-0.89747 0.49972 0.19813 0.38240  0  85.87 295.37  135.22  85.76 295.42  135.27
   3  -4   8  1542.3   183.7   2 0.04474 0.33796-0.98696 0.58876-0.15464 0.73426  0  89.26 200.53  119.48  88.98 200.57  119.52
   3   4  -8  1272.7   174.4   2-0.13378 0.51634 0.99025-0.59210 0.03871-0.61872  0 104.45 154.99  293.57 104.38 154.92  293.59
   3   4   8  1367.9   147.3   2-0.18667 0.56931-0.35218 0.75005 0.91713-0.33661  0  85.04 223.20   41.40  84.73 223.17   40.79
   3   4   8  1282.8   193.8   2-0.11885 0.50140 0.99168-0.59352-0.04953 0.62955  2 256.90 503.76  288.35 256.81 504.42  288.45
  -3  -4  -9  6091.4   309.2   1-0.23788-0.14501 0.58433-0.98187-0.77587 0.12209  0  72.19 337.68    9.61  71.91 337.74    9.60
  -3  -4   9  8473.7   325.4   1-0.63934 0.25621-0.72488 0.32714-0.25649 0.90958  0 100.09 113.74  103.68  99.66 113.89  103.68
   3  -4  -9 12058.4   421.6   2 0.05234 0.33032 0.52503-0.92312-0.84947 0.19683  0  97.05 118.02  232.27  96.70 118.12  232.25
   3  -4   9  9293.2   365.8   1-0.37106 0.75419-0.89974 0.50199 0.22976 0.42333  0  62.26 285.04  137.47  61.98 285.02  137.53
   3  -4   9  9610.2   332.5   2 0.03069 0.35201-0.99728 0.59908-0.06708 0.71916  0  68.36 190.89  114.35  68.05 190.84  114.41
   3   4  -9  9333.1   366.2   2-0.12268 0.50523 0.99209-0.59394-0.02644-0.62608  0  88.05 135.57  290.01  87.75 135.52  289.80
   3   4   9 10663.1   328.2   2-0.18152 0.56416-0.38901 0.78688 0.90318-0.25009  0  63.75 214.14   43.12  63.38 214.09   43.05
  -3  -4 -10 -71.971 138.869   1-0.23231-0.15058 0.58995-0.98749-0.77330 0.04688  0  48.80 355.83    9.53  49.19 355.63    9.12
  -3  -4  10  17.884 157.209   1-0.60607 0.22294-0.77646 0.37871-0.17261 0.89826  0  80.63  91.26  109.58  80.45  91.06  109.64
   3  -4 -10 185.968 196.186   2 0.05008 0.33258 0.53777-0.93586-0.84160 0.11645  0  77.21  95.21  232.96  77.46  95.19  233.12
   3  -4  10 180.722 165.921   1-0.34643 0.72956-0.90069 0.50294 0.26220 0.46345  0  35.61 273.62  139.61  34.88 273.74  139.86
   3  -4  10 -16.541 133.960   2 0.01700 0.36570-0.99975 0.60156 0.01433 0.71021  0  43.77 179.62  109.53  43.32 179.92  109.67
   3   4 -10-175.888 172.310   2-0.11210 0.49466 0.98976-0.59160-0.08837-0.63665  0  67.37 113.43  286.52  67.77 113.42  286.20
   3   4  10 129.772 122.068   2-0.17799 0.56064-0.41308 0.81095 0.89313-0.16748  0  38.26 204.22   44.57  38.22 204.13   44.57
  -3  -5   0  92.592  76.131   1-0.58599 0.20310 0.05554-0.55246-0.80841 0.80841  0 143.04 243.61   46.64 143.01 243.64   46.53
  -3  -5   0 -32.877 100.998   2-0.20020-0.18245-0.24184-0.25550 0.94944-0.94944  2 504.27 301.47   34.66 505.98 301.53   34.18
  -3  -5   0   3.772 103.614   2 0.12810-0.51082-0.49450-0.00296-0.85968 0.85968  0 321.90  79.02  171.14 322.04  78.90  170.74
  -3   5   0 221.410  95.406   1-0.64310 0.26017-0.09936 0.59646-0.75931 0.75931  0 411.43  98.76   56.48 411.39  98.77   56.40
  -3   5   0  56.660 113.042   2-0.23321-0.14944 0.21645 0.28090 0.94803-0.94803  0 294.04  81.81    7.60 294.11  81.59    7.60
  -3   5   0 -34.035 109.204   2 0.06530-0.44796 0.44615 0.05146-0.89257 0.89257  0 494.84 331.24  226.99 495.17 331.17  227.05
   3  -5   0  14.598  63.893   1-0.55841 0.94154-0.82652 0.32934-0.07102 0.07102  0 204.91 392.75  116.67 205.15 392.85  116.68
   3  -5   0  39.992  76.127   2 0.12812 0.25460-0.29738-0.20008-0.94612 0.94612  0 149.26 208.79  183.68 148.99 208.56  183.14
   3   5   0 -50.980  91.004   2 0.08180 0.30086 0.33303 0.16457-0.93936 0.93936  0 269.74 428.99  219.72 269.67 428.71  219.97
   3   5   0  11.364  63.660   2-0.23165 0.61415 0.57392-0.07656 0.78547-0.78547  0 143.98 232.58  345.20 143.72 232.81  344.80
  -3  -5  -1 10777.4   295.3   1-0.54693 0.16404 0.14077-0.63770-0.82526 0.75262  0 141.09 254.03   41.02 141.20 253.95   41.07
  -3  -5  -1 15076.6   317.9   2 0.12912-0.51184-0.36626-0.13120-0.92151 0.84900  0 326.19  76.93  179.15 326.37  77.17  178.95
  -3  -5   1 10577.6   290.0   1-0.62207 0.23914-0.03640-0.46069-0.78212 0.85474  0 142.77 233.27   52.29 142.87 233.23   52.39
  -3  -5   1 13721.1   310.3   2 0.12377-0.50649-0.61048 0.11302-0.78230 0.85481  0 315.95  77.22  162.77 316.17  77.47  162.70
  -3   5  -1 10298.6   267.5   1-0.67539 0.29246-0.22168 0.71878-0.70335 0.63073  0 432.56 108.62   64.08 432.65 108.87   64.32
  -3   5  -1 15100.4   336.3   2 0.08252-0.46518 0.32752 0.17009-0.94123 0.86872  0 498.88 327.98  219.66 498.99 328.03  219.64
  -3   5   1 10593.9   221.5   1-0.57759 0.19470 0.07507 0.42185-0.81287 0.88551  0 390.59  87.69   45.15 390.72  88.01   45.28
  -3   5   1 15051.7   341.1   2-0.22743-0.15522 0.08464 0.41270 0.97011-0.89755  0 288.77  80.68   14.83 288.93  80.92   15.28
  -3   5   1 14505.5   338.4   2 0.04643-0.42909 0.55770-0.06009-0.82875 0.90126  0 494.52 337.29  234.50 494.75 337.28  234.50
   3  -5  -1  9704.2   196.2   1-0.56219 0.94532-0.82327 0.32609-0.07852 0.00595  0 220.23 406.36  116.04 220.30 406.21  116.16
   3  -5  -1 15661.8   319.8   2 0.12397 0.25875-0.16320-0.33426-0.97877 0.90627  0 149.15 203.93  191.13 149.12 203.85  191.07
   3  -5   1 10220.5   239.4   1-0.55004 0.93316-0.83335 0.33617-0.05470 0.12727  0 190.30 380.81  117.73 190.33 380.71  117.80
   3  -5   1 -30.296  97.255   2-0.17878 0.56143-0.40809-0.08925 0.89526-0.82270  2 293.69 436.22   44.47 293.58 436.33   44.25
   3  -5   1 14331.5   302.0   2 0.12916 0.25356-0.43197-0.06550-0.89259 0.96510  0 146.86 211.50  175.04 146.85 211.36  174.81
   3   5  -1 16058.9   322.4   2 0.09941 0.28325 0.18222 0.31539-0.97822 0.90570  0 275.20 432.23  211.27 275.25 431.98  210.97
   3   5  -1 12910.0   274.5   2-0.22454 0.60704 0.67612-0.17876 0.70175-0.77430  0 143.27 227.36  337.17 143.32 227.41  337.17
   3   5   1 15320.9   303.4   2 0.05948 0.32319 0.48281 0.01480-0.87370 0.94622  0 265.28 429.20  229.23 265.35 428.91  229.44
   3   5   1 13045.4   265.2   2-0.23597 0.61845 0.45739 0.03976 0.85739-0.78482  0 141.94 236.32  352.75 141.98 236.26  352.60
  -3  -5  -2  1432.3   151.9   1-0.50700 0.12411 0.21731-0.71423-0.83411 0.68882  0 137.37 264.44   36.08 137.50 264.33   36.10
  -3  -5  -2  2213.9   195.7   2 0.12641-0.50913-0.23329-0.26418-0.96416 0.81915  0 329.02  71.98  186.77 329.12  72.11  186.96
  -3  -5   2  1372.2   152.5   1-0.65290 0.26998-0.13221-0.36489-0.74581 0.89105  0 140.77 222.65   58.40 140.80 222.60   58.51
  -3  -5   2  1786.8   196.1   2 0.11626-0.49898-0.70922 0.21176-0.69533 0.84035  0 308.68  72.91  154.95 308.81  73.08  155.16
  -3   5  -2  1452.2   161.6   1-0.69031 0.30738-0.30606 0.80315-0.65559 0.51036  0 455.43 118.26   70.06 455.41 118.33   69.93
  -3   5  -2  2209.3   220.7   2 0.09674-0.47940 0.20776 0.28984-0.97338 0.82835  2 505.61 327.80  212.44 506.39 327.95  212.47
  -3   5  -2  1874.9   204.2   2-0.23530-0.14718 0.48223 0.01491 0.84385-0.98900  0 299.95  73.96  350.84 300.09  74.25  350.98
  -3   5   2  1426.4   125.0   1-0.44794 0.06506 0.31653 0.18040-0.83616 0.98144  0 369.77  76.24   29.42 369.83  76.43   29.49
  -3   5   2  2241.8   213.6   2-0.21953-0.16312-0.03635 0.53369 0.97493-0.82980  0 282.10  77.25   22.03 282.23  77.53   22.23
  -3   5   2  2388.3   227.6   2 0.02637-0.40903 0.65695-0.15934-0.75347 0.89850  0 497.37 346.38  241.67 497.47 346.44  241.74
   3  -5  -2  1439.0    95.7   1-0.55797 0.94110-0.82689 0.32971-0.07017-0.07497  0 236.58 421.37  116.71 236.63 421.20  116.74
   3  -5  -2  2186.7   214.0   2-0.12127 0.50397-0.71193 0.21441 0.69171-0.83668  0 309.30 443.69   65.60 309.53 443.44   65.63
   3  -5  -2  2201.0   160.6   2 0.11698 0.26573-0.03779-0.45967-0.99241 0.84740  0 147.36 197.31  198.34 147.30 197.27  198.32
   3  -5   2  1450.2   146.0   1-0.53852 0.92164-0.84197 0.34479-0.03289 0.17802  0 175.42 369.46  119.06 175.40 369.49  119.30
   3  -5   2 -79.465  92.343   2-0.19419 0.57683-0.29329-0.20406 0.93610-0.79097  0 291.18 440.71   37.47 290.94 440.79   37.23
   3  -5   2  2251.6   153.6   2 0.12624 0.25648-0.55888 0.06142-0.81958 0.96460  0 142.67 212.35  166.41 142.63 212.27  166.36
   3   5  -2  2137.5   197.8   2 0.11172 0.27094 0.04179 0.45582-0.99286 0.84783  0 282.07 438.82  203.01 282.09 438.64  202.83
   3   5  -2  1836.1   149.4   2-0.21534 0.59784 0.76107-0.26371 0.61188-0.75699  0 140.77 220.08  330.01 140.88 220.13  330.03
   3   5   2  2003.3   182.0   2 0.03445 0.34821 0.61921-0.12161-0.78447 0.92950  0 262.20 433.06  238.99 262.34 432.76  238.90
  -3  -5  -3 107.749  88.980   1-0.46827 0.08538 0.28399-0.78091-0.83670 0.61878  0 132.37 274.91   31.70 131.85 274.95   31.69
  -3  -5  -3 -39.138 104.943   2 0.12103-0.50375-0.10501-0.39245-0.98708 0.76956  0 330.18  63.71  194.60 330.36  63.59  194.45
  -3  -5   3  70.946  86.433   1-0.67691 0.29398-0.22892-0.26817-0.69956 0.91742  0 136.75 211.60   64.49 136.80 211.53   64.79
  -3  -5   3  66.160 121.266   2 0.10667-0.48937-0.78944 0.29170-0.60448 0.82185  0 300.25  65.40  147.94 300.05  65.76  148.14
  -3   5  -3 149.995 144.443   1-0.69701 0.31409-0.36393 0.86102-0.61784 0.39998  0 480.11 127.79   74.11 480.34 127.41   73.91
  -3   5  -3  30.518 121.281   2-0.23004-0.15246 0.60135-0.10399 0.76515-0.98282  0 300.30  66.29  343.02 300.63  65.94  342.84
  -3   5   3  26.085  55.822   1-0.20186-0.18103 0.62053-0.12361-0.75775 0.97568  0 346.71  64.44    7.02 346.19  64.13    6.49
  -3   5   3 -25.170 127.984   2-0.21061-0.17203-0.14189 0.63923 0.96722-0.74952  0 274.05  71.41   28.02 274.15  71.52   28.32
  -3   5   3 -81.998 139.172   2 0.00609-0.38875 0.74149-0.24389-0.67093 0.88848  2 503.03 358.61  248.30 503.40 358.67  248.63
   3  -5  -3  35.071  47.420   1-0.53469 0.91782-0.84466 0.34748-0.02568-0.19201  0 256.37 438.56  119.95 256.20 438.52  119.79
   3  -5  -3  64.108 131.057   2-0.10124 0.48394-0.78724 0.28972 0.60828-0.82575  0 317.71 452.45   72.63 317.64 452.47   72.17
   3  -5  -3  40.077  86.557   2 0.10922 0.27344 0.07387-0.57148-0.99127 0.77372  0 143.70 188.87  204.97 143.55 188.91  204.68
   3  -5   3  30.403  90.350   1-0.52460 0.90773-0.85132 0.35414-0.00729 0.22498  0 159.80 358.99  121.60 160.02 358.97  121.05
   3  -5   3  99.608 109.532   2-0.20671 0.58935-0.18174-0.31560 0.96137-0.74368  0 289.24 448.62   30.55 289.52 448.74   30.64
   3  -5   3 -19.984  74.141   2 0.11969 0.26303-0.67127 0.17381-0.73149 0.94900  0 136.32 211.35  158.13 136.30 211.33  158.16
   3   5  -3 -38.812 105.766   2 0.11966 0.26306-0.08121 0.57867-0.98949 0.77197  0 289.79 448.80  195.51 289.97 448.52  195.82
   3   5  -3  60.480  78.289   2-0.20469 0.58719 0.82876-0.33140 0.52083-0.73850  0 136.21 211.33  322.97 136.50 211.14  323.45
   3   5   3 -15.907  64.884   2-0.23289 0.61554 0.20675 0.29060 0.95027-0.73258  0 131.36 237.30    8.55 131.55 237.21    8.17
   3   5   3  51.555 106.920   2 0.00799 0.37467 0.73416-0.23655-0.67893 0.89647  0 260.19 440.54  248.54 260.43 440.25  248.00
  -3  -5  -4  9559.8   297.2   1-0.43226 0.04937 0.34041-0.83733-0.83503 0.54446  0 124.42 286.08   27.96 124.28 285.94   27.85
  -3  -5  -4 13569.5   342.3   2 0.11384-0.49650 0.01106-0.50867-0.99344 0.70338  0 330.13  51.34  201.10 330.12  51.58  201.08
  -3  -5   4  9581.0   293.3   1-0.69266 0.30973-0.32391-0.17319-0.64444 0.93492  0 130.77 199.85   71.03 130.85 199.90   71.15
  -3  -5   4 12027.7   344.3   2 0.09583-0.47852-0.85288 0.35513-0.51324 0.80305  0 289.88  55.92  141.74 290.09  56.00  141.76
  -3   5  -4 11555.1   340.5   2-0.22195-0.16055 0.70363-0.20628 0.67501-0.96523  0 300.01  54.08  335.01 299.94  54.40  334.96
  -3   5   4 14183.7   378.9   2-0.20157-0.18107-0.23015 0.72750 0.95205-0.66179  0 264.51  62.76   33.43 264.68  63.00   33.49
   3  -5  -4 13506.4   374.5   2-0.08210 0.46481-0.84839 0.35088 0.52296-0.81292  0 327.30 465.09   78.14 327.22 464.91   78.28
   3  -5  -4 15140.9   351.7   2 0.10072 0.28194 0.16854-0.66615-0.98054 0.69047  0 138.09 178.74  210.01 138.04 178.77  210.18
   3  -5   4  9867.8   295.5   1-0.50862 0.89175-0.86074 0.36356 0.02080 0.26947  0 143.90 348.99  123.12 143.92 348.94  122.97
   3  -5   4  6710.6   270.2   2-0.21609 0.59873-0.07885-0.41849 0.97318-0.68292  0 288.80 460.75   24.74 289.16 460.26   24.68
   3  -5   4 11487.6   290.8   2 0.10989 0.27283-0.76554 0.26808-0.63393 0.92396  0 127.98 208.77  150.27 127.81 208.67  150.38
   3   5  -4 10986.0   291.2   2-0.19318 0.57568 0.88101-0.38365 0.43186-0.72209  0 130.19 200.46  317.58 130.24 200.55  317.47
   3   5   4 13564.2   290.5   2-0.22771 0.61035 0.08990 0.40744 0.96957-0.67931  0 123.31 234.97   15.00 122.95 234.89   14.97
   3   5   4 13122.5   312.9   2-0.01777 0.40033 0.82401-0.32631-0.56630 0.85630  0 259.41 451.85  256.24 259.53 451.47  256.39
  -3  -5  -5  4065.1   229.4   1-0.40042 0.01753 0.38694-0.88386-0.83063 0.46742  0 114.90 297.59   24.65 114.72 297.54   24.61
  -3  -5  -5  6201.7   295.7   2 0.10597-0.48863 0.11053-0.60814-0.98821 0.62563  0 328.86  35.85  206.78 328.89  35.96  206.80
  -3  -5   5  3910.5   221.8   1-0.69999 0.31706-0.41431-0.08278-0.58169 0.94479  0 123.23 187.36   77.34 122.86 187.42   77.46
  -3  -5   5  6008.9   315.4   2 0.08407-0.46677-0.90148 0.40373-0.42457 0.78684  0 278.75  43.56  135.74 278.89  43.67  135.96
  -3   5  -5  4846.2   282.9   2-0.21154-0.17096 0.78756-0.29020 0.57879-0.94157  0 297.98  39.57  327.63 298.05  39.55  327.59
  -3   5   5  6879.0   293.3   2-0.19318-0.18947-0.30155 0.79889 0.93367-0.57085  0 253.95  51.92   37.69 253.84  51.99   37.72
   3  -5  -5  6764.6   345.1   2-0.06382 0.44652-0.89649 0.39897 0.43845-0.80090  0 338.52 481.28   83.71 338.49 481.04   83.94
   3  -5  -5  6041.8   265.0   2 0.09242 0.29024 0.24606-0.74367-0.96484 0.60226  0 130.80 166.87  214.99 130.67 166.93  214.73
   3  -5   5  3565.5   232.8   1-0.49085 0.87398-0.86976 0.37258 0.05083 0.31199  0 126.76 339.37  125.16 126.79 339.28  125.04
   3  -5   5 425.613 139.814   2-0.22306 0.60570 0.01127-0.50861 0.97474-0.61192  0 289.73 475.51   19.46 289.62 475.55   19.48
   3  -5   5  5569.8   233.8   2 0.09825 0.28445-0.84031 0.34256-0.53313 0.89540  0 117.54 204.55  143.11 117.16 204.47  143.12
   3   5  -5  5527.9   312.3   2 0.12742 0.25530-0.26626 0.76373-0.95544 0.59291  0 310.03 479.05  184.98 309.86 478.79  185.00
   3   5  -5  5025.8   239.0   2-0.18155 0.56405 0.92036-0.42300 0.34639-0.70917  0 122.38 188.32  311.97 122.12 188.40  312.02
   3   5   5  6208.7   219.5   2-0.22131 0.60396-0.01289 0.51023 0.97512-0.61229  0 112.33 231.08   20.89 112.00 231.03   20.88
   3   5   5  5599.7   265.9   2-0.04231 0.42486 0.89045-0.39275-0.45311 0.81562  0 259.19 466.84  263.99 259.27 466.52  264.03
  -3  -5  -6  5020.9   257.4   1-0.37340-0.00948 0.42421-0.92113-0.82500 0.38914  0 103.26 310.08   21.93 103.06 309.98   21.96
  -3  -5  -6  7126.0   330.7   2 0.09842-0.48108 0.19195-0.68956-0.97646 0.54137  0 326.73  16.13  211.55 326.76  16.45  211.54
  -3  -5   6  4602.1   246.2   1-0.69868 0.31576-0.49854 0.00145-0.51313 0.94884  0 113.05 173.74   83.68 112.77 173.83   83.69
  -3  -5   6  5950.3   343.5   2 0.07231-0.45501-0.93786 0.44011-0.33940 0.77412  0 266.21  28.59  130.55 266.39  28.62  130.62
  -3   5  -6  5795.0   335.5   2-0.19970-0.18280 0.85369-0.35634 0.48096-0.91630  0 295.09  21.03  320.77 295.03  21.14  320.74
  -3   5   6  7172.6   322.4   2-0.18593-0.19672-0.35773 0.85508 0.91513-0.47974  0 241.57  38.09   41.00 241.48  38.37   41.13
   3  -5  -6  7072.9   388.9   2-0.04697 0.42967-0.93334 0.43582 0.35591-0.79085  0 351.58 501.41   89.27 351.56 501.31   89.21
   3  -5  -6  6556.1   285.1   2 0.08504 0.29762 0.30782-0.80543-0.94764 0.51254  0 121.80 153.27  218.48 121.37 153.26  218.43
   3  -5   6  5193.8   262.3   1-0.47154 0.85467-0.87798 0.38080 0.08249 0.35290  0 108.52 329.85  127.13 108.30 329.79  127.21
   3  -5   6  75.302 152.208   2-0.22758 0.61022 0.08747-0.58482 0.96982-0.53443  0 291.09 494.74   15.34 290.85 494.97   15.11
   3  -5   6  6100.4   251.7   2 0.08509 0.29760-0.89780 0.40005-0.43211 0.86683  0 104.40 198.94  136.31 104.16 198.80  136.44
   3   5  -6  6680.9   361.3   2 0.12869 0.25403-0.33049 0.82796-0.93499 0.49996  0 322.12 499.92  181.26 321.95 499.71  181.14
   3   5  -6  6039.0   277.6   2-0.16972 0.55221 0.94909-0.45173 0.26537-0.70071  0 112.29 174.61  306.87 112.04 174.68  307.01
   3   5   6  6702.7   244.2   2-0.21445 0.59709-0.09920 0.59655 0.97168-0.53629  0  99.00 225.88   25.82  98.68 225.82   25.85
   3   5   6  6165.6   296.9   2-0.06431 0.44687 0.93657-0.43887-0.34454 0.77955  0 259.51 485.86  270.79 259.51 485.54  270.91
  -3  -5  -7  8715.2   328.1   1-0.35149-0.03140 0.45304-0.94996-0.81927 0.31078  0  89.27 323.70   19.93  89.08 323.59   19.86
  -3  -5   7  9405.6   332.9   1-0.68930 0.30637-0.57528 0.07819-0.44036 0.94870  0 100.77 158.63   89.83 100.42 158.74   89.76
  -3  -5   7 11764.2   393.9   2 0.06069-0.44339-0.96417 0.46643-0.25823 0.76541  0 252.54  10.58  125.62 252.44  10.56  125.68
  -3   5   7 13474.4   423.4   2-0.17986-0.20279-0.40068 0.89802 0.89839-0.39044  0 227.56  21.71   44.04 227.48  21.86   43.78
   3  -5  -7 13854.1   401.6   2 0.07876 0.30390 0.35571-0.85332-0.93127 0.42366  0 110.24 137.53  221.36 109.91 137.62  221.37
   3  -5   7 10289.0   355.9   1-0.45069 0.83381-0.88521 0.38803 0.11529 0.39267  0  88.43 320.26  129.42  88.09 320.27  129.48
   3  -5   7 12430.3   345.1   2 0.07156 0.31114-0.93981 0.44207-0.33411 0.84129  0  88.90 191.91  130.21  88.57 191.85  130.29
   3   5  -7 10601.3   352.3   2-0.15812 0.54062 0.96925-0.47189 0.18856-0.69646  0 100.00 159.21  302.49  99.78 159.24  302.38
   3   5   7 12569.6   328.6   2-0.20801 0.59065-0.16872 0.66606 0.96347-0.45551  0  83.12 219.49   30.19  82.70 219.44   29.88
  -3  -5  -8  1163.1   187.1   1-0.33460-0.04829 0.47432-0.97124-0.81429 0.23315  0  72.14 339.03   18.34  72.48 338.79   18.28
  -3  -5   8  1224.9   184.5   1-0.67289 0.28997-0.64352 0.14643-0.36482 0.94577  0  85.68 141.53   95.61  85.55 141.69   95.67
   3  -5  -8  1631.2   225.4   2 0.07362 0.30904 0.39173-0.88934-0.91713 0.33701  0  96.17 119.66  223.76  95.97 119.69  223.61
   3  -5   8  1530.8   203.2   1-0.42830 0.81142-0.89128 0.39410 0.14893 0.43160  0  66.10 310.48  131.63  65.63 310.52  131.82
   3  -5   8  1559.6   182.4   2 0.05799 0.32470-0.96892 0.47118-0.24047 0.82010  0  70.88 183.56  124.57  70.02 183.58  124.62
   3   5  -8  1461.2   202.8   2-0.14672 0.52928 0.98230-0.48461 0.11642-0.69644  0  84.99 141.69  298.01  85.03 141.71  298.15
   3   5   8  1877.4   203.8   2-0.20238 0.58502-0.22275 0.72009 0.95364-0.37312  0  64.00 212.11   32.84  63.77 212.00   33.05
  -3  -5  -9 159.720 161.291   1-0.32270-0.06019 0.48889-0.98581-0.81046 0.15669  0  52.23 356.42   17.40  52.70 356.14   17.18
  -3  -5   9 -35.801 157.643   1-0.65044 0.26731-0.70270 0.20552-0.28835 0.94144  0  67.82 122.16  101.69  67.65 122.10  101.36
   3  -5  -9 130.237 187.003   2 0.06962 0.31304 0.41774-0.91535-0.90589 0.25325  0  78.61  98.79  224.96  78.97  98.93  225.24
   3  -5   9 119.926 161.645   1-0.40450 0.78763-0.89596 0.39878 0.18339 0.46970  0  39.82 300.40  134.38  40.22 300.30  134.24
   3  -5   9  16.395 131.558   2 0.04424 0.33846-0.98748 0.48973-0.15141 0.80350  0  47.38 174.02  119.45  47.95 173.95  119.34
   3   5  -9 222.201 181.220   2-0.13522 0.51778 0.98968-0.49198 0.04738-0.69990  0  66.62 121.81  293.76  67.16 121.76  294.10
   3   5   9   0.104 109.293   2-0.19773 0.58038-0.26317 0.76051 0.94427-0.29118  0  41.49 203.53   35.44  41.30 203.54   35.43
  -3  -6   0 821.030 135.983   1-0.61779 0.23486-0.02458-0.57193-0.78596 0.78596  0 116.78 255.00   51.57 116.48 254.79   51.64
  -3  -6   0  1042.7   173.2   2 0.12798-0.51070-0.50321-0.09374-0.85463 0.85463  0 308.51  44.85  170.01 308.61  45.19  170.16
  -3   6   0  1025.7   150.7   1-0.59219 0.20930 0.04084 0.55547-0.80477 0.80477  0 441.84  67.64   47.34 441.81  67.89   47.47
  -3   6   0  1269.1   188.3   2-0.23467-0.14797 0.27061 0.32620 0.93365-0.93365  0 275.61  51.69    4.38 275.51  51.91    4.38
   3  -6   0 763.389 109.471   1-0.58746 0.97059-0.79857 0.20196-0.13103 0.13103  0 184.03 412.38  112.38 184.02 412.58  112.54
   3  -6   0  1301.2   191.0   2-0.15991 0.54261-0.52368-0.07334 0.83678-0.83678  0 314.35 472.12   51.71 314.51 472.22   51.78
   3  -6   0  1120.8   143.6   2 0.12879 0.25392-0.33859-0.25837-0.93208 0.93208  0 128.75 186.62  181.00 128.50 186.56  180.64
   3   6   0  1010.7   153.3   2 0.07648 0.30618 0.37216 0.22497-0.92501 0.92501  0 279.94 465.71  222.40 279.89 465.65  222.39
   3   6   0  1020.1   127.4   2-0.23186 0.61436 0.56958 0.02725 0.78855-0.78855  0 120.52 214.87  345.35 120.42 214.84  345.11
  -3  -6  -1  2234.9   185.0   1-0.58814 0.20525 0.05047-0.64678-0.80718 0.73454  0 115.44 265.71   46.89 115.38 265.63   46.85
  -3  -6  -1  3545.3   268.1   2 0.12944-0.51215-0.39825-0.19870-0.90810 0.83559  0 312.83  42.84  177.01 313.01  42.97  176.95
  -3  -6   1  2597.5   192.7   1-0.64460 0.26168-0.10399-0.49252-0.75741 0.83003  0 115.76 244.06   56.65 115.65 243.96   56.70
  -3  -6   1  3246.7   254.4   2 0.12429-0.50701-0.60113 0.00418-0.78942 0.86193  0 302.79  43.98  163.43 302.89  44.31  163.38
  -3   6  -1  2424.1   238.6   1-0.63569 0.25276-0.07601 0.67252-0.76819 0.69558  0 464.47  78.36   54.71 464.54  78.47   54.91
  -3   6  -1  3211.0   264.6   2-0.23686-0.14562 0.38211 0.21446 0.89324-0.96582  0 279.16  48.98  357.40 279.37  49.36  357.39
  -3   6   1  2329.4   205.1   1-0.52014 0.13726 0.19288 0.40343-0.83202 0.90466  0 420.27  56.09   37.67 420.40  56.30   37.69
  -3   6   1  3499.6   290.0   2-0.23109-0.15156 0.16065 0.43616 0.95958-0.88701  0 270.32  51.69   10.73 270.50  51.75   10.86
   3  -6  -1  2136.7   145.1   1-0.59513 0.97825-0.78995 0.19333-0.14767 0.07510  0 198.39 426.98  111.26 198.55 426.86  111.38
   3  -6  -1  3529.6   293.0   2-0.14332 0.52603-0.61189 0.01487 0.77785-0.85034  0 319.96 474.60   58.19 319.97 474.43   57.95
   3  -6  -1  3158.6   206.3   2 0.12621 0.25650-0.22737-0.36959-0.96560 0.89309  0 128.86 182.02  186.84 128.85 181.99  187.31
   3  -6   1  2175.9   171.5   1-0.57696 0.96008-0.80948 0.21287-0.10889 0.18146  0 169.44 399.80  114.27 169.53 399.71  114.07
   3  -6   1  3312.1   271.6   2-0.17544 0.55808-0.43030-0.16651 0.88547-0.81291  0 310.19 473.64   45.64 310.27 473.37   45.66
   3  -6   1  2918.7   196.1   2 0.12898 0.25374-0.45019-0.14676-0.88357 0.95607  0 126.39 189.49  173.85 126.14 189.35  173.65
   3   6  -1  3547.4   257.9   2 0.09202 0.29065 0.24955 0.34758-0.96398 0.89147  0 285.49 468.97  214.77 285.52 468.73  214.94
   3   6  -1  2945.7   183.7   2-0.22607 0.60857 0.65764-0.06081 0.71861-0.79117  0 120.61 209.50  338.61 120.30 209.69  338.61
   3   6   1  3486.1   246.5   2 0.05759 0.32507 0.49403 0.10310-0.86754 0.94005  0 275.34 466.37  229.98 275.36 466.12  230.17
   3   6   1  3024.8   177.3   2-0.23552 0.61800 0.47303 0.12354 0.84898-0.77641  0 118.70 218.26  351.58 118.46 218.26  351.58
  -3  -6  -2 264.866 115.368   1-0.55733 0.17444 0.11928-0.71558-0.82168 0.67639  0 112.32 276.65   42.49 112.31 276.59   42.46
  -3  -6  -2 510.943 155.149   2 0.12800-0.51072-0.29048-0.30647-0.94828 0.80327  0 315.60  38.14  183.66 315.99  37.49  183.56
  -3  -6   2 523.199 120.442   1-0.66721 0.28429-0.18614-0.41037-0.72123 0.86647  0 113.24 232.87   61.73 112.87 232.92   62.00
  -3  -6   2 695.156 168.878   2 0.11817-0.50089-0.68838 0.09142-0.71566 0.86067  0 295.60  40.77  157.05 295.79  40.43  156.83
  -3   6  -2 479.909 166.283   1-0.66168 0.27875-0.16405 0.76056-0.73162 0.58639  0 489.23  87.88   60.50 489.09  88.17   60.56
  -3   6  -2 476.510 166.244   2-0.23495-0.14753 0.49189 0.10468 0.83836-0.98350  0 281.67  43.52  350.48 281.64  43.77  350.33
  -3   6   2 484.815 114.955   1-0.40396 0.02108 0.38191 0.21439-0.83124 0.97652  0 399.46  43.45   25.02 399.43  43.48   24.97
  -3   6   2 743.746 187.273   2-0.22590-0.15675 0.05741 0.53940 0.97246-0.82733  0 263.94  48.95   17.05 264.01  48.81   16.84
   3  -6  -2 460.474  82.136   1-0.59880 0.98193-0.78558 0.18896-0.15591 0.01078  0 213.75 442.95  110.93 213.66 442.94  110.81
   3  -6  -2 667.198 184.844   2-0.12601 0.50871-0.69213 0.09511 0.71069-0.85567  0 326.77 480.05   64.37 326.82 480.14   64.02
   3  -6  -2 514.487 126.830   2 0.12184 0.26088-0.12136-0.47560-0.98510 0.84009  0 127.44 175.59  193.48 127.28 175.63  193.49
   3  -6   2 444.975 116.936   1-0.56427 0.94740-0.82144 0.22482-0.08267 0.22780  0 154.51 387.91  115.85 154.67 387.91  115.88
   3  -6   2 597.739 171.312   2-0.18898 0.57162-0.33545-0.26136 0.92291-0.77778  0 307.22 478.58   40.04 307.32 478.21   39.77
   3  -6   2 632.674 118.916   2 0.12631 0.25641-0.55717-0.03979-0.82074 0.96575  0 121.81 190.38  166.55 121.73 190.42  166.48
   3   6  -2  88.495 133.370   2 0.10403 0.27863 0.13272 0.46441-0.98568 0.84065  0 292.55 475.34  207.88 292.31 475.33  208.09
   3   6  -2 491.729 110.629   2-0.21859 0.60109 0.73483-0.13800 0.64207-0.78718  0 117.85 202.92  332.37 118.13 202.84  332.33
   3   6   2 722.524 160.874   2 0.03675 0.34592 0.60789-0.01076-0.79317 0.93820  0 272.11 470.15  237.92 271.91 470.18  238.06
   3   6   2 712.883 117.923   2-0.23687 0.61935 0.37206 0.22451 0.89747-0.75233  0 114.48 220.05  357.97 114.27 219.96  358.02
  -3  -6  -3 11817.0   346.5   1-0.52654 0.14365 0.18078-0.77709-0.83071 0.61278  0 107.32 288.05   38.47 107.25 287.90   38.48
  -3  -6  -3 16421.4   395.8   2 0.12494-0.50766-0.18576-0.41119-0.97462 0.75710  0 317.52  28.32  189.70 317.75  28.56  189.75
  -3  -6   3 11918.5   347.7   1-0.68452 0.30159-0.26898-0.32753-0.67756 0.89541  0 108.39 221.54   67.37 108.14 221.51   67.45
  -3  -6   3 15415.4   404.6   2 0.11022-0.49294-0.76338 0.16642-0.63648 0.85400  0 287.14  33.46  150.54 287.42  33.64  150.56
  -3   6  -3 14025.7   399.5   2-0.23045-0.15204 0.59406 0.00277 0.77070-0.98837  0 282.44  34.57  343.38 282.38  35.03  343.36
  -3   6   3 11100.2   221.4   1-0.22442-0.15847 0.59800-0.00169-0.76944 0.98736  0 377.61  29.06    8.53 377.29  29.34    8.44
  -3   6   3 11557.9   374.5   2-0.21958-0.16306-0.03563 0.63244 0.97494-0.75725  0 256.05  42.99   21.90 256.06  43.23   22.19
   3  -6  -3  9750.2   188.2   1-0.59574 0.97887-0.78922 0.19261-0.14905-0.06865  0 230.23 461.62  111.14 230.48 461.44  111.28
   3  -6  -3 16740.0   451.8   2-0.10827 0.49097-0.76252 0.16550 0.63784-0.85531  0 335.20 489.71   70.01 335.17 489.46   69.93
   3  -6  -3 17727.2   401.0   2 0.11609 0.26663-0.02456-0.57240-0.99294 0.77542  0 124.06 167.51  198.83 123.76 167.51  199.08
   3  -6   3 11433.0   320.7   1-0.54963 0.93276-0.83367 0.23705-0.05392 0.27161  0 139.03 377.07  117.84 139.12 376.97  117.85
   3  -6   3 16269.8   421.8   2-0.20009 0.58273-0.24282-0.35399 0.94921-0.73152  2 305.62 486.91   33.91 305.52 486.67   34.23
   3  -6   3 15589.2   360.3   2 0.12093 0.26179-0.65503 0.05808-0.74586 0.96338  0 115.47 189.88  159.40 115.20 189.78  159.41
   3   6  -3 14002.1   342.3   2-0.20965 0.59215 0.80005-0.20322 0.56211-0.77978  0 114.23 194.17  326.46 113.96 194.30  326.37
   3   6   3 15735.6   337.2   2-0.23467 0.61732 0.27068 0.32613 0.93363-0.71593  0 108.03 220.07    4.36 107.72 220.00    4.37
   3   6   3 17802.6   395.3   2 0.01434 0.36832 0.70862-0.11149-0.70544 0.92299  0 269.26 478.27  245.87 269.36 477.86  245.85
  -3  -6  -4 -34.448  97.002   1-0.49734 0.11445 0.23448-0.83078-0.83527 0.54470  0 100.37 299.73   34.62 100.18 299.74   34.97
  -3  -6  -4  41.751 159.275   2 0.12006-0.50278-0.08817-0.50878-0.98884 0.69882  0 318.57  15.37  195.43 318.28  16.05  195.42
  -3  -6   4  20.188 107.629   1-0.69578 0.31285-0.35052-0.24599-0.62692 0.91740  0 101.40 209.34   72.48 101.38 209.50   72.98
  -3  -6   4 141.032 177.513   2 0.10096-0.48366-0.82561 0.22831-0.55514 0.84495  0 277.42  24.27  145.23 277.59  23.89  144.63
  -3   6  -4  21.623 173.251   2-0.22371-0.15879 0.68523-0.08840 0.69312-0.98335  0 281.90  22.81  336.42 281.97  22.97  336.44
  -3   6   4  77.062 137.496   2-0.21292-0.16973-0.11666 0.71347 0.97008-0.67982  0 246.62  34.75   26.63 246.68  34.91   26.86
   3  -6  -4  23.771  52.304   1-0.57700 0.96013-0.80944 0.21282-0.10899-0.18127  0 252.14 483.95  114.42 251.87 483.54  114.07
   3  -6  -4  16.876  81.999   1-0.02229 0.40542-0.79856 0.20201 0.60151-0.89153  2 355.09 502.22  168.30 354.26 502.70  167.63
   3  -6  -4  88.448 199.273   2-0.09060 0.47330-0.82242 0.22540 0.56162-0.85158  2 345.34 502.55   75.33 345.15 502.64   75.57
   3  -6  -4  28.768 111.889   2 0.11030 0.27236 0.06095-0.65807-0.99203 0.70197  0 118.37 157.63  204.06 118.19 157.55  203.93
   3  -6   4 -13.981 117.962   1-0.53328 0.91641-0.84562 0.24900-0.02309 0.31335  0 122.55 366.63  119.83 122.63 366.65  119.96
   3  -6   4  26.031 188.054   2-0.20926 0.59190-0.15635-0.44046 0.96528-0.67502  2 305.74 498.81   28.93 304.71 498.97   29.16
   3  -6   4 -57.791  96.048   2 0.11291 0.26981-0.74089 0.14393-0.66207 0.95210  0 105.97 187.47  152.41 106.46 187.50  152.52
   3   6  -4 -41.559 174.840   2 0.11879 0.26393-0.06588 0.66283-0.99073 0.70071  0 309.17 499.99  196.51 309.41 499.37  196.70
   3   6  -4  11.337 103.348   2-0.19973 0.58223 0.85355-0.25672 0.48121-0.77143  0 108.47 184.11  321.10 107.77 184.08  320.76
   3   6   4-129.531  88.118   2-0.23166 0.61430 0.17475 0.42206 0.95697-0.66671  0  98.84 218.47   10.36  98.97 218.39   10.04
   3   6   4  -7.306 150.859   2-0.00800 0.39056 0.79268-0.19544-0.60958 0.89959  0 267.81 489.39  253.18 267.67 489.49  253.28
  -3  -6  -5  1869.9   206.9   1-0.47063 0.08774 0.28012-0.87643-0.83669 0.47348  0  91.08 312.42   31.80  90.90 312.38   31.95
  -3  -6   5  1330.8   180.2   1-0.70032 0.31739-0.42927-0.16724-0.57034 0.93343  0  92.75 196.50   78.41  92.45 196.65   78.53
  -3  -6   5  2170.9   261.7   2 0.09059-0.47328-0.87622 0.27893-0.47332 0.83558  0 266.53  11.23  139.32 266.50  11.33  139.11
  -3   6  -5  1740.7   251.9   2-0.21501-0.16749 0.76356-0.16673 0.60889-0.97167  2 280.39   7.73  329.62 280.38   7.34  329.81
  -3   6   5  2261.3   269.9   2-0.20637-0.17627-0.18507 0.78188 0.96081-0.59799  0 235.81  24.02   31.06 235.76  23.84   30.84
   3  -6  -5  2124.9   233.8   2 0.10393 0.27873 0.13377-0.73090-0.98555 0.62297  0 110.90 145.65  208.31 110.70 145.70  208.15
   3  -6   5  1446.0   178.3   1-0.51536 0.89849-0.85692 0.26031 0.00933 0.35350  0 105.03 356.99  121.83 104.86 356.78  122.18
   3  -6   5  1840.5   208.8   2 0.10316 0.27954-0.81277 0.21548-0.57337 0.93564  0  95.48 183.69  146.26  95.45 183.71  145.91
   3   6  -5  1745.7   210.8   2-0.18909 0.57159 0.89628-0.29945 0.40116-0.76394  0  99.62 172.17  315.57  99.47 172.22  315.48
   3   6   5  1815.1   187.5   2-0.22759 0.61024 0.08770 0.50911 0.96980-0.60697  0  88.02 215.30   14.79  87.76 215.32   15.10
  -3  -6  -6 -33.259 125.655   1-0.44710 0.06421 0.31784-0.91415-0.83611 0.40026  0  79.26 326.73   29.49  79.32 326.10   29.40
  -3  -6   6 152.126 139.679   1-0.69834 0.31541-0.50356-0.09295-0.50868 0.94439  0  81.31 182.63   84.15  81.22 182.65   84.07
  -3   6   6  67.156 171.377   2-0.20026-0.18238-0.24125 0.83806 0.94957-0.51418  2 223.35   9.78   34.00 223.13   9.79   34.14
   3  -6  -6 236.563 152.562   2 0.09816 0.28450 0.19437-0.79150-0.97600 0.54091  0 101.49 131.65  212.04 101.02 131.82  211.68
   3  -6   6  81.540 143.592   1-0.49579 0.87892-0.86739 0.27077 0.04273 0.39266  0  85.72 347.22  124.42  85.44 347.17  124.47
   3  -6   6  62.292 120.085   2 0.09182 0.29087-0.87138 0.27408-0.48194 0.91666  0  82.72 178.40  139.39  81.83 178.40  139.67
   3   6  -6  67.198 133.743   2-0.17820 0.56070 0.92950-0.33267 0.32291-0.75825  0  88.61 158.55  310.58  88.95 158.53  310.56
   3   6   6  69.647 104.758   2-0.22309 0.60574 0.01183 0.58498 0.97473-0.53934  0  74.19 210.81   19.64  73.90 210.93   19.45
  -3  -6  -7  3335.4   270.7   1-0.42719 0.04430 0.34802-0.94433-0.83450 0.32601  0  65.18 341.46   27.34  65.12 341.28   27.33
  -3  -6   7  3914.1   289.0   1-0.68977 0.30685-0.57258-0.02393-0.44313 0.95146  0  67.65 166.99   89.45  67.43 167.06   89.54
   3  -6  -7  5986.5   343.5   2 0.09274 0.28992 0.24327-0.84040-0.96552 0.45791  0  89.23 115.47  214.60  88.83 115.61  214.56
   3  -6   7  3836.0   279.9   1-0.47480 0.85793-0.87670 0.28008 0.07724 0.43072  0  64.22 337.51  126.85  63.88 337.70  126.85
   3  -6   7  5125.2   289.7   2 0.07948 0.30322-0.91719 0.31989-0.39045 0.89762  0  65.74 171.66  133.70  65.32 171.65  133.80
   3   6  -7  5066.6   329.3   2-0.16698 0.54948 0.95447-0.35764 0.24720-0.75509  0  76.06 142.76  305.73  75.86 142.85  305.91
   3   6   7  5218.9   268.5   2-0.21831 0.60095-0.05220 0.64901 0.97448-0.46653  0  57.39 205.32   23.09  57.10 205.27   23.15
  -3  -6  -8 160.425 162.769   1-0.41145 0.02856 0.37118-0.96749-0.83243 0.25129  0  48.05 358.37   25.57  47.89 358.48   25.72
  -3  -6   8 496.609 185.890   1-0.67537 0.29245-0.63528 0.03877-0.37454 0.95550  0  50.36 148.98   94.62  50.67 149.39   94.92
   3  -6  -8 158.493 192.587   2 0.08823 0.29443 0.28177-0.87890-0.95542 0.37529  0  74.08  96.81  216.27  73.73  96.66  216.86
   3  -6   8 304.826 175.120   1-0.45240 0.83553-0.88467 0.28806 0.11264 0.46789  0  39.48 328.30  129.38  39.61 328.09  129.29
   3  -6   8 142.947 149.299   2 0.06691 0.31578-0.95138 0.35409-0.30066 0.88029  0  45.02 163.58  128.05  45.37 163.36  128.24
   3   6  -8 420.179 188.386   2-0.15585 0.53835 0.97234-0.37551 0.17399-0.75443  0  60.15 124.86  301.62  59.78 124.80  301.51
   3   6   8 434.947 144.749   2-0.21402 0.59667-0.10412 0.70093 0.97126-0.39074  0  36.91 198.54   26.10  36.80 198.43   26.14
  -3  -7   0  27.571 110.891   1-0.64312 0.26020-0.09944-0.59649-0.75928 0.75928  0  85.19 267.23   56.30  85.79 267.16   56.41
  -3   7   0 -67.213 185.191   1-0.53901 0.15613 0.15655 0.53914-0.82762 0.82762  0 480.43  26.73   40.36 480.73  26.84   40.05
   3  -7   0  48.624 105.280   1-0.60022 0.98335-0.78385 0.08779-0.15913 0.15913  0 159.22 437.13  110.50 159.39 436.89  110.58
   3  -7   0  49.063 118.399   2 0.12934 0.25338-0.38230-0.31414-0.91494 0.91494  0 104.33 162.20  177.66 104.03 162.21  177.95
   3   7   0  13.805 105.814   2-0.23120 0.61370 0.58022 0.11608 0.78096-0.78096  0  92.40 195.67  344.42  92.92 195.62  344.35
  -3  -7  -1  1611.6   198.5   1-0.62108 0.23816-0.03365-0.66228-0.78302 0.71040  0  85.21 278.84   52.31  85.22 278.69   52.22
  -3  -7   1  1415.4   177.6   1-0.66283 0.27990-0.16852-0.52741-0.72956 0.80218  0  84.56 255.65   60.80  84.32 255.69   60.85
  -3   7  -1  2155.9   260.0   2-0.23656-0.14592 0.41832 0.27768 0.87695-0.94953  0 258.84  13.29  355.28 258.82  13.61  355.11
  -3   7   1  1734.9   203.9   1-0.46575 0.08286 0.28804 0.40765-0.83673 0.90937  0 457.43  14.04   31.43 457.40  14.14   31.41
  -3   7   1  2526.8   271.9   2-0.23362-0.14903 0.23022 0.46605 0.94468-0.87211  0 249.94  16.93    6.63 249.80  16.88    6.78
   3  -7  -1  1199.2   134.0   1-0.60830 0.99143-0.77355 0.07749-0.17775 0.10518  0 173.72 452.70  109.36 173.81 452.47  109.28
   3  -7  -1  2321.4   224.9   2 0.12795 0.25477-0.28804-0.40841-0.94903 0.87653  0 104.77 157.67  183.72 104.54 157.60  183.70
   3  -7   1  1431.1   166.5   1-0.58975 0.97288-0.79605 0.09999-0.13601 0.20858  0 144.78 422.84  111.99 144.80 422.96  112.19
   3  -7   1  2000.1   228.2   2 0.12846 0.25426-0.47708-0.21937-0.86942 0.94193  0 101.64 165.14  171.99 101.41 165.11  171.89
   3   7  -1  1996.3   210.1   2-0.22618 0.60868 0.65625 0.04005 0.71985-0.79241  0  93.25 190.30  338.67  92.96 190.49  338.72
   3   7   1  1955.5   204.0   2-0.23475 0.61723 0.49889 0.19710 0.83426-0.76169  0  91.14 199.04  349.73  90.75 199.12  349.87
  -3  -7  -2 13188.0   390.6   1-0.59753 0.21464 0.02783-0.72353-0.80136 0.65608  0  82.63 290.66   48.25  82.62 290.52   48.30
  -3  -7   2 13510.4   396.6   1-0.67908 0.29615-0.23962-0.45631-0.69386 0.83909  0  80.99 244.12   65.43  80.83 244.07   65.50
  -3   7  -2 17013.6   554.7   2-0.23423-0.14827 0.51190 0.18440 0.82649-0.97160  2 260.96   7.03  348.83 261.02   7.30  349.07
  -3   7   2 19035.8   475.4   2-0.23028-0.15236 0.14116 0.55511 0.96283-0.81770  0 243.36  13.98   12.00 243.26  14.20   12.00
   3  -7  -2  9692.7   249.5   1-0.61338 0.99650-0.76664 0.07058-0.18983 0.04470  0 188.28 470.45  108.23 188.58 470.23  108.43
   3  -7  -2 19990.9   456.7   2 0.12533 0.25738-0.19715-0.49930-0.97233 0.82732  0 103.33 151.24  189.18 103.01 151.18  189.09
   3  -7   2 11974.0   346.2   1-0.57726 0.96039-0.80918 0.11313-0.10953 0.25466  0 129.53 410.43  114.01 129.66 410.37  114.03
   3  -7   2 18344.6   428.5   2 0.12583 0.25689-0.56860-0.12785-0.81293 0.95795  0  97.00 166.40  165.72  96.67 166.29  165.68
   3   7  -2 16376.7   398.6   2-0.21964 0.60214 0.72503-0.02873 0.65276-0.79787  0  91.06 183.56  333.17  90.84 183.70  333.18
   3   7   2 16762.4   384.4   2-0.23659 0.61907 0.41504 0.28096 0.87850-0.73336  0  86.36 201.14  355.25  86.22 201.06  355.32
  -3  -7  -3 312.983 128.582   1-0.57376 0.19088 0.08366-0.77935-0.81474 0.59681  0  77.91 302.77   44.58  77.84 302.80   44.73
  -3  -7   3 677.164 151.899   1-0.69104 0.30811-0.31138-0.38455-0.65231 0.87017  0  75.16 232.21   70.39  75.24 232.09   70.29
  -3   7   3 554.649 189.932   2-0.22600-0.15665 0.05911 0.63717 0.97233-0.75464  2 235.30   9.19   17.04 235.20   8.60   16.74
   3  -7  -3 178.052  94.300   1-0.61411 0.99724-0.76561 0.06956-0.19160-0.02609  0 204.85 491.25  108.51 204.64 490.86  108.30
   3  -7  -3 614.941 156.915   2 0.12144 0.26128-0.11260-0.58385-0.98619 0.76867  0  99.46 142.87  193.96  99.41 142.94  194.01
   3  -7   3 243.593 147.107   1-0.56305 0.94618-0.82252 0.12647-0.08022 0.29792  0 113.74 398.54  115.98 113.62 398.82  116.05
   3  -7   3 374.720 136.642   2 0.12100 0.26172-0.65407-0.04238-0.74670 0.96421  0  89.83 165.60  159.45  89.69 165.81  159.48
   3   7  -3 434.800 139.345   2-0.21186 0.59436 0.78542-0.08912 0.58158-0.79925  0  86.87 175.07  327.95  86.58 175.23  327.79
  -3  -7  -4  17.689 132.631   1-0.55058 0.16769 0.13332-0.82901-0.82407 0.53350  0  71.15 315.65   41.63  70.87 315.83   41.55
  -3  -7   4 158.129 122.665   1-0.69841 0.31548-0.38221-0.31372-0.60510 0.89557  0  67.14 219.32   75.43  67.41 219.53   75.19
   3  -7  -4 297.578 154.560   2 0.11688 0.26584-0.03624-0.66021-0.99248 0.70246  0  93.81 132.56  198.40  93.65 132.74  198.41
   3  -7   4 125.983 152.598   1-0.54711 0.93024-0.83562 0.13956-0.04911 0.33937  0  96.56 388.11  118.01  96.32 388.10  118.18
   3  -7   4  85.696 131.567   2 0.11398 0.26874-0.73121 0.03476-0.67256 0.96258  0  80.01 163.87  152.86  80.32 163.68  153.34
   3   7  -4 306.452 145.563   2-0.20311 0.58561 0.83703-0.14073 0.50806-0.79828  0  80.78 164.98  322.40  80.08 165.06  322.58
   3   7   4 391.726 126.932   2-0.23418 0.61682 0.25092 0.44535 0.93925-0.64899  0  70.10 200.41    5.56  69.92 200.36    5.55
  -3  -7  -5  3932.9   283.1   1-0.52881 0.14592 0.17645-0.87214-0.83020 0.46699  0  61.57 330.01   38.87  61.48 329.91   38.76
  -3  -7   5  4086.2   289.3   1-0.70036 0.31743-0.45123-0.24470-0.55307 0.91617  0  57.31 206.07   80.12  57.20 206.08   80.13
   3  -7  -5  6151.2   346.0   2 0.11256 0.27010 0.03095-0.72760-0.99316 0.63059  0  85.64 120.25  202.29  85.45 120.40  202.21
   3  -7   5  3556.0   275.7   1-0.52961 0.91274-0.84808 0.15203-0.01637 0.37920  0  77.65 378.07  120.33  77.45 377.97  120.42
   3  -7   5  5501.7   304.3   2 0.10547 0.27722-0.79813 0.10128-0.59318 0.95545  0  68.53 160.07  147.15  68.45 160.01  147.33
   3   7  -5  4546.2   300.6   2-0.19345 0.57595 0.88000-0.18370 0.43380-0.79658  0  71.61 152.89  317.64  71.16 152.99  317.61
   3   7   5  5561.8   283.9   2-0.23173 0.61437 0.17669 0.51959 0.95660-0.59377  0  58.15 197.82   10.00  57.92 197.81    9.93
  -3  -7  -6  5808.0   325.5   1-0.50939 0.12650 0.21297-0.90866-0.83377 0.39791  0  49.26 345.57   36.38  49.51 345.37   36.39
  -3  -7   6  5974.7   334.8   1-0.69724 0.31431-0.51697-0.17896-0.49659 0.93230  0  44.47 191.31   85.03  44.33 191.42   85.11
   3  -7  -6  7493.6   382.7   2 0.10793 0.27473 0.08843-0.78508-0.99022 0.55513  0  75.27 105.66  205.58  74.84 105.68  205.53
   3  -7   6  5559.8   328.3   1-0.51051 0.89364-0.85969 0.16364 0.01750 0.41789  0  56.79 368.26  122.80  56.54 368.25  122.74
   3  -7   6  7409.7   343.2   2 0.09542 0.28728-0.85487 0.15802-0.51000 0.94472  0  54.13 154.80  141.51  53.60 154.71  141.54
   3   7  -6  6250.1   360.8   2-0.18336 0.56586 0.91489-0.21859 0.35966-0.79500  0  59.79 138.83  312.74  59.64 138.92  312.85
   3   7   6  6920.6   312.2   2-0.22878 0.61142 0.11033 0.58595 0.96721-0.53182  0  43.27 193.96   13.77  42.91 193.91   13.79
  -3  -7  -7 458.271 187.046   1-0.49254 0.10966 0.24287-0.93856-0.83571 0.32722  0  34.32 363.13   34.55  34.52 362.77   34.42
  -3  -7   7 656.904 215.475   1-0.68863 0.30571-0.57895-0.11698-0.43658 0.94491  0  28.35 175.12   89.93  28.43 175.06   90.06
   3  -7  -7 590.713 224.848   2 0.10368 0.27898 0.13646-0.83311-0.98521 0.47760  0  61.15  88.07  208.16  61.30  88.23  208.31
   3  -7   7 625.698 195.936   1-0.48990 0.87302-0.87020 0.17415 0.05243 0.45552  0  32.88 359.11  125.40  32.98 358.82  125.15
   3  -7   7 918.150 207.078   2 0.08414 0.29855-0.90124 0.20439-0.42507 0.93225  0  35.49 147.61  136.25  35.43 147.75  135.99
   3   7  -7 813.607 211.372   2-0.17283 0.55533 0.94236-0.24606 0.28650-0.79439  0  44.77 122.67  308.48  45.04 122.47  308.30
   3   7   7 821.356 178.130   2-0.22563 0.60827 0.05289 0.64339 0.97278-0.46482  0  24.37 188.90   16.98  24.45 188.71   17.10
  -3  -8   0  3910.2   303.3   1-0.66333 0.28040-0.17049-0.62486-0.72865 0.72865  0  49.29 281.58   61.04  49.17 281.50   60.98
   3  -8   0  3335.5   251.1   1-0.60298 0.98610-0.78042-0.01507-0.16544 0.16544  0 130.06 468.07  110.15 130.25 468.04  110.14
   3  -8   0  5185.3   335.9   2 0.12919 0.25353-0.42786-0.36808-0.89456 0.89456  0  73.99 134.27  175.16  73.79 134.22  175.07
   3   8   0  4416.6   293.7   2-0.23009 0.61259 0.60041 0.19536 0.76588-0.76588  0  59.62 174.25  343.16  59.34 174.31  342.90
  -3  -8  -1  3561.3   276.7   1-0.64725 0.26432-0.11272-0.68263-0.75390 0.68128  0  48.90 294.20   57.17  49.05 294.06   57.26
  -3  -8   1  4243.1   293.7   1-0.67731 0.29438-0.23086-0.56449-0.69854 0.77116  0  47.54 269.19   64.66  47.09 269.11   64.92
   3  -8  -1  2675.0   227.5   1-0.61046 0.99359-0.77065-0.02484-0.18286 0.11029  0 144.84 485.82  109.02 145.11 485.60  108.92
   3  -8  -1  5308.1   339.8   2 0.12895 0.25377-0.34665-0.44930-0.92909 0.85658  0  74.42 129.34  180.17  74.42 129.36  180.16
   3  -8   1  3133.7   263.0   1-0.59322 0.97634-0.79213-0.00336-0.14363 0.21619  0 115.10 452.93  111.60 115.09 452.61  111.66
   3  -8   1  5587.6   335.5   2 0.12782 0.25489-0.50935-0.28659-0.85102 0.92352  0  71.15 137.41  169.81  70.86 137.29  169.75
   3   8  -1  4069.1   298.0   2-0.22538 0.60788 0.66627 0.12951 0.71084-0.78340  0  59.67 168.92  338.01  59.44 169.02  337.94
   3   8   1  4961.3   292.7   2-0.23351 0.61601 0.53110 0.26467 0.81450-0.74194  0  56.98 177.98  347.69  56.82 178.06  347.77
  -3  -8  -2 -76.834 141.664   1-0.62982 0.24689-0.05845-0.73690-0.77454 0.62930  0  47.45 306.80   53.36  46.62 307.02   53.79
  -3  -8   2 140.754 131.515   1-0.68844 0.30551-0.29283-0.50251-0.66355 0.80879  0  41.69 256.78   69.51  42.75 256.65   69.04
   3  -8  -2  24.410 167.679   2 0.12746 0.25525-0.26792-0.52802-0.95497 0.80996  0  73.06 122.80  184.41  72.74 122.59  184.91
   3  -8   2 110.509 150.684   1-0.58151 0.96464-0.80490 0.00940-0.11827 0.26340  0  98.90 438.95  113.27  99.20 438.88  113.42
   3  -8   2  29.474 156.808   2 0.12482 0.25790-0.58868-0.20726-0.79867 0.94368  0  64.76 138.66  163.95  65.62 138.60  164.26
   3   8  -2  45.650 153.333   2-0.21941 0.60191 0.72713 0.06864 0.65050-0.79561  0  57.44 161.76  333.12  57.15 162.00  333.00
   3   8   2 -96.326 128.964   2-0.23580 0.61828 0.46010 0.33532 0.85598-0.71084  0  51.39 180.62  351.94  51.87 180.20  352.42
  -3  -8  -3  2519.9   273.8   1-0.61185 0.22892-0.00847-0.78688-0.79093 0.57307  0  41.85 320.74   50.59  41.82 320.67   50.61
  -3  -8   3  2071.4   233.3   1-0.69624 0.31331-0.35532-0.44003-0.62370 0.84155  0  35.81 243.93   73.22  36.02 243.87   73.31
   3  -8  -3  3188.9   314.4   2 0.12519 0.25752-0.19358-0.60236-0.97306 0.75555  0  68.42 113.75  189.26  68.75 113.80  189.29
   3  -8   3  2321.5   268.4   1-0.56802 0.95114-0.81806 0.02257-0.09022 0.30792  0  82.03 426.50  115.27  82.11 426.51  115.36
   3  -8   3  3569.9   311.0   2 0.12029 0.26243-0.66364-0.13230-0.73832 0.95584  0  58.38 138.17  158.67  57.85 138.13  158.75
   3   8  -3  2149.9   228.4   2-0.21237 0.59487 0.78196 0.01381 0.58603-0.80370  0  52.37 153.12  327.99  52.45 153.24  328.11
   3   8   3  2651.0   273.4   2-0.23684 0.61932 0.38977 0.40566 0.88994-0.67222  0  44.43 180.95  356.77  44.25 180.89  356.92
  -3  -8  -4  32.675 156.020   1-0.59383 0.21094 0.03688-0.83196-0.80375 0.51318  0  35.26 334.72   47.45  34.62 335.40   47.72
  -3  -8   4-217.767 154.474   1-0.70004 0.31711-0.41746-0.37789-0.57938 0.86985  0  27.08 230.71   77.66  26.74 230.50   77.68
   3  -8  -4  32.694 191.296   2 0.12205 0.26067-0.12538-0.67056-0.98457 0.69455  0  61.50 102.69  192.91  62.28 102.83  193.26
   3  -8   4  49.735 180.047   1-0.55281 0.93594-0.83114 0.03565-0.06008 0.35035  0  62.99 415.38  117.75  63.47 415.23  117.43
   3  -8   4 113.543 170.158   2 0.11382 0.26889-0.73261-0.06333-0.67106 0.96109  0  46.88 135.99  153.00  47.35 135.93  153.22
   3   8  -4 -27.238 174.544   2-0.20443 0.58693 0.83017-0.03440 0.51868-0.80891  0  44.05 142.56  322.93  45.16 142.64  323.31
  -4   0   0 89367.2   571.7   1-0.25526-0.25526 0.56596-0.56596-0.78392 0.78392  0 213.22 164.98   11.00 213.11 165.11   11.12
  -4   0   0 128489.    684.   1-0.25542-0.25542-0.89183 0.89183 0.37337-0.37337  0 400.26 149.29  147.84 400.55 149.58  148.13
  -4   0  -1   9.517  47.494   1-0.15624-0.35428 0.66288-0.66288-0.73225 0.65960  0 202.17 176.23    2.61 202.05 175.83    2.64
  -4   0  -1 -30.167  74.612   1-0.30521-0.20563-0.89895 0.89895 0.31422-0.38678  0 416.05 160.08  143.46 415.87 159.98  143.67
  -4   0   1  28.980  42.223   1-0.37797-0.13255 0.41807-0.41807-0.82605 0.89869  0 222.98 153.71   22.39 223.08 153.72   22.40
  -4   0   1  64.009  68.424   1-0.19877-0.31206-0.87804 0.87804 0.43536-0.36286  0 387.26 138.48  153.09 387.27 138.50  152.99
  -4   0   1  12.696  34.993   2-0.14756-0.36271-0.59045 0.59045 0.79347-0.72098  0 397.37 145.04   56.84 397.46 145.28   56.41
  -4   0   1  23.888  34.562   2-0.19589-0.31411 0.87035-0.87035 0.45179-0.37923  0 445.40 202.16  318.81 445.21 202.24  318.79
  -4   0  -2 -11.454  87.621   1-0.34942-0.16142-0.90066 0.90066 0.25830-0.40343  0 432.94 169.97  139.42 433.29 169.99  139.58
  -4   0   2  29.036  43.440   1-0.51305 0.00253 0.20629-0.20629-0.83320 0.97849  0 231.31 142.02   36.39 231.58 141.51   36.83
  -4   0   2  28.423  62.850   1-0.13363-0.37720-0.85477 0.85477 0.50150-0.35649  0 376.10 126.35  158.56 376.17 126.69  158.47
  -4   0   2  59.021  51.845   2-0.10198-0.40829-0.78462 0.78462 0.61153-0.46655  0 379.74 128.64   72.16 380.00 128.68   71.92
  -4   0   2  31.765  47.399   2-0.18006-0.32994 0.92452-0.92452 0.33593-0.19082  0 459.22 224.02  310.89 459.54 223.78  311.37
   4   0  -2 -14.742  30.011   2 0.10592 0.40435-0.79456 0.79456-0.59788 0.45297  0 219.34 365.29  147.59 219.30 365.22  147.66
   4   0  -2  48.781  31.883   2 0.04336 0.46685 0.57440-0.57440-0.81743 0.67240  0 174.85 295.69  235.54 174.96 295.55  235.66
  -4   0  -3 -22.075  95.179   1-0.38915-0.12169-0.89809 0.89809 0.20496-0.42265  0 453.04 179.73  135.52 453.02 179.95  135.76
  -4   0  -3  -3.216  21.223   2 0.12003-0.63032-0.08754 0.08754-0.98890 0.77139  0 447.87 173.11  196.15 448.08 173.44  195.45
  -4   0  -3  15.750  22.499   2 0.03681-0.54702 0.60758-0.60758-0.79341 0.57586  0 427.73 149.69  238.60 427.92 149.86  238.04
  -4   0   3  -8.409  37.214   1-0.63150 0.12093-0.06342 0.06342-0.77278 0.99063  0 238.29 128.45   53.76 238.32 128.34   54.11
  -4   0   3  28.492  58.608   1-0.05888-0.45195-0.81931 0.81931 0.57032-0.35280  0 367.57 113.72  164.57 367.57 113.70  164.64
  -4   0   3  16.299  62.585   2-0.08079-0.42948-0.85166 0.85166 0.51783-0.30036  0 364.29 112.73   78.83 364.35 112.91   78.63
  -4   0   3  24.741  63.875   2-0.17450-0.33549 0.93866-0.93866 0.29743-0.07977  0 474.04 244.58  308.35 474.08 244.33  308.98
   4   0  -3  14.385  45.443   2 0.09282 0.41744-0.86693 0.86693-0.48970 0.27234  0 232.67 384.50  140.13 232.72 384.45  140.19
   4   0  -3 -40.023  37.373   2 0.00943 0.50078 0.72853-0.72853-0.68495 0.46741  0 164.29 277.14  247.60 164.36 277.11  247.52
   4   0   3 143.832  73.822   1 0.02847 0.48236-0.76640 0.76640 0.64173-0.42421  0 177.53 320.33  171.51 177.22 320.47  171.79
  -4   0  -4  2449.6   209.1   1-0.42515-0.08569-0.89200 0.89200 0.15358-0.44384  0 475.21 189.97  131.88 475.41 190.02  132.14
  -4   0  -4  2456.4    94.1   2 0.12600-0.63629-0.56470 0.56470-0.81562 0.52560  0 476.04 193.42  165.89 476.28 193.49  165.96
  -4   0  -4  2719.9    99.4   2-0.01925-0.49083 0.82846-0.82846-0.55972 0.26971  0 414.16 121.42  256.81 414.34 121.70  256.85
  -4   0   4  1804.6    86.6   1-0.69553 0.18496-0.34803 0.34803-0.62858 0.91906  0 242.85 113.89   72.75 242.70 114.03   72.81
  -4   0   4  2636.8   121.8   1 0.02516-0.53599-0.76863 0.76863 0.63920-0.34918  0 361.99  98.81  171.67 361.96  99.07  171.52
  -4   0   4  2743.0   159.6   2-0.07047-0.43981-0.87987 0.87987 0.46996-0.18001  0 349.41  96.55   81.82 349.43  96.75   81.86
  -4   0   4  2222.1   151.6   2-0.17318-0.33682 0.94157-0.94157 0.28889 0.00134  0 489.97 265.16  308.64 490.01 265.24  308.44
   4   0  -4  2503.8   127.3   2 0.08644 0.42382-0.89288 0.89288-0.44192 0.15210  0 245.33 403.70  137.00 245.09 403.44  137.06
   4   0  -4  2573.7   122.5   2-0.00832 0.51839 0.79374-0.79374-0.60820 0.31819  0 153.97 260.55  253.13 153.96 260.35  253.38
   4   0   4  2550.5   165.7   1-0.00965 0.52047-0.79090 0.79090 0.61187-0.32185  0 163.26 310.81  168.65 163.26 310.87  168.67
  -4   0  -5   3.493 128.768   1-0.45804-0.05280-0.88285 0.88285 0.10386-0.46669  0 500.89 200.34  128.53 501.06 200.44  128.69
  -4   0  -5  43.995  62.035   2 0.11721-0.62750-0.69906 0.69906-0.70539 0.34286  0 502.79 208.67  156.04 503.00 208.76  155.98
  -4   0  -5  -9.837  65.286   2-0.03386-0.47622 0.86967-0.86967-0.49247 0.12996  0 406.10  97.34  261.20 405.90  97.33  261.45
  -4   0   5 -23.204  41.368   1-0.68644 0.17587-0.59026 0.59026-0.42473 0.78782  0 244.72  98.15   91.37 244.39  98.27   91.01
  -4   0   5  15.589  99.284   2-0.06577-0.44450-0.89170 0.89170 0.44782-0.08537  0 335.02  79.58   83.57 334.78  79.63   83.32
   4   0  -5  37.789  90.258   2 0.08379 0.42647-0.90249 0.90249-0.42247 0.06020  0 257.07 423.61  135.60 257.22 423.63  135.82
   4   0  -5  69.650  58.768   2-0.01797 0.52805 0.82462-0.82462-0.56539 0.20288  0 142.85 244.17  256.45 142.94 244.14  256.45
   4   0   5  -9.035  82.096   1-0.03519 0.54602-0.80609 0.80609 0.59075-0.22822  0 147.76 301.10  166.47 148.20 301.31  166.58
   4   0   5  28.477  34.127   2-0.12898 0.63926-0.67976 0.67976 0.72201-0.35956  0 150.93 312.46   63.00 150.92 312.35   63.05
   4   0   5 -21.300  33.347   2-0.23642 0.74640 0.42849-0.42849 0.87207-0.50920  0 194.52 382.90  354.56 194.57 382.96  354.46
  -4   0  -6  9385.4   225.1   2-0.03824-0.47184 0.88092-0.88092-0.47172 0.03671  0 398.84  71.62  262.86 399.06  71.99  262.82
  -4   0   6  8051.1   152.4   1-0.62305 0.11221-0.75244 0.75244-0.21364 0.64903  0 243.32  80.56  106.79 243.07  80.85  106.74
  -4   0   6  9737.1   297.5   2-0.06440-0.44587-0.89508 0.89508 0.44124-0.00630  0 319.96  60.85   83.72 320.08  61.10   83.75
   4   0  -6  6261.3   161.5   1-0.20871 0.71923 0.61379-0.61379-0.76138 0.32553  0 363.54 453.66    7.14 363.33 453.55    7.08
   4   0  -6  8971.0   275.6   2 0.08332 0.42694-0.90414 0.90414-0.41903-0.01570  0 269.59 446.14  135.59 269.56 445.91  135.60
   4   0  -6  9063.0   247.4   2-0.02283 0.53291 0.83921-0.83921-0.54333 0.10831  0 130.88 227.98  257.99 130.91 227.85  257.99
   4   0   6  9018.3   289.8   1-0.05092 0.56175-0.81500 0.81500 0.57722-0.14219  0 131.86 291.63  165.04 131.82 291.65  165.29
   4   0   6  9397.0   173.8   2-0.11025 0.62052-0.75522 0.75522 0.64614-0.21120  0 132.70 298.73   69.26 132.72 298.79   69.28
   4   0   6  7457.6   162.6   2-0.23182 0.74182 0.57038-0.57038 0.78798-0.35265  0 199.81 408.55  345.11 199.91 408.44  345.05
  -4   0  -7 0.06802 113.809   2-0.03825-0.47182 0.88096-0.88096-0.47164-0.03588  0 393.70  44.15  262.43 393.24  44.40  262.83
  -4   0   7  -4.856  52.960   1-0.53610 0.02527-0.84368 0.84368-0.02830 0.53626  0 239.37  60.72  120.01 238.98  61.18  119.61
  -4   0   7 -31.769 144.465   2-0.06514-0.44513-0.89327 0.89327 0.44478 0.06265  0 304.78  41.30   84.04 305.01  40.65   83.52
   4   0  -7  51.112  83.037   1-0.28481 0.79533 0.53341-0.53341-0.79647 0.28797  0 368.80 477.09   13.83 368.70 477.00   13.74
   4   0  -7  40.352 142.202   2 0.08421 0.42606-0.90101 0.90101-0.42555-0.08162  0 282.36 471.27  136.58 282.41 471.12  136.02
   4   0  -7  10.426  86.076   2-0.02472 0.53480 0.84453-0.84453-0.53493 0.02742  0 117.56 210.99  258.47 117.50 211.11  258.57
   4   0   7 -24.346 101.502   1-0.05899 0.56982-0.81937 0.81937 0.57022-0.06267  0 114.04 281.69  164.45 113.93 281.71  164.63
   4   0   7  -3.871  55.004   2-0.10238 0.61265-0.78324 0.78324 0.61323-0.10580  0 114.21 287.07   72.03 114.07 287.27   71.80
   4   0   7 -36.977  65.958   2-0.22795 0.73795 0.63409-0.63409 0.73890-0.23101  0 203.14 434.51  340.49 203.22 434.46  340.42
  -4   0  -8 35343.5   483.2   2-0.03592-0.47416 0.87505-0.87505-0.48270-0.09731  0 388.03  12.93  261.97 388.31  13.46  262.10
  -4   0   8 34327.3   312.3   1-0.44589-0.06495-0.88664 0.88664 0.12265 0.45787  0 232.83  38.00  130.08 232.64  38.43  129.99
  -4   0   8 38231.4   604.2   2-0.06732-0.44295-0.88783 0.88783 0.45521 0.12470  0 289.04  17.39   82.84 289.22  17.67   82.84
   4   0  -8 34182.1   518.8   2-0.02452 0.53460 0.84395-0.84395-0.53586-0.04416  0 102.53 193.59  258.45 102.28 193.50  258.51
   4   0   8 34679.6   584.2   1-0.06089 0.57172-0.82037 0.82037 0.56858 0.01147  0  94.46 271.24  164.44  94.11 271.27  164.47
   4   0   8 34518.1   408.0   2-0.09987 0.61014-0.79197 0.79197 0.60233-0.02242  0  94.21 276.66   72.71  93.89 276.76   72.61
   4   0   8 29076.2   385.4   2-0.22552 0.73552 0.66452-0.66452 0.71243-0.13198  0 204.95 463.08  338.07 205.13 462.85  338.08
  -4   0   9  40.895  80.739   1-0.35927-0.15157-0.90042 0.90042 0.24532 0.40777  2 225.36  11.02  139.08 224.85  11.45  138.65
   4   0  -9-167.792 124.733   2-0.02281 0.53288 0.83913-0.83913-0.54345-0.10907  0  84.66 174.59  257.96  84.73 174.57  257.98
   4   0   9  37.476 135.509   1-0.05767 0.56850-0.81867 0.81867 0.57137 0.08119  0  72.09 260.07  164.45  71.91 260.07  164.73
   4   0   9 -92.858  75.390   2-0.10030 0.61057-0.79049 0.79049 0.60420 0.04820  0  71.30 266.48   72.43  71.37 266.79   72.47
   4   0   9 -27.644 111.113   2-0.22447 0.73447 0.67694-0.67694 0.70097-0.04797  0 204.80 495.26  337.52 205.51 494.94  337.10
   4   0 -10  9089.2   375.3   2-0.02005 0.53013 0.83091-0.83091-0.55605-0.16897  0  64.28 153.88  256.99  64.13 153.79  257.11
   4   0  10  8589.3   371.2   1-0.05020 0.56103-0.81460 0.81460 0.57784 0.14722  0  46.75 247.64  165.36  46.59 247.72  165.35
   4   0  10  8115.8   268.2   2-0.10262 0.61289-0.78239 0.78239 0.61428 0.11061  0  45.91 257.08   71.77  45.64 257.13   71.72
   4   0 -11 175.567 186.204   2-0.01642 0.52650 0.81982-0.81982-0.57238-0.22514  0  39.64 130.43  255.53  39.46 130.38  255.96
   4   0  11-158.748 164.600   1-0.03904 0.54987-0.80837 0.80837 0.58738 0.21019  0  16.73 233.60  166.40  17.12 233.75  166.26
   4   0  11 -78.365 111.570   2-0.10640 0.61668-0.76923 0.76923 0.63005 0.16733  0  15.67 247.79   70.52  15.56 247.70   70.52
  -4  -1   0 -39.884  52.437   1-0.35280-0.15772 0.45136-0.55074-0.81964 0.81964  0 199.98 176.59   19.98 199.92 176.68   19.98
  -4  -1   0  49.516  85.371   1-0.10149-0.40934-0.84056 0.74114 0.53212-0.53212  0 418.90 160.24  161.64 418.99 160.36  161.14
  -4   1   0 -41.422  65.774   1-0.43811-0.07273-0.88884 0.98827 0.13425-0.13425  0 388.25 137.15  130.90 388.16 137.18  130.80
  -4   1   0  36.353  34.995   2-0.23150-0.27869 0.17077-0.07130 0.95773-0.95773  0 399.50 144.66   10.96 399.79 144.78   10.27
  -4   1   0   5.328  31.906   2-0.07775-0.43232 0.95823-0.85870-0.27521 0.27521  0 446.30 200.19  275.28 446.33 200.34  275.14
  -4  -1  -1  36.232  58.617   1-0.26586-0.24466 0.55456-0.65394-0.78853 0.71589  0 191.25 187.28   12.50 191.27 187.12   12.05
  -4  -1  -1  33.745  87.814   1-0.16771-0.34312-0.86784 0.76842 0.46768-0.54018  0 431.60 171.21  155.47 431.54 171.34  155.62
  -4  -1   1  10.227  49.783   1-0.45006-0.06046 0.31314-0.41252-0.83630 0.90894  0 206.93 165.56   29.51 206.86 165.74   29.72
  -4  -1   1  91.347  83.145   1-0.02946-0.48137-0.80277 0.70335 0.59556-0.52305  0 408.75 148.67  166.85 409.06 148.83  167.05
  -4  -1   1  33.409  36.773   2-0.03989-0.47038-0.94634 0.84683 0.32071-0.24822  0 398.29 141.63   91.52 398.53 141.55   91.40
  -4  -1   1  54.050  36.194   2-0.23604-0.27394 0.45380-0.55323 0.85927-0.78670  0 449.72 202.62  353.01 449.78 202.71  352.84
  -4   1  -1 139.833  80.679   1-0.45712-0.05372-0.88315 0.98259 0.10530-0.17786  0 406.67 147.17  128.93 406.61 147.08  128.78
  -4   1  -1  95.271  28.637   2-0.02959-0.48049 0.85827-0.75873-0.51235 0.43985  0 442.56 188.32  260.74 442.61 188.78  260.11
  -4   1  -1  48.581  29.237   2-0.21885-0.29115 0.73209-0.63262 0.64509-0.71765  0 410.49 150.63  332.86 410.52 150.61  332.58
  -4   1   1  44.536  38.326   1-0.27759-0.23293 0.54153-0.44214-0.79353 0.86617  0 236.14 140.04   13.75 236.12 140.54   13.09
  -4   1   1  74.175  61.399   1-0.42145-0.08939-0.89280 0.99224 0.15903-0.08647  0 370.77 126.72  132.48 370.66 126.83  132.52
  -4   1   1  22.790  46.182   2-0.19412-0.31607-0.29384 0.39330 0.93594-0.86337  0 385.91 134.18   37.51 386.12 134.05   37.26
  -4   1   1  59.375  41.576   2-0.10011-0.40996 0.98285-0.88331-0.15485 0.22735  0 454.85 216.07  282.59 454.85 216.34  282.31
   4  -1  -1 104.725  30.247   2 0.05118 0.45908-0.97941 0.87986-0.19529 0.12284  0 214.01 357.98  121.95 213.80 358.09  121.92
   4  -1  -1  66.007  26.419   2 0.11818 0.39211-0.05617-0.04332-0.99140 0.91890  0 178.89 303.16  197.61 178.99 303.28  197.26
   4  -1   1  43.139  58.890   1 0.03002 0.48081-0.76536 0.66593 0.64291-0.57040  0 208.99 352.33  171.66 208.84 352.60  171.91
   4   1  -1  61.335  14.860   2 0.10408 0.40613 0.13219-0.03267-0.98574 0.91323  0 199.03 341.21  208.08 199.15 341.20  208.06
   4   1  -1  88.019  16.358   2 0.04023 0.46998 0.59041-0.49089-0.80610 0.73358  0 187.51 322.99  237.01 187.59 322.99  236.80
  -4  -1  -2 897.344 105.937   1-0.19358-0.31694 0.62851-0.72790-0.75333 0.60804  0 181.27 197.10    5.86 181.20 197.18    5.79
  -4  -1  -2  1244.0   135.7   1-0.22786-0.28297-0.88601 0.78658 0.40382-0.54883  0 446.66 181.75  150.50 446.67 182.00  150.49
  -4  -1   2 973.960  95.871   1-0.54756 0.03704 0.13949-0.23888-0.82506 0.97034  0 212.02 154.07   40.94 211.98 154.11   41.15
  -4  -1   2  1266.6   131.6   1 0.04713-0.55796-0.75353 0.65410 0.65572-0.51071  0 401.70 136.03  173.39 401.92 136.33  173.31
  -4  -1   2  1375.3    97.3   2-0.02588-0.48439-0.96814 0.86864 0.24905-0.10407  0 381.40 125.37   95.97 381.48 125.44   95.78
  -4  -1   2  1111.2    91.3   2-0.22339-0.28661 0.68867-0.78814 0.68980-0.54469  0 463.70 223.58  336.15 463.76 223.56  336.16
  -4   1  -2  1167.5   139.7   1-0.47708-0.03376-0.87578 0.97521 0.07354-0.21867  0 426.31 156.49  126.65 426.46 156.60  126.60
  -4   1  -2  1341.3    57.9   2 0.05755-0.56776 0.49427-0.39475-0.86740 0.72237  0 449.18 187.68  230.56 449.43 187.96  230.19
  -4   1  -2  1134.9    58.4   2-0.16495-0.34505 0.95821-0.85874 0.23372-0.37883  0 412.70 144.82  305.09 412.86 144.96  305.10
  -4   1   2 895.140  65.561   1-0.46850-0.04201 0.28361-0.18422-0.83670 0.98199  0 250.17 127.22   31.75 250.09 127.32   31.71
  -4   1   2  1221.9    90.4   1-0.41011-0.10072-0.89502 0.99446 0.17535-0.03022  0 353.65 115.58  133.85 353.53 115.79  133.67
  -4   1   2  1386.7   108.7   2-0.15662-0.35365-0.54222 0.64173 0.82551-0.68053  0 372.00 121.31   53.04 371.98 121.53   53.04
  -4   1   2  1227.3    96.2   2-0.11403-0.39605 0.99047-0.89093-0.07723 0.22224  0 465.85 233.82  286.94 465.83 233.93  286.84
   4  -1  -2  1266.9    78.5   2 0.04637 0.46389-0.98522 0.88567-0.16492 0.02001  0 226.58 374.64  120.02 226.40 374.58  120.13
   4  -1  -2  1400.3    76.4   2 0.08229 0.42793 0.32932-0.42884-0.94063 0.79559  0 170.11 286.12  219.90 170.08 286.09  219.75
   4  -1   2  1253.0   114.1   1-0.03848 0.54931-0.80805 0.70863 0.58785-0.44284  0 194.99 342.25  166.24 194.80 342.16  166.31
   4   1  -2  1411.5    71.3   2 0.12860 0.38169-0.46906 0.56855-0.87376 0.72874  0 217.94 367.72  172.52 217.82 367.57  172.41
   4   1  -2  1249.7    67.0   2-0.02857 0.53865 0.85546-0.75592-0.51708 0.37208  0 172.46 296.14  259.77 172.44 295.98  259.79
  -4  -1  -3 10890.1   288.3   1-0.28257-0.22827-0.89637 0.79693 0.34158-0.55928  0 464.42 192.57  145.98 464.52 192.76  145.71
  -4  -1  -3 10356.2    90.0   2 0.11112-0.62141-0.75616 0.65667-0.64488 0.42737  0 452.61 173.27  151.14 452.91 173.52  151.20
  -4  -1  -3 10986.3    91.2   2 0.11596-0.62617-0.01907-0.08045-0.99307 0.77552  0 428.61 145.34  198.78 428.53 145.28  199.34
  -4  -1   3  7949.9   181.2   1-0.63018 0.11961-0.05952-0.03990-0.77416 0.99202  0 215.05 141.65   53.80 214.99 141.69   53.86
  -4  -1   3 12301.7   217.5   2-0.02268-0.48759-0.97246 0.87295 0.23198-0.01451  0 365.91 109.58   96.92 365.93 109.80   96.81
  -4  -1   3  9063.3   193.2   2-0.21256-0.29744 0.78063-0.88011 0.58773-0.37006  0 478.14 243.94  328.24 478.29 243.98  328.24
  -4   1  -3  9738.6   262.4   1-0.49730-0.01353-0.86665 0.96608 0.04018-0.25788  0 448.04 165.79  124.15 448.14 166.00  124.30
  -4   1  -3 10921.8   143.4   2 0.11404-0.62425 0.00843 0.09110-0.99344 0.77589  0 465.06 195.66  201.15 465.32 196.01  200.93
  -4   1  -3  9743.8   137.2   2-0.13333-0.37675 0.99041-0.89087 0.03630-0.25380  0 408.75 129.73  293.39 408.99 129.97  293.45
  -4   1   3  7437.3   116.8   1-0.65552 0.14495-0.14152 0.24094-0.74180 0.95966  0 265.11 112.39   58.85 265.36 112.55   59.11
  -4   1   3 10321.2   132.5   1-0.41216-0.09868-0.89465 0.99409 0.17240 0.04529  0 335.74 103.61  133.47 335.78 103.98  133.46
  -4   1   3 11650.0   222.7   2-0.13097-0.37930-0.67095 0.77046 0.72984-0.51237  0 357.86 107.46   62.15 357.94 107.69   62.37
  -4   1   3  9325.5   201.5   2-0.12443-0.38565 0.99210-0.89256-0.01620 0.23370  0 478.67 252.43  290.41 478.81 252.58  290.40
   4  -1  -3 10450.1   191.4   2 0.04704 0.46323-0.98447 0.88493-0.16911-0.04825  0 238.43 391.31  120.29 238.23 391.18  120.38
   4  -1  -3 11683.0   199.2   2 0.05208 0.45814 0.52651-0.62603-0.84857 0.63103  0 161.13 270.34  232.27 161.10 270.24  232.35
   4  -1   3 10680.8   252.8   1-0.08395 0.59478-0.83222 0.73279 0.54806-0.33054  0 180.47 332.19  162.56 180.28 332.16  162.58
   4   1  -3 10018.0   178.4   2 0.12094 0.38935-0.65495 0.75444-0.74593 0.52842  0 231.39 386.96  159.34 231.14 386.75  159.41
   4   1  -3 10418.6   179.2   2-0.04747 0.55754 0.90259-0.80305-0.42788 0.21037  0 161.99 277.95  265.65 161.91 277.76  265.67
  -4  -1  -4  5694.7   257.4   1-0.33191-0.17893-0.90050 0.80107 0.28095-0.57121  0 485.34 203.44  141.21 485.45 203.56  141.23
  -4  -1  -4  5647.8   119.7   2 0.08978-0.60004-0.87962 0.78007-0.46712 0.17731  0 479.92 191.89  138.75 480.30 192.00  138.70
  -4  -1  -4  6161.6   124.4   2 0.06155-0.57176 0.47019-0.56971-0.88042 0.59036  0 416.40 118.52  228.50 416.55 118.69  228.61
  -4  -1   4  4277.3   142.4   1-0.68355 0.17298-0.26347 0.16405-0.68069 0.97117  0 215.74 128.16   66.98 215.62 128.27   67.08
  -4  -1   4  5534.5   189.2   2-0.02351-0.48676-0.97139 0.87189 0.23633 0.05363  0 351.03  93.50   96.66 351.06  93.65   96.55
  -4  -1   4  4601.4   184.6   2-0.20587-0.30413 0.82240-0.92187 0.53036-0.24014  0 494.25 264.77  324.22 494.33 264.84  324.12
  -4   1  -4  5307.4   253.6   1-0.51739 0.00656-0.85573 0.95516 0.00574-0.29600  0 472.20 175.30  122.01 472.22 175.45  121.93
  -4   1  -4  5403.5   135.9   2 0.12833-0.63862-0.30835 0.40784-0.94258 0.65255  0 485.66 206.91  182.49 485.95 207.14  182.48
  -4   1  -4  4945.6   133.8   2-0.11587-0.39421 0.99102-0.89148-0.06672-0.22329  0 402.99 110.84  287.38 403.25 111.07  287.45
  -4   1   4  4710.3    57.5   1-0.65735 0.14652-0.68691 0.78635-0.30989 0.60015  0 286.98  94.84  100.15 286.63  95.21   99.78
  -4   1   4  5228.9    59.6   1-0.47187-0.03897-0.87785 0.97729 0.08195 0.20831  0 312.00  91.42  126.84 312.39  91.79  127.17
  -4   1   4  6074.5   204.4   2-0.11438-0.39589-0.73939 0.83889 0.66349-0.37354  0 343.86  92.46   68.17 343.92  92.69   67.92
  -4   1   4  4836.4   189.2   2-0.13332-0.37676 0.99041-0.89087 0.03623 0.25378  0 493.65 272.29  293.54 493.76 272.46  293.45
   4  -1  -4  5552.4   171.7   2 0.04978 0.46048-0.98119 0.88164-0.18652-0.10329  0 250.07 409.14  121.31 249.88 408.94  121.40
   4  -1  -4  6227.9   174.9   2 0.03143 0.47878 0.63367-0.73319-0.77296 0.48290  0 151.51 254.85  240.01 151.52 254.77  239.97
   4  -1   4  5468.7   207.8   1-0.11311 0.62394-0.84594 0.74651 0.52115-0.23113  0 165.25 322.53  160.04 165.09 322.50  160.18
   4  -1   4  5484.6    99.3   2-0.21797 0.72816-0.05650-0.04296 0.97432-0.68406  0 197.30 371.76   23.42 197.17 371.58   23.39
   4  -1   4  6017.7   104.2   2-0.05401 0.56428-0.91891 0.81940 0.39076-0.10080  0 161.29 313.86   87.07 161.23 313.85   87.00
   4   1  -4  3684.0   170.5   1-0.20480 0.71532 0.61762-0.51824-0.75934 0.46877  0 397.61 408.53    6.85 397.84 408.38    6.75
   4   1  -4  5366.8   162.9   2 0.11321 0.39708-0.73818 0.83767-0.66504 0.37502  0 243.68 405.99  152.82 243.42 405.77  152.75
   4   1  -4  5783.8   163.3   2-0.05482 0.56490 0.91839-0.81885-0.39186 0.10185  0 151.56 261.30  267.94 151.50 261.13  267.96
  -4  -1  -5 22273.7   257.2   2 0.03120-0.54141 0.63478-0.73430-0.77207 0.40949  0 408.35  94.20  239.97 408.53  94.47  240.06
  -4  -1   5 15762.9   248.6   1-0.70036 0.18979-0.45014 0.35073-0.55395 0.91704  0 214.10 113.37   80.00 213.91 113.56   80.05
  -4  -1   5 21209.2   349.9   2-0.02633-0.48394-0.96753 0.86802 0.25139 0.11106  0 336.41  76.22   95.86 336.44  76.47   95.64
  -4   1  -5 19400.9   407.5   1-0.53691 0.02607-0.84312 0.94255-0.02979-0.33304  0 499.37 185.02  119.54 499.42 185.13  119.50
  -4   1  -5 19498.1   260.5   2-0.10311-0.40696 0.98502-0.88548-0.13822-0.22429  0 397.13  89.39  283.12 397.40  89.74  283.29
  -4   1   5 22703.3   367.1   2-0.10422-0.40605-0.77710 0.87661 0.62068-0.25824  0 329.81  76.04   70.81 329.87  76.30   71.23
   4  -1  -5 21407.3   348.7   2 0.05355 0.45672-0.97612 0.87657-0.21052-0.15175  0 261.55 428.70  122.94 261.67 428.45  122.82
   4  -1  -5 22227.6   335.2   2 0.01787 0.49235 0.69438-0.79390-0.71939 0.35681  0 140.97 239.32  244.69 140.99 239.27  244.70
   4  -1   5 20289.1   383.3   1-0.13048 0.64130-0.85345 0.75402 0.50459-0.14206  0 149.13 312.98  158.97 149.03 312.99  158.74
   4  -1   5 19106.5   218.1   2-0.23358 0.74377 0.22899-0.32846 0.94499-0.58216  0 202.31 393.91    6.89 202.18 393.68    6.85
   4  -1   5 22632.0   236.8   2-0.04966 0.55993-0.92802 0.82851 0.36921-0.00677  0 145.33 301.57   88.42 145.27 301.59   88.37
   4   1  -5 13563.2   254.5   1-0.27570 0.78622 0.54364-0.44425-0.79275 0.42954  0 400.07 426.20   12.96 400.23 426.00   12.92
   4   1  -5 12957.3   268.9   2 0.10801 0.40225-0.78001 0.87956-0.61637 0.25410  0 255.58 426.33  149.01 255.52 426.01  149.02
   4   1  -5 20073.6   314.4   2-0.05713 0.56720 0.92292-0.82338-0.38074 0.01823  0 140.45 245.10  268.71 140.46 244.96  268.65
   4   1   5 21663.1   202.4   2-0.18537 0.69556-0.36186 0.46132 0.91362-0.55079  0 149.01 314.23   41.38 148.94 314.07   41.39
   4   1   5 17296.3   182.3   2-0.22155 0.73155 0.70765-0.60818 0.67093-0.30815  0 192.22 384.48  334.76 192.38 384.37  334.63
  -4  -1  -6 681.411 105.639   2 0.01474-0.52495 0.70698-0.80650-0.70708 0.27198  0 401.94  68.77  245.62 401.95  69.03  245.72
  -4  -1   6 481.603  78.263   1-0.68355 0.17298-0.60361 0.50420-0.41037 0.84609  0 209.87  96.89   92.32 209.87  97.21   92.14
  -4  -1   6 607.134 138.816   2-0.03042-0.47985-0.96168 0.86218 0.27248 0.16246  0 321.89  57.69   94.52 321.73  57.83   94.36
  -4   1  -6 484.166 106.044   2-0.09272-0.41736 0.97624-0.87670-0.19584-0.23917  0 391.82  65.64  279.92 391.85  65.95  279.89
  -4   1   6 675.161 144.369   2-0.09827-0.41200-0.79745 0.89696 0.59533-0.16039  0 315.53  58.01   72.96 315.54  58.27   73.13
   4  -1  -6 636.272 133.480   2 0.05783 0.45244-0.96946 0.86991-0.23835-0.19637  0 273.88 450.48  124.38 273.83 450.37  124.48
   4  -1  -6 535.022  98.237   2 0.00923 0.50099 0.72934-0.82886-0.68409 0.24900  0 129.54 223.32  247.82 129.27 223.43  247.59
   4  -1   6 708.236 131.221   1-0.13906 0.64989-0.85699 0.75756 0.49622-0.06119  0 131.92 303.61  158.36 131.83 303.49  158.02
   4  -1   6 764.092  91.416   2-0.05114 0.56141-0.92498 0.82548 0.37656 0.05838  0 128.84 290.64   88.06 128.74 290.74   87.90
   4  -1   6 467.635  71.860   2-0.23686 0.74684 0.38345-0.48288 0.89267-0.45723  0 205.76 416.59  357.08 205.59 416.40  357.31
   4   1  -6 354.799 112.064   1-0.33659 0.84711 0.47184-0.37245-0.81491 0.37906  0 405.91 446.50   18.58 405.93 446.54   18.46
   4   1  -6 705.692 140.443   2 0.10494 0.40532-0.80158 0.90113-0.58860 0.15388  0 267.70 448.64  147.01 267.80 448.43  147.00
   4   1  -6 607.779 100.292   2-0.05660 0.56667 0.92186-0.82232-0.38336-0.05165  0 128.32 228.70  268.35 128.37 228.71  268.49
   4   1   6 667.859 128.235   1 0.04229 0.46854-0.75693 0.85635 0.65213-0.21709  0 127.92 280.04  172.79 127.78 280.14  172.92
   4   1   6 678.790  82.590   2-0.15957 0.66984-0.52560 0.62510 0.83563-0.40070  0 130.72 300.74   51.88 130.72 300.70   51.91
   4   1   6 481.505  67.798   2-0.21432 0.72432 0.76816-0.66869 0.60332-0.16799  0 197.27 409.71  329.54 197.51 409.83  329.39
  -4  -1  -7  1722.0   198.5   2 0.00623-0.51644 0.74097-0.84049-0.67151 0.16390  0 396.16  41.05  248.58 396.36  41.22  248.59
  -4  -1   7  1522.0   135.6   1-0.64290 0.13207-0.71807 0.61864-0.26654 0.77450  0 203.76  78.47  103.07 203.64  78.80  102.96
  -4  -1   7  1986.0   205.6   2-0.03526-0.47501-0.95407 0.85457 0.29749 0.20994  0 306.57  36.83   93.09 306.67  37.19   92.84
  -4   1  -7  1534.0   153.6   2-0.08313-0.42695 0.96546-0.86592-0.24694-0.26057  0 386.87  38.81  276.71 386.76  39.27  276.85
  -4   1   7  1963.8   204.1   2-0.09538-0.41489-0.80727 0.90678 0.58242-0.07499  0 300.66  37.83   73.80 300.70  38.11   74.08
   4  -1  -7  1805.6   190.9   2 0.06227 0.44799-0.96120 0.86165-0.26873-0.23845  0 286.67 475.32  126.31 286.62 475.36  126.31
   4  -1  -7  1899.0   176.8   2 0.00413 0.50608 0.74891-0.84843-0.66266 0.15505  0 116.20 207.01  249.26 116.05 206.93  249.28
   4  -1   7  1579.9   186.2   1-0.14093 0.65176-0.85774 0.75831 0.49439 0.01315  0 113.62 293.90  157.75 113.18 293.80  157.86
   4  -1   7  1889.2   127.1   2-0.05499 0.56526-0.91680 0.81729 0.39555 0.11187  0 111.19 280.55   86.81 110.86 280.55   86.70
   4  -1   7  1386.6   129.9   2-0.23551 0.74549 0.47339-0.57282 0.84878-0.34077  0 208.24 441.44  351.62 208.15 441.31  351.56
   4   1  -7 987.996 137.021   1-0.38567 0.89619 0.40742-0.30803-0.82781 0.31932  0 415.14 470.72   23.35 415.01 470.85   23.16
   4   1  -7  1704.0   189.4   2 0.10338 0.40688-0.81139 0.91094-0.57529 0.06811  0 280.66 474.01  146.17 280.57 473.83  146.05
   4   1  -7  1735.0   173.5   2-0.05429 0.56437 0.91729-0.81775-0.39450-0.11302  0 115.16 211.99  267.66 114.86 211.96  267.79
   4   1   7  2031.4   201.2   1 0.02864 0.48219-0.76629 0.86571 0.64186-0.13432  0 110.91 269.86  171.64 110.61 269.85  171.80
   4   1   7  1893.9   120.4   2-0.14504 0.65531-0.60333 0.70283 0.78420-0.27677  0 112.26 289.42   57.20 111.97 289.32   57.33
   4   1   7  1311.2   125.2   2-0.21145 0.72145 0.78841-0.68894 0.57767-0.06977  0 200.57 435.91  327.50 200.63 435.88  327.50
  -4  -1  -8  1403.3   181.2   2 0.00239-0.51247 0.75592-0.85546-0.65466 0.07465  2 391.64   9.92  249.71 391.60  10.06  249.89
  -4  -1   8  1261.7   147.6   1-0.58689 0.07606-0.79919 0.69976-0.12980 0.71032  0 195.54  57.60  112.52 195.44  57.51  112.62
  -4  -1   8  1541.1   228.5   2-0.04074-0.46953-0.94483 0.84532 0.32503 0.25489  0 290.92  13.67   91.32 290.86  13.95   91.14
  -4   1  -8  1341.1   187.7   2-0.07413-0.43594 0.95289-0.85335-0.29411-0.28591  2 382.29   8.79  273.77 382.27   8.74  274.00
  -4   1   8  1328.5   213.8   2-0.09456-0.41571-0.80999 0.90950 0.57877 0.00115  0 285.12  14.62   74.38 285.01  15.34   74.35
   4  -1  -8  1475.4   167.4   2 0.00166 0.50841 0.75860-0.85814-0.65156 0.07154  0 101.17 189.40  250.37 100.95 189.39  250.13
   4  -1   8  1384.9   176.2   1-0.13748 0.64830-0.85635 0.75692 0.49777 0.08228  0  92.86 283.80  158.35  92.68 283.72  158.15
   4  -1   8  1451.8   140.9   2-0.06010 0.57038-0.90528 0.80577 0.42055 0.15937  0  91.31 270.44   85.31  91.08 270.76   85.08
   4  -1   8  1164.0   128.1   2-0.23372 0.74372 0.52532-0.62479 0.81818-0.23773  0 209.30 469.40  348.34 209.66 469.27  348.17
   4   1  -8 782.456 158.936   1-0.42269 0.93321 0.35471-0.25532-0.83397 0.25284  2 427.21 499.62   27.09 427.19 500.18   26.86
   4   1  -8 124.086 171.366   2 0.10300 0.40726-0.81373 0.91328-0.57204-0.00759  2 293.50 502.78  145.46 294.21 503.30  145.82
   4   1  -8  1627.9   192.1   2-0.05087 0.56095 0.91004-0.81050-0.41139-0.16862  0  99.82 194.38  266.73  99.51 194.37  266.72
   4   1   8  1486.2   183.3   1 0.02155 0.48928-0.77087 0.87029 0.63663-0.05659  0  91.37 258.91  171.35  91.39 258.97  171.22
   4   1   8  1443.2   134.8   2-0.13722 0.64749-0.64243 0.74193 0.75396-0.17404  0  91.78 278.73   60.27  91.64 278.96   60.19
   4   1   8  1044.8   122.4   2-0.21082 0.72082 0.79254-0.69307 0.57222 0.00823  0 202.54 464.29  326.95 202.26 464.35  327.11
  -4  -1   9 921.545 127.129   1-0.52349 0.01265-0.85201 0.75258-0.00529 0.65838  0 185.40  32.43  121.12 185.41  32.53  121.18
   4  -1  -9  1032.4   166.3   2 0.00097 0.50911 0.76115-0.86069-0.64857-0.00395  0  83.16 170.64  250.28  83.45 170.49  250.36
   4  -1   9  1009.8   178.6   1-0.12970 0.64052-0.85312 0.75369 0.50534 0.14722  0  70.28 272.92  158.75  69.78 272.99  158.80
   4  -1   9 924.906 120.353   2-0.06604 0.57631-0.89104 0.79154 0.44910 0.20331  0  68.96 261.01   83.35  68.77 261.18   83.24
   4  -1   9 799.111 140.593   2-0.23257 0.74257 0.55413-0.65360 0.79928-0.14628  0 209.26 501.43  346.48 209.82 501.26  346.19
   4   1  -9  1034.2   164.5   2-0.04661 0.55668 0.90054-0.80100-0.43227-0.22024  0  81.50 175.52  265.38  81.82 175.47  265.38
   4   1   9 869.889 171.294   1 0.02019 0.49064-0.77177 0.87120 0.63558 0.01697  0  69.63 247.12  171.29  69.68 247.15  171.11
   4   1   9  1083.1   120.6   2-0.13313 0.64341-0.66119 0.76069 0.73831-0.08591  0  69.03 269.20   61.60  68.96 269.11   61.61
   4   1   9 662.890 131.831   2-0.21150 0.72150 0.78786-0.68839 0.57840 0.07461  0 202.34 496.59  327.50 202.35 496.57  327.56
   4  -1 -10 637.945 183.099   2 0.00170 0.50838 0.75847-0.85801-0.65171-0.07331  0  62.87 149.68  250.04  62.82 149.62  250.12
   4  -1  10 460.206 172.789   1-0.11825 0.62908-0.84821 0.74879 0.51629 0.20877  0  43.86 261.14  159.58  43.74 261.29  159.75
   4  -1  10 747.050 127.725   2-0.07259 0.58286-0.87428 0.77478 0.47996 0.24493  0  43.35 251.39   81.34  43.09 251.72   81.20
   4   1 -10 568.913 173.554   2-0.04169 0.55177 0.88897-0.78943-0.45605-0.26897  0  61.29 154.76  263.61  61.00 154.73  263.84
   4   1  10 722.018 189.491   1 0.02359 0.48724-0.76951 0.86894 0.63820 0.08686  0  44.48 234.02  171.52  44.76 234.01  171.39
   4   1  10 457.086 118.717   2-0.13184 0.64211-0.66707 0.76657 0.73324-0.00835  0  43.34 259.64   62.34  43.00 259.64   62.07
  -4  -2   0  34.706  61.416   1-0.42862-0.08190 0.34588-0.54465-0.83466 0.83466  0 183.73 187.50   27.34 183.66 187.52   27.47
  -4  -2   0 167.714  98.926   1 0.00915-0.51998-0.77907 0.58022 0.62687-0.62687  0 443.25 170.44  170.32 442.95 170.41  170.20
  -4  -2   0 243.285  42.887   2-0.20044-0.30975-0.23963 0.04069 0.94995-0.94995  0 459.27 199.62   34.33 459.49 199.84   34.05
  -4  -2   0 201.495  45.298   2 0.07214-0.58241-0.93831 0.73921-0.33819 0.33819  0 403.43 134.05  130.80 403.72 134.08  130.54
  -4   2   0 165.092  74.325   1-0.59959 0.08875-0.78462 0.98349-0.15770 0.15770  0 382.88 122.45  110.50 382.92 122.57  110.68
  -4   2   0 257.507  62.535   2-0.23110-0.27909 0.16100 0.03793 0.95952-0.95952  0 380.50 121.75   10.92 380.59 121.71   10.84
  -4   2   0 265.972  59.303   2 0.00188-0.51196 0.75781-0.55873-0.65248 0.65248  0 467.45 225.54  250.11 467.62 225.59  250.06
   4  -2   0 215.106  58.378   1-0.01504 0.52587-0.79420 0.59535 0.60747-0.60747  0 226.76 377.66  168.46 226.58 377.47  168.23
   4  -2   0 189.779  41.085   2-0.05958 0.56986-0.90648 0.70747 0.41803-0.41803  0 218.69 371.61   85.60 218.84 371.74   85.25
   4  -2   0 351.167  43.622   2 0.12922 0.38107-0.42242 0.22343-0.89714 0.89714  0 169.51 294.15  175.28 169.52 293.90  175.42
   4   2   0 253.189  25.549   2 0.00889 0.50132 0.73065-0.53161-0.68269 0.68269  0 194.34 345.93  248.01 194.51 345.97  247.70
   4   2   0 201.347  24.564   2-0.08272 0.59280 0.96494-0.76586-0.24908 0.24908  0 181.91 326.26  276.37 181.77 325.91  276.72
  -4  -2  -1  1416.0   123.3   1-0.35632-0.15420 0.44681-0.64558-0.82061 0.74796  0 176.86 197.69   20.16 177.03 197.82   20.32
  -4  -2  -1  1942.5   174.4   1-0.06069-0.45014-0.82027 0.62142 0.56875-0.64126  0 453.15 181.94  164.57 453.26 182.07  164.49
  -4  -2  -1  2135.8    72.0   2-0.12264-0.38763-0.70637 0.50736 0.69714-0.76963  0 456.15 188.57   65.39 456.44 188.89   65.17
  -4  -2  -1  1959.0    69.6   2 0.10139-0.61166-0.82314 0.62405-0.55871 0.48625  0 413.54 138.77  144.97 413.97 138.89  144.88
  -4  -2   1  1620.0   116.7   1-0.50433-0.00619 0.22210-0.42087-0.83446 0.90710  0 188.53 176.82   35.88 188.49 176.78   35.79
  -4  -2   1  1950.3    95.9   2-0.23172-0.27848 0.17630-0.37523 0.95668-0.88411  0 467.16 215.03   10.05 467.38 215.20    9.95
  -4  -2   1  2099.9   104.4   2 0.05287-0.56313-0.97710 0.77800-0.20612 0.27858  0 390.32 124.25  122.58 390.69 124.30  122.56
  -4   2  -1  1773.1   147.1   1-0.58982 0.07898-0.79597 0.99485-0.13616 0.06359  0 404.21 131.80  112.00 404.40 132.05  112.18
  -4   2  -1  2078.9    99.5   2 0.04249-0.55271 0.57892-0.37988-0.81427 0.74176  0 468.03 218.48  236.01 468.16 218.60  235.98
  -4   2  -1  1690.2   101.5   2-0.23553-0.27444 0.47250-0.27365 0.84927-0.92185  0 387.16 122.74  351.82 387.47 122.93  351.62
  -4   2   1  1794.5   107.4   1-0.62266 0.11182-0.75305 0.95192-0.21265 0.28521  0 360.96 112.60  106.91 360.80 112.72  106.81
  -4   2   1  2067.1   120.8   2-0.21176-0.29843-0.12950 0.32844 0.96870-0.89614  0 370.93 115.84   27.57 371.03 115.95   27.60
  -4   2   1  2195.7   120.4   2-0.03229-0.47779 0.86551-0.66643-0.49986 0.57236  0 471.92 236.62  260.99 471.96 236.75  260.95
   4  -2  -1  2074.1    93.1   2-0.03334 0.54362-0.95716 0.75816 0.28762-0.36011  0 227.28 380.08   93.42 227.14 379.98   93.44
   4  -2  -1  2084.6    90.1   2 0.12061 0.38968-0.09775-0.10124-0.98788 0.91537  0 166.10 283.83  195.00 166.00 283.77  194.87
   4  -2   1  1855.1   119.6   1-0.10357 0.61440-0.84153 0.64268 0.53019-0.45768  0 210.56 365.92  161.02 210.38 365.77  160.97
   4  -2   1  1996.3    74.9   2-0.09723 0.60751-0.80109 0.60209 0.59059-0.51810  0 212.79 368.33   73.27 212.57 368.17   73.48
   4  -2   1  1911.8    73.2   2 0.11510 0.39519-0.72088 0.52189-0.68344 0.75594  0 170.11 300.87  154.18 169.99 300.75  154.20
   4   2  -1  2117.5    73.3   2 0.10318 0.40704 0.14360 0.05544-0.98424 0.91173  0 209.71 365.46  208.67 209.61 365.19  208.72
   4   2  -1  1888.0    69.1   2-0.10439 0.61447 0.98582-0.78674-0.13138 0.05888  0 171.37 304.94  283.65 171.28 304.74  283.69
  -4  -2  -2 11842.6   273.7   1-0.29178-0.21874 0.52547-0.72424-0.79921 0.65393  0 168.67 207.78   14.32 168.71 207.84   14.36
  -4  -2  -2 18874.2   364.9   1-0.12717-0.38366-0.85205 0.65321 0.50777-0.65278  0 466.40 193.40  159.00 466.53 193.46  159.01
  -4  -2  -2 20353.6   163.9   2-0.04297-0.46731-0.94096 0.74195 0.33578-0.48076  0 462.13 186.46   90.64 462.47 186.68   90.47
  -4  -2  -2 17558.3   155.3   2 0.12769-0.63798-0.51751 0.31853-0.84609 0.70108  0 416.99 134.07  169.38 417.46 134.38  169.20
  -4  -2   2 13133.5   260.6   1-0.57640 0.06588 0.07776-0.27653-0.81346 0.95875  0 191.38 165.43   44.89 191.37 165.48   45.11
  -4  -2   2 18340.6   242.4   2 0.03900-0.54926-0.99221 0.79311-0.11831 0.26322  0 376.82 112.02  117.30 376.89 112.17  117.40
  -4  -2   2 15690.0   225.2   2-0.23635-0.27363 0.43426-0.63311 0.86923-0.72408  0 478.04 232.61  354.06 478.13 232.81  354.09
  -4   2  -2 15100.4   287.8   1-0.58793 0.07709-0.79807 0.99694-0.13204-0.01309  0 426.38 141.03  112.45 426.56 141.20  112.47
  -4   2  -2 19512.0   221.7   2 0.08198-0.59220 0.33163-0.13259-0.93984 0.79481  0 474.20 216.65  219.99 474.38 216.86  219.89
  -4   2  -2 15702.6   206.5   2-0.22007-0.28993 0.72111-0.52217 0.65694-0.80205  0 390.58 118.00  333.50 390.68 118.18  333.51
  -4   2   2 13070.5   142.3   1-0.40025-0.11027 0.38718-0.18841-0.83060 0.97588  0 266.35 110.93   24.45 266.58 111.13   24.60
  -4   2   2 14393.7   148.5   1-0.66952 0.15895-0.65406 0.85290-0.35205 0.49729  0 334.77 102.47   96.66 334.59 102.85   96.64
  -4   2   2 19653.8   275.3   2-0.18767-0.32252-0.34545 0.54439 0.91948-0.77435  0 359.83 106.70   40.15 359.91 106.94   40.39
  -4   2   2 18389.7   265.2   2-0.05882-0.45126 0.92626-0.72718-0.37228 0.51728  0 479.95 250.76  269.06 480.04 250.94  269.18
   4  -2  -2 18855.2   247.4   2-0.01462 0.52489-0.98183 0.78282 0.18921-0.33418  0 236.76 391.51   99.32 236.57 391.38   99.38
   4  -2  -2 20509.8   256.3   2 0.10088 0.40934 0.16695-0.36599-0.98079 0.83576  0 160.43 271.85  210.02 160.38 271.77  210.08
   4  -2   2 16813.0   286.0   1-0.15738 0.66821-0.86409 0.66525 0.47809-0.33308  0 194.79 355.01  156.42 194.64 354.94  156.49
   4  -2   2 19093.7   186.5   2-0.14427 0.65454-0.60720 0.40819 0.78134-0.63636  0 209.49 371.22   57.54 209.34 371.06   57.61
   4  -2   2 18410.0   184.0   2 0.08436 0.42591-0.90048 0.70138-0.42664 0.57155  0 166.46 302.79  136.02 166.36 302.62  136.09
   4   2  -2 10799.5   253.0   1-0.15250 0.66302 0.66619-0.46742-0.73003 0.58474  0 431.75 370.46    2.15 431.98 370.24    2.32
   4   2  -2 17662.7   211.7   2 0.12624 0.38405-0.22173 0.42071-0.96690 0.82189  0 221.93 381.47  187.51 221.60 381.13  187.64
   4   2  -2 16668.3   205.7   2-0.10576 0.61584 0.98666-0.78759-0.12373-0.02128  0 162.80 288.36  284.02 162.72 288.12  284.14
  -4  -2  -3 11732.2   284.6   1-0.23719-0.27332 0.58504-0.78381-0.77554 0.55762  0 158.77 217.62    9.56 158.77 217.72    9.54
  -4  -2  -3 18585.0   372.5   1-0.18936-0.32147-0.87515 0.67630 0.44526-0.66278  0 482.76 204.84  153.97 482.84 204.87  153.79
  -4  -2  -3 19218.4   188.4   2-0.00037-0.50989-0.99368 0.79458 0.11226-0.32962  0 477.02 192.57  104.06 477.26 192.70  103.94
  -4  -2  -3 18006.7   183.6   2 0.12094-0.63123-0.10366-0.09532-0.98723 0.76971  0 414.73 120.59  194.26 414.98 120.79  194.52
  -4  -2   3 13202.8   259.6   1-0.63680 0.12623-0.07941-0.11942-0.76693 0.98479  0 192.24 153.40   55.00 192.21 153.43   55.13
  -4  -2   3 17983.0   272.4   2 0.02788-0.53814-0.99835 0.79925-0.05023 0.26759  0 362.95  98.29  113.33 362.97  98.49  113.42
  -4  -2   3 14599.9   252.0   2-0.23146-0.27854 0.57761-0.77655 0.78281-0.56514  0 491.13 251.20  344.64 491.28 251.24  344.54
  -4   2  -3 15417.3   328.4   1-0.59090 0.08006-0.79477 0.99364-0.13851-0.07918  0 450.02 150.00  112.01 450.19 150.13  112.02
  -4   2  -3 17456.5   228.2   2 0.10959-0.61980 0.06953 0.12952-0.99154 0.77400  0 486.33 219.80  204.54 486.47 220.07  204.43
  -4   2  -3 16064.3   223.6   2-0.19648-0.31352 0.86785-0.66891 0.45633-0.67400  0 390.57 107.72  319.00 390.65 107.91  319.09
  -4   2   3 19131.9   299.6   2-0.16590-0.34437-0.48880 0.68781 0.85647-0.63901  0 347.73  95.33   49.39 347.83  95.61   49.46
  -4   2   3 16778.6   280.1   2-0.07930-0.43077 0.96041-0.76133-0.26707 0.48458  0 490.94 267.21  275.83 491.01 267.37  275.63
   4  -2  -3 19276.1   278.3   2-0.00016 0.51043-0.99381 0.79471 0.11113-0.32849  0 246.85 405.40  103.62 246.68 405.24  104.00
   4  -2  -3 20691.7   285.4   2 0.07940 0.43081 0.35096-0.55000-0.93302 0.71547  0 153.27 258.82  221.04 153.24 258.73  221.08
   4  -2   3 16749.1   309.3   1-0.18972 0.70055-0.87526 0.67641 0.44489-0.22737  0 179.02 344.76  153.83 178.87 344.75  153.76
   4  -2   3 17507.7   195.0   2-0.18726 0.69745-0.34771 0.14877 0.91871-0.70102  0 209.09 380.42   40.49 208.92 380.19   40.52
   4  -2   3 17931.1   197.9   2 0.05545 0.45481-0.97327 0.77417-0.22288 0.44024  0 158.76 299.88  123.45 158.62 299.77  123.56
   4   2  -3 11582.6   272.2   1-0.22137 0.73188 0.60108-0.40231-0.76792 0.54999  0 430.56 384.85    7.97 430.72 384.72    8.18
   4   2  -3 17300.5   243.3   2 0.12915 0.38114-0.43344 0.63243-0.89188 0.67436  0 233.42 398.00  174.91 233.18 397.76  174.72
   4   2  -3 16349.7   236.9   2-0.10312 0.61319 0.98502-0.78594-0.13820-0.07931  0 153.92 272.67  283.08 153.84 272.46  283.29
  -4  -2  -4  3588.2   188.1   1-0.19299-0.31753 0.62907-0.82784-0.75301 0.46244  0 147.42 227.49    6.01 147.33 227.56    5.74
  -4  -2  -4  5335.7   261.2   1-0.24738-0.26346-0.89021 0.69134 0.38252-0.67279  2 502.54 216.55  148.93 502.54 216.72  148.83
  -4  -2  -4  5418.5   138.8   2 0.02169-0.53195-0.99967 0.80057-0.01392-0.27590  0 497.41 202.39  111.36 497.58 202.51  111.31
  -4  -2  -4  5837.8   149.1   2 0.09695-0.60716 0.20577-0.40481-0.97379 0.68372  0 410.19 102.32  212.24 410.33 102.54  212.35
  -4  -2   4  3778.8   159.9   1-0.67885 0.16828-0.23849 0.03966-0.69447 0.98494  0 190.89 140.45   65.27 190.89 140.46   65.43
  -4  -2   4  5241.3   202.2   2 0.01816-0.52842-0.99981 0.80071 0.00761 0.28221  0 349.00  83.14  110.01 349.05  83.39  110.06
  -4   2  -4  4512.1   260.6   1-0.59699 0.08615-0.78775 0.98662-0.15184-0.13842  0 475.97 158.89  111.05 476.08 159.01  111.09
  -4   2  -4  5256.4   161.8   2 0.12322-0.63351-0.14889 0.34788-0.98115 0.69112  2 503.66 226.84  191.98 504.02 227.13  191.90
  -4   2  -4  4687.2   165.8   2-0.17310-0.33690 0.94175-0.74281 0.28834-0.57856  0 387.99  92.55  308.46 388.41  93.04  308.41
  -4   2   4  6116.5   224.0   2-0.14919-0.36108-0.58216 0.78117 0.79927-0.50931  0 335.04  81.96   55.80 335.15  82.21   55.82
  -4   2   4  5101.8   208.8   2-0.09586-0.41422 0.97919-0.78011-0.17887 0.46888  2 504.52 285.68  280.99 504.75 285.84  280.89
   4  -2  -4  5929.7   204.4   2 0.01177 0.49850-0.99894 0.79984 0.04448-0.33430  0 257.13 421.54  108.43 257.31 421.39  107.91
   4  -2  -4  6030.1   185.7   2 0.06111 0.44910 0.47284-0.67189-0.87902 0.58896  0 144.81 245.05  228.85 144.72 245.01  228.78
   4  -2   4  5304.8   208.5   1-0.20796 0.71879-0.88076 0.68191 0.42546-0.13544  0 162.79 334.99  152.00 162.68 334.97  152.20
   4  -2   4  5261.3   132.1   2-0.21457 0.72476-0.09781-0.10112 0.97180-0.68154  0 210.27 394.41   25.83 210.17 394.19   25.77
   4  -2   4  5369.5   133.3   2 0.03265 0.47761-0.99630 0.79721-0.07944 0.36926  0 148.01 293.99  115.02 147.87 293.90  115.12
   4   2  -4  3393.3   198.9   1-0.28444 0.79495 0.53383-0.33506-0.79632 0.50575  0 432.52 400.93   13.71 432.65 400.85   13.70
   4   2  -4  5274.9   172.4   2 0.12637 0.38392-0.55614 0.75513-0.82142 0.53140  0 244.87 415.97  166.73 244.64 415.73  166.55
   4   2  -4  4988.5   162.4   2-0.09886 0.60893 0.98187-0.78279-0.16176-0.12824  0 144.28 257.30  281.87 144.21 257.11  281.91
   4   2   4  5098.0    96.7   2-0.23091 0.74111 0.15650 0.04244 0.96031-0.67005  0 155.31 319.01   11.06 155.22 318.86   11.11
   4   2   4  4565.6    93.8   2-0.18248 0.69248 0.91764-0.71869 0.35305-0.06283  0 190.56 376.03  312.51 190.60 375.80  312.43
  -4  -2  -5  4816.0   216.3   1-0.15853-0.35199 0.66083-0.85960-0.73360 0.37039  0 134.34 237.40    2.94 134.32 237.55    2.83
  -4  -2  -5  7547.6   192.2   2 0.07294-0.58315 0.39642-0.59547-0.91517 0.55259  0 405.14  80.96  223.90 405.25  81.23  223.90
  -4  -2   5  5290.2   184.4   1-0.69878 0.18821-0.38871 0.18987-0.60051 0.96360  0 187.55 126.10   75.55 187.43 126.26   75.64
  -4  -2   5  7496.4   258.2   2 0.00911-0.51937-0.99819 0.79909 0.05944 0.30283  0 334.86  66.51  107.08 335.01  66.76  107.04
  -4   2  -5  5747.8   286.9   1-0.60499 0.09415-0.77785 0.97672-0.17010-0.19273  2 504.72 167.99  109.94 505.08 168.01  109.81
  -4   2  -5  5945.5   203.0   2-0.15292-0.35708 0.97589-0.77695 0.15572-0.51850  0 385.00  74.14  300.39 385.04  74.43  300.43
  -4   2   5  7771.9   268.6   2-0.13730-0.37297-0.64204 0.84105 0.75428-0.39183  0 321.88  66.57   59.99 321.97  66.86   60.17
   4  -2  -5  7028.0   243.5   2 0.02187 0.48839-0.99965 0.80055-0.01500-0.34727  0 268.40 440.22  111.40 268.45 439.99  111.37
   4  -2  -5  8252.8   230.5   2 0.04731 0.46290 0.55294-0.75198-0.83188 0.46930  0 134.88 230.66  234.07 134.88 230.61  234.16
   4  -2   5  6887.9   250.3   1-0.21644 0.72727-0.88309 0.68424 0.41631-0.05378  0 145.88 325.38  151.42 145.75 325.46  151.47
   4  -2   5  6461.0   162.2   2-0.22810 0.73830 0.09730-0.29624 0.96876-0.60594  0 212.11 411.92   14.58 212.02 411.68   14.55
   4  -2   5  7224.9   167.3   2 0.01527 0.49499-0.99959 0.80049 0.02433 0.33794  0 134.97 286.59  108.99 134.87 286.56  109.09
   4   2  -5  4490.1   225.6   1-0.33953 0.85005 0.46821-0.26944-0.81578 0.45257  0 437.81 419.27   18.84 437.91 419.26   18.73
   4   2  -5  5691.2   215.8   2 0.12268 0.38761-0.62907 0.82805-0.76761 0.40508  0 256.37 435.65  161.17 256.22 435.59  161.35
   4   2  -5  6928.6   208.0   2-0.09379 0.60386 0.97729-0.77821-0.19004-0.17247  0 133.54 241.88  280.03 133.56 241.67  280.23
   4   2   5  7197.1   141.9   2-0.21085 0.72104-0.13932 0.33826 0.96754-0.60471  0 139.31 307.10   28.14 139.22 306.96   28.17
   4   2   5  6104.8   136.1   2-0.18119 0.69119 0.92137-0.72243 0.34387 0.01891  0 195.08 398.01  311.90 195.11 397.76  311.86
  -4  -2  -6  9568.6   246.1   2 0.05529-0.56551 0.50811-0.70716-0.85951 0.42442  0 400.22  56.88  230.99 400.33  57.12  231.11
  -4  -2   6  6800.6   217.9   1-0.69679 0.18622-0.52173 0.32289-0.49222 0.92793  0 182.02 110.44   85.25 181.86 110.49   85.48
  -4  -2   6  9216.3   307.6   2 0.00046-0.51073-0.99419 0.79509 0.10763 0.32709  0 320.56  48.01  104.19 320.66  48.28  104.21
  -4   2  -6  7828.8   251.2   2-0.13561-0.37446 0.98951-0.79043 0.04975-0.48476  0 381.37  52.10  294.14 381.39  52.36  294.24
  -4   2   6  9926.4   329.2   2-0.12899-0.38129-0.67975 0.87875 0.72202-0.28708  0 308.09  49.20   62.81 308.19  49.51   63.05
   4  -2  -6  9275.1   301.3   2 0.03099 0.47928-0.99711 0.79801-0.06938-0.36534  0 280.22 461.82  114.68 280.25 461.49  114.53
   4  -2  -6 10087.4   275.1   2 0.03731 0.47290 0.60509-0.80413-0.79529 0.36019  0 123.90 215.46  238.10 123.57 215.47  237.86
   4  -2   6  7919.9   284.8   1-0.21781 0.72864-0.88345 0.68460 0.41482 0.02021  0 127.97 316.02  151.33 127.77 316.03  151.36
   4  -2   6  8004.5   200.2   2-0.23376 0.74395 0.23515-0.43409 0.94343-0.50804  0 214.00 432.43    6.49 213.83 432.20    6.48
   4  -2   6  9207.1   206.5   2 0.00073 0.50953-0.99435 0.79525 0.10616 0.32856  0 120.29 278.46  104.16 119.92 278.48  104.29
   4   2  -6  5441.3   254.4   1-0.38544 0.89596 0.40773-0.20896-0.82776 0.39191  0 446.42 440.69   22.79 446.57 440.63   23.14
   4   2  -6  8356.0   289.9   2 0.11955 0.39074-0.67301 0.87199-0.72991 0.29488  0 268.15 458.21  158.09 268.14 457.96  158.03
   4   2  -6  8321.8   244.9   2-0.08803 0.59810 0.97134-0.77226-0.22080-0.21421  0 121.92 226.02  278.18 121.61 225.87  278.41
   4   2   6  8860.7   181.7   2-0.19167 0.70186-0.31367 0.51260 0.92999-0.49460  0 122.85 296.59   38.37 122.51 296.39   38.45
   4   2   6  7450.2   177.1   2-0.18313 0.69313 0.91559-0.71665 0.35798 0.07736  0 198.15 420.98  312.87 198.22 420.71  312.75
  -4  -2  -7  1358.3   152.3   2 0.04350-0.55371 0.57368-0.77273-0.81792 0.31031  0 396.06  29.48  235.51 395.92  29.78  235.61
  -4  -2   7  1045.2   122.9   1-0.67602 0.16545-0.63306 0.43422-0.37715 0.88548  0 174.36  92.48   94.59 174.30  92.73   94.72
  -4  -2   7  1107.2   184.2   2-0.00783-0.50243-0.98811 0.78901 0.15358 0.35360  0 305.81  26.81  101.50 305.79  27.57  101.49
  -4   2  -7  1128.1   163.8   2-0.12071-0.38936 0.99193-0.79285-0.03871-0.46881  0 377.53  26.53  289.33 377.43  26.71  289.08
  -4   2   7  1327.8   198.7   2-0.12352-0.38675-0.70270 0.90171 0.70068-0.19326  0 293.59  29.57   65.25 293.66  29.74   64.87
   4  -2  -7 -11.908 138.485   2 0.03934 0.47093-0.99195 0.79285-0.12037-0.38680  0 292.62 486.95  117.64 292.97 486.58  117.53
   4  -2  -7  1111.3   141.4   2 0.03041 0.47981 0.63848-0.83752-0.76904 0.26143  0 110.52 199.46  240.24 110.56 199.39  240.33
   4  -2   7  1355.5   171.1   1-0.21375 0.72458-0.88236 0.68351 0.41923 0.08831  0 108.64 306.40  151.66 108.34 306.53  151.71
   4  -2   7  1377.4   131.2   2-0.01179 0.52205-0.98455 0.78545 0.17471 0.33246  0 103.13 269.99  100.17 102.91 270.05  100.23
   4   2  -7 760.918 171.652   1-0.42193 0.93244 0.35584-0.15707-0.83388 0.32539  0 458.63 465.79   27.00 458.72 466.00   26.79
   4   2  -7  1274.9   193.4   2 0.11722 0.39307-0.69896 0.89795-0.70548 0.19794  0 280.80 483.95  155.74 280.67 483.64  155.98
   4   2  -7  1041.2   129.9   2-0.08191 0.59198 0.96390-0.76482-0.25334-0.25417  0 108.37 209.55  276.40 108.07 209.45  276.46
   4   2   7  1309.3   118.0   2-0.17725 0.68744-0.41811 0.61705 0.89094-0.38298  0 104.54 286.57   44.91 104.39 286.49   44.88
   4   2   7  1026.2   109.9   2-0.18640 0.69640 0.90538-0.70644 0.38150 0.12639  0 200.29 445.97  314.03 200.19 445.79  314.23
  -4  -2   8 901.101 129.125   1-0.64142 0.13058-0.72095 0.52208-0.26232 0.84284  0 164.80  72.03  103.37 164.65  72.32  103.26
   4  -2  -8  1281.7   169.0   2 0.02594 0.48427 0.65886-0.85791-0.75182 0.17169  0  95.90 181.89  242.04  95.46 182.10  241.89
   4  -2   8  1118.4   179.0   1-0.20538 0.71621-0.88002 0.68117 0.42823 0.15182  0  87.28 296.78  152.32  87.03 296.74  152.42
   4  -2   8  1098.7   117.3   2-0.02341 0.53368-0.97152 0.77251 0.23581 0.34411  0  83.56 261.30   96.73  83.51 261.38   96.58
   4  -2   8 928.849 138.161   2-0.23684 0.74682 0.38986-0.58872 0.88989-0.30931  0 216.15 483.42  356.62 215.57 483.23  356.91
   4   2  -8 690.179 197.991   1-0.44950 0.96001 0.31402-0.11525-0.83627 0.25513  0 474.40 496.61   29.51 474.65 496.63   29.66
   4   2  -8 834.397 143.217   2-0.07548 0.58556 0.95493-0.75585-0.28708-0.29294  0  92.21 192.17  274.40  92.54 192.02  274.42
   4   2   8  1129.2   134.1   2-0.16752 0.67771-0.48097 0.67991 0.86058-0.28006  0  84.29 277.17   48.96  84.22 277.05   48.93
   4   2   8  1000.2   130.0   2-0.19021 0.70021 0.89217-0.69322 0.40971 0.17074  0 200.88 474.13  316.05 200.95 473.99  316.04
  -4  -2   9  4689.8   250.4   1-0.59611 0.08527-0.78880 0.58992-0.14986 0.80294  0 153.06  48.00  111.23 152.91  48.25  111.23
   4  -2  -9  5343.5   307.1   2 0.02346 0.48676 0.66990-0.86895-0.74208 0.08944  0  78.27 163.17  243.01  77.80 163.21  242.74
   4  -2   9  4956.6   299.3   1-0.19350 0.70433-0.87644 0.67759 0.44092 0.21163  0  63.59 286.44  153.40  63.27 286.42  153.43
   4  -2   9  5839.4   236.7   2-0.03401 0.54428-0.95610 0.75709 0.29106 0.36134  0  61.54 252.46   93.17  61.30 252.53   93.23
   4   2  -9  5328.6   289.7   2-0.06875 0.57883 0.94437-0.74529-0.32161-0.33090  0  74.47 173.30  272.19  74.48 173.16  272.32
   4   2   9  5008.3   212.4   2-0.16095 0.67122-0.51811 0.71712 0.84003-0.18763  0  61.70 267.96   51.40  61.43 268.03   51.40
  -4  -2  10  4944.1   286.4   1-0.54367 0.03283-0.83822 0.63935-0.04256 0.76822  0 138.93  19.32  118.58 138.95  19.30  118.63
   4  -2 -10  5737.5   359.3   2 0.02255 0.48766 0.67389-0.87293-0.73849 0.01333  0  57.08 142.03  243.33  56.81 142.12  243.05
   4  -2  10  5303.3   333.3   1-0.17868 0.68951-0.87154 0.67269 0.45661 0.26845  0  36.44 275.19  154.71  36.22 275.23  154.71
   4  -2  10  5405.2   255.2   2-0.04440 0.55468-0.93827 0.73927 0.34303 0.38186  0  35.53 243.50   89.97  35.44 243.57   90.02
   4   2 -10  4877.3   324.9   2-0.06188 0.57195 0.93211-0.73303-0.35686-0.36816  0  53.25 152.39  270.26  53.12 152.34  270.15
   4   2  10  4779.1   233.9   2-0.15731 0.66759-0.53837 0.73737 0.82790-0.10300  0  35.02 259.23   52.75  35.09 259.09   52.77
  -4  -3   0   0.466  74.621   1-0.48838-0.02214 0.25008-0.54824-0.83603 0.83603  0 164.88 197.81   34.20 164.85 197.85   33.94
  -4  -3   0  27.793  57.502   2-0.20003-0.31016-0.24335-0.05505 0.94909-0.94909  0 487.94 221.98   33.99 488.20 221.80   34.27
  -4  -3   0  33.926  59.844   2 0.10906-0.61935-0.77190 0.47343-0.62631 0.62631  0 389.58 106.43  149.79 389.62 106.52  149.81
  -4   3   0 -66.620  72.522   1-0.68664 0.17607-0.58929 0.88754-0.42576 0.42576  0 385.41 104.61   90.45 385.70 104.83   90.93
  -4   3   0  48.628  76.150   2-0.23225-0.27794 0.18827 0.11014 0.95426-0.95426  0 362.56  97.88    9.50 362.85  97.77    9.25
  -4   3   0   2.226  70.737   2 0.03061-0.54082 0.63754-0.33898-0.76981 0.76981  0 492.26 251.12  240.54 491.94 251.19  240.26
   4  -3   0   1.533  52.548   1-0.16332 0.67415-0.86627 0.56800 0.47212-0.47212  0 224.26 392.50  155.95 224.24 392.63  155.99
   4  -3   0  -2.841  47.687   2-0.10680 0.61707-0.76794 0.46943 0.63155-0.63155  0 233.51 398.74   70.38 233.44 398.79   70.41
   4  -3   0  -4.691  44.280   2 0.12911 0.38118-0.36471 0.06623-0.92213 0.92213  0 153.55 272.19  178.86 153.27 272.06  179.05
   4   3   0  35.560  37.102   2 0.05929 0.45092 0.48391-0.18534-0.87311 0.87311  0 210.35 381.90  229.63 210.15 381.83  229.51
   4   3   0  -6.643  36.335   2-0.18676 0.69676 0.90419-0.60578 0.38413-0.38413  0 157.65 298.68  314.47 157.94 298.58  314.39
  -4  -3  -1 16849.3   335.0   1-0.42973-0.08078 0.34421-0.64236-0.83478 0.76213  0 159.64 208.16   27.60 159.72 208.18   27.59
  -4  -3  -1 24417.6   418.0   1 0.01523-0.52606-0.77503 0.47676 0.63174-0.70425  0 481.22 192.46  170.98 481.35 192.57  170.71
  -4  -3  -1 25661.7   263.0   2-0.15983-0.35044-0.52411 0.22560 0.83652-0.90901  0 488.17 213.99   51.91 488.40 214.23   51.81
  -4  -3  -1 23529.5   254.3   2 0.12343-0.63372-0.61635 0.31788-0.77774 0.70523  0 396.41 107.44  162.27 396.86 107.74  162.28
  -4  -3   1 17652.8   332.8   1-0.54702 0.03650 0.14059-0.43874-0.82523 0.89787  0 168.09 187.14   40.91 168.10 187.15   41.08
  -4  -3   1 21801.5   272.1   2-0.22401-0.28618 0.02574-0.32415 0.97425-0.90168  0 492.41 233.06   18.85 492.63 233.31   18.65
  -4  -3   1 22956.4   282.7   2 0.09227-0.60253-0.86942 0.57078-0.48537 0.55783  0 379.83 100.58  139.95 379.92 100.71  139.90
  -4   3  -1 18378.6   293.5   1-0.67252 0.16195-0.64474 0.94300-0.36336 0.29074  0 409.53 113.86   95.79 409.57 114.22   95.78
  -4   3  -1 23410.1   299.0   2 0.05937-0.56959 0.48337-0.18480-0.87340 0.80089  0 493.67 245.43  229.55 493.82 245.57  229.47
  -4   3  -1 21505.6   289.8   2-0.23668-0.27330 0.40423-0.10595 0.88350-0.95608  0 368.63  97.19  355.91 368.65  97.53  356.01
  -4   3   1 16960.9   210.0   1-0.69991 0.18934-0.47283 0.77108-0.53531 0.60793  0 360.20  95.00   81.82 359.96  95.26   81.73
  -4   3   1 24334.4   323.8   2-0.22077-0.28942-0.02041 0.31882 0.97511-0.90255  0 355.09  94.01   21.06 355.11  94.30   21.31
  -4   3   1 24138.7   323.1   2 0.00226-0.51233 0.75641-0.45779-0.65409 0.72660  0 494.23 260.19  250.37 494.21 260.35  249.94
   4  -3  -1 25398.3   246.0   1-0.04260 0.55343-0.81038 0.51211 0.58435-0.65686  0 244.94 406.64  165.95 244.72 406.46  165.97
   4  -3  -1 25278.3   305.9   2-0.07967 0.58994-0.85487 0.55636 0.51268-0.58517  0 240.33 404.46   79.03 240.09 404.26   78.98
   4  -3  -1 24181.4   298.9   2 0.12305 0.38724-0.14541-0.15307-0.98169 0.90918  0 151.57 264.80  192.03 151.52 264.66  192.10
   4  -3   1 22377.8   309.7   1-0.22703 0.73786-0.88580 0.58753 0.40473-0.33223  0 206.60 380.40  150.51 206.43 380.32  150.56
   4  -3   1 23934.6   277.6   2-0.13663 0.64690-0.64520 0.34669 0.75170-0.67921  0 228.54 397.55   60.19 228.32 397.37   60.40
   4  -3   1 22941.6   270.7   2 0.12543 0.38486-0.57603 0.27755-0.80775 0.88025  0 152.52 277.12  165.06 152.46 276.92  165.15
   4   3  -1 14797.0   340.1   1-0.14757 0.65808 0.67053-0.37238-0.72706 0.65442  0 467.81 348.19    1.99 467.94 348.01    1.91
   4   3  -1 25610.7   265.2   2 0.09883 0.41138 0.18780 0.11077-0.97722 0.90471  0 218.78 390.67  211.11 218.58 390.38  211.30
   4   3  -1 20130.2   235.8   2-0.16984 0.67984 0.94883-0.65041 0.26623-0.33879  0 154.22 288.23  307.07 154.26 288.13  307.06
   4   3   1 25545.3   221.3   2 0.00445 0.50576 0.74771-0.44915-0.66401 0.73653  0 203.62 378.06  249.15 203.54 377.79  249.17
   4   3   1 19300.8   193.5   2-0.20693 0.71693 0.81640-0.51798 0.53914-0.46659  0 158.61 306.09  324.84 158.68 306.03  324.74
  -4  -3  -2  3404.5   180.9   1-0.37479-0.13573 0.42235-0.72051-0.82532 0.68004  0 152.68 218.26   22.06 152.83 218.29   22.09
  -4  -3  -2  5086.8   252.1   1-0.05101-0.45982-0.81505 0.51677 0.57714-0.72216  0 493.07 204.87  165.31 493.13 204.85  165.28
  -4  -3  -2  4897.6   141.7   2-0.11249-0.39779-0.74670 0.44819 0.65558-0.80055  0 494.25 211.26   68.63 494.43 211.45   68.54
  -4  -3  -2  4441.9   142.7   2 0.12943-0.63972-0.40146 0.10298-0.90669 0.76167  0 400.55 103.13  176.92 400.99 103.41  176.75
  -4  -3   2  3618.9   180.7   1-0.60124 0.09072 0.01867-0.31683-0.79885 0.94413  0 169.44 175.92   48.83 169.44 175.94   48.88
  -4  -3   2  4029.7   164.9   2-0.23383-0.27636 0.23767-0.53607 0.94278-0.79765  0 500.76 247.45    6.27 500.90 247.66    6.34
  -4  -3   2  4715.8   177.9   2 0.07604-0.58630-0.92768 0.62903-0.36555 0.51046  0 368.58  91.61  132.08 368.70  91.68  132.24
  -4   3  -2  3453.2   186.1   1-0.66284 0.15227-0.67300 0.97126-0.32819 0.18295  0 433.73 122.78   98.39 433.74 123.07   98.42
  -4   3  -2  4701.5   168.5   2 0.08532-0.59553 0.30560-0.00703-0.94833 0.80330  0 500.21 243.50  218.22 500.37 243.68  218.30
  -4   3  -2  3826.6   165.9   2-0.23013-0.27987 0.59969-0.30127 0.76643-0.91154  0 372.22  92.57  342.92 372.00  92.81  342.96
  -4   3   2  3200.5    73.6   1-0.25644-0.25408 0.56470-0.26655-0.78445 0.92973  0 275.50  92.84   11.08 275.66  93.05   11.22
  -4   3   2  3429.8    75.4   1-0.65364 0.14307-0.13479 0.43304-0.74471 0.88995  0 324.71  86.03   58.92 324.40  86.29   58.67
  -4   3   2  4691.8   194.3   2-0.20516-0.30503-0.19645 0.49486 0.95881-0.81368  0 345.74  87.34   31.34 345.81  87.54   31.51
  -4   3   2  4867.3   192.9   2-0.02367-0.48640 0.84167-0.54305-0.53947 0.68448  0 500.36 272.41  258.23 500.37 272.50  258.26
   4  -3  -2  5472.9   172.4   2-0.05659 0.56686-0.91326 0.61475 0.40343-0.54841  0 248.19 413.41   86.09 248.04 413.22   86.19
   4  -3  -2  4952.8   160.8   2 0.11096 0.39925 0.05128-0.34984-0.99250 0.84747  0 147.63 255.33  203.42 147.54 255.30  203.38
   4  -3   2  4286.2   168.3   1-0.26224 0.77308-0.89310 0.59479 0.36552-0.22039  0 189.78 369.07  147.42 189.68 368.97  147.53
   4  -3   2  4710.3   142.3   2-0.16631 0.67650-0.48835 0.18995 0.85665-0.71152  0 225.10 400.49   49.33 224.92 400.29   49.41
   4  -3   2  4857.9   138.7   2 0.11219 0.39810-0.74715 0.44867-0.65512 0.80013  0 148.87 279.03  151.99 148.75 278.88  151.98
   4   3  -2  2936.5   210.2   1-0.21112 0.72163 0.61142-0.31327-0.76262 0.61734  0 465.65 362.07    7.00 465.72 362.04    7.29
   4   3  -2  5014.7   148.4   2 0.11864 0.39165-0.06358 0.36206-0.99090 0.84589  0 228.12 402.32  196.71 227.74 401.90  196.83
   4   3  -2  3905.9   131.9   2-0.15603 0.66603 0.97211-0.67369 0.17512-0.32023  0 148.54 276.18  301.76 148.56 276.05  301.58
   4   3   2  4697.6   106.4   2-0.04968 0.55975 0.90752-0.60890-0.41706 0.56206  0 199.61 380.08  266.43 199.58 379.86  266.37
   4   3   2  3737.7    95.8   2-0.22612 0.73611 0.65702-0.35860 0.71917-0.57406  0 155.40 308.99  338.64 155.44 308.88  338.66
  -4  -3  -3  5598.1   226.6   1-0.32577-0.18474 0.48515-0.78330-0.81148 0.59356  0 144.16 228.30   17.42 144.20 228.32   17.46
  -4  -3  -3  8382.0   183.8   2 0.12398-0.63427-0.16341-0.13507-0.97874 0.76122  0 401.68  93.22  190.96 402.03  93.47  191.06
  -4  -3   3  5972.6   212.4   1-0.64653 0.13596-0.11033-0.18793-0.75487 0.97273  0 168.78 164.03   56.86 168.81 164.06   57.10
  -4  -3   3  8143.6   229.6   2 0.06167-0.57193-0.96235 0.66371-0.26471 0.48207  0 356.50  79.98  126.05 356.60  80.13  126.07
  -4   3  -3  6514.3   250.7   1-0.65752 0.14668-0.68652 0.98483-0.31042 0.09272  0 459.22 131.34   99.78 459.35 131.40   99.74
  -4   3  -3  7250.9   210.0   2-0.21678-0.29322 0.74985-0.45144 0.62508-0.84275  0 373.48  83.54  331.05 373.28  83.74  331.03
  -4   3   3  8991.9   256.7   2-0.18931-0.32088-0.33285 0.63125 0.92378-0.70609  0 335.22  77.82   39.63 335.32  78.02   39.62
   4  -3  -3  9041.5   238.2   2-0.03708 0.54735-0.95119 0.65268 0.30638-0.52385  0 256.87 425.36   92.26 256.96 425.24   92.28
   4  -3  -3  8896.1   219.3   2 0.09655 0.41367 0.20949-0.50806-0.97303 0.75549  0 141.74 244.31  212.77 141.70 244.30  212.57
   4  -3   3  7332.6   232.3   1-0.28084 0.79168-0.89613 0.59782 0.34364-0.12594  0 173.07 358.58  146.05 173.01 358.48  145.87
   4  -3   3  7779.1   176.6   2-0.19169 0.70188-0.31417 0.01577 0.92981-0.71212  0 223.31 407.97   38.42 223.09 407.76   38.48
   4  -3   3  7847.4   174.7   2 0.09339 0.41688-0.86438 0.56573-0.49409 0.71145  0 142.30 278.14  140.34 142.22 277.99  140.48
   4   3  -3  5146.4   241.3   1-0.26983 0.78034 0.55021-0.25206-0.79023 0.57231  0 466.71 377.41   12.34 466.72 377.30   12.40
   4   3  -3  7822.4   196.3   2 0.12697 0.38332-0.25159 0.55007-0.95947 0.74195  0 238.01 416.47  185.89 237.62 416.12  185.88
   4   3  -3  6850.5   180.8   2-0.14423 0.65430 0.98434-0.68572 0.10135-0.31886  0 141.23 263.13  297.13 141.19 262.95  297.27
   4   3   3  7943.8   140.2   2-0.08933 0.59941 0.97271-0.67409-0.21412 0.43163  0 198.44 388.54  278.85 198.30 388.29  278.80
   4   3   3  7029.7   131.6   2-0.23635 0.74633 0.43414-0.13585 0.86929-0.65157  0 148.12 307.33  354.04 148.14 307.11  354.10
  -4  -3  -4 319.934  98.954   1-0.28397-0.22655 0.53436-0.83252-0.79613 0.50556  0 133.69 238.39   13.71 133.85 238.44   13.66
  -4  -3  -4 324.173  91.578   2 0.11121-0.62142 0.04818-0.34674-0.99263 0.70257  0 401.16  78.40  202.98 400.76  78.66  203.20
  -4  -3   4 219.957  86.208   1-0.67921 0.16864-0.24029-0.05797-0.69350 0.98397  0 166.22 151.34   65.52 166.15 151.26   65.54
  -4  -3   4 274.026 118.999   2 0.04860-0.55887-0.98264 0.68399-0.17904 0.46885  0 344.00  66.11  121.40 343.91  66.36  120.96
  -4   3  -4 231.954 146.412   1-0.65561 0.14477-0.69106 0.98937-0.30433 0.01407  0 486.74 140.06  100.43 487.19 139.76  100.19
  -4   3  -4 222.378 102.961   2-0.19980-0.31020 0.85322-0.55480 0.48177-0.77199  0 372.84  70.46  320.67 372.79  70.61  320.80
  -4   3   4 376.665 126.238   2-0.17505-0.33515-0.43291 0.73131 0.88428-0.59402  0 323.71  66.33   45.64 323.83  66.05   45.82
   4  -3  -4 209.222 108.477   2-0.02048 0.53076-0.97522 0.67671 0.22030-0.51026  0 266.94 440.15   97.40 266.75 440.22   97.51
   4  -3  -4 327.536  82.256   2 0.08237 0.42784 0.32868-0.62724-0.94084 0.65078  0 134.08 232.02  219.66 134.16 232.07  219.71
   4  -3   4 282.115 100.309   1-0.28880 0.79964-0.89719 0.59888 0.33414-0.04388  0 156.26 348.38  144.87 156.04 348.53  145.15
   4  -3   4 204.963  65.416   2-0.21027 0.72047-0.14569-0.15272 0.96673-0.67647  0 222.62 419.59   28.49 222.52 419.46   28.54
   4  -3   4 253.767  63.243   2 0.07312 0.43715-0.93574 0.63710-0.34502 0.63483  0 132.84 274.68  130.98 132.97 274.78  130.97
   4   3  -4 214.055 145.144   1-0.32210 0.83262 0.48962-0.19146-0.81026 0.51969  0 471.16 394.87   17.61 471.03 394.38   17.13
   4   3  -4 470.233  93.988   2 0.12935 0.38095-0.38337 0.68185-0.91449 0.62447  0 248.01 433.05  178.04 248.01 432.79  177.88
   4   3  -4 297.736  75.125   2-0.13358 0.64365 0.99033-0.69171 0.03748-0.32749  0 132.38 249.33  293.50 132.49 249.24  293.52
   4   3   4 266.287  50.111   2-0.23259 0.74278 0.19796 0.10044 0.95221-0.66195  0 137.56 302.37    8.40 137.44 302.09    8.68
   4   3   4 267.793  54.903   2-0.11525 0.62533 0.99085-0.69223-0.07025 0.36025  0 198.56 401.88  287.52 198.75 401.83  287.25
  -4  -3  -5 872.272 136.747   1-0.24964-0.26087 0.57195-0.87010-0.78138 0.41817  0 122.02 248.74   10.75 121.72 248.80   10.63
  -4  -3  -5  1514.8   170.4   2 0.09637-0.60658 0.21116-0.50973-0.97269 0.61011  0 398.63  59.45  212.62 398.50  59.77  212.67
  -4  -3   5  1166.1   135.3   1-0.69711 0.18654-0.36504 0.06678-0.61708 0.98018  0 161.55 137.22   73.71 161.48 137.28   73.99
  -4  -3   5  1292.6   159.8   2 0.03668-0.54695-0.99389 0.69524-0.10408 0.46635  0 330.65  50.30  116.56 330.70  50.48  116.57
  -4   3  -5  1126.8   143.4   2-0.18195-0.32805 0.91918-0.62077 0.34928-0.71206  0 371.06  53.53  312.34 371.07  53.54  312.20
  -4   3   5  1492.8   172.1   2-0.16340-0.34688-0.50380 0.80231 0.84823-0.48578  0 311.43  51.49   50.50 311.52  51.84   50.45
   4  -3  -5  1466.5   169.3   2-0.00604 0.51630-0.98960 0.69095 0.14371-0.50598  0 277.34 458.26  101.97 277.36 458.13  102.08
   4  -3  -5  1540.2   158.4   2 0.06996 0.44026 0.41550-0.71406-0.90690 0.54432  0 125.12 218.78  225.24 124.94 218.77  225.09
   4  -3   5  1356.3   154.8   1-0.28940 0.80024-0.89726 0.59896 0.33341 0.02942  0 138.30 339.10  145.25 138.37 338.95  145.10
   4  -3   5  1309.0   127.4   2-0.22215 0.73234-0.00023-0.29817 0.97501-0.61219  0 222.47 435.17   20.31 222.65 435.00   20.14
   4  -3   5  1345.2   116.0   2 0.05451 0.45576-0.97471 0.67606-0.21672 0.57898  0 121.48 269.77  123.17 121.22 269.85  123.19
   4   3  -5 712.548 156.839   1-0.36702 0.87754 0.43269-0.13454-0.82345 0.46024  0 479.11 413.85   21.30 478.88 413.76   21.34
   4   3  -5  1422.2   158.2   2 0.12854 0.38175-0.47290 0.77137-0.87169 0.50916  0 259.02 452.32  171.96 258.88 452.08  172.16
   4   3  -5  1208.1   133.9   2-0.12378 0.63385 0.99211-0.69349-0.02001-0.34250  0 122.53 235.07  290.00 122.34 234.87  290.17
   4   3   5  1346.3    98.4   2-0.22219 0.73238 0.00031 0.29809 0.97500-0.61218  0 124.64 295.34   20.16 124.32 295.38   20.11
   4   3   5  1247.1   111.5   2-0.13299 0.64307 0.99052-0.69191 0.03429 0.32822  0 199.91 419.27  293.29 199.78 419.11  293.34
  -4  -3  -6 138.835  99.424   1-0.22258-0.28794 0.59986-0.89801-0.76852 0.33267  0 107.55 259.54    8.38 107.70 259.56    8.28
  -4  -3  -6 249.784 123.068   2 0.08243-0.59265 0.32818-0.62675-0.94101 0.50592  0 395.71  37.19  219.61 395.68  37.02  219.68
  -4  -3   6 161.625 101.372   1-0.69964 0.18907-0.47995 0.18169-0.52929 0.96501  0 154.99 122.03   81.95 154.76 121.77   82.27
  -4  -3   6 292.356 151.316   2 0.02562-0.53588-0.99899 0.70035-0.03681 0.47153  0 316.50  32.78  112.53 316.89  32.30  112.64
  -4   3  -6 200.513 141.320   2-0.16461-0.34539 0.95883-0.66041 0.23141-0.66675  0 368.82  32.32  304.98 368.67  32.53  304.96
  -4   3   6 352.265 163.975   2-0.15453-0.35575-0.55391 0.85242 0.81811-0.38317  0 298.31  35.30   53.69 298.31  35.06   53.84
   4  -3  -6  98.067 138.749   2 0.00660 0.50366-0.99728 0.69863 0.07345-0.50818  0 288.88 479.23  106.57 288.93 479.51  106.20
   4  -3  -6 296.735 105.213   2 0.06029 0.44992 0.47787-0.77644-0.87636 0.44127  0 113.84 204.50  228.95 113.95 204.34  229.11
   4  -3   6 197.035 120.531   1-0.28461 0.79544-0.89665 0.59834 0.33915 0.09624  0 119.72 329.67  145.60 119.61 329.57  145.53
   4  -3   6 156.363  85.250   2-0.22908 0.73927 0.11558-0.41398 0.96652-0.53113  0 223.15 454.32   13.35 223.07 454.23   13.49
   4  -3   6 311.179  77.527   2 0.03712 0.47314-0.99359 0.69495-0.10674 0.54147  0 106.98 263.81  116.52 107.16 263.71  116.73
   4   3  -6  49.287 178.454   1-0.40418 0.91470 0.38160-0.08345-0.83127 0.39542  0 490.63 436.74   24.86 490.49 436.36   24.99
   4   3  -6  91.150 146.302   2 0.12720 0.38310-0.53362 0.83209-0.83611 0.40107  0 270.44 474.48  168.21 270.34 474.47  168.09
   4   3  -6 272.268 101.132   2-0.11469 0.62476 0.99068-0.69206-0.07346-0.36155  0 111.01 219.89  286.96 110.59 219.80  287.06
   4   3   6 259.431  65.823   2-0.21006 0.72025-0.14795 0.44636 0.96643-0.53104  0 109.17 288.13   28.51 109.09 287.87   28.67
   4   3   6 268.597  81.157   2-0.14680 0.65687 0.98223-0.68361 0.11691 0.31810  0 200.91 439.68  298.03 200.67 439.65  298.18
  -4  -3  -7 14339.2   394.6   1-0.20248-0.30804 0.61989-0.91804-0.75812 0.24963  0  91.91 270.92    6.56  91.58 270.98    6.55
  -4  -3  -7 23010.2   411.8   2 0.07094-0.58116 0.40888-0.70744-0.90983 0.40222  2 392.73   9.69  224.69 392.88   9.98  224.67
  -4  -3   7 16734.1   365.6   1-0.68821 0.17764-0.58124 0.28299-0.43420 0.94253  0 146.05 104.19   90.02 145.94 104.25   90.26
  -4  -3   7 21870.4   486.1   2 0.01518-0.52544-0.99958 0.70093 0.02488 0.48230  0 302.17  11.11  108.73 302.36  11.42  109.05
  -4   3  -7 18513.2   445.8   2-0.14852-0.36155 0.98055-0.68193 0.12829-0.63580  2 365.98   7.10  298.83 366.10   7.22  298.85
  -4   3   7 23215.3   502.1   2-0.14806-0.36222-0.58807 0.88658 0.79515-0.28772  0 283.86  15.16   56.16 284.08  15.53   56.23
   4  -3  -7 25178.5   465.0   2 0.05295 0.45726 0.52156-0.82012-0.85157 0.34396  0 101.39 188.65  232.17 101.03 188.68  232.02
   4  -3   7 18797.6   437.8   1-0.27562 0.78646-0.89536 0.59705 0.34981 0.15815  0  99.67 320.26  146.25  99.35 320.19  146.33
   4  -3   7 19219.0   351.2   2-0.23278 0.74297 0.20326-0.50166 0.95105-0.44310  0 223.53 477.69    8.24 223.32 477.40    8.37
   4  -3   7 22260.1   361.2   2 0.02135 0.48891-0.99970 0.70105-0.01195 0.51912  0  91.04 256.75  111.04  90.65 256.74  111.20
   4   3  -7 20394.2   456.2   2 0.12553 0.38476-0.57382 0.87229-0.80931 0.30177  0 282.70 500.95  165.37 282.59 500.68  165.31
   4   3  -7 19735.6   402.4   2-0.10577 0.61584 0.98667-0.68805-0.12369-0.38383  0  97.30 203.91  284.08  97.00 203.76  284.14
   4   3   7 22214.9   330.4   2-0.19881 0.70900-0.25377 0.55217 0.94661-0.43866  0  91.99 280.08   34.94  91.61 279.96   34.87
   4   3   7 19118.9   321.4   2-0.15777 0.66777 0.96974-0.67132 0.18632 0.32157  0 201.23 464.05  302.20 201.20 463.65  302.25
  -4  -3  -8 460.496 147.113   1-0.18854-0.32198 0.63331-0.93146-0.75059 0.16945  0  73.09 283.43    5.33  73.03 283.39    5.36
  -4  -3   8 414.577 136.659   1-0.66499 0.15442-0.66722 0.36896-0.33558 0.91653  0 134.69  83.81   98.07 134.92  84.14   97.87
   4  -3  -8 811.065 162.657   2 0.04764 0.46258 0.55118-0.84974-0.83303 0.25290  0  85.96 171.57  234.39  85.80 171.53  234.04
   4  -3   8 525.745 161.461   1-0.26328 0.77412-0.89328 0.59498 0.36432 0.21621  0  77.30 310.86  147.34  77.08 310.64  147.43
   4  -3   8 424.653 142.951   2-0.23460 0.74479 0.26717-0.56557 0.93466-0.35414  2 223.52 503.92    4.45 223.05 504.99    4.58
   4  -3   8 675.219 117.453   2 0.00698 0.50328-0.99743 0.69878 0.07129 0.50834  0  71.97 249.01  106.32  71.45 249.19  106.33
   4   3  -8 391.964 136.763   2-0.09714 0.60721 0.98032-0.68170-0.17188-0.40814  0  80.59 186.72  280.91  81.18 186.54  281.31
   4   3   8 719.410 104.113   2-0.19016 0.70036-0.32623 0.62464 0.92596-0.34544  0  71.78 271.74   39.35  71.61 271.96   39.21
   4   3   8 704.029 134.431   2-0.16694 0.67694 0.95455-0.65613 0.24692 0.33353  0 201.29 491.70  305.58 200.66 491.64  305.89
  -4  -3  -9 477.573 162.589   1-0.18014-0.33037 0.64119-0.93934-0.74594 0.09216  0  51.81 297.27    4.49  51.52 297.11    4.65
  -4  -3   9 348.449 158.898   1-0.63216 0.12132-0.73771 0.43940-0.23697 0.89006  0 121.59  60.57  105.05 121.53  60.61  105.08
   4  -3  -9 453.475 169.140   2 0.04417 0.46604 0.57016-0.86872-0.82035 0.16771  0  67.38 152.51  235.32  67.71 152.46  235.37
   4  -3   9 235.406 158.167   1-0.24803 0.75887-0.89035 0.59204 0.38179 0.27130  0  52.49 300.38  148.67  52.12 300.63  148.77
   4  -3   9 455.558 125.962   2-0.00647 0.51673-0.98925 0.69061 0.14607 0.50602  0  49.09 241.04  102.51  48.96 241.12  101.94
   4   3  -9 425.553 152.626   2-0.08854 0.59861 0.97183-0.67321-0.21841-0.43411  0  63.20 167.52  278.60  62.53 167.68  278.55
   4   3   9 375.714 105.185   2-0.18356 0.69375-0.37493 0.67333 0.90870-0.25562  0  48.90 263.39   42.53  48.43 263.90   42.19
  -4  -3 -10  1163.0   211.5   1-0.17675-0.33377 0.64434-0.94249-0.74403 0.01762  0  26.19 312.71    4.40  26.25 312.72    4.36
  -4  -3  10  1441.4   214.6   1-0.59101 0.08018-0.79464 0.49633-0.13877 0.86443  0 105.38  32.08  111.74 105.36  32.08  112.00
   4  -3 -10  1646.6   240.2   2 0.04214 0.46807 0.58075-0.87931-0.81299 0.08784  0  45.77 130.81  236.00  45.97 130.92  236.11
   4  -3  10  1425.8   232.9   1-0.23014 0.74096-0.88659 0.58832 0.40124 0.32381  0  23.35 290.25  150.18  23.53 290.07  150.30
   4  -3  10  2001.1   224.5   2-0.01952 0.52980-0.97638 0.67787 0.21518 0.50972  0  22.82 232.51   98.17  22.35 232.69   97.82
   4   3 -10  1538.7   222.6   2-0.07994 0.59001 0.96127-0.66266-0.26375-0.46127  0  40.83 146.80  276.04  40.20 146.63  275.83
   4   3  10  1576.3   196.1   2-0.17914 0.68933-0.40566 0.70406 0.89630-0.17065  0  21.61 255.46   44.31  21.31 255.82   44.10
  -4  -4   0  6395.9   235.7   1-0.53623 0.02571 0.16205-0.55959-0.82837 0.82837  0 143.30 207.92   39.94 143.45 207.93   39.70
  -4  -4   0  8292.4   224.7   2 0.11907-0.62936-0.67882 0.28085-0.72458 0.72458  0 376.71  76.43  157.65 376.81  76.76  157.58
  -4   4   0  6717.4   198.9   1-0.69742 0.18685-0.36881 0.76649-0.61448 0.61448  0 396.56  82.38   74.12 396.64  82.65   74.25
  -4   4   0  8988.1   260.8   2-0.23351-0.27668 0.22661 0.17126 0.94558-0.94558  0 345.57  71.28    7.00 345.65  71.54    6.99
   4  -4   0  8596.0   194.8   1-0.28825 0.79908-0.89712 0.49937 0.33480-0.33480  0 215.92 409.84  145.03 215.88 409.69  145.20
   4  -4   0  9144.1   225.8   2-0.12681 0.63708-0.68868 0.29066 0.71389-0.71389  0 247.28 428.12   63.82 247.06 427.92   63.75
   4  -4   0  8879.5   216.0   2 0.12908 0.38121-0.36063-0.03734-0.92373 0.92373  0 135.99 251.82  179.13 135.96 251.63  179.30
   4   4   0  9638.9   197.1   2 0.06605 0.44417 0.44136-0.04327-0.89490 0.89490  0 219.96 412.91  226.74 219.77 412.55  226.74
   4   4   0  7558.0   174.6   2-0.21037 0.72037 0.79545-0.39756 0.56834-0.56834  0 137.15 279.79  326.95 137.24 279.80  326.83
  -4  -4  -1  2469.4   171.9   1-0.48950-0.02102 0.24815-0.64569-0.83595 0.76331  0 139.23 218.44   34.15 139.51 218.43   34.07
  -4  -4  -1  2715.4   175.1   2 0.12682-0.63711-0.54428 0.14631-0.82926 0.75676  0 382.90  76.43  167.48 383.21  76.57  167.37
  -4  -4   1  2251.7   164.6   1-0.58171 0.07119 0.06567-0.46321-0.81074 0.88338  0 145.48 197.09   45.89 145.54 197.10   45.88
  -4  -4   1  3196.8   185.2   2 0.10770-0.61796-0.78227 0.38408-0.61356 0.68601  0 368.61  72.64  148.81 368.61  72.83  148.81
  -4   4  -1  2329.6   180.8   1-0.70015 0.18958-0.46468 0.86235-0.54210 0.46948  0 422.33  91.56   80.98 422.39  91.87   81.13
  -4   4  -1  3027.4   196.0   2-0.23684-0.27314 0.39104 0.00667 0.88938-0.96195  0 350.87  70.18  356.79 350.98  70.44  356.84
  -4   4   1  2279.4   134.8   1-0.66940 0.15883-0.19533 0.59300-0.71676 0.78938  0 368.95  72.71   62.54 368.86  73.00   62.60
  -4   4   1  3591.5   212.1   2-0.22633-0.28386 0.06519 0.33268 0.97187-0.89930  0 338.74  69.08   16.25 338.87  69.34   16.40
   4  -4  -1  3378.9   122.6   1-0.21110 0.72193-0.88164 0.48394 0.42208-0.49459  0 237.29 424.71  151.90 237.17 424.56  151.93
   4  -4  -1  3246.5   164.3   2-0.10382 0.61409-0.77854 0.38052 0.61895-0.69144  0 253.32 432.37   71.13 253.09 432.16   71.36
   4  -4  -1  3597.8   159.6   2 0.12525 0.38504-0.19492-0.20305-0.97279 0.90028  0 135.09 245.54  189.22 135.03 245.44  189.22
   4  -4   1  2723.6   148.3   1-0.32647 0.83730-0.90031 0.50256 0.28787-0.21530  0 197.31 396.90  141.66 197.32 396.67  141.73
   4  -4   1  3150.7   156.2   2-0.14983 0.66011-0.57881 0.18080 0.80158-0.72909  0 242.38 427.57   55.58 242.25 427.33   55.58
   4  -4   1  3303.4   149.4   2 0.12754 0.38275-0.52278 0.12481-0.84288 0.91538  0 134.64 255.91  168.85 134.58 255.78  168.84
   4   4  -1  3343.7   145.1   2 0.09349 0.41672 0.23662 0.16147-0.96709 0.89458  0 226.88 418.95  214.08 226.76 418.67  214.17
   4   4  -1  2756.9   128.8   2-0.19653 0.70653 0.86761-0.46973 0.45675-0.52931  0 135.17 271.87  319.11 135.21 271.87  319.12
   4   4   1  3481.1   135.4   2 0.03156 0.47865 0.63305-0.23497-0.77346 0.84598  0 214.26 410.75  239.97 214.19 410.47  239.93
   4   4   1  2688.5   117.6   2-0.22297 0.73296 0.69322-0.29534 0.68537-0.61281  0 136.62 285.33  335.93 136.70 285.37  335.80
  -4  -4  -2  8602.7   275.9   1-0.44404-0.06648 0.32261-0.72014-0.83592 0.69063  0 133.54 228.79   29.03 133.69 228.80   29.07
  -4  -4  -2 11564.1   247.7   2 0.12935-0.63964-0.38553-0.01244-0.91358 0.76857  0 387.11  71.73  177.89 387.59  71.99  177.75
  -4  -4   2  8656.6   266.5   1-0.62290 0.11233-0.03874-0.35894-0.78134 0.92658  0 145.64 185.83   52.42 145.71 185.81   52.54
  -4  -4   2 11577.9   275.2   2 0.09481-0.60507-0.85775 0.45956-0.50524 0.65015  0 358.88  65.64  141.04 358.98  65.76  141.23
  -4   4  -2  8928.9   262.4   1-0.69682 0.18625-0.52140 0.91908-0.49252 0.34728  0 448.37 100.38   85.39 448.48 100.57   85.45
  -4   4  -2 10693.5   272.5   2-0.23289-0.27711 0.54700-0.14912 0.80408-0.94920  0 354.51  65.21  346.82 354.39  65.49  346.68
  -4   4   2  8839.4   122.2   1-0.52704 0.01652 0.17985 0.21769-0.83059 0.97588  0 331.76  63.77   38.66 331.51  64.06   38.54
  -4   4   2 12404.9   306.3   2-0.21604-0.29415-0.07948 0.47735 0.97314-0.82801  0 330.49  63.77   24.67 330.59  63.98   24.72
   4  -4  -2 12912.8   144.1   1-0.01511 0.52594-0.79424 0.39655 0.60741-0.75242  0 268.22 442.74  168.11 268.32 442.53  168.22
   4  -4  -2 12129.0   291.2   2-0.08213 0.59240-0.84833 0.45031 0.52306-0.66804  0 260.25 440.07   78.04 260.26 439.86   78.27
   4  -4  -2 13066.5   273.5   2 0.11718 0.39311-0.04074-0.35723-0.99227 0.84726  0 131.94 237.50  198.11 131.98 237.42  198.15
   4  -4   2 10300.6   259.5   1-0.34532 0.85615-0.90069 0.50294 0.26366-0.11853  0 179.86 385.04  140.00 179.85 384.88  139.97
   4  -4   2 12536.0   254.7   2-0.17188 0.68207-0.45402 0.05614 0.87426-0.72913  0 238.80 430.71   47.05 238.60 430.45   47.17
   4  -4   2 11383.7   238.0   2 0.12005 0.39024-0.66667 0.26870-0.73562 0.88063  0 130.83 257.95  158.48 130.77 257.79  158.52
   4   4  -2 13058.7   255.7   2 0.11120 0.39901 0.04827 0.34982-0.99262 0.84759  0 234.93 428.58  203.06 234.72 428.25  203.21
   4   4  -2  9570.1   217.9   2-0.18284 0.69284 0.91644-0.51856 0.35595-0.50107  0 130.90 262.13  312.84 130.96 262.11  312.62
   4   4   2 11920.1   208.7   2-0.00580 0.51587 0.78516-0.38701-0.61926 0.76426  0 210.15 413.11  252.63 210.12 412.80  252.57
   4   4   2  9982.6   190.9   2-0.23231 0.74231 0.55999-0.16210 0.79526-0.65015  0 133.24 288.32  345.81 133.27 288.21  345.78
  -4  -4  -3  7215.7   266.3   1-0.40174-0.10878 0.38507-0.78261-0.83086 0.61293  0 126.22 239.16   24.96 126.05 239.14   24.75
  -4  -4  -3  9617.6   243.2   2 0.12612-0.63641-0.21840-0.17957-0.96767 0.75016  0 389.61  62.60  187.83 389.97  62.93  187.84
  -4  -4   3  7008.7   247.6   1-0.65716 0.14659-0.14749-0.25019-0.73918 0.95704  0 143.91 173.89   59.37 143.94 173.88   59.49
  -4  -4   3  9380.1   275.8   2 0.08139-0.59166-0.91071 0.51251-0.40495 0.62231  0 348.03  55.68  134.65 348.21  55.76  134.70
  -4   4  -3  7295.7   301.5   1-0.69263 0.18206-0.55522 0.95290-0.46043 0.24257  0 475.95 108.59   87.93 476.04 108.81   88.13
  -4   4  -3  8839.3   271.8   2-0.22421-0.28579 0.67990-0.28201 0.69819-0.91586  0 356.48  56.44  336.84 356.30  56.67  336.87
  -4   4   3 10462.3   309.6   2-0.20469-0.30550-0.20102 0.59889 0.95796-0.74027  0 320.99  55.52   31.75 321.10  55.75   31.78
   4  -4  -3 10660.2   294.8   2-0.06217 0.57244-0.90044 0.50243 0.43051-0.64798  0 268.53 451.11   84.27 268.55 450.93   84.45
   4  -4  -3  8114.9   239.4   2 0.10751 0.40271 0.09326-0.49134-0.98982 0.77227  0 127.08 227.80  205.91 126.90 227.78  205.80
   4  -4   3  7942.1   252.4   1-0.35277 0.86361-0.90060 0.50286 0.25390-0.03620  0 162.62 374.15  139.07 162.59 374.03  139.26
   4  -4   3  9891.1   235.3   2-0.19061 0.70080-0.32276-0.07511 0.92709-0.70939  0 236.34 437.90   38.56 236.13 437.60   39.00
   4  -4   3  9611.0   226.8   2 0.10770 0.40256-0.78227 0.38407-0.61356 0.83092  0 124.84 257.80  148.91 124.51 257.66  148.81
   4   4  -3  9446.2   241.9   2 0.12125 0.38904-0.10914 0.50711-0.98660 0.76909  0 243.75 441.27  194.04 243.31 440.81  194.22
   4   4  -3  8589.7   223.9   2-0.16986 0.67986 0.94878-0.55090 0.26637-0.48404  0 125.01 251.00  307.04 124.76 250.94  307.07
   4   4   3 10088.6   202.6   2-0.04137 0.55145 0.88820-0.49004-0.45760 0.67511  0 207.44 420.00  263.85 207.37 419.70  263.74
   4   4   3  6503.5   164.7   2-0.23667 0.74665 0.40556-0.00785 0.88290-0.66518  0 126.95 288.56  355.93 126.89 288.36  355.92
  -4  -4  -4 672.863 123.003   1-0.36424-0.14627 0.43636-0.83390-0.82275 0.53218  0 116.33 249.81   21.36 116.55 249.67   21.08
  -4  -4  -4 747.853 128.441   2 0.11852-0.62881-0.06156-0.33641-0.99104 0.70102  0 390.99  49.01  196.60 390.70  49.40  196.95
  -4  -4   4 680.978 121.733   1-0.68232 0.17175-0.25665-0.14102-0.68452 0.97499  0 140.09 161.11   66.53 140.20 161.05   66.63
  -4  -4   4 751.355 156.380   2 0.06851-0.57878-0.94722 0.54903-0.31317 0.60298  0 336.66  42.97  128.81 336.57  43.06  129.01
  -4   4  -4 774.331 146.867   2-0.21196-0.29804 0.78478-0.38689 0.58241-0.87263  0 356.83  43.99  327.88 356.82  44.05  327.85
  -4   4   4 694.471 154.815   2-0.19359-0.31660-0.29819 0.69606 0.93467-0.64441  0 310.19  45.14   37.24 310.50  44.78   37.52
   4  -4  -4 751.710 157.382   2-0.04436 0.55463-0.93835 0.54034 0.34283-0.63278  0 277.77 465.39   90.37 277.83 465.28   90.03
   4  -4  -4 933.373 122.086   2 0.09725 0.41296 0.20292-0.60101-0.97435 0.68429  0 120.18 216.68  212.22 119.99 216.65  212.18
   4  -4   4 736.230 123.062   1-0.35277 0.86360-0.90060 0.50286 0.25391 0.03635  0 145.00 364.01  139.24 144.99 363.86  139.27
   4  -4   4 695.933 104.257   2-0.20530 0.71549-0.19559-0.20228 0.95896-0.66870  0 234.49 448.74   31.47 234.57 448.68   31.45
   4  -4   4 654.445  94.584   2 0.09260 0.41767-0.86796 0.46976-0.48792 0.77774  0 115.93 255.68  140.13 115.73 255.69  140.07
   4   4  -4 763.175 121.449   2 0.12640 0.38389-0.23295 0.63092-0.96424 0.67422  0 253.09 456.84  187.04 252.79 456.66  186.98
   4   4  -4 657.672  99.931   2-0.15776 0.66776 0.96975-0.57186 0.18629-0.47652  0 116.92 238.83  302.38 116.78 238.63  302.24
   4   4   4 719.865  81.911   2-0.23405 0.74424 0.24582 0.15206 0.94064-0.65038  0 117.73 286.17    5.86 117.56 286.12    5.85
   4   4   4 733.423  90.632   2-0.07104 0.58111 0.94812-0.54996-0.30987 0.59987  0 205.92 431.14  272.93 205.77 431.02  273.04
  -4  -4  -5  4069.9   235.0   1-0.33216-0.17836 0.47734-0.87488-0.81352 0.45031  0 105.20 260.56   18.19 105.12 260.54   18.05
  -4  -4  -5  5524.2   259.2   2 0.10941-0.61963 0.07163-0.46971-0.99141 0.62884  0 390.09  31.29  204.49 390.25  31.51  204.55
  -4  -4   5  4032.1   225.4   1-0.69690 0.18633-0.36258-0.03510-0.61877 0.98186  0 134.50 146.97   73.92 134.45 147.05   73.81
  -4  -4   5  5657.7   307.3   2 0.05644-0.56670-0.97173 0.57353-0.22927 0.59154  0 323.97  27.65  123.77 324.15  27.75  123.94
  -4   4  -5  4439.0   270.1   2-0.19772-0.31228 0.86250-0.46461 0.46584-0.82862  0 356.33  27.35  319.77 356.18  27.49  319.72
  -4   4   5  5739.7   319.7   2-0.18377-0.32642-0.37337 0.77124 0.90930-0.54647  0 298.67  30.85   42.16 298.79  31.11   42.10
   4  -4  -5  5087.7   290.6   2-0.02817 0.53844-0.96493 0.56691 0.26101-0.62345  0 287.99 483.46   95.23 288.16 483.22   95.06
   4  -4  -5  5988.0   240.9   2 0.08734 0.42288 0.28909-0.68718-0.95331 0.59073  0 111.40 204.14  217.26 111.17 204.16  217.30
   4  -4   5  3506.2   222.5   1-0.34745 0.85829-0.90068 0.50293 0.26087 0.10195  0 126.67 354.25  139.89 126.62 354.18  139.77
   4  -4   5  5054.9   212.2   2-0.21591 0.72610-0.08101-0.31687 0.97305-0.61022  0 233.84 463.88   24.90 233.64 463.63   24.81
   4  -4   5  5759.9   202.0   2 0.07626 0.43401-0.92706 0.52886-0.36707 0.72934  0 104.82 252.21  132.12 104.49 252.12  132.34
   4   4  -5  5514.2   275.4   2 0.12863 0.38166-0.32664 0.72461-0.93635 0.57382  0 263.24 476.08  181.35 263.03 475.70  181.37
   4   4  -5  4824.2   216.7   2-0.14640 0.65648 0.98258-0.58443 0.11444-0.47695  0 107.20 225.29  298.21 106.95 225.20  298.04
   4   4   5  5253.0   172.4   2-0.22831 0.73850 0.10122 0.29665 0.96831-0.60549  0 106.00 282.19   14.21 105.64 282.08   14.32
   4   4   5  5206.8   186.8   2-0.09527 0.60535 0.97866-0.58050-0.18207 0.54458  0 204.95 446.77  280.77 204.78 446.44  280.70
  -4  -4  -6  2812.0   221.9   1-0.30573-0.20479 0.50918-0.90672-0.80453 0.36867  0  91.79 271.97   15.63  91.58 271.97   15.63
  -4  -4  -6  4746.2   284.9   2 0.09983-0.61004 0.17820-0.57629-0.97892 0.54383  2 389.21   8.97  210.77 389.35   9.13  210.74
  -4  -4   6  2665.3   227.5   1-0.70020 0.18963-0.46236 0.06468-0.54401 0.97972  0 126.59 131.44   80.78 126.59 131.53   80.96
  -4  -4   6  4442.3   312.8   2 0.04447-0.55474-0.98724 0.58904-0.15289 0.58762  2 310.80   9.29  119.38 310.84   9.57  119.43
  -4   4   6  4793.7   333.7   2-0.17549-0.33470-0.42992 0.82780 0.88565-0.45026  0 285.81  14.59   45.63 285.96  14.59   45.63
   4  -4  -6  4875.0   248.7   2 0.07882 0.43140 0.35527-0.75335-0.93144 0.49634  0 100.39 190.28  221.35 100.35 190.25  221.34
   4  -4   6  3157.5   236.8   1-0.33812 0.84896-0.90064 0.50289 0.27299 0.16240  0 107.41 344.76  140.64 107.05 344.79  140.65
   4  -4   6  4142.3   220.4   2-0.22336 0.73355 0.01582-0.41370 0.97461-0.53922  0 232.99 483.05   19.21 232.92 482.64   19.22
   4  -4   6  4586.3   199.5   2 0.06026 0.45000-0.96495 0.56675-0.25542 0.69014  0  91.07 247.32  125.41  90.69 247.28  125.51
   4   4  -6  4354.2   310.7   2 0.12944 0.38085-0.39586 0.79383-0.90914 0.47411  0 274.17 498.81  177.17 274.06 498.56  177.10
   4   4  -6  3819.7   222.3   2-0.13537 0.64545 0.98962-0.59146 0.04828-0.48330  0  95.52 210.92  293.98  95.24 210.77  294.15
   4   4   6  4411.9   174.1   2-0.22083 0.73102-0.01963 0.41750 0.97512-0.53973  0  91.48 276.94   21.15  91.11 276.85   21.27
   4   4   6  3708.3   191.9   2-0.11468 0.62476 0.99068-0.59252-0.07352 0.50853  0 203.99 466.16  287.07 203.90 465.87  287.06
  -4  -4  -7 568.455 143.882   1-0.28504-0.22548 0.53315-0.93069-0.79656 0.28806  0  75.99 284.09   13.66  75.71 284.26   13.76
  -4  -4   7 440.038 145.768   1-0.69294 0.18237-0.55307 0.15540-0.46254 0.97087  0 116.48 113.81   87.60 116.48 113.97   87.95
   4  -4  -7 354.697 139.286   2 0.07172 0.43849 0.40472-0.80281-0.91162 0.40402  0  86.73 174.89  224.57  87.30 174.84  224.42
   4  -4   7 391.670 152.558   1-0.32555 0.83639-0.90027 0.50252 0.28903 0.21893  0  86.00 335.48  141.64  85.80 335.53  141.82
   4  -4   7 364.526  97.900   2 0.04454 0.46573-0.98718 0.58898-0.15328 0.66045  0  74.56 241.51  119.44  74.19 241.40  119.45
   4   4  -7 504.946 134.670   2-0.12494 0.63501 0.99207-0.59391-0.01353-0.49399  0  81.88 195.15  290.33  81.41 195.13  290.55
   4   4   7 449.388  94.314   2-0.21305 0.72324-0.11518 0.51305 0.97023-0.46227  0  73.72 271.12   26.54  73.92 270.80   26.78
   4   4   7 420.875 120.449   2-0.13058 0.64065 0.99124-0.59308 0.01985 0.48767  0 202.42 489.37  292.68 202.62 489.44  292.50
  -4  -4  -8  2096.4   226.0   1-0.26977-0.24074 0.55027-0.94780-0.79021 0.20907  0  57.31 297.59   12.23  57.11 297.72   12.40
   4  -4  -8  3783.3   281.2   2 0.06615 0.44406 0.44067-0.83876-0.89523 0.31510  0  72.08 157.45  226.80  71.56 157.60  226.70
   4  -4   8  2968.2   271.5   1-0.31029 0.82112-0.89931 0.50157 0.30815 0.27237  0  62.29 326.21  143.18  62.27 326.20  143.22
   4  -4   8  3681.8   227.9   2 0.02955 0.48071-0.99775 0.59955-0.06026 0.63989  0  54.98 234.74  114.17  54.59 234.68  114.01
   4   4  -8  3218.0   265.5   2-0.11496 0.62503 0.99076-0.59261-0.07193-0.50809  0  65.17 178.03  287.23  64.93 178.02  287.15
   4   4   8  3594.1   195.8   2-0.20614 0.71633-0.18741 0.58528 0.96041-0.37989  0  53.98 264.39   30.89  53.63 264.25   30.97
  -4  -4  -9  4956.9   327.4   1-0.25950-0.25102 0.56140-0.95894-0.78581 0.13203  0  35.38 312.75   11.47  35.20 312.82   11.49
  -4  -4   9  5330.5   330.5   1-0.65070 0.13986-0.70214 0.30439-0.28914 0.94222  0  89.05  70.33  101.26  88.58  70.19  101.30
   4  -4  -9  7744.7   375.2   2 0.06225 0.44797 0.46587-0.86395-0.88266 0.23002  0  52.63 138.02  228.34  52.63 138.12  228.33
   4  -4   9  6150.6   351.2   1-0.29257 0.80340-0.89764 0.49990 0.32960 0.32348  0  36.07 316.60  145.03  35.75 316.57  144.81
   4  -4   9  7189.4   289.9   2 0.01515 0.49511-0.99957 0.60138 0.02501 0.62707  0  31.57 227.29  109.01  31.31 227.23  109.05
   4   4  -9  6303.5   346.3   2-0.10510 0.61517 0.98626-0.58810-0.12745-0.52507  0  45.43 159.13  283.98  45.27 158.99  283.92
   4   4   9  7017.1   259.0   2-0.20039 0.71058-0.24010 0.63797 0.94984-0.29676  0  30.14 257.50   33.39  29.80 257.34   34.07
  -4  -5   0  94.166  90.368   1-0.57527 0.06475 0.08030-0.57722-0.81402 0.81402  0 119.46 218.33   44.44 119.10 218.03   44.95
  -4  -5   0-107.147 118.940   2 0.12224-0.63253-0.63585 0.13839-0.76207 0.76207  0 364.60  43.07  160.47 364.79  43.07  160.85
  -4   5   0 -38.200 113.992   1-0.66336 0.15279-0.17059 0.66768-0.72860 0.72860  0 415.15  54.34   60.93 415.09  54.37   60.99
  -4   5   0 -35.828 136.129   2-0.23465-0.27554 0.26964 0.22770 0.93393-0.93393  0 328.32  41.40    4.49 328.31  41.75    4.43
   4  -5   0 -46.164  72.994   1-0.37782 0.88866-0.89922 0.40204 0.22057-0.22057  0 201.97 429.36  136.39 202.20 429.67  136.87
   4  -5   0  76.247 128.767   2-0.13568 0.64596-0.64960 0.15208 0.74807-0.74807  0 260.21 461.79   60.59 260.57 461.46   60.73
   4  -5   0 -33.637  71.883   2 0.12933 0.38096-0.37780-0.11967-0.91681 0.91681  0 115.95 231.19  177.94 116.35 231.14  178.23
   4   5   0 -75.110  73.191   2 0.06580 0.44441 0.44290 0.05470-0.89415 0.89415  0 228.34 446.37  226.36 227.77 446.38  226.84
   4   5   0 -28.902  60.263   2-0.21864 0.72864 0.73436-0.23700 0.64258-0.64258  0 114.70 262.08  332.66 114.74 262.49  332.37
  -4  -5  -1 579.917 122.852   1-0.53828 0.02776 0.15801-0.65493-0.82782 0.75518  0 116.44 228.95   39.63 116.03 228.89   39.96
  -4  -5  -1 590.535 139.728   2 0.12751-0.63780-0.52377 0.02631-0.84226 0.76975  0 370.80  41.65  168.62 370.89  41.98  168.78
  -4  -5   1 696.409 127.000   1-0.61044 0.09987-0.00477-0.49232-0.79205 0.86466  0 120.18 206.91   50.39 120.23 206.90   50.38
  -4  -5   1 556.528 136.197   2 0.11402-0.62431-0.73079 0.23333-0.67301 0.74552  0 357.15  40.56  153.45 357.31  40.46  153.37
  -4   5  -1 592.277 145.295   1-0.68763 0.17706-0.28761 0.78470-0.66667 0.59405  0 442.83  63.40   68.55 442.71  63.70   68.69
  -4   5  -1 792.411 160.512   2-0.23670-0.27328 0.40177 0.09537 0.88462-0.95720  0 333.42  39.67  356.21 333.45  40.02  356.16
  -4   5   1 609.310 106.057   1-0.60381 0.09329 0.01220 0.48472-0.79704 0.86968  0 385.67  43.81   48.95 386.03  44.40   49.29
  -4   5   1 926.856 169.647   2-0.23019-0.28001 0.13899 0.35835 0.96317-0.89061  0 321.86  40.26   12.40 322.00  40.40   12.13
   4  -5  -1 652.352  83.061   1-0.33455 0.84539-0.90057 0.40339 0.27758-0.35014  0 223.38 445.60  140.88 223.49 445.52  140.98
   4  -5  -1 720.690 147.251   2-0.11616 0.62643-0.73258 0.23506 0.67070-0.74319  0 266.61 465.09   67.38 266.47 465.14   67.34
   4  -5  -1 714.628 110.772   2 0.12680 0.38349-0.24560-0.25186-0.96104 0.88854  0 115.80 225.73  186.32 115.89 225.56  186.23
   4  -5   1 616.101 106.762   1-0.39785 0.90869-0.89696 0.39978 0.19282-0.12025  0 183.41 416.01  134.95 183.40 415.83  134.90
   4  -5   1 407.223 124.985   2-0.15434 0.66462-0.55491 0.05739 0.81747-0.74498  0 255.83 461.05   53.97 255.77 461.37   53.91
   4  -5   1 723.464 107.857   2 0.12784 0.38245-0.50870 0.01123-0.85140 0.92391  0 114.69 234.96  169.71 114.61 235.00  169.80
   4   5  -1 786.019 111.918   2 0.08762 0.42260 0.28680 0.21081-0.95398 0.88146  0 233.91 451.61  217.37 234.24 451.51  217.16
   4   5  -1 572.418  91.703   2-0.20818 0.71818 0.80910-0.31174 0.54957-0.62212  0 113.52 255.67  325.58 113.47 255.66  325.47
   4   5   1 707.500 103.482   2 0.03991 0.47030 0.59203-0.09443-0.80492 0.87744  0 222.74 445.23  236.69 222.40 445.09  236.92
   4   5   1 570.800  87.728   2-0.22740 0.73740 0.64179-0.14443 0.73239-0.65984  0 113.26 267.71  339.50 113.62 267.40  339.84
  -4  -5  -2  7238.3   281.5   1-0.50142-0.00910 0.22727-0.72419-0.83482 0.68954  0 111.15 239.68   35.40 111.08 239.64   35.45
  -4  -5  -2 10114.1   298.1   2 0.12944-0.63973-0.39986-0.09761-0.90739 0.76238  0 375.38  36.64  176.93 375.54  36.94  176.85
  -4  -5   2  7184.1   271.7   1-0.64178 0.13121-0.09513-0.40197-0.76097 0.90620  0 119.67 195.39   55.99 119.46 195.37   56.13
  -4  -5   2  9659.9   305.9   2 0.10405-0.61431-0.80729 0.30955-0.58091 0.72581  0 348.39  34.25  146.35 348.48  34.32  146.45
  -4   5  -2  7492.8   308.1   1-0.69705 0.18648-0.36440 0.86150-0.61752 0.47228  0 470.87  72.07   74.00 470.91  72.29   73.94
  -4   5  -2  9044.0   317.6   2-0.23356-0.27644 0.52973-0.03237 0.81537-0.96049  0 336.97  34.29  347.89 336.92  34.61  347.87
  -4   5   2  7129.7   152.0   1-0.44837-0.06215 0.31578 0.18114-0.83621 0.98149  0 350.62  34.28   29.58 350.43  34.62   29.54
  -4   5   2 10875.9   349.2   2-0.22350-0.28669 0.01788 0.47946 0.97454-0.82941  0 314.25  35.63   18.81 314.34  35.88   19.10
   4  -5  -2  9921.9   157.9   1-0.23206 0.74289-0.88705 0.38993 0.39911-0.54412  0 251.88 464.87  150.03 251.77 464.66  150.13
   4  -5  -2 10484.1   319.9   2-0.09683 0.60710-0.80245 0.30494 0.58881-0.73379  0 273.32 472.59   73.52 273.37 472.35   73.61
   4  -5  -2 10266.7   280.8   2 0.12180 0.38849-0.11942-0.37805-0.98534 0.84033  0 113.67 218.34  193.64 113.34 218.26  193.62
   4  -5   2  7593.0   249.8   1-0.40554 0.91638-0.89579 0.39861 0.18190-0.03677  0 165.53 403.53  133.62 165.53 403.44  134.13
   4  -5   2 10355.5   282.5   2-0.17207 0.68227-0.45276-0.04459 0.87487-0.72974  0 252.12 465.13   46.70 251.85 464.81   47.09
   4  -5   2  9783.5   259.0   2 0.12266 0.38763-0.62944 0.13198-0.76730 0.91232  0 110.94 237.21  161.15 110.59 237.06  161.32
   4   5  -2 10107.0   268.7   2 0.10350 0.40672 0.13831 0.35929-0.98497 0.83993  0 241.78 460.50  208.21 241.55 460.16  208.42
   4   5  -2  8697.1   239.8   2-0.19673 0.70673 0.86677-0.36941 0.45827-0.60338  0 110.22 247.09  319.28 109.99 247.12  319.22
   4   5   2 11179.1   252.1   2 0.01107 0.49915 0.72184-0.22423-0.69197 0.83700  0 218.12 447.96  246.96 217.97 447.61  246.95
   4   5   2  8583.6   214.3   2-0.23342 0.74342 0.53349-0.03613 0.81296-0.66785  0 110.16 270.49  347.55 109.97 270.34  347.61
  -4  -5  -3  3861.9   230.4   1-0.46616-0.04436 0.28737-0.78429-0.83673 0.61880  0 104.31 250.58   31.43 104.13 250.51   31.46
  -4  -5  -3  4270.2   250.5   2 0.12756-0.63785-0.27178-0.22568-0.95387 0.73635  0 378.68  27.50  184.73 378.69  27.75  184.68
  -4  -5   3  3438.9   217.7   1-0.66773 0.15716-0.18829-0.30880-0.72019 0.93805  0 116.90 183.24   62.09 116.70 183.20   62.14
  -4  -5   3  4662.5   288.4   2 0.09283-0.60309-0.86691 0.36916-0.48974 0.70710  0 338.50  25.02  139.99 338.60  25.22  140.19
  -4   5  -3  3688.0   289.5   1-0.69996 0.18939-0.41514 0.91223-0.58113 0.36327  0 500.91  80.02   77.50 501.05  80.08   77.51
  -4   5  -3  3734.7   270.7   2-0.22721-0.28279 0.64437-0.14702 0.73018-0.94785  0 339.27  25.34  339.63 339.22  25.56  339.65
  -4   5   3  4755.0   302.1   2-0.21528-0.29491-0.08853 0.58588 0.97253-0.75484  0 305.34  28.08   24.99 305.39  28.41   25.24
   4  -5  -3  4879.3   284.4   2-0.07816 0.58843-0.85917 0.36165 0.50569-0.72316  0 281.35 483.28   79.30 281.37 483.18   79.46
   4  -5  -3  5306.3   233.7   2 0.11502 0.39519-0.00571-0.49189-0.99335 0.77580  0 108.95 209.40  200.10 108.67 209.42  200.11
   4  -5   3  3428.8   217.5   1-0.40558 0.91642-0.89579 0.39861 0.18185 0.03585  0 147.78 392.22  133.70 147.75 392.14  134.13
   4  -5   3  4396.0   221.0   2-0.18723 0.69742-0.34797-0.14937 0.91862-0.70092  0 249.12 472.54   40.51 248.90 472.18   40.54
   4  -5   3  4240.0   197.6   2 0.11366 0.39663-0.73413 0.23667-0.66943 0.88694  0 104.54 237.54  153.00 104.19 237.37  153.09
   4   5  -3  4585.6   229.0   2 0.11417 0.39604 0.00655 0.49106-0.99344 0.77589  0 249.91 472.68  200.76 249.69 472.25  200.82
   4   5  -3  3864.8   196.3   2-0.18498 0.69498 0.90993-0.41258 0.37122-0.58889  0 104.60 237.13  313.73 104.41 237.14  313.58
   4   5   3  4700.2   194.5   2-0.01763 0.52771 0.82359-0.32589-0.56692 0.78442  0 214.52 454.61  256.26 214.51 454.32  256.35
   4   5   3  3874.2   165.6   2-0.23658 0.74656 0.41596 0.08118 0.87807-0.66035  0 103.82 271.46  355.14 103.71 271.31  355.26
  -4  -5  -4 11386.9   361.2   1-0.43368-0.07683 0.33825-0.83517-0.83517 0.54460  0  95.28 261.70   28.01  95.20 261.64   28.00
  -4  -5  -4 14807.9   361.5   2 0.12324-0.63353-0.14946-0.34801-0.98106 0.69103  0 380.58  13.92  191.78 380.72  14.16  191.86
  -4  -5   4 11583.2   341.5   1-0.68671 0.17614-0.28184-0.21525-0.67007 0.96054  0 112.21 170.10   68.18 111.94 170.15   68.30
  -4  -5   4 13865.1   390.5   2 0.08101-0.59127-0.91199 0.41424-0.40214 0.69196  0 327.49  12.97  134.38 327.65  13.10  134.52
  -4   5  -4 13305.4   387.0   2-0.21778-0.29222 0.74171-0.24435 0.63438-0.92461  0 340.54  12.27  331.76 340.31  12.59  331.74
  -4   5   4 15367.6   423.4   2-0.20702-0.30317-0.17868 0.67603 0.96188-0.67162  0 295.15  17.53   30.40 295.26  17.96   30.46
   4  -5  -4 -28.969 154.586   2-0.06069 0.57096-0.90392 0.40640 0.42337-0.71333  0 290.48 497.67   84.86 290.55 497.70   84.90
   4  -5  -4 16319.4   373.0   2 0.10758 0.40263 0.09241-0.59002-0.98989 0.69983  0 102.37 198.84  205.85 101.99 198.89  205.76
   4  -5   4 11104.7   323.4   1-0.40035 0.91119-0.89660 0.39942 0.18928 0.10098  0 129.51 381.78  134.61 129.51 381.68  134.65
   4  -5   4 14123.0   329.3   2-0.19968 0.70988-0.24641-0.25093 0.94837-0.65811  0 246.87 483.78   34.33 246.63 483.48   34.45
   4  -5   4 14744.1   320.0   2 0.10212 0.40815-0.81893 0.32118-0.56474 0.85455  0  95.82 236.19  145.06  95.47 236.07  145.31
   4   5  -4 12666.4   312.5   2-0.17326 0.68326 0.94139-0.44403 0.28942-0.57965  0  97.06 225.77  308.68  96.79 225.79  308.47
   4   5   4 14334.6   281.8   2-0.23508 0.74527 0.29587 0.20148 0.92585-0.63559  0  94.99 270.58    2.92  94.66 270.45    2.86
   4   5   4 15029.3   298.9   2-0.04511 0.55518 0.89708-0.39939-0.43955 0.72956  0 211.75 465.47  264.94 211.62 465.12  264.91
  -4  -5  -5  5284.5   279.2   1-0.40504-0.10548 0.38038-0.87730-0.83142 0.46821  0  84.14 273.29   25.20  84.13 273.25   25.08
  -4  -5   5  4808.0   256.6   1-0.69777 0.18720-0.37326-0.12383-0.61139 0.97449  0 105.34 155.86   74.49 105.06 155.91   74.56
   4  -5  -5  7606.3   291.9   2 0.10016 0.41005 0.17403-0.67164-0.97963 0.61706  0  93.57 186.78  210.54  93.26 186.83  210.50
   4  -5   5  5067.3   269.1   1-0.39118 0.90202-0.89784 0.40066 0.20212 0.16071  0 110.66 371.88  135.50 110.33 371.82  135.56
   4  -5   5  6609.8   272.4   2-0.20956 0.71976-0.15316-0.34418 0.96573-0.60290  0 245.06 499.16   28.85 244.85 498.87   28.97
   4  -5   5  6497.9   243.2   2 0.08854 0.42172-0.88465 0.38691-0.45777 0.82003  0  84.39 233.43  137.57  84.13 233.33  138.09
   4   5  -5  5561.4   252.4   2-0.16175 0.67175 0.96360-0.46624 0.21287-0.57565  0  87.36 213.19  304.00  87.10 213.17  303.83
   4   5   5  6211.0   211.4   2-0.23200 0.74220 0.18387 0.31347 0.95518-0.59235  0  83.33 268.18    9.49  83.01 268.02    9.51
   4   5   5  6654.8   240.7   2-0.06934 0.57942 0.94536-0.44766-0.31857 0.68108  0 209.29 480.39  272.52 209.16 480.11  272.51
  -4  -5  -6  84.318 128.930   1-0.38062-0.12990 0.41431-0.91123-0.82673 0.39087  0  70.98 285.51   22.50  70.76 285.61   22.67
  -4  -5   6  80.671 134.664   1-0.70023 0.18966-0.46060-0.03650-0.54546 0.98117  0  95.69 139.80   80.63  95.94 140.11   80.83
   4  -5  -6 110.768 123.251   2 0.09313 0.41709 0.23983-0.73744-0.96634 0.53124  0  82.02 173.07  214.47  82.25 173.17  214.36
   4  -5   6  23.436 132.760   1-0.37891 0.88975-0.89913 0.40195 0.21908 0.21631  0  90.06 362.05  136.40  89.74 362.41  136.77
   4  -5   6  79.794  89.181   2 0.07429 0.43597-0.93259 0.43484-0.35321 0.78793  0  69.96 229.29  131.55  70.10 229.30  131.48
   4   5  -6 -44.792 108.244   2-0.15059 0.66059 0.97849-0.48114 0.14097-0.57631  0  75.82 198.96  300.07  75.17 199.21  299.56
   4   5   6  36.550  84.630   2-0.22745 0.73764 0.08502 0.41232 0.97007-0.53468  0  68.78 263.89   15.54  68.53 264.37   15.25
   4   5   6  19.370 115.804   2-0.09067 0.60074 0.97414-0.47644-0.20695 0.64196  0 206.33 499.65  279.51 206.66 499.52  279.23
  -4  -5  -7  3798.8   275.6   1-0.36083-0.14969 0.44084-0.93776-0.82187 0.31338  0  54.75 299.12   20.87  54.73 299.04   20.75
  -4  -5   7  4288.3   307.2   1-0.69448 0.18391-0.54166 0.04457-0.47360 0.98193  0  84.55 122.14   87.00  84.29 122.23   87.04
   4  -5  -7  5100.9   299.3   2 0.08702 0.42319 0.29165-0.78926-0.95256 0.44495  0  69.02 157.61  217.49  68.66 157.66  217.45
   4  -5   7  3878.5   290.9   1-0.36403 0.87487-0.90014 0.40296 0.23921 0.26874  0  67.40 353.34  138.19  67.19 353.26  138.20
   4  -5   7  5017.0   247.4   2 0.05995 0.45031-0.96551 0.46777-0.25336 0.76054  0  53.37 224.15  125.21  52.99 224.15  125.39
   4   5  -7  4495.8   273.8   2-0.13974 0.64982 0.98744-0.48974 0.07377-0.58129  0  61.11 183.71  295.65  60.62 183.67  295.66
   4   5   7  4713.8   214.3   2-0.22230 0.73249 0.00202 0.49532 0.97498-0.46702  0  51.31 259.90   19.41  50.94 259.82   20.02
  -4  -5  -8  1783.9   236.0   1-0.34555-0.16497 0.46062-0.95754-0.81757 0.23644  0  35.55 314.06   19.22  35.60 313.94   19.30
  -4  -5   8  2486.2   310.0   1-0.68074 0.17017-0.61540 0.11831-0.39734 0.97829  0  70.33 101.62   93.32  69.88 101.59   93.16
   4  -5  -8  3302.8   317.4   2 0.08202 0.42820 0.33136-0.82897-0.93993 0.35981  0  52.28 140.04  219.69  52.04 139.97  219.87
   4  -5   8  2014.6   239.0   1-0.34680 0.85764-0.90068 0.40350 0.26172 0.31880  0  42.63 344.00  139.62  42.03 344.16  139.83
   4  -5   8  2507.4   225.0   2 0.04540 0.46486-0.98627 0.48852-0.15878 0.73841  0  32.83 217.96  119.76  32.43 218.01  119.77
   4   5  -8  2167.1   234.4   2-0.12888 0.63895 0.99161-0.49392 0.00972-0.58974  0  43.44 166.56  292.00  43.14 166.42  291.91
   4   5   8  2612.1   207.2   2-0.21723 0.72742-0.06485 0.56219 0.97396-0.39344  0  29.88 254.93   23.73  29.94 254.56   23.88
  -4  -6   0 22923.2   483.4   1-0.60740 0.09683 0.00313-0.59964-0.79439 0.79439  0  91.13 228.58   49.97  90.96 228.49   49.88
  -4   6   0 21889.9   394.4   1-0.61099 0.10042-0.00620 0.60271-0.79162 0.79162  0 441.11  17.04   50.40 441.30  17.36   50.47
  -4   6   0 27627.3   572.9   2-0.23532-0.27487 0.31531 0.28150 0.91935-0.91935  2 310.08   6.65    1.67 310.24   6.78    1.69
   4  -6   0 22248.6   350.0   1-0.43517 0.94600-0.88960 0.29299 0.13869-0.13869  0 184.06 454.07  131.02 184.16 453.90  131.10
   4  -6   0 30375.0   523.4   2-0.13875 0.64902-0.63516 0.03814 0.75981-0.75981  2 274.59 502.22   59.61 274.63 501.93   59.65
   4  -6   0 30344.2   479.2   2 0.12943 0.38086-0.40594-0.19101-0.90469 0.90469  0  93.63 209.88  176.49  93.34 209.71  176.47
   4   6   0 30659.9   451.0   2 0.06272 0.44750 0.46295 0.13418-0.88416 0.88416  0 234.89 486.50  228.00 234.64 486.12  228.14
   4   6   0 25345.5   402.7   2-0.22174 0.73174 0.70579-0.10896 0.67282-0.67282  0  89.08 245.39  334.92  88.92 245.39  334.78
  -4  -6  -1 446.656 141.462   1-0.57846 0.06794 0.07309-0.66940-0.81243 0.73979  0  88.73 239.87   45.30  88.63 239.91   45.41
  -4  -6   1 417.755 134.015   1-0.63435 0.12378-0.07193-0.52458-0.76970 0.84231  0  91.60 217.05   54.64  91.35 216.92   54.65
  -4   6  -1 610.332 187.454   1-0.65161 0.14104-0.12758 0.72409-0.74775 0.67513  0 471.18  26.44   58.38 471.30  26.82   58.21
   4  -6  -1 580.744  96.752   1-0.41142 0.92226-0.89479 0.29817 0.17347-0.24603  0 205.45 471.54  133.76 205.29 471.12  133.54
   4  -6  -1 855.443 139.895   2 0.12810 0.38219-0.29653-0.30042-0.94639 0.87389  0  93.13 204.56  183.01  93.17 204.37  183.19
   4  -6   1 696.670 125.956   1-0.44466 0.95550-0.88700 0.29038 0.12453-0.05197  0 165.10 439.01  130.36 165.08 439.02  130.12
   4  -6   1 834.680 192.586   2-0.15456 0.66483-0.55373-0.04329 0.81823-0.74574  2 269.55 502.32   54.07 269.62 502.20   53.83
   4  -6   1 745.569 127.782   2 0.12777 0.38252-0.51473-0.08222-0.84778 0.92028  0  91.09 213.70  169.49  91.28 213.46  169.38
   4   6  -1 860.905 138.124   2 0.08118 0.42903 0.33770 0.25943-0.93775 0.86523  0 241.37 490.90  220.26 241.01 490.90  220.26
   4   6  -1 632.604 114.694   2-0.21333 0.72333 0.77529-0.17846 0.59449-0.66704  0  88.22 239.19  328.77  88.06 239.07  328.73
   4   6   1 708.864 130.664   2 0.04152 0.46869 0.58392 0.01321-0.81075 0.88326  0 229.06 485.40  236.42 229.13 485.21  236.34
   4   6   1 650.280 108.612   2-0.22855 0.73855 0.62532-0.02849 0.74615-0.67360  0  87.46 250.33  340.88  87.42 250.12  341.07
  -4  -6  -2 264.199 125.696   1-0.54901 0.03849 0.13654-0.73284-0.82459 0.67931  0  84.52 251.45   41.39  84.22 251.30   41.35
  -4  -6   2 105.519 122.087   1-0.65806 0.14749-0.15081-0.44571-0.73771 0.88295  0  89.79 205.08   59.57  89.68 204.97   59.71
  -4   6  -2 373.279 213.322   1-0.67383 0.16326-0.21447 0.81098-0.70707 0.56184  2 502.03  35.45   63.94 502.43  35.21   63.84
   4  -6  -2 409.549  80.392   1-0.35657 0.86741-0.90051 0.30389 0.24888-0.39401  0 232.05 492.16  139.12 231.83 491.77  138.90
   4  -6  -2 564.304 127.525   2 0.12508 0.38521-0.19076-0.40620-0.97364 0.82862  0  90.69 197.55  189.70  90.83 197.38  189.46
   4  -6   2 329.469 128.154   1-0.44592 0.95676-0.88664 0.29002 0.12261 0.02252  0 146.62 425.68  129.74 146.72 425.81  129.98
   4  -6   2 570.753 122.035   2 0.12337 0.38692-0.61745 0.02050-0.77687 0.92188  0  86.72 215.88  161.92  86.96 215.62  162.20
   4   6  -2 514.184 145.829   2 0.09581 0.41441 0.21630 0.38082-0.97161 0.82658  0 248.09 499.55  212.98 248.12 499.41  212.97
   4   6  -2 284.946 111.479   2-0.20386 0.71386 0.83316-0.23633 0.51409-0.65921  0  85.12 231.24  323.00  84.94 231.20  322.99
   4   6   2 407.905 120.995   2 0.01804 0.49217 0.69363-0.09650-0.72010 0.86513  0 224.87 487.77  244.43 224.29 488.12  244.64
   4   6   2 526.951  95.634   2-0.23332 0.74332 0.53608 0.06075 0.81128-0.66617  0  83.54 253.31  347.44  83.45 253.20  347.43
  -4  -6  -3 257.420 136.502   1-0.52015 0.00963 0.19287-0.78918-0.83201 0.61409  0  77.93 262.87   37.62  77.72 262.86   37.69
  -4  -6   3 266.042 139.367   1-0.67747 0.16690-0.23165-0.36486-0.69812 0.91598  0  85.73 192.43   64.57  85.95 192.34   64.97
   4  -6  -3 439.746 130.496   2 0.12035 0.38994-0.09320-0.50376-0.98835 0.77083  0  86.27 188.76  195.38  86.32 188.81  195.13
   4  -6   3 264.237 128.179   1-0.44170 0.95254-0.88783 0.29122 0.12904 0.08866  0 128.42 413.90  130.60 128.29 413.93  130.43
   4  -6   3 503.344 122.811   2 0.11619 0.39410-0.70998 0.11302-0.69457 0.91209  0  80.29 216.18  154.98  80.22 216.19  155.10
   4   6  -3 408.689 113.617   2-0.19352 0.70351 0.87975-0.28292 0.43427-0.65194  0  79.72 221.79  317.69  79.56 221.83  317.64
   4   6   3 590.549 130.455   2-0.00612 0.51620 0.78628-0.18904-0.61784 0.83535  0 220.58 495.08  252.43 220.07 495.10  252.67
   4   6   3 275.717  92.727   2-0.23623 0.74621 0.44215 0.15442 0.86527-0.64755  0  76.80 254.88  353.54  76.95 254.69  353.59
  -4  -6  -4-127.938 124.196   1-0.49311-0.01741 0.24189-0.83819-0.83566 0.54510  0  69.21 274.76   34.59  69.08 274.85   34.48
  -4  -6   4  33.238 130.298   1-0.69126 0.18069-0.31298-0.28353-0.65131 0.94179  0  80.03 178.43   70.51  80.09 178.85   70.40
   4  -6  -4  32.528 124.921   2 0.11506 0.39516-0.00616-0.59097-0.99334 0.70328  0  79.04 178.80  199.88  79.51 178.61  200.09
   4  -6   4 180.060 135.775   1-0.43346 0.94430-0.89003 0.29342 0.14125 0.14902  0 109.43 402.62  131.31 109.21 403.05  131.28
   4  -6   4  -6.534 104.069   2 0.10671 0.40356-0.78921 0.19191-0.60479 0.89460  0  71.03 215.33  148.49  71.06 215.28  148.17
   4   6  -4  42.119 113.169   2-0.18287 0.69287 0.91635-0.31952 0.35617-0.64640  0  72.60 210.79  313.06  71.94 211.03  312.63
  -4  -6  -5 411.049 148.138   1-0.46857-0.04194 0.28349-0.87980-0.83670 0.47349  0  58.29 287.52   31.48  58.02 287.53   31.72
  -4  -6   5 132.354 150.922   1-0.69902 0.18845-0.39272-0.20379-0.59761 0.96071  0  72.00 164.11   75.94  71.86 164.11   75.92
   4  -6  -5 178.259 139.111   2 0.10962 0.40059 0.06913-0.66626-0.99157 0.62899  0  69.77 166.62  204.33  70.38 166.54  204.41
   4  -6   5 182.308 149.377   1-0.42213 0.93296-0.89266 0.29604 0.15803 0.20479  0  89.06 392.84  133.13  88.92 392.99  132.45
   4  -6   5 118.003 115.644   2 0.09548 0.41478-0.85454 0.25724-0.51053 0.87280  0  59.29 212.88  141.60  59.13 213.02  141.58
   4   6  -5 362.961 136.336   2-0.17200 0.68200 0.94423-0.34740 0.28080-0.64358  0  61.59 198.87  307.59  61.91 198.77  307.95
   4   6   5 171.962 101.343   2-0.23437 0.74456 0.25716 0.33965 0.93752-0.57469  0  55.79 253.15    5.41  55.56 253.38    5.18
  -4  -6  -6 835.306 185.314   1-0.44707-0.06345 0.31790-0.91420-0.83611 0.40025  0  44.41 301.21   29.33  44.34 301.16   29.39
  -4  -6   6  1046.5   193.2   1-0.70001 0.18944-0.46967-0.12684-0.53795 0.97367  0  61.33 147.75   81.43  61.17 147.73   81.50
   4  -6  -6  1472.8   205.7   2 0.10409 0.40613 0.13214-0.72927-0.98575 0.55066  0  58.82 152.64  208.26  58.72 152.64  208.06
   4  -6   6 969.094 204.709   1-0.40817 0.91901-0.89536 0.29874 0.17814 0.25725  0  66.84 383.64  133.98  66.92 383.52  133.87
   4  -6   6  1320.3   165.9   2 0.08276 0.42750-0.90609 0.30879-0.41492 0.84964  0  43.98 209.65  135.11  44.25 209.45  135.34
   4   6  -6  1121.1   177.2   2-0.16106 0.67106 0.96470-0.36787 0.20837-0.64370  0  49.88 184.66  303.69  49.27 184.94  303.57
   4   6   6  1256.3   146.6   2-0.23168 0.74187 0.17528 0.42153 0.95687-0.52148  0  40.79 250.85   10.17  40.40 250.87   10.01
  -4  -6  -7 563.508 183.828   1-0.42890-0.08162 0.34547-0.94177-0.83469 0.32619  0  27.47 316.23   27.61  27.61 316.16   27.50
  -4  -6   7 743.753 211.087   1-0.69442 0.18385-0.54216-0.05435-0.47312 0.98145  0  47.79 129.25   87.37  47.53 129.15   87.08
   4  -6  -7 588.350 204.918   2 0.09925 0.41097 0.18383-0.78096-0.97793 0.47033  0  43.96 136.78  210.87  44.09 136.56  211.07
   4  -6   7 465.954 198.452   1-0.39200 0.90284-0.89773 0.30111 0.20103 0.30693  0  42.36 374.67  135.44  42.53 374.51  135.48
   4  -6   7 467.715 141.874   2 0.06959 0.44067-0.94467 0.34737-0.32056 0.82773  0  26.13 204.48  129.64  25.91 204.71  129.46
   4   6  -7 562.054 173.969   2-0.15027 0.66035 0.97878-0.38155 0.13930-0.64681  0  33.79 169.15  299.67  33.59 169.24  299.50
   4   6   7 614.379 139.016   2-0.22846 0.73865 0.10408 0.49273 0.96797-0.46002  0  22.41 247.00   14.41  21.76 247.45   14.15
  -4  -7   0  -7.511 123.704   1-0.63380 0.12323-0.07027-0.62566-0.77030 0.77030  0  57.75 239.68   54.79  57.80 239.85   54.55
   4  -7   0 -14.476 120.129   1-0.46834 0.97917-0.87920 0.18314 0.08761-0.08761  0 161.62 484.32  127.57 161.78 484.51  127.56
   4  -7   0  72.588 125.409   2 0.12908 0.38121-0.44059-0.25586-0.88838 0.88838  0  65.12 186.60  174.15  65.44 186.40  174.26
   4   7   0 -83.187  98.126   2-0.22252 0.73252 0.69790-0.00160 0.68075-0.68075  0  58.12 227.81  335.42  58.12 227.86  335.42
  -4  -7  -1  1347.4   195.5   1-0.61159 0.10102-0.00780-0.68813-0.79113 0.71852  0  56.12 252.17   50.51  55.93 252.00   50.57
  -4  -7   1  1046.9   183.6   1-0.65418 0.14361-0.13672-0.55921-0.74388 0.81650  0  57.98 227.69   58.61  57.44 227.60   58.80
   4  -7  -1  1773.2   198.8   2 0.12896 0.38133-0.34777-0.34868-0.92867 0.85616  0  65.51 181.32  180.00  65.45 181.04  180.09
   4  -7   1  1064.4   162.9   1-0.47251 0.98335-0.87760 0.18155 0.08093-0.00836  0 142.03 468.05  127.26 142.09 468.07  127.10
   4  -7   1  2033.0   233.3   2 0.12722 0.38307-0.53283-0.16362-0.83661 0.90911  0  63.23 190.40  168.11  63.07 190.18  168.15
   4   7  -1  1499.4   172.3   2-0.21544 0.72544 0.76035-0.06405 0.61275-0.68530  0  57.55 221.64  330.12  57.48 221.67  330.10
   4   7   1  1378.9   158.9   2-0.22834 0.73834 0.62847 0.06783 0.74357-0.67101  0  56.50 232.46  340.83  56.30 232.60  340.84
  -4  -7  -2  4415.9   287.5   1-0.58836 0.07784 0.04996-0.74565-0.80706 0.66177  0  52.20 264.43   46.88  51.94 264.31   46.89
  -4  -7   2  4570.4   295.7   1-0.67186 0.16129-0.20598-0.48995-0.71146 0.85670  0  54.68 214.90   63.34  54.88 214.92   63.29
   4  -7  -2  5746.1   295.4   2 0.12715 0.38314-0.25767-0.43878-0.95783 0.81282  0  63.55 174.09  185.56  63.09 174.07  185.52
   4  -7   2  3503.7   257.9   1-0.47051 0.98135-0.87838 0.18232 0.08414 0.06099  0 123.11 453.53  127.28 122.93 453.74  127.32
   4  -7   2  5788.2   289.1   2 0.12314 0.38715-0.62118-0.07526-0.77393 0.91894  0  58.59 192.59  161.77  58.29 192.46  161.92
   4   7  -2  4300.5   261.3   2-0.20723 0.71723 0.81470-0.11840 0.54160-0.68671  0  54.65 213.87  325.01  54.41 214.02  324.91
   4   7   2  5190.6   248.3   2-0.23259 0.74259 0.55378 0.14252 0.79952-0.65441  0  51.97 235.98  346.19  51.88 235.90  346.21
  -4  -7  -3  5269.4   306.7   1-0.56543 0.05491 0.10202-0.79771-0.81846 0.60054  0  45.55 276.96   43.57  45.55 276.91   43.56
  -4  -7   3  5006.7   328.5   1-0.68589 0.17532-0.27683-0.41910-0.67299 0.89085  0  50.19 201.63   67.67  50.07 201.65   67.97
   4  -7  -3  7369.0   329.4   2 0.12440 0.38589-0.17283-0.52362-0.97706 0.75955  0  58.72 165.45  190.55  58.38 165.36  190.51
   4  -7   3  4718.0   303.6   1-0.46418 0.97502-0.88072 0.18466 0.09422 0.12347  0 103.55 441.18  128.24 103.48 441.05  128.02
   4  -7   3  7265.3   306.5   2 0.11687 0.39342-0.70270 0.00625-0.70182 0.91934  0  51.33 193.29  155.64  50.92 193.22  155.68
   4   7  -3  6167.0   297.1   2-0.19813 0.70812 0.86068-0.16438 0.46902-0.68669  0  48.94 204.76  319.80  48.88 204.85  319.93
   4   7   3  5933.4   256.4   2-0.23544 0.74542 0.47641 0.21959 0.84711-0.62939  0  44.89 237.94  351.23  44.80 237.81  351.36
  -4  -7  -4  1060.3   197.7   1-0.54334 0.03282 0.14802-0.84371-0.82636 0.53580  0  36.62 290.09   40.58  36.73 290.09   40.60
  -4  -7   4  1158.8   200.7   1-0.69552 0.18495-0.34798-0.34795-0.62861 0.91909  0  43.12 187.56   72.65  42.82 187.43   72.80
   4  -7  -4  1802.4   222.9   2 0.12050 0.38979-0.09580-0.60065-0.98808 0.69806  0  51.32 155.04  194.70  51.16 154.91  194.98
   4  -7   4  1107.2   203.1   1-0.45453 0.96537-0.88400 0.18794 0.10933 0.18094  0  83.23 429.60  129.37  83.10 429.67  129.06
   4  -7   4  1435.6   182.7   2 0.10863 0.40166-0.77514 0.07869-0.62238 0.91240  0  41.08 192.64  149.52  40.82 192.51  149.51
   4   7  -4  1108.2   184.9   2-0.18843 0.69843 0.89859-0.20229 0.39627-0.68650  0  40.55 194.15  315.24  40.76 194.18  315.17
   4   7   4  1302.7   163.0   2-0.23671 0.74668 0.39941 0.29659 0.88569-0.59540  0  35.00 238.22  356.35  34.81 238.46  356.31
  -4  -7  -5 14334.1   478.2   1-0.52284 0.01232 0.18781-0.88350-0.83148 0.46828  0  25.22 304.29   38.01  25.18 304.20   38.02
   4  -7  -5 20246.9   523.8   2 0.11629 0.39400-0.02751-0.66894-0.99283 0.63030  0  41.47 142.40  198.82  41.23 142.46  198.91
   4  -7   5 13458.7   442.9   1-0.44219 0.95303-0.88770 0.19164 0.12829 0.23453  0  61.41 419.41  130.35  61.17 419.37  130.38
   4  -7   5 18891.1   456.6   2 0.09890 0.41137-0.83688 0.14003-0.53838 0.90065  0  28.10 190.60  143.38  27.83 190.46  143.48
   4   7  -5 16838.3   454.6   2-0.17839 0.68839 0.92901-0.23271 0.32422-0.68700  0  30.07 181.70  310.68  29.88 181.86  310.64
  -4  -8   0  3647.9   300.1   1-0.65534 0.14477-0.14086-0.65449-0.74208 0.74208  0  17.13 252.76   59.18  17.34 252.78   59.06
   4  -8   0  5008.0   338.7   2 0.12842 0.38187-0.47922-0.31673-0.86825 0.86825  0  30.80 160.01  171.85  30.36 159.94  171.75
   4   8   0  4518.5   284.5   2-0.22196 0.73196 0.70356 0.09221 0.67508-0.67508  0  19.97 209.05  334.76  19.95 209.14  334.96
  -5   0   0 153.244  75.577   1-0.31907-0.31907 0.49328-0.49328-0.80924 0.80924  0 189.25 133.72   16.89 189.10 133.89   16.85
  -5   0   0  15.265 106.662   1-0.31927-0.31927-0.89995 0.89995 0.29692-0.29692  0 434.47 105.97  142.05 434.45 106.32  142.39
  -5   0  -1 178.344  74.816   1-0.23503-0.40311 0.58715-0.58715-0.77461 0.70197  0 177.14 145.56    9.36 177.12 145.61    9.36
  -5   0  -1 358.266 132.692   1-0.35232-0.28623-0.90061 0.90061 0.25450-0.32706  0 452.70 117.01  139.35 452.66 117.15  139.31
  -5   0   1 314.442  77.010   1-0.41807-0.22007 0.36154-0.36154-0.83337 0.90601  0 200.25 121.02   26.44 200.20 121.23   26.39
  -5   0   1 273.480 108.394   1-0.28489-0.35365-0.89668 0.89668 0.33881-0.26624  0 418.15  94.51  145.49 418.17  94.55  145.50
  -5   0   1 289.733  37.048   2-0.21265-0.42509-0.11963 0.11963 0.96978-0.89721  0 456.44 120.89   27.35 456.83 121.19   27.03
  -5   0   1 254.473  37.477   2-0.23233-0.40517 0.55955-0.55955 0.79557-0.72301  0 486.60 154.64  346.24 486.78 155.06  345.81
  -5   0  -2  37.576  71.933   1-0.16743-0.47072 0.65289-0.65289-0.73872 0.59343  0 164.38 156.36    3.63 164.33 156.57    3.58
  -5   0  -2  92.189 131.253   1-0.38398-0.25457-0.89865 0.89865 0.21212-0.35725  0 472.85 127.62  136.46 473.13 127.41  136.27
  -5   0   2  83.335  60.275   1-0.52482-0.11333 0.18406-0.18406-0.83108 0.97636  0 210.52 106.90   38.63 210.55 107.36   38.27
  -5   0   2   1.293  94.200   1-0.24933-0.38922-0.89062 0.89062 0.38032-0.23518  0 403.23  81.71  148.39 403.56  81.60  148.66
  -5   0   2  26.428  62.659   2-0.15169-0.48615-0.56900 0.56900 0.80823-0.66325  0 428.93  94.00   54.95 429.15  94.08   54.89
   5   0  -2  26.567  20.996   2 0.12943 0.50843-0.40288 0.40288-0.90605 0.76104  0 169.73 368.15  177.00 170.02 368.40  176.66
   5   0  -2  17.753  21.849   2 0.10985 0.52792 0.06636-0.06636-0.99173 0.84670  0 152.89 339.96  204.45 152.97 340.28  204.25
  -5   0  -3 38359.5   538.1   1-0.41420-0.22435-0.89425 0.89425 0.16959-0.38729  0 496.20 136.99  133.15 496.33 137.23  133.26
  -5   0   3 28995.9   314.7   1-0.62298-0.01523-0.03895 0.03895-0.78127 0.99912  0 220.23  91.89   52.27 220.22  91.96   52.56
  -5   0   3 41258.2   387.1   1-0.21337-0.42517-0.88226 0.88226 0.41964-0.20212  0 390.10  66.76  151.92 390.32  67.07  151.74
  -5   0   3 43069.4   384.4   2-0.12080-0.51704-0.71384 0.71384 0.68981-0.47235  0 409.33  73.58   65.78 409.64  73.84   65.78
   5   0  -3 39332.1   308.8   2 0.11683 0.52103-0.70312 0.70312-0.70140 0.48389  0 190.81 401.93  155.62 190.60 401.69  155.65
   5   0  -3 44851.3   329.6   2 0.05875 0.57901 0.48708-0.48708-0.87138 0.65383  0 134.25 309.05  229.82 134.27 308.98  229.71
  -5   0   4  31.640  53.715   1-0.68800 0.04979-0.28997 0.28997-0.66526 0.95574  0 229.22  74.67   68.94 229.20  74.74   68.85
  -5   0   4 -16.755  87.759   1-0.17692-0.46162-0.87095 0.87095 0.45842-0.16840  0 378.61  51.02  155.02 378.42  50.85  154.85
  -5   0   4  25.843 104.505   2-0.10370-0.53414-0.77898 0.77898 0.61842-0.32846  0 392.42  54.22   71.59 392.45  54.16   71.40
   5   0  -4   5.652  62.412   2 0.10736 0.53047-0.78470 0.78470-0.61051 0.32069  0 204.42 425.78  148.44 204.33 425.77  148.58
   5   0  -4 -10.204  52.848   2 0.03211 0.60566 0.63045-0.63045-0.77557 0.48551  0 120.97 288.64  239.79 120.96 288.57  239.73
  -5   0  -5  5689.8   121.8   2 0.04393-0.68170 0.57143-0.57143-0.81947 0.45690  0 486.99  78.95  235.36 486.98  79.11  235.46
  -5   0   5  4219.0   129.9   1-0.69525 0.05703-0.53537 0.53537-0.47959 0.84269  0 238.05  54.78   86.49 237.81  55.02   86.54
  -5   0   5  5442.7   177.3   1-0.14219-0.49634-0.85824 0.85824 0.49315-0.13062  0 367.50  32.07  157.93 367.34  32.27  157.76
  -5   0   5  5563.0   257.4   2-0.09412-0.54372-0.81143 0.81143 0.57683-0.21438  0 376.33  33.25   74.30 376.42  33.45   74.49
   5   0  -5  5337.2   198.5   2 0.10193 0.53590-0.82003 0.82003-0.56317 0.20090  0 216.64 450.15  145.15 216.50 449.82  145.19
   5   0  -5  5510.7   183.3   2 0.01639 0.62138 0.70059-0.70059-0.71338 0.35080  0 107.97 270.66  245.07 107.76 270.53  245.20
   5   0   5  5515.5   264.0   1 0.04908 0.58946-0.75215 0.75215 0.65716-0.29463  0 120.14 329.91  173.41 119.75 329.87  173.47
  -5   0  -6  -0.953  90.833   2 0.01455-0.65232 0.70777-0.70777-0.70630 0.27120  0 475.67  42.21  245.96 475.91  42.21  245.78
  -5   0   6  -6.051  53.189   1-0.63561-0.00293-0.73168 0.73168-0.24625 0.68164  0 247.14  31.74  104.94 246.33  32.20  104.42
  -5   0   6  31.386  83.868   1-0.11113-0.52740-0.84505 0.84505 0.52301-0.08798  2 357.70  11.29  160.99 356.75  10.77  160.34
  -5   0   6  60.208 161.384   2-0.08903-0.54881-0.82734 0.82734 0.55460-0.11966  0 361.19  10.46   75.83 360.80  10.93   76.07
   5   0  -6  79.436  99.215   2 0.09908 0.53874-0.83588 0.83588-0.53990 0.10518  0 228.09 475.67  143.42 228.03 475.73  143.58
   5   0  -6 130.520  78.445   2 0.00699 0.63078 0.73803-0.73803-0.67473 0.23963  0  93.62 252.92  248.63  93.60 253.25  248.33
   5   0   6  38.479 122.055   1 0.02964 0.60889-0.76561 0.76561 0.64262-0.20759  0 102.45 320.13  171.25 102.07 320.19  171.88
   5   0  -7  6935.3   295.3   2 0.09803 0.53980-0.84145 0.84145-0.53137 0.02419  2 239.81 504.80  142.98 239.44 504.87  142.99
   5   0  -7  8329.8   270.2   2 0.00178 0.63582 0.75819-0.75819-0.65203 0.14452  0  78.00 236.08  249.99  77.82 235.94  250.09
   5   0   7  8130.6   340.2   1 0.01746 0.62107-0.77357 0.77357 0.63347-0.12593  0  82.87 310.41  170.95  82.44 310.43  170.89
   5   0   7  6362.4   130.6   2-0.23331 0.87105 0.21980-0.21980 0.94724-0.43928  0 135.76 425.32    7.55 135.91 425.26    7.39
   5   0   7  7585.1   136.0   2-0.16958 0.80732-0.46814 0.46814 0.86723-0.35927  0  93.95 351.49   48.14  93.70 351.32   48.09
   5   0  -8 -47.427 111.722   2-0.00073 0.63833 0.76733-0.76733-0.64126 0.06124  0  59.89 218.04  250.50  59.80 218.20  250.92
   5   0   8 189.171 149.752   1 0.01156 0.62698-0.77751 0.77751 0.62876-0.04871  0  59.84 300.36  170.58  60.46 300.32  170.40
   5   0   8  13.852  61.742   2-0.15142 0.78926-0.57041 0.57041 0.80728-0.22737  0  67.35 336.56   54.88  67.40 336.31   54.99
   5   0  -9 551.487 158.205   2-0.00126 0.63885 0.76921-0.76921-0.63899-0.01352  0  38.38 199.39  251.42  38.80 199.43  251.09
   5   0   9 526.203 183.482   1 0.01077 0.62776-0.77802 0.77802 0.62814 0.02441  0  34.96 289.69  170.51  35.37 289.59  170.34
   5   0   9 549.031  94.148   2-0.14343 0.78127-0.61138 0.61138 0.77823-0.12582  0  40.07 325.95   57.91  40.21 325.99   57.91
   5   0   9 372.526 110.836   2-0.23632 0.87379 0.43612-0.43612 0.86830-0.21514  0 134.11 497.57  354.02 134.44 497.58  353.98
  -5  -1   0 -43.831  69.194   1-0.38945-0.24869 0.40221-0.50159-0.82859 0.82859  0 175.08 146.98   23.54 175.01 146.47   23.53
  -5  -1   0 -14.955 118.175   1-0.19068-0.44786-0.87556 0.77614 0.44389-0.44389  0 455.88 117.74  153.96 455.99 117.42  153.67
  -5   1   0  -1.447  61.570   1-0.23544-0.40271 0.58673-0.48735-0.77480 0.77480  0 199.83 120.09    9.40 199.86 119.88    9.39
  -5   1   0 -14.363 102.670   1-0.46416-0.17438-0.88072 0.98016 0.09424-0.09424  0 418.73  92.84  128.56 418.66  92.83  128.02
  -5   1   0   7.254  28.207   2-0.18411-0.45339 0.91262-0.81315 0.36500-0.36500  0 483.81 147.88  312.83 483.55 147.52  313.19
  -5   1   0 -20.279  26.631   2-0.22825-0.40925 0.62972-0.53025 0.74253-0.74253  0 463.78 125.48  340.76 463.89 125.43  340.75
  -5  -1  -1 413.465  93.312   1-0.31628-0.32186 0.49664-0.59602-0.80828 0.73564  0 165.37 157.81   16.64 165.38 157.80   16.59
  -5  -1  -1 529.372 145.126   1-0.23745-0.40109-0.88830 0.78888 0.39312-0.46562  0 471.67 128.86  149.66 471.52 129.07  149.66
  -5  -1   1 556.891  94.014   1-0.46998-0.16817 0.28118-0.38057-0.83669 0.90933  0 183.25 134.28   31.71 183.29 134.36   31.88
  -5  -1   1 718.979 139.091   1-0.14146-0.49708-0.85795 0.75853 0.49387-0.42137  0 442.95 104.87  157.99 442.99 104.85  157.82
  -5  -1   1 654.206  54.725   2-0.22408-0.41366 0.02674-0.12621 0.97420-0.90164  0 489.16 150.97   18.89 489.40 151.40   18.59
  -5  -1   1 687.447  54.692   2-0.14912-0.48872-0.58257 0.48306 0.79899-0.72650  0 460.92 119.71   56.08 461.25 120.01   55.84
  -5   1  -1 436.093  84.567   1-0.14348-0.49466 0.67409-0.57470-0.72458 0.65194  0 185.33 131.78    1.67 185.26 132.14    1.57
  -5   1  -1 609.594 129.963   1-0.47611-0.16243-0.87617 0.97561 0.07511-0.14767  0 439.90 103.02  126.65 440.03 103.02  126.70
  -5   1   1 520.065  75.594   1-0.35430-0.28384 0.44942-0.35003-0.82006 0.89270  0 214.83 106.24   20.32 214.66 106.39   20.13
  -5   1   1 633.964 104.913   1-0.45664-0.18191-0.88331 0.98275 0.10604-0.03348  0 397.85  81.51  128.61 398.17  81.86  128.84
  -5   1   1 717.093  66.409   2-0.22147-0.41627-0.01069 0.11016 0.97511-0.90254  0 437.51 101.72   20.74 437.65 101.83   20.76
  -5   1   1 625.938  66.157   2-0.15800-0.47950 0.96941-0.86994 0.18782-0.11526  2 503.99 176.98  302.78 504.57 177.35  302.33
  -5  -1  -2  6087.7   231.3   1-0.25350-0.38465 0.56785-0.66723-0.78313 0.63784  0 154.43 168.43   11.00 154.40 168.57   10.97
  -5  -1  -2  9581.6   318.1   1-0.28179-0.35676-0.89626 0.79682 0.34251-0.48764  0 489.77 139.96  145.94 489.85 140.28  145.78
  -5  -1   2  7217.8   206.4   1-0.55140-0.08675 0.13163-0.23101-0.82379 0.96908  0 190.26 121.14   41.58 190.23 121.22   41.66
  -5  -1   2  9912.2   267.5   1-0.09023-0.54831-0.83521 0.73579 0.54248-0.39747  0 432.25  90.81  162.00 432.42  91.05  162.07
  -5  -1   2 10083.1   172.5   2-0.08838-0.54946-0.82937 0.72986 0.55167-0.40669  0 432.35  91.42   76.07 432.57  91.60   76.28
  -5   1  -2  8927.0   299.1   1-0.49061-0.14793-0.86987 0.96931 0.05124-0.19637  0 462.88 112.30  124.72 463.01 112.58  125.06
  -5   1   2  7235.1   159.3   1-0.49688-0.14127 0.23529-0.13591-0.83531 0.98060  0 230.33  91.08   34.93 230.25  91.25   34.92
  -5   1   2  9041.8   201.9   1-0.45710-0.18145-0.88316 0.98259 0.10533 0.03980  0 377.64  69.63  128.86 377.63  69.95  128.79
  -5   1   2 10295.5   200.2   2-0.18771-0.45003-0.34516 0.44463 0.91958-0.77445  0 418.38  84.08   40.25 418.72  84.30   40.37
   5  -1  -2  9243.5   136.2   2 0.09465 0.54318-0.85851 0.75896-0.50399 0.35908  0 182.74 387.85  141.12 182.60 387.64  141.14
   5  -1  -2 10311.4   141.5   2 0.11545 0.52232-0.01170-0.08782-0.99324 0.84821  0 142.34 321.46  200.00 142.40 321.54  199.77
   5   1  -2  9715.8    80.0   2 0.11267 0.52510 0.02959 0.06993-0.99319 0.84816  0 166.27 367.73  201.80 166.06 367.11  202.13
   5   1  -2 10651.8    84.0   2 0.07333 0.56444 0.39369-0.29417-0.91631 0.77128  0 152.32 344.73  223.82 152.44 344.56  223.73
  -5  -1  -3 375.747 101.273   1-0.20189-0.43626 0.62051-0.71989-0.75777 0.53984  0 142.01 178.69    6.49 142.15 178.86    6.50
  -5  -1   3 400.088  85.604   1-0.62393-0.01428-0.04164-0.05778-0.78037 0.99823  0 195.55 106.85   52.58 195.70 106.84   52.73
  -5  -1   3 565.447 126.481   1-0.03786-0.60067-0.80770 0.70828 0.58837-0.37085  0 424.07  75.63  166.46 424.21  75.61  166.36
  -5  -1   3 504.618  95.987   2-0.06855-0.56929-0.88473 0.78523 0.46103-0.24357  0 412.82  71.09   82.18 412.77  71.10   82.45
  -5   1  -3 322.829 165.904   1-0.50661-0.13194-0.86183 0.96127 0.02428-0.24197  0 488.27 121.53  122.78 488.28 121.64  123.21
  -5   1   3 341.182  50.785   1-0.63833 0.00012-0.08415 0.18356-0.76515 0.98301  0 248.80  73.48   55.82 248.37  73.84   55.43
  -5   1   3 507.524  77.382   1-0.47385-0.16469-0.87707 0.97651 0.07876 0.13893  0 355.08  56.87  126.85 355.22  57.10  126.95
  -5   1   3 532.983 106.106   2-0.15999-0.47785-0.52321 0.62272 0.83705-0.61958  0 401.47  67.12   51.99 401.78  67.14   51.75
   5  -1  -3 466.918  69.564   2 0.08213 0.55570-0.90823 0.80868-0.41033 0.19297  0 197.25 411.11  135.00 197.15 410.96  135.05
   5  -1  -3 548.321  65.896   2 0.08618 0.55159 0.29876-0.39828-0.95043 0.73288  0 129.60 299.66  218.10 129.60 299.86  217.89
   5  -1   3 689.103 120.216   1 0.02643 0.61210-0.76778 0.66835 0.64017-0.42266  0 155.47 362.50  171.52 155.32 362.50  171.62
   5   1  -3 441.430  58.311   2 0.12910 0.50877-0.43917 0.53866-0.88908 0.67156  0 187.57 402.50  174.53 187.72 402.51  174.35
   5   1  -3 489.018  58.598   2 0.01332 0.62445 0.71277-0.61325-0.70127 0.48372  0 132.53 311.01  246.33 132.42 311.13  246.20
  -5  -1  -4  3210.6   208.8   1-0.16089-0.47726 0.65872-0.75810-0.73499 0.44442  0 128.75 188.71    3.16 128.54 188.89    3.03
  -5  -1   4  3607.0   160.1   1-0.67649 0.03828-0.22690 0.12748-0.70063 0.99110  0 199.61  90.97   64.50 199.56  90.96   64.66
  -5  -1   4  5478.2   224.8   2-0.06013-0.57771-0.90521 0.80571 0.42069-0.13073  0 395.22  50.95   84.97 395.42  51.14   85.08
  -5   1  -4  4902.1   102.9   2-0.03534-0.60225 0.87355-0.77401-0.48544 0.19544  0 479.54  93.21  261.74 479.35  93.49  261.92
  -5   1   4  3789.7    83.2   1-0.69568 0.05747-0.53155 0.63096-0.48320 0.77368  0 275.69  52.20   86.18 275.70  52.53   86.24
  -5   1   4  4610.6    90.5   1-0.54056-0.09799-0.84051 0.93994-0.03670 0.32697  0 323.97  43.95  119.06 323.95  44.33  119.04
  -5   1   4  5239.3   235.1   2-0.14076-0.49708-0.62447 0.72397 0.76826-0.47830  0 385.63  48.57   58.86 385.91  48.93   58.86
   5  -1  -4  5043.8   173.7   2 0.07748 0.56035-0.92329 0.82374-0.37622 0.08640  0 209.78 433.20  132.94 209.55 432.90  132.90
   5  -1  -4  5389.7   166.5   2 0.06272 0.57505 0.46293-0.56245-0.88417 0.59411  0 117.94 281.90  228.04 117.66 281.78  228.14
   5  -1   4  5198.1   235.0   1-0.00850 0.64704-0.79019 0.69077 0.61280-0.32277  0 139.33 352.50  168.69 139.21 352.48  168.76
   5   1  -4  4840.7   162.0   2 0.12449 0.51337-0.59518 0.69467-0.79389 0.50387  0 201.75 427.44  163.95 201.62 427.15  163.80
   5   1  -4  5051.0   155.5   2-0.00820 0.64580 0.79336-0.69382-0.60870 0.31869  0 119.12 290.65  253.10 118.87 290.37  253.34
  -5  -1  -5  1556.3    95.1   2 0.10039-0.73815 0.17271-0.27223-0.97984 0.61727  0 493.76  78.80  210.25 493.66  78.80  210.42
  -5  -1   5  1028.5   105.6   1-0.69978 0.06157-0.40872 0.30930-0.58587 0.94897  0 201.85  73.37   76.87 201.80  73.11   77.06
  -5  -1   5  1626.9   172.1   2-0.05698-0.58086-0.91238 0.81287 0.40536-0.04292  0 379.29  30.11   85.93 379.22  30.22   86.06
  -5   1  -5  1449.9   133.3   2-0.04889-0.58871 0.90577-0.80623-0.42093 0.05842  0 469.69  62.23  265.94 469.55  62.44  266.12
  -5   1   5  1611.1   173.1   2-0.12808-0.50976-0.68371 0.78322 0.71842-0.35598  0 370.37  28.98   63.31 370.53  29.15   63.36
   5  -1  -5  1366.6   157.7   2 0.07628 0.56155-0.92698 0.82743-0.36727 0.00500  0 221.22 456.01  132.36 221.12 455.94  132.35
   5  -1  -5  1582.6   134.2   2 0.04628 0.59149 0.55898-0.65850-0.82789 0.46531  0 105.23 264.96  234.55 105.12 264.81  234.58
   5  -1   5  1280.8   159.0   1-0.03216 0.67070-0.80434 0.70492 0.59330-0.23077  0 122.45 342.74  166.82 122.02 342.78  166.83
   5   1  -5  1356.3   149.2   2 0.11958 0.51828-0.67262 0.77211-0.73026 0.36773  0 213.76 451.77  158.23 213.83 451.57  158.06
   5   1  -5  1540.7   129.4   2-0.01883 0.65642 0.82718-0.72764-0.56162 0.19911  0 105.69 272.45  256.66 105.49 272.21  256.72
  -5  -1  -6  7957.8   199.3   2 0.06580-0.70356 0.44296-0.54249-0.89412 0.45903  0 481.51  40.20  226.73 481.51  40.33  226.85
  -5  -1   6  6206.0   196.0   1-0.69011 0.05190-0.57108 0.47166-0.44454 0.88025  0 202.63  52.67   89.23 202.45  52.72   89.42
  -5  -1   6  8663.6   362.4   2-0.05679-0.58105-0.91280 0.81330 0.40443 0.03050  2 363.50   7.31   86.00 363.54   7.40   86.12
  -5   1  -6  7440.5   224.5   2-0.05015-0.58745 0.90855-0.80901-0.41476-0.02025  0 463.94  31.34  266.39 464.00  31.69  266.51
   5  -1  -6  7612.8   265.5   2 0.07689 0.56094-0.92503 0.82548-0.37203-0.06269  0 232.73 481.70  132.62 232.37 481.34  132.64
   5  -1  -6  8819.2   253.8   2 0.03493 0.60284 0.61690-0.71643-0.78626 0.35117  0  91.60 248.20  238.85  91.34 248.14  238.73
   5  -1   6  7714.4   310.6   1-0.04695 0.68548-0.81281 0.71338 0.58064-0.14560  0 103.83 333.24  165.60 103.38 333.26  165.61
   5  -1   6  7270.4   108.4   2-0.20854 0.84628-0.16325 0.06378 0.96429-0.52890  0 139.97 405.10   29.63 140.00 404.96   29.56
   5  -1   6  8290.2   114.0   2-0.13482 0.77266-0.65359 0.55408 0.74475-0.30981  0 111.45 355.21   61.20 111.25 355.38   61.04
   5   1  -6  7239.4   252.0   2 0.11576 0.52211-0.71434 0.81383-0.69016 0.25513  0 225.63 478.02  154.77 225.30 477.78  154.74
   5   1  -6  7499.4   232.9   2-0.02390 0.66149 0.84233-0.74279-0.53844 0.10343  0  91.34 255.04  258.10  91.16 254.85  258.33
  -5  -1   7 753.837 107.689   1-0.65125 0.01271-0.70092 0.60148-0.29083 0.79878  0 201.43  29.46  100.99 201.47  29.17  101.18
   5  -1  -7 679.817 123.612   2 0.02743 0.61034 0.65213-0.75165-0.75761 0.25000  0  75.84 231.24  241.45  75.75 231.26  241.37
   5  -1   7 727.922 179.889   1-0.05471 0.69324-0.81706 0.71764 0.57395-0.06640  0  83.22 323.64  164.58  82.94 323.75  164.98
   5  -1   7 623.254  75.799   2-0.22800 0.86574 0.09533-0.19480 0.96898-0.46103  0 144.25 439.62   14.84 144.62 439.69   14.66
   5  -1   7 820.846  93.731   2-0.11421 0.75205-0.74003 0.64053 0.66281-0.15538  0  86.49 337.43   68.20  86.33 337.80   67.97
   5   1  -7 740.147 127.092   2-0.02576 0.66335 0.84751-0.74797-0.53016 0.02265  0  75.36 237.59  259.02  75.20 237.58  258.90
   5   1   7 819.697  75.169   2-0.20578 0.84352-0.19089 0.29036 0.95980-0.45184  0  93.33 356.67   31.62  93.24 357.48   31.18
   5  -1  -8  3948.1   252.6   2 0.02281 0.61496 0.67276-0.77228-0.73951 0.15938  0  58.18 213.71  243.14  57.83 213.72  242.96
   5  -1   8  3616.6   284.1   1-0.05671 0.69525-0.81815 0.71872 0.57220 0.00785  0  60.63 313.99  164.67  60.15 314.04  164.81
   5  -1   8  3000.6   165.3   2-0.23359 0.87133 0.22914-0.32860 0.94495-0.36443  0 144.10 472.44    6.92 144.14 472.34    6.84
   5  -1   8  3445.0   149.3   2-0.10814 0.74598-0.76299 0.66349 0.63730-0.05738  0  62.38 326.44   69.96  62.20 326.48   69.97
   5   1  -8  2855.6   226.6   2-0.02543 0.66303 0.84657-0.74703-0.53166-0.04835  0  57.31 219.84  258.73  56.98 219.82  258.79
   5   1   8  3601.9   137.8   2-0.18575 0.82349-0.35902 0.45849 0.91466-0.33414  0  66.27 341.08   41.26  65.98 341.01   41.21
   5   1   8  2739.2   145.1   2-0.23349 0.87099 0.53162-0.43215 0.81416-0.23372  0 132.36 460.11  347.97 132.85 460.29  347.74
   5  -1  -9  56.119 138.329   2 0.02044 0.61732 0.68340-0.78292-0.72976 0.07712  0  36.95 194.91  243.79  36.86 194.98  243.82
   5  -1   9-125.012 171.683   1-0.05394 0.69247-0.81665 0.71722 0.57461 0.07794  0  34.69 303.85  165.54  34.28 303.88  165.04
   5  -1   9  38.733  81.027   2-0.10728 0.74512-0.76617 0.66666 0.63362 0.01878  0  35.50 318.13   70.03  35.80 317.70   70.25
   5   1  -9-153.020 129.869   2-0.02355 0.66115 0.84132-0.74178-0.54003-0.11249  0  35.33 201.45  258.57  35.71 201.03  258.22
   5   1   9  -2.529  77.715   2-0.17442 0.81216-0.43701 0.53648 0.88238-0.22930  0  38.36 329.95   46.35  38.33 330.42   46.08
   5   1   9  62.741 106.570   2-0.23151 0.86900 0.57678-0.47731 0.78341-0.13040  0 130.03 497.37  344.54 129.78 497.33  344.60
  -5  -2   0  7523.5   239.5   1-0.44838-0.18976 0.31576-0.51453-0.83621 0.83621  0 158.04 157.83   29.50 158.09 157.93   29.54
  -5  -2   0 11021.0   341.4   1-0.09015-0.54839-0.83517 0.63632 0.54255-0.54255  0 483.46 126.92  162.12 483.55 127.09  162.07
  -5   2   0  8852.5   238.9   1-0.59596-0.04258-0.78897 0.98784-0.14954 0.14954  0 408.76  76.18  111.11 408.95  76.39  111.25
   5  -2   0 10400.1   101.4   2 0.04070 0.59713-0.99083 0.79173-0.12881 0.12881  0 168.40 374.30  118.26 168.44 374.43  118.02
   5  -2   0 10364.2   101.1   2 0.10898 0.52888-0.77250 0.57351-0.62560 0.62560  0 147.73 340.18  149.65 147.61 339.93  149.75
  -5  -2  -1 15174.0   333.4   1-0.38647-0.25167 0.40632-0.60509-0.82798 0.75534  0 150.27 168.97   23.03 150.32 169.08   23.24
  -5  -2  -1 21788.1   426.6   1-0.14291-0.49563-0.85853 0.65968 0.49245-0.56496  0 496.94 139.47  157.83 497.03 139.62  157.70
  -5  -2   1 15642.9   321.9   1-0.51318-0.12496 0.20604-0.40481-0.83318 0.90582  0 164.28 145.97   36.98 164.32 146.06   36.84
  -5  -2   1 21562.3   395.2   1-0.03616-0.60238-0.80664 0.60779 0.58993-0.51743  0 472.93 113.45  166.60 473.03 113.68  166.50
  -5  -2   1 22349.5   206.5   2-0.02404-0.61380-0.97063 0.77163 0.23936-0.16687  0 448.70  95.33   96.33 448.96  95.44   96.36
  -5   2  -1 18239.0   339.9   1-0.58792-0.05063-0.79807 0.99695-0.13202 0.05946  0 433.73  85.69  112.44 433.89  85.94  112.47
  -5   2  -1 18855.6   209.1   2-0.22500-0.41250 0.67085-0.47191 0.70664-0.77920  0 443.48  91.83  337.54 443.43  92.01  337.58
  -5   2   1 14549.6   220.6   1-0.27467-0.36348 0.54478-0.34601-0.79232 0.86496  0 226.04  89.11   12.89 225.94  89.38   12.83
  -5   2   1 13479.9   241.0   1-0.61452-0.02403-0.76503 0.96390-0.19260 0.26516  0 383.18  65.96  108.12 383.28  66.21  108.23
  -5   2   1 22218.1   272.5   2-0.22583-0.41191 0.05623 0.14271 0.97254-0.89998  0 418.52  78.42   16.87 418.84  78.69   16.91
   5  -2  -1 21208.0   206.5   2 0.03359 0.60424-0.99580 0.79670-0.08514 0.01268  0 182.85 393.30  115.54 182.76 393.25  115.45
   5  -2  -1 21390.7   206.4   2 0.12936 0.50851-0.38787 0.18889-0.91259 0.84008  0 138.12 319.66  177.61 138.01 319.36  177.60
   5  -2   1 22143.6   338.8   1 0.04493 0.59360-0.75508 0.55623 0.65410-0.58159  0 189.68 399.62  172.91 189.46 399.50  173.13
  -5  -2  -2  1886.5   177.7   1-0.33070-0.30744 0.47914-0.67791-0.81306 0.66777  0 140.89 179.51   17.79 140.98 179.76   17.92
  -5  -2   2  1897.1   157.3   1-0.57617-0.06198 0.07827-0.27704-0.81357 0.95886  0 168.87 133.32   44.96 168.88 133.34   45.08
  -5  -2   2  1998.3   239.2   1 0.01805-0.65658-0.77318 0.57433 0.63393-0.48891  0 465.29  98.72  170.99 465.47  98.91  170.94
  -5  -2   2  2587.8   140.2   2-0.01593-0.62191-0.98042 0.78141 0.19629-0.05131  0 428.44  76.64   99.03 428.71  76.73   98.96
  -5   2  -2  2108.8   228.6   1-0.58648-0.05207-0.79964 0.99851-0.12891-0.01622  0 459.61  95.00  112.73 459.67  94.84  112.68
  -5   2  -2  2074.5   112.2   2-0.19498-0.44252 0.87386-0.67492 0.44536-0.59048  0 450.57  89.20  318.46 450.59  89.37  318.37
  -5   2   2  1805.1    87.2   1-0.46894-0.16921 0.28289-0.08412-0.83670 0.98198  0 250.12  71.92   31.74 249.94  72.15   31.76
  -5   2   2  2050.4   117.4   1-0.65113 0.01259-0.70118 0.90006-0.29046 0.43559  0 353.69  55.66  101.32 353.49  55.68  101.21
  -5   2   2  2556.8   168.6   2-0.20618-0.43156-0.18702 0.38596 0.96048-0.81535  0 404.46  66.54   30.93 404.71  66.77   30.95
   5  -2  -2  2396.9   113.7   2 0.03481 0.60302-0.99510 0.79600-0.09252-0.05238  0 194.89 410.36  115.97 194.79 410.30  115.88
   5  -2  -2  2637.6   110.7   2 0.11906 0.51880-0.07132-0.12766-0.99032 0.84531  0 129.32 302.51  196.58 129.34 302.52  196.39
   5  -2   2  2457.7   177.9   1-0.01859 0.65713-0.79634 0.59749 0.60456-0.45955  0 172.70 387.82  168.00 172.67 387.72  167.94
   5   2  -2  2480.5    81.9   2 0.10539 0.53238 0.11688 0.08217-0.98754 0.84251  0 173.54 389.03  207.00 173.35 388.69  207.17
   5   2  -2  2470.2    79.4   2-0.01957 0.65717 0.82946-0.63038-0.55823 0.41322  0 137.72 329.82  256.88 137.67 329.54  256.95
  -5  -2  -3 150.437  95.524   1-0.28252-0.35563 0.53600-0.73477-0.79554 0.57762  0 130.07 190.38   13.52 130.08 190.09   13.53
  -5  -2   3 -26.212  78.569   1-0.63141-0.00680-0.06315-0.13569-0.77287 0.99073  0 171.85 119.48   53.92 171.74 119.50   54.09
  -5  -2   3  55.387  94.324   2-0.01525-0.62259-0.98116 0.78215 0.19260 0.02487  0 410.99  58.77   99.22 411.10  58.64   99.18
  -5   2  -3  -7.153 160.239   1-0.58935-0.04920-0.79650 0.99537-0.13513-0.08257  0 487.49 103.19  112.05 487.35 103.17  112.25
  -5   2  -3 -12.844  67.603   2-0.16341-0.47409 0.96090-0.76196 0.22354-0.44120  0 452.73  78.47  304.98 453.13  78.62  304.49
  -5   2   3   1.389 112.172   2-0.18601-0.45173-0.35714 0.55608 0.91534-0.69765  0 390.20  52.64   41.52 390.54  52.54   41.10
   5  -2  -3  -6.638  66.199   2 0.03830 0.59953-0.99274 0.79365-0.11398-0.10338  0 206.29 428.27  116.83 206.03 428.17  117.15
   5  -2  -3   8.617  55.824   2 0.10168 0.53609 0.15895-0.35799-0.98204 0.76449  0 120.06 286.76  209.40 119.98 286.58  209.62
   5  -2   3  -1.788  89.920   1-0.06177 0.70030-0.82084 0.62199 0.56781-0.35029  0 155.94 376.59  164.41 155.78 376.82  164.40
   5   2  -3  58.308  55.744   2 0.12621 0.51165-0.22099 0.41997-0.96708 0.74956  0 188.83 414.04  187.76 188.77 414.10  187.68
   5   2  -3  55.484  47.799   2-0.04405 0.68164 0.89460-0.69552-0.44469 0.22719  0 123.73 306.08  264.74 123.71 306.15  264.58
  -5  -2  -4 615.045 134.051   1-0.24245-0.39570 0.57957-0.77834-0.77802 0.48745  0 117.78 200.14    9.96 117.53 200.26    9.99
  -5  -2   4 804.870 113.980   1-0.67307 0.03486-0.21100 0.01216-0.70884 0.99932  0 172.81 103.90   63.51 172.79 104.30   63.62
  -5  -2   4 849.292 132.536   2-0.01753-0.62031-0.97870 0.77969 0.20454 0.08542  0 394.55  39.62   98.49 394.79  39.68   98.45
  -5   2  -4  1002.6   100.2   2-0.13899-0.49860 0.98785-0.78878 0.06947-0.35948  0 452.53  61.02  295.53 452.83  61.22  295.40
  -5   2   4  1158.5   156.0   2-0.16906-0.46868-0.47142 0.67035 0.86556-0.57530  0 376.31  36.00   48.28 376.35  36.16   48.30
   5  -2  -4 992.669 111.641   2 0.04270 0.59513-0.98898 0.78988-0.14178-0.14803  0 217.06 447.62  118.71 216.87 447.68  118.77
   5  -2  -4  1354.8   123.0   2 0.08415 0.55362 0.31477-0.51381-0.94543 0.65537  0 109.64 271.12  218.88 109.64 271.08  218.85
   5  -2   4  1135.3   155.3   1-0.09036 0.72890-0.83527 0.63643 0.54236-0.25233  0 138.65 366.53  162.00 138.42 366.60  162.06
   5  -2   4  1086.0    38.8   2-0.11992 0.75776-0.71748 0.51847 0.68618-0.39622  0 146.74 380.92   65.97 146.71 380.67   66.08
   5  -2   4  1251.6    41.2   2-0.06543 0.70327-0.89256 0.69356 0.44615-0.15620  0 133.27 358.07   83.37 133.23 357.86   83.43
   5   2  -4  1017.2   124.7   2 0.12943 0.50843-0.40252 0.60150-0.90622 0.61619  0 201.63 437.35  176.68 201.41 437.13  176.68
   5   2  -4  1101.9   111.6   2-0.05265 0.69024 0.91384-0.71476-0.40265 0.11264  0 111.47 287.64  267.05 111.20 287.36  267.27
  -5  -2  -5 149.319 111.376   1-0.21028-0.42786 0.61225-0.81101-0.76219 0.39898  0 103.09 210.37    7.36 103.28 210.37    7.22
  -5  -2  -5 201.727  81.951   2 0.11549-0.75325-0.01228-0.18676-0.99323 0.63066  0 485.34  57.43  200.42 486.39  57.76  199.73
  -5  -2   5 205.846  99.129   1-0.69639 0.05817-0.35692 0.15809-0.62262 0.98571  0 172.13  87.21   73.46 172.04  87.33   73.42
  -5  -2   5 222.792 146.462   2-0.02131-0.61653-0.97420 0.77519 0.22470 0.13775  0 379.02  19.45   97.43 379.19  19.13   97.25
  -5   2  -5 254.394 104.256   2-0.12050-0.51710 0.99191-0.79283-0.03997-0.32254  0 451.13  38.90  289.04 451.08  38.94  289.01
  -5   2   5 307.782 157.721   2-0.15586-0.48198-0.54646 0.74547 0.82285-0.46041  0 361.91  17.86   53.51 362.08  17.71   53.33
   5  -2  -5 238.187 101.876   2 0.04762 0.59021-0.98380 0.78470-0.17281-0.18946  0 227.81 469.35  120.59 227.63 469.54  120.59
   5  -2  -5 212.557  84.201   2 0.06936 0.56841 0.41948-0.61852-0.90511 0.54253  0  98.30 255.37  225.63  97.95 255.62  225.35
   5  -2   5 151.540 120.075   1-0.10816 0.74670-0.84364 0.64479 0.52590-0.16337  0 119.91 356.82  160.59 120.13 356.86  160.59
   5  -2   5 262.047  48.420   2-0.18187 0.81961-0.38651 0.18758 0.90418-0.54135  0 152.11 408.65   43.42 152.82 409.10   42.90
   5  -2   5 294.756  47.542   2-0.05244 0.69028-0.92226 0.72325 0.38300-0.02055  0 113.01 340.58   88.00 113.04 341.23   87.50
   5   2  -5  35.004 154.354   1-0.17055 0.80870 0.65004-0.45127-0.74051 0.37730  0 462.00 473.47    3.99 461.87 473.71    3.84
   5   2  -5 238.936  98.064   2 0.12784 0.51002-0.50877 0.70776-0.85136 0.48883  0 213.56 461.10  169.33 212.98 461.04  169.79
   5   2  -5 327.764  84.279   2-0.05539 0.69298 0.91955-0.72047-0.38906 0.02655  0  98.56 269.76  268.41  98.20 270.02  268.13
  -5  -2  -6  4711.6   263.5   1-0.18551-0.45264 0.63616-0.83493-0.74892 0.31307  0  87.30 220.56    5.10  87.09 220.71    5.10
  -5  -2  -6  7108.1   220.1   2 0.09544-0.73321 0.21968-0.41872-0.97089 0.53580  0 480.53  24.69  213.10 480.63  24.91  213.17
  -5  -2   6  5338.5   223.6   1-0.69904 0.06083-0.49279 0.29395-0.51817 0.95388  0 169.59  67.75   83.19 169.43  68.00   83.25
  -5   2  -6  6464.7   251.3   2-0.10575-0.53184 0.98666-0.78758-0.12378-0.31123  0 449.50  11.66  283.99 449.50  12.10  284.13
   5  -2  -6  6475.1   270.0   2 0.05282 0.58501-0.97716 0.77806-0.20584-0.22888  0 238.59 494.71  122.59 238.45 494.51  122.54
   5  -2  -6  7852.2   258.1   2 0.05820 0.57957 0.49041-0.68945-0.86955 0.43445  0  84.85 239.83  230.02  84.56 239.84  229.93
   5  -2   6  6486.9   294.4   1-0.11773 0.75627-0.84798 0.64913 0.51678-0.08175  0 100.96 347.42  159.82 100.48 347.44  159.80
   5  -2   6  6245.3   154.4   2-0.20926 0.84700-0.15636-0.04258 0.96528-0.52989  0 154.41 434.59   29.21 154.39 434.43   29.16
   5  -2   6  7460.8   160.1   2-0.05349 0.69133-0.92003 0.72103 0.38817 0.04677  0  94.56 330.30   87.25  94.25 330.39   87.17
   5   2  -6  4255.3   318.5   1-0.21250 0.85065 0.61005-0.41128-0.76333 0.32748  2 466.10 499.34    7.48 466.18 499.49    7.41
   5   2  -6  6501.9   254.8   2 0.12552 0.51234-0.57402 0.77300-0.80917 0.37413  0 224.24 487.55  165.28 224.09 487.30  165.29
   5   2  -6  7139.8   236.8   2-0.05509 0.69269 0.91894-0.71987-0.39052-0.04449  0  84.10 253.37  267.98  83.94 253.14  268.04
  -5  -2  -7  1180.0   167.3   1-0.16739-0.47076 0.65293-0.85170-0.73869 0.23020  0  69.12 231.40    3.45  68.64 231.40    3.57
  -5  -2   7  1284.0   145.4   1-0.68163 0.04342-0.61177 0.41293-0.40140 0.90973  0 164.97  45.80   92.74 165.04  45.70   92.85
   5  -2  -7  1963.1   201.3   2 0.05006 0.58771 0.53791-0.73696-0.84151 0.33390  0  69.10 223.56  232.96  69.16 223.47  233.13
   5  -2   7  1838.9   215.9   1-0.12092 0.75946-0.84938 0.65053 0.51375-0.00621  0  79.51 337.95  159.39  79.06 338.15  159.53
   5  -2   7  1387.2   135.7   2-0.22255 0.86029 0.00565-0.20459 0.97490-0.46695  0 153.58 461.49   19.99 153.87 461.47   19.81
   5  -2   7  1871.7   128.8   2-0.05774 0.69558-0.91069 0.71168 0.40904 0.09839  0  74.27 321.21   85.95  74.02 321.33   85.83
   5   2  -7  1698.7   183.4   2-0.05296 0.69055 0.91450-0.71542-0.40112-0.10640  0  68.15 236.12  267.36  67.85 236.14  267.37
   5   2   7  1653.9    92.9   2-0.22157 0.85931-0.00930 0.20824 0.97510-0.46715  0  83.46 352.65   21.00  83.36 353.10   20.68
   5   2   7  1418.2    98.5   2-0.22617 0.86367 0.65628-0.45733 0.71982-0.21193  0 129.24 434.68  339.32 130.19 435.31  338.71
  -5  -2  -8  1611.5   204.8   1-0.15516-0.48299 0.66383-0.86260-0.73161 0.15047  0  47.42 242.65    2.57  47.42 242.74    2.55
  -5  -2   8  1801.8   222.1   1-0.64753 0.00898-0.70890 0.51003-0.27959 0.86011  0 158.75  19.41  101.95 158.71  19.46  102.00
   5  -2  -8  2322.9   227.7   2 0.04440 0.59337 0.56895-0.76799-0.82117 0.24105  0  51.13 206.24  234.81  51.16 206.15  235.28
   5  -2   8  2367.2   271.6   1-0.11895 0.75748-0.84852 0.64967 0.51563 0.06442  0  55.70 328.61  159.58  55.25 328.79  159.69
   5  -2   8  2021.9   182.3   2-0.22913 0.86687 0.11674-0.31568 0.96637-0.38585  0 151.19 491.73   13.46 151.19 491.65   13.42
   5  -2   8  2482.6   157.2   2-0.06347 0.70131-0.89734 0.69834 0.43675 0.14317  0  51.60 313.42   84.01  51.45 313.38   84.05
   5   2  -8  2465.3   216.8   2-0.04955 0.68714 0.90724-0.70816-0.41769-0.16232  0  49.13 218.70  266.24  49.32 218.51  266.33
   5   2   8  2222.7   128.6   2-0.20738 0.84512-0.17509 0.37403 0.96246-0.38194  0  57.76 339.94   30.35  57.40 340.10   30.25
   5   2   8  1751.9   146.5   2-0.22231 0.85981 0.70003-0.50109 0.67863-0.09818  0 129.74 470.32  335.42 130.12 470.33  335.25
  -5  -2  -9  9682.1   413.3   1-0.14828-0.48987 0.66991-0.86867-0.72749 0.07371  0  23.10 254.82    2.04  22.78 255.06    1.97
   5  -2  -9 15792.3   430.5   2 0.04071 0.59706 0.58800-0.78704-0.80784 0.15520  0  30.24 187.39  236.63  29.86 187.45  236.63
   5  -2   9 13470.6   462.3   1-0.11270 0.75123-0.84575 0.64690 0.52154 0.13101  0  28.54 319.10  160.00  28.27 319.14  160.21
   5  -2   9 15252.8   309.9   2-0.07009 0.70793-0.88084 0.68183 0.46819 0.18421  0  25.87 306.43   81.94  25.57 306.41   81.98
   5   2  -9 14795.5   414.2   2-0.04531 0.68291 0.89755-0.69847-0.43857-0.21395  0  27.74 200.00  264.89  27.55 199.81  264.98
   5   2   9 14354.6   268.1   2-0.19701 0.83475-0.26941 0.46834 0.94266-0.28958  0  30.15 331.15   35.80  29.81 330.96   35.80
  -5  -3   0 -81.088  88.176   1-0.49785-0.14029 0.23357-0.53173-0.83521 0.83521  0 138.59 168.18   35.22 138.50 168.49   35.03
  -5  -3   0  38.535  70.866   2 0.06172-0.69955-0.96225 0.66360-0.26507 0.26507  0 450.97  76.29  126.63 451.74  76.41  126.09
  -5   3   0 -48.218 105.114   1-0.67920 0.04099-0.62141 0.91967-0.39056 0.39056  0 405.92  55.68   93.58 405.83  56.10   93.69
   5  -3   0 101.192  73.908   1 0.03207 0.60647-0.76396 0.46569 0.64446-0.64446  0 208.97 430.54  171.93 208.90 430.68  172.08
   5  -3   0  93.775  56.412   2-0.04752 0.68536-0.93225 0.63374 0.35868-0.35868  0 189.08 415.35   88.91 188.97 415.29   89.04
   5  -3   0  -0.998  45.409   2 0.12614 0.51172-0.56124 0.26277-0.81798 0.81798  0 122.99 305.77  166.53 123.05 305.94  166.20
  -5  -3  -1  1387.1   166.9   1-0.44657-0.19157 0.31867-0.61682-0.83608 0.76343  0 132.01 179.63   29.26 132.14 179.69   29.34
  -5  -3  -1  1978.9   112.6   2 0.08030-0.71813-0.91457 0.61592-0.39639 0.32393  0 464.98  82.36  134.24 465.42  82.46  134.17
  -5  -3   1  1352.7   155.6   1-0.54976-0.08838 0.13498-0.43314-0.82434 0.89698  0 143.09 156.71   41.34 143.08 156.71   41.45
  -5  -3   1  2120.0   153.1   2 0.04782-0.68565-0.98358 0.68493-0.17405 0.24650  0 436.52  65.91  120.59 436.67  65.99  120.67
  -5   3  -1  1833.3   211.9   1-0.66557 0.02736-0.66560 0.96386-0.33762 0.26500  0 434.52  64.76   97.69 434.50  65.09   97.72
  -5   3  -1  1637.3   162.7   2-0.23326-0.40424 0.53766-0.23924 0.81026-0.88281  0 419.96  58.80  347.11 419.72  59.05  347.33
  -5   3   1  1366.7    99.0   1-0.17627-0.46188 0.64478-0.34663-0.74376 0.81640  0 232.84  69.49    4.35 232.66  69.71    4.32
  -5   3   1  1538.9   142.6   1-0.69583 0.05762-0.53019 0.82845-0.48448 0.55709  0 374.77  46.56   86.27 374.49  46.61   86.13
  -5   3   1  2209.4   187.3   2-0.22901-0.40873 0.11502 0.18339 0.96661-0.89404  0 400.79  52.43   13.45 401.06  52.59   13.52
   5  -3  -1  2280.7   127.7   2-0.02855 0.66639-0.96437 0.66586 0.26300-0.33549  0 197.44 424.33   95.02 197.37 424.19   94.94
   5  -3  -1  1993.9   114.1   2 0.12879 0.50908-0.33792 0.03944-0.93232 0.85982  0 119.91 295.73  180.84 119.62 295.56  180.68
   5  -3   1  2204.5   159.3   1-0.05362 0.69216-0.81647 0.51820 0.57489-0.50238  0 189.08 416.72  164.99 188.86 416.74  165.07
   5  -3   1  2248.0   106.8   2-0.07155 0.70939-0.87703 0.57852 0.47508-0.40259  0 181.80 410.62   81.41 181.62 410.47   81.52
   5  -3   1  2221.6    99.9   2 0.11080 0.52707-0.75876 0.46029-0.64187 0.71438  0 124.15 314.13  151.05 123.83 314.16  150.97
   5   3  -1  2246.3    82.1   2 0.05377 0.58400 0.51691-0.21834-0.85435 0.78184  0 166.37 394.09  231.72 166.34 393.89  231.70
   5   3  -1  1973.8    75.7   2-0.08725 0.72484 0.97045-0.67183-0.22498 0.15248  0 130.78 334.90  278.03 130.69 334.48  278.16
  -5  -3  -2  42.700  93.459   1-0.39835-0.23979 0.38979-0.68795-0.83029 0.68500  0 124.11 190.39   24.55 124.09 190.41   24.41
  -5  -3  -2 149.928  60.921   2 0.10436-0.74219-0.80531 0.50666-0.58360 0.43869  0 474.51  80.89  147.02 475.05  81.15  146.64
  -5  -3   2 183.863  95.854   1-0.59892-0.03923 0.02445-0.32261-0.80044 0.94572  0 145.96 144.08   48.44 145.92 144.13   48.51
  -5  -3   2 154.016  99.311   2 0.03659-0.67442-0.99396 0.69531-0.10350 0.24841  0 421.32  52.86  116.59 421.39  52.89  116.54
  -5   3  -2 124.295 158.028   1-0.65685 0.01830-0.68812 0.98643-0.30828 0.16315  0 463.48  73.23  100.13 463.37  73.07   99.90
  -5   3  -2 154.014 102.431   2-0.22060-0.41690 0.71615-0.41774 0.66216-0.80728  0 426.05  54.83  333.96 426.06  54.92  333.92
  -5   3   2 155.097  48.298   1-0.44715-0.19100 0.31777-0.01961-0.83611 0.98139  0 271.09  49.06   29.46 271.10  48.89   29.40
  -5   3   2  80.329  50.434   1-0.68377 0.04556-0.26470 0.56296-0.67999 0.82523  0 329.85  38.82   67.57 329.23  38.68   67.16
  -5   3   2 241.884 119.045   2-0.21675-0.42099-0.07080 0.36921 0.97366-0.82853  0 389.38  43.74   24.36 389.58  43.69   24.22
   5  -3  -2 145.361  76.383   2-0.01335 0.65118-0.98299 0.68434 0.18317-0.32808  0 206.76 436.24   99.46 206.44 436.32   99.73
   5  -3  -2 230.839  69.028   2 0.12212 0.51574-0.12680-0.17167-0.98438 0.83937  0 114.19 283.93  193.08 114.03 283.77  193.18
   5  -3   2 115.498  91.060   1-0.10811 0.74665-0.84362 0.54534 0.52595-0.38093  0 170.25 404.62  161.03 170.23 404.29  160.59
   5  -3   2 133.517  51.436   2-0.10136 0.73920-0.78680 0.48829 0.60882-0.46384  0 175.73 410.53   72.20 175.93 410.68   72.13
   5  -3   2 111.781  47.062   2 0.08596 0.55187-0.89469 0.59604-0.43833 0.58324  0 121.34 319.26  136.76 121.30 319.15  136.83
   5   3  -2 193.518  59.181   2 0.10001 0.53776 0.17637 0.12219-0.97923 0.83420  0 180.27 414.64  210.66 180.28 414.64  210.63
   5   3  -2 132.758  51.490   2-0.09487 0.73247 0.97829-0.67967-0.18426 0.03926  0 120.03 314.40  280.39 119.93 314.16  280.58
  -5  -3  -3 -54.938  92.162   1-0.35522-0.28292 0.44823-0.74639-0.82031 0.60238  0 113.91 200.49   20.50 114.30 200.92   20.21
  -5  -3  -3  34.718  68.389   2 0.12436-0.76223-0.59984 0.30136-0.79040 0.57288  0 478.05  70.31  163.80 478.58  70.47  163.47
  -5  -3   3 -42.782  93.243   1-0.64161 0.00340-0.09459-0.20367-0.76118 0.97903  0 147.16 131.02   56.34 146.95 130.51   56.10
  -5  -3   3  27.098 115.965   2 0.02680-0.66463-0.99868 0.70003-0.04383 0.26119  0 406.63  37.44  112.95 406.32  37.60  113.05
  -5   3  -3  44.222 183.455   1-0.65226 0.01372-0.69869 0.99700-0.29392 0.07622  0 493.40  81.10  101.07 493.77  80.67  100.96
  -5   3  -3   0.207 104.120   2-0.20206-0.43544 0.84233-0.54391 0.49966-0.71732  0 429.81  45.58  322.01 430.01  45.51  322.00
  -5   3   3  90.147 130.949   2-0.20274-0.43500-0.21942 0.51782 0.95433-0.73664  0 377.92  31.37   32.61 377.39  31.77   32.86
   5  -3  -3  25.021  83.321   2-0.00061 0.63844-0.99353 0.69488 0.11361-0.33097  0 216.15 451.01  103.47 215.79 451.29  103.86
   5  -3  -3  -1.647  62.139   2 0.11101 0.52675 0.05062-0.34919-0.99253 0.77498  0 106.74 270.77  203.60 106.56 271.13  203.34
   5  -3   3  40.081 103.615   1-0.14282 0.78136-0.85849 0.56022 0.49254-0.27502  0 151.94 393.41  157.59 151.92 392.98  157.71
   5  -3   3  11.438  50.358   2-0.13435 0.77219-0.65577 0.35726 0.74291-0.52544  0 171.58 416.53   61.42 172.00 416.64   61.20
   5  -3   3  -6.425  44.988   2 0.05987 0.57796-0.96567 0.66702-0.25280 0.47016  0 115.11 320.23  125.50 114.98 320.46  125.36
   5   3  -3  41.196  65.801   2 0.11878 0.51908-0.06577 0.36425-0.99074 0.77322  0 191.55 433.87  197.14 191.88 434.18  196.71
   5   3  -3  68.869  57.296   2-0.09501 0.73261 0.97842-0.67980-0.18349-0.03401  0 109.79 296.55  280.78 109.55 296.75  280.62
  -5  -3  -4 16047.8   398.2   1-0.31780-0.32035 0.49482-0.79298-0.80880 0.51823  0 102.84 211.29   16.96 102.69 211.33   16.73
  -5  -3  -4 20400.4   247.5   2 0.12891-0.76678-0.34319 0.04471-0.93038 0.64035  0 477.76  51.19  180.40 478.24  51.57  180.37
  -5  -3   4 16236.4   358.0   1-0.67446 0.03625-0.21736-0.08089-0.70559 0.99606  0 146.11 115.57   63.99 146.09 115.60   64.03
  -5  -3   4 22457.9   390.5   2 0.01782-0.65564-0.99980 0.70115 0.00959 0.28022  0 391.10  19.89  110.42 391.55  20.10  109.94
  -5   3  -4 19131.5   323.1   2-0.18155-0.45595 0.92035-0.62193 0.34642-0.63664  0 432.38  30.37  311.96 432.20  30.70  312.02
  -5   3   4 21943.1   422.0   2-0.18944-0.44830-0.33189 0.63029 0.92410-0.63384  0 364.59  16.75   39.51 364.67  16.96   39.56
   5  -3  -4 22125.8   363.4   2 0.01050 0.62733-0.99862 0.69997 0.05151-0.34132  0 225.60 469.34  107.61 225.48 469.17  107.50
   5  -3  -4 23737.8   366.8   2 0.09873 0.53904 0.18877-0.48733-0.97705 0.68698  0  97.67 257.68  211.31  97.39 257.62  211.36
   5  -3   4 21611.2   428.5   1-0.16407 0.80261-0.86655 0.56827 0.47136-0.18133  0 133.49 382.51  155.99 133.35 382.51  155.93
   5  -3   4 22465.6   261.6   2-0.16484 0.80268-0.49519 0.19668 0.85300-0.56304  0 169.65 428.38   49.86 169.59 428.18   49.88
   5  -3   4 22300.6   257.3   2 0.03672 0.60110-0.99386 0.69522-0.10433 0.39414  0 105.59 318.75  116.50 105.11 318.59  116.59
   5   3  -4 22086.7   331.1   2 0.12647 0.51140-0.23498 0.53346-0.96374 0.67371  0 203.27 455.67  186.85 202.86 455.14  186.86
   5   3  -4 21259.0   319.3   2-0.09235 0.72995 0.97588-0.67726-0.19782-0.09218  0  98.77 280.67  279.80  98.40 280.37  279.77
  -5  -3  -5  1100.3   156.1   1-0.28662-0.35153 0.53136-0.82951-0.79719 0.43398  0  89.42 221.99   14.01  89.14 221.87   13.90
  -5  -3  -5  1431.4   176.8   2 0.12145-0.75931-0.11271-0.18577-0.98618 0.62365  0 476.25  27.08  194.28 476.95  27.19  194.01
  -5  -3   5  1152.9   151.3   1-0.69459 0.05638-0.33909 0.04083-0.63448 0.99757  0 143.44  99.03   71.77 143.33  98.99   72.19
  -5   3  -5  1202.6   161.7   2-0.16170-0.47580 0.96367-0.66525 0.21259-0.57538  2 433.13  10.51  304.04 433.43  10.62  303.82
   5  -3  -5  1411.5   157.7   2 0.02030 0.61753-0.99978 0.70113-0.00579-0.35648  0 235.56 490.25  110.74 235.42 490.28  110.84
   5  -3  -5  1628.6   161.7   2 0.08699 0.55078 0.29191-0.59047-0.95248 0.58991  0  86.48 243.46  217.52  86.38 243.54  217.47
   5  -3   5  1363.1   181.7   1-0.17575 0.81429-0.87055 0.57228 0.45962-0.09709  0 113.98 372.70  154.84 113.95 372.69  154.95
   5  -3   5  1549.5   127.6   2-0.18934 0.82708-0.33261 0.03420 0.92386-0.56104  0 168.04 444.46   39.43 167.61 444.21   39.60
   5  -3   5  1566.4   113.5   2 0.01768 0.62015-0.99979 0.70114 0.01040 0.35187  0  92.46 314.68  109.89  92.15 314.64  109.90
   5   3  -5  1519.8   179.5   2 0.12900 0.50887-0.35112 0.64960-0.92740 0.56487  0 214.02 478.40  179.67 213.47 478.34  179.88
   5   3  -5  1630.0   151.2   2-0.08821 0.72581 0.97155-0.67293-0.21980-0.14271  0  86.14 264.49  278.39  85.96 264.36  278.47
  -5  -3  -6  3047.1   246.2   1-0.26156-0.37658 0.55924-0.85739-0.78666 0.35081  0  73.69 232.51   11.85  73.42 232.69   11.67
  -5  -3   6  3491.6   230.1   1-0.70032 0.06211-0.45508 0.15683-0.54996 0.98567  0 138.78  80.31   80.30 138.59  80.13   80.42
   5  -3  -6  4948.0   238.4   2 0.07710 0.56067 0.36773-0.66629-0.92673 0.49164  0  73.53 228.66  222.00  73.34 228.63  222.11
   5  -3   6  4352.2   276.7   1-0.18023 0.81876-0.87206 0.57378 0.45501-0.01997  0  93.50 363.31  154.53  93.24 363.32  154.57
   5  -3   6  4429.0   180.2   2-0.20612 0.84386-0.18757-0.11083 0.96038-0.52499  0 165.58 464.90   31.01 165.48 464.71   30.98
   5  -3   6  4501.5   167.9   2 0.00140 0.63643-0.99474 0.69609 0.10244 0.33228  0  76.59 309.66  104.50  76.37 309.62  104.51
   5   3  -6  4562.5   257.8   2 0.12917 0.50869-0.43032 0.72880-0.89339 0.45835  2 224.33 504.66  175.00 223.95 504.78  174.92
   5   3  -6  4096.5   210.7   2-0.08323 0.72082 0.96559-0.66697-0.24641-0.18860  0  72.04 248.44  276.80  71.82 248.29  276.88
   5   3   6  3614.1   113.1   2-0.20388 0.84137 0.83308-0.53467 0.51421-0.07887  0 131.03 428.55  323.11 131.42 428.38  323.00
  -5  -3  -7 389.179 155.370   1-0.24229-0.39586 0.57974-0.87789-0.77795 0.26945  0  55.30 244.04   10.03  55.19 244.04    9.98
  -5  -3   7 477.685 147.179   1-0.69183 0.05362-0.56052 0.26227-0.45517 0.96350  0 131.91  58.69   88.45 131.74  58.31   88.56
   5  -3  -7 750.871 147.932   2 0.06899 0.56878 0.42216-0.72073-0.90389 0.39628  0  57.92 212.85  225.53  57.89 212.78  225.52
   5  -3   7 750.581 176.582   1-0.17912 0.81765-0.87169 0.57341 0.45616 0.05138  0  71.03 354.12  154.80  70.67 354.21  154.67
   5  -3   7 656.157 118.436   2-0.21690 0.85464-0.06900-0.22941 0.97375-0.46580  0 162.72 489.62   23.98 162.51 489.34   24.12
   5  -3   7 847.077 107.001   2-0.01261 0.65044-0.98374 0.68509 0.17918 0.32799  0  57.83 304.17   99.94  57.66 304.14   99.97
   5   3  -7 727.527 135.298   2-0.07762 0.71521 0.95804-0.65942-0.27592-0.23159  0  55.54 232.07  275.30  55.51 231.78  275.10
   5   3   7 566.448  73.792   2-0.22842 0.86616 0.10329 0.19511 0.96807-0.46011  0  66.49 342.93   14.34  66.48 343.18   14.20
   5   3   7 642.926  90.843   2-0.20226 0.83976 0.84133-0.54291 0.50126 0.00664  0 131.93 459.03  321.87 131.43 458.66  322.11
  -5  -3  -8 -78.162 127.908   1-0.22838-0.40977 0.59398-0.89213-0.77139 0.19025  0  34.89 256.08    8.44  33.95 256.20    8.78
  -5  -3   8 -95.710 141.173   1-0.66992 0.03171-0.65286 0.35460-0.35353 0.93448  0 122.78  32.85   96.45 122.79  32.76   96.52
   5  -3  -8 -88.638 131.517   2 0.06307 0.57470 0.46078-0.75934-0.88527 0.30515  0  39.42 195.65  227.48  39.54 195.66  228.00
   5  -3   8 219.534 170.944   1-0.17351 0.81205-0.86978 0.57151 0.46192 0.11813  0  45.20 345.39  155.66  45.55 345.19  155.14
   5  -3   8 -13.098  86.945   2-0.02549 0.66333-0.96869 0.67018 0.24697 0.33295  0  36.01 298.18   96.05  35.72 298.58   95.91
   5   3  -8 250.709 134.676   2-0.07151 0.70911 0.94889-0.65027-0.30740-0.27261  0  35.78 214.51  273.44  36.43 214.39  273.19
   5   3   8  44.652  70.958   2-0.21989 0.85763-0.03152 0.32992 0.97502-0.39450  0  42.18 333.75   22.42  42.14 334.74   21.96
   5   3   8 -60.943 101.168   2-0.20351 0.84101 0.83499-0.53658 0.51124 0.06921  0 128.81 490.72  322.45 128.01 490.62  322.79
  -5  -4   0  2608.1   202.0   1-0.53964-0.09850 0.15530-0.55284-0.82744 0.82744  0 116.07 178.37   40.01 115.87 178.48   40.13
  -5  -4   0  3183.6   194.9   2 0.09417-0.73200-0.86077 0.46258-0.50020 0.50020  0 437.08  38.46  140.91 437.36  38.48  140.89
  -5   4   0  2578.2   205.8   1-0.69992 0.06171-0.41231 0.80999-0.58319 0.58319  0 410.00  29.55   77.15 410.16  29.83   77.32
   5  -4   0  3253.8   166.8   1-0.07120 0.70973-0.82577 0.42808 0.55949-0.55949  0 205.73 451.96  163.55 205.63 451.94  163.63
   5  -4   0  3516.4   172.1   2-0.08358 0.72142-0.84404 0.44603 0.52973-0.52973  0 202.59 450.28   77.80 202.45 449.98   77.81
   5  -4   0  3188.7   150.6   2 0.12793 0.50993-0.50511 0.10714-0.85352 0.85352  0 102.48 282.92  169.96 102.21 282.65  170.04
   5   4   0  3539.7   124.2   2 0.02259 0.61518 0.67374-0.27565-0.73863 0.73863  0 166.13 418.95  243.04 166.15 418.70  243.04
   5   4   0  2739.5   106.8   2-0.16011 0.79761 0.96617-0.56829 0.20217-0.20217  0 111.38 325.89  303.29 111.23 325.77  303.20
  -5  -4  -1  6312.7   281.2   1-0.49767-0.14048 0.23390-0.63144-0.83523 0.76259  0 110.77 189.84   34.97 110.69 189.84   35.01
  -5  -4  -1  7404.3   217.0   2 0.10838-0.74621-0.77738 0.37918-0.61962 0.54717  0 447.14  40.29  149.25 447.64  40.31  149.26
  -5  -4   1  6013.9   257.3   1-0.58111-0.05703 0.06703-0.46457-0.81106 0.88370  0 119.43 166.60   45.93 119.24 166.57   45.80
  -5  -4   1  8265.7   255.6   2 0.07986-0.71769-0.91598 0.51779-0.39318 0.46564  0 425.16  32.04  133.97 425.57  32.09  133.97
  -5   4  -1  5911.8   277.2   1-0.69874 0.06053-0.49764 0.89532-0.51392 0.44130  0 442.61  37.88   83.60 442.60  38.23   83.62
  -5   4  -1  6806.6   265.8   2-0.23493-0.40254 0.49270-0.09499 0.83789-0.91046  0 400.12  25.46  350.28 400.47  25.85  350.28
  -5   4   1  5828.9   184.8   1-0.68102 0.04280-0.24964 0.64731-0.68840 0.76102  0 373.57  21.04   66.26 373.15  21.25   66.16
  -5   4   1  6852.2   290.7   2-0.23150-0.40624 0.17092 0.22695 0.95770-0.88514  0 383.87  22.24   10.11 384.05  22.66   10.26
   5  -4  -1  8611.0   233.1   2-0.06334 0.70118-0.89764 0.49963 0.43615-0.50864  0 209.73 456.78   84.08 209.61 456.61   84.09
   5  -4  -1  8450.8   218.8   2 0.12888 0.50898-0.34051-0.05746-0.93136 0.85886  0 100.57 274.85  180.62 100.25 274.59  180.53
   5  -4   1  8052.1   242.1   1-0.14348 0.78201-0.85875 0.46105 0.49189-0.41939  0 183.52 436.86  157.61 183.36 436.82  157.65
   5  -4   1  8115.5   209.9   2-0.10568 0.74352-0.77187 0.37385 0.62694-0.55445  0 196.36 447.57   70.72 196.17 447.31   70.76
   5  -4   1  8085.6   199.7   2 0.12066 0.51720-0.65868 0.26071-0.74268 0.81519  0 102.01 289.10  159.01 101.65 288.82  159.13
   5   4  -1  9161.6   188.3   2 0.06454 0.57323 0.45097-0.05289-0.89020 0.81769  0 176.06 430.62  227.23 175.89 430.22  227.36
   5   4  -1  7094.5   165.5   2-0.14937 0.78696 0.97971-0.58155 0.13361-0.20612  0 106.51 312.88  299.18 106.17 312.64  299.17
   5   4   1  8568.8   143.0   2-0.02889 0.66649 0.85634-0.45819-0.51560 0.58810  0 156.69 410.75  260.07 156.93 410.65  259.89
   5   4   1  6750.6   126.7   2-0.17338 0.81087 0.94113-0.54325 0.29020-0.21764  0 113.96 337.54  308.64 113.79 337.40  308.52
  -5  -4  -2  2831.1   219.0   1-0.45710-0.18105 0.30199-0.69952-0.83658 0.69130  0 103.76 200.80   30.43 103.61 200.86   30.47
  -5  -4  -2  3300.2   191.6   2 0.12060-0.75846-0.65953 0.26156-0.74194 0.59693  0 455.52  36.75  159.06 455.76  37.09  159.07
  -5  -4   2  2577.6   214.4   1-0.61960-0.01861-0.02956-0.36811-0.78436 0.92959  0 120.81 153.89   52.11 120.71 153.91   51.96
  -5  -4   2  3585.6   235.8   2 0.06667-0.70450-0.95191 0.55372-0.29902 0.44393  0 412.47  22.05  128.15 412.95  21.97  128.14
  -5   4  -2  2720.2   285.6   1-0.69379 0.05557-0.54703 0.94470-0.46842 0.32318  0 474.66  45.71   87.44 474.58  45.90   87.47
  -5   4  -2  2976.0   243.5   2-0.22757-0.40993 0.63935-0.24147 0.73446-0.87958  0 406.33  20.69  340.04 406.34  20.84  340.02
  -5   4   2  3612.9   271.8   2-0.22379-0.41395 0.02238 0.37549 0.97438-0.82925  0 374.01  15.28   18.73 374.08  15.48   18.84
   5  -4  -2  3882.6   197.5   2-0.04546 0.68330-0.93626 0.53824 0.34837-0.49335  0 217.74 466.88   89.66 217.43 466.76   89.68
   5  -4  -2  3932.3   174.2   2 0.12475 0.51311-0.18118-0.21679-0.97551 0.83049  0  96.21 265.17  189.97  95.98 265.02  190.02
   5  -4   2  3291.5   207.7   1-0.18671 0.82524-0.87430 0.47660 0.44804-0.30303  0 163.28 423.58  154.13 163.14 423.60  154.01
   5  -4   2  3586.0   166.5   2-0.12888 0.76672-0.68019 0.28218 0.72161-0.57663  0 191.04 449.05   62.99 190.78 448.82   63.08
   5  -4   2  3286.3   145.3   2 0.10715 0.53068-0.78617 0.38797-0.60865 0.75356  0  98.71 293.03  148.43  98.41 292.87  148.45
   5   4  -2  3684.8   163.6   2 0.09386 0.54391 0.23336 0.16472-0.96785 0.82282  0 186.00 444.94  213.92 185.85 444.56  213.98
   5   4  -2  3105.1   142.4   2-0.13992 0.77752 0.98733-0.58917 0.07487-0.21988  0  99.69 299.15  295.83  99.37 299.03  295.72
   5   4   2  3466.3    96.1   2-0.07921 0.71680 0.96028-0.56212-0.26756 0.41257  0 148.81 407.81  275.86 149.02 407.80  275.60
   5   4   2  2849.9    89.8   2-0.19049 0.82799 0.89112-0.49324 0.41184-0.26673  0 112.90 345.70  316.36 112.81 345.78  316.18
  -5  -4  -3 814.125 156.348   1-0.41942-0.21872 0.35953-0.75707-0.83356 0.61563  0  94.59 211.76   26.47  94.64 211.70   26.53
  -5  -4  -3 898.380 130.255   2 0.12782-0.76569-0.50935 0.11138-0.85102 0.63350  0 460.71  27.52  170.14 461.55  27.39  169.75
  -5  -4   3 740.815 138.181   1-0.65279 0.01458-0.13168-0.26599-0.74601 0.96386  0 120.42 140.27   58.26 120.30 140.27   58.48
  -5  -4   3 882.031 172.685   2 0.05448-0.69231-0.97475 0.57655-0.21657 0.43393  2 399.21   9.20  123.42 399.85   8.65  123.18
  -5   4  -3 851.459 165.449   2-0.21554-0.42196 0.75957-0.36168 0.61368-0.83135  0 410.66  11.15  330.28 410.95  11.14  330.17
   5  -4  -3 860.002 128.432   2-0.02946 0.66730-0.96303 0.56502 0.26777-0.48524  0 226.01 480.35   94.57 225.85 480.45   94.65
   5  -4  -3 982.870 115.111   2 0.11710 0.52076-0.03954-0.35843-0.99233 0.77481  0  89.86 254.06  198.26  89.57 254.17  198.22
   5  -4   3 838.250 143.249   1-0.21246 0.85099-0.88201 0.48431 0.42062-0.20310  0 143.42 411.93  151.73 143.56 411.74  151.82
   5  -4   3 836.284 104.675   2-0.15129 0.78913-0.57113 0.17312 0.80679-0.58933  0 186.50 454.69   54.98 186.32 454.76   55.04
   5  -4   3 708.774  87.902   2 0.08965 0.54817-0.88013 0.48193-0.46619 0.68356  0  92.48 294.48  138.97  92.19 294.82  138.64
   5   4  -3  1059.4   119.8   2 0.11116 0.52661 0.04885 0.34924-0.99260 0.77506  0 195.56 461.68  203.28 195.58 461.41  203.24
   5   4  -3 671.204  94.109   2-0.13103 0.76862 0.99112-0.59297 0.02252-0.24003  0  90.90 285.21  292.62  90.93 285.01  292.65
   5   4   3 710.694  74.759   2-0.11585 0.75344 0.99102-0.59286-0.06682 0.28433  0 143.46 412.30  287.79 143.80 412.53  287.45
   5   4   3 636.714  68.999   2-0.21041 0.84791 0.79523-0.39735 0.56862-0.35096  0 106.98 348.94  326.93 107.02 348.87  326.85
  -5  -4  -4 724.823 153.338   1-0.38580-0.25235 0.40724-0.80477-0.82784 0.53727  0  83.25 222.55   23.29  83.69 222.53   23.17
  -5  -4  -4  1198.5   147.9   2 0.12893-0.76680-0.34496-0.05301-0.92972 0.63970  0 464.97  11.41  180.46 465.49  11.49  180.26
  -5  -4   4 824.682 145.235   1-0.67843 0.04021-0.23636-0.16131-0.69561 0.98608  0 118.10 125.19   65.16 117.91 125.33   65.29
   5  -4  -4  1378.3   162.5   2-0.01535 0.65319-0.98105 0.58303 0.19317-0.48313  0 235.08 497.63   98.96 234.77 497.69   99.14
   5  -4  -4  1511.4   167.3   2 0.10867 0.52910 0.08044-0.47853-0.99082 0.70076  0  81.29 242.21  205.23  81.00 242.17  205.06
   5  -4   4  1102.9   165.0   1-0.22667 0.86521-0.88572 0.48802 0.40512-0.11510  0 124.15 400.81  150.53 123.81 400.95  150.59
   5  -4   4  1092.7   118.3   2-0.17195 0.80969-0.45358 0.05570 0.87447-0.58421  0 182.61 465.21   47.00 182.35 465.00   47.15
   5  -4   4  1226.5   121.2   2 0.07086 0.56697-0.94156 0.54337-0.32930 0.61911  0  83.26 294.84  130.02  83.00 294.75  130.00
   5   4  -4  1137.1   134.4   2 0.12059 0.51727-0.09739 0.49536-0.98791 0.69789  0 205.65 481.02  194.57 205.05 480.84  194.89
   5   4  -4  1128.3   138.3   2-0.12262 0.76022 0.99209-0.59393-0.02674-0.26327  0  80.72 270.96  289.70  80.76 270.73  289.78
   5   4   4 920.736  89.486   2-0.13869 0.77628 0.98802-0.58986 0.06765 0.22236  0 140.55 424.50  295.52 140.84 424.52  295.29
   5   4   4 943.551  81.932   2-0.22673 0.86423 0.64913-0.25125 0.72610-0.43588  0  96.38 346.94  339.35  96.33 346.95  339.26
  -5  -4  -5  83.240 129.372   1-0.35695-0.28120 0.44600-0.84354-0.82077 0.45757  0  70.56 233.67   20.46  70.58 233.59   20.38
  -5  -4   5 192.335 132.793   1-0.69473 0.05651-0.34034-0.05734-0.63366 0.99675  0 113.89 109.21   71.91 113.50 108.72   72.28
   5  -4  -5 201.605 104.432   2 0.09996 0.53781 0.17690-0.57499-0.97914 0.61656  0  69.84 229.25  210.39  70.39 229.02  210.66
   5  -4   5 274.252 159.645   1-0.23272 0.87126-0.88721 0.48951 0.39838-0.03585  0 103.11 390.65  149.92 103.21 390.99  150.07
   5  -4   5 138.129 100.161   2-0.18879 0.82653-0.33692-0.06096 0.92241-0.55959  0 179.03 479.58   39.81 178.65 479.96   39.86
   5  -4   5  89.267  74.358   2 0.05278 0.58505-0.97721 0.57902-0.20559 0.56785  0  70.98 292.82  122.64  70.79 293.04  122.53
   5   4  -5 184.190 127.189   2 0.12581 0.51205-0.20965 0.60762-0.96965 0.60712  2 214.45 503.09  188.48 214.69 503.80  188.35
   5   4  -5  49.079  92.167   2-0.11458 0.75217 0.99065-0.59249-0.07408-0.28843  0  68.99 256.03  287.96  68.71 256.08  287.02
   5   4   5  96.407  64.573   2-0.15375 0.79125 0.97498-0.57709 0.16057 0.20221  0 138.39 441.80  300.94 138.71 442.01  300.72
   5   4   5 138.947  56.345   2-0.23529 0.87276 0.48275-0.08504 0.84356-0.48069  0  82.14 342.98  350.73  82.02 342.60  350.94
  -5  -4  -6  4839.3   301.6   1-0.33282-0.30533 0.47652-0.87406-0.81373 0.37788  0  54.96 245.12   18.21  55.06 245.10   18.11
  -5  -4   6  5231.7   291.3   1-0.70044 0.06223-0.44067 0.04300-0.56142 0.99714  0 107.27  89.84   79.31 106.87  89.84   79.36
   5  -4  -6  7396.3   298.0   2 0.09172 0.54605 0.25213-0.65022-0.96334 0.52824  0  57.63 214.82  215.18  57.34 214.82  215.09
   5  -4   6  5364.2   334.1   1-0.23270 0.87123-0.88720 0.48950 0.39841 0.03663  0  81.56 381.57  149.96  81.23 381.64  150.07
   5  -4   6  5429.3   233.9   2-0.20165 0.83939-0.22950-0.16837 0.95219-0.51680  0 174.85 499.86   33.34 174.71 499.58   33.45
   5  -4   6  6612.1   220.2   2 0.03527 0.60256-0.99482 0.59662-0.09534 0.53006  0  55.93 290.24  115.99  55.54 290.15  116.05
   5   4  -6  5684.1   247.0   2-0.10650 0.74409 0.98709-0.58894-0.11961-0.31541  0  54.77 241.04  284.22  54.52 240.81  284.38
   5   4   6  5546.3   179.0   2-0.16448 0.80198 0.95905-0.56116 0.23058 0.20475  0 135.62 464.22  305.01 135.86 463.85  304.91
  -5  -4  -7  1155.6   196.8   1-0.31358-0.32456 0.49988-0.89741-0.80734 0.29884  0  36.52 257.05   16.34  36.70 257.31   16.34
  -5  -4   7  1330.2   187.3   1-0.69537 0.05716-0.53426 0.13659-0.48065 0.98898  0  97.90  67.89   86.34  97.92  68.05   86.45
   5  -4  -7  1977.5   231.1   2 0.08478 0.55299 0.30982-0.70791-0.94701 0.43940  0  41.64 199.20  218.70  41.55 199.26  218.55
   5  -4   7  1535.9   230.2   1-0.22793 0.86646-0.88603 0.48833 0.40374 0.10380  0  57.40 372.82  150.39  57.23 372.71  150.48
   5  -4   7  1585.1   166.1   2 0.01913 0.61870-0.99982 0.60162 0.00193 0.50524  0  37.39 286.48  110.31  36.96 286.54  110.39
   5   4  -7  1642.1   176.5   2-0.09844 0.73603 0.98152-0.58337-0.16408-0.34343  0  37.77 224.77  281.65  37.73 224.75  281.77
   5   4   7  1482.8   136.1   2-0.23225 0.86999 0.18827 0.20960 0.95426-0.44631  0  44.43 331.64    9.43  44.18 331.93    9.25
   5   4   7  1212.9   125.6   2-0.17348 0.81098 0.94104-0.54316 0.29042 0.21747  0 131.66 489.81  308.52 131.45 489.79  308.55
  -5  -5   0  21.951 125.714   1-0.57520-0.06295 0.08045-0.57737-0.81405 0.81405  0  89.90 188.20   44.99  89.68 188.14   44.94
   5  -5   0 -56.213  93.605   1-0.16098 0.79951-0.86542 0.36830 0.47448-0.47448  0 196.84 477.16  155.90 197.08 477.44  156.19
   5  -5   0-140.094 105.956   2-0.10120 0.73904-0.78737 0.28985 0.60812-0.60812  0 213.56 488.55   72.54 214.07 488.45   72.18
   5  -5   0  19.734  84.333   2 0.12812 0.50974-0.49339-0.00407-0.86032 0.86032  0  79.00 261.74  170.35  79.31 261.29  170.82
   5   5   0  26.184  82.776   2 0.03605 0.60172 0.61130-0.11369-0.79058 0.79058  0 173.36 459.46  238.16 173.38 459.31  238.31
   5   5   0 -22.659  67.535   2-0.18839 0.82589 0.89872-0.40136 0.39600-0.39600  0  83.59 305.58  314.91  83.71 305.20  315.15
  -5  -5  -1  7273.7   310.3   1-0.54115-0.09700 0.15231-0.64924-0.82702 0.75438  0  85.43 199.87   40.21  85.35 199.89   40.33
  -5  -5   1  7540.3   322.9   1-0.60813-0.03008 0.00126-0.49835-0.79384 0.86645  0  92.19 175.92   49.79  91.98 175.87   50.00
   5  -5  -1  9838.4   202.6   1-0.05332 0.69186-0.81631 0.31919 0.57515-0.64765  0 227.87 497.79  165.08 227.67 497.58  165.09
   5  -5  -1  9710.6   290.7   2-0.08293 0.72077-0.84597 0.34846 0.52674-0.59923  0 220.98 494.34   77.99 220.74 494.06   78.02
   5  -5  -1  9893.7   271.1   2 0.12910 0.50876-0.36292-0.13454-0.92283 0.85033  0  78.41 254.45  179.07  78.05 254.25  179.16
   5  -5   1  8863.6   269.7   1-0.21802 0.85655-0.88350 0.38638 0.41460-0.34209  0 173.13 460.95  151.19 172.98 460.90  151.34
   5  -5   1  9324.6   272.0   2-0.12009 0.75793-0.71679 0.21927 0.68688-0.61439  0 208.01 486.97   66.07 207.99 486.67   66.03
   5  -5   1  9715.3   255.2   2 0.12334 0.51453-0.61798 0.12052-0.77646 0.84896  0  78.48 266.92  162.07  78.11 266.73  162.16
   5   5  -1 10339.3   247.4   2 0.06467 0.57309 0.45011 0.04750-0.89063 0.81811  0 181.61 468.27  227.12 181.36 467.78  227.31
   5   5  -1  7911.0   210.6   2-0.17643 0.81393 0.93400-0.43664 0.31068-0.38323  0  80.96 295.35  309.96  80.77 295.39  309.79
   5   5   1 10183.8   220.5   2 0.00275 0.63485 0.75461-0.25691-0.65617 0.72867  0 165.84 455.04  249.85 165.98 454.75  249.78
   5   5   1  7530.8   187.8   2-0.20080 0.83830 0.84849-0.35113 0.48964-0.41709  0  84.10 313.43  321.38  84.01 313.34  321.33
  -5  -5  -2  1958.2   217.5   1-0.50759-0.13056 0.21623-0.71316-0.83402 0.68874  0  78.84 211.25   36.21  79.02 211.33   36.17
  -5  -5   2  1786.9   214.5   1-0.63819-0.00003-0.08371-0.41339-0.76532 0.91056  0  92.22 162.89   55.33  92.36 162.94   55.41
  -5   5  -2  1697.1   240.4   1-0.69901 0.06080-0.39262 0.88972-0.59769 0.45245  2 493.97  10.74   76.03 494.12  10.43   75.92
   5  -5  -2  2581.4   225.8   2-0.06541 0.70325-0.89260 0.39509 0.44608-0.59106  2 228.36 503.44   83.31 228.13 503.60   83.44
   5  -5  -2  2524.5   186.3   2 0.12649 0.51137-0.23575-0.26172-0.96355 0.81854  0  74.71 245.86  186.88  74.41 245.79  186.82
   5  -5   2  2145.3   218.8   1-0.25045 0.88900-0.89084 0.39366 0.37904-0.23391  0 151.44 446.54  148.46 151.45 446.51  148.56
   5  -5   2  2467.9   203.5   2-0.13874 0.77658-0.63522 0.13771 0.75977-0.61479  0 202.57 489.12   59.59 202.44 488.91   59.66
   5  -5   2  2459.0   164.1   2 0.11424 0.52362-0.72905 0.23159-0.67486 0.81987  0  74.54 270.77  153.45  74.29 270.53  153.52
   5   5  -2  2502.8   186.3   2 0.08738 0.55039 0.28878 0.20882-0.95340 0.80837  0 189.76 480.32  217.24 189.83 479.99  217.28
   5   5  -2  2269.9   157.0   2-0.16499 0.80249 0.95815-0.46079 0.23395-0.37906  0  75.53 284.47  304.98  75.49 284.32  305.11
   5   5   2  2488.0   148.0   2-0.03224 0.66984 0.86538-0.36768-0.50008 0.64508  0 158.90 454.66  261.10 159.13 454.61  260.94
   5   5   2  1974.8   124.5   2-0.21278 0.85028 0.77911-0.28175 0.58967-0.44456  0  81.44 319.34  328.44  81.31 319.37  328.38
  -5  -5  -3 236.650 141.400   1-0.47568-0.16247 0.27175-0.76867-0.83659 0.61867  0  71.07 222.84   32.41  70.62 222.72   32.51
  -5  -5   3 183.013 141.386   1-0.66386 0.02565-0.17257-0.32452-0.72767 0.94553  0  90.66 149.06   61.11  90.65 149.03   61.12
   5  -5  -3 206.658 104.326   2 0.12174 0.51612-0.11822-0.37924-0.98550 0.76798  0  68.24 236.25  193.39  68.50 235.93  193.69
   5  -5   3 262.009 144.693   1-0.26844 0.90698-0.89417 0.39699 0.35832-0.14063  0 130.53 433.70  146.61 130.61 434.00  146.98
   5  -5   3 134.408 116.469   2-0.15608 0.79392-0.54525 0.04773 0.82362-0.60615  0 196.98 495.51   53.49 197.45 495.37   53.25
   5  -5   3 102.671  84.704   2 0.10190 0.53593-0.82023 0.32249-0.56288 0.78024  0  68.10 272.29  145.39  67.87 272.68  145.17
   5   5  -3  98.079 115.602   2 0.10330 0.53447 0.14229 0.35532-0.98442 0.76687  0 198.39 495.50  208.63 198.43 495.70  208.65
   5   5  -3 150.082  87.203   2-0.15427 0.79177 0.97434-0.47698 0.16389-0.38156  0  67.66 272.64  300.56  68.00 272.31  300.92
   5   5   3 129.201  77.753   2-0.06474 0.70234 0.93734-0.43964-0.34235 0.55985  0 152.34 459.04  271.49 153.04 459.31  271.05
   5   5   3 119.070  68.664   2-0.22331 0.86080 0.68961-0.19225 0.68890-0.47123  0  75.46 322.40  336.53  75.34 323.07  336.09
  -5  -5  -4  7261.9   332.9   1-0.44639-0.19176 0.31896-0.81588-0.83607 0.54550  0  59.97 234.16   29.27  60.01 234.21   29.32
  -5  -5   4  7810.3   340.6   1-0.68353 0.04532-0.26334-0.23375-0.68076 0.97124  0  87.13 133.79   67.15  86.86 133.81   67.07
   5  -5  -4 11129.5   325.8   2 0.11567 0.52210-0.01487-0.48274-0.99318 0.70312  0  60.44 224.79  199.77  60.16 224.84  199.59
   5  -5   4  8298.5   334.9   1-0.27684 0.91539-0.89554 0.39836 0.34837-0.05811  0 109.83 422.83  146.00 109.54 422.79  146.22
   5  -5   4  9455.1   259.2   2 0.08708 0.55075-0.89043 0.39268-0.44672 0.73653  0  58.83 273.50  137.23  58.48 273.35  137.38
   5   5  -4  8317.4   262.7   2-0.14401 0.78160 0.98451-0.48681 0.10000-0.39001  0  58.53 259.51  297.11  58.12 259.34  297.19
   5   5   4  9807.3   226.3   2-0.09216 0.72976 0.97569-0.47799-0.19885 0.48885  0 147.55 469.48  279.76 147.52 469.14  279.71
   5   5   4  7392.1   189.6   2-0.23101 0.86851 0.58387-0.08651 0.77829-0.48806  0  66.04 324.76  343.98  65.88 324.48  344.09
  -5  -5  -5  2107.3   252.0   1-0.42033-0.21781 0.35819-0.85511-0.83368 0.47047  0  47.17 246.03   26.60  46.96 246.04   26.62
  -5  -5   5  1718.2   212.7   1-0.69607 0.05786-0.35359-0.14350-0.62486 0.98796  0  81.18 117.08   72.96  80.83 116.85   73.19
   5  -5  -5  2555.8   231.3   2 0.10931 0.52846 0.07283-0.57043-0.99134 0.62876  0  49.45 212.38  204.61  49.34 212.26  204.62
   5  -5   5  2329.7   285.1   1-0.27843 0.91698-0.89578 0.39860 0.34649 0.01634  0  87.78 412.64  146.01  87.58 412.63  146.08
   5  -5   5  2814.1   182.8   2 0.07139 0.56644-0.94023 0.44249-0.33297 0.69524  0  46.48 272.61  130.24  46.09 272.73  130.22
   5   5  -5  2469.3   204.9   2-0.13401 0.77161 0.99017-0.49247 0.04010-0.40261  0  46.34 245.91  293.67  46.09 245.65  293.67
   5   5   5  2230.0   174.2   2-0.11439 0.75198 0.99059-0.49289-0.07520 0.43771  0 142.00 484.21  287.12 142.11 484.08  286.96
   5   5   5  2132.9   143.4   2-0.23556 0.87303 0.47143 0.02571 0.84986-0.48699  0  53.06 324.77  351.51  52.99 324.22  351.69
  -5  -5  -6  2925.9   278.2   1-0.39812-0.24002 0.39012-0.88704-0.83024 0.39439  0  31.27 258.51   24.37  31.21 258.48   24.39
  -5  -5   6  2825.4   285.2   1-0.70044 0.06223-0.44146-0.05563-0.56080 0.99651  0  72.62  97.45   79.33  72.30  97.57   79.42
   5  -5  -6  4788.5   283.6   2 0.10306 0.53471 0.14481-0.64242-0.98408 0.54898  0  36.42 198.15  209.04  35.90 198.28  208.79
   5  -5   6  3366.9   301.6   1-0.27489 0.91344-0.89525 0.39807 0.35067 0.08472  0  64.11 403.33  146.34  64.00 403.30  146.40
   5   5  -6  3427.4   235.8   2-0.12435 0.76194 0.99210-0.49440-0.01667-0.41835  0  31.67 231.30  290.20  31.43 231.03  290.37
   5   5   6  3832.8   224.8   2-0.13224 0.76983 0.99077-0.49307 0.02975 0.40527  2 136.07 503.90  293.16 136.08 503.96  293.07
  -5  -6   0 330.786 156.238   1-0.60546-0.03275 0.00812-0.60463-0.79583 0.79583  0  58.55 197.84   49.52  58.75 197.76   49.56
   5  -6   0 137.952 109.576   2 0.12800 0.50986-0.50249-0.09446-0.85505 0.85505  0  52.11 240.60  169.87  52.36 240.02  170.21
   5   6   0  -2.498 120.731   2 0.03879 0.59898 0.59773-0.00060-0.80076 0.80076  2 176.51 503.54  237.48 176.50 504.04  237.33
   5   6   0 162.905  89.546   2-0.19996 0.83746 0.85247-0.25564 0.48302-0.48302  0  53.44 288.08  320.83  53.43 288.05  320.88
  -5  -6  -1  1742.9   214.0   1-0.57819-0.05996 0.07371-0.67001-0.81257 0.73992  0  55.16 210.23   45.28  55.17 210.15   45.37
  -5  -6   1  1698.7   218.4   1-0.63129-0.00693-0.06278-0.53373-0.77301 0.84562  0  60.50 185.21   53.98  60.26 185.00   54.07
   5  -6  -1  2693.3   209.6   2 0.12944 0.50843-0.39489-0.20207-0.90957 0.83706  0  51.64 233.71  177.17  51.51 233.40  177.16
   5  -6   1  2147.0   229.7   1-0.27419 0.91273-0.89514 0.29852 0.35149-0.27893  0 157.92 490.44  146.29 157.85 490.65  146.46
   5  -6   1  2297.8   192.8   2 0.12400 0.51387-0.60656 0.00960-0.78531 0.85782  0  50.82 245.29  162.75  50.71 245.17  162.99
   5   6  -1  1735.9   172.1   2-0.18947 0.82696 0.89482-0.29799 0.40424-0.47679  0  51.46 279.56  315.70  51.31 279.47  315.69
   5   6   1  2694.3   210.1   2 0.01283 0.62494 0.71477-0.11764-0.69924 0.77176  0 169.08 500.63  246.38 169.25 500.44  246.36
   5   6   1  1878.5   159.1   2-0.20984 0.84734 0.79891-0.20208 0.56366-0.49111  0  52.79 295.21  326.54  52.87 295.25  326.48
  -5  -6  -2 -94.814 142.572   1-0.55079-0.08736 0.13288-0.72919-0.82400 0.67872  0  49.30 222.57   41.82  49.31 222.28   41.58
  -5  -6   2  73.722 144.566   1-0.65455 0.01634-0.13803-0.45849-0.74331 0.88855  0  59.86 171.80   58.44  59.54 171.54   58.88
   5  -6  -2  77.699 111.901   2 0.12799 0.50988-0.28971-0.30725-0.94852 0.80351  0  48.09 225.42  183.57  48.11 225.46  183.60
   5  -6   2  97.475 148.136   1-0.29817 0.93671-0.89827 0.30165 0.32282-0.17769  0 134.60 475.44  144.42 134.67 475.09  144.31
   5  -6   2 117.030  98.659   2 0.11689 0.52097-0.70251 0.10555-0.70201 0.84702  0  45.96 249.31  155.54  46.38 248.94  155.70
   5   6  -2  81.617  97.702   2-0.17896 0.81646 0.92749-0.33066 0.32823-0.47334  0  46.05 270.20  310.55  46.66 269.67  310.89
   5   6   2 101.561 118.076   2-0.01430 0.65190 0.81312-0.21588-0.58193 0.72693  0 163.23 501.30  254.91 162.31 501.38  255.28
   5   6   2  -4.637  79.066   2-0.21871 0.85621 0.73374-0.13691 0.64326-0.49815  0  49.48 300.62  332.57  49.39 300.92  332.43
  -5  -6  -3  7068.7   344.5   1-0.52417-0.11398 0.18529-0.78159-0.83121 0.61329  0  41.03 234.44   37.97  41.13 234.41   38.19
  -5  -6   3  7275.5   367.8   1-0.67418 0.03597-0.21607-0.38044-0.70625 0.92411  0  56.81 157.05   63.88  56.59 157.05   63.95
   5  -6  -3 10874.5   340.8   2 0.12507 0.51279-0.19046-0.40650-0.97370 0.75618  0  42.46 216.08  189.57  42.22 216.04  189.48
   5  -6   3  7014.3   331.8   1-0.31023 0.94878-0.89931 0.30269 0.30822-0.09052  0 112.60 461.68  143.05 112.31 461.68  143.23
   5  -6   3  9664.7   295.6   2 0.10718 0.53065-0.78591 0.18861-0.60898 0.82634  0  39.64 251.41  148.45  39.38 251.27  148.47
   5   6  -3  8239.2   276.6   2-0.16834 0.80584 0.95184-0.35501 0.25624-0.47391  0  39.52 258.81  306.57  39.47 258.73  306.45
   5   6   3  6944.4   221.6   2-0.22603 0.86353 0.65807-0.06124 0.71823-0.50056  0  42.94 305.02  338.64  42.86 305.00  338.58
  -5  -6  -4 114.582 154.577   1-0.49937-0.13878 0.23090-0.82721-0.83505 0.54449  0  29.81 246.77   35.54  30.54 246.81   35.21
  -5  -6   4  35.752 156.568   1-0.68886 0.05065-0.29567-0.30084-0.66185 0.95233  0  51.20 141.04   69.55  51.31 141.22   69.23
   5  -6  -4 170.592 127.271   2 0.12079 0.51708-0.10087-0.49609-0.98754 0.69752  0  34.31 205.02  194.58  33.71 205.24  194.69
   5  -6   4 -87.007 167.807   1-0.31436 0.95290-0.89961 0.30300 0.30311-0.01284  0  89.53 450.43  143.03  89.68 449.93  142.85
   5  -6   4   2.907 104.155   2 0.09539 0.54244-0.85500 0.25771-0.50978 0.79959  0  29.63 252.02  141.76  29.31 252.39  141.53
   5   6  -4   9.120 106.061   2-0.15798 0.79548 0.96945-0.37262 0.18766-0.47788  0  29.85 246.48  302.41  29.69 246.74  302.33
   5   6   4  12.826  89.203   2-0.23158 0.86908 0.57535 0.02147 0.78444-0.49421  0  33.21 307.18  344.95  33.06 307.69  344.70
  -5  -6  -5  1237.0   208.8   1-0.47691-0.16124 0.26969-0.86599-0.83656 0.47335  0  17.67 259.70   32.51  17.11 259.77   32.65
  -5  -6   5 868.926 210.458   1-0.69789 0.05968-0.37494-0.22157-0.61022 0.97332  0  43.67 123.84   74.68  43.42 123.54   74.68
   5  -6   5  1085.1   230.8   1-0.31273 0.95128-0.89950 0.30288 0.30512 0.05770  0  66.06 439.75  143.07  65.91 439.53  143.00
   5  -6   5  1318.8   155.2   2 0.08184 0.55599-0.90923 0.31194-0.40817 0.77043  0  16.34 252.23  134.68  16.04 252.39  134.91
   5   6  -5 880.313 150.669   2-0.14769 0.78528 0.98135-0.38411 0.12307-0.48558  0  17.19 233.46  298.56  17.00 233.52  298.55
   5   6   5  1032.8   121.1   2-0.23510 0.87257 0.48979 0.10678 0.83954-0.47668  0  19.67 309.42  350.45  19.73 309.22  350.48
  -5  -7   0 -28.837 166.585   1-0.63100-0.00721-0.06194-0.63399-0.77330 0.77330  0  22.08 208.07   53.88  21.45 207.84   54.01
   5  -7   0 119.974 126.939   2 0.12751 0.51035-0.52354-0.17291-0.84241 0.84241  0  19.74 217.44  168.47  19.27 217.65  168.79
   5   7   0-123.688 103.134   2-0.20492 0.84242 0.82760-0.13130 0.52258-0.52258  0  17.20 272.57  323.33  17.34 272.29  323.58
  -5  -7  -1  1101.1   202.9   1-0.60962-0.02859-0.00262-0.69331-0.79269 0.72007  0  17.62 221.08   50.42  18.28 221.04   50.24
  -5  -7   1  1015.5   206.6   1-0.65101 0.01280-0.12549-0.57044-0.74862 0.82124  0  22.10 194.35   57.98  22.14 194.23   58.08
   5  -7  -1  1392.3   181.8   2 0.12915 0.50871-0.43294-0.26351-0.89212 0.81962  0  19.09 211.24  174.70  18.61 211.14  174.75
   5  -7   1  1105.3   161.4   2 0.12368 0.51418-0.61214-0.08431-0.78102 0.85353  0  17.02 223.08  162.50  17.19 222.81  162.58
   5   7  -1  1242.3   152.2   2-0.19592 0.83341 0.87023-0.17393 0.45201-0.52456  0  15.38 264.46  318.66  15.63 264.14  318.81
   5   7   1  1024.8   137.6   2-0.21307 0.85057 0.77713-0.08083 0.59217-0.51962  0  16.36 279.33  328.55  16.17 279.22  328.56
  -6   0   0 34345.8   459.9   1-0.38289-0.38289 0.41122-0.41122-0.82722 0.82722  0 162.33  94.08   22.98 162.32  94.26   22.89
  -6   0   0 44921.9   562.4   1-0.38313-0.38313-0.89873 0.89873 0.21329-0.21329  0 475.92  46.36  136.37 476.11  46.71  136.36
  -6   0  -1  18.251 103.214   1-0.30987-0.45590 0.50429-0.50429-0.80602 0.73338  0 148.79 107.33   16.12 148.91 107.49   16.00
  -6   0  -1 -24.889 188.728   1-0.40400-0.36226-0.89604 0.89604 0.18411-0.25667  0 499.28  57.09  133.65 499.01  58.12  134.29
  -6   0   1  10.988  85.586   1-0.46571-0.30007 0.28811-0.28811-0.83673 0.90937  0 175.19  79.66   31.43 175.21  79.61   31.41
  -6   0   1 -61.639 155.080   1-0.36389-0.40236-0.90015 0.90015 0.23940-0.16683  0 455.20  33.59  137.99 455.12  33.95  138.22
  -6   0  -2  13.721  97.993   1-0.24852-0.51725 0.57314-0.57314-0.78086 0.63558  0 134.97 119.69   10.51 134.67 119.64   10.53
  -6   0   2  66.515  86.880   1-0.55286-0.21291 0.12860-0.12860-0.82329 0.96857  0 187.87  63.75   41.37 188.00  63.03   41.86
  -6   0   2 114.640 151.476   1-0.34747-0.41879-0.90068 0.90068 0.26085-0.11572  0 435.21  19.02  139.46 435.33  19.51  139.77
  -6   0  -3  -2.848 111.181   1-0.19873-0.56705 0.62357-0.62357-0.75609 0.53817  0 119.75 130.90    6.05 119.49 130.86    6.23
  -6   0   3 -14.670  75.792   1-0.63322-0.13264-0.06853 0.06853-0.77094 0.98879  0 201.21  44.06   54.40 201.21  44.07   54.44
  -6   0   3  15.520 107.728   2-0.16819-0.59710-0.47683 0.47683 0.86275-0.64506  0 483.62  26.99   48.48 483.19  26.93   48.66
  -6   0  -4 439.539 140.158   1-0.15945-0.60633 0.66001-0.66001-0.73414 0.44358  0 102.90 141.25    3.01 103.03 141.40    2.91
  -6   0   4 366.465  84.692   1-0.68893-0.07692-0.29614 0.29614-0.66157 0.95204  0 215.88  21.61   69.48 215.66  22.08   69.27
   6   0  -4 305.363  68.117   2 0.12638 0.63906-0.55595 0.55595-0.82155 0.53153  0 144.69 437.79  166.95 145.21 438.10  166.57
   6   0  -4 418.579  64.985   2 0.08170 0.68362 0.33377-0.33377-0.93911 0.64905  0  87.63 336.70  220.24  87.55 337.11  220.02
   6   0  -5  49.918  89.847   2 0.12007 0.64537-0.66645 0.66645-0.73582 0.37329  0 159.57 471.72  158.51 159.66 471.84  158.54
   6   0  -5 -11.098  70.151   2 0.05757 0.70775 0.49413-0.49413-0.86748 0.50490  0  68.88 312.90  229.95  68.88 312.36  230.18
   6   0  -6  8031.5   283.7   2 0.11551 0.64992-0.71679 0.71679-0.68766 0.25262  2 171.27 504.62  154.44 170.89 504.67  154.54
   6   0  -6  9173.7   251.8   2 0.04279 0.72253 0.57736-0.57736-0.81537 0.38028  0  50.78 291.93  235.94  50.60 291.88  235.87
   6   0  -7 128.910 100.742   2 0.03338 0.73194 0.62438-0.62438-0.78041 0.27280  0  31.10 272.68  239.51  30.79 272.99  239.28
  -6  -1   0 135.149 113.743   1-0.43331-0.33247 0.33881-0.43820-0.83513 0.83513  0 146.56 108.34   28.05 146.62 108.42   27.96
  -6  -1   0 -69.068 180.628   1-0.27344-0.49282-0.89498 0.79555 0.35247-0.35247  2 502.17  58.85  146.54 502.91  58.27  146.54
  -6   1   0 112.591  93.621   1-0.32648-0.43930 0.48433-0.38494-0.81169 0.81169  0 175.31  77.53   17.64 175.25  77.90   17.53
  -6   1   0 -14.908 159.815   1-0.50175-0.26450-0.86440 0.96383 0.03262-0.03262  0 455.27  31.35  123.52 455.19  31.92  123.78
  -6  -1  -1 -92.122  88.456   1-0.37020-0.39557 0.42848-0.52786-0.82423 0.75159  0 135.41 121.01   21.45 135.53 121.16   21.65
  -6  -1   1-160.959  91.433   1-0.50146-0.26432 0.22719-0.32657-0.83482 0.90746  0 156.57  94.16   35.68 156.60  94.46   35.45
  -6  -1   1  58.083 176.647   1-0.24075-0.52551-0.88878 0.78935 0.39001-0.31744  0 485.30  43.94  148.94 485.45  44.36  149.41
  -6   1  -1 -80.482  93.786   1-0.24389-0.52188 0.57805-0.47867-0.77870 0.70605  0 158.81  92.24   10.51 158.90  91.91   10.12
  -6   1  -1 -26.726 180.712   1-0.50705-0.25921-0.86160 0.96103 0.02351-0.09608  0 481.59  41.96  122.57 481.67  42.26  123.16
  -6   1   1 -16.489  79.813   1-0.42667-0.33911 0.34880-0.24941-0.83444 0.90708  0 192.06  61.92   27.41 192.12  62.04   27.27
  -6   1   1 -36.286 143.501   1-0.50214-0.26412-0.86420 0.96363 0.03196 0.04060  0 429.12  20.13  123.51 429.47  20.33  123.74
  -6  -1  -2  1887.7   192.7   1-0.31460-0.45118 0.49866-0.59804-0.80769 0.66241  0 123.38 132.93   16.39 123.25 132.96   16.44
  -6  -1   2  1816.7   169.5   1-0.56998-0.19580 0.09211-0.19149-0.81648 0.96177  0 165.57  78.86   43.60 165.57  78.94   44.19
  -6  -1   2  2112.0   218.2   1-0.20860-0.55765-0.88094 0.78151 0.42478-0.27977  0 470.16  28.25  152.23 470.22  28.44  152.15
  -6   1  -2  1564.5   171.1   1-0.17836-0.58742 0.64285-0.54346-0.74494 0.59966  0 142.56 104.37    4.45 142.54 104.54    4.50
  -6   1   2  1707.2   135.3   1-0.54002-0.22575 0.15455-0.05516-0.82734 0.97262  0 210.74  43.89   39.97 210.77  43.73   40.18
  -6   1   2  2256.3   150.7   2-0.22071-0.54458-0.02125 0.12072 0.97511-0.82998  2 496.84  43.30   21.28 496.88  43.42   21.36
  -6  -1  -3  4441.3   243.2   1-0.26749-0.49829 0.55278-0.65216-0.78923 0.57131  0 109.87 143.88   12.09 109.53 144.07   12.20
  -6  -1   3  4635.0   207.4   1-0.63177-0.13408-0.06422-0.03520-0.77249 0.99035  0 173.68  61.37   54.10 173.71  61.49   54.16
  -6  -1   3  5727.4   317.8   1-0.17743-0.58882-0.87112 0.77170 0.45790-0.24038  2 456.74  10.24  154.80 457.01  10.51  154.81
  -6  -1   3  6381.9   218.4   2-0.12738-0.63803-0.68620 0.58670 0.71617-0.49871  0 488.92  25.09   63.63 489.35  25.31   63.55
  -6   1   3  4475.0   142.6   1-0.64956-0.11630-0.12051 0.21993-0.75070 0.96856  0 234.15  21.64   57.65 234.11  21.76   57.76
  -6   1   3  6187.0   242.4   2-0.19336-0.57193-0.30009 0.39956 0.93411-0.71641  0 471.47  16.54   37.52 471.60  16.72   37.64
   6  -1  -3  6051.7   109.1   2 0.12171 0.64372-0.64367 0.54417-0.75557 0.53805  0 133.85 412.94  160.38 133.87 412.78  160.26
   6  -1  -3  6512.2   111.7   2 0.12275 0.64268-0.13928 0.03979-0.98261 0.76510  0 102.49 357.73  192.81 102.46 357.95  192.45
  -6  -1  -4 446.341 138.226   1-0.22874-0.53704 0.59361-0.69299-0.77156 0.48100  0  94.83 154.83    8.60  94.34 154.61    8.81
  -6  -1   4 689.234 115.114   1-0.67812-0.08774-0.23485 0.13543-0.69642 0.98689  0 181.31  41.28   65.40 181.06  41.68   65.19
   6  -1  -4 841.072  91.791   2 0.10836 0.65704-0.77752 0.67797-0.61945 0.32964  0 152.04 449.81  149.47 152.47 449.75  149.24
   6  -1  -4 805.562  83.884   2 0.09860 0.66672 0.19006-0.28958-0.97681 0.68675  0  81.89 326.78  211.29  81.88 326.43  211.43
   6   1  -4 767.953  78.679   2 0.12843 0.63701-0.31366 0.41315-0.94081 0.65079  0 140.44 436.85  182.22 140.44 436.73  182.16
   6   1  -4 888.359  95.454   2 0.05332 0.71200 0.51945-0.41993-0.85284 0.56277  0  86.47 341.39  232.17  86.38 341.77  231.88
  -6  -1  -5  6982.6   318.9   1-0.19804-0.56773 0.62422-0.72361-0.75573 0.39252  0  77.55 164.49    6.04  77.29 164.80    6.17
  -6  -1   5  8549.1   244.7   1-0.69981-0.06604-0.40944 0.31002-0.58534 0.94843  0 188.12  18.72   76.99 188.00  18.63   77.11
   6  -1  -5 10713.4   261.2   2 0.10187 0.66352-0.82036 0.72081-0.56270 0.20043  0 165.45 480.89  145.07 165.19 480.48  145.16
   6  -1  -5 12389.9   255.8   2 0.07916 0.68616 0.35271-0.45223-0.93238 0.56980  0  65.16 304.75  221.14  64.95 304.64  221.18
   6   1  -5 10923.4   246.7   2 0.12831 0.63713-0.48485 0.58434-0.86513 0.50260  0 155.56 472.21  171.42 155.41 471.86  171.38
   6   1  -5 12089.2   238.5   2 0.02915 0.73617 0.64419-0.54467-0.76431 0.40173  0  67.23 315.93  240.81  66.99 315.83  240.77
  -6  -1  -6 217.893 142.042   1-0.17451-0.59127 0.64641-0.74579-0.74277 0.30692  0  57.86 174.52    4.29  58.12 174.81    4.17
   6  -1  -6 228.937  93.387   2 0.06477 0.70055 0.44952-0.54904-0.89092 0.45583  0  47.42 285.45  227.46  47.37 285.52  227.27
   6  -1   6 335.137 189.154   1 0.04403 0.72222-0.75571 0.65629 0.65342-0.21839  0  67.35 370.47  172.99  67.59 370.55  173.06
   6   1  -6 170.573  88.544   2 0.01630 0.74902 0.70095-0.60143-0.71302 0.27793  0  48.30 295.68  244.86  48.37 294.97  245.23
  -6  -1  -7 381.872 165.012   1-0.15738-0.60839 0.66186-0.76124-0.73292 0.22443  0  36.61 184.91    2.62  36.24 184.85    2.73
   6  -1  -7 565.758 121.310   2 0.05483 0.71049 0.51077-0.61029-0.85797 0.35036  0  27.99 266.88  231.50  27.84 267.27  231.29
   6  -1   7 672.395 214.572   1 0.03178 0.73446-0.76416 0.66474 0.64424-0.13670  0  44.35 361.40  172.43  44.18 361.29  172.06
   6   1  -7 616.767 120.672   2 0.00913 0.75620 0.72974-0.63022-0.68367 0.17606  0  27.86 275.95  247.55  28.26 275.90  247.62
  -6  -2   0 742.238 148.608   1-0.47815-0.28763 0.26761-0.46638-0.83652 0.83652  0 128.24 120.75   32.65 128.17 120.82   32.78
  -6   2   0 718.420 110.125   1-0.26430-0.50148 0.55626-0.35749-0.78786 0.78786  0 185.16  59.18   11.67 185.12  58.64   11.91
  -6   2   0 985.356 176.728   1-0.60934-0.15692-0.77216 0.97103-0.18020 0.18020  0 439.99  13.01  109.19 439.84  12.78  109.11
  -6  -2  -1  1344.3   165.8   1-0.42441-0.34137 0.35216-0.55093-0.83418 0.76154  0 119.03 133.34   26.89 118.95 133.33   27.04
  -6  -2   1  1440.6   177.0   1-0.53397-0.23180 0.16646-0.36523-0.82895 0.90160  0 136.03 107.20   39.35 135.93 107.23   39.41
  -6   2  -1  1097.2   128.7   1-0.17374-0.59203 0.64711-0.44834-0.74233 0.66969  0 165.40  73.74    4.01 165.41  73.82    4.11
  -6   2  -1  1452.5   212.7   1-0.60056-0.16570-0.78343 0.98230-0.15991 0.08734  0 470.82  21.79  110.50 470.78  22.02  110.53
  -6   2   1  1286.7   133.2   1-0.38445-0.38133 0.40910-0.21033-0.82755 0.90019  0 207.34  41.09   22.98 207.45  41.05   23.04
  -6  -2  -2  8759.7   321.7   1-0.37531-0.39047 0.42165-0.62042-0.82544 0.68016  0 108.41 144.91   22.00 108.19 145.01   22.14
  -6  -2   2  8868.1   287.9   1-0.58847-0.17731 0.04970-0.24847-0.80699 0.95227  0 142.19  92.21   46.99 142.26  92.27   46.90
  -6   2  -2 10060.6   407.0   1-0.59779-0.16847-0.78680 0.98567-0.15363 0.00850  2 502.54  30.04  111.01 502.72  30.12  110.96
  -6   2   2  8930.5   174.5   1-0.53870-0.22707 0.15717 0.04160-0.82771 0.97299  0 236.57  19.29   39.96 236.45  19.57   40.01
  -6   2   2 11531.1   263.8   2-0.22531-0.53997 0.04773 0.15121 0.97312-0.82799  0 476.54  17.15   17.28 476.69  17.38   17.40
   6  -2  -2 10749.8   114.1   2 0.10236 0.66304-0.81759 0.61849-0.56664 0.42173  0 128.02 406.37  145.64 128.16 406.34  145.44
   6  -2  -2 11304.7   115.5   2 0.12774 0.63769-0.51577 0.31679-0.84715 0.70214  0 105.49 366.73  169.13 104.92 365.92  169.31
  -6  -2  -3  6796.1   320.7   1-0.33210-0.43367 0.47741-0.67618-0.81350 0.59558  0  95.99 155.97   18.16  95.81 156.11   18.05
  -6  -2   3  6818.4   261.5   1-0.63702-0.12883-0.08009-0.11874-0.76667 0.98453  0 147.15  75.64   55.02 147.22  75.62   55.17
  -6  -2   3  8937.7   403.8   1-0.06608-0.70016-0.82311 0.62426 0.56402-0.34650  0 501.09  14.66  164.06 501.16  14.85  164.05
  -6  -2   3  9234.1   247.8   2-0.07455-0.69086-0.86900 0.67000 0.48916-0.27169  2 489.54   9.85   80.45 489.75  10.01   80.58
   6  -2  -3  8777.0   182.6   2 0.08422 0.68118-0.90097 0.70187-0.42563 0.20827  0 147.74 442.17  135.95 147.51 441.80  136.02
   6  -2  -3  9365.9   178.9   2 0.12299 0.64245-0.14415-0.05484-0.98188 0.76437  0  86.08 333.88  192.40  85.86 333.99  192.17
  -6  -2  -4  1198.3   172.4   1-0.29533-0.47045 0.52131-0.72008-0.80064 0.51007  0  81.80 166.70   14.58  81.60 166.75   14.69
  -6  -2   4  1367.5   156.7   1-0.67464-0.09122-0.21818 0.01934-0.70517 0.99564  0 150.65  57.18   63.97 150.74  56.88   64.09
   6  -2  -4  1647.9   162.0   2 0.07863 0.68676-0.91979 0.72069-0.38444 0.09463  0 160.57 469.66  133.39 160.51 469.49  133.42
   6  -2  -4  1577.3   132.6   2 0.10872 0.65660 0.07979-0.27884-0.99086 0.70080  0  70.98 312.72  204.96  70.89 312.56  205.02
   6  -2   4  1497.6   187.8   1 0.02266 0.74358-0.77013 0.57128 0.63749-0.34747  0 108.59 407.02  171.37 108.44 406.90  171.31
   6   2  -4  1711.3   124.1   2 0.12192 0.64351-0.12168 0.32066-0.98505 0.69503  0 138.85 447.84  193.54 138.89 447.54  193.49
   6   2  -4  1633.0   112.5   2 0.01268 0.75265 0.71538-0.51634-0.69862 0.40856  0  77.74 338.94  246.63  77.65 339.20  246.41
  -6  -2  -5  1763.6   214.5   1-0.26512-0.50065 0.55536-0.75413-0.78821 0.42500  0  65.37 176.99   12.03  65.33 177.22   11.99
  -6  -2   5  1780.7   213.2   1-0.69652-0.06934-0.35832 0.15948-0.62167 0.98476  0 153.05  35.43   73.35 152.96  35.32   73.52
   6  -2  -5  2657.5   211.6   2 0.07709 0.68830-0.92444 0.72534-0.37346 0.01119  0 171.38 497.70  132.82 171.40 497.59  132.73
   6  -2  -5  2603.5   169.0   2 0.09450 0.67082 0.22766-0.42670-0.96915 0.60657  0  55.70 293.96  213.61  55.66 293.80  213.64
   6  -2   5  2567.6   265.8   1-0.00178 0.76803-0.78602 0.58717 0.61820-0.25567  0  88.12 396.85  169.36  87.90 396.82  169.31
   6   2  -5  2322.5   181.3   2 0.12834 0.63710-0.30877 0.50775-0.94244 0.57991  0 152.60 481.68  182.43 152.56 481.34  182.45
   6   2  -5  2747.0   154.4   2-0.00468 0.76979 0.78128-0.58221-0.62416 0.26165  0  59.00 315.28  252.04  58.98 314.84  252.20
  -6  -2  -6  5194.1   311.2   1-0.24107-0.52470 0.58101-0.77977-0.77738 0.34153  0  47.05 187.50    9.90  46.70 187.62    9.88
  -6  -2   6  6298.3   282.1   1-0.69900-0.06685-0.49350 0.29467-0.51755 0.95326  2 154.14  10.08   83.22 153.95  10.06   83.31
   6  -2  -6  9576.9   278.2   2 0.08247 0.68285 0.32790-0.52694-0.94111 0.50601  0  38.94 276.22  219.74  38.77 276.17  219.66
   6  -2   6  8276.4   398.7   1-0.01774 0.78399-0.79583 0.59698 0.60526-0.17022  0  66.00 387.38  168.10  65.63 387.39  168.01
   6   2  -6  8637.6   250.4   2-0.01283 0.77794 0.80837-0.60930-0.58853 0.15352  0  40.56 294.89  254.80  40.33 294.65  254.81
  -6  -2  -7 134.010 165.983   1-0.22278-0.54300 0.59966-0.79843-0.76862 0.26013  0  24.78 198.23    8.46  25.19 198.17    8.30
   6  -2  -7 629.385 130.012   2 0.07295 0.69237 0.39635-0.59539-0.91520 0.40759  0  19.41 259.36  223.61  19.52 258.82  223.90
   6  -2   7 303.044 192.734   1-0.02684 0.79309-0.80124 0.60239 0.59774-0.09020  0  40.57 378.93  167.46  40.97 378.44  167.26
   6   2  -7 318.710 114.532   2-0.01636 0.78147 0.81961-0.62053-0.57269 0.06518  0  19.76 275.92  255.99  19.88 275.89  255.94
  -6  -3   0  -6.665 118.020   1-0.51782-0.24796 0.19747-0.49563-0.83239 0.83239  0 106.31 131.69   37.45 106.74 131.77   37.40
  -6   3   0  46.721  92.531   1-0.19780-0.56798 0.62446-0.32631-0.75559 0.75559  0 191.51  36.08    5.90 191.72  35.75    6.15
  -6   3   0  19.138 120.275   2-0.23351-0.53149 0.53115-0.23274 0.81446-0.81446  2 490.74   9.51  347.42 490.01   9.36  347.77
  -6  -3  -1  6523.2   292.2   1-0.47272-0.29305 0.27665-0.57481-0.83666 0.76401  0  99.10 144.14   32.07  98.96 144.31   32.18
  -6  -3   1  6608.8   280.1   1-0.56346-0.20231 0.10626-0.40441-0.81928 0.89192  0 112.93 118.18   43.18 112.77 118.30   43.29
  -6   3   1  6437.2   180.4   1-0.33940-0.42638 0.46837-0.17022-0.81574 0.88839  0 221.40  15.25   18.72 221.23  15.54   18.72
   6  -3  -1  8581.3   150.1   2 0.04467 0.72072-0.98704 0.68839-0.15412 0.08166  0 133.18 428.63  119.68 133.24 428.69  119.50
   6  -3  -1  8432.8   143.3   2 0.12169 0.64374-0.64395 0.34547-0.75533 0.68282  0  90.29 352.62  160.19  89.87 352.24  160.24
  -6  -3  -2 535.952 152.656   1-0.43012-0.33566 0.34363-0.64178-0.83482 0.68953  0  89.56 156.31   27.49  89.43 156.07   27.63
  -6  -3   2 915.594 158.503   1-0.60705-0.15880 0.00405-0.30230-0.79465 0.93989  0 117.29 103.35   49.71 117.13 103.52   49.82
   6  -3  -2 964.667  94.308   2 0.04229 0.72311-0.98936 0.69071-0.13922-0.00569  0 147.09 451.09  118.46 146.82 450.88  118.62
   6  -3  -2  1027.3   106.1   2 0.12943 0.63600-0.39136 0.09289-0.91109 0.76608  0  79.12 331.55  177.38  78.93 331.42  177.38
   6  -3   2 940.859 154.034   1 0.03604 0.73021-0.76125 0.46298 0.64745-0.50244  0 146.84 450.42  172.38 146.61 450.21  172.41
  -6  -3  -3  1826.5   203.7   1-0.39151-0.37426 0.39936-0.69751-0.82899 0.61107  0  78.37 167.25   23.81  78.02 167.31   23.73
  -6  -3   3  2015.5   227.3   1-0.64549-0.12037-0.10689-0.19136-0.75625 0.97411  0 120.12  87.19   57.05 119.80  87.27   56.88
   6  -3  -3  2247.3   169.9   2 0.04394 0.72146-0.98778 0.68913-0.14954-0.06782  0 158.63 472.83  119.09 158.27 472.78  119.23
   6  -3  -3  2680.5   148.5   2 0.12466 0.64077-0.17907-0.11941-0.97591 0.75839  0  68.06 313.75  190.14  67.83 313.62  190.14
   6  -3   3  2548.1   251.2   1-0.00952 0.77576-0.79082 0.49255 0.61198-0.39446  0 126.05 437.89  168.64 125.83 437.65  168.68
   6   3  -3  2638.5   107.6   2 0.08692 0.67841 0.29281 0.00575-0.95221 0.73467  0 122.61 433.95  217.71 122.79 433.82  217.53
   6   3  -3  2586.9   101.1   2-0.01105 0.77616 0.80258-0.50396-0.59645 0.37894  0  81.37 360.07  254.26  81.20 359.88  254.23
  -6  -3  -4 719.072 172.479   1-0.35777-0.40801 0.44493-0.74309-0.82100 0.53043  0  64.71 178.33   20.35  64.57 178.26   20.46
  -6  -3   4 769.404 156.308   1-0.67569-0.09016-0.22311-0.07515-0.70261 0.99309  0 121.00  69.81   64.27 120.73  68.96   64.41
   6  -3  -4 787.633 130.002   2 0.04725 0.71814-0.98423 0.68558-0.17046-0.11935  0 168.62 496.40  120.46 168.57 496.39  120.46
   6  -3  -4  1012.7   115.1   2 0.11535 0.64997-0.01040-0.28817-0.99327 0.70321  0  55.56 297.14  199.81  55.47 297.03  199.84
   6  -3   4 756.252 186.357   1-0.04076 0.80700-0.80935 0.51107 0.58592-0.29589  0 104.93 426.17  166.30 104.72 426.38  166.12
   6   3  -4 912.878 105.987   2 0.11356 0.65176 0.01485 0.28372-0.99342 0.70336  0 138.56 468.98  201.47 138.93 468.84  201.30
   6   3  -4 776.504  89.476   2-0.03182 0.79693 0.86424-0.56562-0.50207 0.21206  0  62.11 332.13  260.67  62.15 331.74  260.80
  -6  -3  -5 463.949 170.793   1-0.32904-0.43674 0.48119-0.77934-0.81252 0.44931  0  48.94 189.45   17.55  48.83 189.10   17.76
  -6  -3   5 569.126 164.341   1-0.69476-0.07110-0.34062 0.04237-0.63347 0.99657  0 120.01  48.62   71.96 119.92  48.04   72.30
   6  -3  -5 493.332 106.404   2 0.10524 0.66008 0.11849-0.41705-0.98736 0.62479  0  41.82 280.35  207.51  41.23 280.74  207.26
   6  -3   5 606.831 184.633   1-0.06133 0.82757-0.82060 0.52233 0.56820-0.20567  0  82.95 416.11  164.33  82.60 416.18  164.44
   6   3  -5 496.928 121.040   2 0.12366 0.64177-0.15646 0.45494-0.97991 0.61738  0 150.23 500.46  191.47 150.38 500.33  191.46
   6   3  -5 656.231 103.534   2-0.03927 0.80438 0.88351-0.58489-0.46677 0.10426  0  44.78 310.79  262.99  44.82 310.49  263.15
  -6  -3  -6 -14.639 151.333   1-0.30548-0.46030 0.50948-0.80763-0.80443 0.36858  0  30.69 200.04   15.65  30.41 200.00   15.60
  -6  -3   6  83.772 158.316   1-0.70031-0.06554-0.45542 0.15717-0.54968 0.98539  0 117.55  23.31   80.61 117.33  23.59   80.44
   6  -3  -6 216.615 114.003   2 0.09595 0.66938 0.21504-0.51361-0.97188 0.53679  0  24.42 265.06  212.61  24.81 264.47  212.89
   6  -3   6 181.066 185.726   1-0.07367 0.83991-0.82704 0.52877 0.55729-0.12225  0  58.63 407.02  163.56  58.80 406.84  163.43
   6   3  -6 166.788 103.134   2-0.04172 0.80683 0.88903-0.59041-0.45594 0.02093  0  26.65 291.04  264.06  26.36 291.60  263.85
  -6  -4   0  1995.4   216.6   1-0.55285-0.21293 0.12863-0.52617-0.82329 0.82329  0  81.82 141.60   41.66  81.73 141.64   41.85
   6  -4   0  2761.6   155.0   2-0.02075 0.78616-0.97489 0.57687 0.22173-0.22173  0 138.69 462.74   97.50 138.70 462.74   97.43
   6  -4   0  2488.5   131.0   2 0.11599 0.64945-0.71200 0.31403-0.69253 0.69253  0  66.98 334.72  154.86  66.72 334.47  154.93
  -6  -4  -1  2091.2   258.9   1-0.51538-0.25040 0.20199-0.59953-0.83282 0.76017  0  75.24 154.39   36.94  75.11 154.35   37.11
  -6  -4   1  2808.3   265.2   1-0.58996-0.17582 0.04617-0.44371-0.80611 0.87876  0  86.55 128.04   46.97  86.42 128.02   47.13
   6  -4  -1  3369.0   178.4   2-0.00884 0.77424-0.98723 0.58903 0.15906-0.23152  0 148.32 474.77  101.35 148.53 474.91  101.17
   6  -4  -1  3117.2   150.8   2 0.12671 0.63872-0.54725 0.14928-0.82732 0.75482  0  62.48 321.59  167.27  62.22 321.55  167.16
   6  -4   1  3815.7   237.1   1 0.03234 0.73391-0.76378 0.36608 0.64466-0.57216  0 166.59 490.86  172.19 166.46 490.55  172.10
   6  -4   1  3339.7   146.0   2-0.03483 0.80024-0.95478 0.55676 0.29528-0.22279  0 129.11 454.29   92.99 128.94 454.20   92.97
   6  -4   1  3393.2   129.7   2 0.09636 0.66903-0.85023 0.45203-0.51751 0.58997  0  69.05 346.51  142.03  68.80 346.35  142.05
  -6  -4  -2  4147.3   300.0   1-0.47918-0.28659 0.26587-0.66341-0.83648 0.69119  0  66.62 166.34   32.67  66.49 166.43   32.90
  -6  -4   2  4077.2   288.8   1-0.62483-0.14103-0.04419-0.35349-0.77951 0.92475  0  89.32 113.11   52.96  89.21 113.19   52.89
   6  -4  -2  4776.7   213.0   2 0.00162 0.76377-0.99484 0.59665 0.10140-0.24630  0 157.76 490.16  104.75 157.98 490.10  104.57
   6  -4  -2  5309.7   190.6   2 0.12933 0.63611-0.37885-0.01912-0.91638 0.77136  0  55.61 308.62  178.03  55.48 308.14  178.16
   6  -4   2  5623.5   282.8   1-0.02929 0.79553-0.80267 0.40498 0.59570-0.45069  0 142.43 474.97  166.67 142.23 474.96  167.06
   6  -4   2  5161.8   147.5   2-0.05224 0.81764-0.92269 0.52467 0.38200-0.23702  0 119.63 450.07   87.68 119.46 449.99   87.56
   6  -4   2  4850.3   133.7   2 0.06983 0.69557-0.94409 0.54590-0.32220 0.46710  0  68.03 356.57  129.64  67.68 356.67  129.56
   6   4  -2  5589.3   122.5   2 0.04040 0.72492 0.58955-0.19146-0.80672 0.66169  0 109.75 436.96  236.86 109.72 436.85  236.74
   6   4  -2  4830.3   113.0   2-0.05183 0.81694 0.91209-0.51394-0.40669 0.26169  0  73.77 371.92  266.86  73.34 371.33  267.02
  -6  -4  -3  4140.9   294.2   1-0.44548-0.32029 0.32036-0.71790-0.83601 0.61808  0  55.94 177.93   29.12  55.77 178.06   29.23
  -6  -4   3  3988.2   296.4   1-0.65527-0.11058-0.14062-0.25706-0.74219 0.96005  0  90.32  96.93   58.98  90.03  96.86   59.05
   6  -4  -3  5426.3   208.4   2 0.12629 0.63914-0.22335-0.17462-0.96652 0.74900  0  46.72 294.54  187.65  46.53 294.45  187.55
   6  -4   3  5168.7   309.9   1-0.07020 0.83645-0.82526 0.42756 0.56037-0.34286  0 119.61 461.67  163.66 119.22 461.48  163.71
   6  -4   3  5421.8   143.8   2-0.07384 0.83925-0.87093 0.47292 0.48583-0.26836  0 111.21 451.81   80.74 110.81 451.57   80.80
   6  -4   3  5122.7   133.8   2 0.04254 0.72285-0.98912 0.59092-0.14083 0.35819  0  63.01 364.14  118.64  62.58 363.93  118.72
   6   4  -3  5110.1   179.3   2 0.08394 0.68138 0.31640 0.08168-0.94490 0.72736  0 126.38 470.11  218.93 126.34 469.69  218.95
   6   4  -3  4957.4   160.3   2-0.06687 0.83198 0.94117-0.54301-0.33124 0.11374  0  56.50 343.63  271.67  56.21 343.25  271.73
  -6  -4  -4 745.748 186.858   1-0.41509-0.35069 0.36590-0.76343-0.83296 0.54239  0  42.30 189.19   26.34  42.72 189.42   26.09
  -6  -4   4 555.040 162.898   1-0.67927-0.08658-0.24063-0.15704-0.69331 0.98379  0  88.98  78.54   65.54  88.88  78.57   65.56
   6  -4  -4 832.153 118.515   2 0.12012 0.64531-0.08917-0.30880-0.98875 0.69872  0  35.49 280.15  195.49  35.34 280.42  195.36
   6  -4   4 594.394 184.453   1-0.09695 0.86319-0.83843 0.44073 0.53632-0.24630  0  96.15 449.89  161.52  96.27 449.73  161.51
   6  -4   4 577.294  75.890   2-0.09901 0.86442-0.79493 0.39692 0.59857-0.30861  0 102.49 459.12   73.25 103.09 459.67   72.89
   6  -4   4 839.715 100.190   2 0.01819 0.74720-0.99981 0.60161 0.00741 0.28240  0  53.25 367.26  110.28  53.08 367.79  110.07
   6   4  -4 778.797 126.401   2 0.10522 0.66010 0.11868 0.27941-0.98734 0.69728  0 137.56 498.56  207.53 138.09 498.59  207.27
   6   4  -4 764.556 103.156   2-0.07042 0.83553 0.94712-0.54896-0.31306 0.02305  0  41.01 322.56  272.80  40.86 322.32  272.84
  -6  -4  -5  1106.2   211.1   1-0.38866-0.37712 0.40331-0.80085-0.82843 0.46522  0  26.94 200.80   23.47  27.13 200.84   23.45
  -6  -4   5 959.104 202.116   1-0.69487-0.07099-0.34164-0.05604-0.63281 0.99590  0  85.93  58.33   71.97  85.65  57.63   72.37
   6  -4  -5  1444.6   157.0   2 0.11321 0.65212 0.02252-0.42061-0.99332 0.63074  0  21.46 265.99  201.69  21.55 265.89  201.72
   6  -4   5  1317.5   232.6   1-0.11346 0.87971-0.84609 0.44840 0.52082-0.15829  0  72.77 438.86  159.91  72.31 439.36  160.15
   6  -4   5  1382.2   134.3   2-0.12482 0.89023-0.69719 0.29918 0.70593-0.34349  0  96.04 474.40   64.34  95.69 474.35   64.43
   6  -4   5  1745.8   121.5   2-0.00209 0.76749-0.99253 0.59433 0.12199 0.24028  0  39.33 368.90  103.41  39.23 368.99  103.36
   6   4  -5  1600.5   172.7   2-0.06993 0.83505 0.94633-0.54817-0.31555-0.04696  0  24.69 303.63  272.79  24.46 303.79  272.69
  -6  -5   0 -72.320 147.769   1-0.58372-0.18206 0.06103-0.55795-0.80966 0.80966  0  51.95 150.56   46.42  52.22 150.63   46.18
   6  -5   0  36.177  82.609   2 0.12119 0.64425-0.65114 0.15368-0.74922 0.74922  0  37.13 307.41  160.06  36.95 308.25  159.70
  -6  -5  -1 540.690 177.059   1-0.55289-0.21289 0.12855-0.62548-0.82328 0.75064  0  47.02 164.37   41.53  46.46 163.79   41.86
  -6  -5   1 842.677 203.423   1-0.61376-0.15210-0.01354-0.48356-0.78938 0.86200  0  55.88 136.53   50.49  55.74 136.54   50.94
   6  -5  -1 717.743 112.095   2 0.12750 0.63794-0.52397 0.02651-0.84214 0.76963  0  34.21 298.27  168.84  34.14 298.28  168.76
   6  -5   1 867.177 106.438   2 0.10980 0.65564-0.76623 0.26876-0.63312 0.70562  0  36.92 317.61  150.09  36.88 317.09  150.32
   6   5  -1 817.651  84.200   2 0.00946 0.75586 0.72821-0.23060-0.68529 0.61278  0 100.34 461.23  247.89 101.08 461.64  247.49
   6   5  -1 653.526  73.407   2-0.10568 0.87080 0.98662-0.48892-0.12416 0.05166  0  51.21 369.61  284.25  50.93 369.81  284.11
  -6  -5  -2  2853.6   311.4   1-0.52246-0.24331 0.18851-0.68544-0.83156 0.68628  0  38.51 176.33   37.99  38.45 176.33   37.98
  -6  -5   2  3285.8   313.4   1-0.64142-0.12444-0.09398-0.40311-0.76141 0.90665  0  57.37 121.51   55.98  57.17 121.38   56.06
   6  -5  -2  3851.3   203.2   2 0.12944 0.63600-0.39438-0.10308-0.90979 0.76477  0  29.02 287.39  177.21  28.69 287.29  177.19
   6  -5   2  3907.1   177.5   2 0.09445 0.67095-0.85947 0.36173-0.50238 0.64729  0  34.24 324.47  141.03  33.85 324.43  141.04
   6   5  -2  4459.7   191.7   2 0.05062 0.71470 0.53478-0.03717-0.84347 0.69844  0 114.89 486.38  232.85 114.56 486.05  232.91
   6   5  -2  3253.2   151.6   2-0.10655 0.87167 0.98712-0.48943-0.11930-0.02570  0  39.76 348.30  284.37  39.39 348.01  284.40
  -6  -5  -3  3183.1   299.1   1-0.49366-0.27211 0.24092-0.73784-0.83561 0.61769  0  27.79 188.51   34.51  28.12 188.57   34.55
  -6  -5   3  3605.8   311.3   1-0.66540-0.10045-0.17873-0.31836-0.72477 0.94263  0  56.62 104.80   61.41  56.38 104.67   61.52
   6  -5  -3  4366.4   228.2   2 0.12756 0.63787-0.27181-0.22565-0.95386 0.73634  0  20.61 275.87  184.68  20.53 275.58  184.67
   6  -5   3  3620.0   327.0   1-0.12165 0.88789-0.84969 0.35257 0.51306-0.29554  0 107.94 490.88  159.32 107.63 491.03  159.47
   6  -5   3  4445.3   185.9   2 0.07608 0.68932-0.92757 0.42983-0.36581 0.58317  0  27.69 330.56  132.21  27.44 330.43  132.26
   6   5  -3  3650.1   182.2   2-0.10387 0.86899 0.98548-0.48779-0.13428-0.08323  0  27.53 329.77  283.45  27.23 329.41  283.52
  -7   0   0  49.323 137.078   1-0.44670-0.44670 0.31846-0.31846-0.83608 0.83608  0 131.04  39.46   29.55 131.16  39.88   29.36
  -7   0  -1 754.698 167.157   1-0.38240-0.51100 0.41188-0.41188-0.82712 0.75447  0 115.25  55.28   22.63 115.22  55.62   22.84
  -7   0   1 803.031 149.434   1-0.51734-0.37606 0.19835-0.19835-0.83247 0.90512  0 146.95  21.55   37.35 147.06  21.63   37.34
  -7   0  -2 213.660 148.512   1-0.32652-0.56689 0.48428-0.48428-0.81170 0.66642  0  98.74  69.69   17.38  98.63  69.64   17.53
  -7   0  -3 13250.6   414.1   1-0.27952-0.61388 0.53936-0.53936-0.79433 0.57640  0  81.29  81.99   13.28  80.94  82.18   13.26
  -7   0  -4-240.000 174.143   1-0.24112-0.65229 0.58096-0.58096-0.77740 0.48683  0  61.65  93.25    9.58  61.67  93.56    9.88
  -7  -1   0 -11.354 146.041   1-0.48139-0.41201 0.26215-0.36153-0.83638 0.83638  0 112.59  56.70   33.24 112.62  56.61   33.15
  -7   1   0 256.669 136.473   1-0.41084-0.48256 0.37205-0.27267-0.83234 0.83234  0 147.22  19.85   25.42 147.40  19.38   25.66
  -7  -1  -1 456.403 163.999   1-0.42622-0.46719 0.34947-0.44886-0.83439 0.76175  0  99.52  72.27   27.42  99.34  71.69   27.23
  -7  -1   1 574.735 159.159   1-0.53972-0.35369 0.15515-0.25454-0.82742 0.90007  0 125.28  39.89   40.29 125.04  39.54   40.14
  -7   1  -1 615.364 164.463   1-0.33642-0.55699 0.47206-0.37267-0.81485 0.74221  0 128.17  36.44   18.43 127.95  36.44   18.45
  -7  -1  -2  2774.4   285.6   1-0.37650-0.51691 0.42006-0.51944-0.82571 0.68043  0  85.11  85.40   21.98  84.80  85.18   22.26
  -7  -1   2  3336.8   254.1   1-0.59748-0.29593 0.02797-0.12736-0.80140 0.94668  0 136.93  19.57   48.41 136.89  19.93   48.29
  -7   1  -2  2698.9   262.9   1-0.27459-0.61881 0.54487-0.44548-0.79229 0.64700  0 109.00  50.95   12.92 108.75  51.23   12.82
  -7  -1  -3  97.178 178.001   1-0.33324-0.56017 0.47601-0.57539-0.81386 0.59594  0  69.00  97.73   18.32  68.79  97.51   18.15
  -7   1  -3 -23.564 143.617   1-0.22460-0.66881 0.59782-0.49843-0.76953 0.55160  0  89.23  64.32    8.43  89.02  64.24    8.46
  -7  -1  -4  1421.7   224.4   1-0.29672-0.59668 0.51969-0.61908-0.80117 0.51060  0  50.88 108.50   14.58  50.87 108.77   14.81
  -7   1  -4  1196.5   219.4   1-0.18516-0.70824 0.63649-0.53710-0.74873 0.45816  0  68.33  75.91    5.17  68.10  75.82    5.07
  -7  -2   0  4814.2   316.0   1-0.51423-0.37918 0.20412-0.40289-0.83301 0.83301  0  91.49  70.43   36.98  91.30  70.48   36.97
  -7  -2  -1  5018.5   300.3   1-0.46728-0.42613 0.28561-0.48438-0.83671 0.76406  0  80.30  85.26   31.50  80.02  85.24   31.58
  -7  -2   1  4529.1   298.7   1-0.56251-0.33090 0.10830-0.30707-0.81967 0.89231  0 101.38  54.11   43.17 101.11  54.01   43.16
  -7   2  -1  4531.5   266.2   1-0.28933-0.60408 0.52827-0.32950-0.79826 0.72562  2 137.78  12.63   14.23 137.65  13.14   14.14
  -7  -2  -2 660.957 194.333   1-0.42361-0.46980 0.35336-0.55212-0.83409 0.68880  0  67.30  98.51   26.49  67.14  98.56   26.96
  -7  -2   2 873.414 180.750   1-0.60923-0.28427-0.00159-0.19725-0.79300 0.93823  0 109.90  35.86   50.23 109.72  35.24   50.18
  -7   2  -2 392.442 162.475   1-0.22213-0.67128 0.60032-0.40155-0.76830 0.62301  0 115.48  29.59    7.98 115.22  29.10    8.24
  -7  -2  -3  39.313 186.240   1-0.38452-0.50888 0.40899-0.60776-0.82757 0.60964  0  52.53 110.93   23.04  52.38 110.80   23.05
  -7  -2   3 139.103 158.883   1-0.65055-0.24295-0.12391-0.07492-0.74929 0.96714  0 117.50  14.00   57.98 117.27  13.87   57.98
  -7   2  -3  90.869 165.978   1-0.17011-0.72330 0.65045-0.45168-0.74026 0.52233  0  92.85  42.60    3.90  93.02  42.85    3.80
  -7  -3   0 -96.660 177.346   1-0.54484-0.34856 0.14499-0.44315-0.82591 0.82591  0  66.40  81.91   40.84  66.45  82.02   40.80
  -7  -3  -1 493.979 197.159   1-0.50518-0.38823 0.22058-0.51873-0.83435 0.76171  0  56.54  96.42   35.57  56.75  96.68   35.89
  -7  -3   1 241.694 180.849   1-0.58476-0.30865 0.05862-0.35677-0.80909 0.88173  0  74.82  66.47   45.94  74.35  65.75   46.33
;
_shelx_hkl_checksum              26264
loop_
_space_group_symop_operation_xyz
'x, y, z'
'-x+1/2, -y, z+1/2'
'-x, y+1/2, -z'
'x+1/2, -y+1/2, -z+1/2'
'-x, -y, -z'
'x-1/2, y, -z-1/2'
'x, -y-1/2, z'
'-x-1/2, y-1/2, z-1/2'
loop_
_atom_site_label
_atom_site_type_symbol
_atom_site_fract_x
_atom_site_fract_y
_atom_site_fract_z
_atom_site_U_iso_or_equiv
_atom_site_adp_type
_atom_site_occupancy
_atom_site_site_symmetry_order
_atom_site_calc_flag
_atom_site_refinement_flags_posn
_atom_site_refinement_flags_adp
_atom_site_refinement_flags_occupancy
O1 O 0.2161(4) 0.0242(5) 0.3338(2) 0.0215(6) Uani 1 1 d . . .
O2 O -0.0051(6) 0.2500 0.0731(4) 0.0192(9) Uani 1 2 d S T P
N1 N 0.1781(6) 0.2500 0.5627(4) 0.0105(8) Uani 1 2 d S T P
P1 P 0.27547(18) 0.2500 0.41888(11) 0.0074(3) Uani 1 2 d S T P
Sr1 Sr 0.34101(7) 0.2500 0.07812(5) 0.01132(17) Uani 1 2 d S T P
Sr2 Sr 0.49363(6) 0.2500 0.69794(4) 0.00746(17) Uani 1 2 d S T P
loop_
_atom_site_aniso_label
_atom_site_aniso_U_11
_atom_site_aniso_U_22
_atom_site_aniso_U_33
_atom_site_aniso_U_23
_atom_site_aniso_U_13
_atom_site_aniso_U_12
O1 0.0234(15) 0.0199(13) 0.0213(12) -0.0082(10) -0.0072(12) 0.0018(12)
O2 0.014(2) 0.029(2) 0.0143(17) 0.000 0.0010(14) 0.000
N1 0.0088(19) 0.017(2) 0.0054(16) 0.000 0.0032(15) 0.000
P1 0.0075(6) 0.0091(5) 0.0057(5) 0.000 0.0000(4) 0.000
Sr1 0.0089(3) 0.0120(3) 0.0131(3) 0.000 -0.00151(16) 0.000
Sr2 0.0063(3) 0.0113(3) 0.0048(2) 0.000 0.00004(15) 0.000
loop_
_atom_type_symbol
_atom_type_description
_atom_type_scat_dispersion_real
_atom_type_scat_dispersion_imag
_atom_type_scat_source
N N 0.0061 0.0000 'International Tables Vol C Tables 4.2.6.8 and 6.1.1.4'
O O 0.0106 0.0000 'International Tables Vol C Tables 4.2.6.8 and 6.1.1.4'
P P 0.1023 0.0000 'International Tables Vol C Tables 4.2.6.8 and 6.1.1.4'
Sr Sr -1.5307 0.0000 'International Tables Vol C Tables 4.2.6.8 and 6.1.1.4'
loop_
_geom_angle_atom_site_label_1
_geom_angle_atom_site_label_2
_geom_angle_atom_site_label_3
_geom_angle
_geom_angle_site_symmetry_1
_geom_angle_site_symmetry_3
P1 O1 Sr2 158.17(18) . 2_554
P1 O1 Sr2 108.67(15) . 5_656
Sr2 O1 Sr2 93.15(8) 2_554 5_656
P1 O1 Sr1 91.25(11) . 2
Sr2 O1 Sr1 91.93(9) 2_554 2
Sr2 O1 Sr1 84.27(7) 5_656 2
P1 O1 Sr1 91.59(12) . .
Sr2 O1 Sr1 89.40(7) 2_554 .
Sr2 O1 Sr1 84.68(8) 5_656 .
Sr1 O1 Sr1 168.93(12) 2 .
P1 O1 Sr1 76.04(12) . 6_556
Sr2 O1 Sr1 83.03(9) 2_554 6_556
Sr2 O1 Sr1 165.56(11) 5_656 6_556
Sr1 O1 Sr1 81.96(8) 2 6_556
Sr1 O1 Sr1 109.12(8) . 6_556
P1 O2 Sr1 176.0(2) 6_556 .
P1 O2 Sr2 92.70(17) 6_556 6_556
Sr1 O2 Sr2 91.34(13) . 6_556
P1 O2 Sr2 90.39(10) 6_556 2_564
Sr1 O2 Sr2 87.99(9) . 2_564
Sr2 O2 Sr2 113.72(6) 6_556 2_564
P1 O2 Sr2 90.39(10) 6_556 2_554
Sr1 O2 Sr2 87.99(9) . 2_554
Sr2 O2 Sr2 113.72(6) 6_556 2_554
Sr2 O2 Sr2 132.47(13) 2_564 2_554
P1 N1 Sr2 94.18(19) . .
P1 N1 Sr2 176.9(2) . 6_557
Sr2 N1 Sr2 88.88(11) . 6_557
P1 N1 Sr1 86.44(16) . 6_556
Sr2 N1 Sr1 179.38(16) . 6_556
Sr2 N1 Sr1 90.50(12) 6_557 6_556
P1 N1 Sr1 94.01(8) . 2_565
Sr2 N1 Sr1 90.84(9) . 2_565
Sr2 N1 Sr1 85.93(8) 6_557 2_565
Sr1 N1 Sr1 89.11(9) 6_556 2_565
P1 N1 Sr1 94.01(8) . 2
Sr2 N1 Sr1 90.84(9) . 2
Sr2 N1 Sr1 85.93(8) 6_557 2
Sr1 N1 Sr1 89.11(9) 6_556 2
Sr1 N1 Sr1 171.65(16) 2_565 2
O1 P1 O1 106.7(2) 7_565 .
O1 P1 O2 107.28(14) 7_565 6_656
O1 P1 O2 107.28(14) . 6_656
O1 P1 N1 110.93(14) 7_565 .
O1 P1 N1 110.93(14) . .
O2 P1 N1 113.4(2) 6_656 .
O1 P1 Sr1 74.60(12) 7_565 6_556
O1 P1 Sr1 74.60(12) . 6_556
O2 P1 Sr1 176.57(15) 6_656 6_556
N1 P1 Sr1 63.19(16) . 6_556
O1 P1 Sr2 126.59(10) 7_565 .
O1 P1 Sr2 126.59(10) . .
O2 P1 Sr2 57.44(14) 6_656 .
N1 P1 Sr2 55.94(15) . .
Sr1 P1 Sr2 119.13(4) 6_556 .
O1 P1 Sr1 60.39(10) 7_565 2_565
O1 P1 Sr1 149.40(13) . 2_565
O2 P1 Sr1 103.18(8) 6_656 2_565
N1 P1 Sr1 57.607(18) . 2_565
Sr1 P1 Sr1 75.13(2) 6_556 2_565
Sr2 P1 Sr1 73.38(2) . 2_565
O1 P1 Sr1 149.40(13) 7_565 2
O1 P1 Sr1 60.39(10) . 2
O2 P1 Sr1 103.18(8) 6_656 2
N1 P1 Sr1 57.607(18) . 2
Sr1 P1 Sr1 75.13(2) 6_556 2
Sr2 P1 Sr1 73.38(2) . 2
Sr1 P1 Sr1 115.18(4) 2_565 2
O1 P1 Sr1 60.72(10) 7_565 .
O1 P1 Sr1 60.72(10) . .
O2 P1 Sr1 84.91(14) 6_656 .
N1 P1 Sr1 161.72(16) . .
Sr1 P1 Sr1 98.52(3) 6_556 .
Sr2 P1 Sr1 142.34(4) . .
Sr1 P1 Sr1 120.225(19) 2_565 .
Sr1 P1 Sr1 120.225(19) 2 .
O1 P1 Sr2 45.70(11) 7_565 5_666
O1 P1 Sr2 127.13(11) . 5_666
O2 P1 Sr2 62.42(6) 6_656 5_666
N1 P1 Sr2 120.77(5) . 5_666
Sr1 P1 Sr2 118.91(2) 6_556 5_666
Sr2 P1 Sr2 92.97(3) . 5_666
Sr1 P1 Sr2 66.043(10) 2_565 5_666
Sr1 P1 Sr2 164.51(4) 2 5_666
Sr1 P1 Sr2 66.617(19) . 5_666
O1 P1 Sr2 127.13(11) 7_565 5_656
O1 P1 Sr2 45.71(11) . 5_656
O2 P1 Sr2 62.42(6) 6_656 5_656
N1 P1 Sr2 120.77(5) . 5_656
Sr1 P1 Sr2 118.91(2) 6_556 5_656
Sr2 P1 Sr2 92.97(3) . 5_656
Sr1 P1 Sr2 164.51(4) 2_565 5_656
Sr1 P1 Sr2 66.043(10) 2 5_656
Sr1 P1 Sr2 66.617(19) . 5_656
Sr2 P1 Sr2 108.43(4) 5_666 5_656
O2 Sr1 N1 149.03(12) . 6_656
O2 Sr1 N1 87.14(9) . 2_554
N1 Sr1 N1 90.89(9) 6_656 2_554
O2 Sr1 N1 87.14(9) . 2_564
N1 Sr1 N1 90.89(9) 6_656 2_564
N1 Sr1 N1 171.65(16) 2_554 2_564
O2 Sr1 O1 80.86(10) . 2_554
N1 Sr1 O1 73.04(8) 6_656 2_554
N1 Sr1 O1 54.34(9) 2_554 2_554
N1 Sr1 O1 118.62(9) 2_564 2_554
O2 Sr1 O1 80.86(10) . 8_665
N1 Sr1 O1 73.04(8) 6_656 8_665
N1 Sr1 O1 118.62(9) 2_554 8_665
N1 Sr1 O1 54.34(9) 2_564 8_665
O1 Sr1 O1 64.34(10) 2_554 8_665
O2 Sr1 O1 73.37(10) . 7_565
N1 Sr1 O1 133.36(8) 6_656 7_565
N1 Sr1 O1 117.23(9) 2_554 7_565
N1 Sr1 O1 66.72(9) 2_564 7_565
O1 Sr1 O1 153.53(3) 2_554 7_565
O1 Sr1 O1 116.098(11) 8_665 7_565
O2 Sr1 O1 73.37(10) . .
N1 Sr1 O1 133.36(8) 6_656 .
N1 Sr1 O1 66.72(9) 2_554 .
N1 Sr1 O1 117.23(9) 2_564 .
O1 Sr1 O1 116.098(11) 2_554 .
O1 Sr1 O1 153.53(3) 8_665 .
O1 Sr1 O1 50.62(10) 7_565 .
O2 Sr1 O1 150.98(7) . 4
N1 Sr1 O1 52.07(8) 6_656 4
N1 Sr1 O1 117.67(10) 2_554 4
N1 Sr1 O1 69.55(10) 2_564 4
O1 Sr1 O1 125.06(5) 2_554 4
O1 Sr1 O1 98.04(8) 8_665 4
O1 Sr1 O1 81.41(6) 7_565 4
O1 Sr1 O1 101.51(6) . 4
O2 Sr1 O1 150.98(7) . 6_656
N1 Sr1 O1 52.07(8) 6_656 6_656
N1 Sr1 O1 69.55(10) 2_554 6_656
N1 Sr1 O1 117.67(10) 2_564 6_656
O1 Sr1 O1 98.04(8) 2_554 6_656
O1 Sr1 O1 125.06(5) 8_665 6_656
O1 Sr1 O1 101.51(6) 7_565 6_656
O1 Sr1 O1 81.41(6) . 6_656
O1 Sr1 O1 48.16(10) 4 6_656
O2 Sr1 P1 179.40(9) . 6_656
N1 Sr1 P1 30.37(8) 6_656 6_656
N1 Sr1 P1 92.83(9) 2_554 6_656
N1 Sr1 P1 92.83(9) 2_564 6_656
O1 Sr1 P1 98.63(6) 2_554 6_656
O1 Sr1 P1 98.63(6) 8_665 6_656
O1 Sr1 P1 107.17(6) 7_565 6_656
O1 Sr1 P1 107.17(6) . 6_656
O1 Sr1 P1 29.35(5) 4 6_656
O1 Sr1 P1 29.35(5) 6_656 6_656
O2 Sr1 P1 74.84(5) . 2_554
N1 Sr1 P1 89.06(5) 6_656 2_554
N1 Sr1 P1 28.38(8) 2_554 2_554
N1 Sr1 P1 143.53(8) 2_564 2_554
O1 Sr1 P1 28.36(5) 2_554 2_554
O1 Sr1 P1 91.09(5) 8_665 2_554
O1 Sr1 P1 133.41(6) 7_565 2_554
O1 Sr1 P1 88.02(5) . 2_554
O1 Sr1 P1 134.11(5) 4 2_554
O1 Sr1 P1 90.41(5) 6_656 2_554
P1 Sr1 P1 104.87(2) 6_656 2_554
O1 Sr2 O1 74.63(12) 2 8_666
O1 Sr2 O1 153.57(7) 2 3_656
O1 Sr2 O1 100.46(9) 8_666 3_656
O1 Sr2 O1 100.46(9) 2 5_656
O1 Sr2 O1 153.57(7) 8_666 5_656
O1 Sr2 O1 72.15(13) 3_656 5_656
O1 Sr2 N1 75.83(9) 2 .
O1 Sr2 N1 75.83(9) 8_666 .
O1 Sr2 N1 128.92(7) 3_656 .
O1 Sr2 N1 128.92(7) 5_656 .
O1 Sr2 O2 122.02(9) 2 6_656
O1 Sr2 O2 122.02(9) 8_666 6_656
O1 Sr2 O2 82.96(9) 3_656 6_656
O1 Sr2 O2 82.96(9) 5_656 6_656
N1 Sr2 O2 59.74(12) . 6_656
O1 Sr2 N1 80.24(9) 2 6_657
O1 Sr2 N1 80.24(9) 8_666 6_657
O1 Sr2 N1 73.33(9) 3_656 6_657
O1 Sr2 N1 73.33(9) 5_656 6_657
N1 Sr2 N1 149.77(13) . 6_657
O2 Sr2 N1 150.49(13) 6_656 6_657
O1 Sr2 O2 70.96(9) 2 2
O1 Sr2 O2 141.56(10) 8_666 2
O1 Sr2 O2 117.98(10) 3_656 2
O1 Sr2 O2 52.50(10) 5_656 2
N1 Sr2 O2 79.60(8) . 2
O2 Sr2 O2 66.28(6) 6_656 2
N1 Sr2 O2 109.71(7) 6_657 2
O1 Sr2 O2 141.56(10) 2 2_565
O1 Sr2 O2 70.96(9) 8_666 2_565
O1 Sr2 O2 52.50(10) 3_656 2_565
O1 Sr2 O2 117.98(10) 5_656 2_565
N1 Sr2 O2 79.60(8) . 2_565
O2 Sr2 O2 66.28(7) 6_656 2_565
N1 Sr2 O2 109.71(7) 6_657 2_565
O2 Sr2 O2 132.47(13) 2 2_565
O1 Sr2 P1 99.48(7) 2 .
O1 Sr2 P1 99.48(7) 8_666 .
O1 Sr2 P1 106.95(6) 3_656 .
O1 Sr2 P1 106.95(6) 5_656 .
N1 Sr2 P1 29.88(8) . .
O2 Sr2 P1 29.86(9) 6_656 .
N1 Sr2 P1 179.65(9) 6_657 .
O2 Sr2 P1 70.37(7) 2 .
O2 Sr2 P1 70.37(7) 2_565 .
O1 Sr2 P1 162.45(6) 2 5_666
O1 Sr2 P1 88.28(6) 8_666 5_666
O1 Sr2 P1 25.63(6) 3_656 5_666
O1 Sr2 P1 93.08(7) 5_656 5_666
N1 Sr2 P1 104.19(5) . 5_666
O2 Sr2 P1 70.43(5) 6_656 5_666
N1 Sr2 P1 93.18(6) 6_657 5_666
O2 Sr2 P1 126.54(8) 2 5_666
O2 Sr2 P1 27.19(8) 2_565 5_666
P1 Sr2 P1 87.03(3) . 5_666
O1 Sr2 P1 88.28(6) 2 5_656
O1 Sr2 P1 162.45(6) 8_666 5_656
O1 Sr2 P1 93.08(7) 3_656 5_656
O1 Sr2 P1 25.63(6) 5_656 5_656
N1 Sr2 P1 104.19(5) . 5_656
O2 Sr2 P1 70.43(5) 6_656 5_656
N1 Sr2 P1 93.18(5) 6_657 5_656
O2 Sr2 P1 27.19(8) 2 5_656
O2 Sr2 P1 126.54(8) 2_565 5_656
P1 Sr2 P1 87.03(3) . 5_656
P1 Sr2 P1 108.43(4) 5_666 5_656
loop_
_geom_bond_atom_site_label_1
_geom_bond_atom_site_label_2
_geom_bond_distance
_geom_bond_site_symmetry_2
O1 P1 1.568(2) .
O1 Sr2 2.520(3) 2_554
O1 Sr2 2.594(3) 5_656
O1 Sr1 2.869(3) 2
O1 Sr1 2.942(3) .
O1 Sr1 3.083(3) 6_556
O2 P1 1.569(4) 6_556
O2 Sr1 2.473(4) .
O2 Sr2 2.656(4) 6_556
O2 Sr2 3.0437(15) 2_564
O2 Sr2 3.0437(15) 2_554
N1 P1 1.572(4) .
N1 Sr2 2.615(4) .
N1 Sr2 2.690(4) 6_557
N1 Sr1 2.775(4) 6_556
N1 Sr1 2.7930(3) 2_565
N1 Sr1 2.7930(3) 2
P1 O1 1.568(2) 7_565
P1 O2 1.569(4) 6_656
P1 Sr1 3.1036(14) 6_556
P1 Sr2 3.1477(12) .
P1 Sr1 3.2995(7) 2_565
P1 Sr1 3.2995(7) 2
P1 Sr1 3.3721(12) .
P1 Sr2 3.4337(8) 5_666
P1 Sr2 3.4337(8) 5_656
Sr1 N1 2.775(4) 6_656
Sr1 N1 2.7930(3) 2_554
Sr1 N1 2.7930(3) 2_564
Sr1 O1 2.869(3) 2_554
Sr1 O1 2.869(3) 8_665
Sr1 O1 2.942(3) 7_565
Sr1 O1 3.083(3) 4
Sr1 O1 3.083(3) 6_656
Sr1 P1 3.1036(14) 6_656
Sr1 P1 3.2995(7) 2_554
Sr2 O1 2.520(3) 2
Sr2 O1 2.520(3) 8_666
Sr2 O1 2.594(3) 3_656
Sr2 O1 2.594(3) 5_656
Sr2 O2 2.656(4) 6_656
Sr2 N1 2.690(4) 6_657
Sr2 O2 3.0437(15) 2
Sr2 O2 3.0437(15) 2_565
Sr2 P1 3.4337(8) 5_666
Sr2 P1 3.4337(8) 5_656
