#------------------------------------------------------------------------------
#$Date: 2016-02-04 01:10:53 +0200 (Thu, 04 Feb 2016) $
#$Revision: 175496 $
#$URL: svn://www.crystallography.net/cod/cif/4/34/45/4344559.cif $
#------------------------------------------------------------------------------
#
# This file is available in the Crystallography Open Database (COD),
# http://www.crystallography.net/
#
# All data on this site have been placed in the public domain by the
# contributors.
#
data_4344559
loop_
_publ_author_name
'Marchuk, Alexey'
'Schultz, Peter'
'Hoch, Constantin'
'Oeckler, Oliver'
'Schnick, Wolfgang'
_publ_section_title
;
 M2PO3N (M = Ca, Sr): ortho-Oxonitridophosphates with \b-K2SO4 Structure
 Type.
;
_journal_issue                   2
_journal_name_full               'Inorganic chemistry'
_journal_page_first              974
_journal_page_last               982
_journal_paper_doi               10.1021/acs.inorgchem.5b02647
_journal_volume                  55
_journal_year                    2016
_chemical_formula_sum            'N O3 P Sr2'
_chemical_formula_weight         268.22
_chemical_name_systematic
;
 ?
;
_space_group_crystal_system      orthorhombic
_space_group_IT_number           62
_space_group_name_Hall           '-P 2ac 2n'
_space_group_name_H-M_alt        'P n m a'
_symmetry_space_group_name_Hall  '-P 2ac 2n'
_symmetry_space_group_name_H-M   'P n m a'
_audit_creation_method           SHELXL-2014
_cell_angle_alpha                90
_cell_angle_beta                 90
_cell_angle_gamma                90
_cell_formula_units_Z            4
_cell_length_a                   7.1397(5)
_cell_length_b                   5.5649(4)
_cell_length_c                   9.7903(7)
_cell_measurement_temperature    100
_cell_volume                     388.99(5)
_computing_structure_refinement  'SHELXL-2014 (Sheldrick, 2014)'
_diffrn_ambient_temperature      100
_diffrn_measured_fraction_theta_full 1.000
_diffrn_measured_fraction_theta_max 1.000
_diffrn_measurement_device_type  'Bruker CCD'
_diffrn_radiation_type           MoK\a
_diffrn_radiation_wavelength     0.71073
_diffrn_reflns_av_R_equivalents  0.0740
_diffrn_reflns_av_unetI/netI     0.0322
_diffrn_reflns_laue_measured_fraction_full 1.000
_diffrn_reflns_laue_measured_fraction_max 1.000
_diffrn_reflns_limit_h_max       9
_diffrn_reflns_limit_h_min       -9
_diffrn_reflns_limit_k_max       6
_diffrn_reflns_limit_k_min       -7
_diffrn_reflns_limit_l_max       12
_diffrn_reflns_limit_l_min       -13
_diffrn_reflns_number            6591
_diffrn_reflns_point_group_measured_fraction_full 1.000
_diffrn_reflns_point_group_measured_fraction_max 1.000
_diffrn_reflns_theta_full        25.242
_diffrn_reflns_theta_max         28.293
_diffrn_reflns_theta_min         3.532
_exptl_absorpt_coefficient_mu    27.690
_exptl_absorpt_correction_T_max  0.7457
_exptl_absorpt_correction_T_min  0.5429
_exptl_absorpt_correction_type   multi-scan
_exptl_absorpt_process_details   Platon
_exptl_crystal_colour            colorless
_exptl_crystal_density_diffrn    4.580
_exptl_crystal_description       block
_exptl_crystal_F_000             488
_exptl_crystal_size_max          0.73
_exptl_crystal_size_mid          0.36
_exptl_crystal_size_min          0.27
_refine_diff_density_max         0.980
_refine_diff_density_min         -1.214
_refine_diff_density_rms         0.266
_refine_ls_extinction_method     none
_refine_ls_goodness_of_fit_ref   1.114
_refine_ls_hydrogen_treatment    undef
_refine_ls_matrix_type           full
_refine_ls_number_parameters     40
_refine_ls_number_reflns         530
_refine_ls_number_restraints     0
_refine_ls_restrained_S_all      1.114
_refine_ls_R_factor_all          0.0256
_refine_ls_R_factor_gt           0.0234
_refine_ls_shift/su_max          0.001
_refine_ls_shift/su_mean         0.000
_refine_ls_structure_factor_coef Fsqd
_refine_ls_weighting_details
'w=1/[\s^2^(Fo^2^)+(0.0312P)^2^+0.8127P] where P=(Fo^2^+2Fc^2^)/3'
_refine_ls_weighting_scheme      calc
_refine_ls_wR_factor_gt          0.0561
_refine_ls_wR_factor_ref         0.0571
_reflns_Friedel_coverage         0.000
_reflns_number_gt                494
_reflns_number_total             530
_reflns_threshold_expression     'I > 2\s(I)'
_cod_data_source_file            ic5b02647_si_004.cif
_cod_data_source_block           Sr2PO3N_100K
_cod_database_code               4344559
_shelx_space_group_comment
;
The symmetry employed for this shelxl refinement is uniquely defined
by the following loop, which should always be used as a source of
symmetry information in preference to the above space-group names.
They are only intended as comments.
;
_shelxl_version_number           2014-3
_shelx_res_file
;
TITL Pnma in Pnma
CELL 0.71073   7.1397   5.5649   9.7903  90.000  90.000  90.000
ZERR    4.00   0.0005   0.0004   0.0007   0.000   0.000   0.000

LATT  1
SYMM 0.5-X, -Y, 0.5+Z
SYMM -X, 0.5+Y, -Z
SYMM 0.5+X, 0.5-Y, 0.5-Z
SFAC N O P SR
UNIT 4 12 4 8
MERG 4
ACTA
L.S. 20
BOND
FMAP 2
PLAN 20
OMIT 0 60

WGHT    0.031200    0.812700
FVAR       1.69306
O1    2    0.216600    0.022764    0.333550    11.00000    0.01819    0.01460 =
         0.02265   -0.00664   -0.00717    0.00222
O2    2   -0.004240    0.250000    0.072642    10.50000    0.00817    0.02279 =
         0.01646    0.00000    0.00107    0.00000
N1    1    0.177092    0.250000    0.563472    10.50000    0.00623    0.01826 =
         0.00482    0.00000    0.00150    0.00000
P1    3    0.275228    0.250000    0.418988    10.50000    0.00440    0.00817 =
         0.00592    0.00000   -0.00004    0.00000
SR1   4    0.341078    0.250000    0.077952    10.50000    0.00488    0.00892 =
         0.01254    0.00000   -0.00175    0.00000
SR2   4    0.493840    0.250000    0.697820    10.50000    0.00278    0.00790 =
         0.00539    0.00000    0.00003    0.00000
HKLF 4 1 0 1 0 1 0 0 0 0 -1

REM  Pnma in Pnma
REM R1 =  0.0234 for     494 Fo > 4sig(Fo)  and  0.0256 for all     530 data
REM     40 parameters refined using      0 restraints

END

WGHT      0.0312      0.8127

REM Highest difference peak  0.980,  deepest hole -1.214,  1-sigma level  0.266
Q1    1   0.4993  0.1118  0.6958  11.00000  0.05    0.98
Q2    1   0.5687  0.2500  0.6506  10.50000  0.05    0.85
Q3    1   0.5408  0.2500  0.7661  10.50000  0.05    0.79
Q4    1   0.4183  0.2500  0.7470  10.50000  0.05    0.79
Q5    1   0.4158  0.2500  0.0201  10.50000  0.05    0.76
Q6    1   0.1752  0.0367  0.5604  11.00000  0.05    0.75
Q7    1   0.5149 -0.0376  0.6931  11.00000  0.05    0.75
Q8    1   0.3461  0.0985  0.0844  11.00000  0.05    0.73
Q9    1   0.4190  0.2500  0.1330  10.50000  0.05    0.71
Q10   1   0.4342  0.2500  0.6547  10.50000  0.05    0.62
Q11   1   0.2070 -0.0465  0.4112  11.00000  0.05    0.61
Q12   1   0.2756 -0.0324  0.4259  11.00000  0.05    0.60
Q13   1   0.1787  0.0585  0.2825  11.00000  0.05    0.60
Q14   1   0.1970  0.2500  0.4883  10.50000  0.05    0.60
Q15   1   0.2664  0.2500  0.1519  10.50000  0.05    0.60
Q16   1   0.3299  0.2500 -0.0224  10.50000  0.05    0.58
Q17   1   0.2776  0.0657  0.4073  11.00000  0.05    0.57
Q18   1   0.3230  0.0561  0.2502  11.00000  0.05    0.57
Q19   1   0.1081  0.0375  0.6645  11.00000  0.05    0.57
Q20   1   0.3111  0.2500  0.5218  10.50000  0.05    0.53
;
_shelx_res_checksum              13969
_shelx_hkl_file
;
   0   0  -2  29.356  25.205   1-0.60488 0.60488-0.79300 0.79300-0.07259-0.07259  0 331.71 275.91  111.66 331.69 275.80  111.77
   0   0  -2  17.775  29.088   2 0.03105-0.03105-0.99688 0.99688-0.07252-0.07252  0 325.27 283.11  114.55 325.24 283.10  114.49
   0   0  -2  38.928  28.588   2-0.11442 0.11442 0.99078-0.99078-0.07256-0.07256  0 284.42 226.90  286.77 284.33 227.02  286.61
   0   0   2  31.349  26.033   1-0.53656 0.53656-0.84073 0.84073 0.07259 0.07259  0 269.78 241.20  121.52 269.79 241.01  121.36
   0   0   2  29.868  29.083   2 0.00598-0.00598-0.99735 0.99735 0.07252 0.07252  0 274.44 233.74  105.99 274.57 233.95  106.09
   0   0   2  32.926  27.700   2-0.13978 0.13978 0.98752-0.98752 0.07256 0.07256  0 314.93 289.94  294.90 315.09 290.19  295.10
   0   0  -3  29.805  38.477   1-0.61951 0.61951-0.77740 0.77740-0.10888-0.10888  0 348.45 285.25  109.43 348.65 285.44  109.36
   0   0  -3  -4.845  41.403   2 0.03709-0.03709-0.99337 0.99337-0.10879-0.10879  0 338.69 296.96  116.32 338.89 296.55  116.60
   0   0  -3 -13.212  39.437   2-0.10783 0.10783 0.98819-0.98819-0.10885-0.10884  0 276.75 211.40  284.52 276.54 211.31  284.49
   0   0   3   2.126  32.947   1-0.51695 0.51695-0.84906 0.84906 0.10888 0.10888  0 255.01 232.33  123.47 254.87 232.51  123.77
   0   0   3  49.814  45.128   2-0.00059 0.00059-0.99407 0.99407 0.10879 0.10879  0 261.95 222.37  104.11 262.01 222.08  103.96
   0   0   3  -6.826  41.011   2-0.14597 0.14597 0.98328-0.98328 0.10885 0.10885  0 322.88 307.13  297.41 323.07 307.07  297.24
   0   0  -4 10352.2   211.4   1-0.63303 0.63303-0.76040 0.76040-0.14517-0.14517  0 366.57 295.88  107.00 366.65 295.82  106.94
   0   0  -4  9211.9   213.8   2 0.04304-0.04304-0.98849 0.98849-0.14505-0.14505  0 353.36 310.86  118.92 353.32 310.82  118.73
   0   0  -4  8639.6   209.2   2-0.10108 0.10108 0.98424-0.98424-0.14513-0.14513  0 268.32 195.24  282.32 268.55 195.25  282.36
   0   0   4  8781.4   188.0   1-0.49637 0.49637-0.85589 0.85589 0.14517 0.14517  0 239.92 223.75  126.01 239.85 223.81  126.19
   0   0   4  8961.7   205.4   2-0.00739 0.00739-0.98940 0.98940 0.14505 0.14505  0 249.33 210.03  102.10 249.20 210.09  101.83
   0   0   4  8635.6   207.6   2-0.15185 0.15185 0.97769-0.97769 0.14513 0.14513  0 331.39 324.90  299.47 331.36 324.86  299.38
   0   0  -5  56.050  68.277   1-0.64551 0.64551-0.74188 0.74188-0.18147-0.18147  0 385.86 307.09  104.52 386.02 307.20  104.50
   0   0  -5  51.225  76.091   2 0.04892-0.04892-0.98221 0.98221-0.18131-0.18131  0 368.71 325.81  120.80 368.83 326.19  120.87
   0   0  -5 -72.863  68.311   2-0.09422 0.09422 0.97888-0.97888-0.18141-0.18141  0 260.12 178.84  280.43 260.23 178.62  280.22
   0   0   5 -23.957  49.324   1-0.47479 0.47479-0.86119 0.86119 0.18147 0.18147  0 224.77 214.88  128.47 224.56 214.76  128.62
   0   0   5 -72.429  42.724   2-0.01419 0.01419-0.98332 0.98332 0.18131 0.18131  0 235.71 197.64   99.43 235.94 197.86   99.69
   0   0   5  16.509  74.892   2-0.15826 0.15826 0.97056-0.97056 0.18156 0.18156  0 340.43 343.59  301.59 340.10 343.84  301.49
   0   0  -6 17369.0   342.1   1-0.65691 0.65691-0.72184 0.72184-0.21776-0.21776  0 406.83 320.02  101.94 407.19 319.91  102.03
   0   0  -6 16536.5   358.4   2 0.05467-0.05467-0.97451 0.97451-0.21757-0.21757  0 385.52 343.10  123.00 385.77 342.98  123.00
   0   0  -6 15818.8   334.6   2-0.08730 0.08730 0.97211-0.97211-0.21769-0.21769  0 251.52 161.12  277.99 251.47 161.13  278.06
   0   0   6 16748.6   323.1   1-0.45207 0.45207-0.86499 0.86499 0.21776 0.21776  0 208.80 205.09  130.95 208.80 205.18  131.08
   0   0   6 14769.8   324.7   2-0.02155 0.02155-0.97578 0.97578 0.21769 0.21769  0 222.13 185.15   97.51 221.98 185.26   97.48
   0   0   6 16936.3   364.5   2-0.16400 0.16400 0.96210-0.96210 0.21787 0.21787  0 349.44 364.50  304.03 349.40 364.42  303.70
   0   0  -7  41.399 111.438   1-0.66710 0.66710-0.70031 0.70031-0.25406-0.25405  0 430.60 334.59   99.58 430.67 334.40   99.55
   0   0  -7  72.945 121.303   2 0.06031-0.06031-0.96537 0.96537-0.25383-0.25383  0 404.36 361.67  124.91 404.58 361.64  125.15
   0   0  -7 -10.817  75.132   2-0.08027 0.08027 0.96387-0.96387-0.25397-0.25397  0 242.32 142.53  276.06 242.17 142.53  275.89
   0   0   7 -32.568  68.389   1-0.42824 0.42824-0.86722 0.86722 0.25405 0.25406  0 192.88 195.32  134.18 192.37 194.88  133.57
   0   0   7  70.301  87.438   2-0.02865 0.02865-0.96679 0.96679 0.25397 0.25397  0 207.39 172.03   95.32 207.21 172.08   95.29
   0   0   7 -98.767 117.825   2-0.16957 0.16957 0.95218-0.95218 0.25418 0.25418  0 359.00 386.95  305.80 359.41 387.10  305.90
   0   0  -8 70820.2   780.3   1-0.67640 0.67640-0.67679 0.67679-0.29059-0.29059  0 456.88 351.45   97.19 457.31 351.34   96.99
   0   0  -8 74328.9   851.4   2 0.06584-0.06584-0.95473 0.95473-0.29009-0.29009  0 425.70 382.90  127.02 425.92 382.77  127.33
   0   0  -8 70318.2   813.4   2-0.07320 0.07320 0.95415-0.95415-0.29025-0.29025  0 232.11 122.38  273.70 232.13 122.41  273.70
   0   0   8 73635.1   778.0   1-0.40327 0.40327-0.86780 0.86780 0.29035 0.29035  0 174.91 183.48  135.98 175.00 183.60  136.09
   0   0   8 72044.3   824.3   2-0.03575 0.03575-0.95628 0.95628 0.29025 0.29025  0 191.42 157.96   92.98 191.26 158.09   93.08
   0   0   8 72373.1   844.8   2-0.17510 0.17510 0.94072-0.94072 0.29049 0.29049  0 370.50 412.65  308.19 370.41 412.50  308.13
   0   0  -9 -43.282 172.172   1-0.68428 0.68428-0.65184 0.65184-0.32692-0.32692  0 487.98 371.67   94.33 487.94 371.49   94.43
   0   0  -9 -59.044 199.140   2 0.07113-0.07113-0.94257 0.94257-0.32636-0.32636  0 450.60 407.30  129.36 450.62 407.21  129.52
   0   0  -9 -30.980 115.061   2-0.06589 0.06589 0.94289-0.94289-0.32654-0.32654  0 221.10 100.13  271.50 221.12 100.26  271.49
   0   0   9   0.427  96.472   1-0.37704 0.37704-0.86669 0.86669 0.32664 0.32664  0 156.41 171.39  139.21 156.35 171.04  138.67
   0   0   9  16.899 124.428   2-0.04308 0.04308-0.94420 0.94420 0.32653 0.32653  0 173.97 143.17   90.47 173.80 143.06   90.84
   0   0   9  52.943 213.506   2-0.18052 0.18052 0.92769-0.92769 0.32681 0.32681  0 382.62 441.71  310.71 382.74 441.56  310.38
   0   0 -10 14636.7   581.0   2 0.07643-0.07643-0.92880 0.92880-0.36262-0.36262  0 480.21 436.49  131.71 480.11 436.26  131.76
   0   0 -10 15962.4   488.2   2-0.05854 0.05854 0.93002-0.93002-0.36282-0.36282  0 208.74  75.24  269.01 208.85  75.39  269.25
   0   0  10 14452.9   421.6   1-0.34963 0.34963-0.86373 0.86373 0.36294 0.36294  0 135.81 156.60  141.27 136.03 156.74  141.28
   0   0  10 13785.9   460.3   2-0.05046 0.05046-0.93050 0.93050 0.36281 0.36281  0 154.45 126.44   88.62 154.35 126.64   88.57
   0   0  10 15517.9   575.7   2-0.18571 0.18571 0.91305-0.91305 0.36312 0.36312  0 396.52 475.64  312.76 396.80 475.57  312.67
   0   0 -11-105.145 169.237   2-0.05097 0.05097 0.91549-0.91549-0.39910-0.39910  0 194.67  46.89  266.51 194.87  46.88  266.98
   0   0  11 265.749 161.114   1-0.32076 0.32076-0.85891 0.85891 0.39923 0.39923  0 113.02 139.87  143.70 113.43 140.11  143.95
   0   0  11   2.088 175.483   2-0.05794 0.05794-0.91508 0.91508 0.39909 0.39909  0 131.82 107.89   86.67 132.22 108.33   86.26
   0   0 -12  2995.8   345.1   2-0.04335 0.04335 0.89920-0.89920-0.43538-0.43538  0 178.58  13.67  264.58 178.51  13.30  264.66
   0   0  12  3899.4   341.9   1-0.29025 0.29025-0.85210 0.85210 0.43552 0.43552  0  87.88 120.27  146.67  87.76 120.32  146.69
   0   0  12  3500.0   405.9   2-0.06556 0.06556-0.89786 0.89786 0.43537 0.43537  0 106.97  87.48   84.00 106.48  87.48   83.92
   0   0  13-141.867 216.001   1-0.25851 0.25851-0.84295 0.84295 0.47182 0.47182  0  57.81  95.99  150.28  57.83  96.07  149.50
   0   0  13  95.096 274.886   2-0.07329 0.07329-0.87873 0.87873 0.47165 0.47165  0  75.61  63.32   81.51  75.75  63.09   81.53
   0  -1   0   5.032  13.538   1-0.59484 0.59484-0.04974-0.04974-0.80230 0.80230  0 279.23 269.31   49.42 279.39 269.68   49.04
   0  -1   0  -4.931  14.060   2-0.22296 0.22296-0.04975-0.04975 0.97356-0.97356  0 315.11 276.65   22.69 315.18 276.68   22.84
   0  -1   0   2.500  14.393   2 0.12201-0.12201-0.04974-0.04974-0.99128 0.99128  0 286.74 237.69  197.43 286.94 237.83  197.17
   0   1   0  -1.747  14.084   1-0.54813 0.54813 0.04974 0.04974-0.83491 0.83491  0 321.61 245.81   42.35 321.53 245.79   42.47
   0   1   0  -5.587  13.160   2-0.22956 0.22956 0.04975 0.04975 0.97202-0.97202  0 284.09 239.60   17.67 284.19 239.84   17.13
   0   1   0   0.235  15.290   2 0.11552-0.11552 0.04977 0.04977-0.99206 0.99206  0 312.32 278.50  202.88 312.32 278.61  202.85
   0  -1  -1  81.872  21.839   1-0.20801 0.20801 0.52599-0.62546-0.82466 0.75202  0 278.79 278.38    8.51 278.86 278.24    8.46
   0  -1  -1  89.981  27.551   2-0.14308 0.14308-0.63169 0.53216 0.76190-0.83447  0 321.12 279.59   59.22 321.04 279.48   59.26
   0  -1  -1  30.683  23.699   2 0.05488-0.05488 0.53717-0.63671-0.84168 0.76915  0 286.23 231.77  232.68 286.26 231.79  232.59
   0  -1   1  51.710  26.758   1-0.70217 0.70217-0.46808 0.36861-0.53652 0.60917  0 270.83 260.86   78.23 270.77 261.18   78.39
   0  -1   1  42.844  24.886   2 0.12477-0.12477-0.63340 0.53392-0.76370 0.83628  0 281.05 234.91  160.45 281.15 235.00  160.68
   0  -1   1  55.762  25.487   2-0.23638 0.23638 0.52173-0.62128 0.81971-0.74708  0 316.28 283.32  348.02 316.25 283.36  348.09
   0   1  -1  61.324  27.121   1-0.69255 0.69255-0.37415 0.47362-0.61675 0.54411  0 330.63 254.46   71.29 330.80 254.57   71.29
   0   1  -1  47.453  25.153   2 0.13025-0.13025-0.53350 0.63298-0.83571 0.76313  0 318.20 281.64  167.69 318.26 281.69  167.73
   0   1  -1  39.551  23.778   2-0.23121 0.23121 0.62202-0.52247 0.74809-0.82071  0 283.22 233.82  340.57 283.31 233.64  340.97
   0   1   1  65.858  25.145   2-0.16288 0.16288-0.53035 0.62988 0.83198-0.75942  0 278.43 237.10   51.91 278.60 237.33   52.10
   0   1   1  69.174  26.671   2 0.03503-0.03503 0.63723-0.53770-0.76987 0.84241  0 312.86 284.97  239.75 313.00 284.93  239.74
   0  -1  -2  1129.9    58.3   1-0.25898 0.25898-0.84310 0.74357 0.47129-0.61647  0 331.98 288.17  149.48 332.00 288.18  149.46
   0  -1  -2  1190.6    73.1   2-0.07724 0.07724-0.86878 0.76926 0.48913-0.63426  0 331.28 288.42   80.18 331.37 288.42   80.36
   0  -1  -2  1162.2    72.8   2 0.00190-0.00190 0.77157-0.87115-0.63614 0.49102  0 281.32 220.10  251.02 281.42 220.10  250.81
   0  -1   2  1058.5    73.0   1-0.68595 0.68595-0.64574 0.54626-0.33540 0.48070  0 258.28 252.67   94.07 258.42 252.71   93.82
   0  -1   2  1141.2    74.7   2 0.09390-0.09390-0.86732 0.76773-0.48881 0.63386  0 271.30 226.74  140.05 271.41 226.78  139.81
   0  -1   2 989.350  70.375   2-0.21873 0.21873 0.75183-0.85138 0.62202-0.47678  0 321.26 296.00  330.68 321.37 295.91  330.49
   0   1  -2  1172.0    74.2   1-0.70233 0.70233-0.53313 0.63261-0.47171 0.32641  0 344.57 263.54   83.64 344.62 263.59   83.64
   0   1  -2  1116.5    72.9   2 0.11148-0.11147-0.76678 0.86626-0.63216 0.48700  0 328.62 290.87  150.02 328.62 290.81  149.98
   0   1  -2  1080.0    70.5   2-0.20144 0.20144 0.85445-0.75491 0.47888-0.62413  0 278.21 221.91  320.32 278.33 221.87  320.24
   0   1   2  1186.9    59.5   1-0.09317 0.09317-0.76831 0.86778 0.63326-0.48813  0 269.29 229.18  163.43 269.42 229.21  163.44
   0   1   2  1250.7    74.7   2-0.11005 0.11005-0.76670 0.86623 0.63250-0.48738  0 268.84 229.20   69.97 268.90 229.27   70.15
   0   1   2  1175.0    72.7   2-0.03149 0.03149 0.87074-0.77116-0.49073 0.63586  0 317.90 297.49  261.19 317.92 297.39  261.05
   0  -1  -3 26245.2   266.1   1-0.42089 0.42089-0.86757 0.76805 0.26489-0.48265  0 346.27 298.21  134.27 346.24 298.15  134.32
   0  -1  -3 25744.8   305.4   2-0.03840 0.03840-0.95200 0.85248 0.30367-0.52136  0 343.77 300.14   92.06 343.82 300.13   92.25
   0  -1  -3 26811.9   310.7   2-0.02465 0.02465 0.85277-0.95235-0.52171 0.30402  0 274.79 206.08  259.06 274.93 206.12  258.97
   0  -1   3 26252.7   307.0   1-0.65219 0.65219-0.73057 0.63105-0.20228 0.42004  0 244.91 244.22  103.03 244.85 244.27  103.09
   0  -1   3 24238.0   298.6   2 0.06787-0.06787-0.95042 0.85083-0.30348 0.52105  0 259.91 216.57  127.97 260.08 216.58  128.14
   0  -1   3 25418.5   303.6   2-0.20577 0.20577 0.83362-0.93317 0.51257-0.29470  0 328.08 311.19  322.99 328.20 311.13  322.54
   0   1  -3 25179.0   300.9   1-0.69663 0.69663-0.59376 0.69323-0.40269 0.18474  0 360.64 273.05   89.08 360.69 273.04   88.91
   0   1  -3 24498.2   298.7   2 0.09800-0.09800-0.84853 0.94812-0.52000 0.30242  0 341.01 302.62  142.02 341.02 302.59  141.89
   0   1  -3 24081.6   297.0   2-0.17610 0.17610 0.93846-0.83891 0.29712-0.51499  0 271.62 207.88  308.96 271.73 207.89  308.54
   0   1   3 26565.0   309.7   2-0.08415 0.08415-0.84990 0.94943 0.52018-0.30249  0 257.37 219.10   77.95 257.61 219.16   78.26
   0   1   3 24880.3   299.2   2-0.07054 0.07054 0.95034-0.85076-0.30310 0.52079  0 324.62 312.64  273.00 324.56 312.58  272.92
   0  -1  -4 26606.4   312.6   1-0.50493 0.50493-0.85327 0.75375 0.13025-0.42060  0 362.77 309.03  124.90 362.66 308.94  125.19
   0  -1  -4 26095.2   350.9   2-0.01314 0.01314-0.98434 0.88475 0.17579-0.46589  0 357.64 313.50   99.89 357.64 313.42  100.01
   0  -1  -4 29477.9   374.0   2-0.03703 0.03703 0.88424-0.98382-0.46557 0.17532  0 267.45 190.95  262.70 267.62 190.95  262.70
   0  -1   4 22461.4   318.2   1-0.61784 0.61784-0.77927 0.67975-0.10489 0.39524  0 230.55 235.57  109.65 230.49 235.65  109.63
   0  -1   4 24853.2   345.2   2-0.19879 0.19879 0.86589-0.96544 0.45903-0.16854  0 335.80 328.14  319.12 335.89 328.05  318.92
   0   1  -4 24888.0   337.8   1-0.69257 0.69257-0.61709 0.71657-0.37357 0.08298  0 378.41 283.17   91.02 378.44 283.14   91.06
   0   1  -4 25063.8   347.3   2 0.09065-0.09065-0.88089 0.98048-0.46456 0.17447  0 354.80 316.03  137.95 354.79 316.00  138.22
   0   1  -4 23867.7   340.1   2-0.15657 0.15657 0.97274-0.87320 0.17104-0.46154  0 264.21 192.74  301.04 264.35 192.79  300.87
   0   1   4 25976.6   307.4   1-0.27521 0.27521-0.84801 0.94754 0.45291-0.16257  0 243.09 211.62  147.93 243.04 211.69  148.03
   0   1   4 25767.1   345.8   2-0.07182 0.07182-0.88250 0.98202 0.46480-0.17455  0 245.60 208.08   82.12 245.42 208.14   81.99
   0   1   4 23266.6   333.2   2-0.09571 0.09571 0.98008-0.88050-0.17403 0.46429  0 332.22 329.56  280.86 332.14 329.49  280.66
   0  -1  -5 47610.5   465.9   1-0.55715 0.55715-0.82978 0.73026 0.03243-0.39537  0 380.96 320.95  118.82 380.89 320.84  118.70
   0  -1  -5 45673.6   517.2   2 0.00484-0.00484-0.99688 0.89728 0.07881-0.44143  0 372.91 328.35  105.98 372.86 328.24  105.72
   0  -1  -5 44756.9   515.1   2-0.04221 0.04221 0.89646-0.99604-0.44112 0.07830  0 259.53 174.77  263.87 259.74 174.82  264.30
   0  -1   5 42725.3   482.2   1-0.58510 0.58510-0.81051 0.71098-0.02715 0.39008  0 215.62 226.68  114.99 215.57 226.74  114.78
   0  -1   5 42030.8   492.2   2 0.03210-0.03210-0.99638 0.89679-0.07867 0.44129  0 235.13 193.75  114.96 235.02 193.78  114.85
   0  -1   5 41597.2   493.3   2-0.19578 0.19578 0.87839-0.97794 0.43601-0.07290  0 344.25 346.67  317.52 344.30 346.58  317.37
   0   1  -5 42887.3   485.2   1-0.69135 0.69135-0.62304 0.72252-0.36587 0.00263  0 397.60 294.21   91.66 397.98 294.17   91.63
   0   1  -5 41520.2   493.9   2 0.08733-0.08733-0.89354 0.99314-0.44040 0.07778  0 369.92 330.94  136.52 369.89 330.90  136.65
   0   1  -5 31795.6   435.3   2-0.14034 0.14034 0.98719-0.88761 0.07587-0.43869  0 256.39 176.71  295.31 256.50 176.70  295.30
   0   1   5 46517.1   461.3   1-0.29570 0.29570-0.85346 0.95298 0.42915-0.06622  0 228.50 202.29  145.84 228.47 202.39  146.20
   0   1   5 43212.0   496.6   2-0.06667 0.06667-0.89521 0.99474 0.44064-0.07782  0 232.73 196.44   83.60 232.54 196.51   83.58
   0   1   5 40944.5   488.4   2-0.11366 0.11366 0.99055-0.89097-0.07679 0.43961  0 340.49 348.07  286.41 340.37 347.97  286.36
   0  -1  -6  1472.9   145.5   1-0.59320 0.59320-0.80377 0.70425-0.04545-0.39007  0 400.95 334.27  113.57 401.06 334.20  113.57
   0  -1  -6  1501.7   178.4   2 0.01887-0.01887-0.99982 0.90023-0.00013-0.43501  0 389.49 344.71  110.30 389.69 344.71  110.31
   0  -1  -6  1367.4   134.5   2-0.04347 0.04347 0.89948-0.99905-0.43480-0.00058  0 251.36 157.58  264.73 251.28 157.63  264.70
   0  -1   6  1500.0   133.5   1-0.55384 0.55384-0.83170 0.73218 0.03907 0.39645  0 199.99 217.24  119.10 199.99 217.38  119.14
   0  -1   6  1543.8   142.0   2 0.01882-0.01882-0.99982 0.90023 0.00013 0.43501  0 221.32 181.44  110.29 221.37 181.47  110.29
   0  -1   6  1523.4   183.0   2-0.19503 0.19503 0.88124-0.98078 0.43057 0.00517  0 353.47 366.98  316.94 353.44 366.91  317.01
   0   1  -6  1223.5   140.3   1-0.69211 0.69211-0.61936 0.71884-0.37064-0.06524  0 419.24 306.46   91.20 419.61 306.42   91.28
   0   1  -6  1384.0   152.6   2 0.08651-0.08651-0.89666 0.99625-0.43419-0.00095  0 386.20 347.43  136.12 386.53 347.45  136.26
   0   1  -6  1341.3   135.2   2-0.12701 0.12701 0.99190-0.89232-0.00221-0.43317  0 247.92 159.52  290.76 247.98 159.60  290.73
   0   1   6  1679.0   132.8   1-0.29972 0.29972-0.85444 0.95396 0.42439 0.01113  0 213.19 192.37  145.68 213.22 192.48  145.84
   0   1   6  1349.2   139.7   2-0.06536 0.06536-0.89833 0.99786 0.43443 0.00095  0 219.00 184.22   84.05 218.86 184.29   83.99
   0   1   6  1513.6   153.1   2-0.12778 0.12778 0.99180-0.89222 0.00224 0.43314  0 349.41 368.32  291.02 349.29 368.27  290.99
   0  -1  -7  3699.7   229.2   1-0.62063 0.62063-0.77609 0.67657-0.11179-0.39632  0 423.37 349.67  109.00 423.55 349.51  109.17
   0  -1  -7  3906.6   259.3   2 0.03042-0.03042-0.99722 0.89763-0.06797-0.43970  0 408.36 363.31  114.02 408.53 363.17  114.23
   0  -1  -7  3856.9   210.3   2-0.04252 0.04252 0.89718-0.99676-0.43962-0.06832  0 242.29 139.17  264.07 242.19 139.17  264.39
   0  -1   7  3691.0   202.5   1-0.52306 0.52306-0.84665 0.74712 0.09797 0.41014  0 183.55 207.26  122.99 183.58 207.40  123.04
   0  -1   7  3838.9   211.4   2 0.00683-0.00683-0.99767 0.89808 0.06788 0.43979  0 206.83 168.31  106.30 206.77 168.46  106.36
   0  -1   7  3954.4   261.6   2-0.19577 0.19577 0.87842-0.97797 0.43594 0.07242  0 363.54 389.60  317.52 363.42 389.47  317.36
   0   1  -7  3698.4   231.7   1-0.69402 0.69402-0.60949 0.70896-0.38322-0.12531  0 443.53 320.39   90.10 443.89 320.35   90.36
   0   1  -7  3296.4   248.2   2 0.08714-0.08714-0.89424 0.99383-0.43903-0.06863  0 404.99 366.11  136.42 405.21 366.04  136.56
   0   1  -7  3729.4   207.6   2-0.11497 0.11497 0.99094-0.89136-0.06947-0.43848  0 238.81 141.22  287.02 238.80 141.25  286.79
   0   1   7  3898.6   185.9   1-0.29422 0.29422-0.85309 0.95262 0.43090 0.07721  0 197.15 181.61  146.33 197.20 181.73  146.34
   0   1   7  3590.6   207.0   2-0.06638 0.06638-0.89590 0.99543 0.43927 0.06867  0 204.33 171.27   83.69 204.20 171.38   83.67
   0   1   7  3430.4   255.8   2-0.13936 0.13936 0.98776-0.88818 0.07009 0.43785  0 359.23 390.80  295.05 359.04 390.77  294.96
   0  -1  -8  3728.1   271.7   1-0.64195 0.64195-0.74749 0.64796-0.17076-0.40993  0 448.87 367.58  105.32 449.01 367.35  105.22
   0  -1  -8  3298.1   293.8   2 0.04038-0.04038-0.99088 0.89129-0.12855-0.45164  0 430.09 384.39  118.03 430.04 384.24  117.76
   0  -1  -8  3189.6   220.2   2-0.03998 0.03998 0.89128-0.99086-0.45168-0.12882  0 232.35 118.95  263.55 232.30 119.08  263.61
   0  -1   8  3121.8   205.7   1-0.49238 0.49238-0.85701 0.75748 0.15199 0.42870  0 166.03 196.46  126.68 166.10 196.53  126.65
   0  -1   8  3094.4   226.2   2-0.00429 0.00429-0.99171 0.89212 0.12841 0.45178  0 190.92 154.51  102.76 190.94 154.54  102.81
   0  -1   8  3616.4   308.1   2-0.19744 0.19744 0.87176-0.97131 0.44839 0.13260  0 374.50 415.05  318.30 374.47 414.88  318.19
   0   1  -8  3179.5   290.7   1-0.69642 0.69642-0.59516 0.69464-0.40098-0.18021  0 471.25 336.42   88.99 471.56 336.52   89.04
   0   1  -8  3600.7   296.8   2 0.08881-0.08881-0.88805 0.98765-0.45108-0.12911  0 426.28 387.23  137.12 426.44 387.22  137.34
   0   1  -8  3191.9   221.4   2-0.10394 0.10394 0.98610-0.88652-0.12964-0.45087  0 228.80 121.25  283.10 228.83 121.29  283.26
   0   1   8  3512.8   201.7   1-0.28247 0.28247-0.85004 0.94957 0.44457 0.13613  0 180.24 169.87  147.34 180.20 169.89  147.38
   0   1   8  3580.9   238.0   2-0.06893 0.06893-0.88969 0.98922 0.45132 0.12918  0 188.50 157.54   83.00 188.32 157.62   82.88
   0   1   8  2980.4   295.0   2-0.14950 0.14950 0.98009-0.88051 0.13067 0.44984  0 370.10 416.32  298.71 369.81 416.16  298.53
   0  -1  -9  1686.2   227.9   1-0.65901 0.65901-0.71773 0.61820-0.22488-0.42840  0 478.06 388.85  101.55 478.44 388.70  101.55
   0  -1  -9  2088.7   269.3   2 0.04938-0.04938-0.98165 0.88206-0.18417-0.46854  0 455.00 408.69  120.94 455.08 408.69  121.04
   0  -1  -9  1414.2   191.2   2-0.03636 0.03636 0.88261-0.98219-0.46871-0.18436  0 221.31  96.79  262.35 221.40  96.87  262.49
   0  -1   9  1735.8   216.0   1-0.46166 0.46166-0.86359 0.76407 0.20266 0.45063  0 147.13 184.40  129.98 147.24 184.48  130.06
   0  -1   9  1353.8   186.7   2-0.01532 0.01532-0.98274 0.88321 0.18434 0.46872  0 173.44 139.60   99.50 173.42 139.52   99.48
   0  -1   9  1541.6   262.3   2-0.19968 0.19968 0.86212-0.96167 0.46569 0.18792  0 386.72 444.30  319.46 386.92 444.05  319.36
   0   1  -9  1819.4   245.1   1-0.69880 0.69880-0.57734 0.67682-0.42232-0.23151  2 503.32 355.68   87.43 503.77 355.75   87.44
   0   1  -9  1538.6   260.4   2 0.09111-0.09111-0.87898 0.97857-0.46807-0.18464  0 451.10 411.86  138.30 451.14 411.84  138.44
   0   1  -9  1860.3   232.0   2-0.09355 0.09355 0.97828-0.87870-0.18496-0.46811  0 217.79  99.25  280.30 217.82  99.23  280.01
   0   1   9  1924.1   204.6   1-0.26637 0.26637-0.84538 0.94490 0.46301 0.19027  0 161.87 156.63  148.71 161.94 156.62  148.81
   0   1   9  1712.9   203.1   2-0.07258 0.07258-0.88058 0.98010 0.46832 0.18474  0 171.00 142.65   81.64 170.84 142.76   81.75
   0   1   9  1769.5   261.4   2-0.15910 0.15910 0.96944-0.86989 0.18674 0.46688  0 382.12 445.52  301.99 382.02 445.33  301.82
   0  -1 -10  1247.9   302.1   2 0.05756-0.05756-0.96999 0.87039-0.23625-0.48898  0 485.28 437.77  124.35 485.04 437.83  124.10
   0  -1 -10  1163.5   203.7   2-0.03181 0.03181 0.87156-0.97114-0.48925-0.23638  0 209.07  71.51  261.04 209.23  71.86  261.15
   0  -1  10  1066.7   181.3   1-0.43037 0.43037-0.86709 0.76756 0.25087 0.47500  0 126.47 170.71  133.41 126.57 170.85  133.35
   0  -1  10  1135.0   203.3   2-0.02514 0.02514-0.97133 0.87180 0.23641 0.48922  0 154.19 122.80   96.34 153.96 123.02   96.36
   0  -1  10  1493.0   305.1   2-0.20238 0.20238 0.84995-0.94950 0.48645 0.23979  0 401.27 478.67  320.91 401.28 478.34  320.76
   0   1 -10  1298.1   314.0   2 0.09387-0.09387-0.86745 0.96705-0.48858-0.23666  0 480.63 441.32  139.68 480.64 441.20  139.79
   0   1 -10  1312.9   210.7   2-0.08364 0.08364 0.96795-0.86837-0.23682-0.48882  0 205.43  74.51  277.08 205.42  74.40  276.92
   0   1  10 998.990 172.959   1-0.24651 0.24651-0.83924 0.93871 0.48468 0.24095  0 141.70 141.29  150.65 141.98 141.47  150.52
   0   1  10  1209.8   212.1   2-0.07717 0.07717-0.86896 0.96849 0.48883 0.23680  0 151.72 126.53   80.23 151.32 126.49   80.38
   0   1  10  1183.7   303.3   2-0.16728 0.16728 0.95655-0.85700 0.23882 0.48741  0 395.75 479.61  305.01 395.93 479.52  304.96
   0  -1 -11 517.746 210.520   2-0.02669 0.02669 0.85834-0.95792-0.51239-0.28581  0 195.25  42.81  259.49 195.30  43.07  259.60
   0  -1  11 412.403 177.637   1-0.39829 0.39829-0.86776 0.76823 0.29727 0.50119  0 103.57 154.94  136.59 103.46 155.09  136.58
   0  -1  11 672.344 206.223   2-0.03489 0.03489-0.95763 0.85810 0.28589 0.51230  0 132.23 104.57   93.49 131.74 104.54   93.34
   0   1 -11 520.708 204.891   2-0.07401 0.07401 0.95533-0.85575-0.28613-0.51207  0 191.23  45.83  273.98 191.27  45.87  273.95
   0   1  11 658.821 174.786   1-0.22393 0.22393-0.83120 0.93067 0.50888 0.28932  0 120.00 123.74  152.53 119.85 123.69  152.48
   0   1  11 518.882 218.415   2-0.08221 0.08221-0.85509 0.95462 0.51192 0.28626  0 129.32 108.39   79.00 129.06 108.28   78.81
   0  -1 -12 720.112 263.566   2-0.02106 0.02106 0.84301-0.94259-0.53748-0.33328  2 179.02   9.48  258.03 178.98   9.08  257.89
   0  -1  12 387.265 213.869   1-0.36535 0.36535-0.86565 0.76612 0.34230 0.52875  0  76.96 136.24  140.22  77.09 136.41  139.79
   0  -1  12 505.062 245.132   2-0.04447 0.04447-0.94173 0.84220 0.33342 0.53733  0 106.08  83.62   90.51 105.89  83.42   90.42
   0   1 -12 448.033 266.229   2-0.06455 0.06455 0.94053-0.84095-0.33352-0.53724  0 174.45  12.02  271.46 174.68  12.21  271.06
   0   1  12 772.530 204.675   1-0.19906 0.19906-0.82115 0.92063 0.53487 0.33589  0  94.82 102.67  154.57  94.71 102.47  154.61
   0   1  12 689.873 267.330   2-0.08788 0.08788-0.83902 0.93854 0.53696 0.33378  0 102.98  87.52   76.95 103.10  87.49   77.09
   0  -2   0 274.905  47.598   1-0.61540 0.61540-0.09948-0.09948-0.78192 0.78192  0 258.74 281.53   51.85 258.94 281.36   52.35
   0  -2   0 299.489  53.057   2-0.21887 0.21887-0.09950-0.09950 0.97067-0.97067  0 331.44 296.57   25.59 331.50 296.39   25.71
   0  -2   0 439.657  56.183   2 0.12485-0.12485-0.09948-0.09948-0.98718 0.98718  0 274.13 217.65  194.08 274.22 217.72  194.31
   0   2   0 354.766  48.435   1-0.52188 0.52188 0.09948 0.09948-0.84720 0.84720  0 344.19 232.58   38.93 344.17 232.82   39.18
   0   2   0 244.467  48.973   2-0.23228 0.23228 0.09950 0.09950 0.96755-0.96755  0 268.72 221.57   14.35 268.77 221.81   14.25
   0   2   0 351.197  55.239   2 0.11149-0.11149 0.09953 0.09953-0.98877 0.98877  0 325.51 300.33  205.64 325.53 300.24  205.71
   0  -2  -1  4918.2   118.5   1-0.46132 0.46132 0.20267-0.40162-0.86378 0.79113  0 260.96 290.07   31.79 261.17 290.03   32.26
   0  -2  -1  4574.6   132.4   2-0.17953 0.17953-0.43481 0.23581 0.88244-0.95507  0 335.96 297.13   45.94 336.04 297.14   45.81
   0  -2  -1  4437.8   130.4   2 0.09781-0.09781 0.23924-0.43831-0.96602 0.89349  0 274.88 213.62  213.99 274.95 213.66  213.85
   0  -2   1  4003.7   117.2   1-0.68788 0.68788-0.34577 0.14681-0.63817 0.71082  0 252.08 272.90   69.02 251.95 272.81   69.23
   0  -2   1  4126.8   128.0   2-0.23746 0.23746 0.23155-0.43055 0.94340-0.87077  0 330.82 301.05    6.56 330.89 301.00    6.54
   0  -2   1  4236.2   128.3   2 0.13274-0.13274-0.43720 0.23824-0.88951 0.96209  0 269.77 216.97  174.20 269.89 216.95  174.06
   0   2  -1  4005.4   122.9   1-0.63865 0.63865-0.16195 0.36090-0.75227 0.67962  0 352.23 241.76   56.45 352.25 241.78   56.52
   0   2  -1  4429.9   131.6   2 0.13079-0.13079-0.23833 0.43729-0.96234 0.88976  0 330.13 301.48  186.01 330.13 301.37  186.23
   0   2  -1  4461.1   132.5   2-0.23810 0.23810 0.43049-0.23144 0.87062-0.94326  0 269.15 217.47  354.14 269.31 217.55  354.01
   0   2   1  4995.6   118.1   1-0.29941 0.29941 0.42472-0.22577-0.85438 0.92703  0 341.61 223.64   16.44 341.64 223.68   16.47
   0   2   1  4235.1   128.6   2-0.20579 0.20579-0.23403 0.43303 0.95020-0.87757  0 264.51 221.38   33.53 264.69 221.38   33.54
   0   2   1  4586.3   132.6   2 0.07124-0.07124 0.43908-0.24002-0.89562 0.96815  0 324.60 304.62  225.99 324.63 304.50  226.10
   0  -2  -2 46415.9   350.2   1-0.26498 0.26498 0.46455-0.66350-0.84497 0.69968  0 257.56 298.85   13.38 257.81 298.78   13.41
   0  -2  -2 40539.5   385.4   2-0.13252 0.13252-0.67892 0.47987 0.72215-0.86728  0 343.94 302.66   63.04 343.99 302.66   62.85
   0  -2  -2 40642.5   386.7   2 0.06410-0.06410 0.48371-0.68278-0.87288 0.72781  0 272.55 205.33  229.00 272.65 205.31  228.99
   0  -2   2 35111.4   360.4   1-0.70298 0.70298-0.51259 0.31363-0.49302 0.63832  0 241.96 264.39   82.07 241.87 264.36   81.95
   0  -2   2 38354.8   378.5   2 0.12114-0.12114-0.68001 0.48105-0.72313 0.86828  0 262.38 212.09  156.94 262.55 212.09  157.14
   0  -2   2 39469.8   382.7   2-0.23733 0.23733 0.46854-0.66759 0.85097-0.70569  0 333.57 310.41  351.88 333.66 310.35  351.54
   0   2  -2 32884.6   348.9   1-0.68369 0.68369-0.32474 0.52370-0.65354 0.50824  0 364.20 250.86   67.99 364.27 250.82   67.72
   0   2  -2 40745.4   389.4   2 0.13191-0.13191-0.48023 0.67919-0.86717 0.72201  0 338.18 307.24  170.99 338.16 307.17  171.27
   0   2  -2 33248.0   353.8   2-0.22758 0.22758 0.66883-0.46973 0.70772-0.85297  0 266.56 209.03  337.55 266.70 209.09  337.40
   0   2   2 39856.7   382.9   2-0.17274 0.17274-0.47665 0.67565 0.86196-0.71670  0 257.23 216.82   48.49 257.51 216.83   48.51
   0   2   2 42908.1   395.7   2 0.02448-0.02448 0.68382-0.48475-0.72924 0.87431  0 326.94 313.66  243.25 326.98 313.52  243.34
   0  -2  -3 47827.3   386.3   1-0.18768 0.18768-0.81631 0.61737 0.54627-0.76395  0 354.67 312.00  155.67 354.63 311.93  155.58
   0  -2  -3 51659.8   476.6   2-0.09215 0.09215-0.82626 0.62721 0.55570-0.77338  0 354.57 311.64   75.94 354.61 311.62   75.79
   0  -2  -3 53419.3   486.1   2 0.03667-0.03667 0.62973-0.82880-0.77595 0.55835  0 268.04 193.98  238.98 268.16 194.00  239.18
   0  -2   3 45419.9   450.0   1-0.69164 0.69164-0.62164 0.42268-0.36769 0.58564  0 230.04 255.91   91.42 229.94 255.89   91.49
   0  -2   3 48592.0   463.9   2 0.10248-0.10248-0.82518 0.62599-0.55549 0.77306  0 253.24 204.54  143.93 253.12 204.51  144.32
   0  -2   3 51467.0   479.2   2-0.23201 0.23201 0.61019-0.80929 0.75752-0.53965  0 338.49 323.09  342.03 338.63 323.03  341.85
   0   2  -3 42510.2   436.8   1-0.69826 0.69826-0.41785 0.61681-0.58123 0.36328  0 379.13 260.26   74.49 379.11 260.25   74.53
   0   2  -3 49461.3   471.6   2 0.12535-0.12535-0.62478 0.82374-0.77067 0.55294  0 348.75 316.43  160.98 348.72 316.39  161.31
   0   2  -3 48736.8   471.8   2-0.20951 0.20951 0.81309-0.61400 0.54313-0.76100  0 261.89 197.70  325.11 262.02 197.76  324.68
   0   2   3 48233.0   459.4   2-0.14500 0.14500-0.62250 0.82155 0.76907-0.55139  0 248.28 209.48   58.58 248.14 209.54   58.58
   0   2   3 52192.1   478.3   2-0.01626 0.01626 0.82922-0.63006-0.55868 0.77637  0 331.56 326.18  256.32 331.52 326.05  256.43
   0  -2  -4 14482.9   246.6   1-0.33812 0.33812-0.86204 0.66299 0.37758-0.66792  0 367.68 323.33  142.32 367.61 323.24  142.35
   0  -2  -4 14046.1   288.0   2-0.06033 0.06033-0.90982 0.71077 0.41059-0.70084  0 367.24 323.18   85.56 367.31 323.15   85.52
   0  -2  -4 13509.2   284.7   2 0.01764-0.01764 0.71205-0.91112-0.70191 0.41177  0 262.13 180.64  245.69 262.27 180.66  245.62
   0  -2   4 12614.5   267.8   1-0.66939 0.66939-0.69501 0.49606-0.26244 0.55303  0 216.84 247.32   98.98 216.78 247.31   98.95
   0  -2   4 13432.9   277.3   2 0.08313-0.08313-0.90821 0.70902-0.41017 0.70027  0 242.36 195.22  134.59 242.24 195.21  134.72
   0  -2   4 14212.6   292.6   2-0.22555 0.22555 0.69082-0.88992 0.68695-0.39645  0 344.93 338.34  335.80 345.07 338.28  335.65
   0   2  -4 12697.0   276.7   1-0.70225 0.70225-0.46971 0.66867-0.53499 0.24440  0 395.97 270.24   78.46 396.27 270.25   78.51
   0   2  -4 13805.4   288.7   2 0.11859-0.11859-0.70661 0.90557-0.69759 0.40728  0 361.30 328.15  155.10 361.22 328.09  155.03
   0   2  -4  7235.0   216.7   2-0.19095 0.19095 0.89610-0.69700 0.40069-0.69118  0 256.02 184.41  315.03 255.95 184.47  315.07
   0   2   4 13723.8   233.5   1-0.00645 0.00645-0.71249 0.91143 0.70165-0.41140  0 239.01 199.10  170.57 238.96 199.17  170.54
   0   2   4 14595.4   286.2   2-0.12607 0.12607-0.70561 0.90466 0.69730-0.40705  0 237.43 200.40   64.99 237.28 200.46   64.97
   0   2   4 14312.3   291.2   2-0.04848 0.04848 0.91028-0.71112-0.41114 0.70139  0 337.66 341.33  265.96 337.61 341.21  266.21
   0  -2  -5 13753.0   267.1   1-0.43815 0.43815-0.86650 0.66745 0.23918-0.60211  0 383.34 335.92  132.61 383.44 335.81  132.54
   0  -2  -5 19889.1   372.2   2-0.03548 0.03548-0.95671 0.75765 0.28889-0.65170  0 381.85 336.86   93.00 381.87 336.81   93.16
   0  -2  -5 11893.1   291.0   2 0.00569-0.00569 0.75804-0.95720-0.65218 0.28936  0 255.29 165.61  249.55 255.38 165.70  249.59
   0  -2   5 18295.1   349.3   1-0.64277 0.64277-0.74622 0.54717-0.17321 0.53615  0 202.67 238.46  105.03 202.69 238.55  105.05
   0  -2   5 17882.0   347.4   2 0.06562-0.06562-0.95518 0.75599-0.28867 0.65128  0 230.33 184.70  127.01 230.22 184.72  127.24
   0  -2   5 18587.2   366.4   2-0.22065 0.22065 0.73619-0.93529 0.63980-0.27668  0 352.55 355.84  332.00 352.67 355.76  331.86
   0   2  -5 18297.1   353.5   1-0.70306 0.70306-0.49720 0.69615-0.50843 0.14519  0 415.46 281.06   80.76 415.74 281.04   80.70
   0   2  -5 18363.3   363.2   2 0.11334-0.11334-0.75262 0.95158-0.64862 0.28573  0 375.66 342.01  150.99 375.52 341.94  151.21
   0   2  -5 16787.7   337.1   2-0.17372 0.17372 0.94376-0.74466 0.28132-0.64444  0 249.03 169.58  307.79 248.84 169.62  307.55
   0   2   5 19677.1   309.7   1-0.07261 0.07261-0.75603 0.95497 0.65050-0.28769  0 226.43 189.34  164.83 226.44 189.45  165.14
   0   2   5 18771.8   352.7   2-0.11399 0.11399-0.75237 0.95143 0.64880-0.28599  0 225.40 190.07   69.00 225.25 190.17   68.88
   0   2   5 19710.9   371.8   2-0.07363 0.07363 0.95479-0.75563-0.28803 0.65085  0 344.98 358.77  274.01 344.86 358.61  273.83
   0  -2  -6 14058.1   308.6   1-0.50712 0.50712-0.85255 0.65350 0.12640-0.56193  0 401.56 350.14  125.21 401.82 350.01  124.93
   0  -2  -6 13094.4   343.7   2-0.01562 0.01562-0.98243 0.78337 0.18598-0.62136  0 398.10 352.64   99.38 398.42 352.59   99.38
   0  -2  -6 14075.3   338.5   2-0.00157 0.00157 0.78335-0.98251-0.62157 0.18619  0 247.71 149.17  252.00 247.60 149.25  251.90
   0  -2   6 12599.9   318.5   1-0.61392 0.61392-0.78364 0.58459-0.09491 0.53043  0 187.53 229.25  109.93 187.53 229.33  110.29
   0  -2   6 13306.4   331.5   2 0.04968-0.04968-0.98129 0.78210-0.18603 0.62117  0 217.20 173.19  121.12 217.10 173.19  121.15
   0  -2   6 13985.2   358.8   2-0.21749 0.21749 0.76108-0.96018 0.61111-0.17537  0 361.20 375.60  330.05 361.33 375.50  329.66
   0   2  -6 12873.8   336.4   1-0.70301 0.70301-0.50968 0.70863-0.49598 0.06010  0 437.47 293.03   81.95 437.80 292.98   81.71
   0   2  -6 13403.4   354.3   2 0.11006-0.11006-0.77757 0.97675-0.61909 0.18395  0 391.51 357.98  149.00 391.77 357.94  148.88
   0   2   6 13974.4   290.3   1-0.11014 0.11014-0.77794 0.97688 0.61861-0.18323  0 212.57 178.91  162.00 212.59 179.06  162.04
   0   2   6 13364.8   330.1   2-0.10677 0.10677-0.77813 0.97719 0.61896-0.18359  0 212.23 178.74   70.86 212.11 178.87   71.17
   0   2   6 12837.0   349.0   2-0.09367 0.09367 0.97839-0.77924-0.18431 0.61969  0 353.27 378.43  280.00 353.07 378.27  280.05
   0  -2  -7  2724.8   217.7   1-0.55737 0.55737-0.82965 0.63059 0.03197-0.54008  0 422.72 366.46  118.70 422.88 366.34  118.67
   0  -2  -7  2498.3   252.2   2 0.00142-0.00142-0.99523 0.79604 0.09758-0.60524  0 417.11 370.72  104.66 417.18 370.58  104.62
   0  -2  -7  2724.8   201.2   2-0.00549 0.00549 0.79609-0.99525-0.60515 0.09721  0 238.95 131.16  252.98 238.96 131.20  253.10
   0  -2   7  2741.8   188.2   1-0.58404 0.58404-0.81134 0.61229-0.02480 0.53291  0 171.28 219.44  115.11 171.32 219.54  114.94
   0  -2   7  2586.2   203.5   2 0.03525-0.03525-0.99463 0.79544-0.09734 0.60501  0 202.80 160.61  115.93 202.82 160.67  115.94
   0  -2   7  2598.4   256.1   2-0.21578 0.21578 0.77340-0.97249 0.59607-0.08770  0 371.09 398.11  329.03 371.11 397.84  328.53
   0   2  -7  2314.9   230.2   1-0.70299 0.70299-0.51209 0.71104-0.49353-0.01500  0 462.90 306.62   82.11 462.95 306.50   81.91
   0   2  -7  2534.5   252.9   2 0.10816-0.10816-0.79036 0.98955-0.60301 0.09535  0 410.12 376.33  147.60 410.23 376.29  147.70
   0   2  -7  2778.2   197.8   2-0.14325 0.14325 0.98528-0.78612 0.09330-0.60124  0 232.08 135.34  296.38 232.18 135.45  296.32
   0   2   7  2611.6   162.5   1-0.12919 0.12920-0.78824 0.98718 0.60166-0.09371  0 197.60 167.58  160.47 197.59 167.72  160.47
   0   2   7  2704.8   199.5   2-0.10295 0.10295-0.79108 0.99013 0.60299-0.09505  0 197.84 166.53   72.30 197.78 166.60   72.36
   0   2   7  2514.0   254.4   2-0.11036 0.11036 0.98935-0.79019-0.09490 0.60284  0 362.56 400.64  285.33 362.36 400.54  285.30
   0  -2  -8  1880.1   201.6   1-0.59511 0.59511-0.80212 0.60307-0.04951-0.53118  0 447.01 385.89  112.93 447.14 385.56  113.30
   0  -2  -8  2103.2   248.1   2 0.01554-0.01554-0.99970 0.80051 0.01892-0.59911  0 438.91 391.61  109.30 438.96 391.56  109.21
   0  -2  -8  1386.0   175.5   2-0.00688 0.00688 0.80064-0.99980-0.59910 0.01859  0 229.59 111.19  253.46 229.38 111.26  253.54
   0  -2   8  2050.0   193.4   1-0.55371 0.55371-0.83178 0.63273 0.03935 0.54135  0 153.69 208.82  119.28 153.84 208.94  119.16
   0  -2   8  2102.4   211.1   2 0.02196-0.02196-0.99958 0.80039-0.01888 0.59907  0 187.25 146.95  111.12 187.15 147.04  111.40
   0  -2   8  1794.6   241.6   2-0.21519 0.21519 0.77742-0.97652 0.59102-0.01003  0 382.26 423.45  327.93 382.18 423.36  328.16
   0   2  -8  1673.4   231.5   1-0.70303 0.70303-0.50736 0.70631-0.49833-0.08286  0 491.80 322.16   81.45 492.06 322.19   81.52
   0   2  -8  2124.0   250.9   2 0.10757-0.10757-0.79487 0.99405-0.59717 0.01699  0 431.41 397.71  147.28 431.51 397.56  147.29
   0   2  -8  1925.3   210.4   2-0.13011 0.13011 0.99138-0.79222 0.01570-0.59621  0 222.36 115.81  291.68 222.36 115.76  291.77
   0   2   8  1953.9   184.5   1-0.13581 0.13581-0.79168 0.99062 0.59565-0.01515  0 181.26 154.93  159.86 181.37 155.13  159.92
   0   2   8  2207.1   220.2   2-0.10161 0.10161-0.79563 0.99468 0.59720-0.01671  0 182.21 153.27   72.69 182.02 153.28   72.79
   0   2   8  2091.0   247.5   2-0.12462 0.12462 0.99208-0.79292-0.01594 0.59645  0 372.86 425.97  289.70 372.80 425.96  289.93
   0  -2  -9  8999.6   378.0   1-0.62449 0.62449-0.77146 0.57241-0.12191-0.53138  0 475.18 408.83  108.47 475.37 408.63  108.50
   0  -2  -9  9343.0   459.5   2 0.02771-0.02771-0.99826 0.79907-0.05211-0.60060  0 464.60 416.58  113.08 464.66 416.30  113.31
   0  -2  -9  9284.7   375.3   2-0.00651 0.00651 0.79945-0.99861-0.60070-0.05237  0 218.70  88.82  253.23 218.67  88.96  253.43
   0  -2   9  9705.5   360.2   1-0.52253 0.52253-0.84686 0.64781 0.09893 0.55435  0 134.56 197.09  123.11 134.76 197.29  123.10
   0  -2   9  9807.1   382.9   2 0.00968-0.00968-0.99860 0.79941 0.05201 0.60070  0 169.76 131.97  107.11 169.79 132.09  107.28
   0  -2   9  9548.3   476.4   2-0.21547 0.21547 0.77555-0.97465 0.59337 0.06024  0 394.48 453.12  328.44 394.85 452.97  328.33
   0   2  -9  9416.1   459.9   2 0.10777-0.10777-0.79353 0.99272-0.59891-0.05380  0 456.33 422.66  147.22 456.49 422.62  147.41
   0   2  -9  9542.7   376.6   2-0.11772 0.11772 0.99155-0.79239-0.05452-0.59855  0 211.28  93.75  287.70 211.35  93.82  287.67
   0   2   9  9884.9   335.2   1-0.13361 0.13361-0.79054 0.98948 0.59766 0.05541  0 163.57 140.67  159.90 163.75 140.89  160.10
   0   2   9  9372.0   375.2   2-0.10202 0.10202-0.79425 0.99331 0.59896 0.05410  0 164.61 138.59   72.61 164.52 138.70   72.66
   0   2   9  9595.6   473.8   2-0.13682 0.13682 0.98905-0.78989 0.05528 0.59779  0 384.72 455.68  294.24 384.70 455.41  294.08
   0  -2 -10  8393.5   556.2   2 0.03854-0.03854-0.99233 0.79315-0.11743-0.60781  0 495.61 446.30  116.99 495.69 446.15  117.11
   0  -2 -10  9732.0   426.4   2-0.00482 0.00482 0.79389-0.99305-0.60804-0.11759  0 206.51  63.52  252.99 206.54  63.63  252.89
   0  -2  10  8834.3   370.1   1-0.49056 0.49056-0.85750 0.65845 0.15508 0.57079  0 113.73 184.04  126.94 113.65 184.14  126.85
   0  -2  10  8397.2   399.1   2-0.00222 0.00222-0.99310 0.79392 0.11721 0.60802  0 150.14 115.41  103.38 150.21 115.47  103.47
   0  -2  10  8891.3   566.7   2-0.21636 0.21636 0.76919-0.96828 0.60128 0.12495  0 409.39 488.27  328.73 409.61 488.05  328.93
   0   2 -10  9197.2   563.8   2 0.10856-0.10856-0.78777 0.98695-0.60633-0.11890  0 486.62 452.96  148.01 486.58 452.85  147.94
   0   2 -10  9170.1   416.8   2-0.10595 0.10595 0.98720-0.78804-0.11920-0.60644  0 198.74  68.89  284.02 198.88  68.90  283.88
   0   2  10  9180.1   356.3   1-0.12488 0.12488-0.78594 0.98488 0.60556 0.12007  0 144.09 124.25  160.89 144.34 124.45  160.83
   0   2  10  8948.1   411.3   2-0.10374 0.10374-0.78837 0.98743 0.60638 0.11924  0 144.77 122.31   71.97 144.79 122.55   72.11
   0   2  10  8759.7   563.1   2-0.14787 0.14787 0.98161-0.78245 0.12073 0.60490  0 398.63 490.60  297.90 398.52 490.34  297.95
   0  -2 -11  5611.8   416.8   2-0.00199 0.00199 0.78479-0.98395-0.61976-0.17844  0 192.54  34.09  251.98 192.56  34.26  252.03
   0  -2  11  5380.6   345.4   1-0.45791 0.45791-0.86418 0.66513 0.20861 0.58985  0  89.85 168.76  130.42  89.86 168.99  130.46
   0  -2  11  5074.7   385.9   2-0.01358 0.01358-0.98392 0.78474 0.17808 0.61968  0 127.92  96.73  100.02 127.75  96.71   99.88
   0   2 -11  5978.3   414.0   2-0.09455 0.09455 0.97918-0.78002-0.17963-0.61857  0 184.25  40.01  280.30 184.50  40.05  280.32
   0   2  11  5669.9   343.7   1-0.11096 0.11096-0.77839 0.97733 0.61790 0.18030  0 122.71 104.89  161.99 122.67 105.10  161.98
   0   2  11  5713.6   399.9   2-0.10657 0.10657-0.77881 0.97787 0.61814 0.18005  0 122.32 104.19   71.17 122.14 104.37   71.23
   0  -2  12 16934.7   590.8   1-0.42419 0.42419-0.86743 0.66838 0.26004 0.61100  0  62.47 150.93  134.19  62.51 151.08  133.98
   0  -2  12 16063.2   615.8   2-0.02507 0.02507-0.97142 0.77236 0.23606 0.63469  0 101.68  74.92   96.40 101.29  75.14   96.38
   0   2  12 16975.1   524.2   1-0.09278 0.09278-0.76808 0.96703 0.63359 0.23717  0  97.89  81.47  163.47  97.91  81.70  163.48
   0   2  12 18333.3   656.1   2-0.11022 0.11022-0.76606 0.96511 0.63325 0.23750  0  95.94  83.28   70.29  95.56  83.48   70.09
   0  -3   0   2.973  37.356   1-0.63410 0.63410-0.14922-0.14922-0.75872 0.75872  0 238.32 293.02   55.43 238.39 293.35   55.66
   0  -3   0  20.626  63.012   2-0.21442 0.21442-0.14925-0.14925 0.96527-0.96527  0 348.72 317.58   28.52 348.97 317.65   28.58
   0  -3   0  28.927  63.281   2 0.12739-0.12739-0.14922-0.14922-0.98056 0.98056  0 261.19 197.25  191.55 261.10 197.18  191.44
   0   3   0  40.660  55.871   1-0.49375 0.49375 0.14921 0.14921-0.85671 0.85671  0 368.89 218.53   36.17 368.61 218.58   35.86
   0   3   0 -35.074  42.501   2-0.23463 0.23463 0.14925 0.14925 0.96056-0.96056  0 253.10 203.40   11.34 252.93 203.55   11.37
   0   3   0 -13.532  61.154   2 0.10716-0.10716 0.14930 0.14930-0.98297 0.98297  0 339.30 323.27  208.50 339.50 323.46  208.60
   0  -3  -1 87241.5   565.2   1-0.55046 0.55046 0.04488-0.34331-0.83365 0.76101  0 241.55 302.29   43.01 241.52 302.19   42.79
   0  -3  -1 83099.6   620.6   2-0.18773 0.18773-0.37860 0.08010 0.90632-0.97895  0 353.06 317.66   41.92 353.13 317.66   42.28
   0  -3  -1 85258.8   629.4   2 0.11296-0.11296 0.08242-0.38102-0.99018 0.91764  0 262.27 193.74  204.83 262.35 193.77  204.72
   0  -3   1 72777.3   558.9   1-0.68235 0.68235-0.31826 0.01983-0.65811 0.73075  0 232.07 284.80   66.96 232.01 284.71   67.26
   0  -3   1 77833.6   599.0   2-0.23116 0.23116 0.07787-0.37637 0.96980-0.89717  0 347.65 321.61   15.54 347.67 321.58   15.50
   0  -3   1 82350.5   618.7   2 0.13298-0.13298-0.38060 0.08216-0.91513 0.98771  0 257.04 197.21  177.70 257.29 197.19  177.62
   0   3  -1 81477.0   589.0   1-0.58985 0.58985-0.03830 0.33673-0.80661 0.73396  0 376.61 227.75   47.95 376.58 227.83   48.28
   0   3  -1 77403.5   600.0   2 0.12391-0.12391-0.08244 0.38088-0.98886 0.91628  0 343.76 323.98  194.97 343.71 323.87  195.29
   0   3  -1 72448.6   578.2   2-0.23860 0.23860 0.37596-0.07738 0.89539-0.96803  0 254.17 199.88  357.55 253.98 199.95  357.47
   0   3   1 69025.7   501.9   1-0.34512 0.34512 0.36821-0.06979-0.86331 0.93596  0 364.85 208.96   20.68 364.84 209.08   20.67
   0   3   1 79880.6   604.9   2-0.22068 0.22068-0.07845 0.37695 0.97218-0.89956  0 249.53 203.92   24.49 249.37 203.91   24.49
   0   3   1 78888.9   601.6   2 0.07985-0.07985 0.38178-0.08318-0.92080 0.99333  0 337.90 327.13  222.46 337.96 326.98  222.50
   0  -3  -2 17370.8   260.1   1-0.43906 0.43906 0.23731-0.53574-0.86655 0.72126  0 240.91 311.35   29.99 240.86 311.23   29.89
   0  -3  -2 14867.5   286.6   2-0.15464 0.15464-0.57504 0.27645 0.80338-0.94850  0 360.00 321.46   55.00 360.02 321.47   55.18
   0  -3  -2 15367.7   291.7   2 0.09312-0.09312 0.27970-0.57830-0.95556 0.81049  0 261.20 187.04  216.01 261.29 187.09  216.26
   0  -3   2 13277.6   262.0   1-0.70128 0.70128-0.45270 0.15427-0.55069 0.69599  0 223.20 276.24   77.01 223.13 276.20   77.19
   0  -3   2 15511.9   294.2   2-0.23838 0.23838 0.26944-0.56794 0.93305-0.78779  0 349.04 329.31    4.01 349.00 329.24    4.29
   0  -3   2 14041.9   273.9   2 0.12822-0.12822-0.57689 0.27845-0.80670 0.95185  0 251.27 194.10  164.80 251.15 194.09  164.74
   0   3  -2 13780.5   273.0   1-0.64398 0.64398-0.17770 0.47613-0.74412 0.59883  0 387.62 237.02   57.55 387.93 237.07   57.58
   0   3  -2 14752.0   286.3   2 0.13174-0.13174-0.27824 0.57668-0.95143 0.80628  0 350.74 328.22  184.09 350.67 328.09  183.86
   0   3  -2 13549.0   270.1   2-0.23439 0.23439 0.56826-0.26961 0.78876-0.93401  0 252.73 193.03  345.00 252.55 193.10  344.88
   0   3   2 18814.0   274.3   1-0.15796 0.15796 0.57531-0.27689-0.80254 0.94783  0 365.59 198.89    4.01 365.57 199.02    4.23
   0   3   2 15896.6   289.4   2-0.20135 0.20135-0.27315 0.57165 0.94066-0.79541  0 243.55 201.17   35.94 243.42 201.18   35.86
   0   3   2 14689.5   286.1   2 0.04687-0.04687 0.57974-0.28114-0.81346 0.95852  0 338.88 334.50  235.57 338.91 334.35  235.55
   0  -3  -3 25570.5   322.4   1-0.32094 0.32094 0.39863-0.69705-0.85912 0.64118  0 236.58 320.68   18.40 236.49 320.56   18.43
   0  -3  -3 21777.7   305.0   1-0.02928 0.02928-0.72815 0.42974 0.68479-0.90248  0 371.21 327.53  168.83 371.09 327.40  168.68
   0  -3  -3 21583.6   360.7   2-0.12147 0.12147-0.72383 0.42524 0.67920-0.89689  0 369.48 328.58   66.37 369.49 328.56   66.46
   0  -3  -3 23052.6   372.9   2 0.07297-0.07297 0.42791-0.72651-0.90087 0.68327  0 258.15 177.55  225.32 258.26 177.60  225.39
   0  -3   3 17278.3   318.0   1-0.70094 0.70094-0.55549 0.25706-0.44734 0.66528  0 212.40 267.72   85.51 212.37 267.71   85.54
   0  -3   3 20472.2   346.6   2 0.11669-0.11669-0.72437 0.42593-0.67946 0.89720  0 243.12 188.43  153.42 243.04 188.44  153.60
   0  -3   3 21653.7   364.1   2-0.23832 0.23832 0.41279-0.71137 0.87909-0.66117  0 352.57 340.32  355.12 352.69 340.30  355.15
   0   3  -3 21791.4   364.4   1-0.67198 0.67198-0.27373 0.57217-0.68812 0.47018  0 401.94 246.52   63.94 402.23 246.53   64.14
   0   3  -3 22282.2   368.2   2 0.13297-0.13297-0.42470 0.72314-0.89552 0.67778  0 360.13 335.66  175.01 360.07 335.57  174.84
   0   3  -3 20788.3   350.4   2-0.22318 0.22318 0.71340-0.41475 0.66427-0.88214  0 249.43 183.54  334.03 249.21 183.60  333.80
   0   3   3 23142.8   365.4   2-0.18172 0.18172-0.42018 0.71868 0.88906-0.67118  0 235.54 195.86   45.00 235.43 195.88   44.88
   0   3   3 22001.3   363.1   2 0.01360-0.01360 0.72805-0.42945-0.68538 0.90299  0 341.97 345.24  247.00 342.00 345.08  246.96
   0  -3  -4  93.937  56.644   1-0.21752 0.21752 0.51604-0.81446-0.82849 0.53790  0 229.15 330.56    9.39 229.04 330.36    9.28
   0  -3  -4   6.765  74.547   1-0.19152 0.19152-0.81797 0.51956 0.54244-0.83269  0 380.40 339.27  155.31 380.54 339.43  155.25
   0  -3  -4  90.797  90.674   2-0.09157 0.09157-0.82805 0.52946 0.55313-0.84338  0 381.33 338.30   76.15 381.27 338.49   75.97
   0  -3  -4  97.124  61.550   2 0.05590-0.05590 0.53119-0.82979-0.84541 0.55527  0 253.72 165.75  232.48 253.66 165.81  232.18
   0  -3   4  90.873  65.122   1-0.68902 0.68902-0.63349 0.33506-0.35204 0.64264  0 200.39 258.97   93.08 200.15 259.11   92.62
   0  -3   4  68.850  65.588   2 0.10215-0.10215-0.82700 0.52822-0.55285 0.84294  0 233.18 180.99  144.32 233.29 180.74  144.14
   0  -3   4  96.198  97.507   2-0.23664 0.23664 0.51237-0.81102 0.82551-0.53502  0 357.90 354.32  348.56 358.06 354.15  348.73
   0   3  -4  41.680  93.260   1-0.68623 0.68623-0.33698 0.63541-0.64461 0.35402  0 419.01 256.42   68.59 419.21 256.50   68.60
   0   3  -4  23.800  86.334   2 0.13050-0.13050-0.52669 0.82513-0.83998 0.54967  0 371.68 345.62  168.70 371.59 345.82  168.19
   0   3  -4 122.819  69.697   2-0.20908 0.20908 0.81552-0.51687 0.53964-0.83014  0 244.30 171.83  324.76 244.31 171.88  324.44
   0   3   4  55.094  69.290   2-0.16422 0.16422-0.52278 0.82137 0.83650-0.54625  0 225.88 189.04   51.51 225.72 188.62   51.59
   0   3   4 100.563  93.129   2-0.01688 0.01688 0.83084-0.53210-0.55626 0.84651  0 346.84 358.71  256.64 346.71 358.74  256.59
   0  -3  -5  2958.4   146.0   1-0.13752 0.13752 0.59425-0.89268-0.79243 0.42920  0 219.09 340.85    2.61 219.08 340.77    2.53
   0  -3  -5  2565.3   171.4   1-0.31855 0.31855-0.85847 0.55989 0.40195-0.76489  0 393.36 353.04  143.94 393.48 352.89  144.15
   0  -3  -5  2526.6   209.3   2-0.06545 0.06545-0.89812 0.59953 0.43486-0.79767  0 395.05 351.12   84.00 395.29 351.02   83.96
   0  -3  -5  2593.5   174.7   2 0.04274-0.04274 0.60038-0.89898-0.79857 0.43590  0 247.91 151.96  236.99 247.75 152.05  237.03
   0  -3   5  2178.1   159.8   1-0.67014 0.67014-0.69320 0.39477-0.26531 0.62855  0 186.67 250.38   98.78 186.66 250.33   98.75
   0  -3   5  2711.7   182.6   2 0.08653-0.08653-0.89658 0.59780-0.43434 0.79696  0 222.18 171.52  136.29 222.13 171.49  136.27
   0  -3   5  1934.0   208.0   2-0.23384 0.23384 0.57932-0.87797 0.78083-0.41772  0 364.66 370.68  343.99 364.85 370.67  344.08
   0   3  -5  2599.4   207.6   1-0.69301 0.69301-0.37738 0.67581-0.61426 0.25102  0 438.65 267.30   71.48 438.95 267.21   71.52
   0   3  -5  2401.2   210.6   2 0.12716-0.12716-0.59507 0.89351-0.79355 0.43065  0 385.02 358.61  163.32 385.25 358.67  163.46
   0   3  -5  2117.2   161.5   2-0.19404 0.19404 0.88491-0.58626 0.42342-0.78654  0 238.24 158.22  316.90 238.12 158.27  316.55
   0   3   5  2590.2   171.9   2-0.15137 0.15137-0.59208 0.89066 0.79154-0.42873  0 214.58 179.63   56.33 214.55 179.73   56.38
   0   3   5  2257.7   203.6   2-0.04326 0.04326 0.89899-0.60026-0.43582 0.79864  0 352.95 375.26  264.61 352.89 375.10  264.64
   0  -3  -6 385.557 121.706   1-0.41413 0.41413-0.86775 0.56917 0.27479-0.71031  0 409.52 368.18  135.06 409.61 368.20  135.01
   0  -3  -6 440.483 145.666   2-0.04324 0.04324-0.94393 0.64535 0.32729-0.76266  0 411.61 366.34   91.07 411.66 366.11   90.80
   0  -3  -6 477.979 110.746   2 0.03322-0.03322 0.64557-0.94417-0.76298 0.32777  0 240.96 136.58  240.34 240.72 136.41  240.37
   0  -3   6 608.196 115.588   1-0.64719 0.64719-0.73914 0.44056-0.18661 0.62214  0 171.92 241.23  104.23 172.02 241.27  104.15
   0  -3   6 385.371 109.206   2 0.07121-0.07121-0.94237 0.64359-0.32691 0.76205  0 209.92 160.90  129.45 209.60 160.89  129.56
   0  -3   6 527.242 149.806   2-0.23114 0.23114 0.62306-0.92171 0.74724-0.31150  0 373.00 390.28  340.61 373.04 389.93  340.89
   0   3  -6 580.456 155.500   1-0.69634 0.69634-0.40143 0.69986-0.59495 0.15906  0 461.56 279.11   73.35 461.78 278.99   73.30
   0   3  -6 560.697 149.815   2 0.12431-0.12431-0.63977 0.93821-0.75845 0.32298  0 400.90 374.18  160.34 401.12 374.09  160.20
   0   3  -6 554.590 117.748   2-0.17920 0.17920 0.93104-0.63239 0.31790-0.75364  0 230.92 142.80  310.10 230.77 142.84  309.83
   0   3   6 543.448 119.401   2-0.14183 0.14183-0.63750 0.93609 0.75728-0.32191  0 202.16 169.35   59.76 201.99 169.49   59.69
   0   3   6 349.858 143.086   2-0.06585 0.06585 0.94282-0.64408-0.32674 0.76212  0 360.40 394.38  271.46 360.35 394.21  271.47
   0  -3  -7 45477.9   579.1   1-0.48598 0.48598-0.85867 0.56010 0.16280-0.67091  0 428.75 386.14  127.32 428.95 385.94  127.37
   0  -3  -7 47070.3   699.7   2-0.02394 0.02394-0.97286 0.67427 0.23016-0.73809  0 430.42 384.08   97.06 430.79 384.03   96.74
   0  -3  -7 44544.1   658.5   2 0.02673-0.02673 0.67413-0.97273-0.73813 0.23039  0 232.78 118.68  242.58 232.61 118.80  242.57
   0  -3   7 42700.2   649.3   1-0.62138 0.62138-0.77521 0.47663-0.11375 0.62186  0 155.87 231.55  109.01 155.95 231.61  109.04
   0  -3   7 43099.6   653.3   2 0.05658-0.05658-0.97154 0.67276-0.23003 0.73770  0 195.72 148.97  123.62 195.67 148.99  123.73
   0  -3   7 44288.6   688.8   2-0.22908 0.22908 0.65056-0.94920 0.72408-0.21572  0 382.38 412.27  339.07 382.58 412.21  338.82
   0   3  -7 42797.9   664.1   1-0.69782 0.69782-0.41379 0.71222-0.58466 0.07613  0 488.07 292.30   73.90 488.31 292.28   74.22
   0   3  -7 45506.2   697.6   2 0.12217-0.12217-0.66799 0.96643-0.73407 0.22602  0 419.42 392.42  158.00 419.52 392.34  158.08
   0   3  -7 42725.7   652.5   2-0.16474 0.16474 0.96089-0.66225 0.22259-0.73095  0 222.47 125.43  304.00 222.31 125.54  303.98
   0   3   7 44750.5   663.1   2-0.13540 0.13540-0.66622 0.96481 0.73336-0.22542  0 188.05 157.87   62.00 187.96 158.01   61.87
   0   3   7 41827.6   664.7   2-0.08523 0.08523 0.96980-0.67106-0.22855 0.73649  0 369.35 416.56  277.41 369.08 416.33  277.41
   0  -3  -8  1007.2   193.2   1-0.54102 0.54102-0.83857 0.53999 0.06406-0.64476  0 451.80 407.02  120.67 451.79 406.91  120.80
   0  -3  -8 838.429 220.602   2-0.00694 0.00694-0.98975 0.69097 0.14266-0.72285  0 453.14 405.02  102.02 453.03 405.04  101.97
   0  -3  -8 910.033 170.407   2 0.02280-0.02280 0.69097-0.98957-0.72253 0.14226  0 223.50  99.17  244.05 223.37  98.98  243.91
   0  -3   8 757.762 144.984   1-0.59346 0.59346-0.80355 0.50497-0.04605 0.62675  0 138.28 221.27  113.51 138.35 221.20  113.53
   0  -3   8 805.548 162.685   2 0.04257-0.04257-0.98892 0.69014-0.14224 0.72243  0 180.05 135.70  118.33 180.13 135.67  118.57
   0  -3   8 792.594 231.184   2-0.22779 0.22779 0.66650-0.96515 0.70985-0.12886  0 393.51 438.19  337.66 393.71 438.12  337.58
   0   3  -8 699.209 230.544   2 0.12073-0.12073-0.68457 0.98301-0.71888 0.13825  0 441.21 413.98  156.64 441.12 413.98  156.79
   0   3  -8 879.239 170.818   2-0.15049 0.15049 0.97911-0.68037 0.13674-0.71725  0 212.71 105.87  298.56 212.82 106.05  298.89
   0   3   8 759.778 136.973   1 0.02260-0.02260-0.69123 0.98964 0.72229-0.14178  0 178.27 138.50  173.34 178.36 138.66  172.92
   0   3   8 785.715 160.626   2-0.13156 0.13156-0.68309 0.98167 0.71839-0.13789  0 172.28 145.17   63.39 172.28 145.21   63.18
   0   3   8 962.081 232.490   2-0.10209 0.10209 0.98491-0.68617-0.13973 0.72024  0 379.49 442.09  282.61 379.23 442.12  282.67
   0  -3  -9  1141.3   245.6   1-0.58364 0.58364-0.81166 0.51308-0.02391-0.62937  0 479.10 432.48  115.14 478.93 432.29  114.99
   0  -3  -9  1170.4   284.2   2 0.00787-0.00787-0.99804 0.69926 0.06211-0.71483  0 479.69 430.46  106.66 479.88 430.43  106.69
   0  -3  -9 984.834 193.360   2 0.02081-0.02081 0.69927-0.99787-0.71455 0.06175  0 212.82  76.41  244.62 212.81  76.47  244.58
   0  -3   9  1124.0   184.2   1-0.56437 0.56437-0.82533 0.52676 0.01766 0.63562  0 119.37 209.88  117.66 118.93 209.78  117.73
   0  -3   9  1290.6   207.6   2 0.02939-0.02939-0.99765 0.69887-0.06194 0.71465  0 162.68 120.82  113.62 162.66 120.77  113.88
   0  -3   9  1068.8   282.0   2-0.22712 0.22712 0.67397-0.97261 0.70298-0.04937  0 406.55 468.68  337.05 406.75 468.66  337.00
   0   3  -9  1270.7   294.3   2 0.11995-0.11995-0.69264 0.99108-0.71124 0.05803  0 466.60 439.81  156.09 466.79 439.94  156.16
   0   3  -9  1045.6   200.5   2-0.13719 0.13719 0.98888-0.69014 0.05748-0.71056  0 201.74  83.95  294.09 201.80  84.03  294.21
   0   3   9  1319.5   178.8   1 0.01119-0.01119-0.69964 0.99805 0.71441-0.06134  0 161.55 123.04  172.34 161.60 123.11  171.99
   0   3   9  1021.5   195.0   2-0.12948 0.12948-0.69131 0.98990 0.71086-0.05780  0 154.85 130.96   64.07 154.63 130.92   63.82
   0   3   9  1085.3   294.0   2-0.11690 0.11690 0.99141-0.69267-0.05864 0.71172  0 391.05 472.38  287.57 391.04 472.42  287.42
   0  -3 -10  3106.5   335.8   2 0.02036-0.02036 0.70111-0.99971-0.71276-0.01258  0 200.88  50.59  245.02 200.65  50.55  244.72
   0  -3  10  3048.8   285.6   1-0.53380 0.53380-0.84201 0.54343 0.07799 0.64788  0  97.18 196.84  121.67  97.18 196.98  121.71
   0  -3  10  3223.9   320.5   2 0.01668-0.01668-0.99979 0.70100 0.01227 0.71296  0 142.79 103.96  109.49 142.78 103.95  109.58
   0   3 -10  2936.4   407.7   2 0.11980-0.11980-0.69423 0.99267-0.70972-0.01607  0 498.32 471.86  156.35 498.18 471.77  156.03
   0   3 -10  2803.5   332.1   2-0.12463 0.12463 0.99208-0.69334-0.01588-0.70975  0 188.97  58.68  290.02 189.07  58.75  289.93
   0   3  10  2936.0   264.6   1 0.00868-0.00868-0.70146 0.99988 0.71265 0.01298  0 142.66 104.79  172.36 142.86 105.03  171.78
   0   3  10  3123.5   339.0   2-0.12910 0.12910-0.69291 0.99150 0.70937 0.01625  0 134.60 114.65   64.06 134.49 114.85   63.95
   0  -3 -11  6888.4   465.6   2 0.02116-0.02116 0.69782-0.99642-0.71597-0.08191  0 186.47  19.81  244.43 186.42  20.13  244.46
   0  -3  11  6557.4   380.6   1-0.50190 0.50190-0.85423 0.55565 0.13562 0.66284  0  72.53 182.22  125.52  72.41 182.25  125.55
   0  -3  11  6505.1   428.8   2 0.00435-0.00435-0.99666 0.69788 0.08156 0.71620  0 120.01  84.71  105.48 119.73  84.68  105.56
   0   3 -11  6916.4   453.5   2-0.11229 0.11229 0.99008-0.69134-0.08445-0.71375  0 174.03  29.28  285.75 174.14  29.18  285.92
   0   3  11  6758.5   372.8   1 0.01329-0.01329-0.69810 0.99652 0.71587 0.08232  0 121.68  83.32  172.19 121.67  83.53  172.16
   0   3  11  6262.4   436.4   2-0.12996 0.12996-0.68925 0.98783 0.71277 0.08541  0 111.64  96.51   63.72 111.14  96.51   63.66
   0  -3  12  -0.124 211.536   1-0.46886 0.46886-0.86235 0.56378 0.19110 0.67995  0  43.26 164.78  130.18  43.60 164.85  129.27
   0  -3  12 164.510 260.333   2-0.00772 0.00772-0.98913 0.69035 0.14685 0.72344  0  93.25  62.46  101.72  92.44  62.15  101.73
   0   3  12-119.301 218.462   1 0.02379-0.02379-0.69034 0.98875 0.72310 0.14766  0  97.36  57.09  173.41  97.22  57.26  173.01
   0   3  12-414.228 240.858   2-0.13201 0.13201-0.68116 0.97974 0.72014 0.15061  0  83.38  75.39   63.28  83.48  75.21   63.03
   0  -4   0 26751.3   382.4   1-0.65089 0.65089-0.19895-0.19895-0.73264 0.73264  0 217.26 306.19   58.86 217.23 306.06   59.01
   0  -4   0 26167.1   413.9   2-0.20952 0.20952-0.19900-0.19900 0.95734-0.95734  0 368.13 341.18   31.46 368.13 341.16   31.48
   0  -4   0 25312.3   400.3   2 0.12956-0.12956-0.19896-0.19896-0.97141 0.97141  0 247.41 175.68  188.47 247.27 175.71  188.54
   0   4   0 29882.2   406.6   1-0.46360 0.46360 0.19895 0.19895-0.86342 0.86342  0 395.47 202.22   32.47 395.74 202.36   32.51
   0   4   0 27600.3   416.1   2-0.23644 0.23644 0.19900 0.19900 0.95105-0.95105  0 236.38 184.58    8.43 236.26 184.60    8.46
   0   4   0 26124.3   414.5   2 0.10217-0.10217 0.19907 0.19907-0.97465 0.97465  0 354.66 349.15  211.43 354.68 349.04  211.49
   0  -4  -1  5709.8   182.1   1-0.59924 0.59924-0.05983-0.33808-0.79833 0.72568  0 220.82 315.30   49.84 220.82 315.15   49.72
   0  -4  -1  5814.8   230.5   2-0.18870 0.18870-0.37151-0.02649 0.90905-0.98168  0 372.25 340.83   42.00 372.27 340.82   41.84
   0  -4  -1  5303.9   203.2   2 0.12047-0.12047-0.02457-0.37335-0.99241 0.91983  0 249.00 172.50  198.55 248.84 172.53  198.62
   0  -4   1  5125.2   185.3   1-0.68372 0.68372-0.32489-0.07302-0.65343 0.72608  0 211.15 297.31   68.13 211.12 297.23   67.73
   0  -4   1  5325.1   222.1   2-0.22454 0.22454-0.02788-0.37012 0.97406-0.90144  0 366.36 344.88   21.64 366.43 344.84   21.59
   0  -4   1  5394.8   205.4   2 0.13297-0.13297-0.37306-0.02486-0.91823 0.99081  0 243.81 176.11  178.00 243.68 176.14  178.09
   0   4  -1  5764.8   211.4   1-0.54648 0.54648 0.05299 0.34491-0.83580 0.76315  0 403.71 211.93   41.86 403.97 212.01   42.26
   0   4  -1  5558.4   225.7   2 0.11730-0.11730 0.02480 0.37333-0.99279 0.92025  0 358.93 349.27  201.32 358.93 349.15  201.42
   0   4  -1  5540.1   205.5   2-0.23860 0.23860 0.36954 0.02856 0.89806-0.97070  0 237.68 181.23  357.79 237.56 181.27  357.87
   0   4   1  6332.9   210.3   1-0.34894 0.34894 0.36330 0.03460-0.86386 0.93651  0 390.72 192.19   21.00 391.00 192.34   21.02
   0   4   1  5789.6   207.9   2-0.22836 0.22836 0.02804 0.36996 0.97317-0.90055  0 233.03 185.38   18.33 232.94 185.42   18.37
   0   4   1  5058.6   222.1   2 0.08095-0.08095 0.37399 0.02414-0.92389 0.99643  0 352.66 352.40  222.00 352.70 352.25  222.02
   0  -4  -2 31992.4   402.7   1-0.53106 0.53106 0.08246-0.48036-0.84331 0.69802  0 221.63 324.71   40.24 221.61 324.56   40.31
   0  -4  -2 30005.4   458.8   2-0.16311 0.16311-0.52907 0.13096 0.83275-0.97788  0 378.80 343.76   52.00 378.79 343.76   52.01
   0  -4  -2 31996.8   462.5   2 0.10867-0.10867 0.13344-0.53157-0.98508 0.84001  0 248.64 166.58  207.69 248.40 166.64  207.68
   0  -4   2 26000.8   408.8   1-0.69974 0.69974-0.43297 0.03506-0.56824 0.71353  0 202.85 288.65   75.70 202.85 288.58   75.67
   0  -4   2 31014.0   467.6   2-0.23357 0.23357 0.12635-0.52435 0.96410-0.81884  0 367.03 351.88   13.06 367.02 351.79   12.70
   0  -4   2 28565.0   439.9   2 0.13035-0.13035-0.53089 0.13297-0.83735 0.98251  0 238.25 174.02  168.02 238.14 174.02  167.90
   0   4  -2 30940.0   455.7   1-0.60153 0.60153-0.06524 0.46315-0.79618 0.65089  0 415.19 221.46   50.01 415.44 221.59   50.08
   0   4  -2 28440.0   449.8   2 0.12652-0.12652-0.13315 0.53107-0.98299 0.83783  0 365.49 352.72  192.09 365.36 352.55  192.37
   0   4  -2 32224.7   466.4   2-0.23630 0.23630 0.52406-0.12586 0.81825-0.96350  0 236.97 175.16  347.97 236.74 175.25  347.93
   0   4   2 32794.7   411.7   1-0.20749 0.20749 0.52653-0.12863-0.82445 0.96974  0 389.70 181.50    8.36 389.96 181.65    8.42
   0   4   2 32077.4   462.5   2-0.21640 0.21640-0.12774 0.52574 0.96791-0.82266  0 227.73 183.67   27.13 227.60 183.69   27.34
   0   4   2 31061.9   468.3   2 0.05555-0.05555 0.53311-0.13497-0.84422 0.98929  0 352.78 358.98  232.06 352.86 358.82  232.31
   0  -4  -3 24810.7   361.7   1-0.45343 0.45343 0.21512-0.61302-0.86494 0.64700  0 219.41 334.58   31.39 219.39 334.43   31.41
   0  -4  -3 20426.0   401.9   2-0.13641 0.13641-0.66170 0.26359 0.73726-0.95494  0 387.43 349.81   61.47 387.78 349.80   61.52
   0  -4  -3 21923.9   402.0   2 0.09475-0.09475 0.26581-0.66394-0.95936 0.74176  0 246.51 158.14  215.41 246.26 158.23  215.43
   0  -4   3 18411.8   367.4   1-0.70276 0.70276-0.52287 0.12496-0.48242 0.70036  0 192.78 280.02   82.98 192.78 279.98   82.79
   0  -4   3 22418.0   422.7   2-0.23805 0.23805 0.25449-0.65249 0.93732-0.71944  0 369.73 361.96    4.91 369.65 361.85    5.18
   0  -4   3 20613.4   392.8   2 0.12252-0.12252-0.66276 0.26484-0.73874 0.95648  0 230.90 169.56  158.31 230.80 169.56  158.47
   0   4  -3 21018.6   403.4   1-0.63624 0.63624-0.15528 0.55318-0.75570 0.53776  0 429.63 231.14   56.02 429.87 231.22   56.07
   0   4  -3 21315.3   412.7   2 0.13143-0.13143-0.26428 0.66220-0.95545 0.73771  0 374.30 359.20  184.76 374.19 359.08  184.69
   0   4  -3 21099.3   397.1   2-0.22885 0.22885 0.65348-0.25528 0.72152-0.93939  0 234.45 166.68  338.92 234.24 166.78  338.60
   0   4   3 22786.5   409.5   2-0.20305 0.20305-0.25840 0.65640 0.94446-0.72658  0 220.49 179.67   34.93 220.39 179.69   34.98
   0   4   3 22276.9   420.1   2 0.02860-0.02860 0.66596-0.26782-0.74544 0.96304  0 354.93 368.76  242.00 354.94 368.57  241.93
   0  -4  -4  1576.5   125.5   1-0.37536 0.37536 0.32803-0.72593-0.86689 0.57630  0 214.40 344.93   23.60 214.35 344.83   23.55
   0  -4  -4  1327.1   150.5   1-0.09200 0.09200-0.76756 0.36967 0.63434-0.92460  0 399.75 358.52  163.58 399.95 358.37  163.55
   0  -4  -4  1391.5   169.9   2-0.11015 0.11015-0.76632 0.36821 0.63295-0.92320  0 398.82 358.84   69.94 399.14 358.74   70.12
   0  -4  -4  1438.1   153.4   2 0.08155-0.08155 0.36971-0.76784-0.92556 0.63543  0 242.78 147.29  221.85 242.59 147.46  221.75
   0  -4   4 967.206 125.000   1-0.69620 0.69620-0.59661 0.19870-0.39921 0.68980  0 181.07 271.19   89.37 181.15 271.35   89.17
   0  -4   4  1334.0   159.6   2 0.11153-0.11153-0.76640 0.36848-0.63261 0.92292  0 221.90 163.12  150.31 221.81 163.08  150.01
   0   4  -4  1237.4   165.0   1-0.65752 0.65752-0.22097 0.61888-0.72030 0.42971  0 447.19 241.18   60.40 447.29 241.28   60.51
   0   4  -4  1101.2   157.5   2 0.13296-0.13296-0.36687 0.76480-0.92072 0.63041  0 385.06 368.61  178.48 385.27 368.52  178.47
   0   4  -4  1374.8   158.7   2-0.21823 0.21823 0.75561-0.35742 0.61760-0.90809  0 230.31 155.85  330.34 230.14 156.13  330.15
   0   4   4  1731.0   163.5   2-0.19011 0.19011-0.36130 0.75930 0.91287-0.62236  0 211.47 173.53   41.23 211.45 173.70   41.21
   0   4   4  1406.5   170.1   2 0.00237-0.00237 0.76992-0.37160-0.63813 0.92839  0 358.74 381.42  250.63 358.67 381.35  250.66
   0  -4  -5 15401.0   318.5   1-0.30613 0.30613 0.41665-0.81455-0.85597 0.49274  0 206.75 356.17   16.69 206.73 355.98   17.08
   0  -4  -5 13155.0   317.1   1-0.22196 0.22196-0.83039 0.43250 0.51107-0.87389  0 410.20 373.13  152.72 410.38 373.01  152.65
   0  -4  -5 13784.2   394.2   2-0.08579 0.08579-0.84517 0.44705 0.52757-0.89038  0 412.76 370.63   77.97 413.03 370.58   77.75
   0  -4  -5 14283.7   369.0   2 0.06995-0.06995 0.44776-0.84589-0.89141 0.52874  0 237.72 134.41  226.69 237.50 134.52  226.66
   0  -4   5 11408.3   334.2   1-0.68285 0.68285-0.65679 0.25888-0.31991 0.68316  0 168.09 262.54   94.77 168.06 262.54   94.93
   0  -4   5 12175.1   348.1   2 0.09892-0.09892-0.84402 0.44565-0.52711 0.88973  0 211.30 154.81  141.88 211.24 154.79  142.38
   0  -4   5 12883.6   396.1   2-0.23811 0.23811 0.42984-0.82795 0.87094-0.50774  0 380.47 391.03  354.00 380.55 391.00  354.05
   0   4  -5 12500.3   374.3   1-0.67033 0.67033-0.26722 0.66513-0.69228 0.32904  0 467.73 251.98   63.66 467.93 251.99   63.69
   0   4  -5 13206.0   391.6   2 0.13265-0.13265-0.44380 0.84172-0.88625 0.52336  0 398.45 380.92  173.75 398.64 380.82  173.63
   0   4  -5 12114.3   344.7   2-0.20589 0.20589 0.83298-0.43479 0.51356-0.87668  0 224.81 143.21  322.99 224.62 143.38  322.61
   0   4   5 13126.7   354.1   2-0.17892 0.17892-0.43879 0.83679 0.88059-0.51746  0 200.94 165.88   46.00 200.88 165.96   46.07
   0   4   5 11741.8   369.5   2-0.02263 0.02263 0.84748-0.44916-0.53035 0.89316  0 364.10 397.35  258.31 364.03 397.15  258.39
   0  -4  -6 12268.8   306.9   1-0.24902 0.24902 0.48232-0.88022-0.83985 0.40397  0 196.91 368.34   11.63 196.91 368.18   12.01
   0  -4  -6 10226.2   318.6   1-0.33056 0.33056-0.86075 0.46265 0.38709-0.82261  0 424.23 390.02  142.76 424.29 389.84  143.05
   0  -4  -6  9603.5   379.7   2-0.06348 0.06348-0.90264 0.50453 0.42568-0.86106  0 429.39 385.43   84.58 429.65 385.35   84.55
   0  -4  -6 10554.5   347.6   2 0.06062-0.06062 0.50453-0.90266-0.86126 0.42606  0 231.32 119.20  230.33 231.12 119.41  230.37
   0  -4   6  9430.1   328.0   1-0.66473 0.66473-0.70566 0.30755-0.24532 0.68084  0 153.54 253.47   99.97 153.62 253.51  100.15
   0  -4   6  9353.3   335.8   2 0.08523-0.08523-0.90114 0.50277-0.42507 0.86021  0 199.19 144.93  135.52 199.15 144.92  135.67
   0  -4   6  9516.4   390.1   2-0.23680 0.23680 0.48439-0.88250 0.84220-0.40636  0 388.00 410.31  350.70 388.39 410.12  350.49
   0   4  -6  9854.5   383.2   1-0.67794 0.67794-0.29830 0.69621-0.67188 0.23599  0 492.09 263.71   65.94 492.23 263.71   65.85
   0   4  -6 10092.5   392.1   2 0.13141-0.13141-0.49971 0.89764-0.85616 0.42069  0 414.31 396.14  170.01 414.52 396.06  169.98
   0   4  -6  9068.8   330.8   2-0.19266 0.19266 0.88992-0.49173 0.41343-0.84917  0 217.98 128.43  316.10 217.79 128.59  315.90
   0   4   6 10588.8   348.6   2-0.16925 0.16925-0.49494 0.89305 0.85229-0.41691  0 188.83 156.62   50.13 188.72 156.70   49.72
   0   4   6 10440.8   392.4   2-0.04520 0.04520 0.90334-0.50502-0.42654 0.86192  0 371.06 416.33  264.93 370.86 416.09  265.23
   0  -4  -7  1585.7   178.0   1-0.20539 0.20539 0.52868-0.92658-0.82360 0.31507  0 185.13 381.84    8.28 185.07 381.70    8.24
   0  -4  -7  1261.5   190.3   1-0.41756 0.41756-0.86767 0.46957 0.26981-0.77791  0 441.77 409.42  135.39 441.82 409.50  134.66
   0  -4  -7  1446.6   241.5   2-0.04364 0.04364-0.94322 0.54510 0.32930-0.83723  0 449.28 403.41   90.62 449.41 403.38   90.67
   0  -4  -7  1460.5   193.0   2 0.05353-0.05353 0.54459-0.94272-0.83699 0.32926  0 223.71 102.17  233.37 223.47 102.03  233.10
   0  -4   7  1163.0   165.4   1-0.64311 0.64311-0.74569 0.34758-0.17423 0.68234  0 137.49 243.96  105.09 137.52 243.94  104.98
   0  -4   7 983.070 172.094   2 0.07150-0.07150-0.94168 0.54331-0.32882 0.83648  0 185.40 133.66  129.70 185.41 133.49  129.68
   0  -4   7  1608.8   252.7   2-0.23636 0.23636 0.52238-0.92057 0.81930-0.31094  0 397.73 432.75  348.31 398.02 432.82  348.04
   0   4  -7  1118.0   228.4   2 0.12996-0.12996-0.53914 0.93706-0.83213 0.32408  0 433.35 414.84  167.30 433.27 414.66  167.34
   0   4  -7  1224.6   181.7   2-0.17934 0.17934 0.93068-0.53249 0.31886-0.82722  0 209.64 111.51  309.69 209.60 111.63  309.89
   0   4   7  1423.6   188.4   2-0.16207 0.16207-0.53489 0.93301 0.82923-0.32129  0 174.85 145.81   52.41 174.86 145.90   52.41
   0   4   7  1346.4   236.3   2-0.06552 0.06552 0.94217-0.54385-0.32868 0.83662  0 379.30 438.82  271.41 379.18 438.53  271.36
   0  -4  -8  8928.8   313.2   1-0.17427 0.17427 0.55982-0.95772-0.81008 0.22891  0 171.21 397.20    5.63 171.29 396.93    5.60
   0  -4  -8  6918.6   365.5   1-0.48660 0.48660-0.85852 0.46042 0.16176-0.74245  0 463.37 433.34  127.24 463.36 432.95  127.30
   0  -4  -8  7182.3   463.5   2-0.02563 0.02563-0.97069 0.57258 0.23895-0.81945  0 472.84 425.45   96.31 473.19 425.40   96.21
   0  -4  -8  7565.0   363.1   2 0.04841-0.04841 0.57174-0.96988-0.81900 0.23873  0 214.58  81.91  234.99 214.47  82.06  234.98
   0  -4   8  6346.8   317.2   1-0.61860 0.61860-0.77841 0.38031-0.10684 0.68753  0 119.75 233.59  109.45 119.60 233.64  109.50
   0  -4   8  7137.0   353.6   2 0.05795-0.05795-0.96936 0.57098-0.23873 0.81891  0 169.82 120.33  124.20 169.83 120.40  124.25
   0  -4   8  7693.6   483.5   2-0.23535 0.23535 0.54811-0.94630 0.80261-0.22162  0 409.10 459.70  346.32 409.49 459.72  346.28
   0   4  -8  7073.5   460.0   2 0.12881-0.12881-0.56580 0.96372-0.81442 0.23379  0 455.64 437.41  165.44 455.70 437.25  165.51
   0   4  -8  6340.4   345.7   2-0.16594 0.16594 0.95888-0.56069 0.23024-0.81123  0 200.10  92.09  304.59 200.00  92.22  304.44
   0   4   8  7708.5   364.6   2-0.15712 0.15712-0.56192 0.96003 0.81213-0.23164  0 159.11 133.40   54.07 159.09 133.54   54.26
   0   4   8  6285.4   460.9   2-0.08357 0.08357 0.96786-0.56954-0.23719 0.81770  0 389.18 465.56  276.99 389.18 465.17  276.90
   0  -4  -9 16319.8   430.9   1-0.15378 0.15378 0.57926-0.97716-0.80051 0.14669  0 155.42 414.59    4.10 155.48 414.47    3.88
   0  -4  -9 11627.8   487.6   1-0.54163 0.54163-0.83826 0.44016 0.06289-0.71617  0 489.44 461.73  120.72 489.55 461.57  120.72
   0  -4  -9 11783.5   601.7   2-0.00923 0.00923-0.98787 0.58950 0.15501-0.80772  0 501.53 452.09  101.28 501.79 452.04  101.24
   0  -4  -9 14398.1   503.1   2 0.04507-0.04507 0.58888-0.98702-0.80696 0.15415  0 204.06  58.68  236.30 203.95  58.99  236.20
   0  -4   9 11381.2   425.2   1-0.59192 0.59192-0.80487 0.40677-0.04254 0.69582  0  99.74 222.34  114.12  99.53 222.37  113.76
   0  -4   9 11821.0   465.8   2 0.04458-0.04458-0.98699 0.58862-0.15447 0.80718  0 151.96 105.35  118.99 152.04 105.39  119.29
   0  -4   9 13741.8   636.5   2-0.23460 0.23460 0.56403-0.96223 0.79172-0.13811  0 422.82 491.96  345.28 423.27 492.00  345.17
   0   4  -9 12440.4   605.6   2 0.12793-0.12793-0.58253 0.98046-0.80268 0.14947  0 483.05 465.16  164.32 482.88 464.95  164.35
   0   4  -9 11529.5   459.5   2-0.15271 0.15271 0.97724-0.57904 0.14726-0.80087  0 188.86  69.74  299.61 188.75  69.85  299.47
   0   4   9 12794.3   470.6   2-0.15391 0.15391-0.57887 0.97698 0.80076-0.14770  0 141.10 119.31   55.44 141.04 119.44   55.45
   0   4   9 12464.0   625.3   2-0.09986 0.09986 0.98336-0.58504-0.15176 0.80483  0 401.20 497.48  282.11 401.11 497.12  281.97
   0  -4 -10 12471.0   424.3   1-0.14271 0.14271 0.58948-0.98738-0.79507 0.06861  0 137.32 435.21    3.01 137.39 435.09    2.96
   0  -4 -10 11061.2   502.9   2 0.04319-0.04319 0.59812-0.99626-0.80024 0.07490  0 191.71  31.74  237.01 191.57  31.96  236.86
   0  -4  10  9661.2   428.4   1-0.56363 0.56363-0.82580 0.42770 0.01919 0.70668  0  76.91 209.70  117.75  76.78 209.76  117.83
   0  -4  10  9501.5   468.2   2 0.03155-0.03155-0.99665 0.59828-0.07543 0.80067  0 131.33  88.01  114.56 131.52  88.12  114.66
   0   4 -10  9421.1   479.3   2-0.13936 0.13936 0.98776-0.58944 0.07006-0.79570  0 175.65  43.71  294.99 175.76  43.70  294.96
   0   4  10 10729.8   489.2   2-0.15220 0.15220-0.58783 0.98594 0.79454-0.06892  0 120.46 103.11   56.23 120.16 103.25   56.08
   0  -4 -11  1660.6   246.7   1-0.13967 0.13967 0.59228-0.99018-0.79353-0.00558  0 116.56 460.29    2.95 116.52 459.92    2.71
   0  -4  11  1636.5   264.7   1-0.53348 0.53348-0.84215 0.44405 0.07859 0.71987  0  50.71 195.25  121.67  50.56 195.30  121.75
   0  -4  11  1691.0   301.5   2 0.01901-0.01901-0.99982 0.60145-0.00093 0.79869  0 107.63  68.08  110.33 107.42  67.95  110.35
   0   4 -11  1684.4   311.4   2-0.12679 0.12679 0.99192-0.59361-0.00349-0.79471  0 160.08  12.56  290.69 159.95  12.72  290.65
   0   4  11  1899.0   311.1   2-0.15172 0.15172-0.59030 0.98841 0.79280 0.00538  0  95.64  84.57   56.39  95.63  84.49   56.25
   0  -5   0 -36.397  60.490   1-0.66541 0.66541-0.24869-0.24869-0.70383 0.70383  0 194.89 320.00   62.56 195.02 319.94   62.41
   0  -5   0  76.815 126.979   2-0.20416 0.20416-0.24875-0.24875 0.94681-0.94681  0 389.74 368.00   34.53 389.85 367.96   34.41
   0  -5   0  12.679  74.583   2 0.13108-0.13108-0.24870-0.24870-0.95967 0.95967  0 232.30 152.31  185.32 232.34 152.66  185.61
   0   5   0  -7.100 112.103   1-0.43152 0.43152 0.24869 0.24869-0.86715 0.86715  0 426.69 183.16   29.22 426.62 183.23   29.11
   0   5   0 -58.694  79.050   2-0.23792 0.23792 0.24875 0.24875 0.93889-0.93889  0 218.03 164.02    5.51 218.29 164.49    5.52
   0   5   0 150.833 129.901   2 0.09672-0.09672 0.24883 0.24883-0.96370 0.96370  0 371.70 377.78  214.55 371.62 378.02  214.42
   0  -5  -1  1165.9   127.8   1-0.63178 0.63178-0.14272-0.35467-0.76190 0.68925  0 198.95 329.48   55.15 198.98 329.41   55.23
   0  -5  -1  1029.4   164.9   2-0.18670 0.18670-0.38594-0.11156 0.90343-0.97606  0 393.98 367.53   42.81 394.14 367.42   42.73
   0  -5  -1  1059.2   135.4   2 0.12542-0.12542-0.11013-0.38727-0.98597 0.91339  0 234.32 149.48  193.63 234.09 149.52  193.70
   0  -5   1  1250.1   138.1   1-0.68812 0.68812-0.34707-0.15032-0.63721 0.70986  0 188.94 310.85   69.36 188.95 310.81   69.32
   0  -5   1  1048.1   165.5   2-0.21775 0.21775-0.11252-0.38498 0.96950-0.89687  0 387.75 371.66   26.47 387.80 371.58   26.46
   0  -5   1  1114.5   138.4   2 0.13308-0.13308-0.38713-0.11028-0.91237 0.98495  0 228.72 153.35  176.92 228.82 153.40  177.21
   0   5  -1  1448.0   167.1   1-0.50521 0.50521 0.12937 0.36801-0.85324 0.78060  0 435.32 193.46   37.31 435.48 193.47   37.19
   0   5  -1  1199.2   174.1   2 0.11055-0.11055 0.11016 0.38751-0.98775 0.91521  0 376.17 378.06  206.16 376.02 378.00  206.33
   0   5  -1  1355.8   159.0   2-0.23859 0.23859 0.38430 0.11333 0.89185-0.96449  0 219.87 161.16  356.98 219.73 161.21  356.95
   0   5   1  1194.5   153.3   1-0.33590 0.33590 0.37988 0.11749-0.86190 0.93454  0 420.80 172.48   20.23 420.93 172.53   19.81
   0   5   1  1319.5   155.0   2-0.23295 0.23295 0.11305 0.38446 0.96590-0.89327  0 215.12 165.45   13.44 215.04 165.60   13.47
   0   5   1  1309.7   174.4   2 0.07897-0.07897 0.38796 0.10971-0.91829 0.99082  0 369.27 381.24  222.64 369.26 381.12  222.89
   0  -5  -2 25185.6   411.3   1-0.58786 0.58786-0.03380-0.46358-0.80826 0.66297  0 200.56 339.51   48.25 200.58 339.35   47.99
   0  -5  -2 24065.3   480.9   2-0.16564 0.16564-0.51521 0.01757 0.84091-0.98603  0 400.43 369.95   50.95 400.73 369.96   51.08
   0  -5  -2 24144.6   458.7   2 0.11770-0.11770 0.01944-0.51710-0.99286 0.84779  0 234.27 143.93  200.90 234.03 143.98  201.11
   0  -5   2 21719.0   420.5   1-0.69995 0.69995-0.43531-0.06208-0.56619 0.71149  0 180.89 302.01   75.98 180.93 301.93   75.85
   0  -5   2 23318.2   476.2   2-0.22748 0.22748 0.01433-0.51183 0.97368-0.82842  0 387.58 378.31   19.00 387.92 378.30   19.16
   0  -5   2 23472.7   453.8   2 0.13077-0.13077-0.51679 0.01939-0.84607 0.99122  0 223.64 151.84  169.03 223.56 151.85  168.85
   0   5  -2 24632.1   466.5   1-0.55895 0.55895 0.02782 0.46956-0.82873 0.68344  0 447.43 203.29   44.01 447.58 203.43   43.91
   0   5  -2 22692.0   470.3   2 0.12015-0.12015-0.01978 0.51718-0.99256 0.84740  0 382.51 381.22  199.00 382.42 381.08  198.89
   0   5  -2 23280.1   453.2   2-0.23668 0.23668 0.51117-0.01343 0.82625-0.97150  0 219.46 155.42  349.09 219.26 155.56  348.81
   0   5   2 27126.2   436.0   1-0.22107 0.22107 0.51233-0.01495-0.82985 0.97514  0 418.40 160.77    9.59 418.58 160.98    9.59
   0   5   2 25974.1   475.8   2-0.22550 0.22550-0.01446 0.51196 0.97414-0.82888  0 210.08 164.44   21.02 209.98 164.51   20.82
   0   5   2 23275.3   473.3   2 0.05813-0.05813 0.51863-0.02096-0.85302 0.99809  0 368.83 387.59  231.18 368.87 387.40  231.33
   0  -5  -3  8584.1   259.1   1-0.53666 0.53666 0.07195-0.56933-0.84073 0.62279  0 199.65 349.97   40.99 199.73 349.85   41.00
   0  -5  -3  8079.9   334.1   2-0.14339 0.14339-0.63022 0.13258 0.76306-0.98075  0 409.47 375.52   58.98 409.76 375.54   59.15
   0  -5  -3  8405.3   297.9   2 0.10859-0.10859 0.13427-0.63194-0.98498 0.76738  0 232.71 135.91  207.72 232.45 136.06  207.72
   0  -5   3  7307.5   272.8   1-0.70298 0.70298-0.51251 0.01512-0.49310 0.71105  0 171.17 293.21   81.95 171.16 293.15   81.94
   0  -5   3  8325.9   337.7   2-0.23354 0.23354 0.12580-0.62330 0.96417-0.74629  0 389.81 388.19   12.93 390.05 388.07   12.73
   0  -5   3  7444.1   284.9   2 0.12491-0.12491-0.63138 0.13398-0.76534 0.98308  0 216.62 148.12  160.87 216.61 148.13  160.83
   0   5  -3  8053.0   316.4   1-0.59682 0.59682-0.05434 0.55172-0.80053 0.58259  0 462.76 213.28   49.22 462.91 213.41   49.34
   0   5  -3  8061.2   342.0   2 0.12656-0.12656-0.13390 0.63130-0.98288 0.76514  0 391.02 387.41  192.04 391.15 387.23  192.33
   0   5  -3  7152.8   282.7   2-0.23111 0.23111 0.62348-0.12574 0.74690-0.96477  0 217.42 147.46  341.00 217.21 147.64  340.86
   0   5   3  8541.5   301.2   2-0.21643 0.21643-0.12745 0.62495 0.96794-0.75006  0 203.26 161.30   27.11 203.17 161.31   27.33
   0   5   3  7698.4   328.1   2 0.03570-0.03570 0.63413-0.13647-0.77240 0.99000  0 370.35 397.00  239.51 370.32 396.80  239.50
   0  -5  -4 32787.6   472.5   1-0.48229 0.48229 0.16865-0.66603-0.85962 0.56903  0 196.35 361.29   34.59 196.36 361.10   34.56
   0  -5  -4 28227.0   461.1   1-0.03364 0.03364-0.73107 0.23372 0.68147-0.97172  0 425.08 381.55  168.31 425.17 381.30  168.33
   0  -5  -4 29101.5   562.6   2-0.12056 0.12056-0.72744 0.22980 0.67549-0.96574  0 421.02 384.15   66.96 421.30 384.11   66.76
   0  -5  -4 29500.1   538.6   2 0.09872-0.09872 0.23090-0.72857-0.96796 0.67782  0 229.59 125.67  213.25 229.33 125.82  213.36
   0  -5   4 24678.0   488.9   1-0.69859 0.69859-0.57911 0.08172-0.42025 0.71084  0 159.72 284.44   87.59 159.77 284.40   87.60
   0  -5   4 30602.3   574.9   2-0.23712 0.23712 0.21910-0.71660 0.94645-0.65594  0 393.84 401.06    7.13 394.09 400.96    7.27
   0  -5   4 27222.2   525.7   2 0.11630-0.11630-0.72786 0.23046-0.67579 0.96611  0 208.01 142.38  152.88 207.99 142.41  153.30
   0   5  -4 28784.0   548.5   1-0.62278 0.62278-0.11827 0.61566-0.77341 0.48282  0 481.42 223.53   53.57 481.53 223.65   53.59
   0   5  -4 28206.9   553.6   2 0.13053-0.13053-0.22953 0.72693-0.96451 0.67420  0 402.10 396.63  186.80 402.24 396.45  186.75
   0   5  -4 27719.6   527.1   2-0.22264 0.22264 0.71832-0.22058 0.65913-0.94962  0 213.84 137.32  333.53 213.61 137.51  333.39
   0   5   4 31876.4   558.8   2-0.20701 0.20701-0.22272 0.72022 0.95265-0.66214  0 194.67 156.15   33.00 194.61 156.19   32.87
   0   5   4 28053.7   551.5   2 0.01282-0.01282 0.73110-0.23343-0.68215 0.97229  0 373.51 409.63  246.91 373.52 409.35  247.22
   0  -5  -5 14590.0   341.4   1-0.42926 0.42926 0.25206-0.74944-0.86729 0.50406  0 190.60 373.47   29.12 190.60 373.29   28.88
   0  -5  -5 11818.2   354.8   1-0.15606 0.15606-0.80181 0.30445 0.57684-0.93966  0 433.60 397.86  158.15 433.68 397.59  158.23
   0  -5  -5 12164.0   430.0   2-0.09841 0.09841-0.80631 0.30866 0.58326-0.94607  0 435.44 395.91   74.01 435.60 395.81   73.81
   0  -5  -5 13156.8   394.3   2 0.08959-0.08959 0.30901-0.80668-0.94683 0.58416  0 225.03 113.08  218.09 224.79 113.24  218.03
   0  -5   5 11878.7   371.6   1-0.68843 0.68843-0.63598 0.13860-0.34870 0.71194  0 146.74 275.54   92.96 146.77 275.51   92.87
   0  -5   5 11925.9   434.6   2-0.23878 0.23878 0.29421-0.79171 0.92543-0.56229  0 399.85 417.29    3.00 399.98 417.09    2.80
   0  -5   5 12133.9   386.7   2 0.10585-0.10585-0.80555 0.30758-0.58300 0.94562  0 197.75 134.79  146.03 197.72 134.74  146.26
   0   5  -5 11425.8   411.0   1-0.64017 0.64017-0.16639 0.66378-0.75000 0.38676  2 503.69 234.31   57.09 503.92 234.46   56.81
   0   5  -5 12839.8   445.9   2 0.13221-0.13221-0.30662 0.80403-0.94260 0.57971  0 415.71 409.01  182.00 415.80 408.78  182.15
   0   5  -5 11928.9   383.0   2-0.21246 0.21246 0.79541-0.29767 0.56761-0.93073  0 208.70 125.05  326.60 208.49 125.22  326.45
   0   5   5 13090.8   391.8   2-0.19817 0.19817-0.29986 0.79736 0.93317-0.57004  0 184.40 149.24   37.45 184.32 149.28   37.47
   0   5   5 12157.2   430.4   2-0.00955 0.00955 0.80921-0.31131-0.58744 0.95026  0 378.36 425.44  254.30 378.22 425.16  254.39
   0  -5  -6 223.892 112.674   1-0.38100 0.38100 0.32038-0.81776-0.86729 0.43141  0 182.60 386.48   24.32 182.52 386.71   24.09
   0  -5  -6  -8.213 163.543   1-0.26579 0.26579-0.84520 0.34757 0.46367-0.89919  0 445.89 416.08  149.41 445.78 416.42  148.86
   0  -5  -6 211.345 208.681   2-0.07747 0.07747-0.86815 0.37051 0.49022-0.92559  0 453.10 411.00   79.90 453.07 410.89   80.29
   0  -5  -6 201.084 140.342   2 0.08149-0.08149 0.37013-0.86779-0.92540 0.49020  0 219.14  98.80  222.13 218.83  98.26  221.78
   0  -5   6 278.967 128.139   1-0.67362 0.67362-0.68433 0.18694-0.27916 0.71504  0 132.14 266.16   97.51 132.12 266.37   97.79
   0  -5   6  64.682 132.302   2 0.09400-0.09400-0.86689 0.36893-0.48955 0.92469  0 185.66 125.59  139.92 185.76 125.33  139.86
   0   5  -6  37.988 217.558   2 0.13296-0.13296-0.36679 0.86419-0.92075 0.48528  0 432.44 424.96  178.38 432.24 424.58  178.47
   0   5  -6 301.693 129.791   2-0.20104 0.20104 0.85622-0.35847 0.47589-0.91164  0 201.88 110.61  320.41 201.91 110.67  320.04
   0   5   6 391.047 145.573   2-0.19024 0.19024-0.36031 0.85781 0.91323-0.47746  0 172.26 140.60   41.47 172.26 140.65   41.15
   0   5   6 210.306 217.250   2-0.03114 0.03114 0.86984-0.37194-0.49235 0.92773  0 384.70 444.87  260.45 384.70 444.58  260.94
   0  -5  -7 11907.7   345.8   1-0.34100 0.34100 0.37341-0.87079-0.86272 0.35419  0 172.23 401.90   20.28 172.21 401.74   20.29
   0  -5  -7  9596.7   391.9   1-0.35991 0.35991-0.86506 0.36743 0.34948-0.85759  0 461.96 439.05  140.30 461.92 438.80  140.31
   0  -5  -7  9105.4   499.3   2-0.05789 0.05789-0.91517 0.41753 0.39888-0.90682  0 474.02 429.82   86.30 474.28 429.81   86.28
   0  -5  -7 10723.8   410.1   2 0.07469-0.07469 0.41654-0.91421-0.90604 0.39831  0 211.66  80.44  224.69 211.42  80.66  224.67
   0  -5   7  8611.2   363.7   1-0.65526 0.65526-0.72497 0.22734-0.21228 0.72039  0 115.95 256.81  102.36 115.75 256.90  102.41
   0  -5   7  9884.5   415.3   2 0.08148-0.08148-0.91368 0.41572-0.39817 0.90584  0 171.95 114.11  133.98 171.93 114.10  133.98
   0  -5   7  7411.7   480.2   2-0.23843 0.23843 0.39702-0.89465 0.88630-0.37782  0 417.71 460.67  355.99 417.98 460.70  356.15
   0   5  -7  9903.3   507.2   2 0.13308-0.13308-0.41237 0.90978-0.90124 0.39319  0 451.95 444.37  175.69 452.04 444.25  175.62
   0   5  -7  9295.7   395.4   2-0.18890 0.18890 0.90288-0.40514 0.38616-0.89453  0 193.93  93.48  314.29 193.78  93.69  314.14
   0   5   7 10355.3   409.5   2-0.18377 0.18377-0.40620 0.90370 0.89512-0.38672  0 158.32 130.20   43.92 158.24 130.29   44.00
   0   5   7 10008.3   508.5   2-0.05093 0.05093 0.91540-0.41751-0.39930 0.90724  0 392.81 468.36  266.78 392.88 468.08  266.96
   0  -5  -8  6001.9   294.4   1-0.30933 0.30933 0.41279-0.91017-0.85669 0.27551  0 159.78 418.99   17.33 159.74 418.92   17.37
   0  -5  -8  4773.8   414.8   1-0.43829 0.43829-0.86649 0.36886 0.23897-0.81966  0 482.24 465.97  132.59 482.39 465.74  132.53
   0  -5  -8  4966.2   535.7   2-0.03978 0.03978-0.94971 0.45207 0.31060-0.89110  0 500.34 453.68   92.03 500.21 453.41   91.83
   0  -5  -8  5301.1   370.7   2 0.06950-0.06950 0.45061-0.94828-0.89001 0.30974  0 202.67  59.88  226.71 202.46  60.06  226.85
   0  -5   8  4388.3   305.6   1-0.63375 0.63375-0.75940 0.26178-0.14720 0.72790  0  97.33 246.56  107.11  97.19 246.66  106.81
   0  -5   8  4135.6   340.9   2 0.06868-0.06868-0.94823 0.45027-0.31006 0.89025  0 155.97 100.86  128.34 155.99 100.92  128.52
   0  -5   8  4744.9   555.5   2-0.23812 0.23812 0.42926-0.92690 0.87123-0.29011  0 429.96 489.56  354.31 430.22 489.55  354.09
   0   5  -8  4494.5   530.9   2 0.13263-0.13263-0.44579 0.94319-0.88526 0.30463  0 476.01 468.91  173.54 476.09 468.74  173.51
   0   5  -8  4245.8   346.5   2-0.17647 0.17647 0.93761-0.43987 0.29956-0.88055  0 184.03  73.66  309.02 183.97  73.90  308.69
   0   5   8  5051.1   345.1   2-0.17877 0.17877-0.43983 0.93733 0.88011-0.29909  0 142.07 118.12   46.01 142.01 118.13   46.13
   0   5   8  5202.5   520.7   2-0.06926 0.06926 0.94834-0.45044-0.30961 0.89012  0 403.03 496.90  272.52 403.02 496.51  272.52
   0  -5  -9  1436.8   200.9   1-0.28618 0.28618 0.44029-0.93766-0.85103 0.19721  0 144.90 438.79   14.92 144.94 438.97   15.29
   0  -5  -9  1174.1   249.0   2 0.06566-0.06566 0.47447-0.97214-0.87782 0.22501  0 191.93  35.91  228.40 191.70  35.83  228.40
   0  -5   9 998.596 231.891   1-0.60963 0.60963-0.78820 0.29057-0.08423 0.73751  0  76.01 235.37  111.01  76.08 235.48  111.00
   0  -5   9 764.734 228.961   2 0.05590-0.05590-0.97259 0.47462-0.22570 0.87841  0 137.45  85.64  122.93 137.51  85.48  123.47
   0   5  -9  1280.1   259.6   2-0.16380 0.16380 0.96243-0.46468 0.21658-0.87020  0 172.22  50.38  303.72 172.21  50.68  303.62
   0   5   9  1054.3   229.4   2-0.17488 0.17488-0.46330 0.96080 0.86878-0.21513  0 123.04 103.60   47.68 123.15 103.92   47.64
   0  -5 -10 13147.5   457.0   1-0.27111 0.27111 0.45762-0.95500-0.84681 0.12034  0 127.62 463.03   14.00 127.56 462.81   13.95
   0  -5 -10 12739.2   613.8   2 0.06307-0.06307 0.48987-0.98754-0.86951 0.14417  2 179.02   6.85  229.40 178.78   6.95  229.39
   0  -5  10 11036.5   501.7   1-0.58328 0.58328-0.81194 0.31431-0.02312 0.74899  0  51.92 222.98  115.19  51.76 222.97  115.05
   0  -5  10 11270.8   544.7   2 0.04305-0.04305-0.98847 0.49051-0.14514 0.87037  0 116.14  67.38  118.59 115.85  67.30  118.74
   0   5 -10 11555.3   571.1   2-0.15070 0.15070 0.97890-0.48100 0.13804-0.86367  0 158.14  23.01  298.82 158.32  23.03  298.97
   0   5  10 12174.9   542.6   2-0.17249 0.17249-0.47824 0.97574 0.86113-0.13485  0 101.40  87.13   48.62 100.98  87.30   48.61
   0  -5 -11  1923.7   278.1   1-0.26350 0.26350 0.46621-0.96359-0.84452 0.04540  0 107.04 492.65   13.43 107.02 491.97   13.28
   0  -5  11  1526.5   291.7   1-0.55516 0.55516-0.83094 0.33331 0.03643 0.76203  0  23.06 208.52  119.15  23.33 208.60  118.97
   0  -5  11  1832.2   341.6   2 0.03045-0.03045-0.99721 0.49924-0.06817 0.86593  0  89.81  45.64  113.97  90.01  45.65  114.25
   0   5  11  1814.7   329.2   2-0.17122 0.17122-0.48602 0.98352 0.85701-0.05811  0  74.27  67.51   48.98  74.52  67.62   49.12
   0  -6   0 61409.6   724.3   1-0.67797 0.67797-0.29843-0.29843-0.67179 0.67179  0 171.07 335.73   65.99 171.11 335.59   65.86
   0  -6   0 60064.1   794.4   2-0.19834 0.19834-0.29850-0.29850 0.93357-0.93357  0 415.03 399.53   37.34 415.34 399.54   37.39
   0  -6   0 63006.5   791.2   2 0.13213-0.13213-0.29844-0.29844-0.94524 0.94524  0 215.84 127.17  182.66 215.78 127.25  182.65
   0   6   0 67914.9   773.8   1-0.39702 0.39702 0.29843 0.29843-0.86794 0.86794  0 462.84 159.58   25.65 463.00 159.84   25.65
   0   6   0 69651.8   829.7   2-0.23884 0.23884 0.29850 0.29850 0.92404-0.92404  0 198.45 142.47    2.55 198.37 142.55    2.54
   0   6   0 64318.6   821.8   2 0.09081-0.09081 0.29860 0.29860-0.95005 0.95005  0 390.78 412.15  217.34 391.15 411.97  217.40
   0  -6  -1  2197.1   189.4   1-0.65576 0.65576-0.21476-0.38211-0.72378 0.65114  0 175.35 345.70   59.97 175.38 345.61   60.09
   0  -6  -1  2190.9   244.3   2-0.18299 0.18299-0.41153-0.18547 0.89283-0.96546  0 419.90 398.85   44.31 419.94 398.88   44.34
   0  -6  -1  2204.2   218.3   2 0.12901-0.12901-0.18438-0.41251-0.97435 0.90177  0 217.79 123.90  189.31 217.67 124.02  189.39
   0  -6   1  2005.9   182.0   1-0.69304 0.69304-0.37760-0.21927-0.61409 0.68674  0 164.92 326.12   71.55 164.92 326.04   71.54
   0  -6   1  2313.6   252.8   2-0.21082 0.21082-0.18618-0.41083 0.95963-0.88700  0 412.78 403.28   30.99 412.92 403.24   30.73
   0  -6   1  2054.0   213.7   2 0.13308-0.13308-0.41244-0.18444-0.90121 0.97379  0 212.29 128.12  175.85 212.23 128.22  175.62
   0   6  -1  2579.6   276.4   1-0.46434 0.46434 0.19777 0.39908-0.86329 0.79065  0 472.99 170.65   32.52 472.99 170.79   32.59
   0   6  -1  2045.1   243.3   2 0.10369-0.10369 0.18430 0.41291-0.97739 0.90485  0 395.73 412.14  210.59 395.86 411.96  210.63
   0   6  -1  2302.3   216.2   2-0.23834 0.23834 0.41009 0.18708 0.88035-0.95299  0 199.95 139.17  355.36 199.91 139.21  355.32
   0   6   1  2408.9   268.0   1-0.31391 0.31391 0.40724 0.18961-0.85768 0.93033  0 455.97 148.08   17.68 456.20 148.15   17.79
   0   6   1  2631.4   225.7   2-0.23603 0.23603 0.18691 0.41009 0.95360-0.88097  0 195.15 143.90    9.18 195.13 143.92    9.17
   0   6   1  2150.3   250.2   2 0.07518-0.07518 0.41323 0.18397-0.90752 0.98005  0 388.18 415.37  224.36 388.40 415.10  224.46
   0  -6  -2 702.242 123.701   1-0.62682 0.62682-0.12906-0.46780-0.76840 0.62310  0 177.59 356.29   54.34 177.59 356.24   54.31
   0  -6  -2 776.447 210.849   2-0.16482 0.16482-0.51991-0.07726 0.83817-0.98329  0 426.97 401.30   51.35 426.95 401.35   51.40
   0  -6  -2 568.494 145.238   2 0.12356-0.12356-0.07546-0.52142-0.98946 0.84431  0 217.88 118.35  195.62 217.97 118.52  195.69
   0  -6   2 711.413 141.274   1-0.70114 0.70114-0.45063-0.14623-0.55257 0.69786  0 156.74 316.69   77.36 156.88 316.80   77.03
   0  -6   2 981.208 213.745   2-0.22059 0.22059-0.07965-0.51735 0.97211-0.82686  0 412.57 410.07   24.58 412.73 410.08   24.56
   0  -6   2 560.642 140.772   2 0.13063-0.13063-0.52120-0.07569-0.84338 0.98854  0 206.92 127.17  168.60 207.02 127.04  168.55
   0   6  -2 903.822 206.185   1-0.51644 0.51644 0.10936 0.48749-0.84931 0.70402  0 486.20 181.20   38.49 486.33 181.29   38.52
   0   6  -2 734.627 205.063   2 0.11343-0.11343 0.07557 0.52163-0.99067 0.84560  0 402.46 415.29  204.31 402.74 415.06  204.33
   0   6  -2 630.781 139.094   2-0.23658 0.23658 0.51644 0.08085 0.82300-0.96824  0 199.62 133.56  348.54 199.59 133.65  348.44
   0   6   2 983.470 193.399   1-0.21598 0.21598 0.51765 0.07921-0.82789 0.97318  0 452.54 135.39    9.31 452.65 135.46    9.15
   0   6   2 770.414 154.190   2-0.23129 0.23129 0.08027 0.51673 0.96957-0.82431  0 190.18 143.13   14.93 190.14 143.23   15.36
   0   6   2 689.373 205.266   2 0.05739-0.05739 0.52282 0.07438-0.85051 0.99558  0 387.48 421.60  231.71 387.61 421.44  231.61
   0  -6  -3 696.298 128.437   1-0.59258 0.59258-0.04453-0.55232-0.80428 0.58634  0 177.56 367.98   48.67 177.64 367.63   48.70
   0  -6  -3 566.508 206.615   2-0.14576 0.14576-0.61945 0.02228 0.77138-0.98907  0 436.42 407.19   58.38 436.53 406.96   58.35
   0  -6  -3 571.462 151.609   2 0.11740-0.11740 0.02350-0.62070-0.99281 0.77521  0 216.86 110.83  201.34 216.57 110.68  201.35
   0  -6   3 547.964 131.606   1-0.70291 0.70291-0.51671-0.08016-0.48880 0.70675  0 146.87 307.73   82.20 147.08 307.76   82.29
   0  -6   3 609.153 214.112   2-0.22766 0.22766 0.01706-0.61406 0.97359-0.75571  0 414.40 420.10   18.95 414.62 420.13   19.00
   0  -6   3 635.993 155.076   2 0.12561-0.12561-0.62052 0.02364-0.77406 0.99180  0 200.20 123.69  161.51 200.16 123.73  161.62
   0   6  -3 465.863 200.988   1-0.55548 0.55548 0.03485 0.56200-0.83080 0.61286  2 502.97 191.60   43.44 503.22 191.68   43.45
   0   6  -3 664.835 219.601   2 0.12042-0.12042-0.02387 0.62076-0.99244 0.77470  0 411.68 421.48  198.64 411.66 421.33  198.66
   0   6  -3 421.157 139.681   2-0.23178 0.23178 0.61369-0.01640 0.75476-0.97263  0 198.12 125.91  341.63 197.80 125.85  341.60
   0   6   3 792.491 156.303   2-0.22530 0.22530-0.01726 0.61426 0.97414-0.75625  0 183.28 140.28   21.05 183.40 140.57   20.98
   0   6   3 460.467 213.176   2 0.03810-0.03810 0.62294-0.02574-0.78134 0.99894  0 388.44 430.97  238.47 388.65 431.00  238.68
   0  -6  -4  53.500  99.356   1-0.55521 0.55521 0.03540-0.63225-0.83096 0.54037  0 175.41 379.78   43.53 175.45 379.98   43.41
   0  -6  -4  47.074 167.716   1-0.00431 0.00431-0.71098 0.11415 0.70320-0.99345  0 456.76 409.81  170.64 456.89 410.07  170.71
   0  -6  -4 -94.800 199.191   2-0.12567 0.12567-0.70726 0.11009 0.69570-0.98594  0 448.75 415.67   64.99 448.84 415.78   65.11
   0  -6  -4  24.115 129.611   2 0.11049-0.11049 0.11077-0.70797-0.98769 0.69755  0 213.73 100.61  206.51 213.78 100.46  206.36
   0  -6   4 -81.589 101.333   1-0.69899 0.69899-0.57571-0.02115-0.42423 0.71482  0 135.19 298.92   87.50 135.58 298.81   87.30
   0  -6   4  66.934 203.390   2-0.23238 0.23238 0.10152-0.69853 0.96731-0.67680  0 418.34 433.10   14.03 418.58 433.51   14.14
   0  -6   4 166.349 136.105   2 0.11847-0.11847-0.70778 0.11090-0.69643 0.98675  0 191.74 118.47  154.47 191.61 118.41  154.94
   0   6  -4  40.079 216.206   2 0.12543-0.12543-0.11050 0.70738-0.98593 0.69561  0 423.39 430.90  193.54 423.25 430.92  193.67
   0   6  -4  41.640 127.438   2-0.22470 0.22470 0.69932-0.10202 0.67858-0.96907  0 194.30 115.54  335.00 194.40 115.84  334.97
   0   6   4 -54.785 121.704   2-0.21857 0.21857-0.10301 0.70001 0.97037-0.67986  0 174.84 136.02   25.54 174.90 135.96   25.91
   0   6   4  52.669 209.272   2 0.01797-0.01797 0.71073-0.11353-0.70324 0.99337  0 391.47 443.90  245.54 391.48 443.97  245.51
   0  -6  -5 543.324 133.459   1-0.51735 0.51735 0.10771-0.70456-0.84897 0.48573  0 170.73 393.91   38.53 171.01 393.54   38.63
   0  -6  -5 638.490 199.726   1-0.11643 0.11643-0.78139 0.18456 0.61308-0.97590  0 463.95 428.16  161.50 464.05 428.66  161.53
   0  -6  -5 334.499 247.690   2-0.10558 0.10558-0.78200 0.18483 0.61427-0.97708  0 464.16 427.78   71.36 464.34 428.10   71.52
   0  -6  -5 535.511 167.703   2 0.10364-0.10364 0.18478-0.78198-0.97730 0.61463  0 209.55  87.72  210.59 209.48  87.74  210.66
   0  -6   5 444.670 139.206   1-0.69031 0.69031-0.62782 0.03095-0.35961 0.72285  0 122.13 289.92   92.43 122.32 289.79   92.08
   0  -6   5 707.656 253.144   2-0.23551 0.23551 0.17280-0.76980 0.95639-0.59325  0 424.71 450.61    9.89 424.65 450.56   10.00
   0  -6   5 633.469 177.158   2 0.10948-0.10948-0.78152 0.18396-0.61420 0.97682  0 181.12 111.05  148.43 181.29 110.98  148.52
   0   6  -5 567.232 258.138   2 0.12899-0.12899-0.18371 0.78059-0.97448 0.61159  0 437.68 444.10  189.51 437.65 444.09  189.43
   0   6  -5 534.157 165.096   2-0.21592 0.21592 0.77226-0.17497 0.59749-0.96061  0 189.37 103.53  328.74 189.39 103.54  328.65
   0   6   5 699.950 177.807   2-0.21185 0.21185-0.17582 0.77282 0.96136-0.59822  0 164.38 129.33   30.39 164.53 129.51   30.13
   0   6   5 842.334 260.566   2-0.00206 0.00206 0.78505-0.18757-0.61943 0.98225  0 395.80 460.46  252.40 395.96 460.55  252.06
   0  -6  -6  3622.9   242.1   1-0.48112 0.48112 0.17042-0.76727-0.85993 0.42405  0 164.27 408.61   34.44 164.25 408.68   34.44
   0  -6  -6  3279.8   363.9   1-0.22166 0.22166-0.83027 0.23344 0.51139-0.94677  0 475.04 450.40  152.71 475.04 450.45  152.67
   0  -6  -6  2981.5   357.6   2-0.08631 0.08631-0.84364 0.24647 0.52993-0.96530  0 483.53 444.47   77.48 483.53 444.38   77.59
   0  -6  -6  3418.0   320.7   2 0.09708-0.09708 0.24568-0.84288-0.96448 0.52927  0 203.79  72.15  213.99 203.64  72.36  214.23
   0  -6   6  3287.0   273.4   1-0.67756 0.67756-0.67346 0.07659-0.29558 0.73147  0 107.33 280.63   96.62 107.18 280.55   96.64
   0  -6   6  3213.6   369.5   2-0.23745 0.23745 0.23114-0.82814 0.94350-0.50773  0 432.86 471.73    6.57 432.90 471.74    6.56
   0  -6   6  3346.8   315.9   2 0.09920-0.09920-0.84263 0.24507-0.52928 0.96442  0 169.06 101.67  142.32 169.07 101.68  142.52
   0   6  -6  3158.3   365.6   2 0.13094-0.13094-0.24379 0.84067-0.96095 0.52547  0 455.34 461.47  186.01 455.33 461.26  185.90
   0   6  -6  2747.8   292.2   2-0.20596 0.20596 0.83264-0.23534 0.51410-0.94984  0 183.04  88.63  322.86 182.72  88.77  322.65
   0   6   6  3601.6   304.5   2-0.20561 0.20561-0.23575 0.83275 0.94981-0.51405  0 152.16 121.22   33.66 152.16 121.19   33.64
   0   6   6  3380.1   359.8   2-0.02204 0.02204 0.84580-0.24832-0.53305 0.96843  0 402.42 481.59  258.35 402.41 481.34  258.20
   0  -6  -7  1846.5   204.2   1-0.44875 0.44875 0.22239-0.81924-0.86554 0.35701  0 155.14 426.18   30.81 155.23 425.89   30.91
   0  -6  -7  1393.2   284.7   1-0.31718 0.31718-0.85819 0.26103 0.40362-0.91173  0 490.02 477.14  143.97 490.19 476.75  144.27
   0  -6  -7  1714.4   251.9   2 0.09133-0.09133 0.29437-0.89157-0.95132 0.44358  0 196.27  53.73  216.98 196.18  53.97  217.14
   0  -6   7  1580.3   233.1   1-0.66129 0.66129-0.71302 0.11587-0.23302 0.74113  0  89.98 270.95  101.12  90.02 271.05  101.00
   0  -6   7  1446.6   372.3   2-0.23852 0.23852 0.27754-0.87454 0.93063-0.42224  0 443.76 498.31    4.02 443.67 497.85    3.80
   0  -6   7  1554.4   255.5   2 0.08784-0.08784-0.89168 0.29412-0.44406 0.95172  0 155.05  90.41  136.61 154.79  90.25  136.89
   0   6  -7  1400.7   362.0   2 0.13201-0.13201-0.29170 0.88859-0.94736 0.43930  0 477.15 483.28  182.94 477.04 483.21  183.05
   0   6  -7  1379.4   235.9   2-0.19501 0.19501 0.88132-0.28402 0.43041-0.93878  0 174.28  71.00  317.33 174.32  71.22  317.00
   0   6   7  1809.4   254.1   2-0.20011 0.20011-0.28365 0.88065 0.93782-0.42942  0 137.62 110.86   36.47 137.61 110.98   36.49
   0  -6  -8 25518.5   542.8   1-0.42170 0.42170 0.26345-0.86030-0.86762 0.28644  0 143.76 446.02   27.54 143.85 445.78   28.10
   0  -6  -8 22943.9   661.5   2 0.08662-0.08662 0.33212-0.92932-0.93925 0.35898  0 187.13  31.66  219.42 186.91  32.04  219.44
   0  -6   8 19511.9   577.2   1-0.64206 0.64206-0.74731 0.15016-0.17111 0.75180  0  70.44 260.74  105.03  70.30 260.82  105.20
   0  -6   8 19031.8   607.3   2 0.07603-0.07603-0.92989 0.33232-0.35991 0.94010  0 137.99  76.62  131.43 138.03  76.51  131.59
   0   6  -8 20075.5   625.5   2-0.18347 0.18347 0.91946-0.32217 0.34774-0.92873  0 164.12  50.22  311.78 163.94  50.43  311.70
   0   6   8 22211.3   633.7   2-0.19559 0.19559-0.32072 0.91772 0.92676-0.34574  0 120.92  98.60   38.71 120.49  98.68   38.73
   0  -6  -9 261.600 194.823   1-0.39994 0.39994 0.29431-0.89117-0.86800 0.21418  0 129.74 469.61   26.02 129.86 469.23   25.94
   0  -6   9 327.664 179.810   1-0.62010 0.62010-0.77671 0.17956-0.11041 0.76370  0  47.37 249.80  109.39  47.53 249.65  109.26
   0  -6   9  36.639 232.504   2 0.06393-0.06393-0.95855 0.36099-0.27766 0.93038  0 118.24  59.87  126.37 118.30  60.08  126.58
   0   6  -9 420.589 264.104   2-0.17153 0.17153 0.94834-0.35104 0.26690-0.92051  0 151.65  26.19  306.68 151.16  25.61  306.67
   0   6   9 538.806 234.197   2-0.19185 0.19185-0.34828 0.94528 0.91755-0.26390  0 100.55  84.27   40.58 100.26  83.96   40.41
   0  -6 -10  9648.2   466.8   1-0.38466 0.38466 0.31537-0.91222-0.86751 0.14105  2 113.18 497.99   24.44 112.93 497.71   24.45
   0  -6  10  6511.5   432.6   1-0.59570 0.59570-0.80159 0.20444-0.05088 0.77675  0  20.71 237.09  113.34  20.90 237.18  113.21
   0  -6  10  7276.8   544.2   2 0.05152-0.05152-0.97889 0.38133-0.19776 0.92300  0  95.17  40.54  121.71  94.70  40.27  121.83
   0   6  10  7966.2   534.4   2-0.18926 0.18926-0.36748 0.96448 0.91057-0.18430  0  76.35  66.28   41.57  76.02  66.32   41.59
   0  -7   0  95.441 114.541   1-0.68832 0.68832-0.34817-0.34817-0.63639 0.63639  0 144.52 354.00   70.00 144.65 353.88   69.40
   0  -7   0-199.539 237.730   2-0.19185 0.19185-0.34825-0.34825 0.91756-0.91756  0 446.54 438.40   40.48 446.48 438.30   40.41
   0  -7   0 138.032 137.275   2 0.13279-0.13279-0.34818-0.34818-0.92797 0.92797  0 196.82  98.37  179.46 196.84  98.31  179.62
   0   7   0  41.368 244.716   2 0.08453-0.08453 0.34837 0.34837-0.93354 0.93354  0 414.38 453.17  220.47 414.56 453.36  220.43
   0  -7  -1  2415.6   219.7   1-0.67374 0.67374-0.28064-0.41570-0.68360 0.61095  0 149.19 364.78   64.63 149.27 364.67   64.62
   0  -7  -1  2333.7   310.2   2-0.17819 0.17819-0.44362-0.25288 0.87832-0.95095  0 451.40 437.70   46.38 451.65 437.64   46.37
   0  -7  -1  2774.6   270.5   2 0.13112-0.13112-0.25203-0.44433-0.95879 0.88622  0 198.92  94.80  185.37 198.90  94.88  185.42
   0  -7   1  2453.0   225.1   1-0.69773 0.69773-0.41302-0.28332-0.58530 0.65795  0 138.23 343.75   74.18 138.16 343.72   74.16
   0  -7   1  2561.9   314.2   2-0.20362 0.20362-0.25343-0.44307 0.94568-0.87305  0 443.63 442.32   34.77 443.75 442.27   34.69
   0  -7   1  2408.0   270.8   2 0.13265-0.13265-0.44431-0.25206-0.88600 0.95858  0 193.14  99.47  173.59 193.18  99.52  173.60
   0   7  -1  2737.1   329.3   2 0.09637-0.09637 0.25189 0.44484-0.96294 0.89041  0 419.75 453.62  214.60 419.81 453.44  214.60
   0   7  -1  2284.5   268.7   2-0.23794 0.23794 0.44229 0.25440 0.86473-0.93737  0 177.15 114.09  353.36 177.24 114.39  353.25
   0   7   1  2894.8   299.3   1-0.28580 0.28580 0.44073 0.25560-0.85093 0.92357  0 499.33 116.74   14.78 499.31 116.86   15.25
   0   7   1  2292.2   268.7   2-0.23805 0.23805 0.25429 0.44221 0.93737-0.86475  0 172.37 119.39    4.97 172.30 119.53    5.19
   0   7   1  2397.0   326.5   2 0.07037-0.07037 0.44508 0.25165-0.89272 0.96526  0 411.05 456.89  226.46 411.35 456.64  226.49
   0  -7  -2 11552.4   374.1   1-0.65492 0.65492-0.21198-0.48436-0.72536 0.58007  0 151.89 376.45   60.00 151.97 376.24   59.90
   0  -7  -2  9254.8   502.0   2-0.16186 0.16186-0.53605-0.16065 0.82852-0.97365  0 459.25 440.37   52.44 459.49 440.31   52.48
   0  -7  -2 11192.5   425.6   2 0.12783-0.12783-0.15925-0.53711-0.97893 0.83377  0 199.34  88.97  190.82 199.32  89.13  190.86
   0  -7   2 10591.9   375.9   1-0.70243 0.70243-0.47410-0.22224-0.53087 0.67616  0 129.73 334.06   78.95 129.85 333.98   78.86
   0  -7   2 10459.8   525.2   2-0.21316 0.21316-0.16248-0.53402 0.96341-0.81816  0 443.21 449.65   29.32 443.29 449.57   29.35
   0  -7   2 10245.7   408.8   2 0.13011-0.13011-0.53705-0.15932-0.83346 0.97862  0 187.83  98.44  167.45 187.85  98.55  167.48
   0   7  -2 10640.2   535.1   2 0.10621-0.10621 0.15910 0.53763-0.98153 0.83646  0 427.11 457.12  208.95 427.33 456.90  209.17
   0   7  -2 10512.7   412.5   2-0.23595 0.23595 0.53293 0.16391 0.81259-0.95784  0 177.19 108.40  347.40 176.97 108.65  347.32
   0   7   2 11966.2   476.1   1-0.19951 0.19951 0.53467 0.16166-0.82118 0.96647  0 494.53 102.29    7.80 494.53 102.56    7.74
   0   7   2 11204.7   417.9   2-0.23521 0.23521 0.16359 0.53291 0.95808-0.81282  0 167.25 119.05   10.53 167.20 119.11   10.54
   0   7   2 10407.5   521.2   2 0.05464-0.05464 0.53854 0.15819-0.84083 0.98590  0 409.97 463.61  232.80 410.25 463.40  232.68
   0  -7  -3 15838.3   422.6   1-0.63224 0.63224-0.14401-0.55233-0.76127 0.54332  0 152.56 389.02   55.31 152.67 388.82   55.31
   0  -7  -3 13318.4   569.9   2-0.14497 0.14497-0.62263-0.07407 0.76897-0.98666  0 470.13 446.58   58.56 470.21 446.51   58.59
   0  -7  -3 15357.5   492.9   2 0.12340-0.12340-0.07277-0.62359-0.98968 0.77195  0 198.28  80.93  196.00 198.18  81.02  195.84
   0  -7   3 13682.8   435.9   1-0.70249 0.70249-0.53070-0.16565-0.47420 0.69215  0 119.90 324.67   83.39 119.71 324.56   83.44
   0  -7   3 14749.7   598.8   2-0.22070 0.22070-0.07820-0.61830 0.97220-0.75432  0 445.13 460.61   24.49 445.22 460.47   24.48
   0  -7   3 13682.3   469.4   2 0.12544-0.12544-0.62351-0.07285-0.77169 0.98942  0 180.78  95.33  161.28 180.81  95.40  161.41
   0   7  -3 15249.8   599.9   2 0.11365-0.11365 0.07289 0.62384-0.99084 0.77324  0 437.14 464.05  204.12 437.35 463.92  204.18
   0   7  -3 14078.4   474.3   2-0.23152 0.23152 0.61751 0.07933 0.75172-0.96959  0 175.40 100.37  341.42 175.17 100.67  341.30
   0   7   3 15577.9   488.9   2-0.23122 0.23122 0.07899 0.61751 0.96969-0.75181  0 160.27 116.62   15.44 160.28 116.71   15.44
   0   7   3 14870.9   600.8   2 0.03752-0.03752 0.62569 0.07104-0.77917 0.99677  0 410.76 473.91  238.80 411.06 473.65  238.88
   0  -7  -4  3708.0   263.6   1-0.60710 0.60710-0.07883-0.61751-0.79071 0.50012  0 151.20 402.91   51.34 151.25 402.63   50.98
   0  -7  -4  2930.3   366.2   1 0.00479-0.00479-0.70449 0.00819 0.70970-0.99995  0 497.12 447.79  171.46 497.06 447.70  171.46
   0  -7  -4  2909.3   377.8   2-0.12715 0.12715-0.70111 0.00441 0.70162-0.99187  0 484.17 456.35   64.55 484.13 456.34   64.61
   0  -7  -4  3031.2   317.1   2 0.11876-0.11876 0.00469-0.70143-0.99291 0.70278  0 195.33  70.03  200.04 195.30  70.32  200.27
   0  -7   4  3083.0   272.6   1-0.69816 0.69816-0.58251-0.11383-0.41624 0.70683  0 108.04 315.28   88.13 107.74 315.32   87.90
   0  -7   4  2971.6   387.9   2-0.22631 0.22631-0.00256-0.69394 0.97405-0.68354  0 449.46 475.09   19.95 449.47 475.14   20.13
   0  -7   4  3305.6   323.9   2 0.11909-0.11909-0.70159 0.00523-0.70255 0.99287  0 171.98  90.09  154.98 172.00  90.14  155.44
   0   7  -4  3124.4   378.6   2 0.11942-0.11942-0.00466 0.70140-0.99283 0.70270  0 450.12 474.90  199.65 450.15 474.73  199.73
   0   7  -4  3209.0   319.7   2-0.22523 0.22523 0.69403 0.00281 0.68381-0.97430  0 171.98  90.28  335.55 171.73  90.32  335.39
   0   7   4  3185.7   317.5   2-0.22666 0.22666 0.00259 0.69391 0.97397-0.68346  0 151.49 112.35   20.01 151.45 112.35   19.83
   0   7   4  3270.6   378.9   2 0.01959-0.01959 0.70429-0.00755-0.70964 0.99978  0 413.61 487.95  244.72 413.81 487.78  244.98
   0  -7  -5 41186.0   653.4   1-0.58094 0.58094-0.01842-0.67791-0.81374 0.45051  0 147.59 418.37   46.99 147.69 418.10   46.97
   0  -7  -5 35493.9   715.4   1-0.09742 0.09742-0.77076 0.07446 0.62964-0.99245  2 503.45 470.06  162.79 503.39 469.62  163.09
   0  -7  -5 32459.9   832.3   2-0.10910 0.10910-0.77012 0.07342 0.62851-0.99132  2 501.66 470.31   70.35 501.84 470.31   70.46
   0  -7  -5 37957.8   767.1   2 0.11364-0.11364 0.07300-0.76973-0.99084 0.62817  0 191.18  56.62  203.93 190.95  56.91  204.19
   0  -7   5 33879.5   701.7   1-0.68995 0.68995-0.62940-0.06694-0.35751 0.72075  0  94.00 306.17   92.19  93.80 306.09   92.23
   0  -7   5 37731.7   887.7   2-0.23035 0.23035 0.06336-0.75986 0.97104-0.60791  0 456.13 494.29   16.33 456.27 494.20   16.34
   0  -7   5 33392.0   725.5   2 0.11102-0.11102-0.77010 0.07374-0.62818 0.99108  0 161.21  82.66  149.47 161.27  82.72  149.68
   0   7  -5 36697.3   885.2   2 0.12342-0.12342-0.07300 0.76937-0.98967 0.62677  0 466.07 490.00  195.76 465.93 489.66  195.83
   0   7  -5 35029.0   737.9   2-0.21746 0.21746 0.76132-0.06448 0.61082-0.97394  0 166.78  77.21  329.90 166.49  77.51  329.64
   0   7   5 39603.3   773.7   2-0.22181 0.22181-0.06436 0.76086 0.97296-0.60983  0 140.69 105.98   23.68 140.64 106.04   23.68
   0  -7  -6  2236.2   231.2   1-0.55511 0.55511 0.03561-0.73193-0.83102 0.39514  0 141.82 435.41   43.39 141.88 435.64   43.40
   0  -7  -6  2017.9   296.6   2 0.10888-0.10888 0.13120-0.82793-0.98536 0.55016  0 185.09  40.24  207.50 184.93  40.39  207.55
   0  -7   6  1730.1   237.5   1-0.67823 0.67823-0.67147-0.02487-0.29854 0.73443  0  77.62 296.81   96.43  77.67 296.71   96.43
   0  -7   6  1532.6   273.0   2 0.10192-0.10192-0.82828 0.13112-0.55097 0.98611  0 148.37  72.98  143.97 148.32  72.88  144.01
   0   7  -6  2092.0   286.6   2-0.20845 0.20845 0.81897-0.12213 0.53464-0.97038  0 159.47  61.78  324.31 159.40  61.91  324.09
   0   7   6  2244.1   284.7   2-0.21697 0.21697-0.12143 0.81793 0.96860-0.53283  0 127.81  97.75   26.64 127.54  97.66   26.98
   0  -7  -7 703.458 195.517   1-0.53135 0.53135 0.08193-0.77825-0.84318 0.33466  0 133.86 456.22   40.57 133.74 455.84   40.34
   0  -7  -7 745.893 262.621   2 0.10418-0.10418 0.17950-0.87623-0.97823 0.47049  0 176.98  20.48  210.48 177.00  20.36  210.35
   0  -7   7 660.140 208.661   1-0.66330 0.66330-0.70877 0.01209-0.24014 0.74825  0  59.23 287.15  100.47  59.13 287.13  100.51
   0  -7   7 745.344 261.298   2 0.09161-0.09161-0.87695 0.17980-0.47176 0.97943  0 133.31  60.99  138.49 133.02  60.73  138.68
   0   7  -7 279.655 228.331   2-0.19849 0.19849 0.86712-0.17028 0.45683-0.96520  0 150.72  43.45  318.98 150.23  43.05  318.77
   0   7   7 417.994 236.519   2-0.21255 0.21255-0.16874 0.86524 0.96247-0.45408  0 112.26  87.29   29.69 111.86  87.10   29.71
   0  -7  -8  4753.9   362.4   1-0.51039 0.51039 0.12001-0.81634-0.85153 0.27035  0 123.18 480.03   37.75 123.02 479.64   37.81
   0  -7   8  3234.6   349.9   1-0.64558 0.64558-0.74177 0.04509-0.18167 0.76236  0  37.35 276.81  104.46  37.52 276.86  104.48
   0  -7   8  4023.6   471.9   2 0.08062-0.08062-0.91636 0.21921-0.39215 0.97234  0 114.92  45.70  133.46 114.77  45.77  133.59
   0   7  -8  3713.3   405.3   2-0.18782 0.18782 0.90629-0.20945 0.37862-0.95961  0 138.93  20.63  313.67 138.65  20.39  313.66
   0   7   8  4088.7   463.1   2-0.20870 0.20870-0.20679 0.90329 0.95587-0.37485  0  93.34  74.03   31.99  93.08  74.09   31.94
   0  -8   0 10643.8   426.1   1-0.69589 0.69589-0.39791-0.39791-0.59783 0.59783  0 114.49 376.32   72.87 114.38 376.09   73.04
   0  -8   0  9276.5   646.2   2-0.18499 0.18499-0.39800-0.39800 0.89854-0.89854  0 486.39 488.20   43.48 486.63 488.40   43.49
   0  -8   0  9895.6   466.4   2 0.13305-0.13305-0.39792-0.39792-0.90772 0.90772  0 174.43  64.03  176.57 174.43  64.16  176.54
   0   8   0 11366.0   489.4   2-0.23842 0.23842 0.39811 0.39811 0.88581-0.88581  0 148.73  89.31  356.29 148.72  89.41  356.08
   0  -8  -1 342.228 166.552   1-0.68733 0.68733-0.34277-0.45305-0.64038 0.56774  0 119.42 388.13   70.26 119.43 387.97   69.01
   0  -8  -1 497.456 381.322   2-0.17223 0.17223-0.47981-0.31619 0.86030-0.93293  0 493.08 488.58   48.56 492.77 487.88   48.72
   0  -8  -1 378.544 209.678   2 0.13234-0.13234-0.31554-0.48030-0.93964 0.86706  0 176.46  60.20  181.45 176.60  60.36  181.61
   0  -8   1 233.400 174.735   1-0.70121 0.70121-0.45159-0.34423-0.55170 0.62435  0 107.61 364.96   76.98 107.41 365.06   77.10
   0  -8   1 232.973 367.860   2-0.19609 0.19609-0.31664-0.47936 0.92806-0.85543  0 483.50 492.83   38.68 483.42 492.82   38.48
   0  -8   1 373.766 203.965   2 0.13191-0.13191-0.48031-0.31553-0.86712 0.93970  0 170.12  65.35  171.46 170.52  65.58  171.26
   0   8  -1 219.743 199.228   2-0.23695 0.23695 0.47856 0.31766 0.84548-0.91812  0 150.64  85.38  350.53 150.40  85.41  350.87
   0   8   1 554.293 205.413   2-0.23894 0.23894 0.31759 0.47841 0.91763-0.84500  0 145.44  91.22    1.57 145.21  91.11    1.39
   0  -8  -2  6632.1   356.3   1-0.67531 0.67531-0.28714-0.50868-0.67934 0.53404  0 122.64 401.00   65.00 122.55 400.88   65.07
   0  -8  -2  5649.1   651.5   2-0.15755 0.15755-0.55963-0.23659 0.81363-0.95875  2 501.53 490.94   53.97 502.00 491.22   54.10
   0  -8  -2  6429.1   410.0   2 0.13071-0.13071-0.23551-0.56034-0.96304 0.81789  0 177.02  53.83  186.21 177.10  54.07  186.39
   0  -8   2  6179.0   346.9   1-0.70308 0.70308-0.50295-0.29287-0.50270 0.64800  0  98.62 354.79   81.27  98.52 354.64   81.17
   0  -8   2  5223.2   637.8   2-0.20536 0.20536-0.23802-0.55798 0.94930-0.80405  2 482.88 501.23   34.03 482.93 501.11   33.78
   0  -8   2  5870.9   424.9   2 0.12906-0.12906-0.56038-0.23546-0.81812 0.96328  0 164.81  64.74  165.82 164.87  64.69  165.89
   0   8  -2  6341.1   407.6   2-0.23495 0.23495 0.55675 0.23964 0.79676-0.94200  0 150.15  79.00  345.66 150.02  79.24  345.68
   0   8   2  6980.6   428.3   2-0.23771 0.23771 0.23948 0.55653 0.94135-0.79610  0 139.78  90.72    5.99 139.81  90.90    6.07
   0  -8  -3  7238.8   365.1   1-0.66083 0.66083-0.23230-0.56352-0.71368 0.49574  0 123.81 415.22   61.30 123.72 415.13   61.28
   0  -8  -3  7062.6   439.4   2 0.12786-0.12786-0.15991-0.63593-0.97882 0.76108  0 175.94  45.09  190.99 175.90  45.17  190.82
   0  -8   3  5773.8   360.4   1-0.70124 0.70124-0.55148-0.24434-0.45180 0.66974  0  87.75 344.81   85.08  87.70 344.71   85.20
   0  -8   3  5790.5   420.9   2 0.12458-0.12458-0.63605-0.15979-0.76152 0.97926  0 157.37  61.52  160.32 157.37  61.47  160.48
   0   8  -3  6893.0   430.5   2-0.23060 0.23060 0.63071 0.16568 0.74097-0.95884  0 148.36  70.40  340.43 148.05  70.67  340.32
   0   8   3  7249.6   427.0   2-0.23524 0.23524 0.16567 0.63033 0.95771-0.73983  0 132.42  88.50   10.40 132.43  88.56   10.42
   0  -8  -4 663.986 194.462   1-0.64461 0.64461-0.17962-0.61620-0.74311 0.45252  0 122.82 431.28   58.37 122.84 431.08   57.71
   0  -8  -4 683.574 250.384   2 0.12436-0.12436-0.09042-0.70542-0.98811 0.69779  0 173.11  33.69  195.01 172.98  33.48  194.83
   0  -8   4 650.800 193.606   1-0.69618 0.69618-0.59670-0.19912-0.39910 0.68970  0  74.31 335.23   89.38  74.80 335.07   89.18
   0  -8   4 385.837 239.591   2 0.11869-0.11869-0.70568-0.09016-0.69852 0.98883  0 147.77  55.57  154.93 147.91  55.91  155.11
   0   8  -4 780.076 244.061   2-0.22474 0.22474 0.69886 0.09753 0.67903-0.96952  0 144.15  59.27  335.41 144.22  59.50  335.00
   0   8   4 554.217 226.541   2-0.23220 0.23220 0.09783 0.69817 0.96774-0.67723  0 122.78  83.95   14.29 122.91  84.14   14.35
   0  -8  -5  1077.7   217.4   1-0.62731 0.62731-0.13036-0.66546-0.76778 0.40454  0 119.85 448.66   54.29 119.80 449.19   54.40
   0  -8  -5 592.048 266.133   2 0.12071-0.12071-0.02819-0.76765-0.99229 0.62939  0 168.40  18.49  198.40 168.25  18.60  198.41
   0  -8   5  1495.3   249.4   1-0.68782 0.68782-0.63845-0.15737-0.34537 0.70861  0  59.76 325.48   93.39  59.60 325.54   93.11
   0  -8   5  1415.7   301.4   2 0.11129-0.11129-0.76816-0.02768-0.63051 0.99340  0 136.80  48.13  149.66 136.26  47.87  149.85
   0   8  -5  1034.0   272.6   2-0.21762 0.21762 0.76013 0.03626 0.61224-0.97536  0 138.58  45.61  329.60 138.34  45.53  329.75
   0   8   5  1284.5   273.8   2-0.22892 0.22892 0.03707 0.75893 0.97274-0.60960  0 111.29  77.79   17.60 111.07  77.55   17.85
   0  -8  -6  1388.8   231.2   1-0.60993 0.60993-0.08579-0.71003-0.78780 0.35191  0 114.68 470.21   51.38 114.48 470.08   51.44
   0  -8   6  1268.5   257.0   1-0.67646 0.67646-0.67660-0.11922-0.29088 0.72676  0  41.90 315.84   96.64  41.82 315.99   96.97
   0  -8   6  1086.2   325.3   2 0.10295-0.10295-0.82261 0.02586-0.55921 0.99435  0 121.72  36.95  144.47 121.96  36.96  144.59
   0   8  -6  1196.1   304.0   2-0.20936 0.20936 0.81392-0.01753 0.54194-0.97768  0 130.03  27.99  324.60 130.26  28.30  324.60
   0   8   6  1327.7   299.0   2-0.22539 0.22539-0.01600 0.81201 0.97414-0.53837  0  96.88  68.84   21.01  96.57  68.66   20.91
   0  -8  -7 260.980 225.357   1-0.59367 0.59367-0.04704-0.74876-0.80333 0.29480  0 106.73 495.40   49.51 106.66 494.79   48.86
   0  -8   7 115.598 219.527   1-0.66223 0.66223-0.71105-0.08515-0.23634 0.74445  0  21.31 306.31  100.61  21.03 306.33  100.77
   0  -8   7 -61.884 298.430   2 0.09344-0.09344-0.86933 0.07259-0.48531 0.99298  0 104.66  23.16  139.45 104.83  23.25  139.58
   0   8  -7 510.485 324.736   2-0.20017 0.20017 0.86004-0.06365 0.46933-0.97769  2 119.94   7.67  319.49 119.60   7.10  319.60
   0   8   7 236.421 276.028   2-0.22206 0.22206-0.06116 0.85716 0.97311-0.46472  0  79.31  57.08   23.52  78.97  57.16   23.50
   0  -9   0 -69.046 197.532   1-0.70093 0.70093-0.44765-0.44765-0.55525 0.55525  0  78.16 404.62   76.91  78.27 404.31   76.80
   0  -9   0 235.818 273.006   2 0.13251-0.13251-0.44766-0.44766-0.88433 0.88433  0 147.05  22.17  173.36 146.65  21.91  173.38
   0   9   0-390.033 230.634   2-0.23785 0.23785 0.44787 0.44787 0.86188-0.86188  0 115.46  54.80  352.98 115.50  54.65  352.89
   0  -9  -1 19401.2   574.7   1-0.69646 0.69646-0.40238-0.49291-0.59417 0.52152  0  83.93 418.03   73.36  83.89 417.72   73.37
   0  -9  -1 20093.3   705.3   2 0.13298-0.13298-0.37627-0.51905-0.91692 0.84434  0 148.91  17.42  178.01 149.00  17.57  177.89
   0  -9   1 19410.0   582.3   1-0.70300 0.70300-0.49225-0.40305-0.51330 0.58595  0  70.66 392.26   80.32  70.58 392.04   80.30
   0  -9   1 20240.6   696.3   2 0.13070-0.13070-0.51908-0.37625-0.84468 0.91725  0 142.32  23.63  168.69 142.41  23.65  168.70
   0   9  -1 19135.7   664.2   2-0.23654 0.23654 0.51757 0.37837 0.82230-0.89492  0 117.48  49.84  348.44 116.93  50.23  348.37
   0   9   1 20404.2   685.1   2-0.23860 0.23860 0.37828 0.51746 0.89441-0.82177  0 111.83  56.51  357.39 111.68  56.79  357.32
   0  -9  -2  2112.8   283.8   1-0.68992 0.68992-0.35726-0.53803-0.62958 0.48428  0  87.36 432.76   70.15  87.45 432.63   70.06
   0  -9  -2  2085.4   346.8   2 0.13221-0.13221-0.30660-0.58872-0.94261 0.79745  2 149.29  10.08  182.30 149.43  10.35  182.15
   0  -9   2  1264.2   261.7   1-0.70221 0.70221-0.53557-0.35973-0.46911 0.61440  0  60.66 380.87   84.21  60.81 380.70   83.85
   0  -9   2  2404.7   362.4   2 0.12760-0.12760-0.58883-0.30650-0.79812 0.94328  0 136.11  22.56  163.61 136.16  22.67  163.90
   0   9  -2  1779.4   333.1   2-0.23349 0.23349 0.58559 0.31035 0.77625-0.92150  0 116.85  43.14  343.66 116.60  43.21  343.64
   0   9   2  2395.0   333.3   2-0.23886 0.23886 0.31028 0.58522 0.92015-0.77489  0 106.06  56.53    2.03 105.74  56.48    1.83
   0  -9  -3  1708.6   276.4   1-0.68126 0.68126-0.31309-0.58220-0.66171 0.44377  0  88.87 449.87   67.35  88.97 449.35   66.90
   0  -9   3  2167.6   296.6   1-0.69883 0.69883-0.57706-0.31823-0.42265 0.64059  0  48.67 370.17   87.42  48.79 370.04   87.42
   0  -9   3  2363.2   376.7   2 0.12311-0.12311-0.65537-0.23996-0.74521 0.96295  0 127.59  18.84  159.03 127.81  19.05  159.03
   0   9  -3  2134.9   343.6   2-0.22908 0.22908 0.65054 0.24540 0.72410-0.94197  0 114.40  33.44  338.63 114.15  33.48  338.83
   0   9   3  2853.8   376.9   2-0.23785 0.23785 0.24561 0.64989 0.93973-0.72185  0  97.93  54.20    5.69  97.50  54.04    5.70
   0  -9  -4  76.044 225.721   1-0.67126 0.67126-0.27086-0.62443-0.68996 0.39937  0  88.24 468.61   63.29  88.31 468.43   63.94
   0  -9   4  42.583 236.545   1-0.69271 0.69271-0.61636-0.27894-0.37450 0.66509  0  34.30 359.92   90.46  34.32 359.86   91.00
   0  -9   4-104.646 292.473   2 0.11744-0.11744-0.71740-0.17793-0.68670 0.97701  0 116.68  12.34  154.49 117.13  12.62  154.17
   0   9  -4 618.422 303.268   2-0.22342 0.22342 0.71118 0.18475 0.66656-0.95705  0 109.36  20.45  333.44 109.44  20.77  333.99
   0   9   4-177.468 257.556   2-0.23598 0.23598 0.18542 0.71008 0.95390-0.66339  0  86.41  48.80    9.33  86.72  49.14    9.26
  -1   0   0  21.176  20.195   1-0.06392-0.06392-0.75061 0.75061 0.65764-0.65764  0 322.29 235.80  165.66 322.22 235.60  165.85
  -1   0   0 3.86492  7.4083   2-0.06383-0.06383-0.90185 0.90185 0.42731-0.42731  0 321.51 235.41   84.47 321.53 235.39   84.44
  -1   0   0 3.00003  7.2448   2-0.06382-0.06382 0.93928-0.93928-0.33716 0.33716  0 328.72 244.97  271.54 328.69 245.01  270.83
  -1   0  -1  2357.2    78.5   1-0.31510 0.18722-0.85775 0.85775 0.40617-0.47876  0 334.24 244.24  144.45 334.29 244.30  144.46
  -1   0  -1  2385.4    46.0   2 0.06052-0.18819-0.96500 0.96500-0.25518 0.18266  0 335.19 248.29  125.01 335.27 248.31  125.24
  -1   0  -1  2261.3    44.6   2-0.14582 0.01818 0.98340-0.98340 0.10795-0.18052  0 320.26 228.40  297.04 320.38 228.45  297.19
  -1   0   1  2587.6    58.0   1-0.55667 0.42895 0.03246-0.03246-0.83010 0.90275  0 282.09 227.71   43.57 282.25 227.75   43.61
  -1   0   1  2360.4    64.5   2-0.00607-0.12161-0.99042 0.99042 0.13796-0.06544  0 308.68 223.41  102.06 308.77 223.47  102.25
  -1   0   1  2113.7    61.2   2-0.11718-0.01046 0.99144-0.99144-0.05758 0.13014  0 336.70 260.89  287.64 336.68 260.90  287.49
   1   0  -1  2898.9    61.3   1-0.40913 0.53685 0.28171-0.28171-0.86790 0.79525  0 318.41 289.08   26.97 318.52 289.02   26.83
   1   0  -1  2164.5    61.7   2 0.03385 0.09382-0.99545 0.99545-0.08905 0.01653  0 289.83 291.79  115.35 289.89 291.75  115.46
   1   0  -1  2376.0    63.3   2-0.07509 0.20273 0.95688-0.95688-0.28062 0.20806  0 264.51 255.98  273.96 264.61 255.92  274.28
   1   0   1  2333.6    78.9   1-0.21166 0.33950-0.82640 0.82640 0.52180-0.44923  0 267.23 270.91  153.56 267.34 270.91  153.53
   1   0   1  2317.6    44.0   2-0.01201 0.13968-0.98541 0.98541 0.16978-0.09726  0 265.77 267.81  100.23 265.88 267.81  100.37
   1   0   1  2308.8    43.7   2-0.20535 0.33298 0.83570-0.83570 0.50935-0.43673  0 278.82 286.49  322.18 278.97 286.42  322.32
  -1   0  -2   1.879  37.927   1-0.43066 0.30279-0.86707 0.86707 0.25044-0.39561  0 349.28 253.31  133.26 349.35 253.15  133.32
  -1   0  -2  27.960  25.804   2 0.04712-0.17479-0.98428 0.98428-0.17019 0.02514  0 348.94 260.83  120.42 349.03 260.93  120.21
  -1   0  -2   5.189  25.053   2-0.12397-0.00367 0.99209-0.99209-0.01966-0.12546  0 312.27 212.44  290.13 312.59 212.52  289.71
  -1   0   2  16.674  23.785   1-0.70292 0.57518-0.51635 0.51635-0.48917 0.63447  0 274.86 219.18   82.49 275.02 219.12   82.26
  -1   0   2   6.701  33.448   2-0.00374-0.12394-0.99210 0.99210 0.12543 0.01962  0 296.08 211.56  102.61 295.99 211.35  102.99
  -1   0   2 -19.660  30.196   2-0.12989 0.00225 0.99142-0.99142 0.01445 0.13067  0 345.46 277.42  291.47 345.12 277.44  291.70
   1   0  -2   2.521  23.849   1-0.66215 0.78989-0.23695 0.23695-0.71093 0.56563  0 326.24 298.39   61.42 326.17 298.43   61.60
   1   0  -2 -12.824  29.212   2-0.08934 0.21698 0.97420-0.97420-0.20727 0.06214  0 256.89 240.60  278.91 257.05 240.66  278.69
   1   0   2  22.217  30.892   1-0.31496 0.44283-0.85773 0.85773 0.40634-0.26116  0 253.90 262.65  144.50 254.16 262.38  144.48
   1   0   2 -17.975  18.142   2-0.00520 0.13287-0.99106 0.99106 0.13329 0.01176  0 253.17 255.73  102.61 253.56 255.90  102.52
   1   0   2 -16.220  22.806   2-0.17373 0.30136 0.94375-0.94375 0.28136-0.13611  0 286.47 302.36  307.60 286.26 302.64  307.55
  -1   0  -3 145362.    733.   1-0.49642 0.36854-0.85587 0.85587 0.14509-0.36285  0 366.07 262.39  125.98 366.13 262.38  126.18
  -1   0  -3 137285.    623.   2 0.04778-0.17545-0.98354 0.98354-0.17428-0.04329  0 363.68 274.13  120.14 363.61 274.13  120.46
  -1   0  -3 128106.    604.   2-0.11309-0.01455 0.99036-0.99036-0.07995-0.13774  0 304.64 196.17  285.87 304.78 196.28  286.18
  -1   0   3 128022.    999.   1-0.66428 0.53640-0.70666 0.70666-0.24366 0.46142  0 262.67 210.29  100.07 262.89 210.39  100.27
  -1   0   3 131540.    679.   2-0.00686-0.12081-0.98981 0.98981 0.14222 0.07535  0 283.02 199.01  102.08 283.19 199.10  102.00
  -1   0   3 125894.    661.   2-0.13852 0.01088 0.98822-0.98822 0.06505 0.15264  0 354.04 294.56  295.10 353.98 294.59  294.67
   1   0  -3 121605.    653.   1-0.70078 0.82852-0.44555 0.44555-0.55713 0.33919  0 339.59 308.69   76.66 339.70 308.61   76.64
   1   0  -3 119229.    643.   2 0.03948 0.08820-0.99161 0.99161-0.12308-0.09449  0 315.29 318.63  117.31 315.31 318.57  117.44
   1   0  -3 123078.    654.   2-0.09081 0.21845 0.97568-0.97568-0.19951-0.01818  0 249.34 225.39  278.92 249.23 225.34  279.15
   1   0   3 128503.    693.   1-0.35557 0.48345-0.86451 0.86451 0.35523-0.13747  0 240.22 253.94  140.99 240.14 253.94  140.72
   1   0   3 120957.    583.   2-0.00852 0.13620-0.98846 0.98846 0.15125 0.06632  0 241.25 244.25  101.40 241.11 244.27  101.47
  -1   0  -4   2.237  58.764   1-0.54064 0.41277-0.83875 0.83875 0.06478-0.35513  0 384.47 272.18  120.34 384.50 272.19  120.85
  -1   0  -4  38.085  55.695   2 0.05118-0.17885-0.97933 0.97933-0.19567-0.09443  0 379.55 288.30  121.33 379.22 288.06  121.70
  -1   0  -4   0.167  54.974   2-0.10437-0.02327 0.98636-0.98636-0.12729-0.16296  0 296.85 179.67  283.71 296.92 179.56  283.40
  -1   0   4  -5.436  37.752   1-0.61495 0.48707-0.78252 0.78252-0.09750 0.38785  0 248.92 201.30  110.52 249.06 201.35  110.12
  -1   0   4 -19.809  58.863   2-0.01167-0.11600-0.98572 0.98572 0.16801 0.12209  0 270.09 186.57  100.48 270.21 186.60  100.48
  -1   0   4  -9.537  61.748   2-0.14599 0.01835 0.98326-0.98326 0.10899 0.18126  0 363.20 312.74  297.44 363.39 312.64  297.25
   1   0  -4 -16.066  47.236   1-0.70276 0.83050-0.52300 0.52300-0.48229 0.19169  0 355.80 319.76   83.36 355.71 319.73   82.80
   1   0  -4  82.241  62.409   2 0.04444 0.08324-0.98714 0.98714-0.15359-0.13651  0 328.72 333.51  119.21 328.81 333.29  119.24
   1   0  -4   3.784  41.320   2-0.08837 0.21601 0.97325-0.97325-0.21205-0.07820  0 241.23 209.59  278.60 241.04 209.74  278.40
   1   0   4  30.915  48.912   1-0.36990 0.49778-0.86609 0.86609 0.33625-0.04590  0 225.75 245.83  139.35 225.58 245.40  139.35
   1   0   4   6.481  39.441   2-0.01379 0.14147-0.98371 0.98371 0.17921 0.11088  0 228.53 232.81   99.61 228.32 232.69   99.81
  -1   0  -5 19170.9   344.7   1-0.57367 0.44579-0.81909 0.81909-0.00187-0.36106  0 404.41 282.94  116.37 404.65 282.85  116.44
  -1   0  -5 18405.4   321.8   2 0.05559-0.18326-0.97315 0.97315-0.22336-0.13926  0 395.85 302.99  123.01 396.15 302.95  123.35
  -1   0  -5 17464.3   315.4   2-0.09648-0.03116 0.98072-0.98072-0.16992-0.19290  0 288.68 162.03  281.00 288.91 162.13  280.90
  -1   0   5 18109.4   278.4   1-0.57156 0.44368-0.82056 0.82056 0.00261 0.36032  0 234.57 191.70  116.86 234.51 191.81  116.74
  -1   0   5 19892.6   355.5   2-0.01782-0.10984-0.98012 0.98012 0.19759 0.16522  0 256.67 173.61   99.05 256.82 173.69   98.69
  -1   0   5 17932.0   340.6   2-0.15318 0.02555 0.97672-0.97672 0.15015 0.21297  0 373.62 331.92  300.06 373.50 331.87  299.64
   1   0  -5 16523.3   273.8   1-0.70117 0.82890-0.55252 0.55252-0.45065 0.08741  0 373.42 332.13   85.11 373.53 332.04   85.28
   1   0  -5 19113.0   350.1   2 0.04972 0.07795-0.98124 0.98124-0.18628-0.17634  0 343.20 349.33  120.99 343.17 349.24  121.16
   1   0  -5 18678.5   336.1   2-0.08428 0.21192 0.96870-0.96870-0.23351-0.12931  0 232.46 193.72  277.00 232.40 193.69  277.12
   1   0   5 18044.5   329.9   1-0.37104 0.49891-0.86619 0.86619 0.33473 0.02821  0 210.52 236.61  138.90 210.48 236.63  139.25
   1   0   5 18140.8   310.9   2-0.02037 0.14802-0.97727 0.97727 0.21103 0.15178  0 215.07 220.97   98.00 214.93 221.01   97.89
   1   0   5  9145.8   235.5   2-0.17110 0.29873 0.94919-0.94919 0.26413 0.09899  0 308.33 356.15  306.64 308.33 356.08  306.50
  -1   0  -6   0.825  91.790   1-0.59978 0.47190-0.79788 0.79788-0.06043-0.37509  0 426.63 294.64  113.10 426.96 294.67  112.58
  -1   0  -6 -47.650  89.786   2 0.06034-0.18801-0.96532 0.96532-0.25400-0.18114  0 414.73 319.01  125.52 414.82 319.12  125.16
  -1   0  -6-118.727  81.024   2-0.08869-0.03895 0.97358-0.97358-0.21040-0.22498  0 280.87 143.71  278.48 280.62 143.70  278.49
  -1   0   6  55.048  57.458   1-0.53266 0.40478-0.84253 0.84253 0.08014 0.35539  0 219.15 181.51  121.32 219.31 181.62  121.85
  -1   0   6 -49.495  70.813   2-0.02380-0.10386-0.97304 0.97304 0.22942 0.20595  0 242.97 160.30   96.66 242.95 160.24   96.78
  -1   0   6   5.487 101.151   2-0.15959 0.03196 0.96876-0.96876 0.18982 0.24592  0 384.52 352.89  302.45 384.51 352.74  302.01
   1   0  -6  37.691  83.009   1-0.70054 0.82827-0.56029 0.56029-0.44195 0.00606  0 393.25 346.05   85.50 393.19 345.92   85.95
   1   0  -6  12.885  97.057   2 0.05508 0.07259-0.97391 0.97391-0.22014-0.21500  0 358.57 366.49  123.04 358.71 366.78  123.16
   1   0  -6 -20.965  65.481   2-0.07918 0.20682 0.96246-0.96246-0.25961-0.17577  0 223.47 176.79  275.54 223.19 176.91  275.55
   1   0   6  -3.780  64.259   1-0.36442 0.49230-0.86555 0.86555 0.34353 0.09199  0 195.18 227.63  139.38 194.71 227.48  139.88
   1   0   6  31.793  64.661   2-0.02664 0.15429-0.96936 0.96936 0.24421 0.19116  0 201.09 208.98   95.87 200.85 209.13   95.89
   1   0   6 -73.915  91.175   2-0.17469 0.30232 0.94165-0.94165 0.28773 0.14801  0 316.03 376.38  307.58 316.09 376.62  307.97
  -1   0  -7 24766.3   477.2   1-0.62139 0.49351-0.77520 0.77520-0.11376-0.39435  0 451.82 308.14  108.95 452.03 308.03  109.04
  -1   0  -7 23773.7   460.1   2 0.06526-0.19293-0.95592 0.95592-0.28630-0.22137  0 435.58 337.05  126.96 435.84 336.99  127.10
  -1   0  -7 23301.8   452.4   2-0.08111-0.04653 0.96494-0.96494-0.24963-0.25832  0 271.69 123.85  275.88 271.99 123.94  276.15
  -1   0   7 22013.8   378.8   1-0.49633 0.36846-0.85590 0.85590 0.14523 0.36288  0 203.38 170.36  125.91 203.39 170.51  126.19
  -1   0   7 22627.1   449.7   2-0.03029-0.09736-0.96448 0.96448 0.26240 0.24554  0 228.48 145.85   94.97 228.31 145.99   94.78
  -1   0   7 21619.7   466.5   2-0.16568 0.03805 0.95932-0.95932 0.22861 0.27976  0 396.45 375.80  304.49 396.68 375.71  304.34
   1   0  -7 19615.3   370.9   1-0.70087 0.82861-0.55637 0.55637-0.44636-0.06218  0 414.55 361.94   85.67 415.03 361.84   85.61
   1   0  -7 23490.8   477.6   2 0.06044 0.06723-0.96513 0.96513-0.25469-0.25298  0 375.87 386.51  124.99 375.78 386.39  125.21
   1   0  -7 23238.7   452.1   2-0.07354 0.20118 0.95465-0.95465-0.28849-0.21945  0 213.26 159.24  273.99 213.21 159.16  273.80
   1   0   7 22196.6   434.6   1-0.35274 0.48061-0.86415 0.86415 0.35892 0.14919  0 178.05 217.69  140.99 178.10 217.74  140.99
   1   0   7 23058.9   430.8   2-0.03342 0.16107-0.95988 0.95988 0.27841 0.22953  0 185.89 196.75   94.12 185.78 196.85   93.81
   1   0   7 22445.3   442.6   2-0.17878 0.30641 0.93207-0.93207 0.31509 0.19328  0 324.22 399.44  310.06 324.26 399.26  309.66
  -1   0  -8  92.742 150.252   1-0.63953 0.51165-0.75116 0.75116-0.16360-0.41710  0 480.82 323.59  106.13 480.66 323.49  105.70
  -1   0  -8 -18.702 142.766   2 0.07011-0.19779-0.94496 0.94496-0.31957-0.26062  0 459.77 357.11  128.95 459.88 357.13  129.11
  -1   0  -8  69.531 148.740   2-0.07362-0.05402 0.95477-0.95477-0.28810-0.29241  0 262.61 102.49  274.00 262.82 102.42  273.83
  -1   0   8  30.550  87.343   1-0.46159 0.33371-0.86361 0.86361 0.20278 0.37792  0 186.62 158.33  129.94 186.56 158.18  130.06
  -1   0   8 -55.839 105.339   2-0.03692-0.09074-0.95442 0.95442 0.29617 0.28433  0 212.40 130.51   92.64 212.59 130.68   92.71
  -1   0   8-149.234 164.105   2-0.17151 0.04389 0.94836-0.94836 0.26684 0.31415  0 410.55 401.47  306.45 410.36 401.54  306.67
   1   0  -8 113.048 130.600   1-0.70168 0.82942-0.54506 0.54506-0.45885-0.12233  0 439.64 380.37   84.52 439.64 380.45   84.65
   1   0  -8 158.454 168.687   2 0.06577 0.06190-0.95486 0.95486-0.28967-0.29052  0 394.91 408.58  127.40 394.95 408.72  127.30
   1   0  -8-128.633  89.163   2-0.06737 0.19501 0.94532-0.94532-0.31910-0.26141  0 202.37 140.10  271.58 202.28 140.05  271.94
   1   0   8 -13.263  85.870   1-0.33724 0.46511-0.86190 0.86190 0.37869 0.20201  0 160.75 207.08  143.13 160.36 207.21  142.43
   1   0   8  13.336  93.878   2-0.04028 0.16794-0.94885 0.94885 0.31314 0.26735  0 169.88 184.19   91.97 169.40 183.99   91.67
   1   0   8  18.050 149.675   2-0.18316 0.31079 0.92065-0.92065 0.34475 0.23624  0 332.71 424.31  312.06 332.93 424.64  311.50
  -1   0  -9  1067.8   239.4   2 0.07509-0.20277-0.93240 0.93240-0.35353-0.29918  0 488.06 380.50  131.44 488.17 380.37  131.19
  -1   0  -9  1130.0   179.9   2-0.06597-0.06167 0.94303-0.94303-0.32611-0.32696  0 252.99  78.67  271.51 252.95  78.55  271.51
  -1   0   9  1002.2   147.8   1-0.42724 0.29937-0.86728 0.86728 0.25553 0.39776  0 168.39 144.05  134.30 168.54 144.28  133.67
  -1   0   9 939.926 176.370   2-0.04387-0.08379-0.94281 0.94281 0.33043 0.32263  0 195.57 113.93   90.69 195.47 114.01   90.60
  -1   0   9 901.131 244.037   2-0.17724 0.04961 0.93583-0.93583 0.30466 0.34895  0 426.04 431.14  308.92 426.03 431.14  309.00
   1   0  -9 974.400 204.855   1-0.70258 0.83032-0.52837 0.52837-0.47665-0.17718  0 467.82 402.96   83.32 467.97 402.78   83.25
   1   0  -9 978.612 239.517   2 0.07092 0.05675-0.94306 0.94306-0.32497-0.32774  0 416.89 434.81  129.27 416.91 434.67  129.44
   1   0  -9  1211.7   184.0   2-0.06105 0.18869 0.93441-0.93441-0.35094-0.30213  0 190.35 119.31  270.08 190.13 119.13  269.98
   1   0   9  1098.5   166.3   1-0.31886 0.44673-0.85853 0.85853 0.40157 0.25171  0 141.16 195.53  144.37 141.21 195.60  144.12
   1   0   9 740.774 152.659   2-0.04752 0.17517-0.93618 0.93618 0.34829 0.30477  0 151.35 170.26   89.54 151.38 170.36   89.48
   1   0   9 818.939 221.037   2-0.18754 0.31517 0.90749-0.90749 0.37589 0.27772  0 342.37 453.67  313.59 342.32 453.65  313.47
  -1   0 -10 -14.496 144.622   2-0.05835-0.06929 0.92966-0.92966-0.36378-0.36185  0 242.30  51.21  269.53 242.13  51.50  269.19
  -1   0  10  -1.109 125.291   1-0.39275 0.26487-0.86759 0.86759 0.30501 0.42086  0 148.86 128.27  137.65 148.91 128.29  137.13
  -1   0  10-220.925 145.261   2-0.05093-0.07673-0.92958 0.92958 0.36508 0.36054  0 176.40  96.08   88.37 176.46  95.53   88.43
  -1   0  10 -78.603 283.583   2-0.18278 0.05515 0.92167-0.92167 0.34221 0.38403  0 445.05 466.34  311.63 444.48 465.96  311.34
   1   0 -10-145.816 214.073   1-0.70303 0.83077-0.50760 0.50760-0.49808-0.22840  0 501.68 430.45   81.81 501.32 430.20   81.54
   1   0 -10  18.222 276.435   2 0.07611 0.05156-0.92967 0.92967-0.36046-0.36478  0 443.15 465.80  131.53 442.86 465.61  131.62
   1   0 -10-109.886 134.547   2-0.05430 0.18195 0.92190-0.92190-0.38360-0.34204  0 176.42  95.68  267.91 176.39  95.81  267.95
   1   0  10  66.564 138.488   1-0.29780 0.42568-0.85397 0.85397 0.42666 0.29921  0 120.04 182.66  146.41 120.17 182.55  146.01
   1   0  10 -18.315 125.962   2-0.05473 0.18239-0.92185 0.92185 0.38367 0.34195  0 130.85 155.55   86.86 131.18 155.64   87.25
   1   0  10  -7.236 245.656   2-0.19199 0.31962 0.89253-0.89253 0.40807 0.31816  0 352.90 487.24  315.57 352.72 487.52  315.54
  -1   0 -11 31058.8   701.1   2-0.05054-0.07710 0.91459-0.91459-0.40122-0.39697  0 229.88  19.99  266.83 229.98  20.19  266.84
  -1   0  11 24668.4   550.3   1-0.35787 0.23000-0.86482 0.86482 0.35215 0.44630  0 126.98 109.12  140.53 127.15 109.48  140.50
  -1   0  11 31944.4   734.4   2-0.05813-0.06953-0.91467 0.91467 0.40000 0.39818  0 155.01  74.38   86.18 154.89  74.63   86.20
   1   0 -11 30050.6   921.5   2 0.08119 0.04649-0.91461 0.91461-0.39610-0.40166  2 474.50 503.73  133.80 474.49 503.63  133.84
   1   0 -11 31595.3   720.5   2-0.04729 0.17493 0.90774-0.90774-0.41687-0.38133  0 160.40  69.23  266.00 160.55  69.25  265.85
   1   0  11 32310.3   692.9   1-0.27473 0.40260-0.84788 0.84788 0.45347 0.34499  0  96.73 167.42  147.92  96.61 167.50  148.07
   1   0  11 31355.8   689.6   2-0.06213 0.18978-0.90575 0.90575 0.41924 0.37895  0 108.53 139.28   85.08 108.09 139.49   84.97
  -1   0  12 261.342 198.076   1-0.32207 0.19419-0.85917 0.85917 0.39763 0.47342  0 102.32  86.38  144.35 102.49  86.79  143.83
  -1   0  12 359.812 247.092   2-0.06550-0.06215-0.89798 0.89798 0.43513 0.43562  0 129.78  50.24   83.44 129.85  50.46   83.94
   1   0 -12-231.308 223.642   2-0.04020 0.16784 0.89181-0.89181-0.45063-0.42013  0 142.26  38.69  263.59 141.84  38.21  263.68
   1   0  12-245.950 183.869   1-0.24952 0.37736-0.84024 0.84024 0.48140 0.38936  0  69.44 149.49  150.45  69.65 149.73  150.27
   1   0  12 -46.338 199.489   2-0.06971 0.19736-0.88779 0.88779 0.45495 0.41580  0  81.77 121.45   82.51  81.14 121.36   82.64
  -1  -1   0  72.517  35.842   1-0.36703 0.23930 0.33952-0.43899-0.86604 0.86604  0 262.55 248.50   23.10 262.73 248.31   22.74
  -1  -1   0  17.285  19.794   2-0.23542 0.10779 0.17037-0.26987 0.95685-0.95685  0 340.67 257.86    9.81 340.72 257.77   10.14
  -1  -1   0   0.872  18.521   2 0.13213-0.25980-0.30124 0.20176-0.94435 0.94435  0 312.81 220.87  182.48 312.90 220.71  182.47
  -1   1   0   5.466  19.315   1-0.65987 0.53199-0.71593 0.81545-0.22808 0.22808  0 319.95 223.13  101.63 319.97 223.41  101.33
  -1   1   0  -6.156  23.072   2-0.21490 0.08727-0.14405 0.24355 0.96595-0.96595  0 307.37 219.77   27.97 307.51 219.43   28.28
  -1   1   0  45.418  24.824   2 0.09604-0.22367 0.25473-0.15520-0.96223 0.96223  0 340.23 263.42  214.61 340.33 263.36  214.77
   1  -1   0  14.217  17.995   1-0.54742 0.67529-0.83527 0.73574 0.05162-0.05162  0 280.55 291.61  119.49 280.62 291.44  119.98
   1  -1   0   2.052  22.414   2-0.18845 0.31608-0.37334 0.27384 0.90835-0.90835  0 291.33 296.06   41.55 291.22 295.93   41.95
   1  -1   0   9.077  24.364   2 0.11771 0.00992 0.01934-0.11887-0.99286 0.99286  0 261.26 253.67  201.53 261.23 253.46  201.11
   1   1   0  11.183  30.439   1-0.26190 0.38962 0.46801-0.36853-0.84402 0.84402  0 339.94 268.51   13.29 339.88 268.18   13.14
   1   1   0   0.982  18.980   2 0.12035 0.00732-0.02279 0.12227-0.99247 0.99247  0 285.62 294.32  198.35 285.86 294.22  198.72
   1   1   0  37.891  20.651   2-0.23802 0.36566 0.43686-0.33733 0.86747-0.86747  0 260.94 259.02  353.61 261.04 258.92  353.60
  -1  -1  -1  2142.7    91.9   1-0.13645 0.00872 0.59524-0.69472-0.79188 0.71923  0 257.63 256.81    2.45 257.84 256.80    2.44
  -1  -1  -1  1851.8    85.9   1 0.01347-0.14131-0.69797 0.59850 0.71600-0.78856  0 345.22 256.46  172.03 345.23 256.49  172.17
  -1  -1  -1  1873.6    62.6   2-0.15912 0.03147-0.55116 0.45163 0.81909-0.89165  0 344.77 257.70   53.67 344.85 257.79   53.52
  -1  -1  -1  1985.2    63.1   2 0.07601-0.20363 0.40765-0.50718-0.90997 0.83744  0 314.11 217.09  223.99 314.18 217.04  224.11
  -1  -1   1  1922.3    81.7   1-0.57800 0.45028-0.01201-0.08746-0.81595 0.88860  0 261.78 239.77   46.51 261.94 239.78   46.55
  -1  -1   1  1867.8    72.3   2 0.11176-0.23943-0.76464 0.66516-0.63470 0.70728  0 304.79 215.12  150.00 304.91 215.18  150.17
  -1  -1   1  1731.1    70.4   2-0.22849 0.10086 0.65819-0.75774 0.71734-0.64472  0 343.96 267.34  338.40 344.00 267.35  338.23
  -1   1  -1  1912.0    77.5   1-0.63293 0.50505-0.76053 0.86005-0.14491 0.07232  0 336.23 231.79  107.00 336.31 231.86  106.96
  -1   1  -1  1752.0    66.7   2 0.13279-0.26046-0.34841 0.44789-0.92789 0.85531  0 344.47 263.44  179.81 344.47 263.44  179.61
  -1   1  -1  1859.8    68.6   2-0.23707 0.10943 0.47329-0.37376 0.84841-0.92105  0 308.66 215.76  351.38 308.76 215.81  351.21
  -1   1   1  1900.1    75.9   2-0.14893 0.02128-0.60384 0.70337 0.78307-0.71051  0 300.22 214.96   57.00 300.32 215.03   57.22
  -1   1   1  1914.7    75.9   2 0.02007-0.14770 0.70231-0.60278-0.71158 0.78412  0 342.64 271.83  244.89 342.63 271.81  244.82
   1  -1  -1  1965.8    77.7   2 0.05605 0.07157 0.53033-0.62986-0.84594 0.77341  0 259.11 245.69  232.14 259.19 245.64  232.12
   1  -1   1  1639.8    71.9   1-0.55084 0.67871-0.83341 0.73388 0.04487 0.02772  0 265.47 282.58  119.45 265.65 282.62  119.53
   1  -1   1  1948.1    69.1   2-0.23734 0.36497 0.22690-0.32640 0.94456-0.87193  0 289.85 299.63    7.14 289.92 299.55    6.81
   1  -1   1  1856.7    67.4   2 0.12804-0.00037-0.58050 0.48102-0.80413 0.87671  0 257.30 253.45  164.30 257.51 253.40  164.49
   1   1  -1  2283.7    85.9   1-0.48832 0.61604 0.15855-0.05908-0.85814 0.78549  0 340.72 277.25   35.02 340.78 277.27   35.24
   1   1  -1 343.807  42.125   2 0.12763 0.00005-0.58825 0.68773-0.79854 0.72596  2 293.27 300.46  164.28 293.60 300.25  163.94
   1   1  -1  1727.0    70.2   2-0.20874 0.33637 0.81740-0.71785 0.53692-0.60955  0 257.97 250.07  324.45 258.16 250.06  324.25
   1   1   1  2217.7    66.4   2-0.20168 0.32931-0.27034 0.36984 0.94140-0.86878  0 257.04 258.84   35.92 257.30 258.85   35.70
   1   1   1  1950.8    61.7   2 0.02883 0.09880 0.66494-0.56541-0.74634 0.81887  0 284.50 297.98  242.56 284.61 297.83  241.85
  -1  -1  -2 27275.6   297.5   1-0.18049 0.05265-0.81314 0.71367 0.55337-0.69850  0 355.69 265.72  156.02 355.69 265.73  156.19
  -1  -1  -2 27407.8   247.9   2-0.07935-0.04830-0.86305 0.76352 0.49885-0.64398  0 355.24 265.76   79.81 355.26 265.79   79.70
  -1  -1  -2 25827.3   241.1   2 0.01176-0.13938 0.73529-0.83482-0.67765 0.53259  0 309.83 205.66  247.78 309.89 205.68  247.58
  -1  -1   2 24817.4   267.5   2 0.08094-0.20861-0.91538 0.81579-0.39437 0.53942  0 293.84 205.51  133.62 294.01 205.52  133.74
  -1  -1   2 24087.5   262.1   2-0.20895 0.08132 0.81622-0.91577 0.53863-0.39338  0 350.57 281.44  324.60 350.62 281.40  324.37
  -1   1  -2 25673.5   283.0   1-0.62897 0.50110-0.76579 0.86532-0.13399-0.01119  0 353.29 240.45  107.72 353.35 240.48  107.69
  -1   1  -2 26835.8   256.8   2 0.12184-0.24951-0.67197 0.77145-0.73049 0.58533  0 354.24 270.72  157.79 354.25 270.74  157.77
  -1   1  -2 24382.3   245.7   2-0.21258 0.08495 0.79466-0.69511 0.56862-0.71387  0 304.83 205.16  326.62 304.89 205.21  326.52
  -1   1   2 26852.6   126.3   1-0.16055 0.03271-0.80397 0.90344 0.57258-0.42746  0 289.83 206.30  157.81 290.00 206.43  157.86
  -1   1   2 26893.9   283.2   2-0.10452-0.02313-0.78569 0.88522 0.60973-0.46461  0 289.89 206.21   72.00 290.01 206.28   71.86
  -1   1   2 26535.6   280.5   2-0.03540-0.09224 0.88061-0.78103-0.47251 0.61764  0 348.50 285.07  261.92 348.46 285.05  262.26
   1  -1  -2 23543.7   119.1   1-0.67881 0.80654-0.66976 0.57028-0.30107 0.15577  0 310.03 310.46   96.32 310.19 310.39   96.26
   1  -1  -2 25772.3   275.8   2-0.05998 0.18763-0.91060 0.81107 0.40891-0.55404  0 308.35 310.56   85.69 308.43 310.55   85.63
   1  -1  -2 26414.7   277.7   2 0.00905 0.11858 0.74555-0.84508-0.66639 0.52132  0 254.24 233.73  248.42 253.95 233.69  248.46
   1  -1   2 24320.5   274.7   1-0.54082 0.66869-0.83867 0.73914 0.06444 0.08073  0 250.97 274.06  121.00 250.84 274.05  120.83
   1  -1   2 26738.0   254.4   2 0.09662 0.03105-0.85514 0.75555-0.50931 0.65435  0 249.17 246.94  140.76 249.00 246.89  141.17
   1   1  -2 26125.2   269.7   1-0.61812 0.74586-0.10607 0.20555-0.77889 0.63360  0 347.84 286.75   52.96 347.89 286.72   52.79
   1   1  -2 26107.6   271.1   2-0.17919 0.30682 0.93105-0.83150 0.31785-0.46310  0 252.46 237.30  310.00 252.30 237.26  309.83
   1   1   2 26879.0   294.5   1-0.02782 0.15567-0.72718 0.82665 0.68589-0.54076  0 248.87 250.82  168.99 248.74 250.80  168.80
   1   1   2 25857.0   238.5   2-0.13631 0.26396-0.66217 0.76170 0.73685-0.59173  0 248.35 251.63   61.75 248.21 251.64   61.55
   1   1   2 27107.7   245.4   2-0.04701 0.17465 0.90713-0.80755-0.41823 0.56335  0 288.51 309.57  266.00 288.54 309.46  265.76
  -1  -1  -3 284.583  66.573   1-0.31400 0.18613-0.85766 0.75813 0.40721-0.62497  0 369.44 275.35  144.60 369.49 275.38  144.55
  -1  -1  -3 388.827  58.977   2-0.03554-0.09211-0.95661 0.85708 0.28919-0.50687  0 368.45 277.03   92.95 368.53 277.13   93.14
  -1  -1  -3 328.871  55.526   2-0.02013-0.10751 0.84036-0.93994-0.54165 0.32396  0 303.52 191.20  257.59 303.55 191.30  257.61
  -1  -1   3 233.559  48.203   1-0.70274 0.57501-0.52353 0.42406-0.48173 0.69967  0 245.97 222.61   82.67 245.91 222.57   82.85
  -1  -1   3 338.532  66.306   2 0.05820-0.18587-0.96894 0.86935-0.24034 0.45791  0 281.96 194.43  124.14 282.06 194.44  124.35
  -1  -1   3 248.385  59.987   2-0.19778 0.07015 0.87039-0.96994 0.45090-0.23303  0 358.67 297.36  318.60 358.66 297.43  318.36
  -1   1  -3 363.098  68.027   1-0.63297 0.50510-0.76047 0.85999-0.14503-0.07273  0 371.43 249.16  106.63 371.38 249.43  106.95
  -1   1  -3 360.862  59.080   2 0.10746-0.23513-0.79556 0.89515-0.59627 0.37870  0 367.10 281.33  146.94 367.05 281.56  147.22
  -1   1  -3 303.347  57.344   2-0.18490 0.05727 0.91542-0.81587 0.35752-0.57539  0 298.87 191.34  312.40 298.89 191.44  312.32
  -1   1   3 304.957  38.034   1-0.35524 0.22737-0.86447 0.96400 0.35566-0.13790  0 274.36 197.53  141.01 274.52 197.62  140.75
  -1   1   3 331.328  64.634   2-0.08219-0.04546-0.85516 0.95468 0.51181-0.29413  0 278.38 195.79   79.02 278.42 195.72   78.82
  -1   1   3 340.036  66.036   2-0.06992-0.05772 0.94938-0.84980-0.30624 0.52393  0 356.09 300.65  272.60 356.01 300.60  272.73
   1  -1  -3 266.490  36.863   1-0.66058 0.78845-0.71449 0.61496-0.23053 0.01277  0 326.62 320.98  100.91 326.66 320.97  101.17
   1  -1  -3 321.539  63.558   2-0.02900 0.15665-0.96630 0.86677 0.25577-0.47346  0 320.26 322.83   95.01 320.25 322.69   95.18
   1  -1  -3 289.713  53.915   2-0.01639 0.14403 0.82959-0.92917-0.55813 0.34044  0 247.35 219.92  256.13 247.33 219.96  256.47
   1  -1   3 279.138  56.457   1-0.52634 0.65422-0.84529 0.74576 0.09192 0.12584  0 236.04 265.52  122.64 235.97 265.60  122.64
   1  -1   3 267.614  47.534   2 0.06821 0.05947-0.94968 0.85009-0.30570 0.52327  0 238.45 237.80  128.06 238.26 237.67  128.28
   1   1  -3 366.872  61.189   1-0.67203 0.79976-0.27392 0.37339-0.68801 0.47006  0 359.48 296.73   64.27 359.45 296.72   64.15
   1   1  -3 314.989  65.742   2 0.09608 0.03159-0.85762 0.95721-0.50523 0.28766  0 316.39 323.69  140.98 316.39 323.50  140.90
   1   1  -3 219.660  48.115   2-0.15829 0.28592 0.97054-0.87099 0.18167-0.39954  0 245.35 223.12  301.79 245.25 223.12  301.52
   1   1   3 349.627  59.423   1-0.12719 0.25503-0.78716 0.88663 0.60349-0.38580  0 237.50 242.40  161.08 237.39 242.32  160.64
   1   1   3 308.681  49.417   2-0.10070 0.22835-0.79870 0.89823 0.59324-0.37556  0 237.08 241.87   73.18 237.05 241.87   73.08
  -1  -1  -4 20621.1   321.8   1-0.40631 0.27843-0.86782 0.76829 0.28603-0.57637  0 385.50 285.71  135.99 385.77 285.68  135.79
  -1  -1  -4 12998.2   244.7   2-0.00883-0.11884-0.98820 0.88861 0.15291-0.44301  0 383.34 290.13  101.33 383.49 290.07  101.37
  -1  -1  -4 20703.1   305.2   2-0.03455-0.09309 0.87851-0.97809-0.47647 0.18622  0 296.30 175.41  262.21 296.42 175.47  262.00
  -1  -1   4 19625.7   291.8   1-0.68541 0.55767-0.64774 0.54826-0.33263 0.62322  0 234.09 213.56   93.93 233.97 213.63   94.02
  -1  -1   4 18629.5   315.0   2 0.04092-0.16859-0.99043 0.89084-0.13178 0.42188  0 269.36 182.51  118.10 269.55 182.56  117.95
  -1  -1   4 19025.7   316.2   2-0.19234 0.06471 0.89103-0.99058 0.41118-0.12069  0 367.66 314.91  316.04 367.68 314.90  315.76
  -1   1  -4 18467.9   316.2   1-0.64020 0.51233-0.75015 0.84968-0.16557-0.12478  0 390.37 258.90  105.55 390.71 258.90  105.57
  -1   1  -4 19221.4   298.8   2 0.09852-0.22620-0.84598 0.94557-0.52404 0.23394  0 381.66 294.24  142.00 381.66 294.26  142.17
  -1   1  -4 18633.0   294.9   2-0.16304 0.03541 0.96368-0.86413 0.21153-0.50202  0 291.86 175.96  303.41 291.94 176.05  303.30
  -1   1   4 19572.5   228.5   1-0.38249 0.25462-0.86709 0.96661 0.31915-0.02880  0 259.09 188.31  138.02 259.36 188.43  138.13
  -1   1   4 19685.5   323.7   2-0.07123-0.05642-0.88399 0.98351 0.46206-0.17181  0 266.00 184.11   82.00 266.12 184.20   82.17
  -1   1   4 15005.2   286.7   2-0.09330-0.03434 0.97805-0.87847-0.18630 0.47656  0 364.82 317.78  280.08 364.66 317.76  279.93
   1  -1  -4 17733.0   217.2   1-0.66306 0.79094-0.70929 0.60976-0.23929-0.05106  0 343.51 332.58  100.69 343.63 332.50  100.57
   1  -1  -4 19510.3   321.6   2-0.00757 0.13525-0.98925 0.88965 0.14605-0.43615  0 333.15 336.54  102.01 333.16 336.43  101.77
   1  -1   4 18089.4   307.8   1-0.50923 0.63711-0.85184 0.75231 0.12268 0.16767  0 220.91 257.09  124.74 220.88 257.13  124.68
   1  -1   4 19158.8   292.6   2 0.04683 0.08085-0.98461 0.88501-0.16840 0.45849  0 226.47 227.35  119.99 226.33 227.34  120.11
   1  -1   4 18529.2   294.1   2-0.21131 0.33894 0.80238-0.90193 0.55815-0.26765  2 305.52 341.50  326.21 305.65 341.40  325.77
   1   1  -4 17239.4   279.4   1-0.69174 0.81948-0.36897 0.46844-0.62077 0.33018  0 374.07 307.70   71.00 374.12 307.60   70.91
   1   1  -4 17881.2   306.8   2 0.08936 0.03832-0.88596 0.98555-0.45507 0.16498  0 329.45 337.72  137.45 329.45 337.64  137.60
   1   1  -4 19294.3   311.4   2-0.14197 0.26961 0.98616-0.88658 0.08562-0.37588  0 237.61 208.19  296.07 237.54 208.15  295.87
   1   1   4 19805.0   315.2   1-0.18358 0.31143-0.81452 0.91399 0.55032-0.26007  0 224.63 233.59  155.99 224.54 233.66  155.92
   1   1   4 18602.4   282.4   2-0.08386 0.21152-0.85073 0.95026 0.51887-0.22862  0 224.99 231.22   78.18 224.86 231.25   78.35
  -1  -1  -5  3240.1   177.5   1-0.47254 0.34466-0.86164 0.76212 0.18514-0.54807  0 404.12 297.00  128.80 404.33 296.93  128.87
  -1  -1  -5  2928.9   166.0   2 0.00942-0.13710-0.99853 0.89893 0.05347-0.41608  0 399.97 304.45  107.00 400.16 304.42  107.20
  -1  -1  -5  3120.6   170.4   2-0.04070-0.08694 0.89296-0.99254-0.44829 0.08548  0 288.71 158.45  263.99 288.83 158.51  263.83
  -1  -1   5  3131.0   143.7   1-0.65519 0.52731-0.72510 0.62557-0.21205 0.57498  0 220.79 204.22  102.38 220.73 204.29  102.42
  -1  -1   5  2809.1   176.5   2 0.02689-0.15456-0.99852 0.89892-0.04732 0.40993  0 256.51 169.99  113.04 256.50 170.02  113.03
  -1  -1   5  3169.3   187.2   2-0.19041 0.06278 0.89791-0.99746 0.39687-0.03375  0 377.63 333.85  314.73 377.60 333.83  314.83
  -1   1  -5  3228.7   184.6   1-0.64864 0.52077-0.73671 0.83623-0.19112-0.17181  0 411.49 269.08  103.76 411.76 269.10  103.84
  -1   1  -5  3016.6   172.8   2 0.09389-0.22157-0.86736 0.96695-0.48874 0.12612  0 397.76 308.48  139.96 398.03 308.49  139.80
  -1   1  -5  2900.4   167.7   2-0.14510 0.01746 0.98398-0.88440 0.10358-0.46640  0 284.32 159.28  296.98 284.60 159.40  296.93
  -1   1   5  3145.0   118.9   1-0.38104 0.25316-0.86699 0.96652 0.32114 0.04180  0 244.16 178.53  138.25 244.12 178.65  138.27
  -1   1   5  2971.8   160.4   2-0.06649-0.06116-0.89563 0.99515 0.43981-0.07700  0 253.49 171.80   83.66 253.21 171.91   83.63
  -1   1   5  3124.8   187.3   2-0.11070-0.01694 0.98949-0.88991-0.09300 0.45582  0 374.38 336.52  285.46 374.28 336.50  285.41
   1  -1  -5  2845.0   130.7   1-0.66951 0.79724-0.69473 0.59526-0.26288-0.10036  0 361.59 345.41   99.52 361.66 345.31   98.92
   1  -1  -5  3164.2   185.1   2 0.00832 0.11936-0.99819 0.89859 0.05962-0.42224  0 347.24 351.99  107.04 347.23 351.83  106.84
   1  -1  -5  3304.1   164.0   2-0.03555 0.16319 0.88098-0.98055-0.47183 0.10901  0 231.71 189.72  262.21 231.61 189.72  262.31
   1  -1   5  3116.9   158.3   1-0.49044 0.61832-0.85753 0.75800 0.15529 0.20765  0 205.41 248.45  126.77 205.37 248.49  126.87
   1  -1   5  2848.0   149.1   2 0.03027 0.09740-0.99729 0.89769-0.06710 0.42972  0 213.58 216.37  114.09 213.50 216.39  114.18
   1  -1   5  3131.2   174.7   2-0.20644 0.33407 0.83022-0.92977 0.51780-0.15468  0 312.53 359.73  323.03 312.71 359.67  322.90
   1   1  -5  2818.1   154.5   1-0.69859 0.82632-0.42090 0.52038-0.57863 0.21539  0 390.92 319.67   75.19 391.27 319.59   74.76
   1   1  -5  3221.0   186.4   2 0.08640 0.04128-0.89704 0.99664-0.43342 0.07080  0 343.54 353.35  136.00 343.50 353.28  136.21
   1   1  -5  2901.2   154.0   2-0.12899 0.25663 0.99160-0.89202 0.00925-0.37207  0 229.21 192.54  291.43 229.15 192.48  291.39
   1   1   5  3415.2   160.7   1-0.21372 0.34156-0.82721 0.92668 0.51966-0.15685  0 210.69 224.57  153.36 210.66 224.66  153.35
   1   1   5  2986.4   147.3   2-0.07583 0.20348-0.87209 0.97162 0.48343-0.12062  0 212.00 220.08   80.99 211.84 220.14   80.74
   1   1   5  1467.6   132.8   2-0.12555 0.25319 0.99203-0.89245-0.01058 0.37340  0 308.16 359.85  290.29 308.06 359.72  290.24
  -1  -1  -6 21140.7   398.1   1-0.52248 0.39460-0.84688 0.74735 0.09903-0.53455  0 425.10 309.55  122.90 425.33 309.44  123.11
  -1  -1  -6 19210.7   376.1   2 0.02315-0.15083-0.99940 0.89981-0.02575-0.40939  0 418.58 320.36  112.00 418.78 320.26  111.80
  -1  -1  -6 19730.1   380.6   2-0.04234-0.08530 0.89676-0.99634-0.44048 0.00510  0 280.65 140.23  264.11 280.85 140.34  264.34
  -1  -1   6 19754.7   354.6   1-0.62059 0.49271-0.77615 0.67662-0.11167 0.54720  0 206.32 194.21  108.96 206.32 194.32  109.18
  -1  -1   6 19778.1   390.2   2 0.01477-0.14244-0.99962 0.90003 0.02324 0.41190  0 242.93 156.64  109.01 242.84 156.74  108.96
  -1  -1   6 19040.9   401.2   2-0.19046 0.06283 0.89773-0.99728 0.39724 0.03850  0 388.23 354.60  315.00 388.56 354.54  314.85
  -1   1  -6 19921.8   401.3   1-0.65745 0.52957-0.72079 0.82032-0.21958-0.21594  0 434.73 280.44  101.92 435.04 280.33  101.91
  -1   1  -6 19302.0   382.6   2 0.09205-0.21973-0.87515 0.97475-0.47501 0.03987  0 416.11 324.29  139.01 416.38 324.29  138.89
  -1   1  -6 18509.9   375.4   2-0.13036 0.00272 0.99132-0.89174 0.01716-0.45254  0 276.37 141.39  292.07 276.66 141.48  291.86
  -1   1   6 19991.8   307.1   1-0.36899 0.24111-0.86601 0.96553 0.33747 0.09806  0 228.58 167.93  139.37 228.58 168.07  139.44
  -1   1   6 19355.8   386.4   2-0.06527-0.06238-0.89852 0.99805 0.43404 0.00133  0 239.77 158.77   83.99 239.58 158.86   84.01
  -1   1   6 19580.6   407.3   2-0.12467-0.00297 0.99208-0.89250-0.01567 0.45105  0 384.79 357.09  290.00 384.92 357.06  289.94
   1  -1  -6 18476.4   307.7   1-0.67675 0.80449-0.67578 0.57630-0.29211-0.14378  0 380.96 359.90   97.39 381.11 359.79   96.89
   1  -1  -6 20733.5   414.3   2 0.02089 0.10678-0.99970 0.90011-0.01276-0.42238  0 362.75 369.21  111.00 362.62 369.04  111.04
   1  -1  -6 19646.7   387.9   2-0.03788 0.16552 0.88628-0.98586-0.46160 0.02622  0 222.75 173.31  263.00 222.65 173.27  262.96
   1  -1   6 18854.5   382.1   1-0.47019 0.59806-0.86210 0.76258 0.18895 0.24657  0 189.25 239.50  129.01 189.27 239.53  129.13
   1  -1   6 19229.1   364.5   2 0.01639 0.11128-0.99977 0.90017 0.01407 0.42108  0 199.84 204.90  109.35 199.76 204.93  109.49
   1  -1   6 19180.1   378.3   2-0.20415 0.33178 0.84162-0.94117 0.50000-0.06426  0 320.09 379.98  322.11 320.22 379.84  321.68
   1   1  -6 18842.8   355.7   1-0.70091 0.82865-0.44736 0.54684-0.55551 0.11962  0 410.47 333.17   76.97 410.84 333.05   76.77
   1   1  -6 19687.4   403.3   2 0.08570 0.04197-0.89950 0.99910-0.42843-0.00671  0 358.91 370.78  135.93 358.82 370.69  135.89
   1   1  -6 19302.4   382.7   2-0.11755 0.24519 0.99152-0.89194-0.05547-0.37991  0 220.08 176.04  287.69 220.05 175.98  287.61
   1   1   6 20885.1   383.1   1-0.22769 0.35554-0.83260 0.93207 0.50491-0.06953  0 195.78 215.10  152.01 195.76 215.20  152.15
   1   1   6 18574.1   355.9   2-0.07299 0.20064-0.87952 0.97904 0.47024-0.03487  0 198.08 208.53   81.66 197.94 208.61   81.63
   1   1   6 18519.7   367.8   2-0.13798 0.26562 0.98848-0.88890 0.06216 0.37322  0 315.61 380.17  294.61 315.49 379.98  294.48
  -1  -1  -7  2073.0   217.2   1-0.56156 0.43369-0.82710 0.72758 0.02344-0.53155  0 449.14 323.81  118.15 449.20 323.67  118.11
  -1  -1  -7  1729.3   213.8   2 0.03454-0.16221-0.99505 0.89546-0.09313-0.41453  0 439.72 338.09  115.67 439.85 337.95  115.70
  -1  -1  -7  1918.4   218.7   2-0.04144-0.08620 0.89469-0.99427-0.44476-0.06319  0 272.20 120.67  263.95 272.42 120.69  264.06
  -1  -1   7  1873.4   161.3   1-0.58462 0.45674-0.81089 0.71137-0.02607 0.53418  0 190.78 183.40  115.21 190.84 183.53  114.85
  -1  -1   7  1777.0   178.7   2 0.00370-0.13137-0.99636 0.89677 0.08512 0.42255  0 228.34 142.58  105.30 228.31 142.58  105.35
  -1  -1   7  1647.4   194.4   2-0.19179 0.06416 0.89320-0.99275 0.40671 0.10166  0 400.67 377.56  315.69 400.78 377.49  315.46
  -1   1  -7  2015.1   215.3   1-0.66600 0.53812-0.70283 0.80236-0.24995-0.25816  0 461.03 293.10   99.68 461.19 293.00   99.83
  -1   1  -7  1865.8   227.3   2 0.09199-0.21966-0.87542 0.97501-0.47453-0.03314  0 437.18 342.02  138.98 437.17 342.00  138.86
  -1   1  -7  1583.3   178.0   2-0.11748-0.01016 0.99150-0.89192-0.05587-0.45207  0 267.93 122.04  287.69 268.19 122.07  287.59
  -1   1   7  1704.9   136.7   1-0.35137 0.22349-0.86397 0.96349 0.36069 0.14742  0 212.42 156.37  141.08 212.54 156.47  141.11
  -1   1   7  1768.6   178.9   2-0.06626-0.06139-0.89618 0.99571 0.43871 0.06922  0 225.23 144.90   83.61 225.08 144.90   83.71
  -1   1   7  1779.7   202.0   2-0.13619 0.00855 0.98934-0.88976 0.05159 0.45635  0 396.72 379.88  293.69 396.80 379.88  293.87
   1  -1  -7  1624.7   174.1   1-0.68365 0.81139-0.65403 0.55455-0.32382-0.18471  0 402.08 376.53   94.71 402.36 376.46   94.65
   1  -1  -7  1891.5   236.1   2 0.03167 0.09600-0.99659 0.89700-0.07618-0.43149  0 379.81 388.66  114.86 379.70 388.48  114.71
   1  -1  -7  1778.8   176.6   2-0.03761 0.16525 0.88564-0.98522-0.46285-0.04510  0 212.88 155.70  262.68 212.88 155.67  262.88
   1  -1   7  1604.4   160.7   1-0.44853 0.57641-0.86543 0.76591 0.22326 0.28485  0 172.34 230.12  131.42 172.32 230.09  131.46
   1  -1   7  1469.2   159.5   2 0.00406 0.12362-0.99653 0.89694 0.08314 0.42453  0 184.95 192.91  105.31 184.89 192.91  105.47
   1  -1   7  1857.6   215.6   2-0.20367 0.33130 0.84390-0.94345 0.49634 0.01203  0 328.13 402.47  321.56 328.25 402.30  321.43
   1   1  -7  1561.2   169.6   1-0.70163 0.82937-0.45797 0.55745-0.54587 0.03733  0 432.76 348.52   77.66 433.09 348.49   77.60
   1   1  -7  1786.5   197.2   2 0.08646 0.04122-0.89683 0.99642-0.43385-0.07381  0 375.85 390.22  135.97 375.76 390.28  136.24
   1   1  -7  1651.3   169.9   2-0.10707 0.23471 0.98781-0.88823-0.11302-0.39492  0 210.07 158.39  284.32 210.15 158.39  284.24
   1   1   7  1619.6   154.9   1-0.23112 0.35896-0.83386 0.93333 0.50127 0.00668  0 179.74 204.90  152.15 179.83 205.07  151.86
   1   1   7  1787.8   162.6   2-0.07303 0.20068-0.87941 0.97894 0.47043 0.03751  0 183.09 196.54   81.68 182.96 196.58   81.61
   1   1   7  1841.6   191.8   2-0.14853 0.27617 0.98100-0.88143 0.12477 0.38317  0 323.53 402.64  297.98 323.38 402.50  298.19
  -1  -1  -8  8638.5   349.5   1-0.59282 0.46495-0.80410 0.70457-0.04460-0.53610  0 476.61 340.45  113.63 476.75 340.23  113.63
  -1  -1  -8  8420.5   360.9   2 0.04434-0.17201-0.98723 0.88764-0.15298-0.42721  0 464.00 358.07  119.21 464.17 358.00  119.20
  -1  -1  -8  8208.4   355.3   2-0.03891-0.08873 0.88876-0.98833-0.45673-0.12378  0 263.21  99.02  263.23 263.42  99.16  263.28
  -1  -1   8  7951.1   289.1   1-0.54870 0.42083-0.83457 0.73505 0.04909 0.53161  0 174.11 171.52  119.81 174.20 171.66  119.81
  -1  -1   8  8182.4   326.7   2-0.00668-0.12099-0.98995 0.89035 0.14129 0.43890  0 212.72 127.12  102.01 212.69 127.28  102.05
  -1  -1   8  8187.0   383.8   2-0.19387 0.06624 0.88554-0.98509 0.42218 0.15880  0 414.34 403.47  316.62 414.59 403.36  316.47
  -1   1  -8  7948.6   358.5   1-0.67426 0.54653-0.68262 0.78209-0.28179-0.29940  0 490.87 307.75   97.70 491.20 307.76   97.61
  -1   1  -8  8376.9   360.2   2 0.09308-0.22075-0.87085 0.97044-0.48266-0.09753  0 460.96 362.13  138.98 461.14 362.14  139.40
  -1   1  -8  8253.5   356.2   2-0.10575-0.02189 0.98709-0.88752-0.12025-0.46026  0 258.81 100.64  283.89 259.15 100.77  283.82
  -1   1   8  8628.8   264.5   1-0.32999 0.20211-0.86065 0.96018 0.38780 0.19290  0 195.66 143.39  143.07 195.72 143.51  143.10
  -1   1   8  9480.1   343.8   2-0.06872-0.05893-0.89021 0.98974 0.45033 0.13016  0 209.61 129.68   82.98 209.44 129.82   82.94
  -1   1   8  7761.6   377.7   2-0.14649 0.01885 0.98285-0.88327 0.11202 0.46849  0 410.28 405.74  297.55 410.24 405.67  297.43
   1  -1  -8  7022.3   286.4   1-0.68986 0.81760-0.62982 0.53034-0.35696-0.22422  0 425.69 396.20   91.72 426.14 396.01   92.27
   1  -1  -8  8597.2   384.7   2 0.04123 0.08645-0.99017 0.89058-0.13365-0.44654  0 398.82 410.97  117.99 399.01 410.75  118.06
   1  -1  -8  8783.4   330.3   2-0.03556 0.16320 0.88100-0.98058-0.47177-0.10874  0 202.10 136.61  262.08 202.12 136.61  262.31
   1  -1   8  7971.2   303.5   1-0.42557 0.55344-0.86737 0.76784 0.25801 0.32268  0 154.13 219.86  133.97 154.25 219.95  133.84
   1  -1   8  8319.8   310.7   2-0.00727 0.13495-0.98949 0.88989 0.14444 0.43575  0 168.69 180.11  102.00 168.66 180.18  101.87
   1  -1   8  8325.3   361.1   2-0.20440 0.33203 0.84040-0.93995 0.50194 0.07905  0 336.85 427.83  322.01 336.93 427.64  321.81
   1   1  -8  7876.9   326.9   1-0.70164 0.82938-0.45809 0.55756-0.54576-0.03542  0 458.40 366.66   77.63 458.66 366.52   77.61
   1   1  -8  7807.2   371.8   2 0.08813 0.03954-0.89060 0.99019-0.44617-0.13402  0 394.68 412.87  136.99 394.86 412.72  137.02
   1   1  -8  8235.1   320.0   2-0.09724 0.22488 0.98134-0.88176-0.16587-0.41464  0 199.18 139.44  281.15 199.24 139.39  281.14
   1   1   8  8361.7   298.0   1-0.22713 0.35497-0.83239 0.93186 0.50550 0.07500  0 162.64 193.91  152.17 162.68 194.03  152.20
   1   1   8  8411.1   308.5   2-0.07492 0.20258-0.87449 0.97402 0.47923 0.10127  0 166.79 183.82   81.02 166.62 183.93   81.02
   1   1   8  7791.3   344.5   2-0.15825 0.28588 0.97057-0.87103 0.18150 0.39949  0 332.02 428.11  301.67 331.92 427.88  301.49
  -1  -1  -9 -71.908 200.543   2 0.05312-0.18079-0.97673 0.87713-0.20780-0.44491  0 492.88 381.02  122.59 492.82 381.19  122.42
  -1  -1  -9  13.445 127.082   2-0.03510-0.09254 0.87988-0.97946-0.47390-0.17917  0 253.84  75.24  261.99 253.71  75.18  262.17
  -1  -1   9  35.575  99.194   1-0.51253 0.38465-0.85069 0.75116 0.11681 0.53647  0 155.93 158.15  124.41 156.13 158.35  124.29
  -1  -1   9  52.040 129.251   2-0.01709-0.11056-0.98090 0.88137 0.19376 0.45930  0 195.70 110.59   98.55 195.47 110.55   98.92
  -1  -1   9  60.235 212.059   2-0.19654 0.06891 0.87533-0.97487 0.44179 0.21183  0 430.81 433.41  317.95 430.50 433.13  317.76
  -1   1  -9  55.678 208.501   2 0.09495-0.22262-0.86274 0.96233-0.49665-0.15606  0 488.90 385.47  140.12 489.39 385.53  140.33
  -1   1  -9  22.580 123.632   2-0.09471-0.03293 0.97932-0.87974-0.17876-0.47431  0 249.35  76.60  280.53 249.33  77.02  280.37
  -1   1   9 186.074 105.099   1-0.30566 0.17779-0.85583 0.95535 0.41729 0.23599  0 178.19 129.26  145.35 177.86 128.80  145.31
  -1   1   9  23.286 134.757   2-0.07225-0.05540-0.88141 0.98094 0.46680 0.18626  0 192.32 113.22   81.54 192.31 113.32   81.85
  -1   1   9  49.528 217.783   2-0.15609 0.02846 0.97333-0.87378 0.16812 0.48549  0 425.71 435.14  300.70 425.85 435.41  300.70
   1  -1  -9  73.676 165.771   1-0.69511 0.82285-0.60329 0.50381-0.39097-0.26286  0 453.22 419.42   89.56 453.21 419.48   89.78
   1  -1  -9  25.489 208.128   2 0.04983 0.07784-0.98110 0.88150-0.18699-0.46572  0 420.92 436.22  120.94 421.26 436.74  121.21
   1  -1  -9 167.506 129.191   2-0.03248 0.16012 0.87329-0.97287-0.48611-0.16696  0 189.77 115.55  261.46 190.06 115.68  261.36
   1  -1   9 192.198 125.305   1-0.40133 0.52920-0.86777 0.76825 0.29309 0.36019  0 134.45 208.93  136.45 134.68 208.83  136.29
   1  -1   9  87.099 113.374   2-0.01845 0.14610-0.97943 0.87990 0.20093 0.45213  0 151.08 166.78   98.60 150.61 166.61   98.49
   1  -1   9 121.472 198.922   2-0.20594 0.33357 0.83277-0.93232 0.51390 0.13972  0 346.64 456.53  322.36 346.42 456.74  322.63
   1   1  -9 237.210 210.618   1-0.70115 0.82888-0.45069 0.55017-0.55251-0.10132  0 488.50 388.26   77.31 488.55 388.09   77.03
   1   1  -9  60.709 203.629   2 0.09048 0.03720-0.88159 0.98119-0.46326-0.18945  0 416.94 438.82  138.40 416.81 438.88  138.14
   1   1  -9 172.738 129.141   2-0.08773 0.21537 0.97257-0.87299-0.21545-0.43762  0 186.78 118.43  278.36 187.02 118.53  278.19
   1   1   9  -9.148 117.514   1-0.21775 0.34559-0.82877 0.92825 0.51548 0.13759  0 144.23 181.87  153.02 144.03 181.77  153.01
   1   1   9  50.895 116.802   2-0.07827 0.20592-0.86601 0.96553 0.49387 0.15919  0 148.43 170.44   80.17 148.58 170.47   80.04
   1   1   9  88.918 192.229   2-0.16644 0.29407 0.95802-0.85847 0.23344 0.42018  0 341.24 457.18  305.03 341.14 456.96  304.63
  -1  -1 -10  2064.5   241.3   2-0.03063-0.09701 0.86854-0.96812-0.49468-0.23096  0 242.90  47.97  261.03 242.98  47.94  260.79
  -1  -1  10  1743.0   207.0   1-0.47624 0.34837-0.86088 0.76136 0.17909 0.54679  0 136.11 143.06  128.40 136.26 143.09  128.46
  -1  -1  10  2157.2   256.5   2-0.02645-0.10120-0.96961 0.87008 0.24322 0.48240  0 176.44  91.81   95.77 176.45  91.94   95.95
  -1  -1  10  1835.3   353.0   2-0.19951 0.07188 0.86288-0.96242 0.46437 0.26186  0 449.02 467.90  319.45 449.27 468.22  319.27
  -1   1 -10  2347.0   276.9   2-0.08436-0.04328 0.96879-0.86921-0.23309-0.49254  0 238.36  49.79  277.35 238.40  50.00  277.14
  -1   1  10  2298.9   231.7   1-0.27928 0.15140-0.84916 0.94869 0.44825 0.27762  0 158.52 111.58  147.63 158.53 111.75  147.66
  -1   1  10  1818.5   243.3   2-0.07655-0.05110-0.87018 0.96971 0.48675 0.23887  0 173.20  94.67   80.45 173.23  94.95   80.52
  -1   1  10  1944.7   340.5   2-0.16441 0.03678 0.96144-0.86189 0.22047 0.50576  0 444.15 470.83  303.64 444.15 470.46  303.86
   1  -1 -10  2204.1   282.6   1-0.69912 0.82686-0.57460 0.47512-0.42553-0.30095  0 484.63 448.70   87.22 484.76 448.28   87.20
   1  -1 -10  2301.5   346.5   2 0.05773 0.06994-0.96970 0.87011-0.23737-0.48787  0 447.84 468.01  124.37 447.64 467.85  124.17
   1  -1 -10  2134.7   250.5   2-0.02845 0.15609 0.86305-0.96263-0.50432-0.22132  0 176.20  92.25  260.00 176.39  92.23  260.15
   1  -1  10  2020.4   238.8   1-0.37574 0.50362-0.86659 0.76706 0.32840 0.39747  0 113.18 196.24  139.15 113.15 196.41  138.79
   1  -1  10  1739.3   219.8   2-0.02851 0.15616-0.96698 0.86745 0.25325 0.47237  0 130.09 151.84   95.37 130.39 151.89   95.34
   1  -1  10  1988.2   319.0   2-0.20791 0.33554 0.82189-0.92143 0.53035 0.19588  0 356.98 491.07  324.01 356.99 490.90  323.79
   1   1 -10  1946.0   340.6   2 0.09323 0.03444-0.87021 0.96980-0.48378-0.24145  0 442.73 470.11  139.34 442.73 470.15  139.47
   1   1 -10  1826.3   231.5   2-0.07857 0.20621 0.96167-0.86209-0.26273-0.46291  0 173.21  95.60  275.32 173.17  95.25  275.36
   1   1  10  2329.8   246.6   1-0.20396 0.33180-0.82330 0.92277 0.52969 0.19594  0 123.51 167.67  154.37 123.45 167.88  154.19
   1   1  10  1796.1   226.9   2-0.08236 0.21001-0.85468 0.95421 0.51258 0.21304  0 128.70 155.89   78.79 128.29 155.90   78.77
   1   1  10  1530.5   297.7   2-0.17388 0.30151 0.94341-0.84386 0.28240 0.44384  0 351.35 491.62  308.06 351.31 491.03  307.64
  -1  -1 -11 272.038 201.572   2-0.02544-0.10220 0.85494-0.95452-0.51811-0.28009  0 230.95  15.84  258.85 230.93  16.28  259.21
  -1  -1  11 131.469 158.841   1-0.43938 0.31150-0.86639 0.76686 0.23731 0.56115  0 113.65 125.02  132.52 114.02 125.26  132.42
  -1  -1  11 407.188 223.685   2-0.03581-0.09184-0.95619 0.85666 0.29055 0.50764  0 154.85  70.99   93.49 154.79  70.80   93.06
  -1   1 -11  88.886 196.847   2-0.07435-0.05329 0.95582-0.85624-0.28438-0.51382  0 225.93  18.66  274.45 226.10  18.66  274.05
  -1   1  11 299.440 160.240   1-0.25066 0.12282-0.84061 0.94008 0.48014 0.31805  0 137.48  91.77  150.60 137.23  91.58  150.17
  -1   1  11 175.512 210.968   2-0.08163-0.04602-0.85672 0.95625 0.50928 0.28891  0 151.41  74.03   78.97 151.54  74.18   78.99
   1  -1 -11 349.188 213.365   2-0.02384 0.15148 0.85050-0.95008-0.52543-0.27277  0 160.61  65.78  258.85 160.56  65.43  258.71
   1  -1  11 119.336 157.247   1-0.34889 0.47676-0.86363 0.76410 0.36390 0.43456  0  88.85 181.79  141.43  89.02 182.17  141.35
   1  -1  11 358.119 189.160   2-0.03824 0.16590-0.95226 0.85273 0.30288 0.49530  0 106.67 135.35   92.46 107.23 135.61   92.30
   1   1 -11 196.413 201.368   2-0.06952 0.19716 0.94876-0.84918-0.30827-0.48993  0 156.88  68.43  272.58 157.14  68.68  272.61
   1   1  11 489.174 179.936   1-0.18681 0.31465-0.81593 0.91540 0.54714 0.25106  0 100.45 151.93  155.44 100.35 151.82  155.65
   1   1  11-137.290 161.652   2-0.08728 0.21494-0.84077 0.94030 0.53430 0.26388  0 104.73 139.58   77.33 105.05 139.86   77.28
  -1  -1  12  3949.9   367.2   1-0.40178 0.27390-0.86778 0.76826 0.29246 0.57859  0  88.80 103.97  135.96  88.60 103.83  136.24
  -1  -1  12  3380.7   375.2   2-0.04504-0.08261-0.94068 0.84115 0.33629 0.53445  0 129.65  46.05   90.29 129.64  46.28   90.24
  -1   1  12  3105.7   327.4   1-0.22022 0.09238-0.82972 0.92919 0.51290 0.35786  0 113.13  66.68  153.42 113.19  67.26  152.80
  -1   1  12  2821.3   370.4   2-0.08717-0.04048-0.84112 0.94065 0.53378 0.33697  0 126.08  49.60   77.02 126.27  50.03   77.32
   1  -1 -12  3744.4   434.9   2-0.01856 0.14620 0.83579-0.93537-0.54873-0.32203  0 141.78  33.67  257.31 141.82  34.00  257.11
   1  -1  12  3888.1   380.3   1-0.32053 0.44841-0.85886 0.75934 0.39952 0.47153  0  61.32 165.29  144.18  61.35 165.42  143.97
   1  -1  12  3146.1   372.1   2-0.04797 0.17562-0.93532 0.83579 0.35054 0.52020  0  80.10 117.04   89.29  80.15 117.28   89.34
   1   1 -12  3358.6   355.8   2-0.06073 0.18837 0.93382-0.83425-0.35254-0.51822  0 138.15  37.56  269.60 138.14  37.56  269.88
   1   1  12  3938.7   350.1   1-0.16637 0.29421-0.80672 0.90619 0.56703 0.30373  0  73.92 132.60  157.39  73.91 132.69  157.37
   1   1  12  3013.9   337.3   2-0.09272 0.22038-0.82447 0.92400 0.55825 0.31249  0  78.58 121.69   75.57  77.90 121.86   75.61
  -1  -2   0 39361.9   373.1   1-0.48208 0.35435 0.16901-0.36796-0.85967 0.85967  0 244.04 260.01   34.54 243.96 259.97   34.53
  -1  -2   0 37523.4   327.3   2-0.22682 0.09919 0.00504-0.20404 0.97392-0.97392  0 357.99 277.15   19.99 358.01 277.19   19.69
  -1  -2   0 36104.6   322.5   2 0.13036-0.25803-0.22409 0.02513-0.96581 0.96581  0 300.03 200.21  186.83 300.15 200.24  187.07
  -1   2   0 34715.8   269.2   1-0.67698 0.54925-0.29417 0.49312-0.67465 0.67465  0 335.52 209.79   65.59 335.55 209.84   65.56
  -1   2   0 39026.0   350.1   2-0.22617 0.09854-0.00463 0.20363 0.97408-0.97408  0 291.75 201.01   19.81 291.86 201.09   20.25
  -1   2   0 38213.8   345.3   2 0.10148-0.22911 0.20551-0.00644-0.97338 0.97338  0 354.50 285.07  212.00 354.52 285.02  211.86
   1  -2   0 28155.3   244.4   1-0.69739 0.82513-0.58824 0.38928-0.40941 0.40941  0 266.22 303.48   88.23 266.43 303.44   88.42
   1  -2   0 37446.4   341.7   2-0.20174 0.32937-0.26981 0.07081 0.94154-0.94154  0 306.39 315.74   35.69 306.48 315.70   35.66
   1  -2   0 36820.8   337.6   2 0.12274 0.00493-0.06168-0.13728-0.99052 0.99052  0 248.88 233.96  196.42 248.72 233.90  196.48
   1   2   0 45023.2   402.6   1-0.34833 0.47605 0.36409-0.16514-0.86377 0.86377  0 361.88 255.68   20.97 361.88 255.71   20.97
   1   2   0 37328.8   324.8   2-0.23877 0.36641 0.29357-0.09457 0.92564-0.92564  0 246.02 241.34    3.19 245.85 241.30    2.84
  -1  -2  -1 77616.6   537.2   1-0.33755 0.20983 0.37779-0.57674-0.86217 0.78952  0 242.36 268.50   20.07 242.28 268.45   19.97
  -1  -2  -1 61806.8   422.2   2-0.18964 0.06201-0.36475 0.16575 0.91159-0.98422  0 361.56 276.18   41.42 361.63 276.23   41.42
  -1  -2  -1 65535.0   436.5   2 0.10846-0.23609 0.13564-0.33470-0.98480 0.91227  0 302.01 197.41  207.87 302.06 197.43  207.80
  -1  -2   1 64053.6   483.9   1-0.59945 0.47171-0.06032-0.13864-0.79814 0.87079  0 241.77 251.53   49.99 241.67 251.49   49.75
  -1  -2   1 60203.4   436.5   2 0.12991-0.25758-0.54032 0.34136-0.83137 0.90395  0 294.38 197.88  166.93 294.51 197.90  167.26
  -1   2  -1 58636.8   409.8   1-0.70290 0.57517-0.48688 0.68584-0.51853 0.44588  0 349.94 218.38   80.08 349.94 218.45   79.87
  -1   2  -1 65033.4   454.0   2 0.12610-0.25377-0.12442 0.32338-0.98418 0.91161  0 358.26 284.45  193.20 358.23 284.39  192.88
  -1   2   1 69289.5   405.7   1-0.49337 0.36565 0.14986 0.04909-0.85681 0.92946  0 324.49 200.99   35.92 324.52 201.09   35.82
  -1   2   1 66963.1   475.9   2-0.19670 0.06907-0.31174 0.51074 0.92958-0.85696  0 286.54 199.35   38.00 286.72 199.40   38.18
  -1   2   1 62262.1   457.5   2 0.06038-0.18801 0.50590-0.30684-0.86047 0.93301  0 354.70 290.86  230.47 354.72 290.77  230.46
   1  -2  -1 49326.9   267.3   1-0.69231 0.82005-0.37259 0.17363-0.61797 0.54532  0 276.32 312.76   71.04 276.54 312.65   71.17
   1  -2  -1 61549.8   454.4   2-0.15869 0.28634-0.55349 0.35443 0.81760-0.89016  0 311.66 317.99   53.70 311.74 317.97   53.68
   1  -2  -1 67197.2   474.5   2 0.09566 0.03196 0.25798-0.45705-0.96140 0.88887  0 248.69 228.73  215.00 248.50 228.71  214.97
   1  -2   1 51923.8   386.9   1-0.67281 0.80055-0.68645 0.48750-0.27588 0.34853  0 253.94 294.58   97.78 253.79 294.52   98.02
   1  -2   1 56978.7   424.0   2 0.13315-0.00548-0.39916 0.20020-0.90716 0.97974  0 245.70 234.69  176.44 245.53 234.64  176.45
   1   2  -1 48364.9   421.6   1-0.49024 0.61797 0.15530 0.04365-0.85764 0.78499  0 364.60 265.04   35.40 364.61 265.04   35.46
   1   2  -1 56648.4   420.9   2-0.23345 0.36108 0.58631-0.38721 0.77572-0.84834  0 245.37 235.64  343.84 245.21 235.67  343.59
   1   2   1 75666.0   522.0   1-0.17337 0.30110 0.56069-0.36174-0.80967 0.88232  0 363.93 246.30    5.58 363.88 246.31    5.52
   1   2   1 63757.3   426.8   2-0.22225 0.34988-0.05896 0.25796 0.97321-0.90058  0 243.01 242.35   23.32 242.84 242.32   23.37
  -1  -2  -2  8112.6   187.3   1-0.19972 0.07199 0.53446-0.73341-0.82126 0.67597  0 237.00 277.05    8.09 236.95 277.02    7.76
  -1  -2  -2  6555.3   176.2   1-0.00042-0.12742-0.70822 0.50928 0.70599-0.85112  0 370.37 278.90  170.97 370.32 278.85  171.03
  -1  -2  -2  6540.7   159.7   2-0.13932 0.01167-0.64918 0.45013 0.74776-0.89289  0 369.36 280.48   60.60 369.39 280.53   60.57
  -1  -2  -2  6833.7   163.9   2 0.07438-0.20200 0.41861-0.61767-0.90512 0.76005  0 300.53 189.65  224.86 300.57 189.67  224.80
  -1  -2   2  6327.2   168.2   1-0.67057 0.54283-0.26815 0.06919-0.69169 0.83699  0 235.92 242.99   63.93 235.83 242.98   63.75
  -1  -2   2  6107.0   168.7   2 0.11420-0.24187-0.74564 0.54668-0.65649 0.80165  0 285.96 191.66  151.72 286.13 191.68  151.81
  -1  -2   2  6520.6   172.0   2-0.23550 0.10787 0.54471-0.74381 0.80488-0.65963  0 362.92 294.37  346.68 362.93 294.33  346.51
  -1   2  -2  6738.7   171.2   1-0.69961 0.57187-0.57015 0.76911-0.43067 0.28537  0 366.11 227.00   86.98 366.23 227.05   86.81
  -1   2  -2  7241.2   175.2   2 0.13308-0.26075-0.38692 0.58588-0.91246 0.76730  0 365.78 288.70  177.05 365.83 288.67  177.22
  -1   2  -2  6306.4   166.2   2-0.23254 0.10491 0.60177-0.40268 0.76406-0.90931  0 291.96 190.51  342.55 292.04 190.58  342.46
  -1   2   2  6134.9   170.9   2-0.16433 0.03668-0.52215 0.72121 0.83687-0.69175  0 278.69 193.88   51.53 278.81 193.96   51.54
  -1   2   2  6950.0   181.0   2 0.01711-0.14474 0.71420-0.51513-0.69974 0.84480  0 358.07 300.89  246.00 358.10 300.82  245.80
   1  -2  -2  6831.8    98.5   1-0.53222 0.65994 0.08029-0.27924-0.84279 0.69750  0 279.40 322.18   40.49 279.59 322.05   40.45
   1  -2  -2  6624.4    97.5   1-0.00134 0.12918-0.70888 0.50993 0.70533-0.85046  0 321.47 324.25  170.98 321.46 324.15  170.96
   1  -2  -2  6828.0   178.7   2-0.11572 0.24337-0.74584 0.54678 0.65600-0.80113  0 319.77 324.55   67.90 319.85 324.50   68.32
   1  -2  -2  6941.0   173.6   2 0.06408 0.06354 0.48383-0.68290-0.87281 0.72774  0 245.72 219.85  229.10 245.55 219.83  228.99
   1  -2   2  5489.9   153.3   1-0.64580 0.77368-0.74141 0.54236-0.18235 0.32752  0 240.26 285.92  104.34 240.21 285.92  104.44
   1  -2   2  6717.2   162.9   2 0.12298 0.00469-0.65708 0.45812-0.74372 0.88888  0 239.27 231.25  159.18 239.15 231.20  158.90
   1   2  -2  6150.3   174.2   1-0.58368 0.71141-0.02448 0.22343-0.81161 0.66632  0 371.84 274.63   46.96 371.82 274.61   47.37
   1   2  -2  6509.3   171.4   2 0.13097-0.00330-0.51062 0.70958-0.84977 0.70461  0 312.04 325.93  169.07 312.06 325.84  169.26
   1   2  -2  5989.9   158.7   2-0.21624 0.34387 0.76999-0.57089 0.60029-0.74554  0 241.87 226.21  329.11 241.71 226.25  328.86
   1   2   2  6672.1   155.6   2-0.19129 0.31892-0.35252 0.55152 0.91605-0.77079  0 236.51 238.84   40.75 236.38 238.85   40.67
  -1  -2  -3 354.175  78.892   1-0.15086 0.02302-0.79926 0.60032 0.58174-0.79943  0 380.77 289.01  158.64 380.73 289.03  158.67
  -1  -2  -3 280.660  67.273   2-0.09463-0.03302-0.81850 0.61944 0.56666-0.78435  0 380.37 288.82   75.33 380.48 288.70   75.01
  -1  -2  -3 248.332  64.468   2 0.04448-0.17211 0.59186-0.79092-0.80482 0.58721  0 296.54 178.49  236.41 296.61 178.34  236.41
  -1  -2   3 457.171  69.733   1-0.69975 0.57201-0.43302 0.23406-0.56820 0.78614  0 227.31 234.40   75.67 227.20 234.36   75.68
  -1  -2   3 329.144  77.811   2 0.09495-0.22262-0.86272 0.66354-0.49668 0.71425  0 275.69 182.93  140.19 276.01 182.96  140.34
  -1  -2   3 349.432  78.010   2-0.22793 0.10030 0.66486-0.86396 0.71134-0.49347  0 369.23 308.19  337.69 369.22 308.06  337.71
  -1   2  -3 245.954  70.452   1-0.69431 0.56657-0.60790 0.80686-0.38522 0.16727  0 383.97 236.00   90.29 384.10 235.88   90.21
  -1   2  -3 351.215  72.701   2 0.12925-0.25693-0.55601 0.75498-0.82106 0.60332  0 376.55 296.71  166.34 376.52 296.65  166.19
  -1   2  -3 238.717  68.971   2-0.21577 0.08814 0.77349-0.57439 0.59595-0.81382  0 288.00 179.63  328.64 288.17 179.67  328.52
  -1   2   3 295.752  75.848   2-0.13949 0.01184-0.64841 0.84747 0.74840-0.53072  0 268.94 185.95   60.45 269.05 185.91   60.51
  -1   2   3 294.254  76.408   2-0.01993-0.10771 0.83976-0.64060-0.54259 0.76028  0 363.67 313.96  257.45 363.67 314.00  257.54
   1  -2  -3 440.411  54.942   1-0.22718 0.35490 0.50589-0.70484-0.83215 0.61421  0 272.66 331.56    9.95 272.90 331.51   10.11
   1  -2  -3 313.440  41.682   1-0.36893 0.49681-0.86600 0.66695 0.33754-0.55531  0 328.68 334.71  139.52 328.65 334.79  139.45
   1  -2  -3 323.725  77.166   2-0.08020 0.20785-0.86071 0.66165 0.50274-0.72042  0 330.15 334.30   79.40 330.10 334.24   79.44
   1  -2  -3 287.472  62.024   2 0.03850 0.08912 0.62103-0.82010-0.78284 0.56524  0 240.79 208.47  238.62 240.61 208.49  238.54
   1  -2   3 287.664  61.664   1-0.61964 0.74751-0.77726 0.57820-0.10920 0.32696  0 225.98 277.41  109.28 226.00 277.42  109.34
   1  -2   3 347.548  62.749   2 0.10428 0.02339-0.81504 0.61585-0.56994 0.78751  0 230.42 224.81  145.31 230.37 224.77  145.34
   1  -2   3 271.683  69.633   2-0.23634 0.36398 0.50050-0.69956 0.83285-0.61493  0 309.34 338.17  349.56 309.61 338.28  349.40
   1   2  -3 292.216  72.842   1-0.63707 0.76480-0.15765 0.35660-0.75451 0.53657  0 382.80 284.63   56.25 382.75 284.67   56.23
   1   2  -3 304.904  75.171   2 0.12392 0.00375-0.64508 0.84405-0.75400 0.53626  0 322.56 336.38  159.70 322.54 336.22  159.80
   1   2  -3 298.567  61.989   2-0.19703 0.32466 0.87338-0.67428 0.44541-0.66328  0 236.41 214.41  318.00 236.34 214.47  318.00
   1   2   3 270.787  55.398   2-0.16109 0.28874-0.54037 0.73942 0.82587-0.60818  0 227.28 232.27   52.68 227.34 232.30   52.78
  -1  -2  -4  3657.9   170.3   1-0.27066 0.14278-0.84669 0.64764 0.45810-0.74845  0 394.21 300.01  148.40 394.37 299.96  148.43
  -1  -2  -4  3610.3   161.9   2-0.06007-0.06759-0.91041 0.71135 0.40933-0.69958  0 393.79 299.62   85.68 394.14 299.59   85.61
  -1  -2  -4  3659.8   165.8   2 0.02327-0.15090 0.68899-0.88806-0.72440 0.43426  0 291.04 164.51  244.01 291.15 164.56  243.75
  -1  -2   4  2904.9   144.1   1-0.70092 0.57319-0.55571 0.35675-0.44710 0.73769  0 216.55 225.45   85.50 216.48 225.48   85.56
  -1  -2   4  3318.2   179.1   2 0.07642-0.20410-0.92881 0.72962-0.36259 0.65268  0 264.49 172.62  131.64 264.66 172.66  131.76
  -1  -2   4  3486.4   180.3   2-0.22126 0.09363 0.73111-0.93021 0.64539-0.35489  0 377.07 324.10  332.44 377.12 324.05  332.30
  -1   2  -4  3364.9   176.0   1-0.69117 0.56343-0.62387 0.82282-0.36479 0.07420  0 403.34 245.11   92.08 403.64 245.13   91.70
  -1   2  -4  3616.1   171.9   2 0.12309-0.25076-0.65571 0.85467-0.74491 0.45460  0 389.47 307.37  159.18 389.72 307.38  159.01
  -1   2  -4  3432.5   167.7   2-0.19685 0.06922 0.87410-0.67501 0.44406-0.73456  0 282.73 166.20  318.02 282.79 166.33  317.91
  -1   2   4  3637.3   183.9   2-0.12219-0.00546-0.72094 0.91999 0.68214-0.39189  0 257.84 176.08   66.00 258.00 176.17   66.22
  -1   2   4  3292.5   177.9   2-0.04949-0.07815 0.91240-0.71324-0.40629 0.69655  0 371.07 329.68  266.45 370.96 329.58  266.52
   1  -2  -4  3447.4   111.0   1-0.51336 0.64123-0.85039 0.65134 0.11533-0.40568  0 341.76 346.85  124.06 341.75 346.72  124.19
   1  -2  -4  3420.3   180.3   2-0.05221 0.17986-0.92702 0.72797 0.37135-0.66160  0 341.99 346.57   87.98 342.05 346.44   88.03
   1  -2  -4  3626.1   161.6   2 0.02047 0.10716 0.70069-0.89975-0.71318 0.42304  0 234.51 195.45  244.96 234.32 195.43  244.69
   1  -2   4  3164.7   153.4   1-0.59413 0.72201-0.80298 0.60393-0.04726 0.33760  0 211.32 268.88  113.37 211.27 268.96  113.45
   1  -2   4  3180.4   150.7   2 0.08409 0.04359-0.90505 0.70586-0.41691 0.70701  0 219.92 216.52  134.98 219.86 216.47  135.15
   1  -2   4  3381.3   172.9   2-0.23219 0.35982 0.60732-0.80642 0.75977-0.46928  0 314.56 352.98  341.98 314.74 352.86  342.06
   1   2  -4  3366.3   168.0   1-0.66533 0.79307-0.24840 0.44736-0.70401 0.41342  0 396.51 295.53   62.24 396.79 295.48   62.39
   1   2  -4  3774.7   184.8   2 0.11712 0.01055-0.72039 0.91935-0.68361 0.39329  0 334.54 348.99  154.00 334.49 348.91  153.93
   1   2  -4  3565.3   162.5   2-0.17920 0.30683 0.93105-0.73195 0.31787-0.60837  0 229.73 201.09  309.91 229.65 201.09  309.83
   1   2   4  3547.9   156.4   1 0.01220 0.11564-0.69890 0.89784 0.71512-0.42486  0 218.07 221.47  172.00 218.04 221.53  172.07
   1   2   4  3535.2   147.4   2-0.13935 0.26700-0.64906 0.84811 0.74787-0.45762  0 216.67 223.77   60.56 216.58 223.82   60.56
   1   2   4  3688.8   167.4   2-0.05714 0.18478 0.92740-0.72824-0.36969 0.65994  2 305.84 353.15  268.78 305.79 353.06  268.83
  -1  -2  -5 596.455 119.086   1-0.36385 0.23597-0.86549 0.66644 0.34429-0.70723  0 410.89 311.95  140.15 410.91 311.96  139.93
  -1  -2  -5 454.680 106.069   2-0.03369-0.09396-0.95947 0.76041 0.27980-0.64261  0 410.04 312.76   94.08 410.05 312.63   93.73
  -1  -2  -5 489.921 102.134   2 0.00980-0.13743 0.74271-0.94178-0.66954 0.30687  0 284.56 148.71  248.41 284.68 148.90  248.22
  -1  -2   5 548.408  90.086   1-0.68608 0.55835-0.64523 0.44627-0.33611 0.69935  0 204.35 216.12   93.64 204.15 216.22   93.77
  -1  -2   5 453.442  90.366   2 0.05988-0.18756-0.96611 0.76692-0.25111 0.61373  0 252.34 161.00  124.66 252.39 161.16  124.99
  -1  -2   5 431.583 115.671   2-0.21659 0.08896 0.76755-0.96665 0.60329-0.24017  0 386.28 342.07  329.31 386.38 342.11  329.08
  -1   2  -5 538.078 117.778   1-0.69032 0.56258-0.62778 0.82673-0.35966-0.00358  0 425.09 255.03   92.21 425.22 255.04   92.08
  -1   2  -5 485.380 109.081   2 0.11788-0.24555-0.71323 0.91219-0.69095 0.32806  0 404.90 320.27  154.18 405.14 320.34  154.52
  -1   2  -5 437.430 105.315   2-0.17881 0.05118 0.93200-0.73290 0.31529-0.67841  0 276.50 151.02  310.06 276.33 151.08  309.67
  -1   2   5 561.899  67.302   1-0.07642-0.05142-0.75834 0.95728 0.64737-0.28455  0 247.18 164.55  164.70 247.26 164.65  164.82
  -1   2   5 506.898 100.142   2-0.11125-0.01640-0.76232 0.96137 0.63757-0.27476  0 245.72 165.03   69.76 245.90 165.12   69.76
  -1   2   5 423.712 115.727   2-0.07308-0.05456 0.95397-0.75482-0.29085 0.65366  0 379.74 347.26  273.79 379.66 347.32  273.66
   1  -2  -5 421.986  73.543   1-0.58024 0.70812-0.81428 0.61523-0.01643-0.34650  0 357.66 360.23  115.50 357.69 360.13  115.49
   1  -2  -5 637.486 123.616   2-0.02991 0.15757-0.96502 0.76596 0.26047-0.62328  0 355.58 360.87   95.03 355.53 360.84   94.90
   1  -2  -5 466.328  96.405   2 0.00875 0.11887 0.74664-0.94571-0.66517 0.30250  0 226.99 181.04  248.58 226.94 180.97  248.56
   1  -2   5 400.144  84.766   1-0.56898 0.69685-0.82231 0.62326 0.00806 0.35488  0 196.06 260.56  117.24 195.94 260.38  117.10
   1  -2   5 319.348  81.410   2 0.06570 0.06197-0.95500 0.75582-0.28923 0.65184  0 207.82 206.95  126.84 207.97 206.92  127.28
   1  -2   5 401.021 106.567   2-0.22743 0.35506 0.67053-0.86963 0.70616-0.34304  0 320.75 369.79  337.37 320.83 369.91  337.27
   1   2  -5 507.393 108.905   1-0.67991 0.80765-0.30712 0.50607-0.66588 0.30264  0 413.47 307.31   66.40 413.70 307.33   66.47
   1   2  -5 437.323 110.680   2 0.11203 0.01564-0.76258 0.96154-0.63712 0.27423  0 348.09 363.94  150.33 347.89 363.69  150.35
   1   2  -5 393.008  85.340   2-0.16317 0.29080 0.96347-0.76438 0.21235-0.57547  0 222.11 186.55  303.59 221.94 186.49  303.35
   1   2   5 479.317  87.075   1-0.04058 0.16842-0.73565 0.93459 0.67615-0.31333  0 205.92 212.10  168.14 205.90 212.20  167.76
   1   2   5 410.401  80.810   2-0.12483 0.25248-0.71071 0.90977 0.69232-0.32951  0 204.24 214.16   65.29 204.48 214.18   65.39
   1   2   5 410.833 103.073   2-0.08245 0.21009 0.96651-0.76735-0.24301 0.60583  0 311.70 370.45  276.67 311.75 370.27  276.55
  -1  -2  -6 17375.1   374.2   1-0.43618 0.30831-0.86666 0.66761 0.24215-0.67767  0 430.15 325.52  132.99 430.32 325.42  132.75
  -1  -2  -6 16740.0   373.3   2-0.01255-0.11513-0.98491 0.78572 0.17263-0.60778  0 428.06 327.68  100.09 428.26 327.56  100.20
  -1  -2  -6 16482.6   372.8   2 0.00177-0.12941 0.77200-0.97116-0.63561 0.20023  0 277.37 131.40  251.13 277.52 131.54  250.85
  -1  -2   6 14535.3   335.5   1-0.66248 0.53461-0.71052 0.51147-0.23723 0.67275  0 190.52 206.34  100.75 190.55 206.47  100.71
  -1  -2   6 15179.3   358.7   2 0.04493-0.17260-0.98664 0.78746-0.15657 0.59171  0 239.27 148.48  118.96 239.18 148.53  119.41
  -1  -2   6 15859.6   391.2   2-0.21376 0.08613 0.78684-0.98594 0.57896-0.14321  0 396.61 362.40  327.40 397.01 362.35  327.28
  -1   2  -6 16338.0   389.0   1-0.69111 0.56337-0.62415 0.82311-0.36442-0.07147  0 449.03 265.87   91.97 449.33 265.88   91.73
  -1   2  -6 16172.8   375.4   2 0.11416-0.24184-0.74592 0.94488-0.65617 0.22070  0 422.83 335.40  151.67 422.97 335.40  151.79
  -1   2  -6 16267.1   377.0   2-0.16222 0.03459 0.96493-0.76584 0.20636-0.64210  0 268.97 133.97  303.01 269.08 134.10  302.99
  -1   2   6 16454.6   271.0   1-0.12629-0.00155-0.78669 0.98563 0.60430-0.16892  0 232.70 153.33  160.90 232.71 153.53  160.71
  -1   2   6 17245.3   383.7   2-0.10464-0.02301-0.78526 0.98432 0.61025-0.17488  0 232.96 152.79   72.00 232.83 152.92   71.82
  -1   2   6 14257.9   375.0   2-0.09222-0.03542 0.97705-0.77789-0.19202 0.62740  0 389.59 367.40  279.65 389.66 367.33  279.59
   1  -2  -6 14807.3   272.5   1-0.61936 0.74724-0.77757 0.57852-0.10849-0.32703  0 375.64 375.57  109.27 375.63 375.41  109.39
   1  -2  -6 15474.8   381.5   2-0.01132 0.13900-0.98604 0.78685 0.16615-0.60129  0 370.61 377.54  100.66 370.58 377.34  100.59
   1  -2  -6 16250.7   371.4   2 0.00160 0.12604 0.77260-0.97176-0.63489 0.19951  0 218.71 165.15  250.98 218.63 165.17  250.91
   1  -2   6 14513.5   352.3   1-0.54364 0.67152-0.83724 0.63819 0.05899 0.37653  0 179.82 251.53  120.40 179.85 251.57  120.46
   1  -2   6 15095.5   345.9   2 0.04904 0.07864-0.98207 0.78288-0.18204 0.61718  0 194.86 196.41  121.03 194.80 196.39  120.91
   1  -2   6 15022.1   363.2   2-0.22386 0.35149 0.70713-0.90623 0.67071-0.23497  0 327.60 389.49  334.41 327.75 389.38  334.32
   1   2  -6 14701.4   363.1   1-0.68739 0.81513-0.34313 0.54208-0.64012 0.20423  0 433.19 320.67   68.89 433.49 320.60   69.04
   1   2  -6 16916.0   397.0   2 0.10892 0.01875-0.78533 0.98452-0.60942 0.17428  0 362.99 380.78  147.95 362.82 380.67  148.17
   1   2  -6 15890.3   365.2   2-0.14831 0.27595 0.98121-0.78205 0.12341-0.55879  0 213.36 170.67  298.06 213.36 170.63  298.11
   1   2   6 16533.0   354.1   1-0.07391 0.20175-0.75682 0.95576 0.64943-0.21406  0 192.33 202.21  165.01 192.35 202.30  165.03
   1   2   6 16720.0   353.9   2-0.11587 0.24352-0.74527 0.94432 0.65662-0.22125  0 191.22 203.55   67.98 191.14 203.65   68.27
   1   2   6 16087.1   368.0   2-0.10229 0.22993 0.98504-0.78589-0.13866 0.57404  0 318.58 390.10  282.99 318.42 389.87  282.73
  -1  -2  -7  3112.9   246.1   1-0.49318 0.36530-0.85679 0.65774 0.15063-0.65874  0 452.71 340.84  126.58 452.95 340.81  126.55
  -1  -2  -7  2963.3   247.5   2 0.00445-0.13212-0.99671 0.79752 0.08098-0.58865  0 449.31 344.93  105.62 449.40 344.78  105.59
  -1  -2  -7  3502.3   261.6   2-0.00264-0.12500 0.78699-0.98615-0.61696 0.10902  0 269.55 112.11  252.16 269.63 112.30  252.24
  -1  -2   7  3124.3   194.9   1-0.63396 0.50608-0.75911 0.56006-0.14780 0.65591  0 175.41 195.77  107.15 175.50 195.91  106.77
  -1  -2   7  3284.0   219.0   2 0.03134-0.15902-0.99675 0.79756-0.07424 0.58190  0 225.00 134.73  114.52 224.96 134.76  114.59
  -1  -2   7  2693.5   280.9   2-0.21244 0.08481 0.79555-0.99465 0.56743-0.05906  0 408.86 385.39  326.58 409.16 385.16  326.43
  -1   2  -7  3126.7   255.9   1-0.69292 0.56519-0.61527 0.81423-0.37589-0.13264  0 476.62 278.08   91.09 476.67 278.03   90.89
  -1   2  -7  3349.1   267.0   2 0.11192-0.23959-0.76343 0.96239-0.63612 0.12807  0 443.46 352.71  150.05 443.56 352.78  150.28
  -1   2  -7  2866.4   251.2   2-0.14667 0.01903 0.98270-0.78354 0.11311-0.62105  0 260.97 115.14  297.56 261.25 115.24  297.49
  -1   2   7  3285.1   161.9   1-0.14818 0.02034-0.79793 0.99688 0.58425-0.07630  0 217.35 141.04  158.91 217.35 141.25  158.89
  -1   2   7  3059.4   221.2   2-0.10128-0.02637-0.79673 0.99578 0.59579-0.08786  0 218.80 139.53   73.03 218.64 139.55   72.89
  -1   2   7  2851.8   276.5   2-0.10840-0.01924 0.98847-0.78931-0.10575 0.61370  0 401.09 389.98  284.89 401.16 389.98  284.67
   1  -2  -7  2877.7   196.6   1-0.64528 0.77315-0.74226 0.54321-0.18075-0.32736  0 395.36 393.17  104.58 395.68 393.06  104.54
   1  -2  -7  3169.1   280.4   2 0.00407 0.12360-0.99654 0.79735 0.08306-0.59073  0 387.52 396.69  105.45 387.64 396.49  105.47
   1  -2  -7  3257.0   220.5   2-0.00241 0.13005 0.78623-0.98539-0.61793 0.10999  0 209.26 147.92  251.99 209.24 147.97  252.17
   1  -2   7  2621.3   196.4   1-0.51797 0.64585-0.84867 0.64962 0.10703 0.40108  0 162.71 242.31  123.68 162.79 242.33  123.64
   1  -2   7  3075.0   200.9   2 0.03403 0.09364-0.99535 0.79616-0.09013 0.59779  0 180.30 184.96  115.40 180.31 184.99  115.52
   1  -2   7  2958.1   256.7   2-0.22163 0.34926 0.72722-0.92632 0.64964-0.14128  0 335.34 411.59  332.88 335.43 411.53  332.65
   1   2  -7  2667.2   239.3   1-0.69085 0.81859-0.36350 0.56246-0.62497 0.11644  0 456.23 335.82   70.47 456.52 335.76   70.51
   1   2  -7  2906.2   271.7   2 0.10726 0.02041-0.79682 0.99600-0.59463 0.08696  0 379.70 400.18  146.98 379.59 400.16  147.10
   1   2  -7  2848.7   207.1   2-0.13504 0.26268 0.98981-0.79065 0.04511-0.55305  0 203.70 153.54  293.58 203.70 153.46  293.49
   1   2   7  3312.8   200.6   1-0.09307 0.22092-0.76825 0.96720 0.63334-0.12540  0 177.35 191.52  163.45 177.44 191.64  163.45
   1   2   7  3345.5   211.6   2-0.11091 0.23856-0.76357 0.96263 0.63612-0.12819  0 176.50 192.19   70.02 176.46 192.33   69.87
   1   2   7  3274.7   268.4   2-0.11853 0.24617 0.99169-0.79253-0.04999 0.55794  0 325.84 412.25  288.02 325.77 412.05  287.93
  -1  -2  -8  6430.1   360.2   1-0.53900 0.41112-0.83956 0.64051 0.06794-0.64863  0 479.51 359.09  121.19 479.41 358.80  121.06
  -1  -2  -8  6190.7   351.5   2 0.01870-0.14637-0.99982 0.80064 0.00080-0.58099  0 473.93 364.81  110.19 474.12 364.70  110.25
  -1  -2  -8  6536.2   351.0   2-0.00450-0.12314 0.79281-0.99197-0.60945 0.02895  0 260.85  90.73  252.82 261.02  90.90  252.79
  -1  -2   8  6219.2   271.8   1-0.60245 0.47457-0.79536 0.59631-0.06676 0.64745  0 158.93 184.20  112.05 158.99 184.32  112.16
  -1  -2   8  6078.9   301.0   2 0.01897-0.14665-0.99982 0.80063-0.00074 0.58093  0 209.54 119.48  110.01 209.49 119.62  110.34
  -1  -2   8  5713.7   380.0   2-0.21217 0.08454 0.79720-0.99630 0.56521 0.01578  0 422.85 411.34  326.40 423.14 411.22  326.27
  -1   2  -8  5567.2   344.8   2 0.11089-0.23857-0.77106 0.97002-0.62704 0.04641  0 467.54 372.97  149.34 467.63 372.94  149.59
  -1   2  -8  5781.0   282.0   2-0.13257 0.00493 0.99070-0.79154 0.03059-0.61109  0 252.37  94.09  292.68 252.46  94.25  292.64
  -1   2   8  6230.0   229.2   1-0.15381 0.02597-0.80072 0.99966 0.57896 0.00155  0 201.04 127.14  158.36 201.11 127.41  158.42
  -1   2   8  5832.5   297.8   2-0.10015-0.02750-0.80051 0.99957 0.59089-0.01039  0 203.25 124.76   73.01 203.13 124.86   73.26
  -1   2   8  6152.1   382.4   2-0.12227-0.00537 0.99208-0.79292-0.02879 0.60930  0 414.32 415.94  289.02 414.39 415.85  289.17
   1  -2  -8  6047.9   275.0   1-0.66388 0.79175-0.70753 0.50848-0.24221-0.33849  0 417.94 414.09  100.23 418.24 413.89  100.37
   1  -2  -8  6412.1   381.8   2 0.01731 0.11037-0.99981 0.80063 0.00872-0.58891  0 407.05 419.04  110.01 407.19 418.80  109.79
   1  -2  -8  6226.0   300.4   2-0.00415 0.13179 0.79165-0.99081-0.61096 0.03045  0 198.68 128.99  252.64 198.69 129.08  252.68
   1  -2   8  5487.8   273.0   1-0.49178 0.61965-0.85717 0.65812 0.15302 0.42768  0 144.33 232.36  126.98 144.46 232.47  126.71
   1  -2   8  5811.7   279.7   2 0.02030 0.10738-0.99975 0.80056-0.00936 0.58955  0 164.28 172.67  110.94 164.26 172.65  110.85
   1  -2   8  5819.3   356.5   2-0.22061 0.34824 0.73648-0.93558 0.63947-0.05848  0 343.87 437.05  332.00 343.98 436.90  331.84
   1   2  -8  5456.3   325.8   1-0.69225 0.81999-0.37222 0.57118-0.61825 0.03707  0 483.24 353.55   71.08 483.48 353.49   71.14
   1   2  -8  6446.2   371.6   2 0.10667 0.02101-0.80055 0.99973-0.58970 0.00951  0 398.49 422.85  146.64 398.65 422.76  146.75
   1   2  -8  5336.1   280.9   2-0.12291 0.25055 0.99210-0.79294-0.02511-0.55540  0 192.85 134.76  289.43 192.87 134.72  289.38
   1   2   8  6210.3   270.4   1-0.10183 0.22967-0.77327 0.97221 0.62585-0.04534  0 160.88 179.72  163.18 161.08 179.91  162.73
   1   2   8  6240.5   282.4   2-0.10863 0.23628-0.77152 0.97058 0.62686-0.04636  0 160.35 180.05   70.53 160.26 180.17   70.57
   1   2   8  5988.3   343.3   2-0.13215 0.25979 0.99085-0.79169 0.02757 0.55294  0 334.03 437.71  292.57 333.76 437.39  292.46
  -1  -2  -9 30135.4   664.0   2 0.03094-0.15862-0.99699 0.79781-0.07104-0.58167  2 503.46 388.27  114.34 503.55 388.09  114.41
  -1  -2  -9 33899.0   635.7   2-0.00434-0.12330 0.79228-0.99144-0.61014-0.04293  0 251.60  66.55  252.71 251.54  66.77  252.74
  -1  -2   9 32395.8   603.0   1-0.56921 0.44134-0.82215 0.62310 0.00756 0.64573  0 140.70 171.25  116.99 140.82 171.39  117.06
  -1  -2   9 28937.2   614.7   2 0.00714-0.13481-0.99778 0.79860 0.06614 0.58657  0 192.41 102.68  106.35 192.42 102.86  106.46
  -1  -2   9 31948.7   706.2   2-0.21267 0.08504 0.79375-0.99285 0.56985 0.08376  0 439.16 441.60  327.14 439.48 441.51  326.62
  -1   2  -9 30564.9   662.5   2 0.11090-0.23857-0.77158 0.97077-0.62639-0.02632  0 496.26 396.69  149.24 496.40 396.77  149.42
  -1   2  -9 31818.7   619.7   2-0.11967-0.00797 0.99186-0.79270-0.04351-0.60956  0 242.61  70.48  288.30 242.69  70.60  288.31
  -1   2   9 33823.9   510.1   1-0.14911 0.02127-0.79840 0.99734 0.58337 0.06970  0 183.58 111.30  158.92 183.76 111.59  158.81
  -1   2   9 32395.0   648.3   2-0.10067-0.02698-0.79878 0.99784 0.59314 0.05992  0 186.08 108.35   73.00 185.98 108.58   73.09
  -1   2   9 31462.3   708.2   2-0.13438 0.00674 0.99007-0.79092 0.04118 0.61189  0 429.91 446.09  293.34 429.80 446.00  293.26
   1  -2  -9 31381.3   541.0   1-0.67802 0.80576-0.67209 0.47314-0.29761-0.35622  0 443.56 439.18   96.57 444.09 439.05   96.50
   1  -2  -9 32057.0   697.3   2 0.02890 0.09877-0.99784 0.79865-0.05908-0.59364  0 429.86 445.49  113.94 429.96 445.15  113.72
   1  -2  -9 33974.9   657.6   2-0.00403 0.13167 0.79126-0.99042-0.61146-0.04161  0 186.75 108.01  252.58 186.75 108.09  252.64
   1  -2   9 30390.1   610.5   1-0.46489 0.59277-0.86306 0.66400 0.19751 0.45577  0 124.68 221.64  129.78 124.51 221.73  129.71
   1  -2   9 30046.2   595.1   2 0.00767 0.12000-0.99797 0.79879 0.06319 0.58953  0 146.32 159.18  106.56 146.34 159.24  106.63
   1  -2   9 32323.4   675.0   2-0.22039 0.34802 0.73825-0.93735 0.63751 0.01611  0 353.39 466.53  331.83 353.51 466.37  331.69
   1   2  -9 32325.0   701.6   2 0.10695 0.02072-0.79876 0.99794-0.59207-0.06064  0 420.65 449.50  146.78 420.79 449.44  146.92
   1   2  -9 30659.7   626.5   2-0.11141 0.23905 0.98975-0.79059-0.08932-0.56375  0 180.51 114.04  285.68 180.61 113.98  285.63
   1   2   9 33144.1   597.3   1-0.10265 0.23049-0.77373 0.97267 0.62514 0.02793  0 142.89 166.63  162.73 143.04 166.78  162.66
   1   2   9 31686.7   607.6   2-0.10841 0.23606-0.77230 0.97136 0.62594 0.02712  0 142.19 166.87   70.60 142.15 167.03   70.64
  -1  -2 -10 967.424 202.481   2-0.00265-0.12499 0.78702-0.98618-0.61692-0.10872  0 240.95  38.90  252.05 240.97  39.13  252.24
  -1  -2  10  1143.5   183.5   1-0.53458 0.40670-0.84165 0.64260 0.07652 0.64936  0 120.74 156.58  121.63 120.58 156.67  121.61
  -1  -2  10 854.794 210.241   2-0.00423-0.12345-0.99176 0.79257 0.12808 0.59716  0 173.45  84.14  102.99 173.29  84.01  102.83
  -1  -2  10 983.364 356.732   2-0.21384 0.08621 0.78633-0.98543 0.57962 0.14662  0 459.04 477.85  327.43 458.99 477.53  327.33
  -1   2 -10  1279.0   210.0   2-0.10738-0.02026 0.98797-0.78881-0.11133-0.61431  0 231.63  43.19  284.43 231.77  43.48  284.34
  -1   2  10  1137.9   169.8   1-0.13715 0.00931-0.79237 0.99131 0.59443 0.13121  0 164.71  92.90  159.75 164.96  93.13  159.81
  -1   2  10  1082.7   226.5   2-0.10244-0.02521-0.79280 0.99186 0.60081 0.12482  0 166.66  90.08   72.46 166.71  90.29   72.52
  -1   2  10 925.635 345.131   2-0.14546 0.01782 0.98369-0.78453 0.10580 0.61983  0 448.20 481.84  297.01 448.19 481.88  297.06
   1  -2 -10  1016.7   249.9   1-0.68840 0.81614-0.63609 0.43714-0.34855-0.37793  0 473.95 470.06   92.57 474.02 469.98   92.88
   1  -2 -10 832.046 333.170   2 0.03928 0.08839-0.99176 0.79258-0.12191-0.60333  0 457.15 477.27  117.32 457.23 477.07  117.37
   1  -2 -10  1398.1   228.7   2-0.00248 0.13012 0.78644-0.98560-0.61766-0.10798  0 173.05  84.18  251.96 173.07  84.39  252.19
   1  -2  10 981.422 185.914   1-0.43705 0.56492-0.86659 0.66754 0.24085 0.48503  0 102.50 209.68  132.64 102.45 209.78  132.66
   1  -2  10 767.955 185.776   2-0.00452 0.13220-0.99155 0.79236 0.12968 0.59556  0 126.37 144.44  102.68 126.00 144.49  102.74
   1  -2  10  1126.0   317.9   2-0.22086 0.34849 0.73440-0.93350 0.64177 0.08446  2 364.20 501.07  331.95 364.33 501.28  332.02
   1   2 -10  1354.8   344.3   2 0.10780 0.01987-0.79274 0.99192-0.59996-0.12528  0 447.18 481.53  147.18 447.14 481.64  147.48
   1   2 -10 941.459 209.754   2-0.10036 0.22800 0.98373-0.78457-0.14903-0.57660  0 166.33  90.43  281.94 166.61  90.58  282.13
   1   2  10  1364.8   206.6   1-0.09726 0.22510-0.77067 0.96961 0.62977 0.09586  0 122.93 151.78  163.34 122.93 151.79  163.11
   1   2  10  1186.2   198.8   2-0.10975 0.23740-0.76776 0.96682 0.63127 0.09436  0 121.77 152.65   70.44 121.62 152.69   70.25
   1   2  10  1109.5   304.5   2-0.15505 0.28268 0.97458-0.77549 0.16169 0.56454  2 352.79 501.06  300.46 352.77 501.58  300.32
  -1  -2 -11  2409.9   304.3   2 0.00005-0.12769 0.77799-0.97715-0.62828-0.16992  2 229.10   7.16  251.33 228.98   6.76  251.40
  -1  -2  11  2936.0   319.0   1-0.49867 0.37079-0.85521 0.65616 0.14122 0.65724  0  97.69 139.41  125.78  97.68 139.48  125.92
  -1  -2  11  2216.2   299.7   2-0.01575-0.11191-0.98230 0.78325 0.18663 0.61156  0 151.28  62.38   99.22 151.25  62.52   99.34
  -1   2 -11  2463.4   300.6   2-0.09566-0.03198 0.98003-0.78087-0.17433-0.62387  0 219.31  12.10  280.60 219.27  11.72  280.64
  -1   2  11  2733.3   272.2   1-0.11974-0.00811-0.78318 0.98213 0.61015 0.18804  0 144.01  71.03  161.02 144.21  71.08  161.25
  -1   2  11  3200.2   379.4   2-0.10520-0.02245-0.78332 0.98238 0.61265 0.18554  0 144.47  69.23   71.49 144.64  69.38   71.64
   1  -2 -11  2075.7   284.6   2 0.00005 0.12759 0.77800-0.97716-0.62826-0.16994  0 157.24  57.36  251.30 157.12  57.08  251.41
   1  -2  11  2965.4   304.3   1-0.40820 0.53608-0.86782 0.66876 0.28331 0.51514  0  77.82 196.06  135.65  77.54 196.13  135.60
   1  -2  11  2735.8   330.3   2-0.01678 0.14443-0.98123 0.78218 0.19210 0.60609  0 102.86 128.09   99.04 102.48 128.11   99.02
   1   2 -11  2405.1   294.8   2-0.08971 0.21735 0.97457-0.77541-0.20533-0.59287  0 150.35  63.82  278.67 150.24  63.76  278.80
   1   2  11  2771.6   329.6   1-0.08693 0.21477-0.76460 0.96354 0.63862 0.15958  0 100.19 134.03  164.23 100.18 134.25  163.96
   1   2  11  2685.7   323.9   2-0.11221 0.23986-0.75900 0.95806 0.64135 0.15683  0  98.22 136.51   69.41  97.99 136.77   69.47
  -1  -2  12  4308.2   397.9   1-0.46175 0.33388-0.86358 0.66453 0.20252 0.66853  0  71.25 118.85  130.27  71.20 118.91  130.05
  -1  -2  12  4115.4   484.0   2-0.02620-0.10145-0.96995 0.77089 0.24191 0.62884  0 125.94  37.17   95.97 125.63  37.31   96.03
  -1   2  12  4068.8   350.5   1-0.09784-0.03000-0.77100 0.96994 0.62928 0.24148  0 120.77  43.93  163.01 120.78  44.10  163.06
  -1   2  12  4993.5   489.4   2-0.10883-0.01882-0.77078 0.96984 0.62773 0.24301  0 119.11  44.91   70.47 118.75  44.99   70.50
   1  -2 -12  4452.3   462.0   2 0.00335 0.12429 0.76643-0.96559-0.64232-0.22844  0 138.00  24.72  250.21 138.07  24.81  250.35
   1  -2  12  3721.5   374.3   1-0.37818 0.50606-0.86677 0.66772 0.32510 0.54595  0  49.06 180.25  138.54  48.83 180.20  138.56
   1  -2  12  4151.7   397.7   2-0.02795 0.15560-0.96775 0.76870 0.25035 0.62040  0  75.20 109.30   95.56  74.83 109.40   95.51
   1   2 -12  4119.6   440.1   2-0.07930 0.20694 0.96263-0.76347-0.25897-0.61179  0 130.43  32.11  275.59 130.65  32.10  275.59
   1   2  12  3764.1   392.4   1-0.07226 0.20011-0.75582 0.95476 0.65078 0.21998  0  74.02 113.16  164.96  73.94 113.25  165.17
   1   2  12  3477.0   390.3   2-0.11551 0.24316-0.74666 0.94571 0.65510 0.21564  0  69.69 118.36   67.98  70.17 118.74   68.39
  -1  -3   0  18.163  43.944   1-0.54465 0.41692 0.05656-0.35498-0.83676 0.83676  0 224.22 271.61   42.55 224.07 271.75   42.02
  -1  -3   0  32.696  57.916   2-0.22037 0.09274-0.08231-0.21619 0.97194-0.97194  0 377.09 298.29   24.30 376.99 298.16   24.72
  -1  -3   0  52.132  59.753   2 0.13061-0.25829-0.23241-0.06604-0.96381 0.96381  0 286.70 178.64  186.58 287.12 178.92  186.58
  -1   3   0  14.489  48.318   1-0.60930 0.48157-0.08424 0.38268-0.78845 0.78845  0 357.24 194.68   52.34 357.21 194.65   51.34
  -1   3   0  13.488  60.391   2-0.23114 0.10351 0.07771 0.22079 0.96981-0.96981  0 276.17 182.07   15.53 275.94 182.13   15.52
  -1   3   0  37.077  62.869   2 0.10000-0.22762 0.21931 0.07929-0.97052 0.97052  0 369.91 308.35  212.75 370.01 308.30  212.68
   1  -3   0  12.977  35.975   1-0.70255 0.83029-0.47726 0.17883-0.52787 0.52787  0 247.70 315.65   80.36 247.73 315.90   79.11
   1  -3   0 -29.424  57.941   2-0.20251 0.33014-0.26312-0.03538 0.94327-0.94327  0 322.89 337.44   34.98 322.59 337.27   35.27
   1  -3   0  18.015  47.254   2 0.12601 0.00166-0.12262-0.17582-0.98442 0.98442  0 235.43 214.10  192.43 235.52 214.02  192.98
   1   3   0  28.975  63.393   1-0.37036 0.49809 0.33506-0.03663-0.86635 0.86635  0 386.63 242.49   23.62 386.82 242.18   23.06
   1   3   0  39.787  46.648   2-0.23854 0.36617 0.27853 0.01997 0.93033-0.93033  0 229.99 223.72    3.59 230.03 223.67    3.74
   1   3   0   3.650  62.152   2 0.10899 0.01864 0.12999 0.16861-0.98551 0.98551  0 310.53 339.10  207.46 310.66 338.91  207.48
  -1  -3  -1  6166.1   184.8   1-0.45132 0.32360 0.21840-0.51682-0.86522 0.79257  0 224.10 280.45   31.01 224.06 280.37   31.19
  -1  -3  -1  5555.1   179.2   2-0.19479 0.06716-0.32707 0.02857 0.92471-0.99733  0 380.51 296.86   39.00 380.59 296.89   39.11
  -1  -3  -1  5298.3   175.3   2 0.11874-0.24636 0.00506-0.30366-0.99291 0.92038  0 289.18 176.25  199.97 289.23 176.31  200.29
  -1  -3   1  5642.0   177.4   1-0.61945 0.49171-0.10949-0.18894-0.77736 0.85001  0 221.13 263.24   53.02 221.07 263.20   53.02
  -1  -3   1  5157.6   175.6   2-0.23461 0.10698 0.14867-0.44717 0.96065-0.88803  0 376.68 303.40   11.41 376.65 303.41   11.41
  -1  -3   1  5325.6   178.7   2 0.13237-0.26004-0.45601 0.15757-0.88008 0.95265  0 282.26 177.82  173.01 282.40 177.88  172.84
  -1   3  -1  5300.6   167.7   1-0.67102 0.54328-0.26992 0.56835-0.69056 0.61791  0 370.13 203.37   63.99 370.07 203.45   63.88
  -1   3  -1  5134.7   182.6   2-0.23883 0.11120 0.30737-0.00887 0.92113-0.99376  0 277.72 179.20    2.00 277.84 179.25    2.01
  -1   3  -1  5450.3   184.2   2 0.11942-0.24705-0.00474 0.30334-0.99283 0.92030  0 373.77 307.55  199.78 373.74 307.45  199.72
  -1   3   1  6337.7   147.7   1-0.46519 0.33747 0.19641 0.10202-0.86315 0.93579  0 347.59 185.35   32.81 347.63 185.48   32.68
  -1   3   1  5496.8   190.8   2-0.21512 0.08749-0.14170 0.44021 0.96625-0.89362  0 271.42 181.53   27.87 271.60 181.59   28.14
  -1   3   1  5804.9   194.0   2 0.07199-0.19961 0.43426-0.13566-0.89790 0.97044  0 369.26 313.12  226.00 369.25 313.00  225.79
   1  -3  -1  2259.1    95.0   1-0.68207 0.80980-0.31690 0.01847-0.65906 0.58641  0 255.86 325.36   66.62 255.91 325.24   67.17
   1  -3  -1  5353.0   187.3   2-0.17378 0.30141-0.47020 0.17170 0.86528-0.93791  0 327.21 338.46   47.94 327.28 338.45   48.09
   1  -3  -1  5668.8   180.2   2 0.11125 0.01638 0.10229-0.40089-0.98851 0.91598  0 236.21 209.87  206.01 236.04 209.82  205.87
   1  -3   1  4323.6   143.3   1-0.69787 0.82560-0.58477 0.28634-0.41355 0.48620  0 237.16 306.92   87.99 237.10 306.88   88.11
   1  -3   1  4945.2   177.0   2-0.22339 0.35102-0.04397-0.25453 0.97374-0.90111  0 320.35 340.00   22.51 320.39 339.97   22.51
   1  -3   1  5408.3   173.0   2 0.13282-0.00515-0.35370 0.05526-0.92588 0.99846  0 232.66 215.11  179.06 232.50 215.06  179.28
   1   3  -1  5653.7   194.4   1-0.47570 0.60343 0.17936 0.11907-0.86112 0.78848  0 390.46 251.82   34.08 390.73 251.88   33.83
   1   3  -1  5328.3   181.0   2 0.12531 0.00236-0.10809 0.40653-0.98621 0.91363  0 315.49 340.79  194.08 315.47 340.61  193.81
   1   3  -1  5257.9   168.6   2-0.23662 0.36426 0.49059-0.19201 0.83865-0.91129  0 230.36 219.14  349.96 230.27 219.20  350.06
   1   3   1  6465.3   196.9   1-0.24022 0.36794 0.49191-0.19349-0.83685 0.90950  0 386.53 232.30   10.91 386.81 232.35   11.24
   1   3   1  5657.6   168.4   2-0.22939 0.35702 0.04691 0.25159 0.97220-0.89958  0 227.37 225.07   17.15 227.23 225.06   17.29
   1   3   1  5488.0   180.4   2 0.08078 0.04684 0.37517-0.07657-0.92343 0.99596  0 308.18 341.41  222.00 308.28 341.24  222.09
  -1  -3  -2 329.430  69.100   1-0.35190 0.22417 0.35947-0.65790-0.86426 0.71897  0 221.04 289.30   21.29 221.03 289.12   21.30
  -1  -3  -2 454.647  85.499   2-0.16049 0.03284-0.54365 0.24506 0.82383-0.96895  0 387.32 299.59   53.32 387.33 299.56   53.00
  -1  -3  -2 398.006  80.578   2 0.10024-0.22786 0.21708-0.51568-0.97099 0.82593  0 289.00 169.92  212.55 288.96 170.11  212.55
  -1  -3   2 379.136  74.122   1-0.66939 0.54165-0.26358-0.03486-0.69458 0.83988  0 215.11 254.68   63.28 215.35 254.65   63.44
  -1  -3   2 366.028  84.680   2 0.12461-0.25228-0.63568 0.33724-0.76183 0.90699  0 275.33 173.73  160.44 275.45 173.67  160.51
  -1   3  -2 419.178  82.311   1-0.69373 0.56599-0.38222 0.68065-0.61045 0.46515  0 385.18 212.28   72.14 385.41 212.20   71.88
  -1   3  -2 432.046  86.984   2 0.12976-0.25743-0.20456 0.50300-0.97022 0.82506  0 380.45 310.36  187.94 380.42 310.40  188.21
  -1   3  -2 384.497  86.088   2-0.23664 0.10901 0.51230-0.21365 0.82556-0.97081  0 277.21 173.06  349.02 277.30 173.14  348.73
  -1   3   2 464.271  59.225   1-0.20985 0.08212 0.52399-0.22557-0.82547 0.97076  0 342.84 175.59    8.65 342.82 175.63    8.63
  -1   3   2 410.110  89.404   2-0.19538 0.06775-0.32238 0.62088 0.92623-0.78097  0 264.97 178.16   38.70 265.03 178.00   38.83
  -1   3   2 399.929  91.751   2 0.04026-0.16789 0.61254-0.31394-0.78941 0.93448  0 371.33 321.56  238.02 371.17 321.30  237.91
   1  -3  -2 426.339  57.843   1-0.61229 0.74003-0.09167-0.20676-0.78530 0.64000  0 259.97 335.00   51.77 260.09 334.98   51.83
   1  -3  -2 526.928  93.578   2-0.14139 0.26904-0.63956 0.34098 0.75563-0.90075  0 334.24 343.24   59.71 334.32 343.29   59.85
   1  -3  -2 476.620  78.923   2 0.09185 0.03578 0.29021-0.58881-0.95254 0.80748  0 234.32 202.55  217.01 234.32 202.68  216.89
   1  -3   2 293.753  67.608   1-0.68233 0.81007-0.65853 0.36010-0.31744 0.46274  0 224.94 298.09   95.35 224.97 298.14   95.10
   1  -3   2 491.540  90.719   2-0.23485 0.36248 0.15468-0.45318 0.95964-0.81439  0 320.61 346.62   11.33 320.63 346.56   11.06
   1  -3   2 453.596  77.345   2 0.12926-0.00159-0.55592 0.25748-0.82113 0.96628  0 227.22 213.00  166.03 227.06 213.06  166.19
   1   3  -2 468.620  93.348   1-0.55167 0.67940 0.04247 0.25595-0.83298 0.68769  0 398.30 261.71   42.60 398.30 261.71   42.95
   1   3  -2 429.817  86.894   2 0.13216-0.00449-0.30365 0.60209-0.94357 0.79842  0 322.88 346.21  182.17 322.71 346.06  182.33
   1   3  -2 478.531  76.856   2-0.22848 0.35611 0.65836-0.35972 0.71719-0.86243  0 227.99 211.49  338.33 228.04 211.64  338.21
   1   3   2 474.914  73.153   2-0.21284 0.34047-0.16570 0.46420 0.96293-0.81768  0 221.79 223.25   29.53 221.85 223.25   29.54
   1   3   2 513.787  85.288   2 0.04574 0.08188 0.58549-0.28689-0.80939 0.95446  0 308.22 347.83  235.68 308.28 347.66  235.95
  -1  -3  -3 395.797  78.348   1-0.25945 0.13173 0.47075-0.76917-0.84326 0.62532  0 215.15 298.03   13.17 215.23 298.11   12.92
  -1  -3  -3 327.623  92.051   1-0.03827-0.08957-0.73413 0.43572 0.67792-0.89561  0 398.52 304.08  167.65 398.45 304.03  167.95
  -1  -3  -3 269.981  88.333   2-0.12535-0.00231-0.70860 0.41001 0.69439-0.91208  0 397.13 305.71   65.22 397.18 305.71   65.21
  -1  -3  -3 222.303  84.772   2 0.07993-0.20756 0.38117-0.67977-0.92104 0.70344  0 286.60 160.60  222.09 286.60 160.69  222.46
  -1  -3   3 289.597  75.030   1-0.69565 0.56792-0.39607 0.09764-0.59933 0.81728  0 207.48 246.04   73.07 207.31 246.02   72.90
  -1  -3   3 213.446  89.795   2 0.11161-0.23928-0.76578 0.46734-0.63335 0.85108  0 266.48 166.83  150.05 266.70 166.92  150.07
  -1  -3   3 180.275  89.602   2-0.23736 0.10973 0.46704-0.76563 0.85178-0.63386  0 384.30 324.33  351.62 384.17 324.28  351.64
  -1   3  -3 240.203  84.938   1-0.70101 0.57327-0.44871 0.74715-0.55429 0.33635  0 402.69 220.87   77.10 402.89 221.01   76.88
  -1   3  -3 365.473  91.238   2 0.13286-0.26053-0.36072 0.65917-0.92316 0.70542  0 389.66 316.65  178.56 390.02 316.71  178.85
  -1   3  -3 306.597  92.496   2-0.22724 0.09961 0.67267-0.37403 0.70418-0.92205  0 274.77 164.01  337.41 274.78 163.93  337.10
  -1   3   3 264.391  86.885   2-0.17623 0.04860-0.45604 0.75454 0.87234-0.65446  0 256.65 171.91   47.41 256.62 171.90   47.17
  -1   3   3 236.288  92.647   2 0.00907-0.13670 0.74545-0.44685-0.66650 0.88410  0 375.24 332.81  248.35 375.36 332.77  248.46
   1  -3  -3 348.991  58.243   1-0.48549 0.61322 0.16331-0.46173-0.85885 0.64091  0 259.01 345.06   34.98 258.98 345.05   34.92
   1  -3  -3 230.409  54.558   1-0.07982 0.20767-0.76038 0.46197 0.64455-0.86224  0 344.53 351.03  164.64 344.39 351.04  164.55
   1  -3  -3 296.749  95.016   2-0.11041 0.23806-0.76538 0.46680 0.63403-0.85172  0 343.55 351.31   69.96 343.48 351.28   70.03
   1  -3  -3 272.941  73.375   2 0.07253 0.05509 0.43070-0.72930-0.89958 0.68198  0 230.68 193.13  225.74 230.71 193.05  225.57
   1  -3   3 232.143  68.591   1-0.66203 0.78991-0.71147 0.41290-0.23563 0.45339  0 211.66 289.48  101.12 211.86 289.65  100.82
   1  -3   3 331.978  91.924   2-0.23889 0.36652 0.31281-0.61131 0.91928-0.70140  0 322.83 356.55    1.72 322.88 356.62    1.68
   1  -3   3 222.164  71.537   2 0.11814 0.00954-0.71109 0.41265-0.69310 0.91084  0 219.36 208.33  154.70 219.48 208.48  154.67
   1   3  -3 211.536  88.383   1-0.60227 0.73000-0.06701 0.36544-0.79548 0.57753  0 408.99 272.11   50.29 409.29 271.99   50.20
   1   3  -3 263.973  92.541   2 0.13253-0.00485-0.44639 0.74483-0.88497 0.66723  0 332.02 354.84  173.52 332.02 354.71  173.46
   1   3  -3 309.174  75.256   2-0.21506 0.34269 0.77832-0.47967 0.58989-0.80776  0 224.23 201.64  328.42 223.97 201.72  328.08
   1   3   3 245.455  68.196   2-0.19367 0.32130-0.33437 0.63287 0.92233-0.70445  0 214.21 219.07   39.65 214.21 218.78   39.56
   1   3   3 238.389  80.314   2 0.01029 0.11733 0.74087-0.44227-0.67157 0.88918  0 310.45 357.82  248.31 310.30 357.73  248.06
  -1  -3  -4 89823.5   733.1   1-0.18210 0.05438 0.55216-0.85058-0.81361 0.52302  0 207.06 307.55    5.86 207.06 307.48    6.26
  -1  -3  -4 75801.8   673.8   1-0.16160 0.03376-0.80447 0.50606 0.57159-0.86184  0 409.47 315.87  157.99 409.66 315.79  157.77
  -1  -3  -4 73134.0   665.8   2-0.09327-0.03438-0.82278 0.52420 0.56065-0.85090  0 409.49 314.81   75.31 409.82 314.81   75.44
  -1  -3  -4 83268.9   713.4   2 0.06191-0.18953 0.49701-0.79561-0.86553 0.57540  0 282.57 148.52  230.00 282.62 148.62  229.87
  -1  -3   4 67611.0   671.9   1-0.70308 0.57534-0.50480 0.20636-0.50086 0.79145  0 197.34 237.16   80.93 197.28 237.16   81.32
  -1  -3   4 63091.4   659.7   2 0.09677-0.22444-0.85445 0.55567-0.51044 0.80054  0 256.43 158.15  141.00 256.51 158.14  141.25
  -1  -3   4 76228.3   712.8   2-0.23493 0.10730 0.55722-0.85587 0.79644-0.50594  0 390.64 339.00  345.95 391.09 338.91  345.65
  -1   3  -4 76289.1   716.6   1-0.70291 0.57518-0.48732 0.78575-0.51810 0.22751  0 422.29 230.12   80.03 422.54 230.18   79.91
  -1   3  -4 76795.6   700.0   2 0.13204-0.25971-0.47311 0.77155-0.87105 0.58074  0 402.01 325.97  172.02 402.24 325.92  171.73
  -1   3  -4 71930.6   683.3   2-0.21356 0.08593 0.78813-0.48948 0.57728-0.86777  0 270.58 152.06  327.11 270.64 152.21  327.16
  -1   3   4 77145.4   721.0   2-0.15961 0.03196-0.54847 0.84705 0.82080-0.53055  0 246.83 163.75   53.16 246.68 163.84   53.33
  -1   3   4 75023.9   714.8   2-0.01948-0.10816 0.83846-0.53973-0.54461 0.83486  0 381.48 347.13  257.20 381.34 347.01  257.40
   1  -3  -4 94201.2   523.9   1-0.33831 0.46603 0.37683-0.67525-0.86229 0.57171  0 252.93 355.72   20.01 252.82 355.53   20.04
   1  -3  -4 76093.9   472.2   1-0.30434 0.43221-0.85552 0.55695 0.41888-0.70923  0 351.60 363.59  145.42 351.48 363.45  145.42
   1  -3  -4 70449.1   692.0   2-0.08282 0.21047-0.85337 0.55479 0.51468-0.80493  0 354.59 362.16   78.58 354.61 362.09   78.62
   1  -3  -4 80882.2   736.8   2 0.05626 0.07136 0.52917-0.82777-0.84665 0.55652  0 225.74 181.40  231.96 225.56 181.43  232.04
   1  -3   4 59778.1   630.4   1-0.63960 0.76747-0.75106 0.45248-0.16379 0.45414  0 197.77 281.13  105.67 197.80 281.16  105.69
   1  -3   4 71536.9   672.1   2 0.10342 0.02425-0.81995 0.52117-0.56301 0.85311  0 210.18 201.91  144.81 210.07 201.83  144.85
   1  -3   4 68563.2   663.2   2-0.23813 0.36577 0.42846-0.72704 0.87162-0.58106  0 326.81 369.99  354.05 326.94 369.88  354.14
   1   3  -4 72141.6   693.4   1-0.63413 0.76187-0.14929 0.44772-0.75868 0.46809  0 423.15 282.85   55.66 423.45 282.84   55.67
   1   3  -4 72424.3   695.1   2 0.12976-0.00209-0.54412 0.84256-0.82891 0.53860  0 343.14 366.19  167.00 343.05 366.05  167.00
   1   3  -4 67440.3   667.5   2-0.20018 0.32781 0.86000-0.56136 0.46939-0.75988  0 218.47 189.79  319.98 218.36 189.88  319.61
   1   3   4 79838.0   689.8   2-0.17627 0.30390-0.45582 0.75432 0.87244-0.58193  0 204.75 212.24   46.88 204.65 212.24   47.16
   1   3   4 76132.9   678.5   2-0.02192 0.14956 0.84545-0.54671-0.53360 0.82385  0 313.82 371.13  257.88 313.83 370.90  258.16
  -1  -3  -5  5502.0   212.8   1-0.12154-0.00619 0.60871-0.90713-0.78403 0.42080  0 196.81 317.46    0.85 196.81 317.39    1.20
  -1  -3  -5  4658.9   226.7   1-0.26666 0.13879-0.84547 0.54689 0.46269-0.82562  0 423.99 328.89  149.18 424.12 328.75  148.78
  -1  -3  -5  4708.0   239.0   2-0.06554-0.06212-0.89790 0.59932 0.43529-0.79810  0 424.96 326.57   84.03 425.16 326.51   83.93
  -1  -3  -5  4610.4   233.2   2 0.04781-0.17543 0.57487-0.87347-0.81685 0.45418  0 277.29 134.13  235.22 277.34 134.26  235.20
  -1  -3   5  4213.2   204.2   1-0.69689 0.56915-0.59202 0.29359-0.40479 0.76803  0 185.57 227.94   88.95 185.58 227.96   88.76
  -1  -3   5  4474.4   219.4   2 0.08139-0.20907-0.91397 0.61519-0.39754 0.76015  0 245.20 147.78  134.00 245.08 147.78  133.94
  -1  -3   5  4507.1   252.1   2-0.23159 0.10396 0.61655-0.91520 0.75248-0.38937  0 399.31 356.19  341.49 399.68 356.12  341.37
  -1   3  -5  4164.8   237.2   1-0.70302 0.57529-0.50847 0.80691-0.49720 0.13396  0 444.46 239.84   81.63 444.70 239.86   81.61
  -1   3  -5  4544.9   239.9   2 0.12950-0.25717-0.55038 0.84882-0.82481 0.46192  0 416.81 337.75  166.56 416.99 337.74  166.58
  -1   3  -5  4447.5   239.7   2-0.19843 0.07080 0.86740-0.56875 0.45634-0.81946  0 265.11 138.13  319.03 265.22 138.25  318.74
  -1   3   5  4700.5   219.9   2-0.14747 0.01982-0.61106 0.90964 0.77773-0.41492  0 235.54 153.97   57.70 235.42 154.07   57.74
  -1   3   5  4847.4   257.1   2-0.04430-0.08334 0.90132-0.60259-0.43087 0.79369  0 388.99 364.01  265.02 389.08 363.84  264.96
   1  -3  -5  5767.6   158.5   1-0.21599 0.34371 0.51764-0.81606-0.82789 0.46466  0 243.21 366.93    9.10 243.14 366.73    9.15
   1  -3  -5  4817.7   162.4   1-0.44503 0.57291-0.86583 0.56725 0.22868-0.59162  0 363.24 377.73  131.91 363.09 377.56  131.82
   1  -3  -5  4544.9   253.0   2-0.05893 0.18658-0.91292 0.61434 0.40386-0.76667  0 367.52 375.54   85.99 367.60 375.51   85.96
   1  -3  -5  5214.9   227.1   2 0.04365 0.08397 0.59583-0.89443-0.80192 0.43925  0 219.21 168.01  237.08 219.05 168.07  236.70
   1  -3   5  3916.7   192.2   1-0.61568 0.74355-0.78171 0.48313-0.09935 0.46229  0 182.76 272.57  110.00 182.82 272.61  110.00
   1  -3   5  4096.5   199.9   2 0.08731 0.04037-0.89365 0.59487-0.44019 0.80281  0 199.12 193.68  136.47 199.05 193.62  136.63
   1  -3   5  4621.7   246.3   2-0.23678 0.36441 0.50824-0.80689 0.82803-0.46491  0 332.02 386.00  349.18 332.20 385.92  349.00
   1   3  -5  4010.5   229.5   1-0.65373 0.78147-0.20811 0.50654-0.72754 0.36430  0 440.51 294.75   59.62 440.70 294.74   59.64
   1   3  -5  4304.6   246.4   2 0.12634 0.00133-0.60902 0.90746-0.78303 0.42013  0 355.93 380.07  162.27 355.82 379.96  162.46
   1   3  -5  4288.9   208.3   2-0.18527 0.31290 0.91434-0.61569 0.36008-0.72320  0 211.51 176.34  312.72 211.43 176.41  312.48
   1   3   5  4661.0   206.5   2-0.16138 0.28903-0.53874 0.83732 0.82687-0.46406  0 193.59 204.14   52.73 193.44 204.20   52.67
   1   3   5  4178.1   223.9   2-0.04937 0.17701 0.91216-0.61343-0.40684 0.76966  0 318.66 387.23  266.46 318.61 386.99  266.49
  -1  -3  -6 11676.3   349.1   1-0.35381 0.22593-0.86429 0.56571 0.35753-0.79305  0 441.84 343.54  141.08 441.95 343.42  140.88
  -1  -3  -6 12195.2   364.7   2-0.04221-0.08544-0.94573 0.64715 0.32219-0.75756  0 443.11 340.79   90.99 443.34 340.71   91.11
  -1  -3  -6 12463.8   361.0   2 0.03751-0.16513 0.62577-0.92437-0.77910 0.34390  0 270.94 117.57  239.15 271.04 117.72  238.89
  -1  -3   6 11089.2   323.7   1-0.68151 0.55378-0.66121 0.36278-0.31359 0.74948  0 172.38 218.20   95.28 172.31 218.23   95.37
  -1  -3   6 10429.6   325.0   2 0.06671-0.19438-0.95290 0.65412-0.29584 0.73098  0 232.50 135.91  127.54 232.46 135.96  127.68
  -1  -3   6 11172.3   373.0   2-0.22879 0.10116 0.65459-0.95324 0.72053-0.28479  0 409.53 376.04  338.69 409.93 375.94  338.50
  -1   3  -6 11063.3   363.8   1-0.70289 0.57515-0.51799 0.81642-0.48748 0.05160  0 469.60 250.38   82.29 469.86 250.37   82.39
  -1   3  -6 11275.2   365.4   2 0.12676-0.25444-0.60195 0.90039-0.78841 0.35294  0 434.35 352.18  162.99 434.50 352.15  162.97
  -1   3  -6 10524.2   348.5   2-0.18327 0.05564 0.92033-0.62168 0.34555-0.78129  0 258.62 122.04  311.74 258.68 122.19  311.55
  -1   3   6 12183.2   351.0   2-0.13869 0.01103-0.65210 0.95068 0.74534-0.30997  0 223.03 142.72   60.98 222.89 142.84   60.79
  -1   3   6 11086.9   373.6   2-0.06581-0.06183 0.94266-0.64392-0.32721 0.76259  0 398.34 383.51  271.41 398.45 383.40  271.45
   1  -3  -6 11340.0   252.0   1-0.53095 0.65882-0.84330 0.54472 0.08336-0.51888  0 378.16 394.01  122.05 378.04 393.81  122.07
   1  -3  -6 11156.1   373.0   2-0.03827 0.16593-0.95221 0.65363 0.30303-0.73840  0 382.48 391.69   92.32 382.53 391.58   92.29
   1  -3  -6 12049.8   346.8   2 0.03446 0.09317 0.63989-0.93849-0.76769 0.33249  0 211.43 152.96  240.00 211.31 153.05  239.94
   1  -3   6  9780.9   311.0   1-0.59084 0.71872-0.80579 0.50722-0.04006 0.47558  0 166.82 263.79  114.08 166.87 263.87  113.93
   1  -3   6 10745.6   318.9   2 0.07148 0.05619-0.94172 0.64294-0.32871 0.76385  0 186.53 184.18  129.51 186.49 184.13  129.67
   1  -3   6 10878.9   355.9   2-0.23469 0.36232 0.56223-0.86087 0.79298-0.35724  0 338.32 404.90  345.32 338.48 404.81  345.30
   1   3  -6 10977.2   349.9   1-0.66536 0.79310-0.24851 0.54694-0.70395 0.26806  0 461.09 308.04   62.31 461.31 307.97   62.40
   1   3  -6 11491.1   366.0   2 0.12344 0.00423-0.65119 0.94963-0.74881 0.31333  0 370.56 396.64  159.14 370.38 396.51  159.35
   1   3  -6 10159.9   321.9   2-0.17078 0.29841 0.94982-0.65117 0.26206-0.69780  0 203.35 161.34  306.57 203.26 161.40  306.38
   1   3   6 11378.6   319.7   2-0.15103 0.27868-0.59380 0.89239 0.79031-0.35494  0 180.79 194.79   56.51 180.69 194.85   56.50
   1   3   6 10548.2   336.3   2-0.07236 0.20000 0.95310-0.65436-0.29387 0.72925  0 324.54 406.16  273.49 324.36 405.88  273.48
  -1  -3  -7  2031.9   225.9   1-0.42504 0.29716-0.86739 0.56881 0.25880-0.76691  0 463.29 360.40  133.84 463.35 360.33  133.90
  -1  -3  -7  1979.5   223.2   2-0.02217-0.10548-0.97503 0.67644 0.22097-0.72890  0 464.56 357.51   97.31 464.86 357.61   97.29
  -1  -3  -7  1616.5   206.1   2 0.03047-0.15810 0.65804-0.95664-0.75237 0.24463  0 263.76  98.80  241.04 263.80  98.95  241.32
  -1  -3   7  1698.6   185.1   1-0.66005 0.53218-0.71555 0.41697-0.22872 0.73683  0 157.59 207.80  101.15 157.60 207.88  101.29
  -1  -3   7  1660.8   189.0   2 0.05256-0.18023-0.97750 0.67872-0.20427 0.71194  0 218.43 122.55  122.36 218.55 122.64  122.21
  -1  -3   7  1995.6   240.0   2-0.22676 0.09913 0.67794-0.97659 0.69926-0.19090  0 421.82 398.83  336.81 422.04 398.80  336.69
  -1   3  -7  1548.7   221.6   1-0.70286 0.57512-0.51933 0.81776-0.48610-0.02244  0 498.46 261.92   82.52 498.83 262.10   82.50
  -1   3  -7  1866.9   224.5   2 0.12464-0.25231-0.63523 0.93368-0.76220 0.25414  0 455.07 369.35  160.43 455.16 369.33  160.54
  -1   3  -7  1778.2   198.5   2-0.16827 0.04064 0.95476-0.65611 0.24520-0.75357  0 251.32 103.67  305.46 251.18 103.93  305.34
  -1   3   7  1552.0   189.0   2-0.13273 0.00508-0.67801 0.97659 0.72297-0.21504  0 209.16 130.00   62.99 209.00 130.14   62.78
  -1   3   7  1799.1   231.4   2-0.08435-0.04329 0.96878-0.67005-0.23311 0.74106  0 409.61 406.10  276.94 409.58 406.02  277.14
   1  -3  -7  1520.8   187.2   1-0.58623 0.71411-0.80960 0.51102-0.02967-0.47844  0 395.67 412.96  114.61 395.85 412.76  114.61
   1  -3  -7  1710.8   221.1   2-0.02046 0.14811-0.97716 0.67858 0.21151-0.71944  0 399.75 410.89   97.71 399.76 410.68   97.86
   1  -3  -7  1622.6   180.1   2 0.02811 0.09951 0.66809-0.96669-0.74355 0.23581  0 202.39 136.31  242.03 202.34 136.28  242.10
   1  -3   7  1640.9   181.3   1-0.56538 0.69326-0.82468 0.52610 0.01556 0.49255  0 149.70 254.74  117.54 149.75 254.75  117.59
   1  -3   7  1652.5   190.1   2 0.05632 0.07135-0.97194 0.67316-0.22838 0.73605  0 172.38 173.41  123.47 172.35 173.45  123.63
   1  -3   7  2000.7   226.9   2-0.23281 0.36044 0.59746-0.89611 0.76736-0.25900  0 345.67 427.02  342.80 345.82 426.83  342.77
   1   3  -7  2220.5   264.6   1-0.67214 0.79987-0.27436 0.57280-0.68772 0.17918  0 485.69 323.06   64.35 485.73 323.08   64.18
   1   3  -7  2105.6   244.0   2 0.12135 0.00633-0.67765 0.97610-0.72530 0.21725  0 386.90 416.19  157.34 387.05 416.01  157.33
   1   3  -7  1748.7   201.3   2-0.15701 0.28464 0.97219-0.67354 0.17378-0.68215  0 193.93 144.75  301.40 193.88 144.76  301.03
   1   3   7  2027.0   201.8   2-0.14358 0.27123-0.62930 0.92789 0.76378-0.25585  0 166.40 184.33   59.29 166.35 184.41   59.08
   1   3   7  1586.0   208.6   2-0.09194 0.21958 0.97678-0.67804-0.19351 0.70146  0 331.24 428.15  279.57 331.03 427.87  279.50
  -1  -3  -8  66.111 189.681   1-0.48350 0.35562-0.85925 0.56067 0.16709-0.74778  0 489.09 380.38  127.41 488.98 380.29  127.65
  -1  -3  -8  75.848 193.005   2-0.00468-0.12299-0.99144 0.69265 0.13052-0.71071  0 490.39 377.39  102.56 490.14 377.42  102.69
  -1  -3  -8 -18.977 141.508   2 0.02600-0.15362 0.67730-0.97590-0.73525 0.15498  0 255.61  78.05  242.90 255.64  77.61  242.82
  -1  -3   8  -2.400 107.140   1-0.63424 0.50637-0.75872 0.46014-0.14859 0.72929  0 141.18 196.48  106.39 141.07 196.49  106.71
  -1  -3   8   8.400 123.363   2 0.03915-0.16682-0.99187 0.69309-0.12110 0.70128  0 203.26 107.85  117.55 203.20 107.71  117.33
  -1  -3   8 160.584 223.171   2-0.22554 0.09791 0.69090-0.98955 0.68687-0.10588  0 436.61 425.29  335.59 436.36 425.35  335.65
  -1   3  -8 188.377 198.747   2 0.12310-0.25077-0.65554 0.95398-0.74506 0.16443  0 479.73 389.69  159.52 479.72 389.78  159.02
  -1   3  -8 -40.405 119.962   2-0.15384 0.02621 0.97599-0.67734 0.15421-0.73520  0 242.60  83.16  299.55 242.65  83.16  299.88
  -1   3   8 -59.393 128.999   2-0.12906 0.00141-0.69310 0.99168 0.70920-0.12870  0 193.97 116.28   64.28 193.58 115.85   63.97
  -1   3   8 185.545 224.596   2-0.10068-0.02697 0.98395-0.68521-0.14734 0.72784  0 422.63 432.14  282.52 422.71 432.38  282.23
   1  -3  -8   5.759 139.009   1-0.62457 0.75244-0.77137 0.47279-0.12211-0.45859  0 416.40 435.31  108.48 416.51 435.32  108.48
   1  -3  -8 191.027 203.381   2-0.00434 0.13201-0.99168 0.69290 0.12866-0.70885  0 419.85 433.60  102.54 419.70 433.14  102.80
   1  -3  -8  81.110 128.203   2 0.02421 0.10342 0.68498-0.98358-0.72816 0.14789  0 191.72 117.49  243.50 192.01 117.53  243.43
   1  -3   8 -54.685  97.009   1-0.53889 0.66676-0.83962 0.54104 0.06815 0.51254  0 130.95 245.07  122.10 131.15 245.11  121.07
   1  -3   8 200.271 126.988   2 0.04190 0.08577-0.98958 0.69080-0.13775 0.71794  0 156.40 161.74  118.00 156.42 161.54  118.30
   1  -3   8  45.016 195.681   2-0.23141 0.35904 0.61918-0.91782 0.75038-0.16939  0 354.41 452.41  340.98 354.24 452.57  341.18
   1   3  -8 141.528 202.292   2 0.11992 0.00775-0.69301 0.99145-0.71089 0.13025  0 406.24 439.03  156.40 406.28 439.08  156.13
   1   3  -8 155.531 128.764   2-0.14341 0.27105 0.98516-0.68642 0.09429-0.67480  0 183.28 126.18  296.43 183.25 126.16  296.37
   1   3   8  72.742 111.313   1 0.02961 0.09823-0.68589 0.98431 0.72710-0.14659  0 155.36 164.49  174.21 155.46 164.48  173.49
   1   3   8  93.309 120.571   2-0.13896 0.26661-0.65083 0.94942 0.74639-0.16590  0 150.45 172.77   60.54 150.21 172.88   60.69
   1   3   8 -71.117 193.685   2-0.10877 0.23641 0.98864-0.68991-0.10370 0.68421  0 338.52 453.57  284.57 338.61 453.50  284.79
  -1  -3  -9 276.635 162.126   2 0.02371-0.15133 0.68716-0.98576-0.72612 0.07331  0 246.15  53.13  243.69 246.45  53.17  243.60
  -1  -3   9 250.000 143.526   1-0.60520 0.47732-0.79269 0.49411-0.07337 0.72665  0 122.74 183.96  111.55 122.58 183.80  111.72
  -1  -3   9 334.785 170.026   2 0.02644-0.15411-0.99865 0.69987-0.04474 0.69745  0 186.00  90.88  113.01 186.04  90.87  112.88
  -1  -3   9 296.883 300.024   2-0.22501 0.09738 0.69620-0.99485 0.68167-0.02805  0 452.96 456.35  335.00 453.42 456.67  335.22
  -1   3  -9 263.716 161.475   2-0.13964 0.01200 0.98760-0.68886 0.07172-0.72479  0 233.24  59.44  295.55 233.19  59.33  295.05
  -1   3   9 266.505 166.561   2-0.12737-0.00028-0.70019 0.99878 0.70250-0.04944  0 176.28  99.57   64.53 176.28  99.74   64.53
  -1   3   9  75.336 283.306   2-0.11515-0.01249 0.99098-0.69225-0.06848 0.72155  0 438.46 463.58  286.98 438.35 463.51  286.85
   1  -3  -9 261.977 188.270   1-0.65167 0.77955-0.73148 0.43291-0.20063-0.45265  0 440.72 462.25  103.52 440.61 462.62  103.20
   1  -3  -9  29.638 267.537   2 0.00972 0.11795-0.99861 0.69983 0.05179-0.70450  0 443.27 460.39  107.64 443.45 460.34  107.30
   1  -3  -9 231.074 159.600   2 0.02219 0.10544 0.69355-0.99215-0.72007 0.06726  0 180.06  96.33  244.32 180.13  96.37  244.11
   1  -3   9 206.770 137.213   1-0.51155 0.63943-0.85104 0.55246 0.11856 0.53472  0 110.73 234.25  124.37 110.72 234.65  124.41
   1  -3   9 104.289 136.761   2 0.02823 0.09944-0.99808 0.69930-0.05517 0.70788  0 137.98 148.20  113.51 138.38 148.32  113.49
   1  -3   9 620.206 256.475   2-0.23058 0.35821 0.63091-0.92956 0.74080-0.08718  0 363.98 483.10  340.45 363.89 482.93  340.31
   1   3  -9 397.357 282.426   2 0.11922 0.00845-0.70024 0.99868-0.70388 0.05067  0 429.24 467.05  155.48 428.97 466.78  155.55
   1   3  -9 511.082 171.852   2-0.13093 0.25857 0.99118-0.69244 0.02048-0.67355  0 170.92 105.14  292.04 170.87 105.37  292.05
   1   3   9 409.350 139.051   1 0.01962 0.10822-0.69344 0.99185 0.72025-0.06718  0 138.08 150.29  173.22 138.10 150.21  172.67
   1   3   9  71.609 142.414   2-0.13627 0.26392-0.66232 0.96091 0.73672-0.08366  0 131.89 160.30   61.41 131.92 160.15   61.57
   1   3   9 219.069 246.029   2-0.12350 0.25114 0.99209-0.69336-0.02235 0.67542  0 347.31 483.73  289.53 347.15 483.60  289.56
  -1  -3 -10  3706.1   355.6   2 0.02304-0.15066 0.68998-0.98858-0.72346-0.00188  0 236.04  24.69  243.78 235.99  24.78  243.83
  -1  -3  10  3693.7   298.9   1-0.57389 0.44601-0.81893 0.52035-0.00235 0.72822  0 101.75 169.17  116.39 101.71 169.38  116.41
  -1  -3  10  3337.8   347.0   2 0.01426-0.14193-0.99956 0.70078 0.02612 0.69912  0 166.70  71.80  108.63 166.62  71.61  108.79
  -1  -3  10  3860.6   466.6   2-0.22507 0.09744 0.69562-0.99427 0.68224 0.04399  0 473.89 494.27  335.43 474.14 494.46  335.27
  -1   3 -10  3367.1   322.0   2-0.12654-0.00110 0.99195-0.69321-0.00490-0.72073  0 222.07  31.57  290.59 222.10  31.71  290.57
  -1   3  10  3544.5   249.9   1 0.02432-0.15216-0.68994 0.98835 0.72346 0.00217  0 167.76  70.99  173.17 167.99  71.30  173.06
  -1   3  10  3527.7   354.4   2-0.12715-0.00050-0.70113 0.99971 0.70161 0.02401  0 156.72  81.41   64.59 156.60  81.38   64.61
  -1   3  10  3633.2   444.8   2-0.12821 0.00057 0.99174-0.69300 0.00470 0.72094  2 457.21 501.08  290.97 457.23 501.07  291.13
   1  -3 -10  2808.1   295.6   1-0.67143 0.79917-0.68998 0.39154-0.27039-0.45609  0 469.15 496.48   98.57 469.09 496.67   98.40
   1  -3 -10  3171.5   426.5   2 0.02210 0.10557-0.99956 0.70078-0.01971-0.70552  0 472.16 494.02  111.38 472.29 493.84  111.45
   1  -3 -10  3523.3   349.3   2 0.02166 0.10596 0.69574-0.99434-0.71796-0.00737  0 166.24  71.89  243.97 166.28  72.16  244.29
   1  -3  10  3039.8   289.5   1-0.48337 0.61124-0.85928 0.56070 0.16731 0.55856  0  88.01 223.01  127.80  87.89 223.05  127.67
   1  -3  10  3886.4   336.2   2 0.01519 0.11249-0.99967 0.70089 0.02089 0.70435  0 117.97 133.49  108.81 117.70 133.50  109.10
   1   3 -10  3318.5   437.2   2 0.11912 0.00855-0.70126 0.99970-0.70288-0.02291  0 456.44 500.85  155.33 456.32 500.72  155.47
   1   3 -10  3342.7   340.5   2-0.11885 0.24649 0.99174-0.69301-0.04815-0.67748  0 156.34  81.71  287.96 156.46  81.73  288.04
   1   3  10  3493.1   285.4   1 0.01698 0.11087-0.69539 0.99381 0.71843 0.00721  0 118.55 133.58  172.48 118.46 133.75  172.46
   1   3  10  3573.5   331.5   2-0.13542 0.26307-0.66616 0.96475 0.73341-0.00779  0 111.22 145.87   61.72 110.97 146.01   61.86
  -1  -3  11 673.518 212.698   1-0.54050 0.41262-0.83883 0.54025 0.06506 0.73340  0  77.84 152.64  120.96  77.79 152.58  120.87
  -1  -3  11 755.209 266.045   2 0.00235-0.13002-0.99571 0.69693 0.09251 0.70525  0 144.35  49.35  105.05 144.17  49.33  104.92
  -1   3  11 816.137 262.710   2-0.12811 0.00046-0.69710 0.99569 0.70543 0.09275  0 133.75  60.07   64.57 133.83  60.13   64.29
   1  -3 -11 547.758 253.644   2 0.02236 0.10527 0.69285-0.99145-0.72074-0.07713  0 149.94  43.84  243.94 149.91  43.94  244.06
   1  -3  11 839.141 200.921   1-0.45406 0.58193-0.86473 0.56615 0.21466 0.58380  0  62.52 209.98  130.50  61.91 209.89  130.87
   1  -3  11 543.250 225.862   2 0.00250 0.12518-0.99578 0.69700 0.09170 0.70606  0  93.81 116.82  105.02  93.62 116.73  104.96
   1   3 -11 787.737 243.859   2-0.10715 0.23479 0.98784-0.68911-0.11263-0.68557  0 139.17  53.97  284.43 139.46  54.24  284.27
   1   3  11 690.276 216.757   1 0.02049 0.10735-0.69279 0.99121 0.72085 0.07735  0  95.70 113.79  173.26  95.96 114.33  172.74
   1   3  11 665.582 225.310   2-0.13590 0.26355-0.66401 0.96259 0.73527 0.06291  0  87.28 130.00   61.51  86.58 130.10   61.70
  -1  -3  12  6736.1   452.3   1-0.50539 0.37751-0.85313 0.55455 0.12945 0.74159  0  49.98 132.46  125.01  49.85 132.51  125.14
  -1  -3  12  6256.7   525.6   2-0.00928-0.11839-0.98782 0.68904 0.15530 0.71498  0 117.68  22.71  101.34 117.61  22.93  101.23
  -1   3  12  5895.9   522.0   2-0.13004 0.00239-0.68891 0.98749 0.71309 0.15766  0 107.20  34.79   63.71 106.85  35.03   63.63
   1  -3 -12  6228.3   538.0   2 0.02404 0.10359 0.68570-0.98430-0.72749-0.14292  0 130.21   9.99  243.46 130.14  10.24  243.49
   1  -3  12  6596.7   466.1   1-0.42360 0.55147-0.86746 0.56888 0.26092 0.61012  0  31.57 194.33  133.90  31.71 194.52  134.05
   1  -3  12  6236.0   473.0   2-0.00984 0.13751-0.98735 0.68857 0.15827 0.71202  0  65.06  97.24  101.01  64.95  97.33  101.05
   1   3 -12  6032.8   519.3   2-0.09576 0.22340 0.98012-0.68138-0.17376-0.69700  0 119.21  21.82  280.62 118.93  21.54  280.67
   1   3  12  6722.4   436.0   1 0.02924 0.09860-0.68624 0.98466 0.72679 0.14397  0  69.65  90.68  173.46  69.68  90.81  173.46
   1   3  12  7327.8   492.1   2-0.13764 0.26529-0.65686 0.95544 0.74134 0.12940  0  57.57 111.64   60.97  57.59 111.88   61.15
  -1  -4   0 10738.9   272.6   1-0.58667 0.45894-0.03113-0.36677-0.80923 0.80923  0 203.16 284.09   48.00 203.12 284.01   47.81
  -1  -4   0  9907.3   270.2   2-0.21428 0.08665-0.15075-0.24725 0.96507-0.96507  0 397.91 321.25   28.94 398.26 321.27   28.67
  -1  -4   0  9477.1   267.9   2 0.13136-0.25904-0.26159-0.13633-0.95620 0.95620  0 273.44 156.29  184.99 273.61 156.36  184.85
  -1   4   0 10807.9   246.9   1-0.55174 0.42401 0.04235 0.35555-0.83294 0.83294  0 382.21 176.97   43.19 382.17 177.11   42.95
  -1   4   0  9453.9   276.3   2-0.23443 0.10680 0.14429 0.25371 0.96137-0.96137  0 259.17 162.07   11.69 259.37 162.17   11.66
  -1   4   0 10137.7   283.5   2 0.09653-0.22416 0.25047 0.14767-0.96330 0.96330  0 386.92 334.01  214.51 387.25 333.91  214.52
   1  -4   0  8335.9   204.1   1-0.70069 0.82843-0.44439 0.04648-0.55816 0.55816  0 227.56 329.42   76.53 227.54 329.31   76.55
   1  -4   0  9209.6   270.9   2-0.20011 0.32774-0.28364-0.11436 0.93782-0.93782  0 339.97 361.38   36.46 340.00 361.34   36.49
   1  -4   0 10489.8   269.7   2 0.12862-0.00095-0.17817-0.21975-0.97556 0.97556  0 221.44 193.40  189.80 221.34 193.40  189.76
   1   4   0 10574.1   284.1   1-0.36839 0.49611 0.33770 0.06020-0.86617 0.86617  0 414.89 226.94   23.11 415.14 227.01   22.87
   1   4   0 10266.5   260.6   2-0.23881 0.36644 0.29605 0.10196 0.92484-0.92484  0 213.25 205.57    2.99 213.15 205.58    2.69
   1   4   0  9785.9   271.8   2 0.10348 0.02414 0.18635 0.21178-0.97702 0.97702  0 323.95 364.80  210.75 324.03 364.65  210.75
  -1  -4  -1 30150.1   436.8   1-0.52349 0.39577 0.09651-0.49442-0.84655 0.77390  0 204.12 292.93   39.34 204.12 292.84   39.37
  -1  -4  -1 27059.7   417.6   2-0.19412 0.06649-0.33227-0.06573 0.92299-0.99562  0 401.61 319.79   39.42 401.99 319.85   39.43
  -1  -4  -1 27382.2   422.5   2 0.12408-0.25176-0.08556-0.31236-0.98858 0.91600  0 275.77 153.70  195.00 275.92 153.77  195.11
  -1  -4   1 25953.8   417.1   1-0.63755 0.50982-0.15905-0.23886-0.75381 0.82646  0 199.67 275.37   55.95 199.67 275.28   56.32
  -1  -4   1 27186.8   425.1   2-0.22815 0.10052 0.02468-0.42268 0.97331-0.90069  0 397.01 326.02   18.64 397.31 326.04   18.57
  -1  -4   1 24500.3   406.6   2 0.13281-0.26049-0.43143 0.03351-0.89232 0.96490  0 269.09 155.95  174.43 269.30 156.02  174.42
  -1   4  -1 26697.4   383.6   1-0.62153 0.49379-0.11491 0.51282-0.77492 0.70227  0 394.31 186.12   53.17 394.58 186.30   53.38
  -1   4  -1 28230.5   440.4   2-0.23893 0.11130 0.31696 0.08104 0.91785-0.99048  0 261.20 159.23    1.42 261.36 159.30    1.43
  -1   4  -1 27827.5   436.1   2 0.11300-0.24062 0.08195 0.31618-0.99021 0.91768  0 390.82 333.07  204.76 391.13 332.96  204.70
  -1   4   1 29735.9   357.8   1-0.43392 0.30620 0.24508 0.15282-0.86698 0.93962  0 372.86 167.26   29.28 372.85 167.42   29.36
  -1   4   1 18044.3   355.1   2-0.22484 0.09721-0.02377 0.42177 0.97411-0.90148  0 255.27 162.19   21.21 255.39 162.28   21.35
  -1   4   1 27399.3   436.5   2 0.07487-0.20250 0.41530-0.01717-0.90660 0.97913  0 385.54 338.28  224.60 385.90 338.12  224.59
   1  -4  -1 23934.7   316.6   1-0.68407 0.81181-0.32661-0.07130-0.65220 0.57956  0 234.94 339.13   67.99 234.95 338.94   67.86
   1  -4  -1 26553.7   429.1   2-0.17820 0.30583-0.44352 0.04552 0.87837-0.95100  0 344.50 362.05   46.23 344.52 361.99   46.37
   1  -4  -1 27211.2   424.3   2 0.11957 0.00805-0.00693-0.39121-0.99280 0.92027  0 222.41 189.62  199.60 222.22 189.63  199.60
   1  -4   1 21970.6   345.7   1-0.70215 0.82989-0.53688 0.13897-0.46770 0.54035  0 218.02 320.20   84.13 218.02 320.10   83.96
   1  -4   1 26569.9   427.6   2-0.21719 0.34482-0.11894-0.27906 0.96886-0.89623  0 337.58 364.09   26.90 337.56 364.02   26.83
   1  -4   1 25812.2   410.3   2 0.13282-0.00514-0.35241-0.04551-0.92637 0.99895  0 218.47 194.64  179.30 218.36 194.63  179.36
   1   4  -1 27943.1   440.3   1-0.45416 0.58189 0.21396 0.18394-0.86484 0.79220  0 419.79 237.10   31.44 420.04 237.20   31.49
   1   4  -1 25715.3   414.6   2 0.11858 0.00904 0.00722 0.39091-0.99292 0.92038  0 328.69 366.00  200.30 328.72 365.84  200.41
   1   4  -1 23997.7   391.0   2-0.23754 0.36518 0.45855-0.06044 0.85633-0.92897  0 213.86 201.52  352.24 213.80 201.59  352.19
   1   4   1 30991.8   447.6   1-0.26441 0.39213 0.46519-0.06729-0.84480 0.91744  0 413.50 216.48   13.00 413.72 216.60   13.36
   1   4   1 28686.7   420.7   2-0.23350 0.36113 0.12501 0.27299 0.96429-0.89166  0 210.51 207.17   13.00 210.41 207.18   12.78
   1   4   1 27139.1   420.3   2 0.08169 0.04593 0.36864 0.02949-0.92598 0.99851  0 321.28 367.08  221.69 321.38 366.88  221.68
  -1  -4  -2  8781.5   251.3   1-0.45327 0.32555 0.21536-0.61326-0.86497 0.71967  0 202.57 302.01   31.37 202.55 301.93   31.39
  -1  -4  -2  8012.2   260.5   2-0.16815 0.04050-0.50143 0.10332 0.84870-0.99382  0 408.21 321.70   50.00 408.48 321.73   50.15
  -1  -4  -2  7296.6   249.1   2 0.11328-0.24090 0.07863-0.47676-0.99045 0.84538  0 276.15 148.13  204.43 276.20 148.23  204.50
  -1  -4   2  6710.4   231.9   1-0.67350 0.54576-0.27963-0.11828-0.68426 0.82955  0 193.95 266.65   64.51 193.91 266.62   64.55
  -1  -4   2  7561.2   259.6   2-0.23571 0.10808 0.17827-0.57628 0.95533-0.81008  0 398.67 334.03    9.98 398.94 334.00    9.68
  -1  -4   2  6884.8   253.7   2 0.12804-0.25572-0.58037 0.18245-0.80422 0.94938  0 262.88 152.88  164.43 263.10 152.95  164.50
  -1   4  -2  7365.8   251.3   1-0.65940 0.53166-0.22736 0.62527-0.71659 0.57129  0 409.36 195.13   61.16 409.59 195.21   60.94
  -1   4  -2  7976.6   271.0   2 0.12355-0.25123-0.07539 0.47331-0.98947 0.84431  0 397.38 335.41  195.71 397.55 335.29  195.69
  -1   4  -2  7714.9   268.7   2-0.23695 0.10931 0.47859-0.08048 0.84547-0.99074  0 261.28 153.65  350.81 261.43 153.81  350.87
  -1   4   2  9362.8   210.0   1-0.25960 0.13188 0.47058-0.07268-0.84330 0.98860  0 367.12 156.80   12.99 367.12 156.97   12.94
  -1   4   2  7964.9   254.6   2-0.21212 0.08449-0.17307 0.57107 0.96180-0.81654  0 249.70 159.71   30.00 249.55 159.79   29.97
  -1   4   2  8001.2   273.8   2 0.05016-0.17778 0.56269-0.16455-0.82515 0.97021  0 386.61 345.73  234.31 386.95 345.56  234.35
   1  -4  -2  6988.3   173.4   1-0.64553 0.77327-0.18241-0.21550-0.74163 0.59634  0 239.59 349.25   57.99 239.56 349.08   57.89
   1  -4  -2  7509.4   268.7   2-0.15271 0.28036-0.58523 0.18712 0.79636-0.94148  0 351.09 365.97   55.99 351.13 365.93   55.89
   1  -4  -2  8102.0   252.0   2 0.10741 0.02022 0.14677-0.54490-0.98332 0.83825  0 221.40 183.31  208.41 221.22 183.38  208.45
   1  -4   2  6331.0   209.5   1-0.69412 0.82185-0.60898 0.21107-0.38386 0.52916  0 206.93 311.31   90.19 206.93 311.20   90.31
   1  -4   2  8049.3   272.0   2-0.22883 0.35646 0.03569-0.43369 0.97281-0.82756  0 337.18 370.15   18.00 337.18 370.07   17.93
   1  -4   2  7465.0   240.6   2 0.13089-0.00321-0.51332 0.11540-0.84816 0.99331  0 213.41 193.42  168.89 213.36 193.40  169.08
   1   4  -2  8242.0   277.5   1-0.51984 0.64756 0.10319 0.29471-0.84801 0.70271  0 428.14 247.35   38.92 428.30 247.39   38.93
   1   4  -2  7745.5   265.9   2 0.12754 0.00013-0.15251 0.55043-0.98004 0.83488  0 335.34 370.48  191.00 335.27 370.32  191.25
   1   4  -2  7705.8   241.5   2-0.23266 0.36029 0.59985-0.20166 0.76554-0.91078  0 212.42 194.97  343.01 212.29 195.07  342.60
   1   4   2  8808.5   267.3   1-0.14786 0.27558 0.58470-0.18680-0.79766 0.94295  0 415.68 205.62    3.36 415.88 205.68    3.39
   1   4   2  7527.1   234.4   2-0.22383 0.35146-0.03769 0.43569 0.97390-0.82865  0 205.61 206.24   22.00 205.52 206.28   22.15
   1   4   2  7355.5   251.6   2 0.05515 0.07248 0.53537-0.13724-0.84282 0.98788  0 320.57 372.84  232.45 320.66 372.62  232.46
  -1  -4  -3  3743.9   183.2   1-0.38226 0.25454 0.31865-0.71655-0.86737 0.64943  0 198.47 311.39   24.24 198.51 311.32   24.22
  -1  -4  -3  3163.8   203.7   1 0.02936-0.15721-0.68615 0.28826 0.72687-0.94456  0 421.70 321.29  173.52 421.78 321.24  173.47
  -1  -4  -3  3288.2   209.5   2-0.14025 0.01260-0.64488 0.24676 0.75131-0.96899  0 417.66 326.74   60.18 417.89 326.78   60.25
  -1  -4  -3  3562.8   213.8   2 0.09999-0.22761 0.21939-0.61752-0.97050 0.75290  0 274.69 139.78  212.70 274.77 139.84  212.68
  -1  -4   3  3202.2   184.0   1-0.69456 0.56682-0.38801-0.00990-0.60584 0.82378  0 186.10 257.96   72.25 186.11 257.91   72.30
  -1  -4   3  3084.9   215.5   2-0.23877 0.11114 0.30260-0.70060 0.92272-0.70484  0 402.69 345.07    2.07 402.88 344.97    2.30
  -1  -4   3  2639.3   185.3   2 0.11909-0.24676-0.70163 0.30371-0.70252 0.92026  0 255.21 147.35  155.32 255.24 147.50  155.44
  -1   4  -3  3114.6   199.5   1-0.67936 0.55162-0.30460 0.70251-0.66760 0.44966  0 426.98 204.03   66.28 427.13 204.12   66.30
  -1   4  -3  3282.1   221.4   2 0.12993-0.25760-0.20958 0.60751-0.96912 0.75138  0 406.57 340.84  188.01 406.70 340.75  187.92
  -1   4  -3  2686.5   210.7   2-0.23158 0.10395 0.61662-0.21842 0.75243-0.97030  0 259.55 145.44  341.46 259.57 145.53  341.36
  -1   4   3  3422.0   192.8   2-0.19863 0.07100-0.29606 0.69406 0.93429-0.71640  0 242.12 154.88   37.12 241.96 154.98   37.24
  -1   4   3  3430.9   229.4   2 0.02424-0.15187 0.68482-0.28669-0.72831 0.94591  0 389.90 356.26  243.41 390.16 356.05  243.42
   1  -4  -3  3333.7   129.7   1-0.58196 0.70968-0.02066-0.37724-0.81296 0.59502  0 240.78 359.94   47.09 240.72 359.78   47.12
   1  -4  -3  3119.6   220.9   2-0.12680 0.25445-0.70257 0.30446 0.70022-0.91791  0 359.82 373.03   64.70 359.81 372.93   64.73
   1  -4  -3  3413.9   191.2   2 0.09379 0.03384 0.27418-0.67231-0.95709 0.73949  0 218.64 174.84  216.00 218.46 174.84  215.93
   1  -4   3  2874.5   168.4   1-0.68014 0.80788-0.66567 0.26776-0.30707 0.52501  0 194.59 302.58   96.07 194.57 302.51   95.83
   1  -4   3  3150.6   214.8   2-0.23538 0.36301 0.16934-0.56734 0.95704-0.73916  0 338.67 379.45    9.95 338.64 379.35   10.20
   1  -4   3  3032.5   176.7   2 0.12357 0.00410-0.64977 0.25184-0.75002 0.96776  0 206.45 189.93  159.30 206.42 189.93  159.45
   1   4  -3  3331.2   222.0   1-0.56746 0.69518 0.01032 0.38758-0.82334 0.60540  0 439.72 257.92   45.08 439.88 257.94   45.07
   1   4  -3  2730.8   210.1   2 0.13184-0.00417-0.28310 0.68103-0.94998 0.73225  0 344.02 378.06  183.55 343.91 377.94  183.57
   1   4  -3  2973.4   179.8   2-0.22313 0.35076 0.71386-0.31567 0.66379-0.88166  0 209.20 186.21  333.72 209.05 186.30  333.76
   1   4   3  3638.3   186.9   2-0.21153 0.33916-0.17906 0.57706 0.96083-0.74295  0 198.69 203.06   30.05 198.62 203.08   30.32
   1   4   3  2939.4   201.3   2 0.02678 0.10085 0.67393-0.27580-0.73831 0.95591  0 321.63 381.97  242.59 321.69 381.70  242.56
  -1  -4  -4  3907.3   201.3   1-0.31725 0.18953 0.40315-0.80106-0.85838 0.56779  0 192.14 321.29   18.00 192.11 321.19   18.09
  -1  -4  -4  3717.0   241.4   1-0.08607-0.04177-0.76409 0.36620 0.63934-0.92960  0 430.97 334.07  164.22 431.08 333.99  164.03
  -1  -4  -4  3093.1   226.4   2-0.11253-0.01512-0.75781 0.35970 0.64270-0.93295  0 429.95 334.82   69.08 430.14 334.78   69.36
  -1  -4  -4  3652.0   229.4   2 0.08669-0.21431 0.33158-0.72971-0.93944 0.64930  0 271.78 128.67  219.34 271.80 128.82  219.40
  -1  -4   4  2913.1   183.7   1-0.70270 0.57497-0.48211 0.08420-0.52324 0.81383  0 176.44 249.05   79.41 176.43 249.00   79.49
  -1  -4   4  3295.8   199.6   2 0.10759-0.23526-0.79473 0.39636-0.59735 0.88744  0 245.89 139.90  147.07 245.87 139.86  147.30
  -1  -4   4  3541.5   253.9   2-0.23843 0.11079 0.39758-0.79569 0.88605-0.59549  0 408.80 358.86  356.00 409.14 358.86  356.11
  -1   4  -4  3559.5   244.3   1-0.68974 0.56200-0.35621 0.75412-0.63037 0.33978  0 447.27 213.21   70.10 447.31 213.25   69.98
  -1   4  -4  2974.7   230.2   2 0.13237-0.26004-0.31729 0.71521-0.93904 0.64873  0 418.32 349.20  181.50 418.52 349.11  181.50
  -1   4  -4  2454.5   209.4   2-0.22155 0.09392 0.72790-0.32970 0.64891-0.93940  0 256.34 134.72  332.93 256.30 134.77  332.59
  -1   4   4  3683.7   211.7   2-0.18587 0.05824-0.39183 0.78983 0.90107-0.61056  0 232.82 148.02   42.97 232.79 148.11   43.10
  -1   4   4  3429.2   246.7   2-0.00076-0.12688 0.78059-0.38227-0.62504 0.91530  0 395.07 369.65  251.58 395.23 369.49  251.64
   1  -4  -4  3353.1   137.1   1-0.50016 0.62789 0.13818-0.53608-0.85484 0.56425  0 238.17 371.32   36.69 238.15 371.15   36.60
   1  -4  -4  3415.8   159.2   1-0.14961 0.27745-0.79864 0.40076 0.58291-0.87316  0 369.45 383.63  158.86 369.35 383.49  158.77
   1  -4  -4  3207.5   235.7   2-0.10195 0.22960-0.79448 0.39637 0.59867-0.88892  0 370.46 382.91   72.61 370.53 382.85   72.68
   1  -4  -4  3598.0   208.2   2 0.08095 0.04668 0.37399-0.77212-0.92389 0.63376  0 214.27 164.15  222.30 214.11 164.21  222.01
   1  -4   4  2724.6   178.8   1-0.66233 0.79021-0.71084 0.31274-0.23669 0.52704  0 181.04 294.00  100.77 181.13 294.05  100.75
   1  -4   4  3422.4   239.7   2-0.23852 0.36615 0.27735-0.67535 0.93069-0.64018  0 341.69 391.92    4.01 341.66 391.73    3.81
   1  -4   4  3240.8   192.3   2 0.11266 0.01501-0.75796 0.36004-0.64250 0.93282  0 197.76 184.47  150.58 197.68 184.46  150.74
   1   4  -4  3617.1   241.0   1-0.60080 0.72854-0.06352 0.46143-0.79687 0.50628  0 454.65 269.04   50.08 454.76 269.13   49.96
   1   4  -4  3151.6   237.1   2 0.13308-0.00541-0.38397 0.78189-0.91370 0.62339  0 354.48 388.68  177.42 354.44 388.51  177.41
   1   4  -4  3398.9   203.5   2-0.21147 0.33910 0.80143-0.40324 0.55946-0.84995  0 204.31 175.49  325.99 204.21 175.55  325.86
   1   4   4  3518.4   196.1   2-0.19897 0.32660-0.29325 0.69125 0.93510-0.64459  0 189.93 197.94   36.99 189.82 197.94   37.07
   1   4   4  3447.7   228.4   2-0.00084 0.12848 0.78086-0.38254-0.62471 0.91496  0 324.20 394.30  251.66 324.15 393.94  251.66
  -1  -4  -5 166.106  96.774   1-0.26114 0.13342 0.46886-0.86676-0.84379 0.48055  0 183.61 331.55   12.85 183.55 331.74   13.07
  -1  -4  -5   5.075 124.314   1-0.19154 0.06369-0.81798 0.42009 0.54243-0.90524  0 443.50 347.83  155.62 443.92 348.28  155.25
  -1  -4  -5 147.250 139.066   2-0.08684-0.04081-0.84209 0.44398 0.53230-0.89511  0 444.75 345.46   77.39 445.40 345.63   77.42
  -1  -4  -5 242.284 139.782   2 0.07467-0.20229 0.41665-0.81479-0.90599 0.54333  0 267.57 115.45  224.67 267.50 115.28  224.68
  -1  -4   5 154.699  92.581   1-0.70038 0.57264-0.56205 0.16414-0.43997 0.80321  0 164.73 239.73   86.38 164.97 239.78   86.10
  -1  -4   5 139.525 100.067   2 0.09456-0.22224-0.86444 0.46606-0.49377 0.85639  0 235.04 130.37  140.74 235.08 130.44  140.14
  -1  -4   5 110.255 146.868   2-0.23735 0.10971 0.46768-0.86579 0.85143-0.48823  0 416.92 375.21  351.58 417.23 375.58  351.60
  -1   4  -5 142.172 144.130   1-0.69479 0.56705-0.38964 0.78755-0.60453 0.24129  0 470.48 222.86   72.44 470.48 222.79   72.42
  -1   4  -5  98.335 137.430   2 0.13315-0.26082-0.39952 0.79744-0.90700 0.54411  0 433.02 360.24  176.46 433.14 360.38  176.43
  -1   4  -5 215.859 101.816   2-0.20950 0.08187 0.81316-0.41497 0.54303-0.90615  0 251.48 121.84  324.68 251.62 121.66  324.68
  -1   4   5 114.693 103.610   2-0.17485 0.04722-0.46351 0.86152 0.86867-0.50553  0 222.17 138.96   47.56 222.12 139.40   47.65
  -1   4   5 138.378 146.725   2-0.02457-0.10307 0.85254-0.45422-0.52209 0.88491  0 402.32 386.17  259.20 402.32 385.89  258.94
   1  -4  -5 148.466  66.769   1-0.41453 0.54225 0.27392-0.67182-0.86783 0.50460  0 232.40 383.24   27.44 232.16 383.38   27.37
   1  -4  -5 110.276  89.201   1-0.31347 0.44135-0.85755 0.45944 0.40786-0.77079  0 376.82 398.66  144.34 376.83 398.61  144.60
   1  -4  -5 197.423 153.283   2-0.07909 0.20675-0.86375 0.46564 0.49768-0.86049  0 383.46 395.94   79.54 383.34 395.71   79.78
   1  -4  -5 245.521 104.809   2 0.06974 0.05788 0.44907-0.84721-0.89077 0.52810  0 208.06 151.64  226.54 208.30 151.64  226.75
   1  -4   5  67.052  88.146   1-0.64208 0.76995-0.74729 0.34919-0.17114 0.53408  0 166.25 285.92  105.58 166.49 285.49  105.19
   1  -4   5 270.467 104.812   2 0.09987 0.02780-0.83923 0.44085-0.53453 0.89715  0 187.25 177.31  142.46 187.22 177.26  142.88
   1  -4   5 186.715 145.942   2-0.23858 0.36622 0.36085-0.75896 0.90159-0.53839  0 346.23 407.12  358.56 346.38 407.36  358.40
   1   4  -5 144.034 136.788   1-0.62341 0.75115-0.11994 0.51785-0.77264 0.40940  0 472.96 281.08   53.53 473.07 281.16   53.70
   1   4  -5  84.273 151.165   2 0.13232-0.00465-0.45882 0.85674-0.87862 0.51573  0 367.04 402.22  172.64 366.87 401.93  172.66
   1   4  -5 116.196  96.412   2-0.19865 0.32628 0.86646-0.46827 0.45802-0.82114  0 197.90 163.10  318.88 197.90 162.97  318.85
   1   4   5 176.674  95.875   2-0.18741 0.31504-0.38089 0.77889 0.90543-0.54229  0 179.07 191.01   42.45 179.23 191.11   42.42
   1   4   5  92.954 137.023   2-0.02697 0.15461 0.85907-0.46076-0.51114 0.87396  0 328.00 409.60  259.62 327.99 409.36  259.69
  -1  -4  -6 16943.9   398.1   1-0.21576 0.08803 0.51788-0.91578-0.82780 0.39192  0 172.96 343.22    9.00 172.99 343.15    9.13
  -1  -4  -6 13816.0   395.0   1-0.28430 0.15643-0.85054 0.45243 0.44245-0.87797  0 460.27 364.71  147.16 460.34 364.54  147.22
  -1  -4  -6 13117.6   411.5   2-0.06347-0.06418-0.90268 0.50456 0.42561-0.86099  0 463.71 359.39   84.60 463.94 359.35   84.55
  -1  -4  -6 14513.4   430.1   2 0.06491-0.19254 0.47883-0.87696-0.87551 0.44030  0 261.96  99.09  228.69 262.01  99.31  228.66
  -1  -4   6 12662.2   372.4   1-0.69005 0.56232-0.62896 0.23105-0.35810 0.79399  0 151.83 230.05   92.20 151.85 230.08   92.19
  -1  -4   6 12999.7   393.7   2 0.08106-0.20874-0.91499 0.51662-0.39524 0.83038  0 222.94 119.27  133.67 222.88 119.27  133.79
  -1  -4   6 13618.9   447.1   2-0.23653 0.10890 0.51764-0.91583 0.82226-0.38651  0 427.07 395.46  348.42 427.49 395.37  348.36
  -1   4  -6 13255.0   425.5   1-0.69736 0.56963-0.40979 0.80770-0.58801 0.15212  0 497.15 232.98   73.94 497.26 233.04   73.92
  -1   4  -6 12547.8   419.5   2 0.13229-0.25996-0.46044 0.85836-0.87778 0.44230  0 450.65 374.65  172.61 450.81 374.56  172.56
  -1   4  -6 13395.3   382.9   2-0.19628 0.06865 0.87637-0.47817 0.43984-0.87558  0 245.96 106.02  317.98 245.71 106.20  317.63
  -1   4   6 14709.5   412.0   2-0.16565 0.03800-0.51517 0.91328 0.84093-0.40556  0 210.11 128.85   51.07 210.00 129.01   51.08
  -1   4   6 12803.2   436.1   2-0.04604-0.08160 0.90502-0.50670-0.42287 0.85825  0 411.15 405.62  265.41 411.26 405.41  265.46
   1  -4  -6 17137.1   299.6   1-0.33743 0.46516 0.37794-0.77584-0.86215 0.42627  0 223.36 396.96   20.00 223.27 396.73   19.95
   1  -4  -6 13853.3   301.0   1-0.43312 0.56099-0.86690 0.46880 0.24676-0.68229  0 388.04 416.42  133.02 388.21 416.19  133.07
   1  -4  -6 13016.0   437.4   2-0.05826 0.18591-0.91439 0.51627 0.40063-0.83600  0 398.12 411.72   85.99 398.46 411.65   86.16
   1  -4  -6 14925.8   412.5   2 0.06073 0.06690 0.50392-0.90205-0.86161 0.42641  0 201.24 137.01  230.25 201.08 137.13  230.33
   1  -4   6 11764.5   363.8   1-0.61985 0.74773-0.77700 0.37890-0.10976 0.54529  0 150.51 276.74  109.17 150.59 276.77  109.30
   1  -4   6 13071.0   384.1   2 0.08586 0.04182-0.89896 0.50059-0.42953 0.86468  0 175.12 168.67  136.01 175.07 168.58  135.96
   1  -4   6 14190.2   435.1   2-0.23822 0.36586 0.42277-0.82088 0.87437-0.43853  0 352.08 426.32  354.65 352.18 426.12  354.52
   1   4  -6 12012.2   409.4   1-0.63835 0.76609-0.16135 0.55926-0.75264 0.31676  0 495.11 294.55   56.40 495.28 294.54   56.48
   1   4  -6 13341.6   435.4   2 0.13090-0.00323-0.51281 0.91073-0.84847 0.41299  0 381.51 418.54  169.01 381.33 418.40  169.12
   1   4  -6 12374.1   376.0   2-0.18554 0.31317 0.91354-0.51534 0.36197-0.79771  0 190.28 148.51  312.98 190.14 148.61  312.60
   1   4   6 13549.2   371.8   2-0.17788 0.30551-0.44558 0.84358 0.87739-0.44163  0 166.95 182.78   46.51 166.87 182.83   46.50
   1   4   6 13700.7   416.1   2-0.05021 0.17785 0.91391-0.51560-0.40279 0.83817  0 333.04 428.31  266.78 332.96 428.02  266.74
  -1  -4  -7  6298.2   287.4   1-0.18119 0.05346 0.55305-0.95095-0.81321 0.30468  0 160.44 355.67    6.00 160.44 355.67    6.18
  -1  -4  -7  5233.6   361.5   1-0.36428 0.23640-0.86554 0.46743 0.34372-0.85183  0 480.79 383.59  140.24 480.83 383.50  139.89
  -1  -4  -7  5055.3   377.5   2-0.04281-0.08484-0.94469 0.54657 0.32517-0.83310  0 486.04 376.28   91.05 486.30 376.21   90.93
  -1  -4  -7  3603.2   288.1   2 0.05738-0.18500 0.52291-0.92104-0.85046 0.34272  0 255.29  80.38  231.60 255.38  80.70  231.61
  -1  -4   7  4970.0   277.6   1-0.67354 0.54580-0.68454 0.28664-0.27883 0.78736  0 137.00 219.69   97.70 136.95 219.70   97.81
  -1  -4   7  5079.7   306.3   2 0.06776-0.19543-0.95065 0.55228-0.30276 0.81043  0 209.19 106.38  127.96 209.20 106.32  128.10
  -1  -4   7  5322.6   405.8   2-0.23516 0.10753 0.55234-0.95054 0.79976-0.29139  0 439.50 418.80  346.03 439.88 418.70  345.99
  -1   4  -7  4881.1   373.1   2 0.13128-0.25895-0.50402 0.90194-0.85366 0.34560  0 472.14 392.13  170.03 472.09 391.99  169.70
  -1   4  -7  5020.0   286.9   2-0.18272 0.05509 0.92184-0.52365 0.34179-0.85015  0 238.82  87.98  311.43 238.55  88.23  311.31
  -1   4   7  4842.9   299.1   2-0.15898 0.03133-0.55188 0.94999 0.81863-0.31069  0 196.31 116.65   53.55 196.28 116.87   53.57
  -1   4   7  5703.8   399.2   2-0.06545-0.06219 0.94206-0.54374-0.32900 0.83695  0 422.19 428.57  271.32 422.20 428.48  271.34
   1  -4  -7  6167.3   217.1   1-0.27683 0.40455 0.45109-0.84899-0.84846 0.33993  0 212.20 411.95   14.43 212.18 411.70   14.46
   1  -4  -7  5148.7   249.2   1-0.51682 0.64470-0.84911 0.45101 0.10910-0.61721  0 402.89 437.16  123.82 403.10 436.92  123.78
   1  -4  -7  5368.9   396.9   2-0.03944 0.16709-0.95028 0.55217 0.30888-0.81682  0 416.09 431.29   91.76 416.21 431.04   91.93
   1  -4  -7  5691.0   309.4   2 0.05385 0.07377 0.54283-0.94096-0.83812 0.33038  0 192.56 120.55  232.75 192.44 120.58  232.98
   1  -4   7  4355.1   260.2   1-0.59605 0.72393-0.80128 0.40318-0.05169 0.55980  0 133.16 267.70  113.02 133.27 267.76  113.15
   1  -4   7  4969.9   288.5   2 0.07173 0.05595-0.94112 0.54275-0.33036 0.83803  0 161.16 158.56  129.62 161.09 158.48  129.77
   1  -4   7  5572.7   376.4   2-0.23736 0.36500 0.46736-0.86547 0.85161-0.34313  0 359.25 448.59  351.69 359.26 448.47  351.62
   1   4  -7  5605.8   386.1   2 0.12949-0.00182-0.55064 0.94856-0.82464 0.31659  0 398.09 438.46  166.51 398.20 438.36  166.56
   1   4  -7  5021.5   296.3   2-0.17232 0.29995 0.94671-0.54851 0.27212-0.78049  0 180.97 132.21  306.98 180.91 132.33  306.99
   1   4   7  5316.7   280.5   2-0.16980 0.29745-0.49167 0.88979 0.85406-0.34613  0 152.75 173.15   49.52 152.69 173.25   49.50
   1   4   7  5469.9   368.5   2-0.07084 0.19848 0.95080-0.55248-0.30161 0.80955  0 339.18 450.43  273.27 338.99 450.19  273.01
  -1  -4  -8  1951.4   216.6   1-0.15609 0.02836 0.57708-0.97498-0.80163 0.22046  0 145.89 369.50    3.76 145.86 369.71    4.08
  -1  -4  -8  2079.0   257.9   2 0.05198-0.17961 0.55296-0.95110-0.83158 0.25131  0 247.68  59.18  233.63 247.62  59.14  233.68
  -1  -4   8  1238.5   197.1   1-0.65250 0.52462-0.73002 0.33192-0.20327 0.78397  0 120.09 208.52  102.92 120.22 208.49  103.02
  -1  -4   8  1506.8   214.8   2 0.05449-0.18216-0.97478 0.57641-0.21641 0.79660  0 193.86  91.43  122.68 193.80  91.40  122.93
  -1  -4   8  1337.0   304.8   2-0.23406 0.10643 0.57522-0.97342 0.78379-0.20281  0 454.71 446.31  344.43 454.89 446.37  344.37
  -1   4  -8  1293.2   286.7   2 0.13023-0.25790-0.53407 0.93199-0.83535 0.25472  0 498.09 413.54  168.00 497.79 413.34  167.69
  -1   4  -8  1559.5   213.9   2-0.16887 0.04124 0.95350-0.55531 0.24963-0.83062  0 230.35  67.23  305.65 230.18  67.39  305.63
  -1   4   8  1701.5   228.7   2-0.15434 0.02669-0.57661 0.97472 0.80231-0.22181  0 180.70 102.83   55.37 180.75 102.87   55.29
  -1   4   8  1439.5   304.0   2-0.08288-0.04476 0.96703-0.56871-0.24081 0.82132  0 435.32 455.80  277.06 435.53 455.90  276.68
   1  -4  -8  2003.3   183.2   1-0.23283 0.36056 0.49985-0.89776-0.83423 0.25305  0 199.28 428.81   10.66 199.16 428.76   10.60
   1  -4  -8  1496.9   197.8   1-0.57633 0.70420-0.81718 0.41908-0.00757-0.57312  0 421.48 461.44  116.38 421.38 461.77  116.06
   1  -4  -8  1522.6   296.9   2-0.02250 0.15015-0.97463 0.57652 0.22267-0.80317  0 437.32 454.40   97.43 437.36 454.71   97.19
   1  -4  -8  1455.5   212.2   2 0.04887 0.07876 0.56935-0.96748-0.82064 0.24037  0 182.43 101.84  234.97 182.23 101.73  234.81
   1  -4   8  1345.5   185.7   1-0.57099 0.69886-0.82095 0.42285 0.00382 0.57688  0 114.27 258.28  116.63 114.23 258.25  116.82
   1  -4   8  1561.6   209.8   2 0.05777 0.06990-0.96965 0.57127-0.23759 0.81778  0 145.05 146.91  124.35 145.08 146.93  124.18
   1  -4   8  1384.4   278.9   2-0.23641 0.36405 0.49823-0.89634 0.83419-0.25308  0 367.59 474.96  349.57 367.71 475.16  349.55
   1   4  -8 135.014 237.084   2 0.12827-0.00059-0.57605 0.97397-0.80729 0.22666  0 418.30 462.71  165.06 418.06 462.51  164.80
   1   4  -8  1530.7   209.7   2-0.15934 0.28697 0.96911-0.57092 0.18823-0.76922  0 170.04 113.73  301.60 170.07 113.86  301.91
   1   4   8  1415.0   194.0   2-0.16407 0.29172-0.52364 0.92175 0.83599-0.25550  0 136.57 162.19   51.62 136.42 162.29   51.64
   1   4   8  1019.1   261.9   2-0.08924 0.21688 0.97409-0.57577-0.20781 0.78832  0 346.24 476.98  278.93 346.13 476.59  278.65
  -1  -4  -9 17190.2   482.5   1-0.13975 0.01202 0.59221-0.99011-0.79357 0.13975  0 129.08 385.77    2.88 129.07 385.72    2.71
  -1  -4  -9 15443.3   513.0   2 0.04833-0.17595 0.57219-0.97032-0.81870 0.16589  0 238.80  33.62  234.99 238.63  33.98  235.01
  -1  -4   9 13696.1   469.7   1-0.62756 0.49969-0.76761 0.36951-0.13016 0.78344  0 101.25 195.81  108.14 101.12 195.93  107.95
  -1  -4   9 13817.0   504.2   2 0.04155-0.16923-0.98989 0.59151-0.13562 0.78834  0 176.38  74.26  118.01 176.36  74.24  118.18
  -1  -4   9 13443.2   660.1   2-0.23331 0.10568 0.58892-0.98711 0.77378-0.12017  0 472.88 479.72  343.49 473.24 479.60  343.39
  -1   4  -9 12608.5   472.7   2-0.15532 0.02769 0.97427-0.57608 0.16331-0.81693  0 220.56  42.93  300.59 220.40  43.10  300.41
  -1   4   9 14440.7   514.0   2-0.15139 0.02374-0.59196 0.99007 0.79162-0.13856  0 163.10  86.54   56.31 163.06  86.73   56.37
  -1   4   9 13059.3   656.3   2-0.09869-0.02895 0.98249-0.58417-0.15804 0.81111  0 451.97 489.17  281.69 451.75 488.90  281.60
   1  -4  -9 17980.6   394.9   1-0.20386 0.33159 0.53024-0.92814-0.82298 0.16915  0 184.37 448.82    8.09 184.36 448.63    8.11
   1  -4  -9 13566.7   441.6   1-0.61898 0.74686-0.77802 0.37991-0.10751-0.54578  0 443.13 492.40  109.45 443.31 492.13  109.45
   1  -4  -9 14723.3   664.7   2-0.00688 0.13456-0.98979 0.59142 0.14235-0.79506  0 462.48 483.69  101.92 462.56 483.39  101.99
   1  -4  -9 15867.2   533.5   2 0.04560 0.08202 0.58620-0.98433-0.80888 0.15608  0 170.24  79.86  236.30 170.20  80.09  236.01
   1  -4   9 13539.8   467.6   1-0.54459 0.67246-0.83676 0.43865 0.05715 0.59614  0  93.24 247.96  120.28  93.05 248.00  120.34
   1  -4   9 11512.7   451.3   2 0.04400 0.08367-0.98756 0.58919-0.15094 0.80365  0 126.76 133.71  118.99 126.67 133.75  119.08
   1   4  -9 13761.4   643.7   2 0.12743 0.00024-0.59184 0.98976-0.79592 0.14271  0 441.88 492.25  163.66 441.85 492.08  163.69
   1   4  -9 13329.6   488.3   2-0.14624 0.27388 0.98306-0.58474 0.11052-0.76359  0 157.44  92.80  297.42 157.53  92.72  297.34
   1   4   9 14880.9   489.2   2-0.16039 0.28804-0.54422 0.94233 0.82347-0.17041  0 117.99 149.80   52.89 117.71 149.91   53.04
  -1  -4 -10 304.426 191.332   1-0.13107 0.00335 0.60013-0.99803-0.78909 0.06262  0 109.54 404.26    1.70 109.68 404.39    1.99
  -1  -4  10  99.346 170.770   1-0.59958 0.47170-0.79807 0.39996-0.05996 0.78583  0  79.31 181.94  112.55  79.21 181.65  112.61
  -1  -4  10 351.995 216.559   2 0.02901-0.15668-0.99779 0.59942-0.05971 0.78495  0 156.49  54.61  113.57 156.31  54.30  113.75
  -1   4 -10 301.099 214.955   2-0.14153 0.01389 0.98645-0.58813 0.08301-0.80865  0 209.26  15.06  295.61 209.23  14.40  295.71
  -1   4  10 483.575 232.086   2-0.14973 0.02208-0.59982 0.99793 0.78600-0.06038  0 142.70  68.17   56.59 142.66  68.02   56.93
   1  -4 -10 298.503 154.425   1-0.18724 0.31496 0.54698-0.94488-0.81594 0.08947  0 167.40 472.00    6.59 167.63 472.25    6.70
   1  -4 -10 451.564 221.240   2 0.04374 0.08388 0.59537-0.99350-0.80226 0.07692  0 155.79  54.68  236.67 155.94  54.93  236.67
   1  -4  10  89.296 165.506   1-0.51700 0.64487-0.84905 0.45094 0.10879 0.61708  0  68.83 236.65  123.35  69.14 236.68  123.76
   1  -4  10 105.680 187.655   2 0.03074 0.09694-0.99708 0.59871-0.06984 0.79508  0 104.50 118.45  113.91 105.27 118.67  114.34
   1   4 -10 197.565 207.422   2-0.13362 0.26126 0.99035-0.59203 0.03676-0.76239  0 142.44  68.41  293.04 142.49  68.37  293.00
   1   4  10  60.434 183.772   2-0.15825 0.28590-0.55587 0.95398 0.81607-0.09045  0  95.99 135.81   53.05  95.98 135.86   53.84
  -1  -4  11  5303.0   420.9   1-0.56918 0.44130-0.82218 0.42407 0.00763 0.79083  0  53.97 165.05  116.98  53.78 165.02  117.07
  -1  -4  11  4627.1   464.8   2 0.01673-0.14441-0.99979 0.60141 0.01198 0.78578  0 132.66  30.46  109.48 132.86  30.78  109.60
  -1   4  11  5382.7   499.9   2-0.14939 0.02173-0.60156 0.99967 0.78473 0.01345  0 118.89  45.82   56.96 118.72  46.03   57.06
   1  -4 -11  5784.7   359.0   1-0.18114 0.30886 0.55310-0.95100-0.81318 0.01407  2 148.68 501.02    6.18 148.65 501.08    6.18
   1  -4 -11  5365.4   496.2   2 0.04316 0.08447 0.59829-0.99642-0.80012 0.00224  0 138.82  25.03  237.02 138.81  25.16  236.88
   1  -4  11  3744.2   353.6   1-0.48821 0.61608-0.85811 0.46001 0.15906 0.63940  0  41.25 223.75  127.18  41.61 223.87  127.12
   1  -4  11  3965.7   428.5   2 0.01771 0.10997-0.99982 0.60145 0.00645 0.79131  0  80.08 101.17  109.68  80.04 101.25  109.92
   1   4 -11  4350.4   463.5   2-0.12151 0.24915 0.99204-0.59372-0.03307-0.76513  0 124.66  39.97  288.74 124.43  39.75  288.92
   1   4  11  4520.6   427.6   2-0.15743 0.28508-0.56027 0.95839 0.81321-0.01503  0  70.25 119.70   53.98  70.33 119.76   54.15
  -1  -5   0 -25.891  72.595   1-0.61822 0.49048-0.10633-0.39106-0.77878 0.77878  0 181.17 297.17   52.48 180.73 297.15   52.81
  -1  -5   0 -48.215 121.914   2-0.20818 0.08055-0.21172-0.28579 0.95490-0.95490  0 422.45 347.19   32.47 422.77 347.48   32.23
  -1  -5   0  -5.806 117.469   2 0.13214-0.25981-0.29900-0.19840-0.94506 0.94506  0 259.52 131.87  182.50 259.25 131.89  182.61
  -1   5   0  65.794 105.177   1-0.50120 0.37347 0.13638 0.36099-0.85452 0.85452  0 411.02 156.76   36.36 410.80 156.25   36.72
  -1   5   0 -67.022  77.339   2-0.23661 0.10898 0.20442 0.29308 0.94986-0.94986  0 241.71 140.25    8.52 241.71 140.67    8.14
  -1   5   0 -56.251 129.986   2 0.09202-0.21964 0.28880 0.20887-0.95296 0.95296  0 407.21 362.82  217.02 406.98 362.90  216.81
   1  -5   0  59.009  65.885   1-0.70074 0.82848-0.44506-0.05233-0.55757 0.55757  0 206.03 344.32   76.69 206.05 344.23   76.60
   1  -5   0 -61.294 118.104   2-0.19624 0.32387-0.31547-0.18204 0.92842-0.92842  0 359.49 388.83   38.57 359.39 388.94   38.41
   1  -5   0  -8.242  81.082   2 0.13059-0.00292-0.23157-0.26583-0.96401 0.96401  0 205.39 171.67  186.36 205.75 171.47  186.63
   1   5   0-109.748 109.841   1-0.35444 0.48216 0.35610 0.14127-0.86462 0.86462  0 447.96 209.10   21.51 448.00 209.32   21.54
   1   5   0 -40.408 119.042   2 0.09771 0.02992 0.24014 0.25753-0.96581 0.96581  0 338.50 393.99  213.96 338.58 393.93  213.91
  -1  -5  -1 27149.3   469.2   1-0.57394 0.44622-0.00340-0.49398-0.81889 0.74624  0 182.39 306.47   46.03 182.43 306.36   45.98
  -1  -5  -1 24102.4   465.3   2-0.19095 0.06332-0.35503-0.14247 0.91514-0.98777  0 426.52 345.92   41.00 426.79 345.96   40.82
  -1  -5  -1 25625.9   477.7   2 0.12788-0.25556-0.16039-0.33701-0.97873 0.90615  0 261.49 129.09  190.79 261.68 129.20  190.79
  -1  -5   1 24846.3   456.8   1-0.65391 0.52617-0.20868-0.28870-0.72722 0.79987  0 176.87 288.27   59.70 176.90 288.16   59.68
  -1  -5   1 24825.1   478.2   2-0.22123 0.09360-0.07169-0.42581 0.97258-0.89996  0 421.13 352.05   23.90 421.40 352.09   24.10
  -1  -5   1 20846.5   428.7   2 0.13278-0.26045-0.43445-0.06295-0.89085 0.96343  0 255.08 131.87  174.09 255.13 131.99  174.23
  -1   5  -1 25203.9   430.3   1-0.57049 0.44277 0.00394 0.49344-0.82129 0.74865  0 423.31 165.65   45.43 423.48 165.88   45.50
  -1   5  -1 25392.3   489.4   2 0.10664-0.23427 0.15468 0.34299-0.98219 0.90966  0 410.85 362.09  209.00 411.13 361.94  208.91
  -1   5   1 28946.3   422.3   1-0.39980 0.27208 0.29451 0.20287-0.86800 0.94065  0 400.88 145.67   26.00 401.17 145.89   25.93
  -1   5   1 25485.5   469.8   2-0.23069 0.10306 0.06956 0.42794 0.97054-0.89791  0 238.02 141.10   16.00 237.91 141.20   15.99
  -1   5   1 24542.9   486.5   2 0.07398-0.20161 0.42120 0.07646-0.90394 0.97648  0 404.87 367.12  225.08 405.17 366.92  224.96
   1  -5  -1 22750.1   362.9   1-0.68959 0.81732-0.35533-0.14206-0.63104 0.55839  0 213.12 354.48   70.17 213.17 354.30   69.92
   1  -5  -1 23846.3   473.2   2-0.17808 0.30571-0.44428-0.05322 0.87801-0.95064  0 363.97 389.33   46.33 363.97 389.31   46.42
   1  -5  -1 24023.5   455.5   2 0.12457 0.00310-0.09428-0.40312-0.98772 0.91514  0 207.04 167.84  194.55 206.93 167.86  194.61
   1  -5   1 19969.0   372.5   1-0.70280 0.83054-0.52155 0.02417-0.48379 0.55644  0 197.05 334.78   82.68 197.09 334.68   82.68
   1  -5   1 24859.3   478.0   2-0.21100 0.33863-0.18442-0.31308 0.95993-0.88731  0 356.76 391.79   30.64 356.70 391.68   30.63
   1  -5   1 25724.7   469.6   2 0.13297-0.00529-0.37039-0.12701-0.91931 0.99189  0 202.82 172.87  178.18 202.74 172.85  178.25
   1   5  -1 25268.9   475.9   1-0.42819 0.55591 0.25366 0.24371-0.86736 0.79471  0 453.79 220.01   28.98 453.96 220.14   28.77
   1   5  -1 24327.7   470.5   2 0.11165 0.01598 0.09772 0.39995-0.98893 0.91640  0 343.26 395.07  205.54 343.30 394.87  205.61
   1   5  -1 23435.2   440.5   2-0.23758 0.36522 0.45658 0.04106 0.85738-0.93002  0 195.66 182.75  352.43 195.60 182.83  352.32
   1   5   1 27040.4   479.2   1-0.26687 0.39459 0.46242 0.03495-0.84554 0.91819  0 445.30 197.96   13.57 445.40 198.12   13.57
   1   5   1 25354.3   455.5   2-0.23620 0.36383 0.19196 0.30554 0.95255-0.87993  0 192.05 188.34    9.00 191.98 188.37    8.87
   1   5   1 24052.8   464.2   2 0.07951 0.04811 0.38416 0.11351-0.91984 0.99237  0 335.56 396.40  222.62 335.65 396.16  222.65
  -1  -5  -2  4903.4   220.4   1-0.52405 0.39632 0.09549-0.59287-0.84632 0.70103  0 181.78 316.04   39.44 181.86 315.88   39.44
  -1  -5  -2  4090.0   260.4   2-0.16977 0.04212-0.49184-0.00580 0.85397-0.99910  0 433.33 347.49   49.55 433.46 347.49   49.52
  -1  -5  -2  4717.1   266.9   2 0.12068-0.24835-0.02766-0.46975-0.99231 0.84715  0 262.24 123.73  198.30 262.42 123.90  198.44
  -1  -5   2  4433.3   223.1   1-0.67976 0.55202-0.30640-0.19098-0.66637 0.81166  0 171.02 279.33   66.38 171.02 279.27   66.42
  -1  -5   2  4792.9   285.9   2-0.22994 0.10231 0.05633-0.55383 0.97157-0.82632  0 422.32 359.78   16.73 422.49 359.73   16.75
  -1  -5   2  4572.9   236.0   2 0.12914-0.25682-0.55853 0.06113-0.81937 0.96453  0 249.35 129.64  166.01 249.31 129.62  166.01
  -1   5  -2  4767.3   251.1   1-0.61565 0.48791-0.10012 0.59751-0.78163 0.63634  0 438.75 174.99   52.34 438.95 175.14   52.39
  -1   5  -2  4608.3   279.7   2 0.11726-0.24489 0.02704 0.47063-0.99273 0.84767  0 417.46 364.16  201.48 417.78 364.05  201.54
  -1   5  -2  4426.6   229.5   2-0.23707 0.10943 0.47327 0.02436 0.84842-0.99370  0 244.20 132.26  351.37 244.11 132.43  351.22
  -1   5   2  5147.9   220.2   1-0.26441 0.13669 0.46519 0.03218-0.84480 0.99009  0 394.30 134.39   13.20 394.52 134.61   13.36
  -1   5   2  4816.1   239.7   2-0.22256 0.09493-0.05496 0.55246 0.97337-0.82811  0 232.45 139.29   22.98 232.40 139.41   23.14
  -1   5   2  4456.7   289.3   2 0.05361-0.18124 0.54415-0.04648-0.83727 0.98234  0 405.33 374.20  233.01 405.64 374.04  233.07
   1  -5  -2  4259.0   172.1   1-0.66648 0.79421-0.25258-0.24481-0.70144 0.55614  0 218.04 365.24   62.70 218.07 365.00   62.67
   1  -5  -2  4262.9   276.1   2-0.15688 0.28454-0.56319 0.06555 0.81130-0.95642  0 370.59 392.94   54.06 370.56 392.84   54.35
   1  -5  -2  4740.6   239.6   2 0.11682 0.01081 0.03296-0.53062-0.99261 0.84754  0 206.40 161.97  202.00 206.28 162.04  201.88
   1  -5   2  3875.5   198.2   1-0.69771 0.82545-0.58591 0.08852-0.41220 0.55749  0 186.58 325.65   88.05 186.58 325.54   88.21
   1  -5   2  4629.2   274.0   2-0.22223 0.34986-0.05919-0.43831 0.97320-0.82794  0 355.93 397.73   23.36 355.89 397.57   23.39
   1  -5   2  4984.4   236.8   2 0.13134-0.00367-0.50202 0.00462-0.85483 0.99998  0 197.92 172.14  169.76 197.90 172.09  169.83
   1   5  -2  5245.5   275.8   1-0.48709 0.61482 0.16062 0.33676-0.85845 0.71316  0 463.07 230.79   35.23 463.20 230.92   35.10
   1   5  -2  4592.6   278.7   2 0.12112 0.00656-0.03433 0.53173-0.99204 0.84689  0 349.86 399.23  198.29 349.71 398.94  198.06
   1   5  -2  4184.6   223.3   2-0.23406 0.36169 0.57518-0.07743 0.78383-0.92908  0 194.57 176.65  344.49 194.48 176.81  344.38
   1   5   2  5463.7   282.1   1-0.16832 0.29605 0.56541-0.06803-0.80745 0.95275  0 446.18 186.17    5.00 446.22 186.29    5.10
   1   5   2  4815.5   228.3   2-0.23026 0.35789 0.06185 0.43565 0.97116-0.82591  0 187.31 188.01   16.42 187.30 188.01   16.43
   1   5   2  4233.9   261.4   2 0.05791 0.06972 0.51992-0.02225-0.85225 0.99732  0 334.39 401.89  231.35 334.41 401.67  231.41
  -1  -5  -3 126.157  95.774   1-0.47165 0.34393 0.18597-0.68335-0.86195 0.64401  0 178.77 326.24   33.36 179.01 325.87   33.39
  -1  -5  -3 138.983 141.582   2-0.14682 0.01916-0.61429 0.11665 0.77530-0.99299  0 442.81 351.87   58.01 443.04 352.05   57.98
  -1  -5  -3 391.384 151.302   2 0.11222-0.23984 0.09110-0.58877-0.98950 0.77190  0 261.39 116.04  205.42 261.48 115.92  205.22
  -1  -5   3 165.226  89.850   1-0.69572 0.56798-0.39660-0.10079-0.59890 0.81684  0 163.34 270.34   72.66 163.21 270.40   72.94
  -1  -5   3 235.035 155.633   2-0.23529 0.10766 0.16687-0.66437 0.95749-0.73961  0 425.69 370.54   10.26 425.94 370.35   10.35
  -1  -5   3 244.192 109.351   2 0.12232-0.24999-0.66619 0.16878-0.73569 0.95342  0 241.79 124.93  158.41 241.94 124.95  158.22
  -1   5  -3 146.927 137.452   1-0.64424 0.51650-0.17848 0.67587-0.74371 0.52577  0 457.19 183.98   57.47 457.18 184.22   57.63
  -1   5  -3 265.586 155.891   2 0.12422-0.25189-0.08802 0.58542-0.98834 0.77061  0 426.91 369.13  194.96 426.89 369.18  194.97
  -1   5  -3 194.562 103.756   2-0.23318 0.10555 0.59111-0.09336 0.77215-0.99002  0 242.63 124.30  342.92 242.68 124.57  343.23
  -1   5   3 273.005 110.918   2-0.21305 0.08542-0.16367 0.66118 0.96324-0.74535  0 225.41 135.54   29.47 225.27 135.40   29.42
  -1   5   3 243.884 156.736   2 0.03179-0.15941 0.65211-0.15445-0.75745 0.97506  0 408.18 384.20  240.47 408.25 384.18  240.86
   1  -5  -3 174.120  70.537   1-0.63102 0.75875-0.14060-0.35678-0.76292 0.54498  0 220.34 376.70   55.27 220.43 376.47   55.08
   1  -5  -3 252.464 148.187   2-0.13507 0.26272-0.66769 0.17005 0.73208-0.94977  0 379.29 399.32   61.72 379.22 399.41   61.98
   1  -5  -3 189.451 108.905   2 0.10759 0.02004 0.14488-0.64255-0.98358 0.76598  0 204.00 154.21  208.48 204.03 154.05  208.34
   1  -5   3 294.719  93.451   1-0.68747 0.81520-0.63988 0.14249-0.34343 0.56137  0 174.51 316.93   93.42 174.67 316.67   93.25
   1  -5   3 401.489 157.078   2-0.22980 0.35743 0.05380-0.55130 0.97175-0.75387  0 356.87 406.61   17.09 356.85 406.70   16.90
   1  -5   3 157.844  95.065   2 0.12567 0.00200-0.61964 0.12223-0.77476 0.99250  0 191.31 169.27  161.58 191.26 169.28  161.69
   1   5  -3 168.547 150.797   1-0.53225 0.65997 0.08023 0.41715-0.84278 0.62484  0 475.73 241.80   40.44 475.94 241.87   40.45
   1   5  -3  82.764 147.240   2 0.12739 0.00028-0.14920 0.64660-0.98057 0.76283  0 358.13 406.16  191.41 358.12 406.15  191.44
   1   5  -3 287.152 102.701   2-0.22681 0.35444 0.67739-0.17964 0.69979-0.91766  0 191.94 168.90  337.04 191.74 168.66  336.73
   1   5   3 299.220  99.444   2-0.22245 0.35008-0.05637 0.55387 0.97331-0.75543  0 180.51 185.71   23.29 180.71 185.63   23.22
   1   5   3 256.688 143.963   2 0.03451 0.09312 0.63967-0.14200-0.76788 0.98548  0 334.75 410.59  240.10 334.77 410.42  239.92
  -1  -5  -4 29768.4   509.7   1-0.42066 0.29294 0.26497-0.76235-0.86766 0.57707  0 173.89 336.62   28.21 173.96 336.46   27.99
  -1  -5  -4 24519.7   491.8   1-0.03934-0.08850-0.73484 0.23748 0.67710-0.96735  0 458.91 356.05  168.00 458.88 355.83  167.86
  -1  -5  -4 23991.8   517.9   2-0.12294-0.00471-0.71793 0.22029 0.68517-0.97542  0 455.35 359.58   65.99 455.58 359.58   65.97
  -1  -5  -4 27330.9   542.6   2 0.10282-0.23044 0.19277-0.69044-0.97584 0.68571  0 259.16 105.13  211.01 259.17 105.34  211.13
  -1  -5   4 22791.5   487.6   1-0.70256 0.57483-0.47771-0.01968-0.52745 0.81804  0 153.49 261.38   79.05 153.54 261.37   79.14
  -1  -5   4 24529.7   537.4   2-0.23813 0.11050 0.25792-0.75542 0.93636-0.64585  0 431.45 384.06    5.04 431.64 384.03    4.97
  -1  -5   4 24825.5   505.1   2 0.11298-0.24065-0.75548 0.25808-0.64536 0.93567  0 233.07 118.07  150.99 233.01 118.15  150.96
  -1   5  -4 24305.0   512.1   1-0.66181 0.53407-0.23575 0.73313-0.71164 0.42105  0 478.47 193.17   61.45 478.58 193.31   61.52
  -1   5  -4 24255.9   527.2   2 0.12906-0.25673-0.18562 0.68302-0.97411 0.68379  0 438.75 377.47  189.11 438.91 377.37  189.32
  -1   5  -4 23594.2   489.1   2-0.22540 0.09777 0.69229-0.19454 0.68551-0.97601  0 240.20 113.99  335.69 239.91 114.25  335.54
  -1   5   4 27072.8   530.5   2-0.20351 0.07588-0.25435 0.75186 0.94546-0.65495  0 216.57 129.25   34.97 216.49 129.36   34.74
  -1   5   4 25295.4   545.9   2 0.00982-0.13744 0.74266-0.24499-0.66960 0.95973  0 412.69 397.69  248.07 412.95 397.46  248.21
   1  -5  -4 25453.9   367.2   1-0.58449 0.71221-0.02626-0.47111-0.81098 0.52039  0 219.97 389.07   47.52 219.96 388.85   47.49
   1  -5  -4 25039.1   383.1   1-0.06322 0.19106-0.75018 0.25282 0.65821-0.94846  0 392.65 408.22  165.97 392.78 407.94  165.91
   1  -5  -4 24521.9   537.6   2-0.11319 0.24084-0.75535 0.25770 0.64548-0.93573  0 389.72 409.12   68.99 390.01 409.06   69.14
   1  -5  -4 27363.6   531.2   2 0.09788 0.02974 0.23860-0.73627-0.96617 0.67604  0 200.40 143.85  214.00 200.18 143.97  213.81
   1  -5   4 20996.0   453.5   1-0.67329 0.80103-0.68520 0.18782-0.27781 0.56840  0 161.41 308.07   97.98 161.46 307.99   97.88
   1  -5   4 24870.3   528.1   2-0.23469 0.36232 0.15062-0.64812 0.96033-0.66982  0 359.50 419.14   11.13 359.39 418.97   11.29
   1  -5   4 23103.7   484.2   2 0.11723 0.01044-0.71935 0.22194-0.68469 0.97500  0 182.82 164.56  153.88 182.82 164.56  154.01
   1   5  -4 24077.0   534.2   1-0.56586 0.69359 0.01364 0.48373-0.82439 0.53380  0 492.15 253.31   45.08 492.24 253.37   44.85
   1   5  -4 24835.7   534.1   2 0.13096-0.00329-0.24456 0.74196-0.96075 0.67043  0 368.69 416.75  186.00 368.52 416.48  185.86
   1   5  -4 23189.7   485.6   2-0.21738 0.34501 0.76186-0.26411 0.61018-0.90067  0 187.52 158.41  329.98 187.35 158.58  329.59
   1   5   4 25807.7   496.6   2-0.21357 0.34120-0.15820 0.65570 0.96403-0.67352  0 172.32 181.40   28.88 172.26 181.39   29.10
   1   5   4 24382.7   512.0   2 0.01066 0.11696 0.73946-0.24179-0.67312 0.96325  0 336.54 422.68  247.99 336.60 422.44  247.94
  -1  -5  -5  9134.8   312.6   1-0.37335 0.24563 0.33104-0.82842-0.86661 0.50338  0 166.66 348.02   23.32 166.70 347.85   23.35
  -1  -5  -5  7965.9   348.0   1-0.13955 0.01171-0.79360 0.29624 0.59223-0.95504  0 470.52 372.06  159.68 470.57 371.88  159.61
  -1  -5  -5  7106.7   365.2   2-0.09982-0.02783-0.80160 0.30396 0.58947-0.95228  0 471.21 370.14   73.08 471.46 370.19   73.36
  -1  -5  -5  4845.7   301.1   2 0.09359-0.22122 0.27580-0.77347-0.95665 0.59398  0 255.62  92.06  216.12 255.51  92.14  216.03
  -1  -5   5  6372.5   300.0   1-0.70140 0.57366-0.54930 0.05192-0.45420 0.81744  0 141.99 252.07   84.98 142.03 252.06   85.01
  -1  -5   5  7285.9   324.4   2 0.10223-0.22990-0.82660 0.32863-0.55343 0.91605  0 222.60 109.15  144.00 222.54 109.22  144.18
  -1   5  -5  7288.4   359.4   1-0.67263 0.54489-0.27632 0.77371-0.68645 0.32321  2 503.33 202.67   64.24 503.59 202.70   64.32
  -1   5  -5  7195.5   377.7   2 0.13146-0.25913-0.26560 0.76300-0.95508 0.59219  0 453.81 388.79  184.60 453.94 388.66  184.61
  -1   5  -5  6906.3   310.5   2-0.21549 0.08786 0.77543-0.27768 0.59353-0.95665  0 236.00 101.21  328.47 235.69 101.51  328.35
  -1   5   5  8100.2   340.9   2-0.19477 0.06714-0.32724 0.82474 0.92465-0.56152  0 206.15 121.24   39.00 206.11 121.38   39.12
  -1   5   5  7736.1   399.5   2-0.01186-0.11578 0.81580-0.31791-0.57821 0.94103  0 419.32 414.10  255.24 419.51 413.98  255.05
   1  -5  -5  7995.4   231.7   1-0.53159 0.65931 0.08147-0.57884-0.84307 0.47984  0 216.63 402.63   40.32 216.64 402.40   40.37
   1  -5  -5  8033.9   268.2   1-0.21851 0.34635-0.82907 0.33171 0.51469-0.87750  0 397.12 424.87  152.92 397.26 424.60  152.94
   1  -5  -5  7661.8   389.2   2-0.09215 0.21981-0.82624 0.32860 0.55572-0.91853  0 402.96 422.03   75.69 403.14 421.94   75.79
   1  -5  -5  7648.1   324.4   2 0.08893 0.03870 0.31424-0.81191-0.94517 0.58250  0 194.96 131.63  218.31 194.79 131.78  218.35
   1  -5   5  6779.7   293.8   1-0.65617 0.78405-0.72324 0.22561-0.21531 0.57824  0 146.80 299.43  102.04 146.95 299.47  102.20
   1  -5   5  8087.1   385.4   2-0.23743 0.36506 0.23028-0.72778 0.94372-0.58058  0 363.62 434.82    6.65 363.48 434.64    6.61
   1  -5   5  7280.5   314.8   2 0.10676 0.02092-0.79998 0.30201-0.59046 0.95308  0 172.65 158.15  146.73 172.60 158.01  146.80
   1   5  -5  7404.2   385.5   2 0.13241-0.00474-0.32076 0.81816-0.93786 0.57496  0 381.14 430.26  181.25 380.98 430.00  181.29
   1   5  -5  7191.5   315.5   2-0.20660 0.33423 0.82936-0.33162 0.51910-0.88222  0 181.49 146.38  322.80 181.36 146.53  322.99
   1   5   5  7691.0   315.9   2-0.20491 0.33254-0.24203 0.73953 0.94839-0.58525  0 161.95 175.45   34.00 161.91 175.47   34.02
   1   5   5  7249.2   361.7   2-0.01287 0.14051 0.81891-0.32101-0.57378 0.93659  0 339.77 438.04  255.28 339.64 437.77  255.36
  -1  -5  -6 11949.0   361.3   1-0.33252 0.20480 0.38413-0.88151-0.86132 0.42544  0 157.26 360.53   19.49 157.32 360.30   19.50
  -1  -5  -6  9347.2   414.8   1-0.23190 0.10406-0.83414 0.33678 0.50044-0.93582  0 486.23 390.46  151.99 486.21 390.30  151.79
  -1  -5  -6  9716.7   443.1   2-0.07801-0.04964-0.86669 0.36905 0.49271-0.92808  0 490.93 384.06   80.17 491.11 384.08   80.12
  -1  -5  -6 11203.6   395.8   2 0.08549-0.21311 0.34119-0.83886-0.93610 0.50089  0 250.84  76.03  220.02 250.57  76.20  219.99
  -1  -5   6  8468.4   345.5   1-0.69363 0.56590-0.61154 0.11415-0.38065 0.81653  0 128.82 242.32   90.47 128.70 242.30   90.55
  -1  -5   6  9557.9   385.5   2 0.09030-0.21797-0.88230 0.38433-0.46195 0.89710  0 210.54  98.40  138.21 210.54  98.38  138.05
  -1  -5   6 10542.6   481.3   2-0.23858 0.11094 0.38571-0.88335 0.89124-0.45540  0 450.00 421.55  357.00 450.30 421.37  356.86
  -1   5  -6 10025.3   458.0   2 0.13251-0.26018-0.32889 0.82629-0.93503 0.49955  0 472.40 403.41  180.81 472.46 403.31  180.80
  -1   5  -6  9468.6   373.6   2-0.20417 0.07654 0.84150-0.34375 0.50019-0.93593  0 230.37  85.92  322.02 230.08  86.15  321.69
  -1   5   6  9791.8   383.0   2-0.18697 0.05934-0.38400 0.88150 0.90420-0.46844  0 194.17 111.37   42.60 194.07 111.47   42.61
  -1   5   6  9998.2   463.1   2-0.03235-0.09529 0.87297-0.37507-0.48671 0.92209  0 428.33 434.32  261.00 428.37 434.12  261.32
   1  -5  -6 11366.4   276.3   1-0.47816 0.60588 0.17532-0.67270-0.86060 0.42472  0 210.59 417.63   34.07 210.56 417.41   34.11
   1  -5  -6  9761.9   303.4   1-0.34922 0.47709-0.86368 0.36605 0.36347-0.79899  0 405.39 444.35  141.29 405.41 444.12  141.32
   1  -5  -6  9971.2   461.9   2-0.07208 0.19973-0.88184 0.38419 0.46602-0.90139  0 418.75 438.54   82.01 418.92 438.36   81.91
   1  -5  -6 10448.9   396.9   2 0.08103 0.04660 0.37342-0.87109-0.92412 0.48891  0 188.03 117.27  222.01 187.87 117.43  221.98
   1  -5   6  8308.1   338.6   1-0.63666 0.76453-0.75535 0.25772-0.15530 0.59082  0 130.78 290.74  106.05 130.92 290.74  106.26
   1  -5   6  9092.7   445.7   2-0.23877 0.36640 0.29355-0.79105 0.92564-0.48988  0 369.17 454.16    3.00 369.02 453.93    2.84
   1  -5   6  9537.8   372.8   2 0.09473 0.03295-0.86372 0.36575-0.49499 0.93013  0 160.52 149.99  140.00 160.51 149.86  140.22
   1   5  -6 10185.0   465.4   2 0.13298-0.00531-0.37987 0.87728-0.91543 0.47996  0 395.68 447.33  177.70 395.82 447.12  177.66
   1   5  -6  9546.3   376.9   2-0.19487 0.32250 0.88184-0.38410 0.42940-0.86514  0 173.94 132.31  317.01 173.78 132.46  316.94
   1   5   6 10618.6   377.0   2-0.19710 0.32473-0.30855 0.80606 0.93056-0.49480  0 149.62 167.91   38.04 149.64 167.98   37.99
   1   5   6 10222.0   442.9   2-0.03497 0.16261 0.87956-0.38166-0.47450 0.90989  0 344.12 457.08  262.00 344.02 456.78  262.13
  -1  -5  -7 20912.2   481.6   1-0.29902 0.17130 0.42518-0.92255-0.85429 0.34576  0 145.73 374.36   16.41 145.76 374.18   16.44
  -1  -5  -7 19430.3   524.6   2 0.07850-0.20613 0.39118-0.88885-0.91696 0.40922  0 244.63  56.96  223.00 244.35  57.28  223.09
  -1  -5   7 15973.9   474.1   1-0.68032 0.55258-0.66512 0.16773-0.30787 0.81641  0 113.68 231.88   95.75 113.38 231.89   95.78
  -1  -5   7 16767.7   504.8   2 0.07796-0.20563-0.92450 0.42653-0.37312 0.88079  0 196.79  85.51  132.19 196.81  85.48  132.42
  -1  -5   7 16406.6   609.3   2-0.23814 0.11050 0.42730-0.92494 0.87218-0.36370  0 463.25 446.09  354.31 463.46 445.97  354.21
  -1   5  -7 17993.4   604.8   2 0.13298-0.26065-0.37739 0.87480-0.91646 0.40840  0 495.15 422.00  177.84 495.18 421.85  177.82
  -1   5  -7 16844.0   492.6   2-0.19200 0.06437 0.89249-0.39474 0.40817-0.91653  0 223.36  67.75  315.71 223.11  68.02  315.55
  -1   5   7 19030.4   528.7   2-0.18072 0.05309-0.42692 0.92442 0.88605-0.37766  0 180.33  99.51   45.21 180.20  99.60   45.31
  -1   5   7 17292.4   610.7   2-0.05139-0.07625 0.91634-0.41844-0.39709 0.90504  0 439.50 458.58  266.98 439.57 458.44  267.10
   1  -5  -7 20784.2   378.4   1-0.42978 0.55750 0.25129-0.74867-0.86726 0.35873  0 202.03 434.63   29.00 202.06 434.35   28.93
   1  -5  -7 16599.5   389.0   1-0.45055 0.57843-0.86519 0.36756 0.22012-0.72823  0 417.25 467.52  131.20 417.32 467.31  131.24
   1  -5  -7 16985.4   595.2   2-0.05361 0.18126-0.92418 0.42653 0.37819-0.88612  0 437.59 459.01   87.66 437.86 458.85   87.60
   1  -5  -7 19219.5   530.8   2 0.07441 0.05322 0.41840-0.91607-0.90521 0.39747  0 179.47 100.55  225.09 179.30 100.74  224.79
   1  -5   7 16352.3   483.5   1-0.61502 0.74290-0.78244 0.28481-0.09769 0.60580  0 113.27 281.77  110.05 113.14 281.77  110.11
   1  -5   7 18219.7   515.0   2 0.08193 0.04574-0.91226 0.41430-0.40133 0.90899  0 146.29 140.13  133.99 146.38 140.09  134.18
   1   5  -7 17889.9   606.3   2 0.13298-0.00531-0.42441 0.92181-0.89565 0.38760  0 413.34 468.51  175.04 413.43 468.27  174.86
   1   5  -7 16689.4   498.7   2-0.18283 0.31046 0.92155-0.42381 0.34252-0.85088  0 164.63 116.07  311.55 164.49 116.22  311.36
   1   5   7 18556.8   499.1   2-0.19032 0.31795-0.35973 0.85723 0.91344-0.40505  0 135.30 158.91   40.87 135.28 158.96   41.11
   1   5   7 16772.5   556.8   2-0.05547 0.18311 0.92417-0.42628-0.37792 0.88587  0 349.81 480.29  268.28 349.61 479.93  268.31
  -1  -5  -8  2753.3   277.5   1-0.27293 0.14520 0.45555-0.95293-0.84734 0.26616  0 131.92 389.81   13.76 131.95 389.89   14.11
  -1  -5  -8  2537.9   308.6   2 0.07294-0.20056 0.42810-0.92577-0.90078 0.32051  0 236.96  35.01  225.43 236.80  34.88  225.40
  -1  -5   8  1740.0   234.8   1-0.66246 0.53459-0.71057 0.21294-0.23715 0.81785  0  96.08 220.63  101.13  95.95 220.68  100.71
  -1  -5   8  1573.7   251.2   2 0.06548-0.19316-0.95545 0.45748-0.28780 0.86799  0 180.85  69.95  127.32 181.11  70.30  127.19
  -1  -5   8  1905.0   381.0   2-0.23756 0.10992 0.45724-0.95488 0.85703-0.27591  0 479.34 475.35  352.42 479.79 475.70  352.28
  -1   5  -8  1991.4   262.8   2-0.17936 0.05173 0.93064-0.43289 0.31897-0.89996  0 214.65  46.60  310.06 214.64  46.61  309.90
  -1   5   8  1785.3   254.2   2-0.17589 0.04826-0.45824 0.95574 0.87125-0.29023  0 164.48  85.73   47.24 164.23  85.59   47.31
  -1   5   8  1887.0   375.1   2-0.06908-0.05856 0.94805-0.45016-0.31052 0.89103  0 453.58 488.04  272.44 453.55 487.92  272.47
   1  -5  -8  2223.6   212.4   1-0.38898 0.51670 0.30941-0.80679-0.86773 0.28656  0 191.23 454.06   24.95 191.28 453.81   24.87
   1  -5  -8  1882.4   234.4   1-0.52722 0.65509-0.84492 0.34729 0.09030-0.67100  0 432.86 495.70  122.53 432.95 495.41  122.53
   1  -5  -8  1985.1   368.9   2-0.03636 0.16401-0.95531 0.45767 0.29337-0.87387  0 460.52 484.30   92.56 460.80 484.35   92.89
   1  -5  -8  2271.0   272.1   2 0.06936 0.05827 0.45151-0.94918-0.88956 0.30929  0 169.09  81.35  226.71 168.95  81.35  226.90
   1  -5   8  1815.1   231.8   1-0.59168 0.71955-0.80508 0.30745-0.04197 0.62267  0  93.41 272.36  113.79  93.34 272.36  113.80
   1  -5   8  1342.8   223.4   2 0.06881 0.05886-0.94795 0.44998-0.31091 0.89110  0 129.86 128.50  128.34 129.95 128.60  128.58
   1   5  -8  2133.7   378.9   2 0.13236-0.00468-0.45683 0.95424-0.87965 0.29902  0 434.78 495.15  173.05 434.52 494.45  172.79
   1   5  -8  1837.8   248.9   2-0.17036 0.29799 0.95065-0.45291 0.25929-0.84028  0 153.29  97.44  306.42 153.32  97.49  306.21
   1   5   8  1758.6   233.5   2-0.18504 0.31267-0.39767 0.89517 0.89868-0.31766  0 118.63 148.24   43.46 118.51 148.39   43.47
  -1  -5  -9 493.388 178.239   1-0.25415 0.12642 0.47668-0.97405-0.84154 0.18772  0 115.49 408.23   12.22 115.60 408.05   12.45
  -1  -5  -9 263.727 220.442   2 0.06894-0.19657 0.45413-0.95180-0.88826 0.23546  2 227.86   8.46  227.03 227.81   8.27  227.07
  -1  -5   9 463.211 179.018   1-0.64082 0.51295-0.74920 0.25157-0.16744 0.82073  0  75.66 208.17  105.37  75.75 208.14  105.44
  -1  -5   9 437.681 222.058   2 0.05288-0.18055-0.97706 0.47910-0.20628 0.85899  0 162.98  52.40  122.48 162.99  52.37  122.33
  -1   5  -9 471.188 226.522   2-0.16641 0.03879 0.95806-0.46032 0.23330-0.88691  0 204.57  20.87  304.45 204.48  21.22  304.62
  -1   5   9 345.929 215.434   2-0.17221 0.04458-0.47991 0.97741 0.86025-0.20660  0 145.90  69.29   48.89 145.74  69.09   48.72
   1  -5  -9 519.894 148.293   1-0.35887 0.48659 0.35031-0.84768-0.86516 0.21134  0 178.61 476.82   22.00 178.43 476.80   21.96
   1  -5  -9 462.025 234.237   2 0.06561 0.06201 0.47475-0.97241-0.87767 0.22487  0 156.30  58.91  228.51 156.47  58.72  228.42
   1  -5   9 368.277 166.752   1-0.56696 0.69484-0.82365 0.32602 0.01227 0.64102  0  70.80 262.12  117.38  71.03 262.28  117.37
   1  -5   9 282.435 196.819   2 0.05575 0.07193-0.97291 0.47494-0.22436 0.87707  0 110.68 115.28  123.46 110.72 115.15  123.41
   1   5  -9 351.028 208.552   2-0.15797 0.28560 0.97094-0.47320 0.17976-0.83338  0 140.33  76.03  301.64 139.92  75.74  301.39
   1   5   9 427.052 191.521   2-0.18107 0.30870-0.42456 0.92206 0.88711-0.23346  0  98.78 135.94   45.47  98.92 136.14   45.16
  -1  -5 -10 224.265 198.006   1-0.24214 0.11442 0.48983-0.98721-0.83752 0.11105  0  95.99 429.97   11.39  96.30 429.49   11.41
  -1  -5  10-272.711 198.275   1-0.61575 0.48788-0.78162 0.28400-0.09955 0.82542  0  52.07 193.85  110.14  52.26 193.84  109.98
  -1  -5  10 174.189 259.585   2 0.04037-0.16804-0.99089 0.49293-0.12845 0.85369  0 141.98  31.47  118.00 141.88  31.17  117.76
  -1   5  10  29.101 254.401   2-0.16952 0.04187-0.49331 0.99095 0.85318-0.12756  0 123.90  49.28   49.62 124.20  49.66   49.61
   1  -5 -10 463.746 267.609   2 0.06309 0.06454 0.48977-0.98744-0.86957 0.14423  0 141.77  32.02  229.41 141.41  31.93  229.39
   1  -5  10-161.095 172.214   1-0.54055 0.66843-0.83880 0.34117 0.06496 0.66091  0  46.36 251.25  120.52  45.47 251.19  120.86
   1  -5  10 158.683 215.395   2 0.04249 0.08518-0.98899 0.49102-0.14174 0.86697  0  88.35  99.33  118.51  88.11  99.49  118.54
   1   5 -10  66.172 235.680   2-0.14527 0.27291 0.98384-0.48594 0.10465-0.83029  0 123.96  50.08  296.56 123.98  50.06  297.00
   1   5  10 -81.139 197.047   2-0.17841 0.30604-0.44219 0.93969 0.87900-0.15273  0  75.83 122.06   46.08  75.80 121.93   46.28
  -1  -6   0 607.544 124.390   1-0.64291 0.51518-0.17451-0.42236-0.74579 0.74579  0 156.52 311.78   57.35 156.36 311.75   57.36
  -1  -6   0 583.044 187.536   2-0.20183 0.07420-0.26899-0.32801 0.94176-0.94176  0 451.83 378.16   35.52 452.13 378.33   35.62
  -1  -6   0 808.693 144.429   2 0.13273-0.26040-0.34049-0.25640-0.93083 0.93083  0 243.57 104.58  180.38 243.59 104.56  180.09
  -1   6   0 629.479 165.903   1-0.45347 0.32574 0.21505 0.38180-0.86494 0.86494  0 444.38 130.44   31.37 444.54 130.42   31.41
  -1   6   0 735.404 153.635   2-0.23819 0.11056 0.26122 0.33578 0.93543-0.93543  0 222.26 116.92    4.64 222.33 116.89    4.77
  -1   6   0 823.595 210.955   2 0.08679-0.21442 0.33078 0.26642-0.93971 0.93971  0 430.15 397.12  219.32 430.30 396.91  219.36
   1  -6   0 493.023 116.963   1-0.70188 0.82962-0.46231-0.13455-0.54188 0.54188  0 182.86 361.55   78.29 182.88 361.35   77.93
   1  -6   0 504.645 193.736   2-0.19122 0.31885-0.35302-0.24398 0.91587-0.91587  0 381.67 421.41   40.69 381.73 421.64   40.70
   1  -6   0 518.809 135.619   2 0.13186-0.00419-0.28389-0.31299-0.94975 0.94975  0 188.05 147.54  183.48 188.20 147.51  183.52
   1   6   0 712.033 190.673   1-0.33312 0.46085 0.38338 0.21347-0.86142 0.86142  0 487.33 187.87   19.44 487.35 187.82   19.56
   1   6   0 878.244 201.409   2 0.09154 0.03608 0.29267 0.30453-0.95182 0.95182  0 355.15 428.42  217.33 354.91 428.31  217.04
   1   6   0 635.719 137.352   2-0.23858 0.36622 0.36322 0.23394 0.90064-0.90064  0 173.87 166.40  358.26 174.09 166.33  358.26
  -1  -6  -1  6179.9   271.5   1-0.61161 0.48387-0.08996-0.50691-0.78603 0.71338  0 158.48 321.63   51.94 158.55 321.46   51.71
  -1  -6  -1  5754.0   351.1   2-0.18662 0.05899-0.38654-0.21046 0.90319-0.97582  0 456.46 376.73   43.03 456.55 376.71   42.77
  -1  -6  -1  5637.4   285.8   2 0.13045-0.25812-0.22706-0.36982-0.96510 0.89253  0 246.20 101.53  186.99 246.14 101.69  186.89
  -1  -6   1  5734.0   269.8   1-0.66805 0.54032-0.25848-0.33838-0.69778 0.77043  0 152.03 302.47   62.95 152.14 302.36   63.08
  -1  -6   1  5458.9   351.2   2-0.21402 0.08639-0.15345-0.44355 0.96470-0.89207  0 450.19 382.88   29.01 450.31 382.96   28.83
  -1  -6   1  6097.8   295.7   2 0.13244-0.26011-0.45209-0.14479-0.88208 0.95466  0 239.55 104.87  172.96 239.49 104.99  173.10
  -1   6  -1  6295.3   333.3   1-0.52053 0.39281 0.10194 0.49491-0.84774 0.77509  0 458.05 140.44   39.00 458.04 140.71   39.01
  -1   6  -1  6439.4   371.0   2 0.09991-0.22753 0.22014 0.37706-0.97034 0.89781  0 434.71 396.18  212.77 434.88 395.99  212.73
  -1   6  -1  5724.5   284.5   2-0.23860 0.11096 0.37463 0.22254 0.89595-0.96859  0 224.54 113.73  357.62 224.44 113.87  357.55
  -1   6   1  6542.1   296.9   1-0.36359 0.23587 0.34407 0.25278-0.86569 0.93833  0 433.77 118.89   22.34 433.92 119.23   22.41
  -1   6   1  6227.9   297.2   2-0.23464 0.10701 0.14955 0.44745 0.96051-0.88788  0 218.66 117.59   11.26 218.58 117.74   11.36
  -1   6   1  6005.9   377.8   2 0.07102-0.19864 0.44051 0.15669-0.89493 0.96747  0 427.84 401.12  226.20 428.04 400.93  226.19
   1  -6  -1  5094.8   223.8   1-0.69510 0.82284-0.39193-0.20494-0.60269 0.53004  0 189.85 372.24   72.64 189.98 372.03   72.59
   1  -6  -1  5432.8   348.1   2-0.17561 0.30324-0.45999-0.13701 0.87038-0.94301  0 386.33 421.94   47.41 386.59 421.91   47.43
   1  -6  -1  6075.4   295.1   2 0.12830-0.00063-0.17026-0.42662-0.97701 0.90443  0 189.54 143.86  190.00 189.55 143.89  190.22
   1  -6   1  4968.7   246.4   1-0.70269 0.83042-0.52531-0.07155-0.47987 0.55252  0 174.01 351.42   82.83 174.09 351.31   83.00
   1  -6   1  5764.3   354.9   2-0.20458 0.33221-0.24501-0.35199 0.94769-0.87506  0 378.82 424.54   34.09 378.76 424.52   34.19
   1  -6   1  5650.9   282.0   2 0.13305-0.00538-0.39840-0.19848-0.90751 0.98009  0 185.11 149.01  176.52 185.09 149.05  176.51
   1   6  -1  6298.9   342.9   1-0.39862 0.52635 0.29617 0.30068-0.86798 0.79533  0 494.52 199.36   26.14 494.61 199.51   25.81
   1   6  -1  5719.8   352.9   2 0.10460 0.02302 0.17539 0.42181-0.97893 0.90639  0 359.88 429.45  210.01 359.85 429.19  210.11
   1   6  -1  5317.8   270.4   2-0.23713 0.36477 0.47070 0.12646 0.84983-0.92247  0 175.04 162.33  351.56 175.09 162.44  351.38
   1   6   1  6552.3   341.3   1-0.25658 0.38430 0.47395 0.12290-0.84234 0.91499  0 483.58 175.36   12.66 483.57 175.54   12.67
   1   6   1  5876.6   284.9   2-0.23803 0.36566 0.25338 0.34362 0.93762-0.86500  0 171.29 168.03    5.01 171.25 168.12    5.24
   1   6   1  5961.7   351.7   2 0.07554 0.05209 0.41085 0.18635-0.90857 0.98110  0 351.55 430.76  224.02 351.62 430.61  224.31
  -1  -6  -2 647.459 136.160   1-0.57587 0.44815-0.00753-0.58932-0.81751 0.67221  0 158.53 331.93   46.23 158.70 331.63   46.25
  -1  -6  -2 745.456 200.604   2-0.16835 0.04070-0.50028-0.09689 0.84934-0.99446  0 463.64 378.20   50.44 463.78 378.15   50.07
  -1  -6  -2 685.388 145.907   2 0.12573-0.25340-0.11706-0.47982-0.98513 0.83998  0 247.02  96.07  192.92 247.13  96.28  193.30
  -1  -6   2 535.576 132.290   1-0.68668 0.55895-0.33933-0.25753-0.64290 0.78820  0 146.58 293.15   69.11 145.99 293.15   68.77
  -1  -6   2 768.555 213.083   2-0.22330 0.09567-0.04517-0.55183 0.97370-0.82845  0 450.88 390.42   22.56 451.08 390.65   22.58
  -1  -6   2 753.395 157.837   2 0.12922-0.25689-0.55691-0.03997-0.82046 0.96561  0 234.06 102.99  165.97 233.81 103.06  166.13
  -1   6  -2 634.623 183.434   1-0.56863 0.44091 0.00785 0.58900-0.82255 0.67726  0 474.40 150.53   45.35 474.65 150.37   45.24
  -1   6  -2 545.160 212.255   2 0.11034-0.23796 0.11359 0.48361-0.98738 0.84231  0 441.94 398.09  206.41 442.00 398.14  206.52
  -1   6  -2 571.798 145.027   2-0.23681 0.10917 0.48420 0.11296 0.84230-0.98758  0 224.98 108.40  350.59 224.96 108.41  350.50
  -1   6   2 726.120 164.039   1-0.25046 0.12274 0.48074 0.11611-0.84033 0.98562  0 426.17 106.71   12.27 426.24 106.86   12.13
  -1   6   2 547.203 145.018   2-0.22923 0.10160 0.04422 0.55278 0.97237-0.82711  0 213.11 116.41   17.42 213.20 116.39   17.45
  -1   6   2 701.804 214.769   2 0.05353-0.18115 0.54461 0.05259-0.83698 0.98205  0 427.79 408.00  232.99 428.14 408.10  233.10
   1  -6  -2 472.318 110.932   1-0.68164 0.80938-0.31489-0.28198-0.66047 0.51517  0 195.19 383.64   67.02 195.19 383.53   67.02
   1  -6  -2 633.159 209.419   2-0.15729 0.28495-0.56100-0.03617 0.81274-0.95786  0 393.22 425.35   53.93 393.49 425.34   54.20
   1  -6  -2 539.669 142.368   2 0.12280 0.00487-0.06261-0.53427-0.99045 0.84530  0 189.23 138.27  196.32 189.22 138.19  196.43
   1  -6   2 631.500 124.728   1-0.69835 0.82609-0.58100-0.01586-0.41802 0.56332  0 163.70 341.94   88.20 163.78 341.80   87.77
   1  -6   2 657.746 205.695   2-0.21521 0.34284-0.14070-0.45630 0.96638-0.82112  0 377.58 430.53   27.96 377.64 430.61   28.09
   1  -6   2 666.947 147.076   2 0.13103-0.00336-0.50866-0.08822-0.85094 0.99610  0 180.33 148.65  169.41 180.24 148.58  169.39
   1   6  -2 658.271 196.337   1-0.45280 0.58052 0.21610 0.38075-0.86503 0.71974  2 504.33 211.14   31.33 505.37 210.99   31.34
   1   6  -2 643.521 205.877   2 0.11433 0.01329 0.06461 0.53259-0.99134 0.84627  0 366.70 433.15  203.46 366.62 433.28  203.70
   1   6  -2 635.944 144.775   2-0.23423 0.36186 0.57128 0.02601 0.78662-0.93187  0 174.01 156.58  344.79 174.17 156.58  344.66
   1   6   2 617.813 195.201   1-0.17068 0.29841 0.56313 0.03372-0.80855 0.95384  0 483.10 162.39    5.37 483.28 162.43    5.30
   1   6   2 651.429 140.740   2-0.23450 0.36213 0.14611 0.45089 0.96107-0.81582  0 166.55 168.13   11.54 166.58 168.12   11.56
   1   6   2 452.895 193.825   2 0.05717 0.07045 0.52406 0.07314-0.84976 0.99483  0 349.91 436.39  231.81 349.99 436.21  231.69
  -1  -6  -3 28166.3   533.1   1-0.53768 0.40996 0.06999-0.66684-0.84024 0.62230  0 156.64 342.54   41.00 156.71 342.38   41.13
  -1  -6  -3 25230.7   581.1   2-0.14865 0.02100-0.60521 0.00804 0.78206-0.99975  0 473.81 382.61   57.23 474.08 382.70   57.32
  -1  -6  -3 26407.2   544.4   2 0.11984-0.24752-0.01533-0.58156-0.99267 0.77494  0 246.77  88.08  199.00 246.65  88.34  199.15
  -1  -6   3 24480.0   527.9   1-0.69801 0.57027-0.41548-0.18139-0.58324 0.80118  0 137.85 284.08   74.28 137.92 284.01   74.35
  -1  -6   3 24822.2   599.1   2-0.22969 0.10206 0.05190-0.64890 0.97188-0.75400  0 454.24 401.61   17.00 454.41 401.56   17.00
  -1  -6   3 25507.0   543.9   2 0.12343-0.25110-0.65133 0.05444-0.74869 0.96643  0 226.60  98.74  159.05 226.58  98.83  159.34
  -1   6  -3 26206.7   561.0   1-0.60245 0.47471-0.06744 0.66431-0.79530 0.57736  0 494.47 159.42   50.03 494.64 159.65   50.22
  -1   6  -3 25434.3   597.2   2 0.11800-0.24563 0.01532 0.58188-0.99290 0.77529  0 451.64 403.57  200.79 451.85 403.47  200.88
  -1   6  -3 25382.2   546.2   2-0.23351 0.10588 0.58534 0.01195 0.77644-0.99431  0 224.03 100.32  343.78 223.72 100.56  343.66
  -1   6   3 26868.6   568.3   2-0.22286 0.09523-0.05104 0.64804 0.97351-0.75563  0 206.25 112.78   23.00 206.16 112.90   22.92
  -1   6   3 25341.4   607.1   2 0.03461-0.16223 0.63921-0.04201-0.76826 0.98586  0 430.15 418.68  240.00 430.43 418.45  239.88
   1  -6  -3 24313.8   408.8   1-0.66099 0.78873-0.23288-0.36399-0.71334 0.49540  0 198.26 396.26   61.17 198.31 396.02   61.32
   1  -6  -3 25439.5   591.7   2-0.13850 0.26615-0.65295 0.05578 0.74463-0.96232  0 402.30 432.07   61.00 402.56 432.02   60.85
   1  -6  -3 29271.2   586.6   2 0.11668 0.01094 0.03471-0.63191-0.99256 0.77496  0 187.34 130.23  202.10 187.14 130.35  201.98
   1  -6   3 21855.9   478.9   1-0.68985 0.81759-0.62986 0.03299-0.35691 0.57486  0 151.91 332.79   91.89 151.99 332.67   92.28
   1  -6   3 25064.4   582.9   2-0.22337 0.35100-0.04428-0.55272 0.97373-0.75585  0 378.37 440.16   22.55 378.26 439.98   22.53
   1  -6   3 24501.1   531.6   2 0.12627 0.00140-0.61013 0.01325-0.78217 0.99991  0 173.60 146.16  162.19 173.61 146.15  162.38
   1   6  -3 25268.0   589.0   2 0.12122 0.00645-0.03598 0.63286-0.99197 0.77424  0 375.31 440.88  198.16 375.06 440.58  197.96
   1   6  -3 25502.1   542.7   2-0.22822 0.35585 0.66140-0.06410 0.71447-0.93234  0 171.79 148.50  338.07 171.65 148.71  337.98
   1   6   3 26897.3   543.6   2-0.22934 0.35697 0.04610 0.55090 0.97225-0.75437  0 160.08 166.23   17.26 160.04 166.26   17.34
   1   6   3 26646.7   590.6   2 0.03717 0.09045 0.62736-0.03016-0.77784 0.99544  0 349.80 445.45  239.05 349.87 445.12  239.00
  -1  -6  -4 -93.416 107.777   1-0.49893 0.37121 0.14031-0.73716-0.85521 0.56462  0 152.08 353.93   36.39 152.56 353.94   36.46
  -1  -6  -4 320.453 207.660   1-0.01438-0.11347-0.71802 0.12120 0.69587-0.98612  0 494.72 382.99  169.44 494.39 383.12  169.89
  -1  -6  -4 -38.532 206.157   2-0.12792 0.00026-0.69792 0.10075 0.70466-0.99491  0 487.47 390.20   64.42 487.66 390.40   64.35
  -1  -6  -4  87.478 134.566   2 0.11353-0.24116 0.07435-0.67155-0.99075 0.70061  0 244.58  77.26  203.94 244.58  77.67  204.26
  -1  -6   4 218.745 125.558   1-0.70287 0.57514-0.48551-0.11135-0.51985 0.81044  0 127.77 274.77   79.38 127.96 274.74   79.76
  -1  -6   4  87.248 213.051   2-0.23406 0.10643 0.13568-0.73268 0.96271-0.67220  0 460.02 415.78   12.05 460.19 415.73   12.16
  -1  -6   4  -8.913 137.644   2 0.11569-0.24336-0.73331 0.13643-0.66998 0.96029  0 217.72  92.62  152.93 217.79  92.39  152.85
  -1   6  -4 112.349 222.670   2 0.12337-0.25105-0.07230 0.66918-0.98972 0.69941  0 464.64 412.10  195.37 464.50 412.05  195.87
  -1   6  -4  79.995 134.105   2-0.22698 0.09935 0.67559-0.07829 0.70147-0.99197  0 221.06  89.93  336.87 221.17  90.22  336.87
  -1   6   4-191.980 127.388   2-0.21583 0.08820-0.13397 0.73097 0.96720-0.67669  0 197.70 106.81   27.54 197.48 107.30   27.70
  -1   6   4  72.563 216.067   2 0.01515-0.14277 0.72201-0.12481-0.69172 0.98186  0 435.22 432.10  246.54 434.94 432.20  246.45
   1  -6  -4  39.169  91.835   1-0.63407 0.76181-0.14913-0.44774-0.75876 0.46817  0 199.13 409.42   55.55 199.21 409.74   55.66
   1  -6  -4  78.244 146.622   1-0.02183 0.14967-0.72311 0.12628 0.69039-0.98064  0 421.55 438.73  169.37 421.48 438.82  169.29
   1  -6  -4 -83.238 208.939   2-0.11902 0.24668-0.73347 0.13630 0.66922-0.95946  0 414.05 442.32   67.64 413.97 442.01   67.27
   1  -6  -4 167.793 137.512   2 0.10975 0.01788 0.12009-0.71729-0.98668 0.69654  0 183.60 120.51  206.63 183.54 120.36  206.90
   1  -6   4 202.500 124.298   1-0.67788 0.80562-0.67251 0.07565-0.29699 0.58759  0 139.00 323.75   96.61 138.72 323.78   96.54
   1  -6   4-103.358 205.013   2-0.22918 0.35681 0.04141-0.63841 0.97250-0.68199  0 380.54 453.17   17.45 380.61 452.86   17.60
   1  -6   4  47.524 129.869   2 0.11927 0.00840-0.69977 0.10289-0.70434 0.99466  0 164.99 141.81  155.40 165.16 141.83  155.59
   1   6  -4  89.685 219.655   2 0.12603 0.00164-0.12304 0.71992-0.98437 0.69405  0 385.95 451.54  193.07 385.73 451.30  192.96
   1   6  -4-161.799 114.032   2-0.22025 0.34788 0.73941-0.14212 0.63621-0.92670  0 167.25 138.61  331.80 167.43 138.82  331.59
   1   6   4 131.419 128.896   2-0.22341 0.35104-0.04326 0.64026 0.97376-0.68325  0 151.82 162.75   22.49 151.56 162.61   22.47
   1   6   4   5.367 194.183   2 0.01627 0.11135 0.71753-0.12033-0.69633 0.98647  0 351.12 457.54  245.92 351.19 457.50  246.08
  -1  -6  -5  4691.2   272.8   1-0.46184 0.33411 0.20184-0.79869-0.86369 0.50046  0 146.17 366.76   32.34 146.24 366.54   32.31
  -1  -6  -5  3485.6   370.5   2-0.10718-0.02047-0.77666 0.17949 0.62074-0.98355  2 504.26 401.41   70.94 505.02 401.52   71.04
  -1  -6  -5  4238.8   299.7   2 0.10695-0.23457 0.15153-0.74873-0.98265 0.61998  0 241.49  64.13  208.67 241.30  64.20  208.73
  -1  -6   5  3005.4   265.5   1-0.70142 0.57368-0.54909-0.04778-0.45444 0.81768  0 116.31 265.33   85.10 116.08 265.28   84.99
  -1  -6   5  4286.4   439.0   2-0.23664 0.10901 0.20561-0.80261 0.94959-0.58645  0 468.63 433.55    8.30 468.65 433.60    8.07
  -1  -6   5  3582.1   297.1   2 0.10645-0.23412-0.80192 0.20436-0.58787 0.95049  0 207.41  83.71  146.51 207.34  83.62  146.61
  -1   6  -5  3701.3   429.1   2 0.12716-0.25484-0.14679 0.74368-0.98096 0.61807  0 480.66 424.12  191.50 480.71 424.17  191.58
  -1   6  -5  3443.9   287.2   2-0.21855 0.09092 0.75316-0.15587 0.62047-0.98358  0 217.34  77.01  330.49 217.10  77.31  330.37
  -1   6   5  3986.5   307.7   2-0.20900 0.08137-0.20386 0.80086 0.95643-0.59329  0 187.07  99.61   31.65 187.03  99.66   31.76
  -1   6   5  4008.7   437.7   2-0.00431-0.12333 0.79219-0.19471-0.61026 0.97308  0 441.31 449.66  252.71 441.57 449.67  252.73
   1  -6  -5  3968.4   211.1   1-0.60252 0.73026-0.06761-0.52925-0.79523 0.43199  0 197.75 425.17   50.21 197.69 424.92   50.24
   1  -6  -5  3431.5   287.2   1-0.16160 0.28944-0.80447 0.20764 0.57159-0.93440  0 423.60 458.06  157.73 423.71 457.69  157.77
   1  -6  -5  3540.5   410.0   2-0.09977 0.22743-0.80177 0.20460 0.58925-0.95206  0 427.82 455.85   73.18 428.06 455.69   73.38
   1  -6  -5  4232.5   313.3   2 0.10287 0.02476 0.19229-0.78949-0.97593 0.61326  0 178.33 107.99  210.97 178.28 108.11  211.10
   1  -6   5  3172.8   256.0   1-0.66291 0.79078-0.70962 0.11246-0.23874 0.60167  0 124.17 315.12  100.58 123.94 315.15  100.60
   1  -6   5  3791.1   409.5   2-0.23304 0.36067 0.11497-0.71197 0.96565-0.60251  0 384.50 469.72   13.33 384.63 469.42   13.36
   1  -6   5  3398.2   292.9   2 0.11030 0.01737-0.77584 0.17828-0.62121 0.98383  0 154.86 135.71  149.30 154.79 135.58  149.04
   1   6  -5  3624.6   420.1   2 0.12946-0.00179-0.19622 0.79311-0.97198 0.60908  0 398.73 465.98  188.71 398.80 465.72  188.70
   1   6  -5  3389.7   287.3   2-0.21093 0.33856 0.80492-0.20762 0.55463-0.91775  0 161.58 126.63  325.66 161.48 126.88  325.50
   1   6   5  3757.4   283.3   2-0.21707 0.34470-0.12025 0.71725 0.96872-0.60558  0 141.15 157.20   26.73 141.12 157.23   26.91
   1   6   5  3840.1   401.5   2-0.00463 0.13227 0.79326-0.19578-0.60887 0.97169  0 353.78 473.92  253.05 353.77 473.57  252.83
  -1  -6  -6   3.967 130.827   1-0.42810 0.30038 0.25379-0.85065-0.86736 0.43148  0 137.49 381.16   28.38 137.71 380.46   28.76
  -1  -6  -6 106.069 162.214   2 0.10040-0.22803 0.21557-0.81277-0.97131 0.53611  0 236.55  47.65  212.37 236.64  47.69  212.46
  -1  -6   6 -70.931 122.691   1-0.69468 0.56694-0.60582 0.00896-0.38782 0.82371  0 101.90 255.66   90.13 102.16 255.39   90.02
  -1  -6   6-176.224 291.067   2-0.23822 0.11059 0.26231-0.85931 0.93512-0.49935  0 479.71 455.14    4.39 479.94 455.62    4.71
  -1  -6   6 140.593 173.879   2 0.09592-0.22360-0.85836 0.26080-0.50400 0.93914  0 195.46  73.27  141.10 195.14  72.73  140.81
  -1   6  -6  96.895 277.502   2 0.12989-0.25757-0.20849 0.80537-0.96936 0.53389  0 501.17 440.29  188.05 501.01 440.23  187.98
  -1   6  -6 118.517 158.955   2-0.20865 0.08102 0.81786-0.22056 0.53626-0.97200  0 211.53  61.35  324.43 211.55  61.56  324.20
  -1   6   6  23.452 159.777   2-0.20275 0.07512-0.26106 0.85806 0.94379-0.50803  0 174.77  89.75   35.48 174.73  89.94   35.14
  -1   6   6  89.141 293.725   2-0.02356-0.10408 0.84975-0.25227-0.52666 0.96204  0 450.62 471.29  258.56 450.82 471.37  258.63
   1  -6  -6  17.904 101.484   1-0.56869 0.69641 0.00773-0.60459-0.82252 0.38664  0 193.99 442.13   45.47 193.85 442.13   45.24
   1  -6  -6-181.531 180.822   1-0.28889 0.41677-0.85175 0.25460 0.43711-0.87263  0 428.99 480.38  146.48 429.29 479.93  146.81
   1  -6  -6 257.356 279.484   2-0.08117 0.20882-0.85803 0.26086 0.50715-0.94252  0 445.24 473.53   79.41 445.28 473.51   79.14
   1  -6  -6-308.863 152.138   2 0.09640 0.03122 0.25158-0.84878-0.96302 0.52782  0 171.19  93.11  214.53 171.32  93.45  214.58
   1  -6   6 -57.261 146.981   1-0.64556 0.77344-0.74180 0.14464-0.18163 0.61715  0 107.44 306.23  104.39 107.39 306.38  104.49
   1  -6   6  67.645 270.429   2-0.23563 0.36326 0.17608-0.77308 0.95576-0.52000  0 390.43 490.54    9.50 390.36 490.23    9.81
   1  -6   6  13.899 150.974   2 0.09992 0.02776-0.83900 0.24144-0.53488 0.97002  0 142.54 127.58  142.48 142.37 127.65  142.91
   1   6  -6-183.698 271.195   2 0.13122-0.00355-0.25588 0.85276-0.95776 0.52229  0 414.37 484.47  185.13 414.51 484.29  185.19
   1   6  -6  81.073 143.256   2-0.20053 0.32816 0.85846-0.26116 0.47206-0.90780  0 153.88 112.98  319.07 153.74 112.68  319.78
   1   6   6  91.378 149.275   2-0.21100 0.33863-0.18439 0.78139 0.95994-0.52417  0 128.75 150.33   30.91 128.52 150.20   30.63
   1   6   6 228.626 257.496   2-0.02528 0.15292 0.85449-0.25701-0.51885 0.95423  0 358.01 493.92  259.54 357.80 493.83  259.16
  -1  -6  -7  8001.4   371.8   1-0.39866 0.27094 0.29612-0.89297-0.86798 0.35945  0 126.77 396.48   25.97 126.84 396.14   25.81
  -1  -6  -7  8063.7   427.9   2 0.09463-0.22226 0.26706-0.86426-0.95902 0.45129  0 230.84  27.49  215.49 230.57  27.73  215.51
  -1  -6   7  8143.2   392.3   1-0.68307 0.55533-0.65604 0.05917-0.32098 0.82952  0  86.25 244.84   94.92  85.96 244.86   94.85
  -1  -6   7  7966.3   645.4   2-0.23883 0.11120 0.30697-0.90398 0.92126-0.41287  0 494.57 482.77    1.92 494.60 482.69    2.03
  -1  -6   7  7609.0   433.6   2 0.08459-0.21226-0.90335 0.30579-0.42047 0.92814  0 180.96  59.49  135.11 181.00  59.43  135.38
  -1   6  -7  7540.0   415.0   2-0.19781 0.07018 0.87028-0.27299 0.45109-0.95945  0 204.68  42.35  318.51 204.39  42.61  318.37
  -1   6   7  8511.8   443.3   2-0.19735 0.06972-0.30654 0.90355 0.93117-0.42278  0 160.47  78.02   38.05 160.33  77.97   37.87
  -1   6   7  7979.4   628.1   2-0.04188-0.08576 0.89570-0.29822-0.44269 0.95064  0 462.84 498.21  264.28 462.88 498.12  264.19
   1  -6  -7  8967.3   302.7   1-0.53604 0.66377 0.07312-0.66997-0.84102 0.33249  0 187.64 462.08   41.02 187.66 461.78   40.92
   1  -6  -7  8447.9   605.7   2-0.06329 0.19095-0.90308 0.30591 0.42478-0.93271  0 466.27 496.39   84.61 466.39 496.29   84.61
   1  -6  -7  8468.6   436.8   2 0.09076 0.03686 0.29896-0.89616-0.94994 0.44220  0 162.69  75.90  217.41 162.53  76.10  217.42
   1  -6   7  7458.6   378.4   1-0.62598 0.75386-0.76961 0.17245-0.12589 0.63400  0  88.95 297.47  108.21  88.80 297.43  108.23
   1  -6   7  7775.8   423.3   2 0.08837 0.03930-0.88971 0.29214-0.44790 0.95557  0 127.74 117.92  137.21 127.68 117.82  137.13
   1   6  -7  7675.9   413.4   2-0.18945 0.31708 0.90109-0.30380 0.39006-0.89843  0 144.12  95.84  314.56 144.05  96.05  314.39
   1   6   7  8715.2   407.0   2-0.20556 0.33319-0.23620 0.83320 0.94971-0.44132  0 113.90 141.48   33.67 113.53 141.49   33.67
  -1  -6  -8 152.422 163.413   1-0.37478 0.24705 0.32912-0.92597-0.86673 0.28556  0 112.95 414.57   23.53 113.43 414.15   23.48
  -1  -6   8  10.456 166.786   1-0.66736 0.53949-0.69971 0.10255-0.25503 0.83573  0  67.63 233.29  100.13  67.30 233.56   99.48
  -1  -6   8 615.068 243.574   2 0.07292-0.20059-0.93819 0.34063-0.33836 0.91855  0 164.44  43.14  130.44 164.54  43.38  130.26
  -1   6  -8 295.140 232.296   2-0.18620 0.05857 0.91158-0.31429 0.36653-0.94752  0 195.69  20.68  313.13 195.47  19.91  312.88
  -1   6   8 223.321 217.453   2-0.19273 0.06510-0.34158 0.93858 0.91988-0.33886  0 143.63  63.39   39.67 143.50  63.51   40.00
   1  -6  -8 189.718 144.007   1-0.50660 0.63432 0.12693-0.72378-0.85279 0.27161  0 179.38 485.25   37.55 179.15 484.85   37.35
   1  -6  -8 173.384 229.192   2 0.08622 0.04141 0.33570-0.93290-0.93801 0.35774  0 151.58  55.38  219.58 151.67  55.54  219.65
   1  -6   8 292.763 162.162   1-0.60439 0.73226-0.79348 0.19633-0.07141 0.65211  0  67.96 287.89  111.41  67.76 288.11  111.85
   1  -6   8 245.918 207.762   2 0.07631 0.05136-0.92911 0.33155-0.36185 0.94204  0 110.46 106.15  131.85 110.32 105.99  131.71
   1   6  -8 -12.704 208.844   2-0.17798 0.30561 0.93405-0.33676 0.30963-0.89062  0 131.70  76.30  309.00 132.12  76.53  309.31
   1   6   8 147.267 179.134   2-0.20093 0.32856-0.27672 0.87372 0.93971-0.35869  0  95.84 130.91   36.04  95.82 131.03   36.08
  -1  -6  -9 899.703 218.895   1-0.35644 0.22871 0.35349-0.95034-0.86487 0.21105  0  97.21 435.82   22.36  97.17 435.29   21.73
  -1  -6   9 772.471 241.243   1-0.64801 0.52013-0.73777 0.14062-0.18915 0.84243  0  45.36 220.95  104.13  45.37 220.91  103.98
  -1  -6   9 888.400 290.099   2 0.06101-0.18868-0.96412 0.36656-0.25835 0.91106  0 145.26  23.99  125.37 145.24  24.09  125.43
  -1   6   9 866.870 281.646   2-0.18926 0.06163-0.36746 0.96446 0.91058-0.25693  0 123.57  46.14   41.62 123.60  46.09   41.59
   1  -6  -9 512.720 273.095   2 0.08252 0.04510 0.36310-0.96030-0.92809 0.27528  0 138.66  31.17  221.47 138.25  31.11  221.34
   1  -6   9 782.914 219.598   1-0.58096 0.70884-0.81373 0.21658-0.01801 0.67130  0  43.21 278.58  115.35  43.66 278.18  115.38
   1  -6   9 646.000 258.461   2 0.06393 0.06374-0.95854 0.36098-0.27768 0.93039  0  89.77  91.66  126.36  89.73  91.87  126.58
   1   6  -9 873.062 280.212   2-0.16611 0.29374 0.95858-0.36129 0.23137-0.88498  0 117.84  53.61  304.79 117.50  53.43  304.51
   1   6   9  1147.5   256.1   2-0.19727 0.32490-0.30717 0.90417 0.93098-0.27734  0  75.18 118.69   38.00  74.74 118.57   37.91
  -1  -7   0-117.339 119.878   1-0.66255 0.53481-0.23835-0.45799-0.71009 0.71009  0 129.01 328.50   62.14 129.06 328.57   61.70
  -1  -7   0  34.389 252.016   2-0.19516 0.06753-0.32418-0.37232 0.92565-0.92565  0 488.90 416.25   38.96 488.73 416.19   38.94
  -1  -7   0-139.194 149.039   2 0.13308-0.26075-0.38428-0.31208-0.91357 0.91357  0 225.79  73.04  177.47 225.96  73.09  177.39
  -1   7   0  97.269 207.426   1-0.40663 0.27890 0.28529 0.41103-0.86791 0.86791  0 485.64  97.12   27.32 485.55  97.17   26.58
  -1   7   0  69.376 145.200   2-0.23892 0.11129 0.31616 0.38034 0.91813-0.91813  0 200.30  89.60    1.66 200.40  89.74    1.48
  -1   7   0  39.946 252.673   2 0.08083-0.20845 0.37486 0.32187-0.92355 0.92355  0 458.83 438.32  221.98 458.98 438.45  222.07
   1  -7   0 145.673 121.474   1-0.70295 0.83068-0.48884-0.20751-0.51663 0.51663  0 157.43 381.62   80.43 157.25 381.66   80.03
   1  -7   0 -95.013 242.974   2-0.18557 0.31320-0.39395-0.30255 0.90020-0.90020  0 408.66 461.77   43.16 408.56 461.91   43.23
   1  -7   0  61.256 135.674   2 0.13268-0.00501-0.33556-0.36080-0.93263 0.93263  0 167.76 120.32  180.84 167.83 120.49  180.39
   1   7   0 107.698 235.115   2 0.08505 0.04257 0.34448 0.35226-0.93493 0.93493  0 373.82 469.90  219.99 373.93 470.24  220.19
   1   7   0 -65.603 134.027   2-0.23839 0.36603 0.40371 0.29298 0.88328-0.88328  0 150.70 143.85  355.50 150.25 143.71  355.72
  -1  -7  -1  3323.1   270.9   1-0.64071 0.51298-0.16798-0.52836-0.74918 0.67653  0 131.67 339.13   56.76 131.73 338.97   56.92
  -1  -7  -1  3431.9   344.8   2-0.18129 0.05366-0.42308-0.27342 0.88777-0.96040  0 493.67 414.50   45.19 493.78 414.51   45.07
  -1  -7  -1  3400.3   295.9   2 0.13196-0.25963-0.28904-0.40733-0.94818 0.87560  0 228.63  69.74  183.30 228.64  69.92  183.21
  -1  -7   1  3190.2   255.9   1-0.68021 0.55247-0.30828-0.38806-0.66504 0.73769  0 124.62 318.73   66.55 124.44 318.60   66.56
  -1  -7   1  3576.2   357.7   2-0.20659 0.07896-0.22662-0.46988 0.95182-0.87919  0 486.12 420.87   32.97 486.47 421.03   33.10
  -1  -7   1  3405.2   289.9   2 0.13195-0.25963-0.47835-0.21801-0.86820 0.94078  0 221.83  73.61  171.40 221.75  73.79  171.39
  -1   7  -1  3372.6   366.6   1-0.47080 0.34307 0.18737 0.50896-0.86212 0.78947  0 500.50 108.23   33.31 500.82 108.26   33.29
  -1   7  -1  3409.4   365.4   2 0.09292-0.22054 0.28142 0.41531-0.95507 0.88254  0 463.94 437.75  216.21 464.24 437.65  216.37
  -1   7  -1  3098.7   300.6   2-0.23833 0.11069 0.41186 0.28483 0.87953-0.95217  0 202.56  86.30  354.98 202.56  86.47  355.21
  -1   7   1  3838.5   348.9   1-0.32477 0.19705 0.39381 0.30252-0.85991 0.93255  0 473.35  84.69   18.71 473.43  84.86   18.78
  -1   7   1  3111.5   297.9   2-0.23720 0.10957 0.22164 0.47486 0.94584-0.87321  0 196.59  90.74    6.96 196.59  90.89    7.12
  -1   7   1  3917.6   376.0   2 0.06674-0.19437 0.46781 0.22893-0.88131 0.95384  0 456.21 442.82  227.72 456.27 442.64  227.96
   1  -7  -1  3469.2   233.3   1-0.69972 0.82746-0.43273-0.26361-0.56845 0.49580  0 164.41 393.44   75.67 164.56 393.23   75.65
   1  -7  -1  3267.2   352.9   2-0.17145 0.29908-0.48459-0.21191 0.85777-0.93040  0 413.64 462.28   49.06 413.94 462.20   49.03
   1  -7  -1  3523.8   290.6   2 0.13082-0.00315-0.23941-0.45695-0.96206 0.88949  0 169.33 116.65  186.26 169.34 116.74  186.16
   1  -7   1  2867.5   225.4   1-0.70194 0.82968-0.54080-0.15555-0.46349 0.53614  0 148.32 371.09   84.02 148.36 370.96   84.29
   1  -7   1  2970.4   333.0   2-0.19782 0.32545-0.30276-0.39374 0.93231-0.85968  0 405.21 465.17   37.94 405.24 465.07   37.64
   1  -7   1  2874.9   279.7   2 0.13280-0.00513-0.43228-0.26408-0.89191 0.96449  0 164.60 122.23  174.29 164.58 122.21  174.37
   1   7  -1  3505.6   346.0   2 0.09709 0.03054 0.24564 0.45109-0.96449 0.89195  0 379.31 471.24  214.31 379.33 471.23  214.23
   1   7  -1  3427.3   286.0   2-0.23652 0.36416 0.49437 0.20232 0.83646-0.90910  0 151.42 139.64  350.08 151.35 139.70  349.81
   1   7   1  3764.1   285.1   2-0.23888 0.36651 0.31160 0.38490 0.91970-0.84707  0 147.41 145.66    1.98 147.29 145.67    1.75
   1   7   1  3323.9   341.0   2 0.07049 0.05714 0.44392 0.25282-0.89329 0.96583  0 370.11 472.81  226.36 370.21 472.68  226.41
  -1  -7  -2 26063.0   554.4   1-0.61521 0.48747-0.09900-0.59735-0.78213 0.63683  0 132.25 350.20   52.29 132.38 349.99   52.32
  -1  -7  -2 23106.3   642.5   2-0.16488 0.03723-0.51958-0.17712 0.83836-0.98349  2 501.84 416.03   51.33 502.04 416.13   51.37
  -1  -7  -2 24762.7   581.2   2 0.12946-0.25713-0.19614-0.50023-0.97199 0.82684  0 229.85  64.00  188.67 229.81  64.17  188.71
  -1  -7   2 24076.9   560.3   1-0.69288 0.56514-0.37628-0.32006-0.61508 0.76038  0 118.06 309.07   71.41 117.85 308.93   71.44
  -1  -7   2 24891.0   670.4   2-0.21584 0.08821-0.13383-0.56267 0.96721-0.82196  0 487.03 429.25   27.72 487.16 429.28   27.69
  -1  -7   2 23320.0   571.2   2 0.12866-0.25633-0.56805-0.12831-0.81288 0.95803  0 215.96  71.96  165.19 216.00  72.07  165.36
  -1   7  -2 24886.4   682.4   2 0.10303-0.23065 0.19077 0.50596-0.97621 0.83115  0 472.02 440.33  210.99 472.22 440.19  211.01
  -1   7  -2 22944.5   572.3   2-0.23689 0.10926 0.50487 0.19197 0.83005-0.97530  0 203.16  80.40  349.23 202.94  80.74  349.23
  -1   7   2 27145.5   553.5   1-0.22601 0.09829 0.50712 0.18920-0.83171 0.97701  0 464.21  70.52   10.00 464.26  70.99   10.01
  -1   7   2 25640.1   600.7   2-0.23386 0.10623 0.13133 0.56517 0.96336-0.81810  0 191.18  89.71   12.40 191.12  89.82   12.42
  -1   7   2 24327.2   690.5   2 0.05121-0.17883 0.55711 0.13962-0.82886 0.97392  0 455.87 450.51  234.01 456.13 450.28  233.96
   1  -7  -2 21184.7   441.8   1-0.69241 0.82015-0.37322-0.32312-0.61748 0.47218  0 170.01 406.05   71.22 170.15 405.84   71.22
   1  -7  -2 23339.2   666.0   2-0.15532 0.28297-0.57147-0.12523 0.80579-0.95092  0 421.36 466.04   54.99 421.53 465.94   54.93
   1  -7  -2 24534.1   590.9   2 0.12718 0.00049-0.14723-0.54913-0.98089 0.83573  0 169.13 110.79  191.48 169.13 110.86  191.56
   1  -7   2 21329.4   497.8   1-0.69738 0.82511-0.58837-0.10798-0.40926 0.55455  0 137.78 361.06   88.38 137.89 360.91   88.43
   1  -7   2 24318.7   666.0   2-0.20792 0.33555-0.21415-0.48235 0.95442-0.80916  0 403.68 471.81   32.32 403.84 471.62   32.37
   1  -7   2 24704.9   584.5   2 0.13052-0.00284-0.52624-0.17012-0.84026 0.98542  0 159.47 121.93  168.22 159.54 121.93  168.22
   1   7  -2 25113.7   670.5   2 0.10701 0.02062 0.15094 0.54579-0.98273 0.83767  0 386.32 475.97  208.63 386.60 475.67  208.69
   1   7  -2 24831.0   585.4   2-0.23377 0.36140 0.58062 0.11622 0.77989-0.92514  0 150.59 133.54  343.88 150.47 133.80  343.99
   1   7   2 26196.9   585.8   2-0.23719 0.36482 0.22128 0.47522 0.94593-0.80067  0 142.45 145.89    7.00 142.47 145.94    7.14
   1   7   2 23854.1   646.0   2 0.05436 0.07327 0.54007 0.15666-0.83986 0.98493  0 368.11 478.98  233.00 368.19 478.70  232.79
  -1  -7  -3 692.928 169.626   1-0.58757 0.45985-0.03316-0.66316-0.80849 0.59055  0 130.86 362.01   48.20 130.96 361.84   47.94
  -1  -7  -3 535.176 190.146   2 0.12533-0.25301-0.10856-0.58781-0.98616 0.76842  0 229.52  55.39  193.81 229.51  55.76  193.79
  -1  -7   3 693.153 171.395   1-0.70044 0.57270-0.44111-0.25523-0.56108 0.77902  0 109.46 299.36   76.31 109.30 299.38   76.29
  -1  -7   3 758.318 310.493   2-0.22304 0.09541-0.04859-0.64791 0.97360-0.75571  0 490.99 441.48   23.08 490.66 441.02   22.77
  -1  -7   3 831.074 199.864   2 0.12347-0.25114-0.65080-0.04556-0.74914 0.96688  0 208.69  67.94  159.34 208.65  68.00  159.38
  -1   7  -3 528.313 308.019   2 0.11094-0.23857 0.10573 0.59100-0.98819 0.77059  0 483.18 446.03  205.92 483.26 446.23  206.07
  -1   7  -3 739.877 194.843   2-0.23310 0.10547 0.59255 0.10429 0.77107-0.98894  0 201.97  72.09  342.93 201.91  72.53  343.13
  -1   7   3 980.718 201.201   2-0.22945 0.10182 0.04787 0.64863 0.97214-0.75426  0 183.79  86.25   17.40 183.94  86.55   17.24
  -1   7   3 735.377 311.235   2 0.03442-0.16205 0.64006 0.05667-0.76755 0.98515  0 458.37 461.72  239.57 458.35 461.45  239.95
   1  -7  -3 548.717 131.007   1-0.68090 0.80863-0.31143-0.38491-0.66287 0.44492  0 173.80 420.06   67.48 173.93 419.74   66.78
   1  -7  -3 642.553 284.429   2-0.13864 0.26630-0.65229-0.04441 0.74518-0.96287  0 431.65 473.76   60.74 431.54 473.29   60.80
   1  -7  -3 434.155 180.847   2 0.12274 0.00493-0.06171-0.63465-0.99052 0.77278  0 167.29 102.96  196.36 167.22 102.84  196.48
   1  -7   3 430.502 156.189   1-0.68947 0.81721-0.63150-0.06485-0.35473 0.57268  0 125.59 351.33   92.22 125.84 351.38   92.43
   1  -7   3 812.290 300.752   2-0.21611 0.34374-0.13095-0.56555 0.96755-0.74967  0 404.37 481.80   27.49 404.37 481.89   27.52
   1  -7   3 663.129 191.001   2 0.12601 0.00166-0.61437-0.08200-0.77889 0.99663  0 152.72 119.70  162.43 152.67 119.67  162.07
   1   7  -3 504.286 288.536   2 0.11443 0.01320 0.06344 0.63329-0.99140 0.77380  0 396.06 484.02  203.57 395.92 483.77  203.64
   1   7  -3 761.453 180.607   2-0.22836 0.35599 0.65982 0.03702 0.71589-0.93376  0 147.97 125.70  337.96 147.96 125.80  338.10
   1   7   3 699.359 175.463   2-0.23406 0.36169 0.13576 0.56074 0.96270-0.74481  0 135.72 144.53   12.38 135.69 144.39   12.16
   1   7   3 585.857 271.787   2 0.03668 0.09094 0.62967 0.06706-0.77599 0.99360  0 367.72 487.96  239.39 367.72 488.26  239.18
  -1  -7  -4 -42.732 153.382   1-0.55894 0.43121 0.02786-0.72419-0.82874 0.53816  0 127.49 374.49   43.47 127.41 374.72   43.91
  -1  -7  -4 -82.490 162.745   2 0.12076-0.24843-0.02886-0.66750-0.99226 0.70195  0 227.75  45.30  198.57 227.77  44.51  198.37
  -1  -7   4 134.519 135.688   1-0.70308 0.57535-0.50181-0.19453-0.50385 0.79444  0  98.32 290.14   81.56  98.74 289.80   81.07
  -1  -7   4  91.539 327.070   2-0.22831 0.10068 0.02723-0.72373 0.97321-0.68270  0 497.47 457.02   18.49 497.15 456.67   18.42
  -1  -7   4  68.660 180.708   2 0.11663-0.24431-0.72485 0.02848-0.67896 0.96928  0 199.87  61.23  153.47 199.65  61.53  153.56
  -1   7  -4 410.855 327.455   2 0.11715-0.24477 0.02854 0.66819-0.99270 0.70257  0 497.35 455.69  201.45 497.74 456.04  201.63
  -1   7  -4 197.793 171.763   2-0.22725 0.09962 0.67261 0.02423 0.70424-0.99473  0 199.45  61.61  337.03 199.34  61.67  337.11
  -1   7   4 201.023 181.192   2-0.22461 0.09698-0.02691 0.72342 0.97408-0.68357  0 174.84  80.92   21.42 174.96  81.13   21.53
  -1   7   4 -38.786 303.173   2 0.01698-0.14460 0.71473-0.01800-0.69919 0.98933  0 463.29 476.77  245.58 463.09 476.52  245.84
   1  -7  -4  75.829 113.992   1-0.66548 0.79322-0.24894-0.44740-0.70368 0.41309  0 175.55 435.34   62.42 175.76 435.25   62.43
   1  -7  -4 196.085 220.149   1-0.00835 0.13619-0.71382 0.01752 0.70027-0.99053  0 456.84 479.01  170.53 456.85 479.29  170.38
   1  -7  -4 205.599 314.591   2-0.12115 0.24880-0.72511 0.02842 0.67789-0.96814  0 444.48 484.34   66.45 444.27 484.43   66.57
   1  -7  -4 -88.082 157.165   2 0.11805 0.00957 0.01462-0.71136-0.99290 0.70276  0 163.45  92.41  200.96 163.45  92.48  200.84
   1  -7   4 170.949 141.305   1-0.67862 0.80636-0.67031-0.02603-0.30026 0.59085  0 112.19 342.16   96.50 112.12 342.21   96.31
   1  -7   4  44.813 307.890   2-0.22253 0.35016-0.05532-0.64118 0.97336-0.68285  0 406.76 495.98   23.58 406.77 496.03   23.16
   1  -7   4  -2.742 155.435   2 0.11980 0.00787-0.69429-0.00207-0.70965 0.99997  0 143.90 115.73  155.96 143.87 115.46  156.02
   1   7  -4 262.710 301.199   2 0.11985 0.00782-0.01542 0.71178-0.99267 0.70236  0 407.12 495.25  199.43 407.24 495.66  199.14
   1   7  -4 111.719 168.413   2-0.22133 0.34896 0.73051-0.03367 0.64604-0.93653  0 143.66 115.76  332.62 143.61 115.72  332.35
   1   7   4 104.375 154.222   2-0.23001 0.35764 0.05747 0.63903 0.97149-0.68098  0 127.05 141.01   16.52 126.89 141.05   16.68
   1   7   4 101.872 277.514   2 0.01814 0.10949 0.71021-0.01347-0.70376 0.99390  2 368.77 501.72  245.52 368.73 501.74  245.47
  -1  -7  -5  8612.1   381.9   1-0.53093 0.40321 0.08271-0.77903-0.84337 0.48014  0 121.86 388.96   40.32 121.67 388.94   40.29
  -1  -7  -5  8260.4   429.8   2 0.11621-0.24384 0.04083-0.73756-0.99238 0.62972  0 224.65  29.74  202.00 224.39  30.08  202.33
  -1  -7   5  6081.5   352.3   1-0.70074 0.57300-0.55798-0.13836-0.44455 0.80779  0  86.24 280.10   85.79  86.06 280.07   85.75
  -1  -7   5  7600.4   428.9   2 0.10837-0.23605-0.78899 0.09183-0.60477 0.96739  0 188.90  52.69  147.76 188.80  52.47  147.83
  -1   7  -5  7031.9   417.7   2-0.21973 0.09210 0.74356-0.04672 0.63153-0.99465  0 195.35  47.58  331.31 195.13  48.00  331.23
  -1   7   5  8552.8   441.4   2-0.21957 0.09194-0.09201 0.78851 0.97125-0.60811  0 164.11  73.24   25.08 164.09  73.44   25.28
  -1   7   5  7323.8   607.2   2-0.00063-0.12701 0.78015-0.08309-0.62560 0.98841  0 470.34 496.30  251.53 470.33 496.03  251.60
   1  -7  -5  7462.4   300.6   1-0.64739 0.77513-0.18811-0.50823-0.73858 0.37534  0 175.55 453.03   58.22 175.64 452.77   58.28
   1  -7  -5  7280.5   417.7   1-0.13338 0.26122-0.79042 0.09412 0.59786-0.96068  2 457.32 501.31  160.24 457.19 501.43  160.12
   1  -7  -5  6258.8   598.0   2-0.10358 0.23123-0.78892 0.09222 0.60571-0.96852  0 460.03 499.89   72.02 460.22 499.98   72.16
   1  -7  -5  8406.1   433.6   2 0.11302 0.01461 0.08170-0.77843-0.99023 0.62756  0 158.11  79.40  204.65 158.04  79.64  204.68
   1  -7   5  5978.8   365.1   1-0.66502 0.79290-0.70502 0.00834-0.24636 0.60930  0  96.82 333.46  100.21  96.65 333.42  100.08
   1  -7   5  7680.0   419.8   2 0.11175 0.01592-0.76468 0.06832-0.63464 0.99754  0 132.85 109.37  150.02 133.00 109.30  150.16
   1   7  -5  7752.1   423.6   2-0.21296 0.34059 0.79193-0.09509 0.57227-0.93539  0 137.53 103.25  326.78 137.39 103.39  326.80
   1   7   5  8239.7   408.0   2-0.22568 0.35331-0.01192 0.70842 0.97413-0.61099  0 116.31 135.96   20.68 115.88 135.95   20.67
  -1  -7  -6 12623.0   463.5   1-0.50458 0.37685 0.13049-0.82681-0.85345 0.41757  0 113.75 405.16   37.02 113.53 404.93   37.11
  -1  -7  -6 11277.9   517.1   2 0.11135-0.23897 0.10115-0.79789-0.98862 0.55342  0 220.07  12.14  206.01 219.70  12.20  205.80
  -1  -7   6 10838.2   447.2   1-0.69409 0.56635-0.60914-0.08720-0.38365 0.81954  0  71.18 269.99   90.30  71.06 269.97   90.32
  -1  -7   6 10903.2   512.9   2 0.09900-0.22668-0.84361 0.14645-0.52775 0.96290  0 176.07  41.10  142.19 175.98  40.96  142.42
  -1   7  -6 10623.1   500.8   2-0.21097 0.08334 0.80471-0.10786 0.55493-0.99067  0 189.54  30.88  325.66 189.20  31.17  325.52
  -1   7   6 10981.7   509.4   2-0.21461 0.08698-0.14716 0.84366 0.96555-0.52979  0 151.10  63.34   28.43 151.05  63.39   28.46
   1  -7  -6 11181.2   350.5   1-0.62755 0.75528-0.13101-0.56533-0.76748 0.33159  0 173.38 473.23   54.45 173.45 472.89   54.44
   1  -7  -6 12525.8   536.2   2 0.10817 0.01945 0.13873-0.83546-0.98440 0.54920  0 150.87  63.92  207.79 150.69  64.03  207.98
   1  -7   6  9357.8   427.6   1-0.64915 0.77703-0.73584 0.03916-0.19272 0.62824  0  79.29 324.57  103.68  79.09 324.58  103.74
   1  -7   6 10231.4   476.4   2 0.10260 0.02508-0.82456 0.12741-0.55639 0.99153  0 120.07 101.14  144.21 119.75 101.00  144.39
   1   7  -6  9583.1   471.7   2-0.20366 0.33129 0.84396-0.14711 0.49625-0.93199  0 129.32  88.41  321.63 129.04  88.57  321.43
   1   7   6 12078.8   490.2   2-0.22123 0.34886-0.07169 0.76819 0.97258-0.53682  0 102.83 129.00   24.00 102.49 129.05   24.10
  -1  -7  -7  1548.9   231.3   1-0.48096 0.35324 0.17069-0.86701-0.85997 0.35144  0 103.10 423.50   34.58 102.90 423.19   34.42
  -1  -7   7  1317.4   237.6   1-0.68327 0.55553-0.65536-0.04098-0.32195 0.83049  0  53.88 259.22   94.58  53.39 259.25   94.78
  -1  -7   7  1700.1   319.3   2 0.08862-0.21629-0.88879 0.19163-0.44967 0.95734  0 160.76  26.22  137.39 160.90  26.60  137.25
  -1   7  -7  1384.8   287.7   2-0.20107 0.07344 0.85607-0.15923 0.47614-0.98451  2 181.31  10.15  319.93 181.42  10.54  320.06
  -1   7   7  1951.3   313.7   2-0.21016 0.08253-0.19265 0.88915 0.95850-0.45011  0 135.34  50.46   30.97 135.55  50.78   31.11
   1  -7  -7  1507.7   195.2   1-0.60753 0.73527-0.07989-0.61645-0.79027 0.28173  0 169.19 496.35   50.99 169.17 496.35   51.05
   1  -7  -7  1680.3   293.5   2 0.10352 0.02410 0.18595-0.88268-0.97709 0.46935  0 141.72  45.76  210.63 141.19  45.26  210.73
   1  -7   7  1092.9   236.3   1-0.63105 0.75892-0.76307 0.06639-0.13968 0.64779  0  58.74 315.72  107.34  59.08 315.64  107.31
   1  -7   7  1163.1   269.5   2 0.09216 0.03551-0.87471 0.17756-0.47580 0.98347  0 103.79  90.56  138.52 103.92  90.67  138.95
   1   7  -7  1060.2   269.2   2-0.19349 0.32112 0.88694-0.19010 0.41940-0.92776  0 118.06  70.69  316.54 118.42  70.89  316.29
   1   7   7  1627.6   264.3   2-0.21694 0.34457-0.12174 0.81824 0.96856-0.46017  0  86.12 120.30   26.59  86.31 120.24   27.00
  -1  -7  -8 13588.9   526.5   1-0.46103 0.33330 0.20313-0.89945-0.86382 0.28265  0  89.67 444.62   32.29  89.43 444.54   32.23
  -1  -7   8  9963.7   491.5   1-0.66872 0.54098-0.69663 0.00029-0.25985 0.84104  0  32.56 247.71   99.09  32.62 247.65   99.13
  -1  -7   8 10135.9   594.8   2 0.07773-0.20540-0.92515 0.22799-0.37156 0.95175  2 142.90   9.01  132.08 143.02   8.87  132.32
  -1   7   8 11873.0   605.3   2-0.20632 0.07869-0.22908 0.92558 0.95129-0.37027  0 117.21  35.05   33.17 117.06  35.18   33.25
   1  -7  -8 11205.3   614.0   2 0.09949 0.02814 0.22398-0.92071-0.96950 0.38923  0 129.47  22.48  212.99 129.17  22.65  212.95
   1  -7   8  9642.2   492.9   1-0.61085 0.73873-0.78693 0.09025-0.08724 0.66794  0  36.17 306.44  111.13  36.06 306.43  110.80
   1  -7   8 10292.5   566.0   2 0.08097 0.04670-0.91527 0.21812-0.39462 0.97480  0  85.33  78.19  133.62  84.90  77.92  133.75
   1   7  -8 10319.1   564.0   2-0.18285 0.31048 0.92149-0.22465 0.34266-0.92365  0 105.40  49.57  311.52 105.08  49.81  311.37
   1   7   8 12560.1   553.6   2-0.21317 0.34080-0.16234 0.85884 0.96343-0.38241  0  66.98 109.37   29.30  66.83 109.38   29.34
  -1  -8   0  9570.5   422.2   1-0.67817 0.55043-0.29931-0.49651-0.67120 0.67120  0  97.74 348.90   65.81  97.53 348.72   65.92
  -1  -8   0  8659.4   453.2   2 0.13292-0.26060-0.42949-0.36636-0.89324 0.89324  0 205.30  35.29  174.59 205.33  35.38  174.54
  -1   8   0  8429.0   712.8   2 0.07413-0.20175 0.42024 0.37602-0.90438 0.90438  0 496.08 492.31  224.72 496.14 492.01  224.90
  -1   8   0  9262.7   470.5   2-0.23860 0.11096 0.37009 0.42613 0.89783-0.89783  0 174.57  57.69  358.01 174.59  57.79  357.83
   1  -8   0  7501.2   360.4   1-0.70282 0.83055-0.52097-0.27485-0.48440 0.48440  0 127.98 406.98   82.60 128.05 406.75   82.64
   1  -8   0  9104.3   458.9   2 0.13308-0.00541-0.38681-0.40903-0.91250 0.91251  0 143.26  88.80  176.99 143.41  88.94  177.23
   1   8   0  9936.0   457.0   2-0.23787 0.36551 0.44647 0.34974 0.86260-0.86260  0 122.06 117.69  352.72 121.82 117.78  352.98
  -1  -8  -1  8282.9   402.6   1-0.66310 0.53536-0.24033-0.55549-0.70890 0.63625  0 100.75 360.38   62.18 100.65 360.11   61.83
  -1  -8  -1  7492.0   432.1   2 0.13279-0.26046-0.34814-0.44770-0.92799 0.85541  0 208.15  31.61  179.62 208.16  31.74  179.62
  -1  -8   1  7803.2   400.8   1-0.69007 0.56233-0.35813-0.43769-0.62893 0.70158  0  92.40 338.10   69.83  92.38 337.95   70.12
  -1  -8   1  7701.3   440.6   2 0.13099-0.25866-0.51002-0.28583-0.85013 0.92271  0 200.82  36.04  169.20 200.89  36.36  169.30
  -1   8  -1  7965.4   713.5   2 0.08564-0.21326 0.34008 0.45618-0.93649 0.86395  2 502.10 491.51  219.70 502.41 491.43  219.92
  -1   8  -1  7611.9   424.8   2-0.23778 0.11014 0.45197 0.34424 0.85976-0.93240  0 176.80  53.74  352.71 176.84  53.98  352.63
  -1   8   1  8716.5   455.6   2-0.23870 0.11107 0.28868 0.50733 0.92719-0.85457  0 170.55  58.89    2.87 170.63  59.11    3.14
  -1   8   1  7348.9   700.1   2 0.06137-0.18899 0.50018 0.29609-0.86374 0.93628  0 492.68 496.63  230.29 492.92 496.58  230.08
   1  -8  -1  7423.0   352.3   1-0.70250 0.83024-0.47593-0.31989-0.52913 0.45648  0 135.61 419.71   78.98 135.75 419.54   79.00
   1  -8  -1  8262.8   438.2   2 0.13217-0.00450-0.30423-0.49161-0.94338 0.87080  0 144.92  84.70  182.28 145.05  84.88  182.29
   1  -8   1  6345.3   351.9   1-0.70021 0.82795-0.56385-0.23197-0.43793 0.51058  0 118.87 395.27   86.16 118.72 395.07   86.26
   1  -8   1  7668.2   441.6   2 0.13211-0.00443-0.46988-0.32597-0.87279 0.94537  0 139.83  90.79  172.03 139.90  90.85  171.94
   1   8  -1  8333.0   430.7   2-0.23629 0.36392 0.52421 0.27218 0.81815-0.89077  0 123.24 113.42  347.82 122.77 113.58  347.92
   1   8   1  8285.7   435.6   2-0.23859 0.36623 0.36791 0.42831 0.89873-0.82609  0 118.94 119.97  357.74 118.67 120.12  357.97
  -1  -8  -2 197.596 167.155   1-0.64553 0.51779-0.18241-0.61341-0.74163 0.59634  0 101.66 372.47   57.98 101.71 372.34   57.89
  -1  -8  -2 267.052 207.647   2 0.13153-0.25920-0.26845-0.52740-0.95427 0.80912  0 209.68  25.15  184.45 209.47  25.34  184.44
  -1  -8   2  51.687 161.337   1-0.69804 0.57031-0.41581-0.38000-0.58295 0.72825  0  84.64 327.81   74.33  85.14 327.62   74.37
  -1  -8   2 419.063 214.929   2 0.12766-0.25533-0.58761-0.20823-0.79901 0.94416  0 194.91  34.79  163.44 194.83  34.70  163.99
  -1   8  -2 106.965 202.474   2-0.23598 0.10835 0.53214 0.26425 0.81310-0.95835  0 177.19  48.00  347.50 177.13  47.68  347.38
  -1   8   2-121.182 198.870   2-0.23679 0.10916 0.21044 0.58556 0.94850-0.80324  0 165.05  58.63    7.66 164.88  58.16    7.79
   1  -8  -2  76.595 141.581   1-0.69942 0.82716-0.42937-0.36645-0.57135 0.42606  0 141.60 433.62   76.41 141.81 433.75   75.40
   1  -8  -2  48.159 184.708   2 0.13037-0.00269-0.22434-0.57150-0.96575 0.82059  0 144.68  78.34  186.88 144.85  78.55  187.05
   1  -8   2  95.498 158.732   1-0.69496 0.82270-0.60416-0.19166-0.38990 0.53519  0 107.60 384.36   89.55 107.73 384.29   89.86
   1  -8   2  78.061 195.696   2 0.12947-0.00180-0.55100-0.24485-0.82440 0.96956  0 134.53  90.93  166.58 134.51  90.66  166.53
   1   8  -2-111.403 177.121   2-0.23273 0.36036 0.59874 0.19765 0.76639-0.91163  0 122.04 107.31  342.37 122.00 107.27  342.68
   1   8   2  69.454 165.256   2-0.23873 0.36636 0.29069 0.50532 0.92656-0.78130  0 113.62 120.17    3.46 113.51 120.44    3.01
  -1  -8  -3  5550.2   369.3   1-0.62598 0.49825-0.12680-0.66902-0.76946 0.55151  0 100.75 385.74   53.98 100.64 385.67   54.16
  -1  -8  -3  5071.0   426.9   2 0.12932-0.25700-0.19256-0.60328-0.97273 0.75499  0 209.20  15.97  189.02 209.21  15.96  188.91
  -1  -8   3  5401.6   359.9   1-0.70232 0.57458-0.47136-0.32445-0.53344 0.75139  0  75.92 317.50   78.63  75.83 317.52   78.64
  -1  -8   3  5098.2   420.0   2 0.12272-0.25039-0.66033-0.13551-0.74088 0.95861  0 187.04  30.43  158.57 187.06  30.45  158.65
  -1   8  -3  4808.7   429.4   2-0.23211 0.10448 0.60860 0.18779 0.75877-0.97664  0 176.23  38.45  342.06 175.98  38.69  341.97
  -1   8   3  5623.4   428.1   2-0.23412 0.10649 0.13706 0.65894 0.96250-0.74462  0 157.24  54.82   12.11 157.24  54.89   12.08
   1  -8  -3  4645.3   301.1   1-0.69372 0.82146-0.38216-0.41366-0.61049 0.39255  0 146.06 449.97   71.93 146.21 449.64   71.87
   1  -8  -3  5003.7   405.5   2 0.12739 0.00028-0.14924-0.64661-0.98056 0.76282  0 142.99  69.93  191.39 142.79  69.86  191.44
   1  -8   3  4910.7   341.2   1-0.68701 0.81475-0.64166-0.15416-0.34100 0.55894  0  95.15 374.16   93.38  94.97 374.19   93.42
   1  -8   3  3647.2   386.0   2 0.12514 0.00254-0.62801-0.16783-0.76808 0.98581  0 126.95  88.22  160.98 127.10  88.36  161.07
   1   8  -3  4823.5   380.1   2-0.22762 0.35525 0.66842 0.12797 0.70810-0.92597  0 119.52  98.54  337.55 119.23  98.79  337.43
   1   8   3  4643.5   363.8   2-0.23706 0.36469 0.21685 0.57915 0.94698-0.72910  0 106.46 118.89    7.31 106.20 119.02    7.40
  -1  -8  -4  50.566 167.298   1-0.60539 0.47766-0.07470-0.72112-0.79241 0.50182  0  97.17 400.81   51.25  97.36 400.37   50.70
  -1  -8   4 110.453 179.242   1-0.70273 0.57499-0.52411-0.27171-0.48113 0.77172  0  64.71 307.34   82.66  64.23 307.51   82.90
  -1  -8   4 186.514 244.882   2 0.11643-0.24410-0.72674-0.06910-0.67697 0.96729  0 177.42  23.78  153.43 177.46  23.50  153.40
  -1   8  -4 303.685 235.649   2-0.22661 0.09898 0.67959 0.11680 0.69772-0.98821  0 173.16  26.79  336.54 173.08  26.74  336.56
  -1   8   4 -57.803 222.503   2-0.23072 0.10309 0.07006 0.72594 0.97049-0.67999  0 147.82  49.14   16.10 147.60  49.21   15.96
   1  -8  -4 157.475 156.185   1-0.68582 0.81356-0.33547-0.46035-0.64584 0.35525  0 148.90 468.02   68.62 148.90 467.75   68.49
   1  -8  -4-260.631 218.303   2 0.12379 0.00388-0.08046-0.71538-0.98904 0.69873  0 138.56  58.61  195.48 138.82  58.65  195.41
   1  -8   4 315.333 199.616   1-0.67659 0.80433-0.67623-0.11959-0.29143 0.58202  0  80.18 364.63   96.80  80.34 364.66   96.93
   1  -8   4  35.370 210.980   2 0.11933 0.00834-0.69913-0.09671-0.70496 0.99528  0 117.63  83.94  155.52 117.57  83.95  155.64
   1   8  -4 252.278 207.601   2-0.22116 0.34879 0.73193 0.06446 0.64449-0.93498  0 114.19  87.89  332.78 114.41  88.06  332.23
   1   8   4 180.806 195.237   2-0.23459 0.36222 0.14823 0.64777 0.96073-0.67022  0  96.70 115.51   11.45  96.63 115.74   11.43
  -1  -8  -5 483.985 199.892   1-0.58489 0.45716-0.02716-0.76864-0.81066 0.44743  0  91.75 417.24   47.59  91.72 416.97   47.55
  -1  -8   5 190.424 189.205   1-0.69923 0.57150-0.57359-0.22223-0.42670 0.78994  0  49.88 297.59   87.50  50.22 297.42   87.11
  -1  -8   5 417.195 277.010   2 0.10887-0.23654-0.78571-0.01104-0.60894 0.97156  0 165.54  13.33  148.40 165.71  13.52  148.13
  -1   8  -5 316.459 266.449   2-0.21970 0.09207 0.74381 0.05258 0.63125-0.99436  0 168.09  11.05  330.91 168.32  11.57  331.20
  -1   8   5 319.276 250.445   2-0.22723 0.09960 0.01039 0.78561 0.97379-0.61065  0 135.98  41.06   19.50 135.72  41.02   19.39
   1  -8  -5 419.517 177.094   1-0.67612 0.80385-0.29053-0.50529-0.67709 0.31385  0 149.85 488.52   65.28 149.81 488.60   65.31
   1  -8  -5 542.428 267.678   2 0.12010 0.00758-0.01903-0.77681-0.99258 0.62969  0 132.98  44.71  198.49 132.82  44.55  198.93
   1  -8   5 197.192 202.864   1-0.66373 0.79160-0.70785-0.08835-0.24168 0.60461  0  63.60 355.85  100.58  63.57 355.66  100.40
   1  -8   5 626.226 248.109   2 0.11196 0.01571-0.76315-0.03269-0.63645 0.99934  0 105.20  76.63  149.91 105.66  77.35  150.30
   1   8  -5 314.478 243.498   2-0.21351 0.34114 0.78844 0.00795 0.57686-0.93998  0 107.28  74.83  327.35 107.42  74.79  327.13
   1   8   5 281.951 223.738   2-0.23160 0.35923 0.08614 0.70986 0.96899-0.60585  0  84.13 110.27   15.41  84.55 110.54   15.03
  -1  -8  -6  1539.0   264.5   1-0.56523 0.43751 0.01496-0.81076-0.82480 0.38892  0  83.47 436.35   45.31  83.55 435.92   44.77
  -1  -8   6  1423.3   268.8   1-0.69210 0.56436-0.61942-0.17640-0.37057 0.80646  0  33.33 287.17   90.85  33.47 287.00   91.28
  -1   8   6  1433.3   314.5   2-0.22355 0.09592-0.04144 0.83744 0.97381-0.53805  0 121.35  30.26   22.36 121.30  30.12   22.37
   1  -8  -6  1304.0   322.1   2 0.11674 0.01088 0.03392-0.83019-0.99258 0.55738  0 124.60  27.49  201.68 124.36  27.13  201.94
   1  -8   6  1023.9   245.7   1-0.64878 0.77666-0.73647-0.05974-0.19156 0.62708  0  44.86 346.50  104.17  44.29 346.74  103.81
   1  -8   6  1601.2   336.9   2 0.10359 0.02409-0.81903 0.02228-0.56432 0.99946  0  91.02  68.19  144.94  90.92  68.23  144.94
   1   8  -6 824.598 281.917   2-0.20498 0.33261 0.83757-0.04118 0.50642-0.94217  0  97.63  58.33  321.91  97.89  58.61  322.12
   1   8   6  1679.5   300.1   2-0.22858 0.35621 0.03149 0.76451 0.97302-0.53725  0  69.55 103.34   18.41  69.64 103.35   18.17
  -1  -9   0  76.242 207.602   1-0.69010 0.56236-0.35830-0.53700-0.62880 0.62880  0  59.73 373.87   70.47  59.62 374.03   70.14
  -1   9   0-236.863 268.522   2-0.23822 0.11058 0.42302 0.47272 0.87425-0.87425  0 143.05  18.07  354.50 142.87  18.15  354.50
   1  -9   0-233.167 188.016   1-0.70084 0.82858-0.55675-0.33854-0.44593 0.44593  0  93.14 439.85   85.61  93.34 439.13   85.65
   1  -9   0-196.957 260.156   2 0.13274-0.00506-0.43784-0.45749-0.88920 0.88920  0 112.60  50.20  174.50 112.87  50.35  174.02
   1   9   0-134.261 232.887   2-0.23662 0.36426 0.49068 0.40506 0.83859-0.83859  0  86.06  87.12  350.51  86.46  86.76  350.06
  -1  -9  -1 251.465 213.415   1-0.68030 0.55257-0.30871-0.58659-0.66475 0.59210  0  63.05 387.01   66.35  63.25 386.84   66.59
  -1  -9   1 551.604 220.017   1-0.69716 0.56942-0.40807-0.48723-0.58944 0.66209  0  54.10 361.86   74.17  53.75 362.12   73.79
  -1   9  -1 351.084 269.793   2-0.23653 0.10889 0.49405 0.40169 0.83664-0.90928  0 145.35  13.88  349.92 145.20  13.69  349.83
   1  -9  -1 425.208 206.079   1-0.70282 0.83056-0.52065-0.37465-0.48473 0.41208  0 101.75 454.29   82.44 101.70 453.76   82.61
   1  -9  -1 370.821 266.481   2 0.13288-0.00521-0.36609-0.52923-0.92104 0.84846  0 114.80  46.05  178.58 114.61  45.79  178.52
   1  -9   1 266.949 205.732   1-0.69689 0.82463-0.59199-0.30331-0.40483 0.47748  0  83.10 426.59   89.30  83.24 426.06   88.75
   1  -9   1 996.496 280.779   2 0.13099-0.00332-0.50995-0.38538-0.85017 0.92275  0 108.40  52.18  168.94 109.00  52.54  169.31
   1   9  -1 258.907 247.748   2-0.23490 0.36253 0.55798 0.33796 0.79591-0.86854  0  87.21  81.97  345.46  87.40  82.12  345.59
   1   9   1 557.055 261.815   2-0.23822 0.36586 0.42296 0.47278 0.87428-0.80164  0  83.25  89.37  354.42  83.03  89.41  354.51
  -1  -9  -2  1793.4   274.5   1-0.66848 0.54074-0.26010-0.63520-0.69677 0.55147  0  64.53 401.02   63.37  64.59 400.81   63.19
  -1  -9   2  1672.5   276.0   1-0.70159 0.57385-0.45716-0.43814-0.54661 0.69191  0  45.41 351.05   77.57  45.62 350.83   77.53
  -1   9   2  2068.1   339.9   2-0.23863 0.11100 0.28398 0.61152 0.92866-0.78340  0 132.47  18.94    3.42 132.29  18.86    3.42
   1  -9  -2  1267.1   225.5   1-0.70284 0.83058-0.48427-0.41103-0.52105 0.37576  0 108.29 470.87   79.50 108.36 470.29   79.67
   1  -9  -2  1720.4   337.7   2 0.13209-0.00442-0.29634-0.59899-0.94590 0.80075  0 114.81  38.94  182.68 114.28  38.65  182.77
   1  -9   2  1700.2   287.4   1-0.69074 0.81847-0.62588-0.26942-0.36216 0.50746  0  71.07 414.61   91.79  71.28 414.20   91.90
   1  -9   2  1742.2   315.2   2 0.12803-0.00036-0.58063-0.31469-0.80404 0.94919  0 102.97  52.09  164.32 102.98  52.33  164.48
   1   9  -2  1674.3   314.3   2-0.23115 0.35878 0.62292 0.27302 0.74735-0.89260  0  86.55  75.18  341.05  86.36  75.16  340.90
  -1  -9  -3  1177.9   276.6   1-0.65535 0.52761-0.21341-0.68189-0.72455 0.50661  0  63.54 416.31   60.25  63.62 416.32   60.00
  -1  -9   3  1530.0   272.5   1-0.70308 0.57534-0.50488-0.39042-0.50077 0.71872  0  34.68 340.09   81.45  35.02 340.00   81.32
  -1   9   3 443.191 305.796   2-0.23713 0.10950 0.21929 0.67621 0.94640-0.72852  0 123.34  14.33    6.89 123.78  15.23    7.26
   1  -9  -3 837.424 230.731   1-0.70098 0.82872-0.44827-0.44703-0.55469 0.33675  0 113.57 489.46   76.83 113.43 489.21   76.84
   1  -9  -3  1124.4   309.7   2 0.13054-0.00287-0.23010-0.66523-0.96437 0.74664  0 112.07  29.06  186.44 111.79  28.75  186.71
   1  -9   3  1300.8   273.9   1-0.68246 0.81020-0.65809-0.23721-0.31807 0.53601  0  57.28 403.34   95.34  57.25 403.37   95.06
   1  -9   3 658.239 291.633   2 0.12368 0.00399-0.64831-0.24702-0.75127 0.96900  0  94.59  49.54  159.30  94.64  49.75  159.56
   1   9  -3  1034.3   306.4   2-0.22617 0.35380 0.68434 0.21160 0.69320-0.91107  0  82.93  65.46  336.16  83.04  65.75  336.17
   1   9   3  1703.3   304.5   2-0.23875 0.36638 0.29205 0.60345 0.92612-0.70824  0  69.34  88.59    2.71  69.06  88.43    2.93
  -2   0   0 249160.   1678.   1-0.12772-0.12772 0.60316-0.60316-0.78733 0.78733  0 256.78 214.64    1.99 257.04 214.72    1.72
  -2   0   0 179169.   1205.   1-0.12784-0.12784-0.78751 0.78751 0.60290-0.60290  0 345.88 211.23  160.69 345.93 211.32  160.58
  -2   0   0 189878.    766.   2-0.12765-0.12765-0.69902 0.69902 0.70361-0.70361  0 345.91 211.70   64.11 345.95 211.77   64.44
  -2   0   0 140914.    641.   2-0.12764-0.12764 0.99182-0.99182 0.00142-0.00142  0 359.93 229.70  291.14 359.97 229.85  290.94
  -2   0  -1   8.437  41.188   1-0.26881 0.01305-0.84611 0.84611 0.46026-0.53285  0 357.97 220.25  148.39 357.80 220.11  148.59
  -2   0  -1  21.150  10.961   2 0.13188-0.38723-0.28490 0.28490-0.94944 0.87686  0 359.86 223.89  184.07 359.91 223.96  183.46
  -2   0  -1   9.871  10.956   2-0.10928-0.14600 0.98888-0.98888-0.10087 0.02831  0 351.67 213.51  285.75 351.79 213.51  284.95
  -2   0   1   4.735  35.861   1-0.38477 0.12932 0.31521-0.31521-0.86752 0.94017  0 263.62 205.88   24.68 263.74 205.65   24.46
  -2   0   1  24.210  26.400   2-0.04394-0.21136-0.94267 0.94267 0.33081-0.25825  0 332.29 199.58   90.54 332.24 199.29   90.58
  -2   0   1  21.635  27.513   2-0.13138-0.12390 0.99106-0.99106 0.02311 0.04945  0 368.68 246.55  291.88 368.79 246.64  292.20
   2   0  -1   9.653  26.753   2 0.06224 0.19311-0.96178 0.96178-0.26666 0.19414  0 266.40 312.58  126.05 266.42 312.47  125.91
   2   0  -1   3.747  16.376   2-0.01832 0.27360 0.83510-0.83510-0.54979 0.47722  0 237.74 270.56  256.89 237.74 270.47  257.04
   2   0   1  29.436  36.493   1-0.05135 0.30703-0.74268 0.74268 0.66767-0.59511  0 247.13 292.81  166.60 246.95 292.56  166.88
  -2   0  -2  4884.4   159.4   1-0.36423 0.10847-0.86553 0.86553 0.34379-0.48897  0 372.34 228.85  140.12 372.41 228.88  139.90
  -2   0  -2  4262.4    88.0   2 0.08927-0.34462-0.88629 0.88629-0.45444 0.30939  0 374.84 236.75  137.30 374.94 236.78  137.56
  -2   0  -2  4020.4    85.7   2-0.10822-0.14706 0.98838-0.98838-0.10673-0.03840  0 343.50 196.52  284.70 343.61 196.66  284.61
  -2   0   2  4907.9   115.2   1-0.61439 0.35891-0.09693 0.09693-0.78303 0.92832  0 264.75 196.37   52.03 264.90 196.41   52.18
  -2   0   2  4143.0   123.0   2-0.02751-0.22779-0.96818 0.96818 0.24872-0.10360  0 318.78 186.68   95.87 318.89 186.78   95.62
  -2   0   2  4347.3   125.0   2-0.13697-0.11831 0.98898-0.98898 0.05616 0.08897  0 378.14 263.61  294.14 378.10 263.70  294.13
   2   0  -2  5323.7   119.1   1-0.31944 0.57489 0.40047-0.40047-0.85883 0.71353  0 337.42 323.33   18.09 337.44 323.22   18.29
   2   0  -2  4278.5   122.2   2 0.05262 0.20273-0.97742 0.97742-0.20466 0.05961  0 278.77 326.46  121.71 278.84 326.38  122.23
   2   0  -2  4346.0   114.9   2-0.05295 0.30823 0.91920-0.91920-0.39022 0.24509  0 230.00 254.97  267.26 229.84 254.87  267.53
   2   0   2  4360.1   145.8   1-0.15757 0.41326-0.80254 0.80254 0.57541-0.43028  0 235.12 284.00  157.94 235.00 284.01  158.11
   2   0   2  4362.7    78.0   2-0.05792 0.31323-0.91511 0.91511 0.39903-0.25390  0 233.39 280.24   86.36 233.25 280.26   86.27
   2   0   2  2328.2    61.9   2-0.22632 0.48157 0.68282-0.68282 0.69465-0.54940  0 255.70 313.49  336.26 255.76 313.40  336.29
  -2   0  -3  30.083  64.537   1-0.43205 0.17630-0.86698 0.86698 0.24836-0.46612  0 389.11 237.58  133.43 389.16 237.88  133.18
  -2   0  -3  -3.663  38.498   2 0.07389-0.32924-0.93556 0.93556-0.34534 0.12777  0 390.60 249.79  130.60 390.77 249.86  130.68
  -2   0  -3 -12.483  39.079   2-0.10231-0.15297 0.98506-0.98506-0.13855-0.07914  0 335.82 179.29  282.35 335.73 179.58  282.74
  -2   0   3 -13.238  40.726   1-0.70033 0.44486-0.43982 0.43982-0.56222 0.78017  0 259.92 187.00   76.24 259.99 187.01   76.20
  -2   0   3  27.223  54.537   2-0.02399-0.23132-0.97280 0.97280 0.23042-0.01274  0 305.83 173.92   96.60 305.65 174.00   96.72
  -2   0   3  17.180  54.227   2-0.14286-0.11242 0.98555-0.98555 0.09099 0.12670  0 388.26 281.48  296.51 388.06 281.36  296.18
   2   0  -3  34.475  42.549   1-0.50682 0.76227 0.12654-0.12654-0.85271 0.63477  0 343.21 334.15   37.46 343.02 333.88   37.38
   2   0  -3  -3.663  49.127   2 0.05157 0.20378-0.97882 0.97882-0.19810-0.01947  0 291.21 340.66  121.99 291.29 340.80  121.85
   2   0  -3 -18.160  34.513   2-0.06444 0.31972 0.94034-0.94034-0.33409 0.11640  0 221.86 239.66  271.23 221.79 239.57  271.02
   2   0   3 -10.817  46.661   1-0.21808 0.47376-0.82890 0.82890 0.51514-0.29745  0 222.02 275.52  152.42 221.90 275.52  152.98
   2   0   3  -3.598  27.791   2-0.03838 0.29368-0.95204 0.95204 0.30357-0.08588  0 220.18 268.02   92.68 220.18 267.95   92.26
   2   0   3   2.388  36.039   2-0.20379 0.45905 0.84335-0.84335 0.49723-0.27935  0 262.77 331.06  321.41 262.91 331.12  321.49
  -2   0  -4 506.471 106.380   1-0.48311 0.22736-0.85934 0.85934 0.16773-0.45808  0 407.78 247.25  127.68 407.97 247.30  127.70
  -2   0  -4 637.219  84.150   2 0.07004-0.32539-0.94514 0.94514-0.31908 0.02898  0 407.82 263.48  129.21 407.88 263.51  129.08
  -2   0  -4 508.005  76.150   2-0.09590-0.15938 0.98023-0.98023-0.17304-0.11721  0 327.97 161.93  280.78 328.00 161.90  280.72
  -2   0   4 632.506  68.798   1-0.68820 0.43273-0.63693 0.63692-0.34743 0.63802  0 250.78 177.16   93.63 250.74 177.26   92.96
  -2   0   4 417.651  86.104   2-0.02495-0.23035-0.97156 0.97156 0.23546 0.05479  0 292.36 160.55   96.47 292.36 160.82   96.42
  -2   0   4 402.861  87.882   2-0.14881-0.10647 0.98074-0.98074 0.12650 0.16375  0 398.77 300.01  298.34 398.88 299.89  298.29
   2   0  -4 602.963  71.942   1-0.60677 0.86224-0.07804 0.07804-0.79104 0.50044  0 353.82 345.92   50.77 353.79 345.78   50.92
   2   0  -4 559.287  78.316   2-0.06779 0.32307 0.94600-0.94600-0.31701 0.02675  0 213.27 224.15  271.95 213.30 224.20  272.07
   2   0   4 508.026  89.010   1-0.25147 0.50715-0.84088 0.84088 0.47926-0.18901  0 207.98 266.92  150.18 207.95 267.04  150.10
   2   0   4 505.633  63.298   2-0.03541 0.29072-0.95681 0.95681 0.28856 0.00169  0 207.02 256.32   93.21 207.05 256.40   93.18
   2   0   4 526.506  74.985   2-0.19475 0.45001 0.88229-0.88229 0.42852-0.13803  0 269.30 349.36  316.79 269.52 349.23  316.88
  -2   0  -5  73.158  79.535   1-0.52344 0.26768-0.84649 0.84649 0.09728-0.46021  0 429.03 257.42  122.99 429.05 257.37  122.99
  -2   0  -5  32.959  75.017   2 0.07028-0.32563-0.94457 0.94457-0.32071-0.04191  0 426.69 278.11  128.81 426.68 277.96  129.18
  -2   0  -5  22.751  70.514   2-0.08910-0.16618 0.97395-0.97395-0.20852-0.15429  0 320.32 143.29  278.93 320.30 143.37  278.61
  -2   0   5  -4.333  44.229   1-0.64629 0.39054-0.74062 0.74062-0.18385 0.54678  0 238.98 166.98  104.44 239.02 166.90  104.34
  -2   0   5 -20.083  84.980   2-0.02816-0.22715-0.96747 0.96747 0.25142 0.11139  0 278.81 147.01   95.46 278.82 147.06   95.45
  -2   0   5 -22.179  89.826   2-0.15514-0.10012 0.97448-0.97448 0.16222 0.20090  0 411.00 319.77  300.53 410.66 319.61  300.35
   2   0  -5  -1.484  66.585   1-0.65226 0.90774-0.20335 0.20335-0.73021 0.36697  0 368.25 359.04   59.53 368.09 359.17   59.31
   2   0  -5  38.766  92.706   2 0.05677 0.19858-0.97124 0.97124-0.23124-0.13138  0 317.46 373.35  123.55 317.53 373.00  123.80
   2   0  -5  13.688  57.750   2-0.06746 0.32274 0.94546-0.94546-0.31868-0.04414  0 204.26 208.49  271.45 204.23 208.48  271.97
   2   0   5  14.963  66.691   1-0.26840 0.52416-0.84599 0.84599 0.46072-0.09778  0 193.11 258.49  148.46 193.16 258.40  148.63
   2   0   5 -25.961  46.208   2-0.03716 0.29246-0.95404 0.95404 0.29738 0.06543  0 193.63 245.02   92.50 193.36 245.07   92.64
   2   0   5  49.882  68.979   2-0.19170 0.44696 0.89352-0.89352 0.40604-0.04292  0 275.62 368.15  315.58 275.94 368.44  315.41
  -2   0  -6 41294.0   590.8   1-0.55642 0.30067-0.83021 0.83021 0.03389-0.46942  0 452.66 268.46  118.98 452.79 268.40  118.80
  -2   0  -6 36836.2   488.8   2 0.07242-0.32776-0.93944 0.93944-0.33499-0.10016  0 447.43 293.51  129.74 447.68 293.54  130.06
  -2   0  -6 35594.3   479.6   2-0.08212-0.17316 0.96620-0.96620-0.24438-0.19100  0 312.29 123.43  276.40 312.56 123.60  276.46
  -2   0   6 36105.5   414.7   1-0.59917 0.34342-0.79844 0.79844-0.05900 0.49452  0 225.66 155.52  112.83 225.63 155.68  112.67
  -2   0   6 38064.6   556.3   2-0.03246-0.22284-0.96132 0.96132 0.27351 0.16187  0 264.73 132.31   93.90 264.85 132.49   94.11
  -2   0   6 35199.7   534.7   2-0.16095-0.09431 0.96683-0.96683 0.19835 0.23739  0 423.73 341.02  302.89 423.83 341.02  302.52
   2   0  -6 31196.6   394.2   1-0.67244 0.92792-0.27559 0.27559-0.68693 0.25104  0 384.65 374.63   64.00 385.09 374.45   64.27
   2   0  -6 37131.1   543.7   2 0.06077 0.19457-0.96454 0.96454-0.25683-0.17831  0 331.92 391.72  124.95 331.88 391.56  125.33
   2   0  -6 38150.0   538.4   2-0.06511 0.32039 0.94148-0.94148-0.33071-0.10467  0 194.45 192.28  270.86 194.41 192.16  271.23
   2   0   6 36501.4   551.3   1-0.27431 0.53007-0.84776 0.84776 0.45394-0.01842  0 177.40 249.51  148.05 177.43 249.53  148.10
   2   0   6 36058.6   465.3   2-0.04111 0.29641-0.94765 0.94765 0.31665 0.11873  0 178.96 233.66   91.56 178.85 233.73   91.45
   2   0   6 34085.4   462.1   2-0.19153 0.44679 0.89410-0.89410 0.40484 0.03090  0 282.16 389.43  315.40 282.29 389.26  315.34
  -2   0  -7-199.914 119.375   1-0.58391 0.32816-0.81145 0.81145-0.02451-0.48360  0 480.70 280.90  114.66 480.00 280.78  114.95
  -2   0  -7 -16.674 113.357   2 0.07546-0.33080-0.93143 0.93143-0.35600-0.15166  0 471.32 310.62  131.29 471.61 310.65  131.35
  -2   0  -7  56.827 115.440   2-0.07514-0.18014 0.95695-0.95695-0.28036-0.22759  0 304.66 102.03  274.41 304.66 102.25  274.30
  -2   0   7  39.562  71.434   1-0.55346 0.29770-0.83192 0.83192 0.03984 0.46827  0 211.02 143.57  118.91 211.04 143.34  119.19
  -2   0   7 -38.525  94.989   2-0.03753-0.21777-0.95343 0.95343 0.29927 0.20867  0 250.17 116.91   92.33 250.18 116.86   92.52
  -2   0   7 -74.717 145.257   2-0.16662-0.08864 0.95770-0.95770 0.23461 0.27376  0 438.58 364.41  304.49 438.71 364.65  304.70
   2   0  -7   7.821 107.398   1-0.68153 0.93700-0.31438 0.31438-0.66082 0.15228  0 404.77 392.21   66.40 404.63 392.15   66.99
   2   0  -7  94.033 140.245   2 0.06510 0.19024-0.95622 0.95622-0.28530-0.22236  0 347.42 412.46  127.41 347.49 412.43  127.04
   2   0  -7  16.432  86.880   2-0.06144 0.31672 0.93511-0.93511-0.34900-0.15894  0 183.54 174.90  270.65 183.63 174.98  270.10
   2   0   7  26.796  87.962   1-0.27276 0.52851-0.84731 0.84731 0.45571 0.05240  0 160.47 240.03  148.62 160.63 240.21  148.24
   2   0   7 -41.483  71.698   2-0.04605 0.30135-0.93884 0.93884 0.34127 0.16666  0 163.37 222.05   89.98 163.23 222.21   89.93
   2   0   7  97.705 124.271   2-0.19289 0.44815 0.88908-0.88908 0.41512 0.09324  0 288.57 412.22  316.05 288.66 412.20  316.01
  -2   0  -8 47157.7   678.4   2 0.07903-0.33437-0.92116 0.92116-0.38107-0.19912  0 499.22 329.81  133.09 499.42 329.84  132.90
  -2   0  -8 47484.7   674.0   2-0.06788-0.18740 0.94615-0.94615-0.31653-0.26397  0 296.17  78.55  271.79 296.52  78.77  272.10
  -2   0   8 48851.9   573.9   1-0.50945 0.25370-0.85177 0.85177 0.12229 0.45840  0 195.21 129.25  124.70 195.28 129.50  124.66
  -2   0   8 51095.7   738.1   2-0.04325-0.21205-0.94391 0.94391 0.32737 0.25313  0 234.75  99.65   91.03 234.54  99.86   90.79
  -2   0   8 48394.9   757.7   2-0.17214-0.08312 0.94708-0.94708 0.27094 0.31005  0 455.73 391.32  307.00 455.81 391.32  306.92
   2   0  -8 41753.6   555.7   1-0.68525 0.94072-0.33254 0.33254-0.64796 0.06678  0 426.57 413.29   68.12 427.02 413.07   68.28
   2   0  -8 39768.1   682.1   2 0.06953 0.18582-0.94631 0.94631-0.31568-0.26450  0 365.01 436.63  128.95 364.78 436.32  128.87
   2   0  -8 50093.1   724.4   2-0.05680 0.31208 0.92675-0.92675-0.37136-0.20914  0 171.65 156.67  268.67 171.68 156.59  268.72
   2   0   8 50533.6   740.6   1-0.26575 0.52150-0.84519 0.84519 0.46371 0.11699  0 142.40 230.22  148.93 142.49 230.24  148.86
   2   0   8 48880.3   651.0   2-0.05176 0.30706-0.92793 0.92793 0.36915 0.21134  0 146.26 210.28   88.05 146.18 210.37   88.17
  -2   0  -9  56.853 191.342   2-0.06069-0.19459 0.93376-0.93376-0.35270-0.30037  0 287.86  52.46  269.99 287.98  52.41  269.87
  -2   0   9  22.231 102.899   1-0.46718 0.21142-0.86266 0.86266 0.19381 0.45947  0 177.98 113.66  129.40 178.21 113.67  129.46
  -2   0   9 -16.575 142.990   2-0.04931-0.20599-0.93274 0.93274 0.35716 0.29590  0 217.58  80.79   89.13 217.57  81.07   88.92
  -2   0   9 -44.548 246.004   2-0.17763-0.07763 0.93489-0.93489 0.30728 0.34633  0 475.71 422.02  308.95 475.87 422.08  309.16
   2   0  -9  37.119 172.198   1-0.68615 0.94162-0.33655 0.33655-0.64493-0.00890  0 452.86 438.53   68.41 452.87 438.32   68.57
   2   0  -9-247.537 221.259   2 0.07417 0.18117-0.93482 0.93482-0.34729-0.30543  0 384.48 464.55  130.43 384.49 464.29  130.81
   2   0  -9  11.714 131.104   2-0.05150 0.30678 0.91656-0.91656-0.39656-0.25651  0 158.13 136.45  267.53 158.22 136.56  267.14
   2   0   9 -28.392 117.662   1-0.25429 0.50998-0.84180 0.84180 0.47614 0.17692  0 122.97 219.03  149.55 122.61 219.36  149.85
   2   0   9 117.131 112.038   2-0.05794 0.31324-0.91508 0.91508 0.39908 0.25398  0 127.07 198.19   86.49 127.23 198.01   86.26
  -2   0 -10 18289.8   579.4   2-0.05320-0.20209 0.91970-0.91970-0.38901-0.33663  0 278.52  22.07  267.56 278.85  22.22  267.61
  -2   0  10 18838.9   440.2   1-0.42554 0.16978-0.86737 0.86737 0.25806 0.46781  0 159.33  94.93  134.18 159.52  95.21  133.85
  -2   0  10 18511.5   562.6   2-0.05566-0.19965-0.91992 0.91992 0.38814 0.33748  0 198.93  59.69   87.03 198.78  59.91   86.97
  -2   0  10 17237.3   678.8   2-0.18300-0.07226 0.92109-0.92109 0.34366 0.38258  0 500.09 458.68  311.63 500.07 458.56  311.43
   2   0 -10 15222.2   506.3   1-0.68496 0.94043-0.33105 0.33105-0.64903-0.07745  0 483.02 469.75   68.04 483.44 469.50   68.17
   2   0 -10 17219.3   657.4   2 0.07885 0.17650-0.92170 0.92170-0.37981-0.34543  0 407.51 498.16  132.77 407.54 497.85  132.82
   2   0 -10 18649.6   537.1   2-0.04577 0.30105 0.90459-0.90459-0.42382-0.30181  0 142.69 114.39  265.22 142.78 114.33  265.41
   2   0  10 18684.4   526.0   1-0.23952 0.49521-0.83684 0.83684 0.49226 0.23337  0 100.73 207.21  150.88 100.59 207.28  151.13
   2   0  10 18802.7   495.9   2-0.06451 0.31982-0.90032 0.90032 0.43042 0.29520  0 106.23 184.78   84.14 105.88 184.91   84.25
   2   0  10 17125.4   567.0   2-0.20142 0.45668 0.85452-0.85452 0.47877 0.24746  0 308.54 501.92  320.31 308.56 501.68  320.23
  -2   0  11  86.883 162.645   1-0.38391 0.12815-0.86717 0.86717 0.31722 0.48124  0 138.76  72.90  137.36 138.74  73.19  137.99
  -2   0  11 -46.116 216.487   2-0.06229-0.19301-0.90538 0.90538 0.42000 0.37819  0 177.74  35.61   85.09 177.46  35.57   84.92
   2   0 -11-145.381 195.937   2-0.03978 0.29506 0.89080-0.89080-0.45264-0.34556  0 124.85  88.97  263.30 124.79  89.15  263.55
   2   0  11  33.053 160.151   1-0.22191 0.47759-0.83036 0.83036 0.51113 0.28706  0  75.48 193.64  153.15  75.72 193.43  152.65
   2   0  11-241.043 147.847   2-0.07138 0.32669-0.88361 0.88361 0.46275 0.33543  0  81.24 170.94   82.45  81.31 170.76   82.12
  -2   0  12 931.676 222.697   1-0.34199 0.08624-0.86265 0.86265 0.37265 0.49839  0 115.19  46.31  142.48 115.10  46.22  141.98
   2   0 -12 887.914 280.665   2-0.03325 0.28853 0.87524-0.87524-0.48255-0.38821  0 103.02  59.65  261.45 103.33  59.81  261.60
   2   0  12 920.996 248.033   1-0.20158 0.45727-0.82233 0.82233 0.53211 0.33865  0  47.08 177.04  154.49  46.96 177.18  154.39
   2   0  12 807.704 231.540   2-0.07870 0.33401-0.86482 0.86482 0.49588 0.37487  0  52.80 155.24   80.02  52.49 155.22   79.91
  -2  -1   0 -35.410  33.490   1-0.30832 0.05287 0.41402-0.51349-0.85646 0.85646  0 242.78 226.81   17.64 242.75 226.74   17.28
  -2  -1   0   8.456  22.467   2-0.23748-0.01778 0.23205-0.33155 0.94327-0.94327  0 369.25 238.25    6.73 369.24 238.15    6.51
  -2  -1   0  10.631  23.252   2 0.12053-0.37587-0.68681 0.58733-0.71677 0.71677  0 340.37 201.30  156.60 340.52 201.16  156.61
  -2   1   0   0.352  33.259   1-0.48177 0.22602-0.85966 0.95918 0.16996-0.16996  0 336.99 198.87  127.32 336.98 198.83  127.85
  -2   1   0  11.279  28.336   2-0.21260-0.04266-0.16822 0.26772 0.96255-0.96255  0 332.11 196.66   29.51 332.26 196.69   29.68
  -2   1   0   8.097  28.357   2 0.05722-0.31247 0.52379-0.42426-0.84992 0.84992  0 371.51 247.40  231.57 371.43 247.38  231.67
   2  -1   0  -7.947  33.327   1-0.16672 0.42241-0.80689 0.70742 0.56669-0.56669  0 264.75 313.81  157.56 264.90 313.83  157.34
   2  -1   0  13.081  28.187   2-0.12682 0.38212-0.70251 0.60298 0.70028-0.70028  0 266.64 315.16   64.85 266.48 315.07   64.72
   2  -1   0  -9.991  18.721   2 0.12278 0.13257-0.06230-0.03718-0.99048 0.99048  0 235.71 270.01  196.49 235.47 269.68  196.45
   2   1   0   8.515  21.733   2 0.11242 0.14283 0.08876 0.01077-0.98969 0.98969  0 258.44 309.39  205.62 258.64 309.37  205.09
   2   1   0  12.513  16.214   2-0.19567 0.45093 0.87878-0.77923 0.43527-0.43527  0 238.03 279.07  317.38 237.96 279.17  317.32
  -2  -1  -1 105.384  46.866   1-0.15481-0.10063 0.57828-0.67776-0.80101 0.72836  0 236.44 235.52    3.45 236.52 235.39    3.97
  -2  -1  -1  93.954  56.082   1-0.05589-0.19979-0.74558 0.64610 0.66407-0.73664  0 370.99 232.43  166.63 370.61 232.46  166.51
  -2  -1  -1  81.743  24.992   2-0.15130-0.10401-0.59245 0.49292 0.79127-0.86384  0 370.73 234.22   56.65 370.85 234.33   56.40
  -2  -1  -1  94.171  25.308   2 0.11781-0.37306 0.01794-0.11748-0.99287 0.92034  0 344.46 200.71  201.46 344.61 200.71  201.03
  -2  -1   1  51.713  39.578   1-0.47362 0.21817 0.18277-0.28225-0.86156 0.93420  0 245.34 217.69   33.42 245.48 218.01   33.60
  -2  -1   1  57.525  35.040   2 0.08252-0.33787-0.91038 0.81078-0.40546 0.47799  0 330.29 192.98  134.47 330.19 192.96  134.44
  -2  -1   1  77.423  34.351   2-0.22628-0.02898 0.68320-0.78274 0.69429-0.62167  0 374.89 250.66  336.43 374.82 250.64  336.26
  -2   1  -1  78.410  43.768   1-0.51810 0.26234-0.84863 0.94815 0.10680-0.17939  0 353.34 207.12  123.53 353.26 207.24  123.63
  -2   1  -1 110.532  32.756   2 0.11969-0.37504-0.01312 0.11260-0.99272 0.92015  0 373.83 244.39  199.08 373.71 244.43  199.27
  -2   1  -1  66.901  32.277   2-0.23812-0.01716 0.42889-0.32936 0.87141-0.94405  0 335.79 195.38  353.94 335.79 195.55  354.11
  -2   1   1 100.822  29.446   1-0.16538-0.09006 0.56823-0.46876-0.80608 0.87872  0 278.52 192.46    5.46 278.48 192.61    4.85
  -2   1   1  79.953  27.423   1-0.41936 0.16361-0.86763 0.96715 0.26714-0.19455  0 322.08 190.34  134.45 322.06 190.24  134.48
  -2   1   1  69.056  37.731   2-0.15429-0.10102-0.57690 0.67642 0.80211-0.72955  0 323.72 190.55   55.11 323.57 190.79   55.31
  -2   1   1  99.936  37.530   2-0.00930-0.24598 0.80844-0.70886-0.58851 0.66107  0 374.93 257.64  254.45 375.09 257.74  254.31
   2  -1  -1  79.974  36.490   2-0.06658 0.32189-0.89541 0.79588 0.44024-0.51280  0 274.83 322.04   83.47 274.54 321.95   83.61
   2  -1  -1 112.267  30.889   2 0.07188 0.18337 0.43495-0.53449-0.89758 0.82505  0 232.48 260.07  225.77 232.24 260.17  225.84
   2  -1   1  98.537  40.336   1-0.29625 0.55200-0.85359 0.75407 0.42850-0.35592  0 250.74 304.90  145.97 250.76 304.68  146.15
   2  -1   1  76.261  30.591   2-0.20540 0.46066-0.23764 0.13813 0.94939-0.87676  0 262.97 315.72   33.78 263.06 315.65   33.76
   2  -1   1  60.172  22.191   2 0.12439 0.13095-0.63865 0.53917-0.75937 0.83195  0 233.71 272.48  159.97 233.71 272.49  160.28
   2   1  -1 153.702  53.364   1-0.26410 0.51954 0.46555-0.36607-0.84470 0.77205  0 360.03 301.72   13.30 360.05 301.76   13.33
   2   1  -1  70.819  31.977   2 0.13002 0.12533-0.53762 0.63710-0.83310 0.76052  0 268.48 318.97  167.44 268.36 318.85  167.45
   2   1  -1  55.381  24.713   2-0.16163 0.41689 0.96582-0.86627 0.20265-0.27527  0 232.95 266.92  302.56 232.82 266.94  302.77
   2   1   1  82.435  17.430   2-0.02276 0.27804 0.84784-0.74826-0.52977 0.60233  0 254.44 308.81  258.85 254.42 308.82  258.42
  -2  -1  -2 23694.9   339.2   1-0.18374-0.07194-0.81459 0.71512 0.55017-0.69529  0 381.87 241.68  156.02 381.86 241.72  155.91
  -2  -1  -2 22790.0   208.8   2-0.05775-0.19755-0.91548 0.81596 0.39819-0.54331  0 381.22 241.03   86.35 381.24 241.08   86.32
  -2  -1  -2 24986.0   218.7   2 0.04649-0.30174 0.58164-0.68117-0.81212 0.66705  0 341.22 189.86  235.76 341.21 189.89  235.68
  -2  -1   2 25778.4   302.7   1-0.60723 0.35175-0.07915-0.02032-0.79058 0.93587  0 244.28 209.06   51.05 244.15 209.06   51.00
  -2  -1   2 22659.4   270.1   2 0.05723-0.31258-0.97051 0.87092-0.23415 0.37920  0 317.90 181.96  124.44 318.03 182.03  123.97
  -2  -1   2 18741.0   245.4   2-0.20781-0.04745 0.82245-0.92200 0.52952-0.38427  0 382.83 266.15  324.36 382.97 266.15  323.73
  -2   1  -2 23307.5   310.1   1-0.54542 0.28966-0.83632 0.93585 0.05553-0.20070  0 370.74 215.59  119.83 370.71 215.66  120.23
  -2   1  -2 21750.0   227.1   2 0.13232-0.38766-0.45896 0.55844-0.87855 0.73339  0 382.62 249.45  172.84 382.70 249.49  172.65
  -2   1  -2 20881.9   223.9   2-0.21421-0.04105 0.78394-0.68439 0.58271-0.72796  0 333.51 186.36  327.58 333.50 186.44  327.55
  -2   1   2 23378.1   126.8   1-0.68625 0.43077-0.33705 0.43653-0.64456 0.78986  0 288.59 182.43   68.55 288.70 182.52   68.60
  -2   1   2 24241.2   129.4   1-0.21957-0.03611-0.82948 0.92895 0.51357-0.36845  0 310.92 181.01  153.02 311.06 181.16  152.85
  -2   1   2 23254.7   283.4   2-0.11374-0.14156-0.75329 0.85282 0.64778-0.50265  0 312.45 181.20   69.13 312.54 181.32   68.96
  -2   1   2 21879.8   273.4   2-0.05265-0.20263 0.91860-0.81902-0.39166 0.53679  0 382.11 271.80  267.12 382.03 271.85  267.44
   2  -1  -2 22366.1   275.3   2-0.03213 0.28744-0.96181 0.86228 0.27184-0.41696  0 284.73 332.70   93.93 284.84 332.65   94.21
   2  -1  -2 23232.2   275.5   2 0.02772 0.22753 0.66980-0.76934-0.74202 0.59695  0 226.68 247.77  241.95 226.54 247.70  242.23
   2  -1   2 21099.6   295.4   1-0.35205 0.60780-0.86406 0.76453 0.35981-0.21464  0 236.48 295.95  141.00 236.38 295.90  141.05
   2  -1   2 23476.4   229.7   2-0.23835 0.49361 0.26803-0.36753 0.93346-0.78821  0 264.76 324.79    4.27 264.85 324.65    4.37
   2   1  -2 26014.1   307.0   1-0.41284 0.66828 0.27637-0.17689-0.86786 0.72257  0 361.68 311.77   26.78 361.69 311.70   27.20
   2   1  -2 22031.4   262.5   2 0.11328 0.14207-0.75309 0.85257-0.64810 0.50294  0 279.57 331.23  150.62 279.59 331.09  151.17
   2   1  -2 20392.6   248.6   2-0.14319 0.39847 0.98532-0.88574 0.09296-0.23809  0 226.13 253.00  296.36 226.03 252.89  296.30
   2   1   2 23651.5   200.5   2-0.19006 0.44532-0.36166 0.46116 0.91273-0.76748  0 228.08 276.12   41.24 227.97 276.06   41.23
   2   1   2 22257.9   196.0   2-0.09599 0.35127 0.98031-0.88073-0.17255 0.31768  0 257.62 320.35  280.94 257.76 320.18  280.74
  -2  -1  -3 30883.8   416.2   1-0.28496 0.02921-0.85071 0.75119 0.44168-0.65944  0 395.77 251.19  147.01 396.06 251.21  147.16
  -2  -1  -3 26706.0   277.4   2-0.01567-0.23963-0.98238 0.88285 0.18623-0.40391  0 395.27 252.08   99.28 395.62 252.12   99.37
  -2  -1  -3 29223.5   290.6   2 0.00197-0.25725 0.77132-0.87090-0.63644 0.41875  0 334.94 174.76  250.96 334.99 174.88  250.79
  -2  -1   3 27410.2   326.6   1-0.68151 0.42603-0.31427 0.21479-0.66090 0.87884  0 239.08 199.82   67.14 238.96 199.88   66.98
  -2  -1   3 24324.6   324.6   2 0.03988-0.29523-0.99129 0.89169-0.12553 0.34310  0 305.23 169.92  117.51 305.38 169.99  117.59
  -2  -1   3 26238.4   334.9   2-0.19742-0.05784 0.87183-0.97138 0.44826-0.23039  0 392.10 283.08  318.39 392.41 283.09  318.19
  -2   1  -3 29148.1   386.5   1-0.56826 0.31251-0.82279 0.92232 0.00955-0.22731  0 389.18 224.22  116.97 389.48 224.25  117.19
  -2   1  -3 28159.5   301.0   2 0.12189-0.37723-0.67140 0.77088-0.73101 0.51327  0 395.49 259.00  157.83 395.81 259.08  157.82
  -2   1  -3 26446.0   293.2   2-0.18435-0.07091 0.91699-0.81744 0.35376-0.57163  0 328.29 172.79  311.70 328.30 172.90  312.08
  -2   1   3 27324.1   161.2   1-0.59647 0.34072-0.80090 0.90043-0.05268 0.27045  0 284.22 172.60  113.11 284.39 172.73  113.09
  -2   1   3 28247.4   356.6   2-0.09148-0.16382-0.82832 0.92785 0.55273-0.33505  0 300.46 170.05   76.00 300.57 170.17   76.00
  -2   1   3 28290.7   354.6   2-0.08030-0.17498 0.96392-0.86434-0.25380 0.47149  0 390.50 287.86  276.21 390.70 287.92  275.90
   2  -1  -3 34311.2   180.9   1-0.36597 0.62141 0.34093-0.44040-0.86593 0.64799  0 316.19 345.66   22.53 316.32 345.53   22.64
   2  -1  -3 29141.5   353.9   2 0.00131 0.25397 0.77362-0.87320-0.63365 0.41596  0 219.76 234.05  250.83 219.62 233.94  251.00
   2  -1   3 25674.5   362.4   1-0.37629 0.63204-0.86663 0.76710 0.32766-0.10990  0 221.78 287.41  138.78 221.70 287.37  138.74
   2  -1   3 25726.3   279.6   2 0.05653 0.19882-0.97162 0.87203-0.22968 0.44725  0 216.23 259.63  123.61 216.09 259.56  123.71
   2  -1   3 26518.0   288.2   2-0.23550 0.49076 0.54371-0.64326 0.80556-0.58768  0 269.23 338.65  346.75 269.45 338.57  346.59
   2   1  -3 30825.7   349.6   1-0.52169 0.77713 0.09983-0.00035-0.84728 0.62934  0 367.99 322.50   38.76 368.01 322.39   39.15
   2   1  -3 16691.6   267.1   2 0.10105 0.15430-0.83291 0.93251-0.54410 0.32653  0 291.35 344.98  143.40 291.49 344.79  143.53
   2   1  -3 26448.3   330.2   2-0.13066 0.38594 0.99125-0.89167 0.01891-0.23660  0 218.58 238.46  292.00 218.47 238.33  291.96
   2   1   3 27784.5   388.5   1-0.04525 0.30094-0.73876 0.83823 0.67245-0.45476  0 216.81 263.80  167.37 216.70 263.78  167.38
   2   1   3 29747.6   282.0   2-0.13800 0.39331-0.65522 0.75475 0.74273-0.52504  0 216.57 266.14   61.01 216.46 266.13   61.03
   2   1   3 27108.8   273.1   2-0.12219 0.37747 0.99208-0.89250-0.02922 0.24691  0 263.19 335.77  289.07 263.22 335.57  289.14
  -2  -1  -4  2077.6   167.3   1-0.36474 0.10899-0.86559 0.76606 0.34311-0.63346  0 412.82 261.15  139.89 412.89 261.20  139.85
  -2  -1  -4  1786.6   118.9   2 0.00806-0.26341-0.99810 0.89851 0.06105-0.35114  0 411.85 264.80  106.77 412.11 264.79  106.76
  -2  -1  -4  1968.3   122.1   2-0.01939-0.23589 0.83822-0.93780-0.54499 0.25473  0 327.95 157.92  257.18 328.04 158.06  257.37
  -2  -1   4  1926.2   108.5   1-0.70302 0.44754-0.49327 0.39380-0.51230 0.80289  0 230.88 190.26   80.30 230.68 190.33   80.39
  -2  -1   4  1799.1   147.1   2 0.02649-0.28184-0.99864 0.89904-0.04501 0.33510  0 292.30 157.09  113.01 292.40 157.21  112.90
  -2  -1   4  1738.0   143.1   2-0.19230-0.06296 0.89118-0.99073 0.41088-0.12038  0 402.70 301.23  316.00 402.98 301.25  315.74
  -2   1  -4  1982.7   157.5   1-0.58809 0.33234-0.80808 0.90761-0.03385-0.25650  0 409.60 233.09  114.09 409.86 233.20  114.34
  -2   1  -4  1998.7   130.4   2 0.11177-0.36712-0.76456 0.86404-0.63479 0.34447  0 411.27 270.90  149.99 411.53 271.01  150.18
  -2   1  -4  1625.9   122.2   2-0.16094-0.09432 0.96684-0.86729 0.19829-0.48878  0 321.93 156.97  302.65 321.92 157.09  302.51
  -2   1   4  1905.8    78.0   1-0.51483 0.25907-0.84985 0.94938 0.11270 0.17765  0 271.19 162.69  124.09 271.39 162.85  124.02
  -2   1   4  1880.6   148.7   2-0.07963-0.17568-0.86229 0.96182 0.50012-0.20987  0 287.94 157.82   79.54 287.97 157.97   79.62
  -2   1   4  1866.6   154.0   2-0.10002-0.15526 0.98348-0.88390-0.15090 0.44116  0 400.61 305.49  282.31 400.71 305.57  282.02
   2  -1  -4  1910.7    79.7   1-0.61568 0.87116-0.10021 0.00073-0.78160 0.49100  0 330.25 358.03   52.26 330.37 357.89   52.40
   2  -1  -4 927.681 109.595   2 0.00589 0.24946-0.99731 0.89772 0.07305-0.36314  0 308.46 360.11  105.98 308.48 359.92  106.05
   2  -1  -4  1886.9   125.6   2-0.01397 0.26925 0.82231-0.92189-0.56887 0.27862  0 211.88 219.53  255.64 211.79 219.47  255.71
   2  -1   4  1757.9   131.4   1-0.38455 0.64030-0.86721 0.76768 0.31634-0.02599  0 206.66 278.98  138.09 206.61 278.92  137.93
   2  -1   4  1825.3   104.5   2 0.03537 0.21998-0.99455 0.89496-0.09805 0.38814  0 204.33 249.91  116.00 204.23 249.90  115.98
   2  -1   4  1971.4   125.8   2-0.22728 0.48253 0.67228-0.77183 0.70454-0.41405  0 274.63 354.98  337.20 274.83 354.86  337.13
   2   1  -4  1988.8   136.7   1-0.59000 0.84545-0.03865 0.13812-0.80648 0.51589  0 378.43 334.34   47.99 378.36 334.19   48.31
   2   1  -4  1824.5   119.1   2-0.12030 0.37558 0.99193-0.89235-0.03996-0.25029  0 210.36 223.54  288.58 210.25 223.38  288.52
   2   1   4  1951.7   138.0   1-0.09995 0.35563-0.77220 0.87167 0.62747-0.33722  0 204.42 255.14  163.07 204.41 255.22  162.89
   2   1   4  2159.7   106.9   2-0.11041 0.36571-0.76538 0.86490 0.63404-0.34379  0 204.04 255.54   70.03 203.93 255.54   70.03
   2   1   4  1862.4   120.7   2-0.13686 0.39214 0.98903-0.88945 0.05552 0.23473  0 269.16 352.95  294.11 269.10 352.76  294.10
  -2  -1  -5 40895.0   549.6   1-0.42810 0.17234-0.86723 0.76770 0.25426-0.61720  0 432.16 271.99  133.63 432.37 271.97  133.58
  -2  -1  -5 37516.1   439.7   2 0.02334-0.27869-0.99937 0.89977-0.02685-0.33577  0 430.49 278.76  112.18 430.70 278.72  111.86
  -2  -1  -5 40499.0   458.5   2-0.02901-0.22627 0.86453-0.96411-0.50175 0.13893  0 320.65 139.77  260.20 320.79 139.94  260.32
  -2  -1   5 38350.6   443.9   1-0.69221 0.43673-0.61889 0.51941-0.37125 0.73449  0 220.22 180.11   90.88 220.09 180.21   91.23
  -2  -1   5 39022.6   514.3   2 0.01517-0.27051-0.99966 0.90007 0.02101 0.34161  0 278.90 143.52  109.00 279.09 143.66  109.09
  -2  -1   5 38235.3   509.2   2-0.19045-0.06481 0.89777-0.99732 0.39716-0.03405  0 414.50 320.81  315.15 414.77 320.82  314.84
  -2   1  -5 37979.1   529.7   1-0.60601 0.35026-0.79188 0.89141-0.07533-0.28760  0 431.99 242.79  111.59 432.28 242.75  111.59
  -2   1  -5 42555.7   479.5   2 0.10560-0.36095-0.80708 0.90668-0.58092 0.21830  0 429.31 284.44  145.80 429.67 284.50  146.12
  -2   1  -5 38038.5   456.8   2-0.14198-0.11331 0.98616-0.88658 0.08567-0.44849  0 314.94 139.48  296.00 315.18 139.63  295.87
  -2   1   5 41979.2   337.6   1-0.46862 0.21286-0.86240 0.96192 0.19149 0.17144  0 256.65 152.08  129.19 256.96 152.26  129.30
  -2   1   5 38742.0   514.1   2-0.07374-0.18156-0.87757 0.97710 0.47373-0.11092  0 274.77 144.66   81.30 274.88 144.83   81.39
  -2   1   5 39237.5   519.7   2-0.11521-0.14007 0.99100-0.89142-0.06817 0.43099  0 411.92 324.74  287.00 412.02 324.78  286.87
   2  -1  -5 32742.5   300.8   1-0.67442 0.92989-0.28340 0.18393-0.68180 0.31856  0 346.56 371.97   64.91 346.71 371.80   64.81
   2  -1  -5 38491.4   512.8   2 0.01838 0.23697-0.99983 0.90023 0.00265-0.36527  0 321.62 376.33  110.00 321.61 376.15  110.14
   2  -1  -5 40381.2   514.0   2-0.02212 0.27740 0.84604-0.94562-0.53266 0.16984  0 203.18 204.36  257.95 203.12 204.29  258.23
   2  -1   5 37060.2   521.5   1-0.38355 0.63930-0.86715 0.76763 0.31771 0.04523  0 191.00 270.45  138.03 190.98 270.43  138.03
   2  -1   5 36347.1   431.3   2 0.01923 0.23612-0.99981 0.90022-0.00325 0.36587  0 191.37 239.66  110.16 191.26 239.61  110.49
   2  -1   5 38635.7   452.8   2-0.22084 0.47610 0.73460-0.83415 0.64156-0.27844  0 280.39 373.23  332.35 280.59 373.11  332.00
   2   1  -5 36778.3   442.3   1-0.62941 0.88488-0.13618 0.23566-0.76505 0.40181  0 391.76 347.45   54.99 392.13 347.35   54.79
   2   1  -5 38056.2   504.9   2 0.09048 0.16487-0.88157 0.98116-0.46330 0.10068  0 317.26 376.61  137.91 317.20 376.47  138.14
   2   1  -5 34953.8   475.3   2-0.11103 0.36631 0.98960-0.89003-0.09140-0.27142  0 201.37 208.05  285.53 201.31 207.93  285.51
   2   1   5 40900.4   545.9   1-0.13453 0.39022-0.79102 0.89049 0.59681-0.23400  0 190.90 246.41  159.97 190.87 246.44  160.02
   2   1   5 37579.9   427.7   2-0.09667 0.35198-0.81196 0.91149 0.57565-0.21284  0 190.65 244.69   74.10 190.57 244.73   74.36
   2   1   5 39010.7   442.3   2-0.14763 0.40291 0.98182-0.88224 0.11928 0.24353  0 275.12 371.77  298.37 275.09 371.53  297.86
  -2  -1  -6  1102.6   161.3   1-0.47941 0.22366-0.86019 0.76067 0.17387-0.60939  0 454.62 283.99  128.22 454.81 283.85  128.11
  -2  -1  -6 933.967 130.195   2 0.03517-0.29052-0.99468 0.89508-0.09687-0.33827  0 451.54 294.09  115.67 451.69 293.99  115.91
  -2  -1  -6 861.811 126.371   2-0.03281-0.22247 0.87412-0.97369-0.48461 0.04923  0 313.16 120.23  261.33 313.33 120.39  261.46
  -2  -1   6 982.856 116.689   1-0.66531 0.40956-0.70437 0.60484-0.24743 0.68295  0 207.93 169.27  100.01 207.82 169.32  100.01
  -2  -1   6  1014.4   153.9   2 0.00488-0.26023-0.99690 0.89730 0.07859 0.35655  0 264.98 129.27  105.66 265.25 129.18  105.73
  -2  -1   6 986.304 156.805   2-0.19050-0.06476 0.89762-0.99717 0.39748 0.03826  0 427.88 342.10  314.69 427.98 342.16  314.86
  -2   1  -6  1193.6   167.1   1-0.62217 0.36641-0.77427 0.87380-0.11581-0.31972  0 457.35 253.24  108.77 457.33 253.12  108.90
  -2   1  -6  1119.4   141.6   2 0.10218-0.35753-0.82683 0.92642-0.55309 0.11795  0 450.03 299.52  144.26 450.21 299.55  144.16
  -2   1  -6 997.280 133.872   2-0.12694-0.12834 0.99191-0.89233-0.00262-0.43276  0 307.67 120.57  290.69 307.92 120.56  290.70
  -2   1   6  1138.0    97.9   1-0.43175 0.17599-0.86700 0.96652 0.24882 0.18671  0 242.02 140.52  133.11 241.96 140.67  133.21
  -2   1   6  1071.4   158.1   2-0.07161-0.18370-0.88304 0.98257 0.46380-0.02842  0 261.13 130.70   81.93 261.18 130.70   82.05
  -2   1   6  1097.8   161.5   2-0.12777-0.12751 0.99180-0.89222 0.00216 0.43322  0 424.59 345.82  291.14 424.80 345.89  290.98
   2  -1  -6 706.579  95.742   1-0.69062 0.94609-0.36138 0.26191-0.62646 0.19057  0 364.51 387.65   70.36 364.60 387.72   70.36
   2  -1  -6 920.602 153.891   2 0.02882 0.22653-0.99787 0.89827-0.05859-0.37655  0 335.85 394.69  114.02 335.81 394.38  113.69
   2  -1  -6 855.048 121.452   2-0.02609 0.28137 0.85670-0.95628-0.51516 0.07978  0 193.72 188.34  259.33 193.58 188.32  259.41
   2  -1   6 806.859 122.706   1-0.37655 0.63231-0.86665 0.76712 0.32730 0.10822  0 174.64 261.82  139.09 174.59 261.74  138.71
   2  -1   6  1132.1   126.8   2 0.00607 0.24928-0.99738 0.89779 0.07205 0.36309  0 177.22 228.97  105.90 177.21 228.91  106.11
   2  -1   6 813.908 127.761   2-0.21690 0.47216 0.76538-0.86493 0.60593-0.17018  0 286.55 393.21  329.04 286.56 393.37  329.27
   2   1  -6 882.745 136.642   1-0.65141 0.90688-0.20060 0.30008-0.73173 0.29584  0 408.89 362.51   59.05 408.91 362.34   59.13
   2   1  -6 776.663 146.732   2 0.08926 0.16609-0.88633 0.98592-0.45437 0.01923  0 331.48 395.08  137.38 331.40 394.99  137.56
   2   1  -6 979.832 128.261   2-0.10230 0.35758 0.98505-0.88547-0.13860-0.29678  0 191.72 191.79  283.00 191.56 191.77  282.74
   2   1   6  1031.8   131.5   1-0.15476 0.41044-0.80118 0.90065 0.57806-0.14268  0 176.04 237.27  158.36 176.13 237.30  158.34
   2   1   6  1088.6   119.4   2-0.09021 0.34551-0.83222 0.93174 0.54706-0.11169  0 176.23 233.61   76.35 176.21 233.73   76.40
   2   1   6 992.282 129.168   2-0.15703 0.41228 0.97216-0.87262 0.17390 0.26185  0 281.22 392.10  300.67 281.23 392.14  301.04
  -2  -1  -7  2653.8   257.5   1-0.52174 0.26599-0.84718 0.74765 0.10039-0.60850  0 480.67 297.32  123.13 480.80 297.23  123.20
  -2  -1  -7  2076.8   215.1   2 0.04498-0.30033-0.98659 0.88700-0.15689-0.35077  0 475.61 310.98  119.30 475.78 310.92  119.43
  -2  -1  -7  1964.9   214.9   2-0.03320-0.22208 0.87512-0.97470-0.48276-0.02519  0 305.52  99.04  261.52 305.66  99.08  261.58
  -2  -1   7  2303.0   167.5   1-0.63075 0.37500-0.76346 0.66394-0.13886 0.64697  0 193.92 157.35  107.33 193.91 157.37  107.37
  -2  -1   7  2038.5   199.9   2-0.00476-0.25059-0.99138 0.89179 0.13094 0.37673  0 250.69 113.52  102.63 250.67 113.57  102.66
  -2  -1   7  1866.4   214.9   2-0.19178-0.06348 0.89324-0.99278 0.40663 0.10173  0 443.04 365.97  315.80 443.00 365.83  315.45
  -2   1  -7  2240.9   254.7   1-0.63676 0.38100-0.75520 0.85473-0.15559-0.35252  0 485.50 264.79  106.16 485.76 264.68  106.24
  -2   1  -7  2288.3   235.7   2 0.10085-0.35620-0.83418 0.93377-0.54219 0.03453  0 473.44 316.39  143.29 473.85 316.41  143.41
  -2   1  -7  1901.6   218.0   2-0.11371-0.14157 0.99056-0.89098-0.07654-0.43140  0 300.20  99.39  286.40 300.32  99.66  286.38
  -2   1   7  2236.6   136.1   1-0.39785 0.14210-0.86775 0.96727 0.29788 0.21023  0 226.38 127.54  136.71 226.41 127.77  136.63
  -2   1   7  2328.5   207.8   2-0.07180-0.18350-0.88254 0.98207 0.46472 0.04321  0 246.81 115.28   82.06 246.68 115.39   81.99
  -2   1   7  2196.2   268.0   2-0.13843-0.11685 0.98826-0.88869 0.06456 0.44338  0 439.39 369.37  294.83 439.40 369.39  294.64
   2  -1  -7  1224.5   129.5   1-0.69549 0.95096-0.39485 0.29537-0.60032 0.09179  0 384.02 406.42   72.71 384.22 406.13   72.81
   2  -1  -7  2366.5   267.2   2 0.03796 0.21739-0.99276 0.89317-0.11397-0.39370  0 351.42 415.35  117.00 351.41 415.10  116.91
   2  -1  -7  2260.5   195.7   2-0.02720 0.28248 0.85969-0.95927-0.51009 0.00214  0 183.05 171.33  259.69 183.00 171.32  259.76
   2  -1   7  2100.9   189.8   1-0.36524 0.62099-0.86564 0.76611 0.34245 0.16566  0 157.24 252.71  140.09 157.21 252.70  139.80
   2  -1   7  2156.1   172.2   2-0.00577 0.26112-0.99064 0.89105 0.13638 0.37129  0 161.82 217.84  102.11 161.85 217.78  102.34
   2  -1   7  19.125 112.729   2-0.21490 0.47016 0.77938-0.87893 0.58854-0.08018  0 292.67 415.94  328.06 292.74 416.03  327.98
   2   1  -7  2128.2   225.6   1-0.66328 0.91875-0.24097 0.34044-0.70852 0.19998  0 428.51 379.68   61.89 428.80 379.66   61.88
   2   1  -7  2109.7   259.6   2 0.08954 0.16580-0.88523 0.98483-0.45644-0.05122  0 347.03 416.06  137.60 346.90 415.91  137.69
   2   1  -7  2299.4   192.5   2-0.09388 0.34916 0.97858-0.87900-0.18322-0.32473  0 180.69 174.83  279.96 180.81 174.70  280.11
   2   1   7  2173.9   190.9   1-0.16459 0.42027-0.80589 0.90536 0.56873-0.06079  0 159.98 227.49  157.53 160.11 227.61  157.52
   2   1   7  2168.7   172.3   2-0.08777 0.34307-0.83935 0.93888 0.53646-0.02853  0 160.75 222.40   77.11 160.63 222.46   77.13
   2   1   7  1908.5   220.6   2-0.16474 0.42000 0.96090-0.86135 0.22257 0.28580  0 287.31 415.16  304.00 287.38 414.99  303.98
  -2  -1  -8 123.926 167.059   2 0.05361-0.30896-0.97604 0.87645-0.21088-0.36931  2 503.77 329.78  122.49 503.87 329.96  122.60
  -2  -1  -8 152.347 156.634   2-0.03155-0.22373 0.87090-0.97048-0.49044-0.09006  0 297.75  75.50  260.87 297.70  75.53  261.07
  -2  -1   8 192.473 102.799   1-0.59238 0.33663-0.80448 0.70495-0.04358 0.62428  0 178.54 143.65  113.63 178.51 144.01  113.69
  -2  -1   8 119.488 126.963   2-0.01392-0.24143-0.98359 0.88400 0.17987 0.40032  0 235.14  96.73   99.67 235.08  96.50   99.77
  -2  -1   8 150.101 194.449   2-0.19381-0.06145 0.88577-0.98532 0.42172 0.15927  0 460.22 392.54  316.53 460.33 392.59  316.44
  -2   1  -8 237.389 171.264   2 0.10088-0.35622-0.83404 0.93364-0.54240-0.03779  0 501.29 335.65  143.60 501.55 335.55  143.43
  -2   1  -8 141.710 156.567   2-0.10181-0.15347 0.98473-0.88515-0.14123-0.43927  0 292.17  76.90  282.63 292.35  76.47  282.58
  -2   1   8 241.679  88.027   1-0.36497 0.10921-0.86561 0.96513 0.34281 0.23788  0 210.03 113.43  139.48 210.16 113.17  139.83
  -2   1   8 181.709 132.498   2-0.07360-0.18170-0.87794 0.97747 0.47308 0.10742  0 230.97  98.52   81.45 231.12  98.62   81.44
  -2   1   8 225.992 199.211   2-0.14799-0.10729 0.98150-0.88192 0.12148 0.45903  0 456.35 396.34  297.92 456.33 396.06  297.99
   2  -1  -8 179.651 130.449   1-0.69675 0.95223-0.40467 0.30519-0.59226 0.01108  0 405.98 427.94   73.46 406.00 427.89   73.54
   2  -1  -8 298.721 188.995   2 0.04633 0.20902-0.98515 0.88556-0.16534-0.41485  0 368.66 438.81  120.09 368.85 438.96  119.93
   2  -1  -8  86.530 116.213   2-0.02642 0.28170 0.85759-0.95717-0.51365-0.06686  0 170.87 152.84  259.53 171.17 153.01  259.51
   2  -1   8 146.308 109.079   1-0.35068 0.60643-0.86388 0.76435 0.36158 0.21911  0 138.31 242.97  142.10 138.52 243.10  141.18
   2  -1   8 169.730 103.537   2-0.01720 0.27250-0.98079 0.88126 0.19433 0.38617  0 144.80 206.12   98.99 144.90 206.18   98.89
   2   1  -8 311.735 154.922   1-0.66938 0.92485-0.26354 0.36302-0.69461 0.11342  0 452.29 400.18   63.33 452.15 400.11   63.43
   2   1  -8 179.060 184.626   2 0.09084 0.16451-0.88014 0.97974-0.46594-0.11425  0 364.36 439.84  138.45 364.14 439.96  138.31
   2   1  -8 269.167 123.613   2-0.08568 0.34097 0.97031-0.87074-0.22616-0.35435  0 168.72 156.19  277.46 168.78 156.38  277.56
   2   1   8  36.973 103.690   1-0.16666 0.42234-0.80686 0.90633 0.56675 0.01376  0 142.85 216.94  157.39 142.62 217.15  157.34
   2   1   8 195.589 103.712   2-0.08798 0.34328-0.83872 0.93824 0.53742 0.04308  0 143.67 211.07   76.87 143.56 210.81   77.06
   2   1   8 -33.369 139.343   2-0.17171 0.42697 0.94796-0.84841 0.26811 0.31288  2 293.44 441.11  306.70 293.59 440.74  306.74
  -2  -1  -9  1193.8   236.1   2-0.02841-0.22687 0.86295-0.96253-0.50450-0.14858  0 289.25  49.11  260.31 289.33  49.00  260.13
  -2  -1   9  1156.7   167.9   1-0.55285 0.29710-0.83227 0.73274 0.04106 0.61223  0 161.48 128.99  118.85 161.53 128.89  119.27
  -2  -1   9  1067.5   201.9   2-0.02324-0.23206-0.97373 0.87420 0.22653 0.42653  0 217.97  77.47   96.96 217.99  77.59   96.96
  -2  -1   9 956.616 278.959   2-0.19642-0.05884 0.87580-0.97534 0.44091 0.21270  0 480.30 423.49  317.60 480.76 423.56  317.70
  -2   1  -9  1004.4   225.2   2-0.09076-0.16452 0.97563-0.87605-0.19978-0.45329  0 283.82  49.84  279.03 283.88  50.27  279.13
  -2   1   9 927.628 131.267   1-0.33177 0.07602-0.86097 0.96049 0.38557 0.26772  0 192.97  96.18  142.78 192.97  96.35  142.93
  -2   1   9 899.714 188.257   2-0.07654-0.17876-0.87020 0.96973 0.48672 0.16634  0 214.21  79.96   80.48 214.15  79.98   80.52
  -2   1   9 749.787 273.707   2-0.15717-0.09809 0.97198-0.87243 0.17481 0.47880  0 476.18 426.97  300.93 476.28 426.95  301.09
   2  -1  -9 833.904 185.938   1-0.69626 0.95173-0.40080 0.30132-0.59547-0.05837  0 430.52 453.89   73.49 430.59 454.11   73.25
   2  -1  -9 641.259 256.531   2 0.05409 0.20125-0.97535 0.87576-0.21392-0.43880  0 388.76 467.34  123.08 388.81 467.01  122.78
   2  -1  -9  1132.4   190.7   2-0.02428 0.27956 0.85175-0.95133-0.52339-0.12968  0 157.87 132.96  258.65 157.78 132.98  258.85
   2  -1   9 846.150 161.069   1-0.33335 0.58911-0.86124 0.76172 0.38358 0.26970  0 118.47 232.67  143.11 118.12 232.70  142.79
   2  -1   9 819.257 155.425   2-0.02719 0.28249-0.96863 0.86910 0.24702 0.40604  0 126.43 193.98   95.58 126.04 193.95   95.72
   2  -1   9 825.673 226.769   2-0.21472 0.46998 0.78061-0.88016 0.58698 0.06663  2 305.89 471.12  327.76 305.75 471.16  327.86
   2   1  -9  1015.7   229.5   1-0.67184 0.92732-0.27319 0.37267-0.68847 0.03464  0 479.71 425.06   64.41 479.74 424.82   64.10
   2   1  -9 870.587 254.898   2 0.09281 0.16254-0.87199 0.97158-0.48064-0.17207  0 383.82 468.28  139.33 383.77 468.16  139.27
   2   1  -9 777.425 165.963   2-0.07757 0.33285 0.96032-0.86074-0.26791-0.38516  0 155.41 136.61  275.11 155.22 136.41  275.05
   2   1   9 976.334 171.927   1-0.16275 0.41843-0.80502 0.90449 0.57049 0.08258  0 123.63 205.61  157.62 123.34 205.65  157.67
   2   1   9 856.066 152.781   2-0.09000 0.34530-0.83285 0.93238 0.54613 0.10693  0 124.58 198.81   76.43 124.60 198.62   76.47
  -2  -1 -10  3688.3   436.9   2-0.02439-0.23089 0.85205-0.95162-0.52290-0.20273  0 280.24  18.39  259.02 280.34  18.52  258.89
  -2  -1  10  3532.9   269.9   1-0.51201 0.25625-0.85087 0.75135 0.11775 0.60812  0 142.55 111.23  124.29 142.61 111.34  124.36
  -2  -1  10  3502.6   349.8   2-0.03203-0.22327-0.96195 0.86242 0.27134 0.45429  0 199.19  56.11   94.25 199.17  56.22   94.24
  -2  -1  10  4020.9   486.5   2-0.19934-0.05592 0.86359-0.96314 0.46311 0.26312  2 504.31 459.75  319.34 505.44 460.36  319.19
  -2   1 -10  3539.1   441.4   2-0.08026-0.17502 0.96386-0.86428-0.25405-0.47158  0 274.34  20.05  275.74 274.71  20.08  275.88
  -2   1  10  4344.5   251.0   1-0.29744 0.04169-0.85389 0.95341 0.42709 0.29878  0 174.30  76.40  146.22 174.50  76.57  146.05
  -2   1  10  3586.1   348.0   2-0.08051-0.17479-0.85985 0.95938 0.50416 0.22146  0 195.43  58.70   79.15 195.28  58.96   79.34
  -2   1  10  3325.1   424.2   2-0.16514-0.09012 0.96023-0.86068 0.22513 0.50110  0 500.19 463.37  303.98 500.40 463.73  304.13
   2  -1 -10  2911.7   282.4   1-0.69451 0.94998-0.38766 0.28818-0.60612-0.12036  0 458.98 486.56   72.32 459.01 486.52   72.28
   2  -1 -10  3305.9   399.5   2 0.06128 0.19406-0.96352 0.86393-0.26051-0.46472  0 412.17 500.92  125.45 412.24 500.81  125.54
   2  -1 -10  3954.1   329.2   2-0.02103 0.27631 0.84292-0.94250-0.53763-0.18801  0 142.51 110.77  257.81 142.39 110.64  257.88
   2  -1  10  3986.9   299.8   1-0.31358 0.56934-0.85757 0.75805 0.40772 0.31815  0  95.52 221.15  144.57  95.54 221.21  144.59
   2  -1  10  3252.2   274.2   2-0.03702 0.29232-0.95426 0.85473 0.29669 0.42894  0 105.06 180.68   93.10 104.66 180.87   92.68
   2   1 -10  3765.3   408.7   2 0.09528 0.16007-0.86127 0.96086-0.49914-0.22610  2 406.71 502.10  140.35 406.72 502.02  140.49
   2   1 -10  3687.0   315.0   2-0.06942 0.32470 0.94859-0.84901-0.30880-0.41684  0 139.56 114.25  272.50 139.65 114.22  272.57
   2   1  10  3535.8   292.1   1-0.15404 0.40972-0.80083 0.90030 0.57874 0.14689  0 102.07 192.59  158.40 101.81 192.71  158.40
   2   1  10  3488.7   276.2   2-0.09317 0.34847-0.82308 0.92261 0.56023 0.16539  0 103.03 185.53   75.37 103.13 185.66   75.47
  -2  -1  11 797.552 201.253   1-0.47066 0.21491-0.86201 0.76249 0.18819 0.61027  0 121.19  90.42  129.11 121.26  90.50  129.08
  -2  -1  11 703.233 257.062   2-0.04063-0.21467-0.94826 0.84873 0.31489 0.48329  0 177.55  31.51   91.50 177.78  31.55   91.56
  -2   1  11 679.020 170.152   1-0.26229 0.00654-0.84413 0.94366 0.46760 0.33086  0 154.30  52.22  149.42 154.22  52.85  149.17
  -2   1  11 461.126 245.695   2-0.08512-0.17019-0.84712 0.94665 0.52453 0.27365  0 173.81  34.75   77.70 173.83  34.67   77.96
   2  -1 -11 704.401 222.038   2-0.01709 0.27237 0.83146-0.93104-0.55533-0.24287  0 124.44  85.16  256.48 124.36  85.22  256.65
   2  -1  11 832.765 213.851   1-0.29187 0.54763-0.85252 0.75299 0.43362 0.36484  0  70.14 208.17  146.56  70.00 208.16  146.54
   2  -1  11 747.326 190.752   2-0.04662 0.30192-0.93777 0.83825 0.34410 0.45408  0  80.51 166.41   90.04  80.03 166.65   89.75
   2   1 -11 614.674 210.205   2-0.06142 0.31670 0.93506-0.83548-0.34912-0.44908  0 121.37  89.00  270.48 121.42  88.99  270.09
   2   1  11 571.153 199.396   1-0.14138 0.39706-0.79452 0.89399 0.59055 0.20765  0  77.30 178.10  159.35  77.38 177.84  159.46
   2   1  11 399.699 181.582   2-0.09726 0.35257-0.81004 0.90957 0.57824 0.21994  0  78.11 171.71   73.88  78.40 171.65   74.17
  -2  -1  12 585.269 221.443   1-0.42834 0.17259-0.86721 0.76769 0.25390 0.61715  0  96.48  64.07  134.38  96.67  65.13  133.56
  -2   1  12 377.267 193.066   1-0.22528-0.03041-0.83171 0.93118 0.50746 0.36330  0 131.56  23.38  152.48 131.48  23.70  152.36
   2  -1 -12 763.559 266.234   2-0.01245 0.26773 0.81761-0.91719-0.57564-0.29512  0 102.66  55.27  255.53 102.81  55.50  255.23
   2  -1  12 439.018 223.947   1-0.26827 0.52403-0.84595 0.74642 0.46087 0.41018  0  40.74 193.05  149.16  40.49 192.95  148.64
   2  -1  12 777.517 227.451   2-0.05601 0.31131-0.91918 0.81965 0.38985 0.48090  0  51.30 150.73   86.49  51.02 150.89   86.86
   2   1 -12 485.688 259.289   2-0.05321 0.30849 0.91974-0.82016-0.38892-0.48185  0  99.41  59.43  267.62  99.62  59.59  267.62
   2   1  12 565.671 229.711   1-0.12529 0.38097-0.78616 0.88563 0.60520 0.26556  0  49.56 160.66  160.62  49.00 160.24  160.79
   2   1  12 347.365 210.833   2-0.10207 0.35737-0.79408 0.89361 0.59918 0.27157  0  50.22 156.18   72.66  49.27 156.21   72.64
  -2  -2   0 16759.1   288.3   1-0.41641 0.16096 0.27119-0.47014-0.86779 0.86779  0 225.54 238.50   27.59 225.50 238.49   27.56
  -2  -2   0 15090.0   212.0   2-0.22847-0.02679 0.02985-0.22885 0.97309-0.97309  0 387.16 256.88   18.16 387.52 256.96   18.27
  -2  -2   0 14080.4   206.0   2 0.13279-0.38813-0.43375 0.23479-0.89119 0.89119  0 327.86 180.38  174.13 327.98 180.47  174.28
  -2   2   0 14161.5   189.2   1-0.69115 0.43567-0.62398 0.82294-0.36464 0.36464  0 340.37 184.73   91.83 340.37 184.86   91.72
  -2   2   0 14603.3   229.0   2-0.22475-0.03051-0.02507 0.22407 0.97409-0.97409  0 316.30 177.89   21.29 316.39 178.01   21.43
  -2   2   0 15081.0   231.5   2 0.08178-0.33703 0.36804-0.16897-0.92621 0.92621  0 386.43 269.12  221.78 386.73 269.06  221.65
   2  -2   0 12436.6   179.7   1-0.46620 0.72195-0.86283 0.66378 0.19542-0.19542  0 261.80 326.71  129.44 261.92 326.64  129.56
   2  -2   0 15100.1   229.4   2-0.17165 0.42691-0.48339 0.28439 0.85841-0.85841  0 280.97 335.40   49.00 281.07 335.32   48.95
   2  -2   0 15086.8   224.9   2 0.12503 0.13031-0.10287-0.09609-0.98681 0.98681  0 223.03 250.33  193.73 222.88 250.25  194.11
   2   2   0 17636.7   299.3   1-0.20604 0.46148 0.52801-0.32906-0.82386 0.82386  0 384.72 280.07    7.91 385.00 280.03    8.29
   2   2   0 15880.2   213.5   2 0.10950 0.14574 0.12277 0.07630-0.98638 0.98638  0 269.96 331.37  206.62 270.09 331.20  207.05
   2   2   0 13550.6   193.8   2-0.23461 0.48986 0.56396-0.36487 0.79177-0.79177  0 222.69 261.56  345.12 222.62 261.57  345.18
  -2  -2  -1 12871.7   262.2   1-0.30136 0.04592 0.42236-0.62132-0.85486 0.78221  0 221.88 247.06   16.77 221.84 247.05   16.65
  -2  -2  -1 10804.9   180.3   2-0.18948-0.06578-0.36595 0.16695 0.91114-0.98377  0 389.59 253.82   41.67 389.97 253.93   41.49
  -2  -2  -1 10960.5   182.2   2 0.12348-0.37882-0.07405-0.12491-0.98958 0.91700  0 331.39 179.09  195.74 331.49 179.16  195.77
  -2  -2   1 12043.3   245.2   1-0.52660 0.27116 0.09077-0.28972-0.84525 0.91790  0 226.20 229.85   40.03 226.13 229.85   39.75
  -2  -2   1 10444.4   195.8   2 0.12012-0.37547-0.69082 0.49186-0.71297 0.78555  0 320.64 176.37  155.81 320.79 176.47  156.30
  -2   2  -1 10285.0   198.4   1-0.67254 0.41706-0.68716 0.88612-0.27478 0.20213  0 358.53 193.01   97.84 358.54 193.16   98.10
  -2   2  -1 11056.4   202.7   2-0.23882-0.01644 0.30642-0.10742 0.92145-0.99408  0 319.39 176.14    1.99 319.48 176.22    2.07
  -2   2  -1 10711.9   198.3   2 0.11454-0.36979 0.06200 0.13707-0.99148 0.91895  0 389.24 266.66  203.71 389.55 266.63  203.55
  -2   2   1 10683.1   121.4   1-0.69604 0.44056-0.39904 0.59800-0.59691 0.66956  0 321.39 176.31   73.10 321.42 176.45   73.12
  -2   2   1 11246.6   216.0   2-0.19637-0.05889-0.31439 0.51339 0.92876-0.85613  0 309.99 175.05   38.06 310.12 175.16   38.34
  -2   2   1 10805.6   212.9   2 0.03985-0.29510 0.61456-0.41549-0.78786 0.86040  0 387.68 276.43  237.84 387.99 276.35  238.06
   2  -2  -1 10396.4   121.0   1-0.35710 0.61285-0.86470 0.66565 0.35324-0.42582  0 278.99 336.85  140.39 279.11 336.76  140.57
   2  -2  -1 10347.1   206.4   2-0.12799 0.38329-0.69761 0.49855 0.70495-0.77752  0 286.97 339.09   63.74 287.07 339.05   64.33
   2  -2  -1 11720.8   211.9   2 0.10123 0.15402 0.20790-0.40697-0.97290 0.90036  0 221.95 243.91  211.70 221.80 243.92  212.01
   2  -2   1  8906.5   177.5   1-0.49363 0.74938-0.85666 0.65761 0.14986-0.07727  0 246.49 317.30  126.41 246.36 317.22  126.50
   2  -2   1 10711.5   197.0   2-0.20982 0.46508-0.19601-0.00299 0.95789-0.88526  0 277.87 336.69   31.06 277.96 336.58   31.31
   2  -2   1  9460.8   178.5   2 0.13281 0.12253-0.43160 0.23264-0.89223 0.96481  0 220.88 252.62  174.25 220.73 252.51  174.41
   2   2  -1 10131.9   232.4   1-0.33049 0.58593 0.38669-0.18774-0.86096 0.78831  0 384.07 289.88   18.92 384.19 289.87   19.31
   2   2  -1 10910.0   196.7   2 0.13090 0.12445-0.24212 0.44108-0.96138 0.88880  0 276.68 336.28  186.00 276.71 336.10  186.00
   2   2  -1  9676.3   179.1   2-0.21601 0.47127 0.77161-0.57251 0.59830-0.67092  0 220.80 254.05  328.98 220.72 254.07  328.71
   2   2   1 11550.4   176.8   2-0.23766 0.49292 0.23757-0.03857 0.94185-0.86922  0 220.88 264.28    6.05 220.77 264.19    6.18
   2   2   1 11249.6   180.5   2 0.05919 0.19606 0.51261-0.31354-0.85658 0.92911  0 266.50 332.03  230.98 266.66 331.89  230.92
  -2  -2  -2 65482.4   596.5   1-0.19771-0.05774 0.53649-0.73544-0.82042 0.67513  0 215.58 255.62    7.65 215.54 255.62    7.59
  -2  -2  -2 55982.3   553.0   1-0.04938-0.20630-0.74143 0.54248 0.66922-0.81434  0 397.56 254.80  167.04 397.82 254.78  167.04
  -2  -2  -2 52153.6   400.0   2-0.13357-0.12173-0.67432 0.47526 0.72626-0.87138  0 397.07 256.61   62.57 397.43 256.70   62.49
  -2  -2  -2 57233.2   420.6   2 0.09522-0.35047 0.26177-0.46083-0.96042 0.81536  0 331.05 172.09  215.01 331.02 172.14  215.19
  -2  -2   2 59503.4   537.9   1-0.61494 0.35947-0.09832-0.10063-0.78242 0.92772  0 223.73 221.05   52.01 223.64 221.03   52.27
  -2  -2   2 51622.6   456.1   2 0.10036-0.35571-0.83674 0.63755-0.53833 0.68338  0 311.05 168.75  142.73 311.23 168.78  143.15
  -2  -2   2 50248.1   447.4   2-0.23466-0.02060 0.56287-0.76197 0.79254-0.64729  0 395.07 277.67  345.34 395.45 277.63  345.25
  -2   2  -2 50275.6   468.3   1-0.66299 0.40724-0.70943 0.90848-0.23905 0.09388  0 377.26 201.28  100.56 377.30 201.32  100.58
  -2   2  -2 55286.8   448.3   2 0.13028-0.38562-0.22158 0.42054-0.96640 0.82124  0 396.40 269.21  186.84 396.70 269.23  187.22
  -2   2  -2 51971.5   437.4   2-0.23359-0.02167 0.58389-0.38479 0.77750-0.92275  0 319.14 169.60  343.91 319.15 169.68  343.76
  -2   2   2 55296.5   492.5   2-0.16626-0.08905-0.51165 0.71071 0.84296-0.69783  0 301.29 168.69   51.05 301.42 168.82   50.84
  -2   2   2 55040.5   489.2   2 0.00057-0.25585 0.77621-0.57706-0.63047 0.77560  0 392.19 287.52  250.88 392.39 287.49  251.24
   2  -2  -2 55096.1   484.4   2 0.07235 0.18290 0.43189-0.63095-0.89902 0.75395  0 218.38 234.45  225.75 218.21 234.43  225.64
   2  -2   2 44105.3   439.7   1-0.49892 0.75467-0.85514 0.65609 0.14078 0.00439  0 231.31 308.33  125.99 231.20 308.28  125.89
   2  -2   2 53049.4   433.3   2-0.23195 0.48721 0.09301-0.29201 0.96827-0.82302  0 277.77 343.11   14.85 277.87 343.00   14.63
   2  -2   2 49144.6   416.1   2 0.12066 0.13469-0.68537 0.48641-0.71813 0.86329  0 215.39 250.66  156.65 215.24 250.57  156.72
   2   2  -2 55748.2   520.8   1-0.43553 0.69097 0.24266-0.04371-0.86685 0.72156  0 387.10 300.10   29.50 387.43 300.06   29.52
   2   2  -2 52912.3   456.1   2 0.13182 0.12353-0.48403 0.68299-0.86507 0.71991  0 285.72 345.18  170.72 285.73 345.01  171.02
   2   2  -2 49466.0   438.3   2-0.19512 0.45038 0.88090-0.68180 0.43121-0.57646  0 216.33 243.47  317.23 216.27 243.49  317.05
   2   2   2 53020.6   393.7   2-0.21779 0.47305-0.11210 0.31110 0.96954-0.82428  0 215.11 262.04   26.35 214.99 261.96   26.44
   2   2   2 54983.3   403.4   2 0.00084 0.25444 0.77526-0.57610-0.63164 0.77677  0 266.59 338.80  251.02 266.70 338.60  251.15
  -2  -2  -3 39007.2   493.1   1-0.16023-0.09545-0.80382 0.60488 0.57289-0.79058  0 409.28 264.92  158.08 409.53 264.92  157.88
  -2  -2  -3 39084.7   386.2   2-0.08518-0.17013-0.84695 0.64790 0.52480-0.74249  0 408.78 263.88   78.26 409.11 263.94   77.94
  -2  -2  -3 41111.7   397.0   2 0.06336-0.31861 0.48815-0.68722-0.87046 0.65286  0 327.78 160.63  229.02 327.77 160.71  229.28
  -2  -2   3 37855.1   446.3   1-0.67199 0.41651-0.27377 0.07481-0.68810 0.90605  0 218.35 211.96   63.82 218.27 211.98   64.14
  -2  -2   3 34873.8   419.9   2 0.08084-0.33618-0.91570 0.71651-0.39365 0.61122  0 300.03 158.87  133.56 300.24 158.90  133.69
  -2  -2   3 38157.0   436.4   2-0.22695-0.02831 0.67589-0.87499 0.70119-0.48332  0 402.98 292.55  337.18 403.32 292.52  336.85
  -2   2  -3 36385.4   446.7   1-0.66008 0.40433-0.71549 0.91455-0.22882 0.01106  0 396.73 209.65  101.03 397.10 209.67  101.28
  -2   2  -3 39473.5   412.7   2 0.13296-0.38830-0.42615 0.62511-0.89483 0.67709  0 407.36 275.81  175.08 407.65 275.85  174.75
  -2   2  -3 36461.9   400.6   2-0.21677-0.03849 0.76631-0.56721 0.60480-0.82267  0 316.30 159.02  329.09 316.28 159.14  329.19
  -2   2   3 37317.1   446.0   2-0.14281-0.11250-0.63298 0.83203 0.76088-0.54320  0 291.04 159.87   59.12 291.16 160.00   59.35
  -2   2   3 39260.9   456.0   2-0.03232-0.22296 0.87289-0.67373-0.48685 0.70454  0 399.10 301.45  260.82 399.27 301.42  261.31
   2  -2  -3 17047.2   306.2   2-0.06046 0.31576-0.90953 0.71047 0.41122-0.62891  2 305.31 357.36   85.46 305.39 357.34   85.48
   2  -2  -3 40379.0   455.1   2 0.04808 0.20717 0.57348-0.77255-0.81780 0.60020  0 212.95 222.93  234.90 212.82 222.90  235.10
   2  -2   3 31671.5   415.5   1-0.49463 0.75038-0.85638 0.65733 0.14816 0.06960  0 216.09 299.70  126.25 216.01 299.65  126.39
   2  -2   3 37044.4   393.0   2 0.09998 0.15537-0.83869 0.63950-0.53536 0.75293  0 207.15 245.45  142.92 207.00 245.35  142.94
   2   2  -3 38795.0   454.4   1-0.51462 0.77007 0.11245 0.08650-0.85001 0.63207  0 394.19 310.98   37.84 394.50 310.91   38.31
   2   2  -3 35283.3   413.6   2-0.17658 0.43184 0.93737-0.73827 0.30028-0.51815  0 210.22 231.07  309.19 210.13 231.06  308.73
   2   2   3 41390.2   387.6   2-0.18879 0.44405-0.37091 0.56991 0.90928-0.69140  0 206.30 256.16   42.52 206.21 256.10   41.80
   2   2   3 36262.1   366.0   2-0.04569 0.30097 0.90441-0.70525-0.42421 0.64190  0 269.22 350.28  265.26 269.27 350.10  265.38
  -2  -2  -4  4022.6   210.5   1-0.25478-0.00090-0.84195 0.64301 0.47560-0.76586  0 424.20 275.63  150.09 424.35 275.62  149.81
  -2  -2  -4  3835.0   170.6   2-0.04936-0.20595-0.93265 0.73360 0.35738-0.64763  0 423.78 274.17   88.89 424.02 274.16   88.91
  -2  -2  -4  3732.2   165.9   2 0.03895-0.29420 0.61887-0.81794-0.78453 0.49439  0 322.77 146.20  238.23 322.81 146.30  238.38
  -2  -2   4  3841.0   170.9   1-0.69871 0.44324-0.42214 0.22318-0.57758 0.86818  0 210.40 202.54   74.99 210.40 202.56   74.85
  -2  -2   4  3313.5   181.9   2 0.06375-0.31910-0.95890 0.75972-0.27648 0.56658  0 288.18 147.50  126.37 288.32 147.50  126.50
  -2  -2   4  3709.3   194.5   2-0.22042-0.03484 0.73802-0.93712 0.63776-0.34727  0 412.69 309.50  332.02 412.94 309.42  331.70
  -2   2  -4  3714.7   205.7   1-0.66118 0.40542-0.71325 0.91230-0.23263-0.05772  0 418.20 218.31  100.97 418.48 218.29  101.02
  -2   2  -4  4013.4   179.0   2 0.12923-0.38458-0.55654 0.75550-0.82071 0.53039  0 421.53 285.43  165.99 421.72 285.46  166.15
  -2   2  -4  3430.7   172.5   2-0.19711-0.05815 0.87308-0.67398 0.44596-0.73646  0 311.71 145.48  318.00 311.73 145.65  318.03
  -2   2   4  3875.3   202.5   2-0.12625-0.12905-0.70486 0.90392 0.69802-0.40777  0 279.66 149.27   65.00 279.78 149.45   64.91
  -2   2   4  3958.7   204.1   2-0.05839-0.19689 0.92973-0.73057-0.36358 0.65383  0 407.86 317.62  269.10 408.01 317.64  269.21
   2  -2  -4  3721.6   198.3   2-0.03695 0.29226-0.95436 0.75531 0.29635-0.58660  0 316.64 370.51   92.75 316.72 370.39   92.70
   2  -2  -4  3658.8   168.5   2 0.03021 0.22504 0.65921-0.85827-0.75135 0.46122  0 206.18 209.94  241.38 206.05 209.94  241.41
   2  -2   4  3132.9   164.9   1-0.48501 0.74076-0.85891 0.65986 0.16443 0.12592  0 200.58 291.20  127.41 200.53 291.18  127.48
   2  -2   4  3384.0   147.4   2 0.07843 0.17692-0.92292 0.72373-0.37692 0.66702  0 196.85 238.14  132.47 196.74 238.07  132.64
   2  -2   4  3551.9   170.5   2-0.23741 0.49268 0.46512-0.66417 0.85282-0.56226  0 283.79 368.04  352.18 283.99 367.86  351.77
   2   2  -4  3739.5   188.9   1-0.56943 0.82488 0.00618 0.19277-0.82202 0.53143  0 404.87 322.87   44.80 405.14 322.75   45.35
   2   2  -4  3831.2   193.1   2 0.11904 0.13630-0.70208 0.90104-0.70208 0.41176  0 307.88 370.62  155.25 307.78 370.49  155.40
   2   2   4  3783.8   146.8   2-0.16299 0.41829-0.52976 0.72881 0.83234-0.54209  0 195.41 248.13   51.59 195.34 248.20   52.06
   2   2   4  3423.8   158.7   2-0.07813 0.33341 0.96107-0.76192-0.26501 0.55527  0 273.30 365.01  275.23 273.28 364.86  275.22
  -2  -2  -5  8478.2   291.4   1-0.33457 0.07881-0.86145 0.66240 0.38206-0.74499  0 441.98 287.29  142.76 442.16 287.24  142.67
  -2  -2  -5  8526.9   250.6   2-0.02290-0.23241-0.97415 0.77509 0.22474-0.58755  0 441.53 286.55   97.01 441.80 286.57   97.06
  -2  -2  -5  8754.4   258.3   2 0.02255-0.27780 0.69203-0.89110-0.72151 0.35885  0 316.82 129.48  244.00 316.90 129.63  243.99
  -2  -2   5  8116.4   243.0   1-0.70196 0.44648-0.54051 0.34155-0.46380 0.82704  0 200.50 192.53   84.02 200.40 192.60   84.26
  -2  -2   5  7740.4   275.5   2 0.04863-0.30398-0.98255 0.78336-0.17955 0.54217  0 275.49 134.76  120.69 275.67 134.79  120.77
  -2  -2   5  7520.2   272.6   2-0.21592-0.03934 0.77225-0.97135 0.59750-0.23438  0 423.93 328.29  329.03 424.21 328.27  328.65
  -2   2  -5  8176.6   284.0   1-0.66463 0.40888-0.70588 0.90493-0.24495-0.11799  0 441.69 227.40  100.00 441.98 227.37  100.18
  -2   2  -5  7891.8   248.5   2 0.12462-0.37996-0.63554 0.83450-0.76195 0.39905  0 438.48 297.38  160.41 438.69 297.46  160.52
  -2   2  -5  7236.6   246.9   2-0.17822-0.07704 0.93347-0.73437 0.31124-0.67436  0 306.07 129.62  309.48 306.05 129.81  309.41
  -2   2   5  7722.1   277.6   2-0.11538-0.13993-0.74714 0.94620 0.65457-0.29176  0 267.39 137.27   68.30 267.50 137.48   68.43
  -2   2   5  7911.6   285.2   2-0.07940-0.17588 0.96275-0.76359-0.25847 0.62128  0 418.37 335.98  275.63 418.50 335.95  275.62
   2  -2  -5  6267.4   118.3   1-0.69603 0.95151-0.39901 0.20006-0.59693 0.23369  0 328.72 386.06   73.11 328.91 385.90   73.12
   2  -2  -5  8155.1   281.2   2-0.01809 0.27339-0.97983 0.78077 0.19902-0.56183  0 329.23 385.82   98.68 329.29 385.70   98.61
   2  -2  -5  7928.3   254.0   2 0.01798 0.23727 0.71072-0.90978-0.70325 0.34058  0 198.25 195.78  245.49 198.14 195.78  245.51
   2  -2   5  7645.0   260.9   1-0.47195 0.72770-0.86176 0.66271 0.18610 0.17683  0 184.55 282.77  129.10 184.53 282.74  128.94
   2  -2   5  7760.2   230.6   2 0.05926 0.19609-0.96718 0.76799-0.24708 0.60970  0 184.94 229.52  124.61 184.84 229.45  124.75
   2  -2   5  7981.5   251.7   2-0.23494 0.49020 0.55714-0.75624 0.79649-0.43338  0 288.44 384.79  345.75 288.67 384.68  345.65
   2   2  -5  7780.8   260.2   1-0.60532 0.86079-0.07451 0.27347-0.79249 0.42925  0 418.84 336.04   50.69 419.09 335.95   50.69
   2   2  -5  8061.6   279.0   2 0.11404 0.14130-0.74691 0.94587-0.65508 0.29218  0 320.50 386.62  151.52 320.41 386.41  151.70
   2   2  -5  6989.7   239.3   2-0.14629 0.40157 0.98302-0.78386 0.11079-0.47361  0 194.46 202.98  297.42 194.44 202.84  297.36
   2   2   5  8089.6   266.2   1 0.00438 0.25130-0.70478 0.90373 0.70941-0.34659  0 184.33 234.14  171.41 184.34 234.17  171.42
   2   2   5  7818.5   220.3   2-0.14506 0.40036-0.62222 0.82127 0.76929-0.40648  0 183.04 239.05   58.73 182.97 239.07   58.56
   2   2   5  7790.7   239.4   2-0.10145 0.35673 0.98449-0.78533-0.14315 0.50597  0 278.09 382.41  282.63 278.05 382.20  282.48
  -2  -2  -6 30847.3   536.4   1-0.40091 0.14515-0.86777 0.66872 0.29369-0.72921  0 463.17 300.22  136.27 463.31 300.16  136.33
  -2  -2  -6 28828.0   460.4   2-0.00234-0.25301-0.99303 0.79384 0.11785-0.55299  0 462.17 300.87  103.39 462.31 300.79  103.43
  -2  -2  -6 30115.7   470.7   2 0.01240-0.26764 0.73273-0.93179-0.68041 0.24521  0 310.28 110.74  247.32 310.36 110.93  247.36
  -2  -2   6 28621.7   460.9   1-0.68939 0.43392-0.63187 0.43291-0.35424 0.79013  0 188.67 181.81   92.36 188.58 181.90   92.47
  -2  -2   6 27594.2   508.5   2 0.03513-0.29048-0.99470 0.79551-0.09663 0.53177  0 262.01 120.72  115.98 262.26 120.85  115.90
  -2  -2   6 29718.7   528.5   2-0.21321-0.04205 0.79036-0.98945 0.57435-0.13861  0 436.99 349.31  327.00 437.27 349.27  326.95
  -2   2  -6 29790.0   537.5   1-0.66951 0.41404-0.69472 0.89367-0.26291-0.17298  0 467.99 237.27   99.09 468.24 237.32   98.92
  -2   2  -6 30396.4   489.7   2 0.12091-0.37626-0.68253 0.88149-0.72079 0.28531  0 458.48 311.51  157.00 458.65 311.58  156.95
  -2   2  -6 25991.2   452.6   2-0.16088-0.09438 0.96692-0.76783 0.19793-0.63367  0 299.61 111.62  302.62 299.66 111.80  302.49
  -2   2   6 18232.4   232.1   1-0.09090-0.16478-0.76692 0.96586 0.63527-0.19989  0 255.42 123.64  163.60 255.70 123.85  163.64
  -2   2   6 31342.4   526.8   2-0.10866-0.14664-0.77139 0.97045 0.62701-0.19164  0 254.57 123.91   70.47 254.33 124.13   70.56
  -2   2   6 27685.5   519.2   2-0.09693-0.15835 0.98109-0.78193-0.16754 0.60292  0 430.71 356.57  281.00 430.74 356.59  281.04
   2  -2  -6 21811.6   257.6   1-0.70221 0.95768-0.46889 0.26994-0.53576 0.09987  0 348.03 403.03   78.43 348.21 402.79   78.45
   2  -2  -6 29066.2   519.2   2-0.00183 0.25718-0.99330 0.79412 0.11553-0.55067  0 343.21 403.58  103.60 343.19 403.34  103.57
   2  -2  -6 30933.1   514.5   2 0.01018 0.24507 0.74130-0.94037-0.67109 0.23589  0 189.14 180.43  247.97 189.08 180.46  248.10
   2  -2   6 26210.0   486.8   1-0.45626 0.71201-0.86442 0.66537 0.21120 0.22432  0 167.73 274.19  130.64 167.77 274.18  130.64
   2  -2   6 27569.3   444.1   2 0.04220 0.21315-0.98932 0.79013-0.13954 0.57469  0 171.49 219.95  118.12 171.45 219.87  118.41
   2  -2   6 -27.400  91.983   2-0.23175 0.48701 0.61407-0.81316 0.75446-0.31872  2 293.75 404.46  341.59 293.91 404.09  341.57
   2   2  -6 26110.5   459.0   1-0.62806 0.88353-0.13251 0.33146-0.76680 0.33091  0 436.11 350.94   54.50 436.41 350.83   54.54
   2   2  -6 28509.1   508.2   2 0.11089 0.14446-0.77169 0.97088-0.62626 0.19111  0 334.36 404.79  149.19 334.23 404.63  149.41
   2   2  -6 28352.0   490.9   2-0.13360 0.38888 0.99036-0.79120 0.03661-0.47199  0 184.99 187.40  293.07 185.00 187.29  292.99
   2   2   6 29501.1   508.1   1-0.02725 0.28293-0.72679 0.92573 0.68632-0.25094  0 170.76 224.60  169.03 170.77 224.61  168.85
   2   2   6 29275.9   444.8   2-0.13328 0.38858-0.67562 0.87468 0.72510-0.28973  0 169.31 229.13   62.62 169.20 229.20   62.59
   2   2   6 29947.2   464.9   2-0.11929 0.37457 0.99181-0.79265-0.04566 0.48104  0 283.32 402.26  288.24 283.25 401.97  288.18
  -2  -2  -7 695.668 190.083   1-0.45642 0.20067-0.86440 0.66534 0.21095-0.71906  0 488.08 314.71  130.65 488.31 314.81  130.62
  -2  -2  -7 763.063 158.660   2 0.01392-0.26927-0.99951 0.80032 0.02804-0.53570  0 486.56 317.21  109.05 486.50 317.14  108.68
  -2  -2  -7 824.055 164.116   2 0.00662-0.26187 0.75455-0.95361-0.65621 0.14848  0 303.30  89.90  249.41 303.33  90.05  249.26
  -2  -2   7 607.610 122.854   1-0.66678 0.41103-0.70105 0.50200-0.25285 0.76096  0 175.12 170.21   99.58 175.17 170.26   99.63
  -2  -2   7 863.062 151.042   2 0.02277-0.27812-0.99946 0.80028-0.02357 0.53123  0 247.99 105.55  111.80 247.94 105.48  111.67
  -2  -2   7 879.884 202.748   2-0.21196-0.04330 0.79844-0.99754 0.56353-0.05516  0 452.13 372.84  326.41 452.41 372.91  326.15
  -2   2  -7 739.579 199.150   1-0.67497 0.41950-0.68075 0.87970-0.28460-0.22394  0 498.11 248.09   97.40 498.27 248.15   97.41
  -2   2  -7 888.603 180.641   2 0.11828-0.37363-0.70968 0.90864-0.69452 0.18647  0 481.96 327.91  154.63 482.07 327.97  154.78
  -2   2  -7 705.004 163.246   2-0.14475-0.11053 0.98425-0.78509 0.10150-0.60944  0 292.68  91.68  297.01 292.87  91.53  296.81
  -2   2   7 787.495  88.460   1-0.13032-0.12536-0.78883 0.98777 0.60064-0.09270  0 239.35 110.03  160.32 239.35 110.26  160.37
  -2   2   7 976.390 162.740   2-0.10497-0.15033-0.78412 0.98318 0.61166-0.10373  0 240.23 109.47   71.58 240.15 109.34   71.71
  -2   2   7 561.702 194.087   2-0.11180-0.14348 0.98990-0.79074-0.08715 0.59510  0 445.30 380.15  285.59 445.05 379.96  285.76
   2  -2  -7 704.059 104.759   1-0.70285 0.95832-0.48439 0.28543-0.52094 0.01240  0 367.88 422.37   79.83 367.84 422.30   79.67
   2  -2  -7 796.960 190.196   2 0.01166 0.24369-0.99910 0.79991 0.04074-0.54841  0 358.81 423.91  107.93 358.77 423.84  107.94
   2  -2  -7 794.050 139.958   2 0.00558 0.24970 0.75843-0.95759-0.65173 0.14379  0 178.82 163.77  249.50 178.89 163.80  249.63
   2  -2   7 639.364 142.155   1-0.43848 0.69423-0.86647 0.66742 0.23868 0.26943  0 150.11 265.49  132.44 149.98 265.34  132.51
   2  -2   7 866.493 134.130   2 0.02704 0.22830-0.99847 0.79928-0.04823 0.55590  0 156.40 209.44  113.22 156.52 209.52  113.08
   2   2  -7 739.064 177.451   1-0.64204 0.89751-0.17190 0.37086-0.74715 0.23862  0 457.02 368.32   56.97 457.19 368.08   57.19
   2   2  -7 894.591 189.839   2 0.10901 0.14633-0.78472 0.98391-0.61019 0.10252  0 349.55 425.57  147.99 349.55 425.55  148.22
   2   2  -7 993.948 147.495   2-0.12213 0.37741 0.99207-0.79291-0.02956-0.47838  0 174.21 170.66  289.31 174.39 170.59  289.12
   2   2   7 837.958 140.947   1-0.04723 0.30291-0.74004 0.93898 0.67090-0.16296  0 155.61 214.33  167.19 155.68 214.42  167.21
   2   2   7 827.612 126.490   2-0.12602 0.38132-0.70583 0.90489 0.69708-0.18915  0 153.84 218.72   64.76 153.95 218.72   64.99
   2   2   7 839.412 161.014   2-0.13348 0.38876 0.99040-0.79124 0.03592 0.47202  0 288.77 424.58  292.75 288.71 424.42  292.95
  -2  -2  -8  4379.9   326.8   2 0.00388-0.25916 0.76455-0.96371-0.64455 0.06405  0 295.73  66.26  249.99 295.90  66.62  250.17
  -2  -2   8  3872.4   247.6   1-0.63776 0.38201-0.75375 0.55470-0.15847 0.73917  0 159.84 157.16  105.99 159.93 157.29  106.04
  -2  -2   8  4304.8   283.8   2 0.01134-0.26669-0.99903 0.79985 0.04249 0.53770  0 232.53  88.33  107.68 232.50  88.46  107.84
  -2  -2   8  3737.4   391.3   2-0.21174-0.04352 0.79977-0.99887 0.56172 0.01927  0 469.96 399.99  326.06 470.14 399.95  326.02
  -2   2  -8  3659.7   314.8   2-0.13031-0.12497 0.99133-0.79217 0.01686-0.59737  0 285.05  68.61  291.74 285.27  68.66  291.84
  -2   2   8  3987.9   172.9   1-0.14119-0.11449-0.79443 0.99337 0.59072-0.01021  0 222.76  94.42  159.40 222.86  94.64  159.47
  -2   2   8  3978.2   286.7   2-0.10355-0.15176-0.78904 0.98810 0.60555-0.02505  0 224.82  92.64   71.96 224.72  92.89   72.17
  -2   2   8  3877.8   384.2   2-0.12483-0.13045 0.99207-0.79291-0.01470 0.59521  0 461.96 406.85  290.18 461.85 406.83  290.00
   2  -2  -8  3035.0   213.4   1-0.70264 0.95811-0.47987 0.28091-0.52538-0.05580  0 388.60 445.58   79.15 388.95 445.30   79.32
   2  -2  -8  3718.9   364.4   2 0.02339 0.23196-0.99936 0.80017-0.02709-0.55310  0 376.53 448.09  111.73 376.40 447.85  111.88
   2  -2  -8  3885.9   263.9   2 0.00330 0.25198 0.76661-0.96577-0.64210 0.06159  0 167.21 145.61  250.10 167.23 145.66  250.36
   2  -2   8  4119.0   257.3   1-0.41889 0.67464-0.86763 0.66858 0.26787 0.31283  0 130.75 256.06  134.50 130.80 256.03  134.53
   2  -2   8  3857.0   233.8   2 0.01330 0.24204-0.99941 0.80023 0.03151 0.54868  0 139.77 198.38  108.33 139.84 198.40  108.48
   2  -2   8  3732.5   308.8   2-0.22774 0.48300 0.66707-0.86617 0.70934-0.12835  2 305.60 452.20  337.63 305.71 451.97  337.54
   2   2  -8  3280.6   336.9   1-0.65016 0.90563-0.19665 0.39560-0.73391 0.15272  0 481.84 388.46   59.23 482.12 388.47   58.86
   2   2  -8  3840.5   356.4   2 0.10827 0.14708-0.78965 0.98884-0.60392 0.02374  0 366.83 450.07  148.01 366.75 449.89  147.76
   2   2  -8  3525.9   257.0   2-0.11130 0.36658 0.98971-0.79055-0.08994-0.49056  0 162.21 152.61  285.62 162.40 152.50  285.60
   2   2   8  4058.5   255.1   1-0.05816 0.31384-0.74701 0.94595 0.66227-0.08176  0 138.78 203.25  166.35 138.90 203.32  166.32
   2   2   8  3900.1   236.8   2-0.12206 0.37736-0.72147 0.92053 0.68160-0.10110  0 136.96 207.57   66.25 136.99 207.63   66.27
   2   2   8 -24.611 153.245   2-0.14569 0.40097 0.98350-0.78435 0.10720 0.47331  2 293.98 450.15  297.51 294.43 450.08  297.15
  -2  -2  -9  7904.8   422.3   2 0.00326-0.25854 0.76678-0.96594-0.64190-0.01117  0 287.69  39.42  250.31 287.87  39.87  250.38
  -2  -2   9  7857.6   337.2   1-0.60436 0.34861-0.79351 0.59446-0.07135 0.72463  0 142.64 142.42  111.87 142.79 142.58  111.85
  -2  -2   9  7756.4   382.1   2 0.00041-0.25576-0.99465 0.79546 0.10332 0.54939  0 215.48  69.17  104.20 215.56  69.37  104.28
  -2  -2   9  7534.3   519.8   2-0.21233-0.04293 0.79618-0.99528 0.56658 0.08704  0 491.16 431.63  326.52 491.29 431.55  326.37
  -2   2  -9  7639.5   421.7   2-0.11688-0.13840 0.99141-0.79225-0.05877-0.59430  0 276.67  42.26  287.44 276.97  42.55  287.42
  -2   2   9  8687.2   260.4   1-0.13694-0.11874-0.79226 0.99120 0.59462 0.05845  0 205.59  76.14  159.94 205.78  76.47  159.82
  -2   2   9  8535.8   402.9   2-0.10376-0.15154-0.78830 0.98735 0.60648 0.04658  0 207.87  74.17   71.96 207.72  74.40   72.10
  -2   2   9  8241.7   532.6   2-0.13623-0.11905 0.98932-0.79016 0.05184 0.60123  0 482.10 438.32  293.69 481.92 438.28  293.88
   2  -2  -9  6349.4   305.4   1-0.70198 0.95745-0.46420 0.26524-0.54013-0.11370  0 411.86 473.33   78.03 412.23 473.08   78.08
   2  -2  -9  8113.1   491.1   2 0.03395 0.22139-0.99539 0.79621-0.08965-0.56306  0 396.65 476.63  115.45 396.79 476.43  115.49
   2  -2  -9  7662.0   368.6   2 0.00281 0.25247 0.76836-0.96752-0.64001-0.01306  0 153.83 125.58  250.44 153.89 125.59  250.52
   2  -2   9  7544.1   350.8   1-0.39757 0.65332-0.86774 0.66869 0.29828 0.35501  0 110.00 245.98  136.65 109.86 246.04  136.66
   2  -2   9  7647.2   332.4   2 0.00048 0.25487-0.99469 0.79550 0.10296 0.54975  0 121.29 186.47  104.26 121.02 186.43  104.30
   2  -2   9  8218.1   447.9   2-0.22697 0.48223 0.67564-0.87474 0.70142-0.04781  0 312.03 482.01  336.82 312.24 481.81  336.87
   2   2  -9  7585.0   480.8   2 0.10840 0.14695-0.78881 0.98799-0.60501-0.04771  0 386.46 478.88  147.98 386.50 478.73  147.84
   2   2  -9  8263.9   373.2   2-0.10090 0.35618 0.98411-0.78495-0.14613-0.50694  0 148.56 132.67  281.99 148.74 132.56  282.30
   2   2   9  8478.5   373.4   1-0.06181 0.31749-0.74930 0.94824 0.65934-0.00627  0 120.26 190.91  166.02 120.16 191.00  166.02
   2   2   9  7689.0   330.5   2-0.12059 0.37589-0.72733 0.92639 0.67561-0.02255  0 118.28 195.69   66.74 117.93 195.84   66.76
  -2  -2 -10  5725.7   493.0   2 0.00423-0.25951 0.76330-0.96245-0.64604-0.07960  2 278.94   8.71  250.28 279.16   8.83  250.06
  -2  -2  10  6123.2   347.7   1-0.56832 0.31257-0.82275 0.62370 0.00942 0.71645  0 123.52 125.58  116.97 123.44 125.61  117.19
  -2  -2  10  4852.3   379.0   2-0.01021-0.24514-0.98703 0.78784 0.16024 0.56499  0 196.68  47.58  101.02 196.61  47.62  100.94
  -2   2 -10  5253.4   473.9   2-0.10431-0.15097 0.98632-0.78716-0.12765-0.59799  0 267.51  11.72  283.38 267.86  12.23  283.38
  -2   2  10  5695.4   259.5   1-0.12336-0.13232-0.78513 0.98407 0.60692 0.11871  0 187.50  54.60  160.99 187.69  54.89  160.95
  -2   2  10  6040.6   404.7   2-0.10525-0.15006-0.78317 0.98222 0.61284 0.11278  0 188.71  53.23   71.55 188.65  53.31   71.63
   2  -2 -10  5811.1   381.9   2 0.00370 0.25158 0.76521-0.96437-0.64377-0.08186  0 138.26 102.89  249.99 138.41 103.03  250.23
   2  -2  10  5139.4   339.7   1-0.37477 0.63052-0.86651 0.66746 0.32971 0.39616  0  86.73 234.99  139.12  86.55 235.04  138.89
   2  -2  10  4818.8   303.3   2-0.01174 0.26708-0.98566 0.78647 0.16834 0.55689  0  99.66 173.42  100.39  99.51 173.44  100.46
   2   2 -10  5067.8   363.3   2-0.09087 0.34615 0.97573-0.77657-0.19922-0.52642  0 132.67 110.30  278.97 132.91 110.30  279.16
   2   2  10  5730.6   339.6   1-0.05955 0.31523-0.74788 0.94682 0.66116 0.06447  0  99.09 176.91  165.96  99.02 177.02  166.21
   2   2  10  5474.3   321.8   2-0.12087 0.37618-0.72620 0.92526 0.67677 0.04885  0  96.60 183.04   66.64  96.19 183.17   66.66
  -2  -2  11  6038.2   381.2   1-0.53013 0.27438-0.84366 0.64460 0.08488 0.71358  0 101.41 105.49  121.99 101.29 105.55  122.17
  -2  -2  11  5817.5   460.8   2-0.02103-0.23428-0.97650 0.77744 0.21449 0.58369  0 175.08  22.41   97.98 174.82  22.40   97.68
  -2   2  11  6955.7   316.7   1-0.10314-0.15254-0.77401 0.97295 0.62472 0.17348  0 167.80  28.55  162.60 168.12  28.72  162.62
  -2   2  11  7546.3   496.2   2-0.10781-0.14749-0.77444 0.97350 0.62339 0.17479  0 166.93  28.69   70.69 166.79  28.82   70.83
   2  -2 -11  6773.5   448.8   2 0.00567 0.24961 0.75811-0.95726-0.65211-0.14609  0 120.30  77.03  249.54 120.14  77.12  249.60
   2  -2  11  5964.4   375.9   1-0.35044 0.60619-0.86384 0.66479 0.36190 0.43656  0  60.01 222.58  141.31  60.12 222.63  141.20
   2  -2  11  6697.0   395.0   2-0.02385 0.27916-0.97296 0.77391 0.22973 0.56845  0  74.96 159.04   97.12  74.47 159.23   96.76
   2   2 -11  7029.5   448.2   2-0.08105 0.33633 0.96486-0.76570-0.24994-0.54825  0 114.24  84.85  276.33 114.21  84.80  276.13
   2   2  11  6364.0   383.3   1-0.05235 0.30803-0.74333 0.94227 0.66688 0.13132  0  75.02 160.80  166.70  74.80 160.80  166.80
   2   2  11  7176.5   398.9   2-0.12250 0.37781-0.71969 0.91874 0.68341 0.11478  0  71.26 169.29   66.23  70.99 169.35   66.12
  -2  -2  12  9999.0   492.8   1-0.49005 0.23430-0.85763 0.65858 0.15594 0.71511  0  75.43  80.95  127.30  75.47  81.17  126.91
   2  -2 -12 12385.9   601.6   2 0.00846 0.24679 0.74775-0.94682-0.66393-0.20648  0  98.26  46.62  248.58  98.07  46.82  248.66
   2  -2  12  9183.3   480.6   1-0.32448 0.58024-0.85963 0.66058 0.39464 0.47640  0  29.68 208.28  143.60  29.40 208.22  143.60
   2  -2  12  9741.5   487.9   2-0.03511 0.29041-0.95728 0.75823 0.28701 0.58374  0  45.03 143.09   93.31  44.78 143.20   93.27
   2   2 -12 10027.5   557.8   2-0.07138 0.32666 0.95163-0.75247-0.29885-0.57191  0  91.59  54.99  272.97  91.71  54.94  273.18
   2   2  12  9594.1   481.5   1-0.04100 0.29668-0.73593 0.93487 0.67582 0.19494  0  46.49 141.32  168.20  46.50 141.45  167.73
   2   2  12 10326.5   496.4   2-0.12532 0.38063-0.70868 0.90774 0.69431 0.17644  0  41.23 153.86   65.16  41.11 154.02   65.22
  -2  -3   0  54.997  61.331   1-0.48797 0.23252 0.15915-0.45757-0.85823 0.85823  0 206.58 250.15   36.09 206.44 250.19   35.20
  -2  -3   0  42.827  64.795   2-0.22144-0.03382-0.06903-0.22947 0.97273-0.97273  0 408.33 277.84   23.32 408.37 277.64   23.95
  -2  -3   0  53.038  66.701   2 0.13297-0.38832-0.37223 0.07378-0.91857 0.91857  0 315.26 158.01  177.87 315.06 158.18  178.14
  -2   3   0 123.182  55.761   1-0.68417 0.42870-0.32712 0.62555-0.65184 0.65184  0 354.39 168.38   67.53 354.49 168.57   67.89
  -2   3   0   3.710  66.497   2-0.23024-0.02502 0.06150 0.23700 0.97119-0.97119  0 300.27 158.02   16.00 300.31 158.18   16.45
  -2   3   0  20.571  68.243   2 0.08658-0.34183 0.33240-0.03380-0.93915 0.93915  0 404.25 292.88  219.32 404.06 292.57  219.45
   2  -3   0 -40.392  33.098   1-0.61338 0.86913-0.78423 0.48565-0.09355 0.09355  0 249.99 339.96  110.49 249.80 340.14  110.38
   2  -3   0 -13.642  46.671   2 0.12740 0.12794-0.14945-0.14899-0.98053 0.98053  0 209.23 230.69  190.95 209.41 230.77  191.43
   2   3   0 -21.833  84.258   1-0.25445 0.50989 0.47634-0.17792-0.84164 0.84164  0 410.45 266.84   12.40 410.53 267.06   12.48
   2   3   0   0.983  61.129   2 0.10530 0.14995 0.16838 0.13022-0.98008 0.98008  0 281.44 355.04  210.11 281.51 354.81  209.70
   2   3   0 -27.551  41.208   2-0.23748 0.49276 0.46146-0.16288 0.85479-0.85479  0 206.48 244.44  352.44 206.60 244.26  352.00
  -2  -3  -1 50428.7   561.2   1-0.40348 0.14803 0.28930-0.58772-0.86805 0.79540  0 204.50 258.88   25.91 204.50 258.83   26.29
  -2  -3  -1 44027.8   438.5   2-0.19497-0.06029-0.32560 0.02710 0.92519-0.99781  0 410.87 274.74   38.67 411.27 274.85   39.02
  -2  -3  -1 41414.2   427.6   2 0.12670-0.38204-0.13675-0.16169-0.98247 0.90989  0 318.26 156.42  191.73 318.40 156.50  192.16
  -2  -3   1 45585.8   528.7   1-0.56500 0.30956 0.01543-0.31385-0.82494 0.89759  0 205.86 241.53   44.98 205.85 241.51   44.74
  -2  -3   1 40284.0   436.8   2-0.23529-0.01997 0.16694-0.46544 0.95748-0.88485  0 408.85 284.36   10.30 409.12 284.42   10.34
  -2  -3   1 40748.4   443.7   2 0.12838-0.38372-0.57383 0.27539-0.80885 0.88143  0 309.04 155.91  165.00 309.21 156.00  164.96
  -2   3  -1 39055.8   404.4   1-0.70202 0.44654-0.46489 0.76332-0.53949 0.46685  0 372.25 176.88   77.83 372.20 177.05   78.14
  -2   3  -1 43420.0   467.1   2-0.23870-0.01656 0.28869 0.00981 0.92719-0.99981  0 303.09 155.96    2.77 303.20 156.09    3.13
  -2   3  -1 43496.1   466.4   2 0.10964-0.36489 0.12128 0.17732-0.98654 0.91401  0 406.97 290.40  207.28 407.23 290.36  206.97
  -2   3   1 43681.0   310.7   1-0.59220 0.33675-0.04366 0.34208-0.80461 0.87726  0 337.49 159.73   48.70 337.53 159.88   48.64
  -2   3   1 42748.7   477.3   2-0.21427-0.04099-0.15081 0.44931 0.96506-0.89243  0 294.90 156.65   28.66 295.08 156.77   28.67
  -2   3   1 42854.3   474.9   2 0.05739-0.31264 0.52286-0.22426-0.85049 0.92302  0 403.84 298.63  231.70 404.12 298.51  231.61
   2  -3  -1 31699.5   268.0   1-0.62347 0.87922-0.77271 0.47413-0.11923 0.04664  0 264.31 350.56  108.55 264.54 350.48  108.67
   2  -3  -1 44603.3   478.0   2 0.11382 0.14142 0.07081-0.36941-0.99097 0.91844  0 209.41 225.75  203.84 209.26 225.74  204.06
   2  -3   1 31610.6   361.2   1-0.60054 0.85629-0.79717 0.49860-0.06221 0.13480  0 235.30 330.53  112.32 235.23 330.48  112.46
   2  -3   1  22.643  56.468   2-0.20806 0.46332-0.21287-0.08563 0.95467-0.88205  0 293.10 359.12   32.06 293.00 359.04   32.29
   2  -3   1 42359.3   453.0   2 0.13298 0.12237-0.37647 0.07803-0.91683 0.98941  0 207.23 232.94  178.22 207.09 232.87  177.88
   2   3  -1 46468.5   534.8   1-0.35249 0.60794 0.35870-0.06027-0.86434 0.79169  0 411.18 277.32   20.93 411.40 277.34   21.36
   2   3  -1 38873.3   427.2   2 0.12372 0.13163-0.07913 0.37757-0.98916 0.91658  0 287.04 358.15  195.13 287.02 357.92  195.48
   2   3  -1 36052.2   407.4   2-0.22979 0.48505 0.64160-0.34296 0.73181-0.80443  0 205.94 238.48  339.91 205.86 238.56  339.50
   2   3   1 52745.4   575.0   1-0.14606 0.40151 0.58637-0.28795-0.79676 0.86941  0 413.02 256.86    3.01 413.26 256.83    3.24
   2   3   1 45382.8   436.4   2-0.23776 0.49302 0.24164 0.05686 0.94079-0.86816  0 204.62 246.75    6.23 204.50 246.69    5.94
   2   3   1 43159.3   430.1   2 0.07362 0.18163 0.42359-0.12499-0.90286 0.97539  0 278.02 356.00  225.00 278.17 355.80  225.12
  -2  -3  -2  1391.7   127.4   1-0.32073 0.06528 0.39889-0.69731-0.85908 0.71379  0 200.08 267.51   18.41 200.04 267.52   18.41
  -2  -3  -2  1301.4   129.2   2-0.15838-0.09692-0.55515 0.25657 0.81653-0.96165  0 417.79 276.16   53.78 417.85 276.18   53.79
  -2  -3  -2  1354.7   133.5   2 0.11221-0.36746 0.09116-0.38976-0.98949 0.84443  0 319.05 150.73  205.23 319.01 150.80  205.23
  -2  -3   2  1157.5   122.8   1-0.62739 0.37192-0.13060-0.16783-0.76767 0.91297  0 202.76 232.77   54.21 202.67 232.71   54.42
  -2  -3   2 930.745 109.539   2 0.11671-0.37205-0.72419 0.42575-0.67966 0.82481  0 301.17 150.51  153.43 301.29 150.61  153.61
  -2   3  -2  1179.1   139.2   1-0.70221 0.44674-0.53558 0.83401-0.46910 0.32380  0 390.84 185.11   84.24 391.00 185.28   83.85
  -2   3  -2  1300.9   135.0   2 0.12384-0.37919-0.08130 0.37974-0.98897 0.84381  0 413.64 291.94  195.33 413.80 291.95  195.36
  -2   3  -2  1087.9   134.7   2-0.23642-0.01886 0.49768-0.19910 0.83452-0.97980  0 303.61 150.44  350.02 303.75 150.59  349.59
  -2   3   2  1515.6    64.4   1-0.23053-0.02492 0.50233-0.20390-0.83338 0.97867  0 320.66 150.58   10.56 320.63 150.77   10.40
  -2   3   2  1046.6   120.9   2-0.19522-0.06004-0.32371 0.62221 0.92580-0.78054  0 287.64 152.30   38.99 287.80 152.32   38.91
  -2   3   2  1103.8   124.1   2 0.02660-0.28185 0.67471-0.37611-0.73760 0.88267  0 406.95 308.04  242.69 407.08 307.86  242.62
   2  -3  -2 905.216  56.058   1-0.62661 0.88236-0.76882 0.47025-0.12757-0.01760  0 279.83 361.87  108.08 279.97 361.78  108.12
   2  -3  -2  1208.3   141.8   2-0.12090 0.37621-0.72608 0.42750 0.67689-0.82202  0 308.44 365.85   66.55 308.54 365.79   66.65
   2  -3  -2  1214.4   117.7   2 0.09593 0.15932 0.25572-0.55432-0.96198 0.81691  0 206.98 217.93  215.02 206.91 218.07  214.83
   2  -3   2  1161.6   102.8   1-0.58583 0.84159-0.80992 0.51134-0.02878 0.17396  0 220.66 321.35  114.64 220.57 321.35  114.67
   2  -3   2   2.338  61.899   2-0.22563 0.48089-0.01265-0.28585 0.97413-0.82888  0 291.91 364.44   21.09 292.08 364.55   20.72
   2  -3   2  1465.7   113.7   2 0.12824 0.12710-0.57653 0.27808-0.80695 0.95211  0 202.40 232.08  164.98 202.27 232.01  164.77
   2   3  -2  1222.4   151.2   1-0.43469 0.69014 0.24392 0.05450-0.86692 0.72162  0 415.79 287.86   29.35 415.86 287.89   29.44
   2   3  -2  -9.001  63.501   2 0.13181 0.12354-0.28133 0.57977-0.95051 0.80536  2 294.26 364.93  183.95 294.65 364.79  183.67
   2   3  -2  1104.3   107.0   2-0.21620 0.47146 0.77029-0.47165 0.59992-0.74517  0 202.94 230.00  328.78 202.87 230.12  328.83
   2   3   2  1093.4    98.8   2-0.22749 0.48275 0.01447 0.28403 0.97367-0.82842  0 199.81 246.02   18.59 199.67 245.97   19.15
   2   3   2  1227.5   122.3   2 0.03495 0.22030 0.63763-0.33903-0.76955 0.91462  0 276.97 361.35  239.94 277.12 361.18  239.77
  -2  -3  -3  7544.4   247.4   1-0.24626-0.00918 0.48534-0.78377-0.83893 0.62099  0 193.40 276.43   11.97 193.35 276.39   11.77
  -2  -3  -3  5979.9   245.0   1-0.06991-0.18577-0.75438 0.45597 0.65270-0.87039  0 428.88 279.71  165.36 428.99 279.64  165.36
  -2  -3  -3  6238.8   209.0   2-0.12060-0.13470-0.72728 0.42869 0.67567-0.89335  0 427.93 281.16   67.04 428.22 281.21   66.75
  -2  -3  -3  6464.1   214.6   2 0.09319-0.34844 0.27912-0.57772-0.95572 0.73812  0 317.56 141.28  216.00 317.51 141.40  216.23
  -2  -3   3  6085.6   219.6   1-0.67073 0.41526-0.26880-0.02963-0.69128 0.90922  0 197.17 223.69   64.10 197.10 223.68   63.80
  -2  -3   3  5583.9   226.3   2 0.10210-0.35745-0.82727 0.52849-0.55245 0.77002  0 291.60 142.55  143.96 291.78 142.59  144.11
  -2  -3   3  5906.7   228.4   2-0.23689-0.01839 0.48077-0.77935 0.84424-0.62632  0 419.29 307.85  351.14 419.54 307.77  350.72
  -2   3  -3  6127.8   235.6   1-0.69932 0.44385-0.57279 0.87123-0.42762 0.20967  0 411.04 193.40   86.91 411.27 193.52   87.04
  -2   3  -3  5788.6   210.3   2 0.13111-0.38645-0.24987 0.54831-0.95936 0.74163  0 423.51 297.01  185.50 423.74 297.01  185.54
  -2   3  -3  5695.1   218.5   2-0.22808-0.02718 0.66307-0.36442 0.71297-0.93084  0 302.12 141.45  338.00 302.10 141.55  337.85
  -2   3   3  6209.3   238.1   2-0.17691-0.07835-0.45167 0.75017 0.87447-0.65659  0 278.71 145.23   47.07 278.88 145.37   46.89
  -2   3   3  6227.1   241.6   2-0.00238-0.25290 0.78611-0.48738-0.61808 0.83577  0 412.27 320.28  251.99 412.40 320.19  252.16
   2  -3  -3  5551.7   226.0   2-0.09278 0.34808-0.82430 0.52572 0.55850-0.77618  0 317.49 374.83   75.44 317.54 374.77   75.59
   2  -3  -3  6405.3   217.8   2 0.07785 0.17740 0.39571-0.69431-0.91507 0.69747  0 202.89 208.15  223.32 202.74 208.21  223.37
   2  -3   3  5257.2   202.1   1-0.56982 0.82557-0.82175 0.52317 0.00628 0.21148  0 205.63 312.61  117.00 205.62 312.59  116.98
   2  -3   3  -7.715  66.143   2-0.23509 0.49035 0.16074-0.45925 0.95859-0.74071  0 292.98 373.96   11.13 293.08 373.75   10.71
   2  -3   3  5742.4   195.4   2 0.11606 0.13928-0.72998 0.43154-0.67354 0.89128  0 195.24 228.65  153.01 195.12 228.55  153.13
   2   3  -3  5948.8   240.3   1-0.49881 0.75426 0.14051 0.15791-0.85524 0.63730  0 423.53 299.05   36.36 423.77 299.04   36.44
   2   3  -3  5396.2   196.6   2-0.20098 0.45624 0.85649-0.55785 0.47542-0.69329  0 198.09 219.56  319.90 198.03 219.62  320.01
   2   3   3  6304.4   191.1   2-0.21120 0.46646-0.18241 0.48091 0.96027-0.74239  0 192.41 242.42   30.55 192.30 242.39   30.51
   2   3   3  5609.4   196.3   2-0.00310 0.25838 0.78854-0.48980-0.61498 0.83267  0 277.94 370.81  252.22 278.01 370.52  252.39
  -2  -3  -4  5194.7   224.2   1-0.18388-0.07156 0.55039-0.84882-0.81440 0.52382  0 184.60 285.61    6.39 184.62 285.54    6.41
  -2  -3  -4  4621.2   239.7   1-0.16732-0.08836-0.80717 0.50875 0.56611-0.85637  0 441.92 291.28  157.29 442.01 291.26  157.29
  -2  -3  -4  4503.3   205.1   2-0.08674-0.16856-0.84237 0.54378 0.53187-0.82212  0 441.76 289.27   77.33 441.99 289.39   77.45
  -2  -3  -4  4545.9   206.4   2 0.07461-0.32986 0.41702-0.71562-0.90583 0.61569  0 314.29 128.81  224.69 314.27 128.85  224.70
  -2  -3   4  4135.7   198.3   1-0.69509 0.43962-0.39189 0.09346-0.60272 0.89331  0 189.39 214.29   72.55 189.35 214.32   72.59
  -2  -3   4  4170.4   228.1   2 0.08667-0.34201-0.89609 0.59730-0.43534 0.72543  0 280.85 132.59  136.00 281.01 132.64  136.33
  -2  -3   4  4304.1   234.7   2-0.23440-0.02086 0.56804-0.86668 0.78892-0.49842  0 427.98 323.45  344.96 428.26 323.38  344.89
  -2   3  -4  4347.8   228.8   1-0.69697 0.44150-0.59144 0.88987-0.40549 0.11490  0 433.21 201.74   88.71 433.43 201.90   88.70
  -2   3  -4  4601.2   220.1   2 0.13298-0.38832-0.37787 0.67631-0.91626 0.62594  0 436.76 305.07  178.22 436.88 305.07  177.79
  -2   3  -4  4010.8   211.0   2-0.21425-0.04101 0.78369-0.48504 0.58303-0.87353  0 298.89 129.48  327.68 298.88 129.66  327.58
  -2   3   4  4328.0   236.0   2-0.16102-0.09429-0.54075 0.83933 0.82563-0.53538  0 268.46 136.21   53.00 268.60 136.40   52.80
  -2   3   4  4373.2   239.5   2-0.02871-0.22657 0.86374-0.56500-0.50312 0.79337  0 419.99 335.27  259.99 420.05 335.19  260.23
   2  -3  -4  4400.2   234.8   2-0.06798 0.32329-0.89202 0.59344 0.44685-0.73710  0 328.03 386.66   82.88 328.12 386.59   83.17
   2  -3  -4  4757.6   212.5   2 0.06215 0.19310 0.49556-0.79416-0.86635 0.57621  0 197.16 196.54  230.06 196.98 196.59  229.77
   2  -3   4  3574.5   187.9   1-0.55244 0.80820-0.83250 0.53392 0.04186 0.24849  0 190.17 304.10  119.05 190.20 304.06  119.33
   2  -3   4  4237.1   186.5   2 0.10040 0.15495-0.83652 0.53774-0.53865 0.82875  0 186.02 223.05  143.00 185.93 222.95  143.17
   2   3  -4  4369.1   230.5   1-0.54619 0.80163 0.05355 0.24487-0.83595 0.54536  0 434.87 311.13   42.08 435.15 311.11   42.22
   2   3  -4  4383.4   229.7   2 0.13045 0.12490-0.52816 0.82661-0.83906 0.54875  0 314.75 387.52  167.98 314.64 387.30  168.09
   2   3  -4  3819.8   190.2   2-0.18584 0.44110 0.91265-0.61400 0.36405-0.65455  0 191.68 207.50  313.03 191.66 207.50  312.73
   2   3   4  4327.5   176.2   2-0.19409 0.44935-0.33248 0.63098 0.92292-0.63241  0 182.86 236.69   39.46 182.77 236.66   39.44
   2   3   4  4624.9   203.6   2-0.03690 0.29218 0.88392-0.58518-0.46618 0.75643  0 280.37 383.69  262.68 280.40 383.43  262.66
  -2  -3  -5 993.382 139.902   1-0.13403-0.12142 0.59745-0.89587-0.79063 0.42739  0 174.06 295.06    2.20 174.00 295.13    2.24
  -2  -3  -5 981.390 164.938   1-0.25371-0.00197-0.84161 0.54319 0.47679-0.83961  0 458.54 304.08  150.12 458.45 303.96  149.90
  -2  -3  -5  1052.4   144.8   2-0.05805-0.19725-0.91483 0.61625 0.39964-0.76245  0 458.83 300.22   85.99 459.10 300.21   86.23
  -2  -3  -5 895.779 138.302   2 0.05935-0.31460 0.51167-0.81027-0.85713 0.49446  0 309.78 113.63  230.99 309.79 113.62  230.86
  -2  -3   5 832.378 121.138   1-0.70306 0.44758-0.49693 0.19850-0.50869 0.87193  0 179.61 204.53   80.71 179.58 204.43   80.68
  -2  -3   5 815.397 156.052   2 0.07176-0.32710-0.94106 0.64228-0.33055 0.69317  0 269.13 121.10  129.59 269.17 120.99  129.78
  -2  -3   5  1060.8   165.1   2-0.23101-0.02425 0.62496-0.92361 0.74570-0.38258  0 439.00 341.65  340.65 439.02 341.47  340.75
  -2   3  -5 827.000 157.208   1-0.69586 0.44038-0.59876 0.89719-0.39657 0.03333  0 457.80 210.58   89.25 458.04 210.62   89.37
  -2   3  -5 818.818 143.902   2 0.13212-0.38746-0.46944 0.76788-0.87302 0.51013  0 453.10 315.87  171.99 453.20 315.84  171.97
  -2   3  -5 774.442 138.311   2-0.19867-0.05659 0.86640-0.56775 0.45814-0.82125  0 294.32 115.06  319.01 294.38 115.14  318.86
  -2   3   5 908.409 159.031   2-0.14930-0.10600-0.60197 0.90055 0.78444-0.42163  0 256.97 125.56   57.02 257.13 125.57   57.09
  -2   3   5 922.434 157.149   2-0.05148-0.20380 0.91652-0.61778-0.39666 0.75948  0 429.58 352.76  266.96 429.71 352.75  267.13
   2  -3  -5  1062.4    63.7   1-0.51049 0.76594 0.11983-0.41826-0.85149 0.48826  0 280.39 398.55   38.08 280.42 398.28   37.82
   2  -3  -5 696.940  62.881   1-0.69293 0.94840-0.61525 0.31682-0.37592 0.01268  0 321.03 402.89   91.19 320.96 402.89   90.89
   2  -3  -5  1036.9   166.1   2-0.04672 0.30203-0.93758 0.63899 0.34463-0.70744  0 340.28 401.12   89.99 340.23 401.08   89.72
   2  -3  -5 737.791 122.827   2 0.04980 0.20545 0.56458-0.86318-0.82388 0.46121  0 189.89 183.45  234.43 189.81 183.45  234.48
   2  -3   5 715.425 122.355   1-0.53384 0.78960-0.84199 0.54341 0.07790 0.28503  0 174.13 295.57  121.60 174.12 295.64  121.71
   2  -3   5  1031.5   125.6   2 0.08340 0.17195-0.90735 0.60856-0.41203 0.77465  0 174.97 215.77  134.64 174.92 215.80  134.84
   2   3  -5  1043.7   161.8   1-0.57972 0.83517-0.01576 0.31418-0.81466 0.45143  0 449.66 324.31   47.13 449.95 324.44   46.80
   2   3  -5 832.677 157.133   2 0.12726 0.12808-0.59488 0.89332-0.79368 0.43078  0 326.85 402.67  163.28 326.70 402.48  163.47
   2   3  -5 999.436 135.832   2-0.17134 0.42660 0.94870-0.65005 0.26572-0.62884  0 183.96 194.05  306.73 183.91 194.00  306.60
   2   3   5 759.953 105.796   2-0.17890 0.43416-0.43893 0.73743 0.88053-0.51739  0 171.43 229.27   46.01 171.37 229.32   46.07
   2   3   5  1041.3   142.5   2-0.06433 0.31961 0.94015-0.64141-0.33464 0.69746  0 283.87 399.54  270.89 283.82 399.41  270.99
  -2  -3  -6 475.627 161.677   1-0.32958 0.07382-0.86058 0.56200 0.38831-0.82384  0 478.56 318.09  143.21 478.51 318.21  143.14
  -2  -3  -6 359.747 139.474   2-0.03424-0.22106-0.95863 0.66004 0.28259-0.71796  0 479.89 313.37   93.53 479.68 313.52   93.56
  -2  -3  -6 432.247 138.039   2 0.04789-0.30314 0.57446-0.87306-0.81713 0.38192  0 304.45  95.53  235.40 304.34  95.84  235.17
  -2  -3   6 337.192 112.430   1-0.69793 0.44245-0.58429 0.28586-0.41412 0.85001  0 168.17 193.85   87.99 167.96 193.84   88.06
  -2  -3   6 426.598 149.891   2 0.05767-0.31302-0.96980 0.67102-0.23698 0.67212  0 256.44 107.74  124.47 256.31 107.71  124.14
  -2  -3   6 443.450 169.154   2-0.22823-0.02703 0.66132-0.95997 0.71454-0.27880  0 452.09 362.43  338.07 451.90 362.17  337.98
  -2   3  -6 380.600 157.070   1-0.69590 0.44042-0.59851 0.89694-0.39688-0.03901  0 486.01 219.92   89.40 485.84 219.93   89.35
  -2   3  -6 505.799 154.715   2 0.13028-0.38563-0.53261 0.83105-0.83627 0.40080  0 472.87 328.95  167.80 472.88 329.19  167.79
  -2   3  -6 379.767 142.659   2-0.18298-0.07228 0.92114-0.62249 0.34354-0.77928  0 288.68  97.89  311.55 288.82  98.11  311.42
  -2   3   6 330.742 122.153   2-0.14073-0.11457-0.64264 0.94122 0.75313-0.31776  0 244.44 113.02   60.01 244.49 113.09   60.08
  -2   3   6 551.192 173.544   2-0.07124-0.18404 0.95141-0.65267-0.29957 0.73495  0 441.34 372.85  273.42 441.48 373.05  273.14
   2  -3  -6 487.865  68.747   1-0.31402 0.56947 0.40710-0.70553-0.85770 0.42182  0 264.67 411.69   18.23 264.41 411.42   17.80
   2  -3  -6 304.994  66.082   1-0.69450 0.94997-0.60685 0.30842-0.38653-0.04936  0 338.61 421.02   90.23 338.59 420.83   90.11
   2  -3  -6 352.629 169.765   2-0.02825 0.28356-0.96734 0.66875 0.25192-0.68729  0 354.19 418.74   95.49 354.00 418.43   95.42
   2  -3  -6 585.248 126.013   2 0.04054 0.21471 0.61118-0.90978-0.79045 0.35525  0 181.30 168.96  237.54 181.29 168.83  237.81
   2  -3   6 203.803 105.188   1-0.51399 0.76975-0.85016 0.55158 0.11420 0.32132  0 157.17 287.24  124.29 157.15 287.16  124.12
   2  -3   6 292.316 100.004   2 0.06705 0.18830-0.95218 0.65340-0.29808 0.73322  0 162.34 207.37  127.99 162.16 207.38  127.81
   2   3  -6 441.230 159.578   1-0.60278 0.85826-0.06824 0.36667-0.79498 0.35909  0 468.09 339.64   50.40 468.38 339.58   50.28
   2   3  -6 480.114 158.121   2 0.12440 0.13094-0.63850 0.93694-0.75950 0.32403  0 340.26 420.48  160.42 340.19 420.41  160.30
   2   3  -6 337.611 109.472   2-0.15773 0.41299 0.97125-0.67261 0.17829-0.61403  0 174.92 179.17  301.56 174.87 179.20  301.30
   2   3   6 401.193 102.869   2-0.16631 0.42161-0.51134 0.80992 0.84313-0.40776  0 158.06 220.64   50.99 158.25 220.87   50.82
   2   3   6 331.326 134.304   2-0.08672 0.34201 0.97148-0.67274-0.22071 0.65609  0 288.04 418.41  278.11 287.94 418.34  277.88
  -2  -3  -7 47789.8   741.4   1-0.39465 0.13890-0.86766 0.56908 0.30236-0.81047  2 502.74 334.66  137.14 502.84 334.54  136.94
  -2  -3  -7 44057.1   665.8   2-0.01392-0.24142-0.98358 0.68480 0.17991-0.68757  2 504.06 329.36  100.07 504.19 329.23   99.77
  -2  -3  -7 48048.6   682.3   2 0.03975-0.29500 0.61502-0.91362-0.78751 0.27977  0 298.11  75.10  237.87 298.16  75.38  238.09
  -2  -3   7 45782.6   669.4   1-0.68325 0.42778-0.65542 0.35698-0.32187 0.83040  0 154.52 182.24   94.81 154.51 182.31   94.79
  -2  -3   7 43860.2   685.7   2 0.04431-0.29965-0.98727 0.68849-0.15279 0.66045  0 242.35  92.52  118.99 242.30  92.66  119.19
  -2  -3   7 46525.6   743.5   2-0.22625-0.02901 0.68355-0.98220 0.69395-0.18559  0 466.90 386.01  336.34 467.29 385.98  336.23
  -2   3  -7 45841.2   693.6   2 0.12832-0.38367-0.57494 0.87338-0.80807 0.30002  0 496.45 345.23  165.09 496.60 345.31  164.88
  -2   3  -7 42198.1   666.4   2-0.16744-0.08782 0.95626-0.65762 0.23985-0.74822  0 282.41  78.16  304.95 282.43  78.43  305.02
  -2   3   7 46733.1   717.0   2-0.13485-0.12046-0.66870 0.96729 0.73120-0.22327  0 230.75  98.66   62.00 230.60  98.87   62.06
  -2   3   7 41973.0   714.7   2-0.08856-0.16672 0.97345-0.67472-0.21106 0.71900  0 455.73 396.60  278.46 455.63 396.56  278.46
   2  -3  -7 58476.0   429.6   1-0.19714 0.45259 0.53706-0.83548-0.82019 0.31166  0 248.96 426.74    7.53 248.92 426.50    7.54
   2  -3  -7 35795.5   351.0   1-0.69783 0.95331-0.58502 0.28658-0.41326-0.09527  0 356.54 441.90   88.12 356.74 441.64   88.13
   2  -3  -7 42581.6   706.9   2-0.01172 0.26706-0.98568 0.68690 0.16824-0.67591  0 369.66 439.17  100.49 369.60 438.87  100.46
   2  -3  -7 48755.4   723.8   2 0.03405 0.22120 0.64177-0.94037-0.76614 0.25840  0 171.38 152.53  240.00 171.34 152.63  240.08
   2  -3   7 37683.5   645.5   1-0.49306 0.74881-0.85682 0.55824 0.15084 0.35727  0 138.93 278.47  126.55 139.00 278.47  126.57
   2  -3   7 43114.9   632.3   2 0.05125 0.20409-0.97924 0.68046-0.19613 0.70379  0 147.63 197.95  121.60 147.57 197.88  121.73
   2  -3   7 45740.7   679.6   2-0.23665 0.49191 0.51212-0.81077 0.82567-0.31730  0 308.79 443.11  348.88 309.04 442.94  348.74
   2   3  -7 41266.5   666.1   1-0.61816 0.87363-0.10616 0.40460-0.77885 0.27032  0 490.71 357.05   52.97 490.93 357.01   52.79
   2   3  -7 46588.7   730.6   2 0.12232 0.13302-0.66617 0.96462-0.73570 0.22764  0 355.55 441.68  157.90 355.35 441.49  158.22
   2   3  -7 42468.9   670.3   2-0.14456 0.39984 0.98440-0.68566 0.10033-0.60828  0 164.49 162.98  297.03 164.51 162.87  296.74
   2   3   7 48493.6   651.5   2-0.15762 0.41292-0.55926 0.85785 0.81387-0.30593  0 143.39 211.34   53.84 143.34 211.42   54.08
   2   3   7 -12.974 139.109   2-0.10553 0.36081 0.98697-0.68823-0.12146 0.62940  0 292.80 440.99  283.88 292.63 440.54  283.75
  -2  -3  -8  3558.8   345.2   2 0.03443-0.28968 0.64001-0.93861-0.76759 0.18732  0 291.23  51.60  239.76 291.28  51.89  239.95
  -2  -3   8  3132.9   261.6   1-0.66163 0.40588-0.71231 0.41373-0.23422 0.81492  0 139.15 169.48  101.19 139.26 169.61  100.91
  -2  -3   8  3532.3   289.3   2 0.03166-0.28700-0.99660 0.69782-0.07607 0.65626  0 227.01  75.65  114.59 226.96  75.68  114.70
  -2  -3   8  3985.3   437.3   2-0.22506-0.03020 0.69577-0.99442 0.68209-0.10111  0 485.21 413.51  335.42 485.70 413.68  335.25
  -2   3  -8  2939.3   332.4   2-0.15209-0.10319 0.97743-0.67869 0.14663-0.72714  0 275.18  55.41  299.52 275.47  55.65  299.47
  -2   3   8  3318.1   289.6   2-0.13130-0.12400-0.68421 0.98280 0.71736-0.13687  0 215.35  82.51   63.01 215.24  82.70   63.27
  -2   3   8  3455.4   426.9   2-0.10390-0.15138 0.98607-0.68733-0.12989 0.71039  0 472.55 424.08  283.22 472.63 424.07  283.25
   2  -3  -8  2903.0   205.7   1-0.70078 0.95626-0.55742 0.25899-0.44518-0.13601  0 376.07 466.56   85.69 376.21 466.35   85.70
   2  -3  -8  3355.0   412.9   2 0.00266 0.25269-0.99587 0.69709 0.09080-0.67099  0 387.61 463.53  104.96 387.67 463.37  105.02
   2  -3  -8  3405.9   275.9   2 0.02977 0.22548 0.66075-0.95935-0.75002 0.16975  0 159.81 134.53  241.53 159.80 134.62  241.53
   2  -3   8  3206.8   257.0   1-0.47098 0.72673-0.86195 0.56337 0.18767 0.39303  0 119.36 269.40  129.14 119.34 269.39  129.04
   2  -3   8  2954.0   236.6   2 0.03647 0.21888-0.99384 0.69506-0.10463 0.68482  0 130.87 187.32  116.01 131.00 187.32  116.37
   2  -3   8  3363.0   349.6   2-0.23553 0.49079 0.54309-0.84173 0.80597-0.22498  0 314.68 469.14  346.71 314.82 468.87  346.63
   2   3  -8  3465.0   401.5   2 0.12091 0.13443-0.68252 0.98096-0.72080 0.14017  0 372.74 466.71  156.72 372.69 466.47  156.95
   2   3  -8  3241.3   268.7   2-0.13230 0.38758 0.99080-0.69206 0.02845-0.60896  0 152.47 145.07  292.56 152.49 144.95  292.51
   2   3   8  3283.5   237.9   2-0.15185 0.40715-0.58965 0.88824 0.79326-0.21276  0 126.37 201.07   56.26 126.43 201.08   56.21
  -2  -3  -9 137.156 235.920   2 0.03140-0.28665 0.65387-0.95247-0.75596 0.10315  0 283.61  24.63  241.02 283.68  24.67  241.00
  -2  -3   9  45.977 133.728   1-0.63474 0.37899-0.75802 0.45944-0.15001 0.80329  0 121.52 155.08  106.25 121.71 155.18  106.62
  -2  -3   9 127.045 177.236   2 0.01959-0.27494-0.99979 0.70101-0.00531 0.65802  0 209.63  55.92  110.56 209.91  56.27  110.61
  -2   3  -9 109.573 245.999   2-0.13784-0.11744 0.98855-0.68982 0.06132-0.71440  0 267.31  29.13  294.47 267.37  29.30  294.43
  -2   3   9-155.471 158.365   2-0.12936-0.12594-0.69179 0.99038 0.71041-0.05735  0 198.24  64.45   64.12 198.07  64.20   63.86
  -2   3   9  92.459 325.248   2-0.11767-0.13761 0.99154-0.69280-0.05481 0.70788  0 493.40 456.58  287.33 493.34 456.75  287.65
   2  -3  -9  88.180 153.858   1-0.70268 0.95815-0.52556 0.22713-0.47961-0.17422  0 397.57 495.85   83.13 397.53 496.28   83.02
   2  -3  -9 179.691 290.176   2 0.01552 0.23982-0.99970 0.70092 0.01900-0.67171  0 408.68 492.66  109.41 408.87 493.01  109.21
   2  -3  -9 182.581 158.580   2 0.02742 0.22783 0.67111-0.96971-0.74085 0.08804  0 146.41 114.01  242.44 146.36 114.41  242.34
   2  -3   9 -51.638 132.538   1-0.44767 0.70342-0.86553 0.56695 0.22461 0.42867  0  97.74 259.75  131.52  97.71 259.71  131.55
   2  -3   9 192.517 131.419   2 0.02244 0.23291-0.99951 0.70073-0.02162 0.67433  0 112.68 175.67  112.02 112.03 175.67  111.56
   2  -3   9 218.984 254.091   2-0.23471 0.48997 0.56184-0.86048 0.79325-0.13964  0 321.42 498.90  345.51 321.25 499.60  345.33
   2   3  -9 336.787 283.590   2 0.12015 0.13520-0.69056 0.98900-0.71323 0.06002  0 392.85 496.14  156.29 392.80 496.50  156.32
   2   3  -9 -31.996 146.232   2-0.12062 0.37590 0.99197-0.69323-0.03814-0.61493  0 138.54 124.95  288.42 138.54 125.05  288.62
   2   3   9 200.272 134.680   2-0.14819 0.40350-0.60749 0.90608 0.78038-0.12732  0 106.61 190.05   57.30 107.15 189.81   57.48
  -2  -3  10 747.583 206.694   1-0.60379 0.34804-0.79407 0.49549-0.06997 0.79584  0 101.57 138.34  112.22 101.60 138.52  111.94
  -2  -3  10 981.796 246.968   2 0.00811-0.26346-0.99812 0.69934 0.06077 0.66447  0 190.77  34.29  107.04 190.69  33.86  106.77
  -2   3  10 973.324 256.882   2-0.12902-0.12629-0.69327 0.99186 0.70903 0.01659  0 178.62  42.77   64.06 178.58  42.83   63.98
   2  -3 -10 735.904 228.863   2 0.02657 0.22868 0.67483-0.97343-0.73750 0.01216  0 130.43  91.45  242.63 130.58  91.39  242.63
   2  -3  10 998.104 202.179   1-0.42310 0.67886-0.86748 0.56890 0.26165 0.46422  0  73.39 249.07  134.28  73.49 249.13  134.10
   2  -3  10 800.877 202.391   2 0.00923 0.24611-0.99847 0.69969 0.05452 0.67072  0  90.00 162.50  107.03  90.12 162.75  107.14
   2   3 -10 717.721 205.909   2-0.10934 0.36462 0.98891-0.69017-0.10056-0.62508  0 122.13 102.64  285.01 122.22 102.48  284.97
   2   3  10 723.711 194.101   2-0.14650 0.40180-0.61586 0.91444 0.77412-0.04850  0  84.85 177.40   57.97  84.91 177.50   58.09
  -2  -3  11  5702.1   412.6   1-0.56985 0.31410-0.82172 0.52314 0.00621 0.79225  0  78.17 118.71  117.07  78.27 118.86  116.97
  -2  -3  11  5584.9   526.2   2-0.00328-0.25207-0.99241 0.69363 0.12297 0.67479  2 168.51   7.68  103.02 168.49   7.50  103.13
  -2   3  11  4921.0   487.9   2-0.12984-0.12547-0.68979 0.98837 0.71228 0.08591  0 156.30  17.83   64.01 156.00  17.69   63.70
   2  -3 -11  5677.1   451.7   2 0.02694 0.22831 0.67321-0.97181-0.73896-0.05891  0 111.84  64.41  242.47 111.73  64.65  242.50
   2  -3  11  5232.1   376.8   1-0.39722 0.65297-0.86773 0.56915 0.29877 0.49969  0  46.05 237.19  136.68  45.78 237.26  136.69
   2  -3  11  5483.7   400.1   2-0.00372 0.25906-0.99211 0.69333 0.12532 0.67244  0  64.49 148.22  103.03  64.36 148.25  102.99
   2   3 -11  5283.9   437.3   2-0.09839 0.35367 0.98226-0.68352-0.15967-0.63853  0 102.69  76.60  281.45 102.77  76.44  281.50
   2   3  11  5433.6   391.9   2-0.14628 0.40159-0.61690 0.91548 0.77333 0.02486  0  58.96 163.70   58.22  58.85 163.87   58.17
  -2  -4   0  8274.1   266.5   1-0.53993 0.28449 0.06568-0.46358-0.83914 0.83914  0 185.81 262.20   41.38 185.80 262.16   41.42
  -2  -4   0  7498.2   246.1   2-0.21500-0.04026-0.14296-0.25504 0.96609-0.96609  0 432.00 300.35   28.04 432.28 300.43   28.22
  -2  -4   0  6962.8   235.8   2 0.13296-0.38830-0.36620-0.03172-0.92099 0.92099  0 301.68 134.10  178.52 301.88 134.21  178.51
  -2   4   0  7805.1   213.2   1-0.62308 0.36761-0.11907 0.51698-0.77304 0.77304  0 375.09 149.27   53.72 375.05 149.46   53.65
  -2   4   0  7516.7   257.3   2-0.23384-0.02142 0.13088 0.26712 0.96342-0.96342  0 283.61 136.79   12.41 283.74 136.92   12.44
  -2   4   0  7893.5   268.5   2 0.08616-0.34141 0.33613 0.06201-0.93787 0.93787  0 423.67 318.55  219.79 423.87 318.43  219.68
   2  -4   0  5674.3   172.4   1-0.66382 0.91957-0.70766 0.30956-0.24200 0.24200  0 233.02 354.90  100.16 233.03 354.81  100.38
   2  -4   0  7311.6   256.2   2-0.18475 0.44001-0.39935 0.00135 0.89799-0.89799  0 311.89 382.53   43.55 311.95 382.43   43.57
   2  -4   0  7654.9   241.1   2 0.12952 0.12583-0.19778-0.20014-0.97165 0.97165  0 194.78 210.81  188.58 194.69 210.77  188.61
   2   4   0  8588.7   297.0   1-0.27258 0.52803 0.45594-0.05804-0.84724 0.84724  0 440.27 252.70   13.99 440.37 252.73   14.08
   2   4   0  91.308  76.396   2 0.10029 0.15496 0.21659 0.18154-0.97110 0.97110  0 293.22 381.30  212.98 293.24 381.04  212.52
   2   4   0  7548.7   226.7   2-0.23806 0.49334 0.43355-0.03545 0.86911-0.86911  0 189.31 226.79  353.86 189.25 226.83  353.81
  -2  -4  -1 17369.1   375.5   1-0.47763 0.22218 0.17620-0.57410-0.86071 0.78807  0 184.95 271.06   34.01 184.96 271.01   34.05
  -2  -4  -1 14700.3   317.1   2-0.19423-0.06103-0.33139-0.06661 0.92328-0.99591  0 435.22 297.63   39.39 435.57 297.72   39.38
  -2  -4  -1 14979.2   326.0   2 0.12934-0.38469-0.19311-0.20481-0.97262 0.90004  0 304.99 132.14  189.20 305.15 132.27  188.88
  -2  -4   1 16548.9   364.6   1-0.59562 0.34018-0.05155-0.34635-0.80161 0.87426  0 184.36 253.41   48.93 184.35 253.34   49.16
  -2  -4   1 15305.1   337.4   2-0.22890-0.02636 0.03683-0.43484 0.97275-0.90012  0 431.93 306.41   18.16 432.20 306.47   17.87
  -2  -4   1 13906.7   321.1   2 0.13057-0.38591-0.52472 0.12680-0.84120 0.91378  0 296.46 132.87  168.26 296.65 133.02  168.32
  -2   4  -1 14930.0   299.2   1-0.67085 0.41538-0.26927 0.66718-0.69098 0.61833  0 391.93 157.99   63.90 392.18 158.13   63.83
  -2   4  -1 15418.1   343.6   2-0.23878-0.01648 0.30272 0.09529 0.92269-0.99531  0 286.44 134.43    1.97 286.57 134.60    2.29
  -2   4  -1 15157.9   344.9   2 0.10452-0.35977 0.17618 0.22195-0.97879 0.90626  0 427.19 316.40  210.00 427.41 316.36  210.16
  -2   4   1 16554.2   251.8   1-0.51468 0.25924 0.11235 0.28555-0.84999 0.92264  0 359.51 140.04   38.20 359.48 140.26   38.32
  -2   4   1 15458.0   353.6   2-0.22410-0.03116-0.03398 0.43198 0.97397-0.90135  0 278.87 136.20   22.06 279.02 136.35   21.94
  -2   4   1 15371.9   356.0   2 0.06356-0.31881 0.48695-0.08882-0.87111 0.94365  0 422.96 323.86  228.83 423.19 323.74  229.20
   2  -4  -1 11175.6   204.0   1-0.67927 0.93474-0.66837 0.27046-0.30311 0.23046  0 245.68 365.52   95.99 245.68 365.37   96.11
   2  -4  -1 14427.3   342.4   2-0.16094 0.41624-0.54117 0.14306 0.82537-0.89793  0 316.86 384.24   53.03 316.92 384.16   52.83
   2  -4  -1 15902.6   338.2   2 0.12077 0.13458-0.02903-0.36889-0.99226 0.91968  0 195.11 206.36  198.19 195.05 206.33  198.36
   2  -4   1 11872.6   258.8   1-0.64772 0.90347-0.73826 0.34015-0.18825 0.26084  0 219.70 344.92  104.00 219.72 344.87  104.04
   2  -4   1 14646.6   336.7   2-0.20450 0.45976-0.24574-0.15226 0.94752-0.87489  0 308.79 384.30   34.00 308.80 384.17   34.24
   2  -4   1 15538.9   328.7   2 0.13297 0.12238-0.36990-0.02802-0.91951 0.99209  0 192.34 212.88  178.12 192.25 212.81  178.28
   2   4  -1 15506.7   371.7   1-0.35386 0.60931 0.35691 0.04099-0.86452 0.79187  0 442.47 263.54   21.42 442.59 263.60   21.49
   2   4  -1 13690.8   302.4   2-0.23382 0.48908 0.57977-0.18158 0.78051-0.85313  0 189.16 221.85  344.12 189.09 221.94  344.05
   2   4   1 16994.0   385.0   1-0.18159 0.43703 0.55266-0.15476-0.81338 0.88603  0 441.46 241.82    6.02 441.60 241.84    6.22
   2   4   1 15691.7   312.4   2-0.23839 0.49365 0.27015 0.12785 0.93284-0.86021  0 187.09 229.23    3.89 187.04 229.19    4.25
   2   4   1 14581.5   318.7   2 0.07647 0.17878 0.40450-0.00637-0.91134 0.98387  0 289.68 382.41  223.97 289.81 382.20  223.91
  -2  -4  -2 17802.4   384.2   1-0.41375 0.15831 0.27504-0.67294-0.86785 0.72255  0 181.85 280.04   26.97 181.88 279.98   27.29
  -2  -4  -2 16888.4   344.6   2-0.16682-0.08848-0.50836 0.11024 0.84483-0.98996  0 441.81 298.27   50.67 442.05 298.37   50.62
  -2  -4  -2 16398.5   343.7   2 0.12033-0.37568-0.02254-0.37539-0.99248 0.84732  0 306.32 126.92  198.63 306.43 127.05  198.73
  -2  -4   2 16787.9   372.2   1-0.64113 0.38565-0.16920-0.22871-0.74855 0.89385  0 180.64 244.48   57.00 180.68 244.42   57.00
  -2  -4   2 16417.7   359.4   2-0.23620-0.01906 0.19178-0.58978 0.95259-0.80734  0 434.83 315.60    9.00 435.04 315.63    8.88
  -2  -4   2 15933.0   356.7   2 0.12295-0.37830-0.65745 0.25952-0.74340 0.88856  0 289.47 128.82  158.85 289.67 128.93  158.87
  -2   4  -2 15780.8   330.4   1-0.69096 0.43548-0.36415 0.76206-0.62448 0.47918  0 410.75 166.38   70.53 411.01 166.50   70.56
  -2   4  -2 16779.7   366.9   2 0.11759-0.37284 0.02094 0.37719-0.99284 0.84777  0 433.71 317.53  200.93 433.99 317.49  201.20
  -2   4  -2 15542.9   354.5   2-0.23738-0.01790 0.46619-0.06809 0.85224-0.99752  0 287.37 129.19  351.99 287.51 129.42  351.70
  -2   4   2 19192.8   237.3   1-0.29543 0.03999 0.42943-0.03153-0.85341 0.99870  0 345.78 130.06   16.07 345.80 130.27   16.11
  -2   4   2 17316.3   382.7   2-0.21154-0.04372-0.17898 0.57698 0.96084-0.81559  0 272.41 132.91   29.88 272.57 133.07   30.31
  -2   4   2 16428.6   378.9   2 0.03906-0.29431 0.61836-0.22023-0.78492 0.92999  0 424.95 332.31  238.29 425.22 332.18  238.34
   2  -4  -2 12922.9   197.4   1-0.69297 0.94844-0.61504 0.21713-0.37619 0.23089  0 256.95 377.09   90.90 257.35 376.91   90.87
   2  -4  -2 15279.3   358.4   2-0.13612 0.39142-0.66300 0.26489 0.73614-0.88126  0 323.63 389.20   61.57 323.66 389.11   61.62
   2  -4  -2 17412.3   365.7   2 0.10954 0.14571 0.12234-0.52047-0.98642 0.84136  0 193.58 199.62  207.00 193.42 199.65  207.03
   2  -4   2 12626.1   286.5   1-0.63073 0.88648-0.76349 0.36539-0.13880 0.28398  0 205.83 335.56  107.19 205.82 335.52  107.37
   2  -4   2 15413.1   348.6   2-0.21943 0.47469-0.09367-0.30433 0.97112-0.82587  0 307.41 389.47   25.31 307.40 389.34   25.37
   2  -4   2 15691.9   336.7   2 0.13040 0.12495-0.52947 0.13155-0.83825 0.98340  0 187.74 212.59  168.09 187.69 212.53  168.00
   2   4  -2 16655.8   389.7   1-0.42267 0.67812 0.26202 0.13588-0.86758 0.72229  0 448.08 274.63   28.02 448.24 274.65   28.19
   2   4  -2 15384.9   348.2   2 0.12649 0.12886-0.13242 0.53035-0.98309 0.83793  2 305.38 389.33  192.27 305.23 389.07  192.41
   2   4  -2 15450.9   332.5   2-0.22472 0.47998 0.69907-0.30088 0.67882-0.82407  0 187.03 214.59  335.00 186.96 214.69  334.99
   2   4   2 16645.0   325.9   2-0.23248 0.48774 0.10352 0.29448 0.96708-0.82182  0 182.66 229.25   14.00 182.57 229.21   14.02
   2   4   2 16061.3   338.2   2 0.04791 0.20734 0.57437-0.17623-0.81720 0.96226  0 288.00 387.30  235.06 288.13 387.08  235.17
  -2  -4  -3 21799.8   430.4   1-0.35230 0.09685 0.35895-0.75685-0.86432 0.64637  0 176.58 289.27   21.25 176.59 289.20   21.34
  -2  -4  -3 18435.6   415.0   1-0.01098-0.24470-0.71567 0.31778 0.69835-0.91604  0 454.34 296.36  170.19 454.41 296.27  170.17
  -2  -4  -3 18052.1   371.2   2-0.13753-0.11777-0.65737 0.25925 0.74092-0.95860  0 451.83 302.20   61.03 452.07 302.29   61.19
  -2  -4  -3 19211.1   383.5   2 0.10898-0.36423 0.12852-0.52665-0.98570 0.76810  0 305.82 118.42  207.27 305.79 118.59  207.39
  -2  -4   3 17898.9   395.8   1-0.67404 0.41857-0.28187-0.11604-0.68280 0.90074  0 174.84 235.36   64.74 174.85 235.34   64.70
  -2  -4   3 18867.4   400.5   2-0.23892-0.01634 0.31548-0.71348 0.91836-0.70048  0 440.38 327.73    1.56 440.52 327.70    1.52
  -2  -4   3 17707.3   389.8   2 0.11216-0.36750-0.76165 0.36373-0.63821 0.85595  0 280.91 122.23  150.07 281.15 122.35  150.43
  -2   4  -3 18497.5   397.4   1-0.69887 0.44340-0.42368 0.82159-0.57626 0.35832  0 431.56 174.54   75.04 431.74 174.69   74.97
  -2   4  -3 19498.2   407.1   2 0.12577-0.38111-0.11783 0.51575-0.98504 0.76730  0 443.44 321.83  193.05 443.62 321.82  193.26
  -2   4  -3 17811.0   392.6   2-0.23219-0.02307 0.60736-0.20916 0.75974-0.97761  0 286.58 120.97  341.99 286.56 121.18  342.06
  -2   4   3 19592.8   422.7   2-0.19841-0.05685-0.29792 0.69592 0.93374-0.71586  0 264.30 127.22   37.12 264.50 127.38   37.35
  -2   4   3 18997.3   421.0   2 0.01425-0.26950 0.72554-0.32740-0.68804 0.90564  0 429.53 343.73  246.99 429.74 343.58  246.75
   2  -4  -3 13120.8   176.0   1-0.70232 0.95779-0.53330 0.13539-0.47153 0.25358  0 266.77 389.61   83.67 267.06 389.41   83.66
   2  -4  -3 18536.6   205.3   1-0.04288 0.29857-0.73716 0.33927 0.67436-0.89205  0 335.65 396.96  167.61 335.50 396.71  167.57
   2  -4  -3 17996.0   405.0   2-0.11154 0.36684-0.76125 0.36314 0.63879-0.85648  0 332.10 397.27   69.59 332.12 397.12   69.67
   2  -4  -3 20223.6   408.1   2 0.09676 0.15849 0.24845-0.64658-0.96380 0.74620  0 190.18 190.81  214.41 190.01 190.90  214.40
   2  -4   3 13810.5   325.9   1-0.61281 0.86856-0.78484 0.38674-0.09213 0.30989  0 191.32 326.63  110.38 191.31 326.61  110.48
   2  -4   3 17598.1   382.4   2-0.22926 0.48452 0.04476-0.44276 0.97233-0.75445  0 307.65 398.07   17.42 307.66 397.93   17.42
   2  -4   3 17517.1   365.0   2 0.12242 0.13293-0.66503 0.26710-0.73672 0.95446  0 181.13 210.11  158.02 181.08 210.04  158.31
   2   4  -3 20067.2   439.0   1-0.47778 0.73323 0.17594 0.22196-0.86068 0.64274  0 457.08 286.20   33.90 457.27 286.27   34.07
   2   4  -3 17415.1   385.2   2 0.13148 0.12387-0.26639 0.66431-0.95486 0.73712  0 313.89 398.22  184.54 313.80 397.96  184.57
   2   4  -3 17160.3   366.9   2-0.21312 0.46838 0.79096-0.39276 0.57356-0.79143  0 183.04 205.36  327.00 182.98 205.47  326.89
   2   4   3 18950.1   359.1   2-0.22298 0.47824-0.04947 0.44747 0.97357-0.75569  0 175.97 226.96   22.99 175.89 226.93   22.83
   2   4   3 17644.6   359.8   2 0.01753 0.23772 0.71250-0.31436-0.70146 0.91906  0 287.90 395.76  245.75 288.07 395.52  245.66
  -2  -4  -4  3371.4   214.7   1-0.29722 0.04177 0.42732-0.82522-0.85385 0.56326  0 169.16 298.93   16.02 169.24 298.78   16.27
  -2  -4  -4  2914.7   250.1   1-0.10445-0.15124-0.77474 0.37686 0.62359-0.91384  0 466.06 309.06  162.57 466.09 308.99  162.52
  -2  -4  -4  2554.2   221.5   2-0.10820-0.14710-0.77304 0.37493 0.62506-0.91531  0 465.43 309.15   71.06 465.50 309.22   70.71
  -2  -4  -4  3157.7   225.6   2 0.09622-0.35147 0.25320-0.65134-0.96262 0.67248  0 303.78 106.96  214.67 303.72 107.10  214.68
  -2  -4   4  2845.0   199.2   1-0.69419 0.43871-0.38536-0.01254-0.60795 0.89854  0 166.96 225.89   71.91 167.01 225.95   72.11
  -2  -4   4  2705.5   251.6   2 0.09981-0.35516-0.83953 0.44116-0.53407 0.82416  0 271.02 113.43  142.83 271.23 113.44  142.85
  -2  -4   4  2598.3   245.0   2-0.23835-0.01693 0.40885-0.80696 0.88093-0.59037  0 448.43 342.55  355.46 448.70 342.58  355.40
  -2   4  -4  2795.0   235.9   1-0.70178 0.44631-0.46047 0.85838-0.54358 0.25299  0 454.67 182.80   77.75 454.81 182.92   77.79
  -2   4  -4  2801.4   233.4   2 0.13062-0.38596-0.23254 0.63046-0.96378 0.67346  0 456.36 329.17  186.56 456.53 329.10  186.57
  -2   4  -4  2657.9   241.5   2-0.22220-0.03306 0.72225-0.32406 0.65497-0.94546  0 284.24 109.91  332.99 284.22 110.15  333.06
  -2   4   4  2598.5   218.7   2-0.18605-0.06921-0.39054 0.78854 0.90159-0.61108  0 254.87 119.40   42.97 254.98 119.53   43.02
  -2   4   4  2822.8   254.1   2-0.00947-0.24581 0.80896-0.41065-0.58778 0.87804  0 436.38 357.98  254.30 436.45 357.88  254.36
   2  -4  -4  2078.4    89.4   1-0.69563 0.95111-0.39592-0.00199-0.59945 0.30886  0 272.39 403.09   72.97 272.57 402.87   72.89
   2  -4  -4  2792.5    99.0   1-0.37887 0.63462-0.86685 0.46874 0.32409-0.61444  0 329.56 409.80  138.66 329.38 409.62  138.48
   2  -4  -4  2821.9   255.6   2-0.08852 0.34383-0.83708 0.43897 0.53986-0.83011  0 342.28 408.35   76.71 342.31 408.19   76.89
   2  -4  -4  2510.6   191.5   2 0.08458 0.17067 0.34802-0.74615-0.93367 0.64353  0 185.14 180.22  220.39 184.99 180.25  220.41
   2  -4   4  2228.5   173.7   1-0.59405 0.84980-0.80305 0.40495-0.04707 0.33742  0 176.10 317.92  113.37 176.12 317.98  113.46
   2  -4   4  2984.6   236.7   2-0.23514 0.49040 0.16186-0.55986 0.95839-0.66788  0 309.26 410.05   10.66 309.28 409.79   10.64
   2  -4   4  2838.4   183.8   2 0.11089 0.14445-0.77164 0.37327-0.62631 0.91641  0 172.46 205.68  149.31 172.49 205.54  149.42
   2   4  -4  2962.5   269.7   1-0.52046 0.77591 0.10206 0.29584-0.84776 0.55718  0 469.74 298.71   39.24 469.86 298.69   39.00
   2   4  -4  2866.6   243.6   2 0.13297 0.12238-0.36950 0.76742-0.91967 0.62935  0 324.01 409.86  178.29 323.91 409.81  178.31
   2   4  -4  2535.9   182.2   2-0.20040 0.45566 0.85902-0.46082 0.47109-0.76159  0 177.43 194.42  319.81 177.32 194.48  319.72
   2   4   4  2965.8   178.7   2-0.21156 0.46682-0.17880 0.57680 0.96087-0.67036  0 167.15 222.70   30.19 167.12 222.67   30.30
   2   4   4  2968.9   220.6   2-0.01184 0.26712 0.81573-0.41741-0.57832 0.86857  0 289.22 407.59  255.00 289.27 407.32  255.04
  -2  -4  -5  4816.3   250.0   1-0.25025-0.00520 0.48097-0.87887-0.84026 0.47703  0 159.80 309.03   12.06 159.88 308.95   12.11
  -2  -4  -5  3720.2   285.9   1-0.19157-0.06411-0.81799 0.42011 0.54239-0.90521  0 481.33 323.19  155.35 481.54 323.12  155.25
  -2  -4  -5  4210.0   277.1   2-0.08143-0.17387-0.85729 0.45918 0.50835-0.87116  0 482.44 319.07   79.26 482.65 319.02   79.06
  -2  -4  -5  3911.4   257.7   2 0.08434-0.33959 0.34978-0.74791-0.93303 0.57036  0 300.38  92.44  220.45 300.36  92.72  220.52
  -2  -4   5  4083.2   233.8   1-0.70255 0.44708-0.47743 0.07952-0.52771 0.89095  0 157.22 215.94   79.06 157.22 216.06   79.12
  -2  -4   5  4113.3   304.0   2 0.08650-0.34185-0.89668 0.49831-0.43415 0.79676  0 259.86 102.47  136.06 260.08 102.63  136.26
  -2  -4   5  4265.6   316.8   2-0.23698-0.01830 0.47734-0.87545 0.84616-0.48296  0 459.05 360.33  350.71 459.16 360.24  350.95
  -2   4  -5  3612.5   284.6   1-0.70270 0.44723-0.48208 0.87999-0.52327 0.16003  0 480.69 191.16   79.44 480.86 191.29   79.49
  -2   4  -5  4040.9   288.4   2 0.13244-0.38779-0.32319 0.72111-0.93702 0.57413  0 472.69 339.26  181.28 472.85 339.25  181.15
  -2   4  -5  4056.3   285.0   2-0.20997-0.04529 0.81051-0.41232 0.54680-0.90991  0 280.60  96.20  325.00 280.52  96.41  324.94
  -2   4   5  4134.7   244.2   2-0.17559-0.07967-0.46016 0.85816 0.87030-0.50716  0 244.24 109.47   47.40 244.09 109.66   47.44
  -2   4   5  3654.6   307.5   2-0.03179-0.22349 0.87153-0.47321-0.48931 0.85213  0 445.59 375.26  260.97 445.65 375.12  261.15
   2  -4  -5  3528.7   108.8   1-0.64747 0.90294-0.18835-0.20956-0.73845 0.37521  0 271.02 417.43   58.44 271.13 417.18   58.30
   2  -4  -5  3695.9   113.1   1-0.56433 0.82009-0.82536 0.42725 0.01774-0.38067  0 331.13 425.19  117.95 330.95 424.97  117.73
   2  -4  -5  4224.0   296.9   2-0.06730 0.32260-0.89368 0.49557 0.44362-0.80644  0 354.29 422.44   83.35 354.27 422.30   83.38
   2  -4  -5  4421.4   249.4   2 0.07363 0.18162 0.42357-0.82171-0.90287 0.54020  0 178.44 167.71  225.29 178.40 167.87  225.12
   2  -4   5  3413.7   217.9   1-0.57433 0.83009-0.81862 0.42051-0.00330 0.36623  0 159.99 309.53  116.27 160.02 309.51  116.35
   2  -4   5  3798.9   281.0   2-0.23808 0.49334 0.25569-0.65369 0.93698-0.57385  0 312.14 425.16    4.94 312.08 424.95    5.10
   2  -4   5  3956.8   219.2   2 0.09728 0.15807-0.85198 0.45361-0.51445 0.87707  0 162.03 199.63  141.37 161.97 199.51  141.51
   2   4  -5  3971.3   320.2   1-0.55230 0.80775 0.04122 0.35668-0.83263 0.46939  0 486.03 312.48   43.00 486.12 312.41   43.03
   2   4  -5  3809.1   289.4   2 0.13262 0.12272-0.44598 0.84391-0.88516 0.52227  0 335.73 424.91  173.53 335.58 424.60  173.49
   2   4  -5  3541.7   221.2   2-0.18734 0.44260 0.90810-0.50990 0.37451-0.73763  0 170.09 181.82  313.60 170.12 181.89  313.39
   2   4   5  4276.7   216.2   2-0.20040 0.45566-0.28123 0.67923 0.93848-0.57535  0 156.34 216.82   36.31 156.35 216.76   36.35
   2   4   5   3.662 116.137   2-0.03865 0.29393 0.88813-0.48981-0.45797 0.82079  0 291.65 422.31  263.50 291.58 422.51  263.20
  -2  -4  -6  4070.9   250.1   1-0.21208-0.04337 0.52169-0.91959-0.82635 0.39047  0 148.50 319.87    9.18 148.56 319.85    8.82
  -2  -4  -6  3315.8   320.7   1-0.27067 0.01491-0.84670 0.44859 0.45809-0.89361  0 500.85 339.14  148.42 500.96 339.12  148.43
  -2  -4  -6  3431.1   293.3   2-0.05747-0.19784-0.91609 0.51798 0.39683-0.83220  2 503.32 331.56   86.46 503.83 331.66   86.41
  -2  -4  -6  3421.2   298.5   2 0.07391-0.32916 0.42172-0.81985-0.90371 0.46851  0 295.99  75.25  224.84 295.90  75.43  225.00
  -2  -4   6  3211.2   230.6   1-0.70078 0.44531-0.55744 0.15953-0.44516 0.88105  0 145.59 205.54   85.70 145.47 205.48   85.71
  -2  -4   6  3668.3   258.4   2 0.07322-0.32857-0.93742 0.53905-0.34040 0.77554  0 247.60  89.62  130.29 247.65  89.85  130.39
  -2  -4   6  3368.9   344.9   2-0.23622-0.01904 0.52609-0.92429 0.81696-0.38122  0 472.18 381.21  348.01 472.31 381.02  347.79
  -2   4  -6  3511.7   324.8   2 0.13307-0.38842-0.39175 0.78967-0.91040 0.47493  0 493.02 352.39  177.05 493.02 352.38  176.92
  -2   4  -6  3228.3   292.7   2-0.19641-0.05885 0.87583-0.47763 0.44084-0.87659  0 275.65  79.62  317.75 275.69  79.89  317.70
  -2   4   6  3623.9   263.4   2-0.16647-0.08883-0.51041 0.90852 0.84367-0.40829  0 232.04  97.79   51.03 231.86  97.88   50.76
  -2   4   6  3483.4   345.3   2-0.05185-0.20343 0.91728-0.51896-0.39486 0.83024  0 457.16 395.61  267.34 457.23 395.56  267.25
   2  -4  -6  3462.3   129.1   1-0.55692 0.81237 0.03195-0.42985-0.82995 0.39407  0 263.43 432.87   43.93 263.42 432.55   43.64
   2  -4  -6  2971.3   128.9   1-0.63968 0.89543-0.75094 0.35284-0.16402-0.27150  0 339.84 443.71  105.98 339.55 443.49  105.67
   2  -4  -6  3418.7   338.8   2-0.04825 0.30356-0.93478 0.53667 0.35193-0.78730  0 368.26 439.80   89.30 368.13 439.66   89.25
   2  -4  -6  3679.7   260.7   2 0.06481 0.19044 0.47946-0.87759-0.87517 0.43997  0 170.40 153.66  229.03 170.28 153.73  228.71
   2  -4   6  3245.3   232.7   1-0.55361 0.80936-0.83184 0.43373 0.03954 0.39599  0 142.83 301.08  119.04 142.84 301.07  119.17
   2  -4   6  3232.8   224.6   2 0.08263 0.17272-0.90986 0.51148-0.40662 0.84176  0 149.48 192.15  134.06 149.56 192.00  134.49
   2   4  -6  3334.6   337.0   1-0.57548 0.83093-0.00670 0.40460-0.81779 0.38191  2 505.66 327.86   45.89 506.58 327.89   46.20
   2   4  -6  3304.0   322.7   2 0.13136 0.12398-0.50116 0.89908-0.85532 0.41985  0 349.01 442.84  170.00 348.91 442.60  169.89
   2   4  -6  3853.8   257.0   2-0.17424 0.42950 0.94263-0.54444 0.28476-0.72050  0 161.51 167.67  307.78 161.36 167.70  307.78
   2   4   6  3797.3   226.6   2-0.19043 0.44569-0.35889 0.75690 0.91374-0.47798  0 143.60 209.43   41.25 143.63 209.48   41.06
   2   4   6 -39.771 136.413   2-0.06215 0.31743 0.93637-0.53805-0.34548 0.78086  2 294.17 440.67  270.03 294.73 441.10  270.32
  -2  -4  -7 -31.240 116.499   1-0.18271-0.07274 0.55156-0.94946-0.81388 0.30535  0 134.50 331.82    6.35 135.21 331.73    6.31
  -2  -4  -7  -1.694 179.448   2 0.06584-0.32109 0.47337-0.87150-0.87840 0.37067  0 290.60  54.93  228.09 290.51  55.08  228.33
  -2  -4   7 301.990 130.784   1-0.69079 0.43531-0.62565 0.22774-0.36246 0.87100  0 131.90 194.08   91.57 131.77 194.00   91.87
  -2  -4   7  95.185 142.158   2 0.06019-0.31554-0.96557 0.56720-0.25307 0.76074  0 234.00  75.35  125.57 233.86  75.02  125.11
  -2  -4   7 -64.558 231.420   2-0.23481-0.02045 0.55971-0.95790 0.79473-0.28636  0 488.18 405.43  345.59 488.36 405.47  345.47
  -2   4  -7 142.316 200.682   2-0.18246-0.07280 0.92255-0.52435 0.34002-0.84838  0 269.85  60.22  311.09 269.74  60.40  311.20
  -2   4   7 111.730 142.092   2-0.15998-0.09532-0.54647 0.94459 0.82205-0.31412  0 218.04  83.96   53.36 218.11  84.04   53.20
  -2   4   7 211.673 243.273   2-0.07006-0.18522 0.94959-0.55128-0.30556 0.81350  0 471.99 420.28  272.56 471.57 419.74  272.77
   2  -4  -7  48.693  58.620   1-0.46239 0.71784 0.20096-0.59886-0.86360 0.35508  0 252.85 450.40   32.91 252.32 449.73   32.37
   2  -4  -7  59.559  88.236   1-0.67221 0.92769-0.68799 0.29008-0.27349-0.23505  0 353.29 465.64   98.64 352.68 465.76   98.19
   2  -4  -7 -42.094 226.568   2-0.03091 0.28621-0.96360 0.56548 0.26557-0.77351  0 384.17 460.99   94.58 384.25 460.81   94.59
   2  -4  -7  76.022 134.159   2 0.05796 0.19729 0.51961-0.91775-0.85243 0.34470  0 160.72 137.86  231.66 160.51 137.74  231.39
   2  -4   7 127.221 120.031   1-0.53184 0.78760-0.84289 0.44479 0.08167 0.42644  0 124.49 292.24  121.47 124.29 292.50  121.96
   2  -4   7 -59.855 111.732   2 0.06814 0.18721-0.94983 0.55145-0.30526 0.81293  0 134.73 183.22  128.19 135.11 183.18  128.25
   2  -4   7  41.513 196.708   2-0.23859 0.49387 0.38183-0.77994 0.89290-0.38443  0 320.80 465.81  357.36 320.88 466.12  357.10
   2   4  -7 -70.570 207.171   2 0.12993 0.12542-0.53994 0.93786-0.83162 0.32357  0 363.95 463.43  166.90 364.16 464.28  167.29
   2   4  -7  66.426 135.819   2-0.16144 0.41670 0.96610-0.56791 0.20145-0.70982  0 150.95 151.84  303.01 150.95 151.83  302.70
   2   4   7  25.777 101.123   2-0.18239 0.43765-0.41566 0.81366 0.89105-0.38265  0 129.19 201.03   45.03 128.84 201.00   44.60
  -2  -4  -8  4643.3   309.4   1-0.16105-0.09439 0.57237-0.97027-0.80402 0.22285  0 119.93 345.01    4.52 119.68 344.96    4.49
  -2  -4  -8  3802.0   392.9   2 0.05977-0.31502 0.50924-0.90737-0.85855 0.27828  0 284.22  31.13  230.74 284.27  31.16  230.69
  -2  -4   8  4231.9   294.6   1-0.67408 0.41861-0.68310 0.28520-0.28104 0.86223  0 116.14 181.22   97.63 115.91 181.29   97.66
  -2  -4   8  3533.0   317.6   2 0.04737-0.30272-0.98400 0.58563-0.17174 0.75193  0 218.48  57.64  119.97 218.48  57.80  120.31
  -2   4  -8  3344.6   405.9   2-0.16828-0.08698 0.95474-0.55655 0.24526-0.82625  0 262.76  37.01  305.50 262.79  37.46  305.34
  -2   4   8  4392.5   350.0   2-0.15542-0.09989-0.57097 0.96908 0.80613-0.22563  0 202.74  67.81   55.01 202.64  67.95   54.89
  -2   4   8  3209.1   386.2   2-0.08657-0.16871 0.97131-0.57299-0.22150 0.80201  0 489.37 448.73  278.00 489.26 448.58  277.83
   2  -4  -8  4672.0   171.7   1-0.38539 0.64084 0.31436-0.71226-0.86756 0.28638  0 239.58 469.77   24.64 239.38 469.47   24.52
   2  -4  -8  3034.9   208.0   1-0.68905 0.94453-0.63337 0.23546-0.35221-0.22898  0 368.33 492.69   92.74 368.30 492.54   92.61
   2  -4  -8  4156.2   462.6   2-0.01532 0.27062-0.98274 0.58463 0.18434-0.76483  0 402.94 486.76   99.49 403.19 486.61   99.48
   2  -4  -8  4539.7   326.1   2 0.05300 0.20225 0.54745-0.94558-0.83516 0.25489  0 148.90 119.39  233.25 148.93 119.65  233.29
   2  -4   8  4004.0   289.8   1-0.50893 0.76468-0.85194 0.45384 0.12322 0.45748  0 104.10 283.56  124.67 103.97 283.62  124.72
   2  -4   8  3531.1   267.5   2 0.05359 0.20176-0.97607 0.57770-0.21073 0.79092  0 118.70 173.17  122.40 118.35 173.08  122.60
   2  -4   8  4127.4   423.4   2-0.23825 0.49353 0.42026-0.81837 0.87557-0.29445  0 326.23 493.37  355.05 326.44 493.02  354.68
   2   4  -8  4323.2   463.4   2 0.12879 0.12655-0.56615 0.96407-0.81418 0.23355  0 382.06 490.77  165.43 381.91 490.54  165.48
   2   4  -8  4390.6   318.2   2-0.14853 0.40381 0.98101-0.58269 0.12477-0.70527  0 138.82 134.00  298.33 138.84 133.92  298.19
   2   4   8  4750.0   287.0   2-0.17629 0.43155-0.45570 0.85370 0.87250-0.29148  0 111.98 191.42   47.25 111.76 191.42   47.15
  -2  -4  -9 14656.9   486.4   1-0.14669-0.10876 0.58579-0.98369-0.79708 0.14326  0 101.91 359.94    3.32 101.67 359.94    3.29
  -2  -4   9 10955.9   453.4   1-0.65225 0.39650-0.73046 0.33236-0.20248 0.85576  0  97.88 166.92  103.00  97.71 167.05  103.07
  -2  -4   9  9641.0   469.5   2 0.03496-0.29030-0.99480 0.59643-0.09562 0.74833  0 201.15  37.76  116.18 201.17  37.82  115.84
  -2   4  -9  9764.2   484.1   2-0.15423-0.10103 0.97554-0.57735 0.15661-0.81022  0 254.82  10.12  299.99 254.71  10.31  300.02
  -2   4   9 11817.3   506.6   2-0.15250-0.10281-0.58632 0.98444 0.79559-0.14253  0 185.18  49.01   55.95 185.06  49.19   55.97
   2  -4  -9 12892.4   273.3   1-0.33299 0.58844 0.38354-0.78144-0.86140 0.20758  0 225.61 493.36   19.64 225.40 492.92   19.54
   2  -4  -9 10887.3   466.0   2 0.04960 0.20565 0.56554-0.96367-0.82323 0.17043  0 135.19  98.80  234.55 135.20  98.99  234.55
   2  -4   9  9324.1   419.8   1-0.48499 0.74074-0.85892 0.46081 0.16446 0.48883  0  81.55 274.20  127.42  81.40 274.21  127.48
   2  -4   9 10587.7   421.9   2 0.03943 0.21592-0.99165 0.59328-0.12279 0.77550  0  99.09 161.69  117.29  98.95 161.62  117.42
   2   4  -9 10466.0   459.9   2-0.13630 0.39158 0.98929-0.59097 0.05221-0.70528  0 124.66 113.87  294.00 124.41 113.74  293.90
   2   4   9 11578.7   428.8   2-0.17177 0.42703-0.48266 0.88066 0.85880-0.20515  0  92.33 180.63   49.11  91.94 180.66   48.90
  -2  -4  10  9800.3   446.3   1-0.62585 0.37009-0.76978 0.37167-0.12553 0.85140  0  76.54 150.34  108.21  76.41 150.49  108.26
  -2  -4  10  9531.4   519.7   2 0.02284-0.27819-0.99945 0.60108-0.02397 0.74921  0 181.49  14.41  111.61 181.30  14.29  111.70
  -2   4  10 10066.2   527.3   2-0.15082-0.10448-0.59433 0.99244 0.78995-0.06433  0 164.92  26.97   56.52 164.80  27.13   56.54
   2  -4 -10 10313.2   512.0   2 0.04762 0.20763 0.57585-0.97398-0.81617 0.09083  0 118.87  74.84  234.95 118.79  75.10  235.27
   2  -4  10  8558.3   428.2   1-0.45992 0.71568-0.86387 0.46577 0.20542 0.52045  0  56.00 264.04  130.19  55.86 264.00  130.24
   2  -4  10  9286.5   442.2   2 0.02575 0.22959-0.99884 0.60046-0.04075 0.76598  0  76.59 148.57  112.56  76.19 148.61  112.65
   2   4 -10  8191.4   470.5   2-0.12456 0.37984 0.99208-0.59376-0.01629-0.70935  0 107.29  90.72  289.98 107.22  90.60  289.91
   2   4  10 10038.6   449.4   2-0.16856 0.42386-0.49903 0.89714 0.85003-0.12441  0  69.18 168.58   50.14  68.87 168.70   49.99
  -2  -4 -11  3956.5   395.3   1-0.13671-0.11874 0.59500-0.99290-0.79201-0.00710  0  56.02 398.17    2.55  55.90 397.96    2.46
  -2  -4  11  3177.9   376.4   1-0.59576 0.34001-0.80154 0.40343-0.05103 0.84949  0  51.69 131.10  113.32  51.32 130.89  113.20
   2  -4 -11  3443.2   397.1   2 0.04686 0.20839 0.57979-0.97792-0.81342 0.01555  0  98.95  46.69  235.52  98.89  46.93  235.55
   2  -4  11  2865.4   334.3   1-0.43356 0.68932-0.86687 0.46877 0.24610 0.55236  0  26.08 252.57  133.45  26.41 252.61  133.02
   2  -4  11  3185.3   383.0   2 0.01246 0.24288-0.99927 0.60089 0.03622 0.76154  0  48.90 133.72  108.05  49.11 133.68  108.20
   2   4 -11  3170.8   372.1   2-0.11287 0.36815 0.99028-0.59197-0.08123-0.71697  0  86.40  63.62  286.39  86.46  63.53  286.11
   2   4  11  3264.5   361.1   2-0.16720 0.42251-0.50701 0.90512 0.84557-0.04738  0  42.35 154.90   50.62  41.40 155.13   50.52
  -2  -5   0 -82.956  75.437   1-0.58001 0.32457-0.01640-0.48098-0.81444 0.81444  0 163.59 274.68   47.08 163.28 274.80   46.84
  -2  -5   0  41.016 126.124   2-0.20865-0.04661-0.20718-0.29032 0.95579-0.95579  0 460.36 326.51   32.12 460.44 326.21   31.96
  -2  -5   0  34.112 119.294   2 0.13308-0.38843-0.38256-0.11484-0.91430 0.91430  0 288.54 107.72  177.55 288.15 107.82  177.49
  -2   5   0  -6.909 107.607   1-0.55935 0.30391 0.02701 0.47037-0.82849 0.82849  0 400.41 126.23   44.46 400.38 126.35   43.97
  -2   5   0  90.714 130.707   2-0.23624-0.01902 0.19302 0.30448 0.95233-0.95233  0 266.29 113.66    8.40 266.29 113.63    8.81
  -2   5   0  61.029 142.722   2 0.08335-0.33860 0.35704 0.14062-0.93036 0.93036  0 447.21 347.69  220.46 447.14 347.75  220.96
   2  -5   0   3.353  65.871   1-0.68070 0.93617-0.66393 0.16654-0.30960 0.30960  0 213.49 371.68   95.56 213.54 371.22   95.65
   2  -5   0  -3.323 127.321   2-0.18345 0.43871-0.40836-0.08914 0.89419-0.89419  0 329.22 410.97   43.96 329.27 411.23   44.14
   2  -5   0  56.603  80.904   2 0.13103 0.12432-0.24698-0.25042-0.96012 0.96012  0 178.61 189.50  185.43 178.25 189.68  185.72
   2   5   0  60.493 135.532   1-0.27359 0.52903 0.45480 0.04258-0.84753 0.84753  0 475.45 236.06   14.51 475.84 236.24   14.17
   2   5   0  52.429 125.802   2 0.09476 0.16049 0.26569 0.23198-0.95939 0.95939  2 305.90 410.76  214.88 305.57 411.01  215.42
   2   5   0  36.448  83.279   2-0.23802 0.49330 0.43640 0.06124 0.86770-0.86770  0 170.22 208.81  353.92 170.08 208.81  353.63
  -2  -5  -1  4023.6   227.3   1-0.53372 0.27828 0.07752-0.57490-0.84210 0.76945  0 163.23 284.03   40.65 163.27 283.99   40.63
  -2  -5  -1  3247.6   247.1   2-0.19094-0.06432-0.35516-0.14234 0.91510-0.98773  0 463.95 323.46   40.99 464.17 323.52   40.83
  -2  -5  -1  3619.2   242.8   2 0.13102-0.38637-0.24669-0.25071-0.96020 0.88762  0 291.23 105.56  185.96 291.43 105.59  185.73
  -2  -5   1  4010.1   226.5   1-0.62112 0.36565-0.11384-0.38355-0.77540 0.84805  0 161.13 265.83   53.23 161.19 265.71   53.31
  -2  -5   1  3837.0   258.7   2-0.22187-0.03339-0.06366-0.43384 0.97300-0.90037  0 459.71 331.91   23.69 459.83 331.98   23.64
  -2  -5   1  3159.2   244.7   2 0.13097-0.38631-0.51075 0.01335-0.84969 0.92227  0 283.01 107.02  169.06 283.21 107.23  169.25
  -2   5  -1  4055.3   236.4   1-0.62060 0.36513-0.11250 0.60988-0.77601 0.70336  0 417.53 135.12   52.66 417.63 135.43   53.22
  -2   5  -1  4104.3   278.8   2 0.09891-0.35416 0.22917 0.26849-0.96835 0.89581  0 450.90 345.77  213.28 451.12 345.76  213.26
  -2   5   1  4194.6   207.1   1-0.45542 0.19998 0.21198 0.28539-0.86467 0.93732  0 384.96 116.17   31.63 385.20 116.48   31.62
  -2   5   1  3995.3   271.0   2-0.23013-0.02513 0.05966 0.43784 0.97133-0.89870  0 261.67 113.42   16.54 261.84 113.59   16.56
  -2   5   1  3998.1   287.4   2 0.06468-0.31993 0.48024 0.01742-0.87475 0.94728  0 445.93 352.94  228.81 445.91 352.81  228.76
   2  -5  -1  2593.8   142.2   1-0.69175 0.94722-0.62111 0.12372-0.36838 0.29573  0 225.14 382.52   91.35 225.08 382.37   91.44
   2  -5  -1  3456.9   266.7   2-0.16376 0.41907-0.52536 0.02772 0.83497-0.90753  0 334.29 412.74   51.98 334.26 412.61   51.76
   2  -5  -1  3765.5   218.4   2 0.12548 0.12987-0.11128-0.38613-0.98584 0.91326  0 179.00 185.54  193.60 178.92 185.53  193.63
   2  -5   1  2781.1   162.6   1-0.66743 0.92290-0.69966 0.20227-0.25498 0.32763  0 200.98 361.00   99.41 201.09 360.91   99.47
   2  -5   1  3469.2   255.0   2-0.19993 0.45519-0.28528-0.21222 0.93736-0.86473  0 326.03 413.34   36.58 325.97 413.16   36.59
   2  -5   1  3560.9   212.8   2 0.13308 0.12226-0.38451-0.11289-0.91348 0.98606  0 175.65 191.75  177.33 175.67 191.76  177.37
   2   5  -1  3944.4   280.0   1-0.34369 0.59914 0.37004 0.12733-0.86310 0.79045  0 479.29 247.75   20.50 479.33 247.89   20.53
   2   5  -1  3740.1   263.0   2 0.10981 0.14544 0.11944 0.37823-0.98675 0.91422  0 310.66 413.28  206.77 310.71 412.99  206.86
   2   5  -1  3706.1   206.3   2-0.23497 0.49023 0.55641-0.05867 0.79699-0.86962  0 170.36 204.20  345.76 170.25 204.29  345.70
   2   5   1  4015.2   278.1   1-0.19488 0.45033 0.53934-0.04196-0.81923 0.89188  0 475.87 224.36    7.10 475.81 224.46    7.35
   2   5   1  3591.5   206.2   2-0.23883 0.49409 0.30762 0.18988 0.92105-0.84842  0 167.84 211.24    2.01 167.75 211.18    1.99
  -2  -5  -2 15052.9   389.8   1-0.48482 0.22938 0.16443-0.66181-0.85902 0.71372  0 161.07 293.45   34.94 161.13 293.37   34.84
  -2  -5  -2 13093.8   378.5   2-0.16890-0.08641-0.49703-0.00061 0.85114-0.99626  0 470.83 323.74   50.00 471.03 323.86   49.86
  -2  -5  -2 12068.6   357.4   2 0.12552-0.38087-0.11220-0.38521-0.98573 0.84057  0 292.91 100.27  193.47 293.06 100.43  193.58
  -2  -5   2 13533.9   378.2   1-0.65470 0.39922-0.21126-0.28613-0.72577 0.87106  0 157.06 256.68   59.97 157.05 256.60   59.85
  -2  -5   2 13411.8   396.4   2-0.23051-0.02475 0.06628-0.56378 0.97081-0.82556  0 461.83 340.66   15.99 462.09 340.73   16.18
  -2  -5   2 12446.7   378.9   2 0.12536-0.38070-0.62470 0.12730-0.77073 0.91589  0 276.49 103.80  161.12 276.74 103.95  161.32
  -2   5  -2 13309.2   366.7   1-0.65515 0.39968-0.21274 0.71013-0.72493 0.57963  0 436.79 143.74   59.99 436.94 143.94   59.95
  -2   5  -2 12347.4   391.9   2 0.11107-0.36632 0.10431 0.39336-0.98832 0.84326  0 457.84 346.84  205.86 458.03 346.78  205.99
  -2   5  -2 12874.1   390.6   2-0.23745-0.01783 0.46300 0.03464 0.85396-0.99924  0 270.08 105.69  352.01 270.24 105.92  351.90
  -2   5   2 15473.8   279.0   1-0.29050 0.03505 0.43524 0.06213-0.85216 0.99745  0 372.03 105.39   15.77 371.97 105.64   15.67
  -2   5   2  6963.3   304.1   2-0.22195-0.03331-0.06254 0.56004 0.97305-0.82779  0 255.73 110.96   23.57 255.78 111.05   23.58
  -2   5   2 12539.7   398.9   2 0.04433-0.29958 0.59261-0.09495-0.80427 0.94933  0 447.22 361.07  236.46 447.36 360.89  236.46
   2  -5  -2  9387.3   209.3   1-0.69977 0.95524-0.56863 0.07124-0.43242 0.28713  0 235.47 394.74   86.79 235.50 394.50   86.68
   2  -5  -2 12807.8   394.9   2-0.14318 0.39848-0.63122 0.13358 0.76227-0.90740  0 340.91 417.23   58.90 340.92 417.14   59.22
   2  -5  -2 13633.1   370.5   2 0.11806 0.13719 0.01454-0.51221-0.99290 0.84783  0 177.85 179.31  201.00 177.69 179.35  200.83
   2  -5   2  9988.0   294.5   1-0.65239 0.90815-0.73021 0.23258-0.20293 0.34811  0 187.75 351.40  103.00 187.81 351.37  103.04
   2  -5   2 12033.7   373.9   2-0.21306 0.46832-0.16352-0.33398 0.96326-0.81800  0 324.22 418.48   29.39 324.22 418.32   29.41
   2  -5   2 12812.5   352.8   2 0.13082 0.12453-0.51542 0.01802-0.84690 0.99205  0 171.23 191.88  169.00 171.17 191.81  168.94
   2   5  -2 13610.1   418.6   1-0.40355 0.65900 0.28919 0.20818-0.86805 0.72276  0 486.23 259.56   25.91 486.34 259.65   26.30
   2   5  -2 13190.9   388.9   2 0.11988 0.13547-0.01581 0.51321-0.99266 0.84751  0 317.34 418.42  199.01 317.21 418.18  199.12
   2   5  -2 12398.4   342.7   2-0.22825 0.48351 0.66113-0.16339 0.71471-0.85996  0 168.64 197.57  337.93 168.58 197.70  338.00
   2   5   2 13086.8   337.5   2-0.23568 0.49094 0.17738 0.32012 0.95551-0.81025  0 163.46 211.68    9.76 163.41 211.65    9.73
  -2  -5  -3 20239.4   454.7   1-0.43612 0.18067 0.24177-0.73914-0.86680 0.64886  0 156.84 303.22   29.63 156.89 303.11   29.58
  -2  -5  -3 17620.9   477.2   1 0.02351-0.27920-0.69054 0.19318 0.72291-0.94060  0 486.55 315.97  173.00 486.58 315.84  172.99
  -2  -5  -3 16931.3   425.6   2-0.14475-0.11055-0.62368 0.12604 0.76816-0.98585  0 481.19 327.16   58.72 481.39 327.26   58.67
  -2  -5  -3 17969.0   430.5   2 0.11827-0.37352 0.01162-0.50929-0.99291 0.77531  0 293.00  92.12  200.62 293.00  92.28  200.67
  -2  -5   3 17435.9   431.9   1-0.67952 0.42405-0.30534-0.19205-0.66710 0.88504  0 150.90 247.41   66.01 150.90 247.35   66.35
  -2  -5   3 17721.9   454.9   2-0.23568-0.01958 0.17744-0.67494 0.95550-0.73761  0 467.00 352.42   10.03 467.13 352.44    9.73
  -2  -5   3 18391.6   462.9   2 0.11706-0.37240-0.72097 0.22357-0.68300 0.90074  0 268.49  98.09  153.77 268.76  98.20  153.88
  -2   5  -3 18061.2   442.5   1-0.67435 0.41888-0.28314 0.78053-0.68197 0.46402  0 458.51 151.96   64.83 458.65 152.09   64.79
  -2   5  -3 17790.1   455.9   2 0.11957-0.37491-0.01130 0.50870-0.99276 0.77503  0 467.85 350.93  199.31 467.94 350.88  199.38
  -2   5  -3 17300.1   452.5   2-0.23365-0.02161 0.58285-0.08510 0.77827-0.99614  0 269.70  97.70  344.00 269.67  97.91  343.83
  -2   5   3 18987.6   449.7   2-0.21256-0.04271-0.16864 0.66614 0.96249-0.74461  0 248.32 106.06   29.70 248.19 106.17   29.71
  -2   5   3 18013.4   479.5   2 0.02303-0.27828 0.69000-0.19233-0.72344 0.94105  0 451.15 372.18  244.08 451.35 372.01  243.83
   2  -5  -3 13320.6   224.6   1-0.70308 0.95856-0.50287 0.00548-0.50279 0.28485  0 244.30 408.02   81.11 244.33 407.79   81.16
   2  -5  -3 17637.3   459.6   2-0.12186 0.37717-0.72225 0.22461 0.68081-0.89850  0 349.30 424.92   65.88 349.30 424.79   66.33
   2  -5  -3 19553.0   450.3   2 0.10927 0.14598 0.12534-0.62300-0.98608 0.76848  0 174.90 171.10  206.96 174.78 171.19  207.20
   2  -5   3 13948.2   356.4   1-0.63603 0.89178-0.75624 0.25861-0.15351 0.37127  0 173.61 342.22  106.24 173.67 342.20  106.38
   2  -5   3 17179.6   444.5   2-0.22294 0.47820-0.04996-0.44754 0.97355-0.75567  0 323.99 427.04   23.00 323.95 426.78   22.85
   2  -5   3 17726.3   413.7   2 0.12483 0.13051-0.63246 0.13506-0.76447 0.98220  0 164.78 189.99  160.71 164.73 189.92  160.75
   2   5  -3 17538.6   474.5   1-0.45306 0.70850 0.21569 0.28168-0.86499 0.64705  0 496.82 271.80   31.22 496.89 271.86   31.37
   2   5  -3 16819.8   443.9   2 0.12653 0.12881-0.13335 0.63075-0.98296 0.76522  0 325.62 426.89  192.08 325.45 426.59  192.36
   2   5  -3 16566.7   403.3   2-0.21912 0.47438 0.74839-0.25065 0.62601-0.84388  0 165.19 189.09  331.01 165.09 189.22  330.80
   2   5   3 19050.1   410.2   2-0.22983 0.48509 0.05430 0.44320 0.97172-0.75383  0 157.05 210.18   17.20 156.98 210.17   16.87
  -2  -5  -4 40244.1   646.1   1-0.38993 0.13449 0.30808-0.80546-0.86778 0.57719  0 150.50 313.46   25.14 150.57 313.35   24.96
  -2  -5  -4 33939.0   624.2   1-0.06356-0.19213-0.75039 0.25303 0.65794-0.94819  0 497.50 330.27  166.13 497.50 330.09  165.88
  -2  -5  -4 32344.7   585.7   2-0.11993-0.13537-0.72991 0.23227 0.67294-0.96318  0 495.14 333.57   67.16 495.36 333.66   66.97
  -2  -5  -4 35806.8   602.7   2 0.10975-0.36500 0.12007-0.61774-0.98668 0.69654  0 291.73  80.97  206.99 291.70  81.17  206.90
  -2  -5   4 32110.7   591.8   1-0.69530 0.43983-0.39345-0.10393-0.60145 0.89205  0 142.72 237.83   72.71 142.77 237.83   72.71
  -2  -5   4 32740.0   613.1   2-0.23836-0.01690 0.26828-0.76578 0.93339-0.64288  0 474.79 367.15    4.32 474.89 367.15    4.36
  -2  -5   4 30823.7   597.9   2 0.10696-0.36230-0.79873 0.30076-0.59211 0.88220  0 259.12  89.93  146.81 259.37  89.99  146.92
  -2   5  -4 32764.0   589.8   1-0.68507 0.42960-0.33163 0.82902-0.64861 0.35802  0 483.16 159.90   68.02 483.28 160.04   68.21
  -2   5  -4 31087.9   593.6   2 0.12551-0.38085-0.11195 0.60935-0.98576 0.69544  0 481.24 358.05  193.57 481.32 358.01  193.59
  -2   5  -4 32444.3   606.5   2-0.22596-0.02930 0.68655-0.18880 0.69108-0.98158  0 267.90  86.87  335.83 267.85  87.19  335.99
  -2   5   4 35223.2   614.1   2-0.20322-0.05204-0.25693 0.75443 0.94482-0.65431  0 239.21  98.92   34.98 239.09  99.06   34.90
  -2   5   4 32524.2   629.8   2 0.00201-0.25729 0.77116-0.27326-0.63664 0.92689  0 457.68 386.41  250.81 457.70 386.22  250.78
   2  -5  -4 26420.1   288.3   1-0.69836 0.95383-0.41877-0.07862-0.58045 0.28986  0 250.85 422.75   74.63 250.87 422.44   74.60
   2  -5  -4 32460.4   331.5   1-0.18382 0.43950-0.81462 0.31726 0.55009-0.84035  0 354.56 436.80  155.97 354.36 436.58  155.90
   2  -5  -4 33230.4   625.3   2-0.10102 0.35632-0.79761 0.29997 0.59465-0.88490  0 359.51 435.85   73.03 359.51 435.69   72.98
   2  -5  -4 35702.3   613.4   2 0.10010 0.15515 0.21839-0.71606-0.97071 0.68058  0 170.33 160.98  212.67 170.16 161.10  212.62
   2  -5   4 25093.2   496.9   1-0.61826 0.87401-0.77880 0.28118-0.10595 0.39629  0 158.49 333.45  109.50 158.53 333.43  109.56
   2  -5   4 33565.6   607.6   2-0.22962 0.48488 0.05070-0.54820 0.97196-0.68145  0 325.08 438.89   17.00 325.06 438.69   17.07
   2  -5   4 31131.8   556.8   2 0.11588 0.13946-0.73159 0.23419-0.67182 0.96214  0 156.37 186.29  153.08 156.34 186.21  152.99
   2   5  -4 31123.6   591.8   2 0.13057 0.12478-0.23083 0.72823-0.96419 0.67388  0 335.46 438.60  186.68 335.34 438.25  186.67
   2   5  -4 32212.2   568.9   2-0.20854 0.46380 0.81848-0.32074 0.53535-0.82584  0 159.96 178.80  324.28 159.87 178.94  324.14
   2   5   4 34394.7   553.9   2-0.22254 0.47780-0.05514 0.55265 0.97336-0.68285  0 148.55 206.91   22.84 148.51 206.87   23.15
  -2  -5  -5 18877.1   470.3   1-0.34901 0.09356 0.36321-0.86059-0.86387 0.50064  0 142.09 324.42   21.00 142.14 324.29   21.03
  -2  -5  -5 16273.2   469.3   2 0.10096-0.35621 0.21040-0.70807-0.97239 0.60972  0 289.17  66.76  212.11 289.13  66.99  212.15
  -2  -5   5 15242.6   435.1   1-0.70243 0.44695-0.47395-0.02344-0.53101 0.89425  0 132.62 227.83   78.97 132.66 227.83   78.85
  -2  -5   5 13953.2   422.7   2 0.09551-0.35086-0.86022 0.36225-0.50091 0.86352  0 248.64  79.63  140.46 248.58  79.67  140.60
  -2   5  -5 15083.2   486.6   2 0.12945-0.38480-0.19608 0.69348-0.97201 0.60911  0 498.48 368.27  188.72 498.42 368.25  188.71
  -2   5  -5 13813.9   463.5   2-0.21594-0.03932 0.77208-0.27434 0.59771-0.96083  0 264.71  73.37  328.84 264.67  73.62  328.66
  -2   5   5 15928.9   456.4   2-0.19468-0.06058-0.32789 0.82539 0.92444-0.56130  0 228.61  89.61   38.93 228.48  89.80   39.16
  -2   5   5 15111.0   508.5   2-0.01873-0.23655 0.83629-0.33839-0.54797 0.91079  0 466.81 403.93  257.00 466.80 403.79  257.17
   2  -5  -5 13496.2   209.4   1-0.68154 0.93702-0.31444-0.18295-0.66078 0.29754  0 254.21 438.96   67.04 254.14 438.63   66.99
   2  -5  -5 14458.5   233.1   1-0.39969 0.65545-0.86775 0.37012 0.29540-0.65833  0 350.80 453.34  136.68 350.44 453.14  136.45
   2  -5  -5 16327.0   511.7   2-0.08118 0.33648-0.85799 0.36035 0.50720-0.87002  0 371.73 450.20   79.05 371.68 450.00   79.13
   2  -5  -5 17128.0   464.0   2 0.09140 0.16385 0.29382-0.79149-0.95148 0.58881  0 164.05 148.96  216.97 163.89 149.12  217.11
   2  -5   5 11799.2   376.8   1-0.59936 0.85511-0.79827 0.30064-0.05944 0.42237  0 142.23 324.93  112.61 142.33 324.90  112.64
   2  -5   5 15361.7   475.0   2-0.23406 0.48932 0.13583-0.63333 0.96269-0.59955  0 327.40 454.23   11.99 327.35 454.05   12.15
   2  -5   5 13190.3   397.8   2 0.10487 0.15047-0.81141 0.31344-0.57499 0.93761  0 146.00 180.90  145.57 145.99 180.77  145.69
   2   5  -5 14548.5   485.6   2 0.13224 0.12310-0.30852 0.80592-0.94198 0.57909  0 347.04 453.61  182.00 346.90 453.23  182.03
   2   5  -5 14165.5   415.3   2-0.19710 0.45236 0.87313-0.37538 0.44587-0.80899  0 153.00 166.76  318.17 152.93 166.92  318.03
   2   5   5 15215.2   397.2   2-0.21455 0.46981-0.14786 0.64536 0.96546-0.60232  0 138.01 202.00   28.47 137.97 201.96   28.50
  -2  -5  -6 -91.177 114.541   1-0.31373 0.05829 0.40746-0.90483-0.85764 0.42176  0 131.99 335.89   17.42 131.63 336.14   17.77
  -2  -5  -6  21.849 193.428   2 0.09276-0.34801 0.28272-0.78039-0.95471 0.51950  0 285.51  49.02  216.54 285.41  49.62  216.44
  -2  -5   6   8.496 119.117   1-0.70162 0.44615-0.54608 0.04869-0.45775 0.89363  0 120.74 217.47   85.12 120.48 217.17   84.73
  -2  -5   6 125.742 156.081   2 0.08339-0.33874-0.90736 0.40939-0.41200 0.84715  0 236.34  66.90  134.49 236.37  67.08  134.84
  -2  -5   6 172.526 246.926   2-0.23844-0.01684 0.39442-0.89205 0.88746-0.45162  0 499.12 406.30  356.56 499.57 406.66  356.31
  -2   5  -6 -39.143 198.099   2-0.20447-0.05079 0.84007-0.34233 0.50246-0.93821  0 260.40  57.15  321.41 260.22  57.04  321.85
  -2   5   6  93.449 149.565   2-0.18709-0.06817-0.38319 0.88069 0.90452-0.46876  0 216.20  78.00   42.53 216.31  78.34   42.56
  -2   5   6  13.598 235.732   2-0.03826-0.21702 0.88720-0.38930-0.45980 0.89518  0 479.15 425.11  263.47 478.70 425.06  263.08
   2  -5  -6  12.250  57.452   1-0.64966 0.90513-0.19505-0.30233-0.73478 0.29889  0 254.40 457.41   59.63 253.41 456.68   58.75
   2  -5  -6  41.539  90.119   1-0.54201 0.79776-0.83807 0.34044 0.06214-0.49767  0 351.91 472.70  121.18 351.36 472.86  120.67
   2  -5  -6  72.512 228.030   2-0.06247 0.31777-0.90498 0.40734 0.42084-0.85621  0 386.06 468.40   84.51 386.12 468.09   84.86
   2  -5  -6  -9.360 133.799   2 0.08387 0.17138 0.35325-0.85092-0.93176 0.49656  0 156.07 135.09  220.88 155.90 135.15  220.73
   2  -5   6  -1.436 118.154   1-0.57926 0.83502-0.81502 0.31739-0.01393 0.44946  0 124.67 316.45  115.60 124.77 316.46  115.64
   2  -5   6 250.580 203.186   2-0.23663 0.49189 0.20532-0.70282 0.94966-0.51389  0 330.83 473.33    8.30 330.77 473.29    8.09
   2  -5   6 103.386 128.321   2 0.09232 0.16303-0.87405 0.37608-0.47699 0.91213  0 133.41 173.89  139.29 133.56 173.86  139.02
   2   5  -6 101.671 226.798   2 0.13296 0.12238-0.36880 0.86620-0.91995 0.48448  0 360.58 471.62  178.30 360.42 472.02  178.35
   2   5  -6  98.146 127.025   2-0.18517 0.44043 0.91463-0.41689 0.35939-0.79513  0 144.20 153.04  312.58 144.24 153.09  312.43
   2   5   6 109.030 117.622   2-0.20697 0.46223-0.22309 0.72059 0.95257-0.51681  0 125.54 195.61   33.12 125.27 195.61   32.89
  -2  -5  -7  7285.7   346.8   1-0.28487 0.02943 0.44181-0.93918-0.85068 0.34215  0 119.13 349.39   15.07 118.86 349.26   15.17
  -2  -5  -7  5941.9   443.5   2 0.08583-0.34108 0.33864-0.83630-0.93699 0.42926  0 280.70  28.57  219.80 280.66  28.72  219.83
  -2  -5   7  5558.4   319.6   1-0.69401 0.43854-0.60954 0.11216-0.38315 0.89169  0 106.42 205.60   90.34 106.16 205.62   90.36
  -2  -5   7  5308.5   355.6   2 0.07115-0.32649-0.94253 0.44456-0.32646 0.83413  0 222.54  51.90  129.42 222.56  52.05  129.53
  -2   5  -7  4663.9   355.8   2-0.19193-0.06333 0.89246-0.39472 0.40825-0.91662  0 254.95  37.03  315.68 254.58  37.15  315.57
  -2   5   7  6237.8   372.2   2-0.18098-0.07428-0.42513 0.92263 0.88685-0.37846  0 202.52  64.45   45.30 202.40  64.55   45.20
  -2   5   7  5592.3   531.2   2-0.05633-0.19895 0.92584-0.42794-0.37369 0.88164  0 493.90 450.81  268.50 493.81 450.81  268.57
   2  -5  -7  5450.2   160.4   1-0.60578 0.86125-0.07564-0.42175-0.79203 0.28349  0 249.25 477.59   51.03 248.86 477.02   50.76
   2  -5  -7  4703.7   198.9   1-0.62339 0.87914-0.77280 0.27517-0.11902-0.38909  0 356.99 496.85  108.93 356.63 496.77  108.69
   2  -5  -7  5829.1   507.6   2-0.04515 0.30045-0.94048 0.44284 0.33682-0.84476  0 402.91 490.56   89.99 403.21 490.61   90.20
   2  -5  -7  5722.9   349.4   2 0.07733 0.17792 0.39868-0.89635-0.91382 0.40609  0 146.19 118.90  223.55 146.08 119.05  223.54
   2  -5   7  5356.3   329.0   1-0.55797 0.81372-0.82929 0.33166 0.03077 0.47734  0 105.75 308.06  118.56 105.56 307.98  118.59
   2  -5   7  5824.9   462.8   2-0.23817 0.49343 0.26005-0.75755 0.93576-0.42737  0 335.26 497.04    5.18 335.19 496.84    4.84
   2  -5   7  4702.6   321.6   2 0.07902 0.17632-0.92117 0.42321-0.38105 0.88871  0 119.22 165.69  132.82 118.86 165.47  132.89
   2   5  -7  4748.4   466.8   2 0.13307 0.12228-0.41426 0.91166-0.90038 0.39233  0 376.40 495.34  175.52 376.22 495.13  175.50
   2   5  -7  5461.9   338.8   2-0.17302 0.42828 0.94526-0.44751 0.27669-0.78505  0 133.63 137.16  307.47 133.63 137.31  307.26
   2   5   7  5502.4   305.7   2-0.20030 0.45556-0.28203 0.77953 0.93826-0.42987  0 110.47 187.92   36.40 110.28 187.91   36.39
   2   5   7  4867.9   404.7   2-0.06555 0.32083 0.94223-0.44433-0.32850 0.83644  2 306.50 493.95  271.33 306.26 493.86  271.37
  -2  -5  -8  7644.8   394.2   1-0.26245 0.00701 0.46739-0.96476-0.84420 0.26302  0 103.85 364.03   13.22 103.67 364.01   13.19
  -2  -5   8  6308.8   364.6   1-0.68044 0.42496-0.66474 0.16735-0.30842 0.88961  0  89.66 192.85   95.68  89.42 192.84   95.74
  -2  -5   8  5062.0   385.0   2 0.05889-0.31424-0.96780 0.46983-0.24474 0.82493  0 206.93  34.10  124.48 206.89  34.26  124.61
  -2   5  -8  6144.0   409.4   2-0.17904-0.07622 0.93142-0.43368 0.31685-0.89784  0 247.90  13.28  310.15 247.63  13.35  309.77
  -2   5   8  6525.0   413.9   2-0.17627-0.07899-0.45583 0.95333 0.87244-0.29142  0 186.51  47.96   46.98 186.45  48.16   47.16
   2  -5  -8  6321.8   208.4   1-0.55941 0.81485 0.02690-0.52428-0.82846 0.24728  2 241.69 500.93   44.10 241.52 500.71   43.98
   2  -5  -8  7096.4   409.8   2 0.07227 0.18298 0.43243-0.93010-0.89877 0.31850  0 134.32 100.33  225.70 134.13 100.47  225.68
   2  -5   8  5552.4   346.2   1-0.53547 0.79122-0.84123 0.34360 0.07483 0.50587  0  84.58 299.26  121.46  84.30 299.28  121.50
   2  -5   8  5348.7   351.5   2 0.06562 0.18972-0.95517 0.45720-0.28870 0.86889  0 101.70 155.63  126.96 101.59 155.57  127.24
   2   5  -8  5439.8   371.6   2-0.16088 0.41614 0.96693-0.46918 0.19792-0.77891  0 121.16 119.26  302.63 120.88 119.27  302.49
   2   5   8  6333.0   349.1   2-0.19484 0.45010-0.32663 0.82413 0.92485-0.34383  0  92.87 178.93   38.96  92.65 178.92   39.09
  -2  -5  -9  41.592 174.870   1-0.24630-0.00914 0.48530-0.98267-0.83894 0.18512  0  85.57 380.90   11.48  85.65 380.96   11.77
  -2  -5   9-185.501 160.948   1-0.66188 0.40612-0.71180 0.21417-0.23508 0.88837  0  70.35 178.71  100.53  69.94 178.52  100.86
  -2  -5   9 -43.008 236.579   2 0.04658-0.30193-0.98487 0.48691-0.16690 0.81961  0 188.93  13.23  120.47 188.91  13.08  120.02
  -2   5   9 150.989 243.709   2-0.17267-0.08259-0.47712 0.97462 0.86171-0.20806  0 168.04  28.96   48.57 168.03  28.64   48.54
   2  -5  -9 302.471 224.138   2 0.06858 0.18667 0.45640-0.95407-0.88713 0.23432  0 119.15  78.49  227.54 119.71  78.88  227.22
   2  -5   9 -99.463 166.515   1-0.51168 0.76744-0.85099 0.35336 0.11833 0.53496  0  59.95 290.10  124.63  60.37 290.14  124.39
   2  -5   9 341.490 190.643   2 0.05194 0.20340-0.97833 0.48036-0.20045 0.85316  0  81.29 144.01  122.02  81.20 144.03  121.98
   2   5  -9 299.085 202.970   2-0.14837 0.40365 0.98115-0.48326 0.12380-0.77687  0 105.43  98.16  297.99 105.72  98.39  298.13
   2   5   9 117.559 161.871   2-0.19041 0.44567-0.35910 0.85660 0.91367-0.26002  0  71.49 168.47   40.97  71.88 168.51   41.07
  -2  -5 -10  9833.5   502.4   1-0.23597-0.01947 0.49649-0.99386-0.83535 0.10889  0  64.37 400.90   10.99  64.23 400.88   10.87
  -2  -5  10  6705.2   424.5   1-0.63901 0.38325-0.75193 0.25430-0.16207 0.88794  0  46.95 161.80  106.17  46.81 161.85  105.80
   2  -5 -10  8161.5   530.7   2 0.06603 0.18922 0.47217-0.96983-0.87903 0.15369  0 102.30  53.14  228.00 102.14  53.48  228.25
   2  -5  10  6522.2   428.4   1-0.48674 0.74249-0.85848 0.36085 0.16152 0.56435  0  33.05 280.39  127.14  32.97 280.30  127.29
   2  -5  10  7360.7   462.7   2 0.03837 0.21698-0.99246 0.49449-0.11643 0.84167  0  57.16 130.71  117.27  57.01 130.61  117.05
   2   5 -10  6816.0   499.3   2-0.13631 0.39159 0.98928-0.49139 0.05231-0.77794  0  87.29  74.22  294.02  87.15  74.13  293.91
   2   5  10  7989.7   441.8   2-0.18737 0.44263-0.38114 0.87864 0.90533-0.17906  0  47.24 156.52   42.43  47.17 156.60   42.44
  -2  -6   0 67696.9   855.9   1-0.61208 0.35660-0.09112-0.50574-0.78553 0.78553  0 138.22 288.75   51.99 138.30 288.61   51.79
  -2  -6   0 57375.8   775.7   2-0.20211-0.05315-0.26666-0.33034 0.94236-0.94236  0 494.63 356.41   35.47 494.94 356.55   35.48
  -2  -6   0 57444.2   777.8   2 0.13309-0.38844-0.41000-0.18689-0.90232 0.90232  0 273.18  77.73  176.07 273.46  77.92  175.77
  -2   6   0 68181.8   711.7   1-0.49952 0.24407 0.13930 0.45755-0.85503 0.85503  0 430.73  97.09   36.46 430.84  97.50   36.52
  -2   6   0 64093.4   820.9   2-0.23798-0.01728 0.25132 0.34568 0.93819-0.93819  0 247.47  87.19    5.24 247.33  87.41    5.36
  -2   6   0 61654.4   847.8   2 0.07911-0.33436 0.38696 0.21024-0.91870 0.91870  0 475.20 382.46  223.04 475.37 382.25  222.82
   2  -6   0 44587.0   561.3   1-0.68572 0.94119-0.64661 0.04975-0.33420 0.33420  0 191.73 390.69   93.99 191.82 390.49   93.91
   2  -6   0 58690.0   805.5   2-0.18024 0.43550-0.43013-0.16687 0.88459-0.88459  0 348.91 445.75   45.48 348.84 445.59   45.51
   2  -6   0 60947.1   796.8   2 0.13210 0.12325-0.29655-0.30033-0.94584 0.94584  0 159.45 166.86  182.81 159.44 166.85  182.76
   2   6   0 59655.6   784.1   2 0.08881 0.16644 0.31519 0.28201-0.94486 0.94486  0 318.83 446.63  218.34 318.92 446.36  218.41
   2   6   0 58188.0   749.3   2-0.23761 0.49289 0.45472 0.14244 0.85835-0.85835  0 148.34 189.62  352.57 148.36 189.70  352.44
  -2  -6  -1 -62.435 106.608   1-0.57747 0.32203-0.01100-0.58585-0.81634 0.74369  0 138.71 298.26   46.50 138.92 298.29   46.48
  -2  -6  -1 -63.729 180.014   2-0.18647-0.06879-0.38759-0.20942 0.90278-0.97540  0 499.47 353.81   43.04 499.18 353.78   42.84
  -2  -6  -1 -65.875 160.486   2 0.13214-0.38749-0.29909-0.29779-0.94503 0.87245  0 276.66  75.79  182.99 276.81  75.36  182.61
  -2  -6   1 -20.780 100.805   1-0.64253 0.38705-0.17336-0.42351-0.74640 0.81904  0 135.89 279.45   57.63 135.68 279.13   57.28
  -2  -6   1  -5.667 184.378   2-0.21450-0.04076-0.14833-0.44867 0.96539-0.89277  0 493.55 362.28   28.57 493.79 362.31   28.53
  -2  -6   1 -61.186 167.607   2 0.13079-0.38613-0.51633-0.08055-0.84634 0.91892  0 268.41  77.89  168.52 268.60  77.77  168.88
  -2   6  -1 -35.188 164.932   1-0.56509 0.30964 0.01526 0.58159-0.82489 0.75224  0 448.79 107.33   44.51 449.00 107.01   44.75
  -2   6  -1  15.877 201.543   2 0.09293-0.34818 0.28127 0.31593-0.95512 0.88258  0 480.17 380.60  216.52 479.96 380.34  216.36
  -2   6  -1 -50.500 120.275   2-0.23859-0.01669 0.36504 0.23213 0.89990-0.97254  0 250.01  84.65  357.82 250.14  84.64  358.15
  -2   6   1 106.873 141.568   1-0.40229 0.14684 0.29099 0.30586-0.86804 0.94068  0 415.09  86.63   26.00 415.11  86.79   26.17
  -2   6   1  87.995 126.981   2-0.23426-0.02100 0.14030 0.45670 0.96200-0.88937  0 242.98  87.81   11.47 242.98  87.76   11.89
  -2   6   1 -67.770 209.659   2 0.06304-0.31829 0.49009 0.10711-0.86939 0.94192  0 473.84 387.50  229.49 473.67 387.30  229.41
   2  -6  -1  14.633  81.554   1-0.69432 0.94980-0.60782 0.01095-0.38532 0.31267  0 203.10 402.70   90.55 202.90 402.37   90.20
   2  -6  -1 193.204 192.859   2-0.16320 0.41850-0.52856-0.06861 0.83306-0.90562  0 353.92 446.81   51.41 354.07 446.82   51.98
   2  -6  -1 137.569 122.385   2 0.12899 0.12635-0.18380-0.41308-0.97446 0.90188  0 160.33 162.71  189.42 160.30 162.76  189.43
   2  -6   1 161.308 101.762   1-0.67488 0.93036-0.68099 0.08413-0.28423 0.35688  0 179.67 379.27   97.35 179.77 379.60   97.44
   2  -6   1  98.636 180.839   2-0.19463 0.44989-0.32826-0.26874 0.92432-0.85169  0 345.27 447.32   39.56 345.29 447.74   39.19
   2  -6   1-114.529 108.942   2 0.13309 0.12225-0.41024-0.18664-0.90221 0.97479  0 156.63 169.06  175.46 156.71 169.00  175.76
   2   6  -1  49.490 172.559   2 0.10256 0.15269 0.19525 0.40195-0.97538 0.90284  0 324.59 447.96  211.44 324.20 448.22  211.27
   2   6  -1 -24.194 105.113   2-0.23503 0.49029 0.55507 0.04223 0.79791-0.87053  0 149.07 185.16  345.56 148.69 185.32  345.80
   2   6   1-111.479 167.786   2 0.07174 0.18351 0.43586 0.16134-0.89715 0.96969  0 314.84 447.29  225.90 314.99 447.78  225.90
  -2  -6  -2  1015.2   166.8   1-0.54042 0.28498 0.06474-0.66159-0.83890 0.69360  0 137.37 308.30   41.43 137.49 308.27   41.48
  -2  -6  -2  1105.4   214.4   2 0.12920-0.38454-0.18926-0.40762-0.97339 0.82823  0 278.70  70.02  189.27 278.71  69.97  189.11
  -2  -6   2  1277.0   173.0   1-0.66726 0.41179-0.25550-0.34137-0.69963 0.84493  0 131.11 269.87   62.65 131.04 269.71   62.88
  -2  -6   2  1067.2   233.8   2-0.22380-0.03146-0.03810-0.55890 0.97389-0.82864  0 495.65 371.01   22.00 495.79 371.15   22.18
  -2  -6   2  1208.7   223.9   2 0.12603-0.38137-0.61410 0.01721-0.77910 0.92426  0 262.42  74.70  161.88 262.32  74.96  162.09
  -2   6  -2  1218.1   220.0   1-0.60829 0.35282-0.08176 0.67863-0.78949 0.64419  0 469.76 115.57   51.32 469.71 115.73   51.17
  -2   6  -2  1403.9   251.2   2 0.10437-0.35962 0.17768 0.41952-0.97854 0.83347  0 487.32 381.29  210.31 487.55 381.50  210.24
  -2   6  -2  1458.4   193.1   2-0.23702-0.01826 0.47559 0.12157 0.84714-0.99241  0 251.48  78.99  351.31 251.44  79.19  351.06
  -2   6   2  1159.5   162.0   1-0.26691 0.01146 0.46238 0.13447-0.84556 0.99085  0 401.01  74.78   13.49 401.25  74.90   13.58
  -2   6   2  1134.8   183.1   2-0.22887-0.02639 0.03620 0.56080 0.97278-0.82753  0 237.02  85.81   17.69 237.08  85.70   17.90
  -2   6   2  1318.9   252.8   2 0.04552-0.30076 0.58663 0.01057-0.80857 0.95364  0 474.71 395.56  235.96 474.78 395.49  236.04
   2  -6  -2 649.229 106.399   1-0.70020 0.95568-0.56391-0.03296-0.43786 0.29256  0 213.12 415.63   86.50 212.91 415.41   86.27
   2  -6  -2 961.925 234.870   2-0.14558 0.40088-0.62033 0.02316 0.77071-0.91584  0 360.94 451.35   58.30 360.97 451.34   58.42
   2  -6  -2 996.398 170.428   2 0.12366 0.13168-0.07721-0.51967-0.98932 0.84416  0 159.47 156.71  195.68 159.39 156.76  195.59
   2  -6   2 616.689 139.601   1-0.66193 0.91768-0.71168 0.11453-0.23527 0.38045  0 166.75 369.70  101.29 166.74 369.64  100.84
   2  -6   2  1354.1   236.7   2-0.20649 0.46175-0.22749-0.36951 0.95163-0.80638  0 343.23 453.18   32.97 343.22 453.13   33.15
   2  -6   2 933.179 156.403   2 0.13066 0.12468-0.52008-0.07680-0.84406 0.98922  0 152.24 169.30  168.63 152.10 169.29  168.63
   2   6  -2  1164.0   225.5   2 0.11300 0.14225 0.08194 0.51526-0.99021 0.84514  0 330.76 453.70  204.68 330.98 453.42  204.70
   2   6  -2 783.240 150.619   2-0.22945 0.48471 0.64596-0.04866 0.72807-0.87332  0 147.25 179.01  339.00 147.27 179.01  339.17
   2   6   2  1087.1   163.5   2-0.23781 0.49307 0.24365 0.35335 0.94026-0.79500  0 141.62 192.85    5.73 141.48 192.94    5.82
   2   6   2 838.583 201.046   2 0.05240 0.20285 0.55073 0.04647-0.83304 0.97811  0 312.46 452.91  233.49 312.46 452.68  233.52
  -2  -6  -3 605.335 149.953   1-0.50252 0.24708 0.13407-0.73092-0.85410 0.63616  0 133.87 318.80   37.14 133.96 318.73   36.87
  -2  -6  -3 701.455 207.649   2 0.12406-0.37941-0.08521-0.51167-0.98861 0.77087  0 279.07  61.40  195.29 279.19  61.65  195.13
  -2  -6   3 351.902 140.879   1-0.68578 0.43031-0.33525-0.26161-0.64600 0.86394  0 124.79 260.38   68.35 124.42 260.17   68.47
  -2  -6   3 680.717 243.331   2-0.23016-0.02510 0.06006-0.65707 0.97130-0.75342  0 501.18 383.30   16.51 500.85 383.14   16.53
  -2  -6   3 562.160 165.745   2 0.11920-0.37455-0.70046 0.10358-0.70367 0.92140  0 254.62  69.79  155.46 254.58  69.66  155.53
  -2   6  -3 854.698 243.220   1-0.63627 0.38080-0.15537 0.75223-0.75566 0.53771  0 493.43 123.73   56.38 493.25 123.85   56.07
  -2   6  -3 449.603 228.146   2 0.11314-0.36838 0.08030 0.51690-0.99033 0.77273  0 498.45 385.88  204.60 498.48 385.80  204.60
  -2   6  -3 445.287 154.480   2-0.23391-0.02135 0.57811 0.01919 0.78172-0.99959  0 250.95  71.13  344.44 251.04  71.03  344.17
  -2   6   3 672.844 165.148   2-0.22236-0.03290-0.05745 0.65445 0.97327-0.75539  0 229.49  80.92   22.99 229.62  81.29   23.28
  -2   6   3 616.408 251.154   2 0.02689-0.28214 0.67346-0.07626-0.73874 0.95634  0 478.56 406.67  242.42 478.60 406.87  242.52
   2  -6  -3 562.702  98.088   1-0.70295 0.95843-0.51445-0.08242-0.49112 0.27318  0 221.76 430.02   82.04 221.71 429.91   82.10
   2  -6  -3 455.538 231.192   2-0.12685 0.38215-0.70238 0.10522 0.70040-0.91809  0 370.01 459.45   65.01 369.67 459.17   64.71
   2  -6  -3 554.603 154.092   2 0.11771 0.13754 0.01929-0.61649-0.99286 0.77526  0 156.36 148.57  200.86 156.61 148.80  201.11
   2  -6   3 431.044 139.651   1-0.64745 0.90321-0.73870 0.14154-0.18743 0.40519  0 152.59 360.24  104.38 152.66 360.16  104.09
   2  -6   3 692.206 219.205   2-0.21600 0.47126-0.13212-0.46488 0.96741-0.74953  0 342.70 462.12   27.56 342.63 462.01   27.59
   2  -6   3 328.400 138.578   2 0.12557 0.12978-0.62122 0.02434-0.77351 0.99124  0 145.68 167.73  161.58 145.59 167.74  161.57
   2   6  -3 741.957 229.615   2 0.12021 0.13513-0.02072 0.61760-0.99253 0.77480  0 339.05 462.26  199.02 339.09 461.94  198.84
   2   6  -3 888.057 156.900   2-0.22184 0.47710 0.72541-0.12811 0.65159-0.86946  0 144.28 170.78  333.03 144.00 170.84  332.80
   2   6   3 822.843 146.593   2-0.23433 0.48959 0.14203 0.45497 0.96173-0.74384  0 135.25 191.81   11.74 135.02 191.95   11.79
   2   6   3 589.009 203.488   2 0.03123 0.22402 0.65465-0.05745-0.75529 0.97289  0 311.19 461.11  241.51 311.14 460.98  241.06
  -2  -6  -4 -63.201 132.075   1-0.46565 0.21021 0.19567-0.79252-0.86306 0.57248  0 128.30 329.85   32.48 128.32 329.88   32.73
  -2  -6  -4 198.278 203.787   2 0.11852-0.37377 0.00810-0.60530-0.99292 0.70278  0 278.25  50.24  200.27 278.19  50.28  200.46
  -2  -6   4 -49.348 122.121   1-0.69751 0.44204-0.41106-0.18580-0.58695 0.87754  0 115.99 250.32   74.42 115.76 250.41   74.02
  -2  -6   4 170.953 152.898   2 0.11059-0.36594-0.77380 0.17624-0.62371 0.91380  0 245.08  61.44  149.47 245.35  61.68  149.22
  -2   6  -4  19.509 138.097   2-0.22746-0.02780 0.67021-0.07292 0.70646-0.99695  0 249.44  59.77  336.89 249.48  60.07  337.29
  -2   6   4  66.451 145.641   2-0.21540-0.03986-0.13872 0.73572 0.96662-0.67611  0 220.68  74.56   27.58 220.63  74.52   27.97
  -2   6   4-115.296 245.329   2 0.00813-0.26338 0.74898-0.15178-0.66254 0.95268  0 485.78 422.16  248.41 485.25 421.76  248.76
   2  -6  -4 137.430  79.657   1-0.70168 0.95716-0.45878-0.13808-0.54512 0.25453  0 228.88 446.04   77.48 229.06 446.17   77.66
   2  -6  -4 129.447 124.855   1-0.09911 0.35480-0.77172 0.17490 0.62819-0.91844  0 381.57 470.52  163.06 381.41 470.42  162.95
   2  -6  -4-252.448 224.699   2-0.10808 0.36339-0.77346 0.17629 0.62456-0.91481  0 380.72 471.14   70.59 380.35 470.56   70.75
   2  -6  -4 170.614 141.871   2 0.11109 0.14416 0.10402-0.70122-0.98835 0.69822  0 152.39 138.64  206.11 152.16 138.86  205.97
   2  -6   4 -14.015 115.634   1-0.63135 0.88711-0.76266 0.16550-0.14052 0.43087  0 136.99 351.20  108.19 137.38 351.17  107.25
   2  -6   4 262.326 221.332   2-0.22328 0.47854-0.04541-0.55159 0.97369-0.68319  0 343.12 474.13   22.49 343.37 474.47   22.59
   2  -6   4  -4.208 125.435   2 0.11820 0.13715-0.71050 0.11362-0.69370 0.98401  0 137.49 164.33  154.31 137.08 164.43  154.72
   2   6  -4  78.066 228.075   2 0.12539 0.12996-0.10957 0.70646-0.98604 0.69572  0 348.97 474.42  193.73 349.11 474.04  193.73
   2   6  -4  54.346 130.210   2-0.21285 0.46811 0.79265-0.19536 0.57131-0.86181  0 138.85 160.84  326.81 138.92 160.88  326.73
   2   6   4  93.467 116.522   2-0.22951 0.48477 0.04886 0.54814 0.97208-0.68157  0 126.63 189.35   16.98 126.48 189.28   17.18
   2   6   4  24.353 195.586   2 0.00943 0.24582 0.74412-0.14692-0.66798 0.95812  0 311.21 472.30  248.07 310.95 472.95  248.34
  -2  -6  -5 307.319 152.360   1-0.43146 0.17601 0.24878-0.84563-0.86715 0.50392  0 120.61 341.95   28.99 120.55 341.89   29.10
  -2  -6  -5 188.811 234.898   2 0.11234-0.36759 0.08969-0.68689-0.98961 0.62694  0 276.12  35.42  205.49 276.14  35.65  205.14
  -2  -6   5 358.793 140.275   1-0.70269 0.44721-0.48160-0.11527-0.52373 0.88697  0 105.18 240.26   79.28 105.05 240.20   79.45
  -2  -6   5 196.588 162.883   2 0.10073-0.35607-0.83483 0.23727-0.54122 0.90383  0 234.75  51.92  143.63 234.62  51.39  143.35
  -2   6  -5 135.395 158.628   2-0.21895-0.03631 0.74968-0.15238 0.62454-0.98765  0 246.47  46.36  330.92 246.52  46.10  330.69
  -2   6   5 156.896 168.271   2-0.20866-0.04660-0.20709 0.80409 0.95581-0.59267  0 209.95  65.47   32.01 209.95  65.44   31.95
  -2   6   5 296.989 294.231   2-0.01085-0.24443 0.81263-0.21515-0.58268 0.94550  0 494.82 440.78  254.87 494.60 440.52  254.73
   2  -6  -5 174.615  77.461   1-0.69582 0.95130-0.39737-0.19949-0.59827 0.23503  0 235.10 465.20   73.53 234.69 464.61   73.00
   2  -6  -5  37.397 126.759   1-0.29126 0.54701-0.85236 0.25521 0.43434-0.79728  0 373.90 489.19  146.42 374.27 489.00  146.60
   2  -6  -5 139.146 268.299   2-0.08980 0.34511-0.83323 0.23606 0.54558-0.90839  0 393.52 486.08   76.49 393.33 485.90   76.49
   2  -6  -5 257.609 155.790   2 0.10455 0.15070 0.17585-0.77306-0.97885 0.61618  0 145.58 126.72  209.84 145.90 126.83  210.14
   2  -6   5 223.425 139.929   1-0.61372 0.86947-0.78386 0.18671-0.09441 0.45734  0 120.88 342.58  110.43 120.74 342.52  110.33
   2  -6   5 154.709 245.796   2-0.22852 0.48378 0.03066-0.62766 0.97306-0.60992  0 345.32 490.68   18.61 345.42 490.92   18.22
   2  -6   5 113.563 141.146   2 0.10881 0.14654-0.78609 0.18853-0.60845 0.97107  0 126.41 159.27  148.59 126.48 159.32  148.10
   2   6  -5 248.494 263.139   2 0.12901 0.12634-0.18422 0.78110-0.97438 0.61149  0 360.74 490.10  189.67 361.06 490.06  189.40
   2   6  -5 136.669 132.876   2-0.20281 0.45807 0.84796-0.25067 0.48972-0.85284  0 132.02 149.01  321.07 131.91 149.03  320.98
   2   6   5 304.759 142.723   2-0.22417 0.47943-0.03309 0.63009 0.97399-0.61085  0 116.01 185.24   21.56 115.74 185.05   21.89
   2   6   5 257.423 225.947   2-0.01258 0.26786 0.81801-0.22054-0.57506 0.93788  0 311.89 488.33  254.95 311.63 488.69  255.27
  -2  -6  -6  2025.0   248.3   1-0.40074 0.14530 0.29318-0.89003-0.86802 0.43214  0 110.64 355.08   25.96 110.49 355.08   26.02
  -2  -6  -6  2190.9   324.4   2 0.10630-0.36155 0.15822-0.75542-0.98167 0.54646  0 273.02  16.92  209.33 272.90  17.41  209.12
  -2  -6   6  1657.9   222.6   1-0.70161 0.44614-0.54617-0.05069-0.45764 0.89353  0  92.01 229.16   84.78  92.08 229.35   84.74
  -2  -6   6  1896.1   262.0   2 0.08984-0.34518-0.88410 0.28654-0.45858 0.89372  0 222.31  38.88  137.72 222.28  38.51  137.83
  -2   6  -6  1646.7   235.3   2-0.20899-0.04627 0.81600-0.21871 0.53895-0.97469  0 242.35  28.91  324.53 242.18  28.84  324.39
  -2   6   6  1762.4   256.8   2-0.20253-0.05273-0.26302 0.86002 0.94330-0.50753  0 197.33  53.80   35.39 197.51  53.94   35.26
   2  -6  -6  1175.1   130.5   1-0.68517 0.94064-0.33211-0.26475-0.64826 0.21238  0 239.04 486.48   68.81 238.37 485.81   68.25
   2  -6  -6  2035.7   266.4   2 0.09829 0.15696 0.23499-0.83219-0.96702 0.53181  0 137.91 112.51  213.71 137.71 112.62  213.60
   2  -6   6  1460.1   207.3   1-0.59476 0.85052-0.80242 0.20527-0.04872 0.48424  0 102.54 334.26  113.40 102.50 334.08  113.35
   2  -6   6  1618.8   230.3   2 0.09800 0.15735-0.84854 0.25098-0.51998 0.95512  0 113.73 152.74  142.01 113.60 152.70  141.89
   2   6  -6  1559.2   224.1   2-0.19198 0.44724 0.89228-0.29499 0.40862-0.84437  0 123.22 134.93  315.71 122.93 135.17  315.59
   2   6   6  2035.1   223.0   2-0.21860 0.47386-0.10274 0.69974 0.97039-0.53463  0 102.74 179.20   25.69 102.67 179.28   25.90
  -2  -6  -7 232.368 165.613   1-0.37476 0.11932 0.32914-0.92599-0.86673 0.35820  0  97.95 369.54   23.39  97.94 369.86   23.48
  -2  -6   7 181.302 155.169   1-0.69494 0.43946-0.60432 0.00746-0.38969 0.89823  0  76.85 217.83   89.41  76.69 217.61   89.88
  -2  -6   7  37.766 220.268   2 0.07845-0.33380-0.92285 0.32529-0.37707 0.88474  0 208.13  22.42  132.50 208.06  22.75  132.65
  -2   6  -7 211.280 203.945   2-0.19794-0.05732 0.86973-0.27243 0.45210-0.96047  2 236.53   8.32  318.57 236.46   7.74  318.44
  -2   6   7 110.558 217.035   2-0.19723-0.05803-0.30751 0.90451 0.93088-0.42249  0 182.85  39.80   37.42 183.04  39.74   37.93
   2  -6  -7 128.953 196.780   2 0.09279 0.16246 0.28243-0.87963-0.95479 0.44705  0 127.48  96.07  216.60 127.43  95.92  216.43
   2  -6   7 125.528 160.045   1-0.57444 0.83019-0.81854 0.22139-0.00352 0.51163  0  81.81 325.66  116.64  82.24 325.70  116.33
   2  -6   7 228.799 194.849   2 0.08605 0.16930-0.89829 0.30073-0.43090 0.93856  0  98.55 144.38  136.51  98.20 144.37  136.05
   2   6  -7  73.548 185.962   2-0.18085 0.43611 0.92685-0.32955 0.32902-0.83738  0 111.56 119.00  310.40 111.75 119.10  310.52
   2   6   7 130.337 155.287   2-0.21340 0.46866-0.15995 0.75695 0.96378-0.45539  0  86.65 171.74   28.97  86.94 172.07   29.20
  -2  -6  -8 26682.8   650.3   1-0.35370 0.09825 0.35713-0.95398-0.86450 0.28332  0  82.87 386.90   21.45  82.64 386.73   21.47
  -2  -6   8 20798.0   614.0   1-0.68304 0.42757-0.65613 0.05927-0.32085 0.90204  0  58.80 204.63   94.76  58.46 204.61   94.86
  -2   6   8 24561.1   722.0   2-0.19270-0.06256-0.34178 0.93878 0.91981-0.33879  0 166.25  22.30   39.87 166.19  22.50   40.01
   2  -6  -8 23829.9   690.3   2 0.08827 0.16698 0.31942-0.91662-0.94349 0.36322  0 115.20  76.06  218.69 114.70  76.29  218.66
   2  -6   8 19124.1   598.6   1-0.55276 0.80851-0.83232 0.23517 0.04124 0.53945  0  59.70 317.21  118.87  59.49 317.20  119.29
   2  -6   8 19773.7   597.5   2 0.07352 0.18182-0.93650 0.33893-0.34288 0.92307  0  80.05 134.49  130.37  79.82 134.32  130.53
   2   6  -8 20168.9   638.4   2-0.16919 0.42445 0.95290-0.35561 0.25171-0.83270  0  98.45 100.30  306.01  98.01 100.38  305.75
   2   6   8 22118.9   607.3   2-0.20884 0.46410-0.20544 0.80244 0.95613-0.37511  0  68.54 163.41   32.01  68.17 163.37   31.86
  -2  -6  -9 188.989 235.657   1-0.33758 0.08214 0.37775-0.97460-0.86217 0.20835  0  64.24 406.63   19.64  64.16 406.35   19.97
  -2  -6   9  28.496 200.561   1-0.66667 0.41091-0.70131 0.10416-0.25242 0.90571  0  37.60 190.12  100.16  37.02 190.03   99.66
   2  -6  -9 318.051 281.385   2 0.08469 0.17056 0.34718-0.94438-0.93397 0.28116  0  99.72  53.08  220.51  99.01  53.02  220.36
   2  -6   9 374.975 201.126   1-0.52971 0.78546-0.84384 0.24669 0.08566 0.56762  0  33.19 308.66  123.14  33.57 308.39  122.22
   2  -6   9  34.406 221.982   2 0.06079 0.19455-0.96451 0.36695-0.25696 0.90967  0  57.24 122.19  125.16  57.79 122.28  125.34
   2   6  -9 350.537 247.304   2-0.15749 0.41275 0.97157-0.37428 0.17678-0.83040  0  81.02  78.19  302.18  81.16  78.43  301.21
   2   6   9 247.028 210.771   2-0.20511 0.46037-0.24022 0.83722 0.94880-0.29515  0  46.14 152.97   34.11  45.72 153.07   33.91
  -2  -7   0   3.162 127.814   1-0.63819 0.38272-0.16089-0.53545-0.75288 0.75288  0 109.88 303.93   56.44 109.93 304.30   56.45
  -2  -7   0  87.132 226.893   2 0.13266-0.38800-0.44364-0.25272-0.88633 0.88633  0 257.42  43.43  174.08 257.20  42.86  173.64
  -2   7   0  48.128 220.553   1-0.44196 0.18652 0.23288 0.46344-0.86628 0.86628  0 468.07  59.75   31.45 468.39  59.80   30.19
  -2   7   0 237.272 163.079   2-0.23883-0.01643 0.30750 0.38901 0.92109-0.92109  0 225.98  56.96    2.44 226.06  56.92    2.00
   2  -7   0 194.595 128.661   1-0.68572 0.94119-0.64661-0.04973-0.33420 0.33420  0 167.62 413.52   93.44 167.48 413.77   93.91
   2  -7   0-144.727 245.832   2-0.17570 0.43096-0.45942-0.23708 0.87067-0.87067  0 372.10 488.48   47.49 371.90 488.24   47.39
   2  -7   0 180.787 156.338   2 0.13277 0.12257-0.34631-0.35005-0.92868 0.92868  0 137.36 141.23  179.51 137.29 141.33  179.73
   2   7   0 152.670 238.158   2 0.08226 0.17299 0.36499 0.33175-0.92737 0.92737  0 333.47 489.61  221.48 333.89 489.61  221.45
   2   7   0  34.738 132.974   2-0.23687 0.49214 0.48190 0.21478 0.84360-0.84360  0 123.30 168.70  351.11 122.99 168.82  350.65
  -2  -7  -1  5479.4   317.8   1-0.61251 0.35704-0.09220-0.60414-0.78507 0.71242  0 111.26 314.72   51.75 111.05 314.64   51.86
  -2  -7  -1  4931.9   410.0   2 0.13281-0.38815-0.35086-0.34550-0.92696 0.85438  0 260.38  39.79  179.47 260.68  39.87  179.45
  -2  -7   1  4933.4   307.3   1-0.66047 0.40499-0.23105-0.46529-0.71442 0.78707  0 106.81 294.37   61.25 106.75 294.26   61.20
  -2  -7   1  4608.7   333.4   2 0.13024-0.38559-0.53363-0.16273-0.83563 0.90821  0 252.37  43.14  167.72 252.27  43.06  167.72
  -2   7  -1  5056.3   408.6   1-0.50851 0.25306 0.12336 0.57297-0.85217 0.77953  0 488.36  69.91   37.56 488.29  70.02   37.59
  -2   7  -1  4575.1   339.9   2-0.23839-0.01689 0.40365 0.29304 0.88331-0.95595  0 228.98  53.54  356.02 228.89  53.79  355.73
  -2   7   1  5139.4   357.1   1-0.35146 0.09602 0.36004 0.33629-0.86420 0.93685  0 450.74  47.83   21.17 450.89  48.24   21.26
  -2   7   1  4591.5   329.1   2-0.23687-0.01839 0.21316 0.48334 0.94787-0.87524  0 221.73  57.51    7.60 221.66  57.62    7.63
   2  -7  -1  3633.5   233.1   1-0.69322 0.94869-0.61373-0.08261-0.37786 0.30521  0 178.35 426.72   90.75 178.57 426.70   90.75
   2  -7  -1  4040.6   471.1   2-0.16051 0.41582-0.54353-0.15316 0.82390-0.89646  0 377.80 489.63   53.02 377.62 489.48   52.99
   2  -7  -1  5140.0   321.5   2 0.13109 0.12426-0.25074-0.44562-0.95914 0.88656  0 138.30 137.08  185.43 138.34 137.15  185.50
   2  -7   1  3802.8   261.6   1-0.67626 0.93173-0.67718-0.01916-0.29000 0.36265  0 155.28 402.26   97.19 155.40 402.07   97.03
   2  -7   1  3961.0   464.5   2-0.18848 0.44374-0.37316-0.32334 0.90842-0.83579  0 368.16 490.80   42.02 367.98 490.58   41.94
   2  -7   1  4922.9   334.5   2 0.13267 0.12267-0.44256-0.25380-0.88687 0.95945  0 134.39 143.67  173.71 134.38 143.62  173.71
   2   7  -1  4883.4   448.4   2 0.09494 0.16031 0.26420 0.43253-0.95978 0.88725  0 339.68 491.57  215.00 339.56 491.59  215.34
   2   7  -1  4515.9   311.0   2-0.23445 0.48971 0.56712 0.12972 0.78956-0.86218  0 123.89 164.26  345.00 123.44 164.39  344.96
   2   7   1  4493.4   441.4   2 0.06701 0.18824 0.46619 0.23055-0.88215 0.95468  0 329.44 491.51  227.78 329.56 491.20  227.86
   2   7   1  4729.9   295.6   2-0.23844 0.49372 0.39371 0.30298 0.88777-0.81513  0 120.42 171.48  356.40 120.39 171.56  356.35
  -2  -7  -2  9697.6   397.0   1-0.58460 0.32915-0.02652-0.66981-0.81089 0.66559  0 110.28 325.62   47.51 110.10 325.47   47.51
  -2  -7  -2  9109.5   498.9   2 0.13129-0.38664-0.25879-0.43757-0.95697 0.81181  0 262.56  33.71  185.00 262.81  33.99  185.02
  -2  -7   2  9115.2   397.1   1-0.67856 0.42309-0.30105-0.39529-0.67002 0.81532  0 101.70 284.42   65.99 101.55 284.35   66.05
  -2  -7   2  9259.1   419.2   2 0.12578-0.38112-0.61801-0.07835-0.77604 0.92120  0 245.93  40.47  161.94 245.93  40.49  161.80
  -2   7  -2  8863.0   404.2   2-0.23642-0.01886 0.49765 0.19903 0.83453-0.97981  0 230.39  47.61  349.93 230.27  47.89  349.59
  -2   7   2 10661.7   395.9   1-0.23415-0.02130 0.49845 0.19788-0.83470 0.97999  0 435.35  34.48   10.74 435.50  34.94   10.72
  -2   7   2 10271.0   442.5   2-0.23343-0.02183 0.12348 0.57303 0.96450-0.81925  0 215.71  55.72   13.03 215.68  55.83   12.87
   2  -7  -2  6830.7   268.0   1-0.69863 0.95411-0.57873-0.11762-0.42070 0.27540  0 188.58 441.34   87.61 188.69 441.12   87.57
   2  -7  -2  7901.9   513.9   2-0.14482 0.40012-0.62337-0.07333 0.76840-0.91352  0 384.93 494.37   58.59 385.12 494.40   58.64
   2  -7  -2  9310.4   406.9   2 0.12783 0.12751-0.15919-0.53717-0.97894 0.83378  0 137.49 131.01  190.79 137.49 131.03  190.86
   2  -7   2  7358.8   333.4   1-0.66476 0.92052-0.70559 0.00891-0.24543 0.39060  0 142.07 391.49  100.11 142.20 391.51  100.14
   2  -7   2  9057.0   531.2   2-0.19961 0.45487-0.28800-0.40850 0.93660-0.79134  0 365.76 496.88   37.00 365.63 496.60   36.76
   2  -7   2  9192.8   395.6   2 0.13014 0.12520-0.53625-0.16012-0.83397 0.97913  0 129.47 144.13  167.52 129.53 144.07  167.54
   2   7  -2  8695.4   508.5   2 0.10539 0.14986 0.16752 0.52921-0.98022 0.83515  0 346.72 497.70  209.59 346.72 497.19  209.65
   2   7  -2  8732.2   379.1   2-0.22944 0.48470 0.64609 0.05075 0.72796-0.87321  0 122.41 157.85  339.25 122.08 158.09  339.16
   2   7   2  9646.6   386.2   2-0.23881 0.49407 0.30546 0.39104 0.92177-0.77652  0 116.05 172.38    2.02 115.72 172.43    2.12
   2   7   2  8479.3   479.4   2 0.04999 0.20526 0.56359 0.13314-0.82454 0.96961  0 326.55 496.66  234.41 326.57 496.50  234.42
  -2  -7  -3  6879.1   357.1   1-0.55556 0.30011 0.03470-0.73102-0.83075 0.61281  0 107.22 337.08   43.44 107.05 336.94   43.46
  -2  -7  -3  6854.1   480.5   2 0.12832-0.38366-0.17062-0.52574-0.97695 0.75921  0 263.36  24.71  190.30 263.57  24.99  190.20
  -2  -7   3  5679.5   334.7   1-0.69182 0.43635-0.36949-0.32685-0.62037 0.83831  0  94.60 274.49   70.67  94.27 274.43   70.94
  -2  -7   3  5513.9   380.5   2 0.11976-0.37510-0.69471-0.00165-0.70925 0.92698  0 238.09  35.12  155.98 238.12  35.27  155.99
  -2   7  -3  5629.8   369.7   2-0.23345-0.02181 0.58626 0.11058 0.77576-0.99363  0 230.21  38.84  343.69 229.90  39.15  343.59
  -2   7   3  6392.2   387.3   2-0.22915-0.02611 0.04089 0.65561 0.97253-0.75465  0 208.21  51.52   17.60 208.10  51.57   17.63
   2  -7  -3  4371.2   223.4   1-0.70187 0.95735-0.54198-0.15436-0.46220 0.24426  0 197.74 457.64   84.30 197.86 457.37   84.39
   2  -7  -3  5577.0   519.8   2-0.12821 0.38352-0.69666-0.00003 0.70585-0.92353  2 394.38 502.69   63.92 394.62 503.04   64.25
   2  -7  -3  6258.0   374.3   2 0.12349 0.13185-0.07434-0.62202-0.98956 0.77182  0 134.87 122.82  195.96 134.81 122.93  195.75
   2  -7   3  4061.1   301.0   1-0.65175 0.90750-0.73136 0.03468-0.20086 0.41862  0 127.88 381.53  102.96 127.79 381.60  103.18
   2  -7   3  5132.4   333.5   2 0.12539 0.12995-0.62418-0.07218-0.77115 0.98889  0 122.77 142.64  161.01 122.66 142.68  161.36
   2   7  -3  5717.0   338.7   2-0.22276 0.47802 0.71726-0.02042 0.66024-0.87811  0 119.14 149.70  333.61 118.77 149.91  333.48
   2   7   3  6098.5   335.2   2-0.23715 0.49241 0.22001 0.47649 0.94623-0.72835  0 109.09 171.82    7.00 108.97 171.79    7.22
  -2  -7  -4  3427.4   298.7   1-0.52685 0.27140 0.09032-0.78664-0.84515 0.55456  0 101.95 349.33   40.17 101.83 349.29   39.78
  -2  -7  -4  3507.1   377.4   2 0.12428-0.37963-0.08909-0.60728-0.98824 0.69792  0 262.98  12.72  194.71 263.03  12.74  194.91
  -2  -7   4  3286.0   291.6   1-0.69994 0.44447-0.43520-0.26115-0.56629 0.85689  0  85.16 264.45   75.81  84.83 264.29   75.84
  -2  -7   4  3029.3   337.2   2 0.11206-0.36741-0.76234 0.06598-0.63740 0.92772  0 228.69  27.47  150.21 228.76  27.31  150.37
  -2   7  -4  2918.0   335.2   2-0.22768-0.02758 0.66776 0.02908 0.70870-0.99920  0 228.56  27.36  337.55 228.35  27.42  337.48
  -2   7   4  3809.3   366.7   2-0.22419-0.03107-0.03280 0.72930 0.97399-0.68348  0 198.83  44.76   21.64 198.80  44.84   21.87
   2  -7  -4  2495.1   197.5   1-0.70308 0.95856-0.50446-0.19188-0.50119 0.21060  0 206.02 476.17   81.27 206.13 475.98   81.29
   2  -7  -4  3245.4   344.2   2 0.11899 0.13626 0.00152-0.69826-0.99289 0.70276  0 130.09 112.61  199.96 130.10 112.69  200.08
   2  -7   4  2289.6   283.9   1-0.63703 0.89278-0.75481 0.05813-0.15637 0.44672  0 112.30 372.19  106.21 111.99 372.28  106.19
   2  -7   4  2770.1   304.7   2 0.11887 0.13648-0.70388 0.00752-0.70030 0.99061  0 113.62 139.61  154.96 113.70 139.51  155.25
   2   7  -4  3042.9   308.6   2-0.21486 0.47012 0.77964-0.08280 0.58821-0.87871  0 113.73 139.79  327.78 113.49 139.87  327.95
   2   7   4  3146.3   293.8   2-0.23425 0.48951 0.14021 0.55629 0.96201-0.67150  0 100.21 169.58   11.67  99.99 169.52   11.90
  -2  -7  -5 31657.6   682.6   1-0.49941 0.24396 0.13949-0.83581-0.85506 0.49183  0  94.45 363.02   36.52  94.26 362.82   36.51
  -2  -7   5 26899.8   657.4   1-0.70306 0.44759-0.49710-0.19924-0.50852 0.87176  0  73.30 253.80   80.69  73.11 253.73   80.69
  -2  -7   5 25232.2   682.8   2 0.10338-0.35873-0.82018 0.12303-0.56268 0.92530  0 217.64  16.39  144.72 217.62  16.26  144.83
  -2   7  -5 26833.7   674.5   2-0.22015-0.03511 0.74020-0.04336 0.63532-0.99844  0 225.73  11.97  331.63 225.30  12.36  331.52
  -2   7   5 27612.3   701.1   2-0.21910-0.03616-0.09680 0.79330 0.97089-0.60775  0 187.76  35.32   25.54 187.69  35.46   25.55
   2  -7  -5 21396.3   363.1   1-0.70212 0.95759-0.46695-0.22940-0.53758 0.17434  0 213.52 497.90   78.29 213.65 497.50   78.30
   2  -7  -5 29913.3   710.8   2 0.11404 0.14121 0.06818-0.76491-0.99113 0.62846  0 124.01  99.99  204.00 123.50 100.18  203.91
   2  -7   5 22850.8   602.1   1-0.62070 0.87645-0.77601 0.07933-0.11197 0.47491  0  94.70 363.55  108.85  94.51 363.48  109.16
   2  -7   5 25867.5   651.4   2 0.11061 0.14473-0.77364 0.07649-0.62389 0.98651  0 102.69 134.62  148.83 102.42 134.41  149.24
   2   7  -5 25764.4   641.1   2-0.20591 0.46117 0.83289-0.13605 0.51370-0.87682  0 106.40 127.40  322.81 106.03 127.77  322.62
   2   7   5 28556.6   646.6   2-0.23061 0.48587 0.06813 0.62837 0.97066-0.60752  0  88.93 165.62   15.76  88.62 165.64   16.07
  -2  -7  -6  1323.4   231.3   1-0.47424 0.21879 0.18176-0.87809-0.86143 0.42555  0  84.16 378.03   33.58  84.22 377.91   33.67
  -2  -7   6  1168.4   227.4   1-0.70099 0.44552-0.55479-0.14155-0.44812 0.88401  0  59.09 242.60   85.32  58.86 242.58   85.48
  -2   7   6  1314.2   294.2   2-0.21426-0.04100-0.15096 0.84746 0.96504-0.52928  0 174.59  23.88   28.63 174.49  23.28   28.68
   2  -7  -6  1761.6   293.5   2 0.10930 0.14595 0.12496-0.82170-0.98612 0.55092  0 114.52  84.76  206.98 114.73  85.11  207.18
   2  -7   6  1372.3   245.8   1-0.60282 0.85857-0.79500 0.09832-0.06765 0.50317  0  75.17 354.97  111.87  75.05 355.04  112.10
   2  -7   6 997.476 230.013   2 0.10096 0.15438-0.83336 0.13620-0.54344 0.97858  0  88.76 127.76  143.22  88.59 127.71  143.49
   2   7  -6  1391.4   256.7   2-0.19607 0.45133 0.87724-0.18040 0.43819-0.87393  0  96.74 113.44  317.68  96.30 113.38  317.51
   2   7   6  1291.6   227.4   2-0.22683 0.48209 0.00514 0.69136 0.97392-0.53816  0  75.01 159.99   19.61  74.56 160.19   19.68
  -2  -7  -7-400.857 183.539   1-0.45223 0.19679 0.21698-0.91331-0.86510 0.35658  0  71.05 395.27   31.34  71.42 395.07   31.28
  -2  -7   7  -9.522 177.979   1-0.69436 0.43889-0.60759-0.08875-0.38561 0.89415  0  41.35 230.44   90.55  41.79 230.52   90.18
  -2   7   7 -39.720 271.371   2-0.20987-0.04539-0.19559 0.89209 0.95797-0.44958  2 158.70   8.07   31.08 158.87   7.99   31.28
   2  -7  -7-249.838 227.587   2 0.10493 0.15032 0.17210-0.86883-0.97948 0.47174  0 103.54  67.22  210.02 103.45  67.08  209.92
   2  -7   7 488.538 226.813   1-0.58342 0.83917-0.81183 0.11515-0.02342 0.53153  0  53.07 346.88  115.45  53.13 346.80  115.03
   2  -7   7  -2.574 209.473   2 0.09016 0.16518-0.88283 0.18567-0.46096 0.96863  0  71.89 119.16  137.52  71.81 119.01  137.99
   2   7  -7 257.043 223.124   2-0.18565 0.44091 0.91322-0.21638 0.36272-0.87108  0  84.70  96.77  313.01  83.98  96.41  312.64
   2   7   7-141.899 191.602   2-0.22306 0.47832-0.04834 0.74484 0.97360-0.46521  0  57.64 152.94   23.00  57.51 153.15   22.76
  -2  -7  -8  4556.1   407.0   1-0.43384 0.17839 0.24521-0.94154-0.86698 0.28581  0  55.41 415.36   29.38  55.47 414.94   29.35
  -2  -7   8  3928.9   390.3   1-0.68323 0.42776-0.65548-0.04087-0.32178 0.90297  0  21.73 217.34   94.72  21.28 217.14   94.79
   2  -7  -8  3330.0   394.3   2 0.10099 0.15426 0.21013-0.90687-0.97244 0.39217  0  89.17  45.05  211.94  89.21  45.53  212.14
   2  -7   8  3537.5   427.8   1-0.56274 0.81850-0.82636 0.12968 0.02102 0.55968  0  28.09 338.73  117.62  28.10 338.60  117.95
   2  -7   8  3509.0   437.9   2 0.07857 0.17678-0.92250 0.22534-0.37792 0.95811  0  52.12 108.55  132.56  51.50 108.30  132.70
   2   7  -8  3489.7   381.3   2-0.17473 0.42999 0.94154-0.24470 0.28805-0.86904  0  68.67  76.15  307.68  68.52  76.31  307.98
   2   7   8  3188.8   329.9   2-0.21954 0.47480-0.09236 0.78887 0.97122-0.39020  0  36.82 144.37   25.22  36.82 144.40   25.30
  -2  -8   0 10082.7   462.1   1-0.65937 0.40389-0.22725-0.56857-0.71666 0.71666  0  76.86 323.02   60.73  76.67 322.90   60.94
  -2   8   0  9957.3   501.2   2-0.23858-0.01670 0.36254 0.43368 0.90091-0.90091  0 201.08  19.84  358.31 201.14  20.25  358.30
   2  -8   0  8514.1   366.3   1-0.68249 0.93796-0.65801-0.13781-0.31818 0.31818  0 139.39 443.21   95.06 139.56 443.06   95.05
   2  -8   0  9355.0   461.8   2 0.13306 0.12229-0.39619-0.39965-0.90847 0.90847  0 110.69 111.78  176.68 110.38 111.76  176.64
   2   8   0  9665.3   429.8   2-0.23663 0.49189 0.51495 0.28144 0.82392-0.82391  0  92.61 145.11  348.62  92.21 145.38  348.54
  -2  -8  -1 250.109 179.652   1-0.64077 0.38530-0.16815-0.62767-0.74909 0.67645  0  78.48 334.14   56.51  78.27 334.19   56.93
  -2  -8   1 178.515 159.379   1-0.67538 0.41991-0.28742-0.50840-0.67916 0.75180  0  72.21 312.02   66.13  72.90 312.06   65.09
  -2   8  -1 320.777 225.110   2-0.23790-0.01738 0.44484 0.35137 0.86343-0.93607  0 204.04  16.43  353.11 204.09  16.47  353.09
  -2   8   1 203.203 228.898   2-0.23858-0.01668 0.28092 0.51508 0.92960-0.85698  0 196.59  20.72    3.43 196.58  21.18    3.60
   2  -8  -1 167.855 154.755   1-0.68955 0.94502-0.63117-0.16465-0.35517 0.28252  0 151.07 457.71   92.49 151.10 457.54   92.40
   2  -8  -1 343.867 192.375   2 0.13232 0.12302-0.31400-0.48184-0.94016 0.86758  0 111.68 107.31  181.45 111.53 107.33  181.70
   2  -8   1 195.532 169.669   1-0.67373 0.92920-0.68404-0.11178-0.27961 0.35226  0 127.62 430.56   97.47 127.00 430.15   97.76
   2  -8   1 360.828 198.990   2 0.13194 0.12341-0.47901-0.31684-0.86784 0.94042  0 106.69 114.09  171.48 107.18 114.23  171.35
   2   8  -1 133.076 184.487   2-0.23337 0.48863 0.58785 0.20854 0.77458-0.84720  0  93.16 140.59  343.49  92.89 140.64  343.46
   2   8   1 218.396 177.448   2-0.23798 0.49326 0.43963 0.35658 0.86608-0.79344  0  90.16 148.27  353.60  89.58 148.19  353.42
  -2  -8  -2  5931.6   388.2   1-0.62015 0.36468-0.11132-0.68450-0.77654 0.63125  0  77.72 346.33   52.94  77.64 346.16   53.14
  -2  -8   2  5759.6   361.4   1-0.68820 0.43273-0.34753-0.44829-0.63687 0.78216  0  67.09 301.59   69.37  66.98 301.48   69.36
  -2   8  -2  5903.1   443.0   2-0.23624-0.01902 0.52568 0.27071 0.81722-0.96247  2 205.42   9.73  347.70 205.16   9.81  347.82
  -2   8   2  5310.6   436.9   2-0.23656-0.01870 0.20293 0.59307 0.95019-0.80493  0 190.30  19.27    8.14 190.32  19.46    8.23
   2  -8  -2  5002.9   297.7   1-0.69498 0.95045-0.60408-0.19174-0.39000 0.24470  0 161.56 473.98   89.79 161.73 473.99   89.86
   2  -8  -2  5574.4   400.8   2 0.13068 0.12467-0.23450-0.56135-0.96329 0.81814  0 110.77 100.78  186.42 110.65 100.81  186.45
   2  -8   2  4278.1   316.6   1-0.66315 0.91890-0.70911-0.08710-0.23959 0.38476  0 113.27 418.86  100.50 113.17 418.76  100.55
   2  -8   2  5585.6   415.2   2 0.12908 0.12627-0.55998-0.23586-0.81839 0.96355  0 102.20 114.84  166.01 101.90 114.78  165.91
   2   8  -2  5379.3   376.9   2-0.22862 0.48388 0.65670 0.13969 0.71867-0.86392  0  91.57 133.85  338.49  91.42 134.02  338.34
   2   8   2  5858.9   384.4   2-0.23859 0.49387 0.36454 0.43167 0.90010-0.75482  0  84.56 149.40  357.97  84.53 149.43  358.18
  -2  -8  -3  7069.9   400.9   1-0.59838 0.34291-0.05782-0.73800-0.79912 0.58118  0  74.97 359.14   49.58  74.80 358.99   49.59
  -2  -8   3  6802.7   398.1   1-0.69700 0.44153-0.40674-0.38908-0.59055 0.80850  0  58.94 290.96   73.65  58.74 290.97   73.69
  -2   8   3  6746.3   472.6   2-0.23381-0.02145 0.13003 0.66597 0.96355-0.74567  0 182.26  15.04   12.47 182.25  15.05   12.49
   2  -8  -3  4805.5   285.7   1-0.69878 0.95426-0.57746-0.21836-0.42218 0.20424  0 171.59 493.07   87.46 171.65 492.86   87.46
   2  -8  -3  6324.6   436.7   2 0.12786 0.12748-0.15985-0.63600-0.97883 0.76109  0 108.05  92.18  191.07 107.70  92.11  190.82
   2  -8   3  5240.8   368.6   1-0.65111 0.90686-0.73248-0.06373-0.19882 0.41658  0  98.15 407.99  103.23  97.94 408.24  103.32
   2  -8   3  5461.4   407.6   2 0.12452 0.13082-0.63688-0.15896-0.76084 0.97858  0  94.55 113.44  160.09  94.40 113.40  160.42
   2   8  -3  6642.4   425.5   2-0.22245 0.47771 0.72003 0.07636 0.65732-0.87519  0  88.11 125.22  333.41  87.79 125.45  333.25
   2   8   3  7239.5   422.6   2-0.23875 0.49401 0.29179 0.50421 0.92621-0.70832  0  77.40 148.82    3.09  77.17 148.85    2.95
  -2  -8  -4 774.065 215.269   1-0.57635 0.32090-0.00856-0.78724-0.81716 0.52657  0  69.55 373.42   46.36  69.57 373.14   46.32
  -2  -8   4 664.084 212.317   1-0.70197 0.44649-0.46394-0.33188-0.54037 0.83096  0  48.39 280.20   78.55  48.14 280.30   78.06
  -2   8   4 581.586 289.342   2-0.23036-0.02490 0.06368 0.73232 0.97102-0.68051  2 172.41   8.15   16.52 172.28   7.81   16.33
   2  -8  -4  70.259 228.794   2 0.12442 0.13093-0.09151-0.70434-0.98800 0.69769  0 102.98  81.46  194.57 102.62  81.10  194.77
   2  -8   4 443.352 216.615   1-0.63740 0.89316-0.75427-0.04193-0.15744 0.44779  0  81.09 398.23  106.41  81.05 398.51  106.11
   2  -8   4 696.753 243.802   2 0.11847 0.13688-0.70785-0.08799-0.69636 0.98667  0  84.56 109.99  154.65  84.56 110.09  154.93
   2   8  -4 364.357 217.333   2-0.21527 0.47053 0.77690 0.01949 0.59167-0.88217  0  81.84 114.96  327.97  81.92 114.89  328.21
   2   8   4  42.075 198.029   2-0.23723 0.49249 0.22294 0.57307 0.94553-0.65502  0  67.16 146.88    7.47  67.29 146.72    7.05
  -2  -8  -5  4070.3   378.9   1-0.55506 0.29962 0.03570-0.83150-0.83104 0.46781  0  61.90 388.93   43.40  61.78 388.83   43.39
  -2  -8   5  3471.3   352.1   1-0.70288 0.44740-0.51846-0.27736-0.48700 0.85024  0  35.03 269.28   82.38  34.86 269.30   82.43
   2  -8  -5  3201.7   368.4   2 0.12086 0.13449-0.03041-0.76543-0.99220 0.62931  0  95.02  67.10  197.99  95.21  67.41  198.28
   2  -8   5  2345.6   306.4   1-0.62207 0.87782-0.77439-0.02182-0.11555 0.47849  0  61.99 389.67  109.22  62.09 389.53  108.92
   2  -8   5  2595.7   328.0   2 0.11092 0.14442-0.77143-0.02532-0.62657 0.98919  0  72.28 105.01  149.36  72.02 104.64  149.44
   2   8  -5  2882.1   329.7   2-0.20710 0.46236 0.82676-0.03036 0.52305-0.88617  0  73.17 101.68  323.44  73.49 101.98  323.26
   2   8   5  3115.9   363.8   2-0.23506 0.49032 0.15975 0.63625 0.95876-0.59563  0  55.22 142.99   10.66  54.68 142.95   10.76
  -2  -8  -6  1295.5   281.3   1-0.53537 0.27992 0.07440-0.87020-0.84133 0.40545  0  51.05 406.91   40.76  51.23 406.61   40.84
  -2  -8   6 594.952 226.765   1-0.69964 0.44417-0.56980-0.22602-0.43108 0.86696  0  19.18 257.89   86.69  18.63 257.69   86.78
   2  -8  -6 870.130 293.951   2 0.11749 0.13776 0.02232-0.81858-0.99282 0.55762  0  84.56  50.35  201.02  85.01  50.70  201.28
   2  -8   6 814.951 248.567   1-0.60515 0.86090-0.79274-0.00347-0.07324 0.50876  0  41.13 380.97  111.39  40.63 381.13  111.73
   2  -8   6  1083.7   299.4   2 0.10212 0.15323-0.82718 0.03043-0.55258 0.98772  0  56.48  97.12  144.28  56.49  97.34  144.12
   2   8  -6 919.926 278.464   2-0.19801 0.45327 0.86943-0.07304 0.45263-0.88837  0  62.60  86.47  318.56  62.34  86.39  318.47
   2   8   6  1110.5   256.3   2-0.23247 0.48773 0.10333 0.69268 0.96710-0.53133  0  38.72 137.41   13.93  38.93 137.44   14.03
  -2  -9   0-181.040 202.338   1-0.67626 0.42078-0.29113-0.60417-0.67670 0.67670  0  36.27 346.17   65.61  36.10 346.05   65.35
   2  -9   0 346.481 219.502   1-0.67629 0.93177-0.67708-0.21822-0.29016 0.29016  0 106.27 481.66   97.19 106.28 481.71   97.02
   2  -9   0-110.783 262.469   2 0.13253 0.12282-0.44628-0.44905-0.88503 0.88503  0  75.96  76.03  173.45  76.25  75.90  173.47
   2   9   0-220.791 217.924   2-0.23521 0.49047 0.55134 0.34459 0.80044-0.80044  0  53.32 117.51  346.53  53.74 117.59  346.06
  -2  -9  -1 22556.4   668.8   1-0.66310 0.40762-0.24031-0.65499-0.70891 0.63626  0  38.20 358.88   61.80  38.15 358.70   61.83
  -2  -9   1 20729.6   668.2   1-0.68735 0.43187-0.34287-0.55243-0.64031 0.71296  0  31.74 334.18   69.17  31.67 334.08   69.02
   2  -9  -1 21321.4   728.2   2 0.13298 0.12237-0.37471-0.52061-0.91756 0.84498  0  77.67  70.92  178.02  77.51  70.98  177.98
   2  -9   1 20750.1   702.1   2 0.13072 0.12462-0.51825-0.37708-0.84518 0.91776  0  72.96  78.64  168.73  72.69  78.65  168.75
   2   9  -1 18707.9   641.1   2-0.23173 0.48699 0.61443 0.28151 0.75417-0.82680  0  54.90 112.04  341.65  54.43 112.44  341.52
   2   9   1 18702.3   635.7   2-0.23674 0.49201 0.48646 0.40928 0.84102-0.76838  0  50.90 120.56  350.49  50.82 120.69  350.34
  -2  -9  -2  1590.2   285.5   1-0.64845 0.39297-0.19127-0.70402-0.73684 0.59154  0  38.05 372.50   58.37  37.72 372.33   58.49
  -2  -9   2  1156.7   264.3   1-0.69549 0.44002-0.39485-0.50044-0.60032 0.74561  0  25.10 322.38   72.58  24.72 322.53   72.81
   2  -9  -2  1141.0   302.8   2 0.13219 0.12315-0.30524-0.59008-0.94305 0.79790  0  75.76  63.29  182.19  76.38  63.72  182.23
   2  -9   2 832.008 256.618   1-0.65793 0.91369-0.71985-0.17588-0.22122 0.36639  0  77.46 454.90  102.36  77.63 454.42  101.80
   2  -9   2  1468.8   310.4   2 0.12759 0.12775-0.58885-0.30648-0.79811 0.94327  0  66.89  79.32  163.61  66.71  79.22  163.90
   2   9  -2  1438.0   289.6   2-0.22706 0.48232 0.67466 0.22128 0.70234-0.84759  0  53.08 105.15  337.06  52.63 105.17  336.95
   2   9   2  1518.7   296.8   2-0.23823 0.49351 0.42205 0.47369 0.87471-0.72943  0  45.11 122.17  354.51  45.13 122.14  354.56
  -3   0   0 103.572  50.785   1-0.19158-0.19158 0.54264-0.54264-0.81782 0.81782  0 235.27 191.48    7.30 235.37 191.48    7.07
  -3   0   0  43.258  66.292   1-0.19176-0.19176-0.81807 0.81807 0.54220-0.54220  0 371.50 183.59  155.55 371.83 183.47  155.23
  -3   0   0  44.408  20.943   2-0.19145-0.19145-0.35133 0.35133 0.91647-0.91647  0 376.27 187.91   40.94 376.48 188.00   40.60
  -3   0   0  27.253  20.029   2-0.19144-0.19144 0.89441-0.89441 0.40421-0.40421  0 393.23 208.66  316.03 393.22 208.83  315.30
  -3   0  -1  4301.4   170.8   1-0.28274-0.10089-0.85011 0.85011 0.44426-0.51684  0 384.21 192.32  147.34 384.48 192.50  147.36
  -3   0   1  5855.3   155.0   1-0.36258-0.02059 0.34541-0.34541-0.86558 0.93822  0 243.21 181.86   22.13 243.08 181.92   22.32
  -3   0   1  5196.6   161.5   1-0.07609-0.30743-0.75814 0.75814 0.64764-0.57507  0 362.25 173.87  165.47 362.30 173.99  164.85
  -3   0   1  4874.1   114.1   2-0.09264-0.29031-0.82473 0.82473 0.55789-0.48533  0 360.00 172.91   75.36 360.02 172.99   75.63
  -3   0   1  4421.7   106.6   2-0.16084-0.22205 0.96698-0.96698 0.19766-0.12504  0 404.45 228.53  302.92 404.70 228.73  302.47
   3   0  -1  4543.1    91.6   2 0.09878 0.28424-0.84472 0.84472-0.52601 0.45349  0 239.20 331.12  142.20 238.99 330.97  142.30
   3   0  -1  5051.7    94.8   2 0.04529 0.33759 0.58780-0.58780-0.80774 0.73520  0 211.59 289.43  236.10 211.49 289.30  236.12
  -3   0  -2  69.666  76.986   1-0.35433-0.02930-0.86435 0.86435 0.35685-0.50203  0 399.65 201.00  140.80 399.64 201.32  140.84
  -3   0  -2   7.753  21.682   2 0.13278-0.51580-0.34742 0.34742-0.92826 0.78311  0 401.43 205.12  180.24 401.49 205.18  179.67
  -3   0  -2   6.031  22.886   2-0.02929-0.35363 0.86527-0.86527-0.50045 0.35532  0 382.53 181.95  260.97 382.66 182.01  260.41
  -3   0   2  35.826  41.719   1-0.53773 0.15456 0.06990-0.06990-0.84021 0.98551  0 247.69 172.02   41.46 247.66 171.96   41.14
  -3   0   2  20.032  51.190   2-0.06141-0.32154-0.90739 0.90739 0.41578-0.27066  0 345.24 159.28   85.47 345.43 159.36   85.19
  -3   0   2  13.488  48.859   2-0.15583-0.22706 0.97365-0.97365 0.16650-0.02125  0 415.48 247.02  300.37 415.60 247.14  300.60
   3   0  -2  -5.414  33.174   2 0.07788 0.30514-0.92472 0.92472-0.37259 0.22754  0 252.16 347.33  132.47 252.34 347.35  132.38
   3   0  -2 -18.237  30.481   2-0.00734 0.39026 0.80213-0.80213-0.59710 0.45197  0 202.21 271.43  253.76 202.31 271.66  253.69
   3   0   2 -40.283  54.373   1-0.03752 0.42105-0.73364 0.73364 0.67850-0.53337  0 214.19 306.74  168.53 213.97 306.74  168.01
  -3   0  -3 90910.8   758.0   1-0.41164 0.02801-0.86779 0.86779 0.27838-0.49614  0 416.87 210.11  134.91 417.15 210.19  135.26
  -3   0  -3 85641.6   422.3   2 0.11285-0.49587-0.75643 0.75643-0.64427 0.42653  0 420.35 220.07  150.75 420.68 220.23  150.87
  -3   0  -3 85755.4   423.3   2-0.06499-0.31793 0.94128-0.94128-0.33130 0.11361  0 372.92 161.42  271.18 373.03 161.66  271.19
  -3   0   3 92405.6   542.0   1-0.66020 0.27699-0.23013 0.23013-0.71496 0.93291  0 248.37 161.44   61.00 248.21 161.51   61.13
  -3   0   3 84281.7   604.5   2-0.04958-0.33338-0.93222 0.93222 0.35847-0.14078  0 331.33 145.49   89.19 331.38 145.62   88.84
  -3   0   3 82288.3   594.0   2-0.15646-0.22643 0.97287-0.97287 0.17041 0.04746  0 427.09 265.60  301.45 427.23 265.77  300.83
   3   0  -3 106947.    583.   1-0.21770 0.60087 0.51585-0.51585-0.82856 0.61062  0 356.80 363.49    9.14 356.82 363.31    9.30
   3   0  -3 84821.1   592.8   2 0.07046 0.31256-0.94415 0.94415-0.32189 0.10431  0 264.77 363.36  129.01 264.79 363.20  129.25
   3   0  -3 82953.1   582.1   2-0.02988 0.41280 0.86656-0.86656-0.49818 0.28049  0 193.64 255.87  260.25 193.57 255.70  260.55
   3   0   3 83990.0   731.2   1-0.10174 0.48526-0.77321 0.77321 0.62593-0.40824  0 201.43 298.21  162.80 201.31 298.15  162.74
   3   0   3 87132.0   359.2   2-0.11292 0.49588-0.75635 0.75635 0.64434-0.42666  0 201.26 298.86   69.39 201.19 298.93   69.23
   3   0   3 84889.8   354.8   2-0.23790 0.62081 0.44490-0.44490 0.86340-0.64548  0 226.58 337.87  353.36 226.59 337.81  353.09
  -3   0  -4 -28.665 104.235   1-0.45867 0.07504-0.86406 0.86406 0.20741-0.49776  0 437.30 219.43  130.40 437.11 219.26  130.38
  -3   0  -4  -8.079  57.272   2 0.09914-0.48216-0.84294 0.84294-0.52880 0.23870  0 440.49 233.99  142.47 440.47 234.05  142.49
  -3   0  -4  17.398  60.130   2-0.07013-0.31279 0.94970-0.94970-0.30519 0.01494  0 365.22 142.11  272.81 365.01 142.09  272.79
  -3   0   4  41.122  43.752   1-0.70253 0.31932-0.47663 0.47663-0.52847 0.81906  0 244.50 150.61   78.93 244.58 150.56   79.06
  -3   0   4  16.318  81.368   2-0.04537-0.33759-0.94009 0.94009 0.33790-0.04765  0 317.36 131.33   89.96 317.52 131.37   90.14
  -3   0   4 -73.030  78.960   2-0.15925-0.22364 0.96923-0.96923 0.18768 0.10281  0 440.03 285.25  302.02 440.00 285.17  301.88
   3   0  -4 -46.477  62.427   1-0.35386 0.73703 0.35692-0.35692-0.86452 0.57393  0 361.04 376.21   21.43 361.20 376.15   21.49
   3   0  -4   7.027  76.728   2 0.06848 0.31454-0.94908 0.94908-0.30749 0.01740  0 277.38 379.74  128.18 277.20 379.88  128.39
   3   0  -4 -12.207  45.862   2-0.04018 0.42310 0.89176-0.89176-0.45072 0.16047  0 184.40 239.92  263.62 184.46 240.10  263.67
   3   0   4 -49.640  61.849   1-0.14371 0.52723-0.79570 0.79570 0.58840-0.29814  0 187.68 290.03  160.10 187.58 289.66  159.26
   3   0   4 -34.599  32.289   2-0.08046 0.46341-0.86000 0.86000 0.50392-0.21367  0 186.12 285.18   79.00 186.00 284.97   79.36
   3   0   4  18.528  36.143   2-0.22645 0.60934 0.68133-0.68133 0.69606-0.40557  0 234.06 358.97  336.53 233.99 358.88  336.41
  -3   0  -5 17828.4   422.6   1-0.49807 0.11444-0.85539 0.85539 0.14225-0.50518  0 459.66 228.82  125.95 459.85 228.81  125.99
  -3   0  -5 17063.5   298.0   2 0.09296-0.47599-0.87134 0.87134-0.48179 0.11917  0 461.73 248.18  139.06 462.06 248.27  139.34
  -3   0  -5 16184.3   291.2   2-0.06906-0.31386 0.94803-0.94803-0.31059-0.05223  0 357.34 121.46  272.43 357.54 121.72  272.46
  -3   0   5 17437.2   267.9   1-0.68702 0.30381-0.64164 0.64164-0.34103 0.70427  0 237.47 138.66   93.20 237.31 138.81   93.42
  -3   0   5 17043.3   370.2   2-0.04499-0.33796-0.94078 0.94078 0.33603 0.02678  0 303.53 116.17   90.08 303.57 116.33   90.25
  -3   0   5 15779.7   359.1   2-0.16304-0.21985 0.96368-0.96368 0.21151 0.15160  0 454.15 305.66  303.55 454.23 305.78  303.30
   3   0  -5 18412.7   288.8   1-0.45587 0.83904 0.21129-0.21129-0.86461 0.50137  0 370.15 390.99   31.78 370.18 390.85   31.67
   3   0  -5 15443.8   346.2   2 0.06881 0.31421-0.94794 0.94794-0.31091-0.05171  0 289.94 398.14  128.47 289.89 397.93  128.58
   3   0  -5 17140.0   347.7   2-0.04441 0.42733 0.90157-0.90157-0.43035 0.06753  0 174.71 224.52  265.17 174.66 224.37  264.99
   3   0   5 17495.9   398.0   1-0.16986 0.55338-0.80835 0.80835 0.56367-0.20085  0 172.87 281.12  157.01 172.82 281.13  157.08
   3   0   5 16496.4   265.7   2-0.07031 0.45326-0.88631 0.88631 0.45773-0.09492  0 171.31 273.05   82.50 171.20 273.09   82.46
   3   0   5 17172.9   272.0   2-0.21771 0.60059 0.75951-0.75951 0.61299-0.24987  0 239.90 379.61  329.93 239.83 379.44  329.80
  -3   0  -6  33.646 141.807   1-0.53181 0.14818-0.84291 0.84291 0.08173-0.51725  0 486.11 239.24  122.09 485.97 239.11  121.96
  -3   0  -6 -45.600 101.214   2 0.09087-0.47389-0.88004 0.88004-0.46612 0.03098  0 486.25 263.20  138.52 486.39 263.26  138.33
  -3   0  -6  -1.570  98.865   2-0.06557-0.31735 0.94226-0.94226-0.32841-0.10697  0 350.35  99.82  271.44 350.41  99.95  271.37
  -3   0   6   8.742  63.441   1-0.64570 0.26207-0.74158 0.74158-0.18204 0.61756  0 227.33 126.08  104.39 227.40 125.97  104.46
  -3   0   6  76.066 128.876   2-0.04679-0.33616-0.93745 0.93745 0.34495 0.09042  0 289.20 100.32   89.39 289.32 100.22   89.70
  -3   0   6-111.493 134.581   2-0.16732-0.21557 0.95648-0.95648 0.23907 0.19667  0 470.39 328.02  304.61 470.38 328.11  304.97
   3   0  -6  25.738  94.328   1-0.52349 0.90666 0.09651-0.09651-0.84655 0.41066  0 382.96 407.70   39.44 382.96 407.89   39.37
   3   0  -6-102.602  65.555   2-0.04533 0.42825 0.90361-0.90361-0.42595-0.00943  0 163.99 208.18  265.47 163.98 208.24  265.27
   3   0   6  44.804  96.983   1-0.18465 0.56818-0.81499 0.81499 0.54927-0.11389  0 156.93 272.15  155.38 156.89 272.44  155.83
   3   0   6 -45.188  54.841   2-0.06774 0.45069-0.89262 0.89262 0.44569-0.01032  0 155.86 261.66   83.70 155.76 261.88   83.25
   3   0   6 -39.929  66.328   2-0.21309 0.59598 0.79112-0.79112 0.57334-0.13760  0 245.15 401.14  326.50 244.97 401.19  326.87
  -3   0  -7 21468.6   435.9   2-0.06073-0.32219 0.93383-0.93383-0.35253-0.15542  0 343.26  75.95  269.99 343.48  76.20  269.88
  -3   0   7 21284.2   347.1   1-0.59570 0.21207-0.80159 0.80159-0.05088 0.55899  0 215.36 111.47  113.08 215.35 111.69  113.21
  -3   0   7 20531.9   494.2   2-0.05002-0.33294-0.93137 0.93137 0.36062 0.14731  0 274.43  82.47   88.73 274.49  82.70   88.71
  -3   0   7 20174.0   511.7   2-0.17184-0.21105 0.94770-0.94770 0.26895 0.23942  0 489.03 352.76  307.00 489.03 352.87  306.79
   3   0  -7 19874.1   480.7   2 0.07352 0.30950-0.93651 0.93651-0.34285-0.16481  0 317.64 440.90  130.42 317.51 440.61  130.53
   3   0  -7 20746.7   456.4   2-0.04415 0.42707 0.90099-0.90099-0.43159-0.07636  0 152.16 191.50  265.07 152.15 191.38  264.91
   3   0   7 19148.3   468.1   1-0.19099 0.57452-0.81774 0.81774 0.54297-0.03503  0 139.67 263.35  155.25 139.65 263.43  155.30
   3   0   7 21371.3   385.2   2-0.06868 0.45163-0.89033 0.89033 0.45011 0.05783  0 139.21 250.86   83.30 139.14 250.91   82.96
   3   0   7 20684.4   386.6   2-0.21122 0.59411 0.80288-0.80288 0.55746-0.04910  0 249.68 425.25  325.93 249.59 424.96  325.72
  -3   0  -8  45.112 172.220   2-0.05498-0.32794 0.92324-0.92324-0.38028-0.20023  0 336.84  49.83  268.04 336.71  49.79  268.16
  -3   0   8 -13.371  87.685   1-0.54447 0.16084-0.83681 0.83681 0.05737 0.52333  0 201.85  95.53  120.56 201.61  95.51  120.36
  -3   0   8   2.441 198.389   2-0.05415-0.32880-0.92305 0.92305 0.38084 0.19966  0 258.75  63.65   87.61 258.79  63.34   87.43
   3   0  -8  74.091 148.629   1-0.59039 0.97356-0.03954 0.03954-0.80615 0.22497  0 418.27 451.73   48.55 418.13 451.87   48.37
   3   0  -8 -29.804 198.092   2 0.07689 0.30614-0.92753 0.92753-0.36577-0.21442  0 333.07 466.67  132.10 333.15 466.71  131.95
   3   0  -8 -21.075 111.813   2-0.04160 0.42452 0.89507-0.89507-0.44399-0.13652  0 138.54 173.70  264.43 138.86 173.47  264.11
   3   0   8  23.591 125.046   1-0.19090 0.57442-0.81770 0.81770 0.54307 0.03744  0 120.47 253.71  155.46 120.79 253.91  155.31
   3   0   8 -66.972  87.687   2-0.07161 0.45456-0.88304 0.88304 0.46381 0.11669  0 120.77 239.97   82.38 120.92 239.98   82.05
   3   0   8  71.068 106.816   2-0.21101 0.59390 0.80414-0.80414 0.55573 0.02526  0 253.45 451.47  325.67 253.74 451.54  325.60
  -3   0  -9 799.051 234.500   2-0.04866-0.33426 0.91067-0.91067-0.41026-0.24281  0 330.14  19.53  265.99 329.99  19.76  266.27
  -3   0   9 657.647 136.585   1-0.49404 0.11041-0.85655 0.85655 0.14917 0.50412  0 186.36  76.73  126.47 186.24  76.76  126.46
  -3   0   9  1021.5   217.4   2-0.05900-0.32395-0.91276 0.91276 0.40421 0.24884  0 241.82  41.56   86.07 241.80  41.56   85.93
   3   0  -9 527.295 203.597   1-0.60436 0.98757-0.07221 0.07221-0.79343 0.13960  0 440.89 481.45   50.48 440.85 481.06   50.54
   3   0  -9 442.398 264.704   2 0.08053 0.30249-0.91666 0.91666-0.39148-0.26123  0 350.78 497.13  133.40 350.75 497.49  133.55
   3   0  -9 908.379 181.385   2-0.03799 0.42091 0.88655-0.88655-0.46107-0.19200  0 123.69 154.18  262.98 123.69 154.06  263.00
   3   0   9 733.670 177.092   1-0.18572 0.56924-0.81546 0.81546 0.54822 0.10485  0  99.96 243.44  155.60  99.90 243.62  155.74
   3   0   9 657.740 137.714   2-0.07579 0.45875-0.87219 0.87219 0.48326 0.16980  0 100.79 228.67   81.04 100.59 228.88   80.75
   3   0   9 613.321 209.227   2-0.21191 0.59480 0.79876-0.79876 0.56309 0.09052  0 257.54 482.00  326.24 257.40 481.92  326.12
  -3   0  10-102.084 125.722   1-0.44460 0.06097-0.86587 0.86587 0.22934 0.49654  0 168.84  55.26  131.41 169.11  54.50  131.87
  -3   0  10 210.936 206.028   2-0.06440-0.31856-0.90059 0.90059 0.42988 0.29574  0 223.10  16.11   85.05 223.03  16.60   84.28
   3   0 -10  94.538 174.724   2-0.03347 0.41639 0.87580-0.87580-0.48151-0.24412  0 106.54 132.77  261.68 106.15 132.60  261.66
   3   0  10  50.500 169.311   1-0.17635 0.55987-0.81132 0.81132 0.55738 0.16826  0  76.69 232.45  157.13  76.42 232.26  156.53
   3   0  10 -62.404 122.971   2-0.08105 0.46401-0.85834 0.85834 0.50664 0.21898  0  77.39 217.57   78.92  77.52 217.47   79.17
  -3   0  11 25264.2   526.6   1-0.39529 0.01166-0.86768 0.86768 0.30147 0.49699  0 149.56  27.32  136.91 149.86  27.49  136.88
   3   0 -11 22805.4   665.6   2-0.02840 0.41132 0.86290-0.86290-0.50457-0.29363  0  85.38 108.35  259.99  85.37 108.32  260.13
   3   0  11 22111.5   643.8   1-0.16348 0.54701-0.80537 0.80537 0.56979 0.22841  0  49.70 219.29  157.64  49.52 219.37  157.61
   3   0  11 23352.6   572.5   2-0.08692 0.46987-0.84185 0.84185 0.53266 0.26552  0  51.06 205.35   77.19  50.73 205.49   77.39
  -3  -1   0 -44.664  51.926   1-0.31111-0.07206 0.41065-0.51012-0.85708 0.85708  0 221.34 203.94   17.62 221.38 203.95   17.53
  -3  -1   0  21.601  68.488   1-0.01782-0.36571-0.72040 0.62093 0.69333-0.69333  0 389.85 195.55  169.49 389.78 195.70  169.61
  -3  -1   0  25.386  26.807   2-0.23276-0.15013 0.10925-0.20875 0.96638-0.96638  0 401.23 214.48   13.85 401.15 214.42   13.69
  -3  -1   0  24.666  28.404   2 0.05045-0.43347-0.98033 0.88074-0.19081 0.19081  0 373.28 179.83  121.47 373.31 179.82  121.43
  -3   1   0 -23.639  54.420   1-0.42969 0.04606-0.86713 0.96666 0.25190-0.25190  0 359.77 170.49  133.50 359.78 170.39  133.42
  -3   1   0   9.173  38.846   2-0.22165-0.16124-0.06647 0.16597 0.97286-0.97286  0 361.06 171.50   23.80 361.20 171.48   23.80
  -3   1   0  12.023  34.897   2-0.00110-0.38182 0.78178-0.68220-0.62355 0.62355  0 406.88 228.16  252.01 406.57 228.20  251.75
   3  -1   0 -22.311  38.319   1 0.02606 0.35747-0.68864 0.58917 0.72464-0.72464  0 245.25 337.76  173.28 245.27 337.89  173.20
   3  -1   0  13.547  22.811   2-0.04164 0.42460-0.94673 0.84721 0.31931-0.31931  0 237.89 332.09   91.56 237.98 332.18   91.29
   3  -1   0  51.176  23.035   2 0.13177 0.25124-0.27973 0.18025-0.95099 0.95099  0 210.23 289.89  184.09 210.15 290.02  183.77
  -3  -1  -1  4108.3   170.1   1-0.19578-0.18739 0.53844-0.63791-0.81961 0.74696  0 214.43 212.82    7.38 214.36 212.88    7.42
  -3  -1  -1  3521.7   185.0   1-0.12287-0.26065-0.78487 0.68540 0.60736-0.67992  0 398.89 205.17  161.15 399.15 205.23  160.99
  -3  -1  -1  3540.1    53.6   2-0.07512-0.30784-0.87397 0.77445 0.48013-0.55269  0 396.91 202.98   81.33 397.29 203.18   80.96
  -3  -1  -1  2702.9    50.7   2 0.10834-0.49137-0.78918 0.68958-0.60454 0.53201  0 383.06 185.82  147.89 383.40 185.88  147.81
  -3  -1   1  3856.7   153.1   1-0.43780 0.05463 0.23922-0.33870-0.86666 0.93931  0 225.95 194.72   30.27 225.91 194.76   29.76
  -3  -1   1  3086.8   103.7   2 0.03244-0.41546-0.99621 0.89662-0.08068 0.15320  0 359.41 168.07  115.01 359.52 168.15  114.97
  -3  -1   1  3278.9   104.1   2-0.23120-0.15169 0.62225-0.72180 0.74790-0.67528  0 409.61 230.69  341.15 409.91 230.76  340.95
  -3   1  -1  3540.8   159.5   1-0.47079 0.08716-0.86199 0.96151 0.18798-0.26057  0 376.11 178.83  128.78 376.16 178.97  129.06
  -3   1  -1  3579.7    93.0   2 0.07187-0.45475 0.43499-0.33545-0.89756 0.82503  0 406.51 221.71  226.03 406.78 221.75  225.84
  -3   1  -1  3395.1    94.8   2-0.23683-0.14605 0.50651-0.40696 0.82907-0.90169  0 367.38 172.88  349.07 367.35 172.93  349.12
  -3   1   1  4251.5   126.3   1-0.24347-0.13970 0.48839-0.38891-0.83797 0.91062  0 257.40 168.00   11.53 257.66 168.12   11.52
  -3   1   1  3578.5   119.7   1-0.37372-0.00991-0.86642 0.96595 0.33113-0.25854  0 345.02 161.28  139.01 345.09 161.44  138.99
  -3   1   1  3350.3   118.3   2-0.17240-0.21049-0.47879 0.57829 0.86084-0.78821  0 350.60 163.72   48.49 350.66 163.83   48.65
  -3   1   1  3193.9   115.1   2-0.05010-0.33282 0.91369-0.81411-0.40331 0.47587  0 411.83 240.63  266.65 412.07 240.70  266.71
   3  -1  -1  3229.3   100.5   2-0.01234 0.39536-0.98510 0.88551 0.17154-0.24407  0 247.91 342.18  100.24 247.74 342.10  100.27
   3  -1  -1  3789.3   106.0   2 0.09580 0.28707 0.25677-0.35630-0.96171 0.88918  0 205.27 277.78  215.02 205.16 277.78  214.89
   3  -1   1  3385.6   139.0   1-0.10734 0.49087-0.77638 0.67691 0.62105-0.54849  0 232.10 328.45  162.13 231.95 328.39  162.28
   3  -1   1  3253.3    69.1   2-0.10808 0.49103-0.77349 0.67396 0.62453-0.55196  0 231.85 328.61   70.57 231.69 328.47   70.75
   3  -1   1  3225.2    68.4   2 0.10276 0.28026-0.82364 0.72404-0.55773 0.63025  0 211.15 297.14  144.28 210.99 296.93  144.48
   3   1  -1  3454.9    89.3   2 0.13296 0.25005-0.36938 0.46886-0.91971 0.84714  0 239.83 336.05  178.37 239.62 335.88  178.31
   3   1  -1  3180.0    83.9   2-0.08463 0.46755 0.96911-0.86953-0.23165 0.15909  0 207.70 287.56  277.06 207.51 287.30  277.23
  -3  -1  -2 16960.9   338.4   1-0.21405-0.16947-0.82734 0.72787 0.51932-0.66445  0 411.33 214.51  153.34 411.62 214.59  153.33
  -3  -1  -2 16764.2   149.9   2 0.01099-0.39401-0.99895 0.89936 0.04445-0.18950  0 408.36 209.62  107.57 408.65 209.66  107.72
  -3  -1  -2 18505.9   158.4   2 0.10931-0.49218 0.12490-0.22443-0.98613 0.84106  0 379.99 174.31  206.82 379.85 174.32  207.18
  -3  -1   2 19043.6   299.8   1-0.55585 0.17268 0.03411-0.13359-0.83058 0.97588  0 227.60 185.16   43.41 227.53 185.22   43.50
  -3  -1   2 15632.1   239.7   2 0.02161-0.40463-0.99962 0.90003-0.01688 0.16192  0 345.58 155.37  111.08 345.69 155.47  111.28
  -3  -1   2 15576.2   238.2   2-0.21430-0.16859 0.78339-0.88294 0.58342-0.43817  0 419.84 248.15  327.98 420.09 248.22  327.60
  -3   1  -2 16473.0   307.4   1-0.50374 0.12011-0.85366 0.95318 0.13234-0.27751  0 393.76 187.22  125.21 394.08 187.32  125.33
  -3   1  -2 18545.9   203.4   2 0.12354-0.50656-0.07517 0.17465-0.98949 0.84433  0 414.49 224.03  195.89 414.82 224.17  195.70
  -3   1  -2 15809.3   190.9   2-0.20457-0.17832 0.83956-0.74001 0.50328-0.64853  0 367.20 165.40  321.83 367.13 165.45  321.90
  -3   1   2 19426.4   200.5   1-0.53011 0.14694 0.08425 0.01523-0.84373 0.98903  0 268.25 157.16   40.08 268.43 157.29   40.19
  -3   1   2 17611.3   191.4   1-0.28657-0.09706-0.85114 0.95067 0.43981-0.29464  0 332.69 151.67  147.07 332.83 151.84  147.02
  -3   1   2 17037.6   264.1   2-0.13312-0.24983-0.67630 0.77583 0.72450-0.57937  0 338.46 153.19   62.57 338.52 153.33   62.65
  -3   1   2 15294.4   249.9   2-0.07943-0.30349 0.96279-0.86321-0.25831 0.40343  0 420.26 255.91  275.69 420.47 256.05  275.63
   3  -1  -2 14984.9   241.3   2 0.00413 0.37889-0.99656 0.89697 0.08274-0.22779  0 258.40 354.62  105.62 258.56 354.51  105.49
   3  -1  -2 17676.9   251.3   2 0.05427 0.32860 0.54054-0.64007-0.83957 0.69450  0 198.67 264.04  232.97 198.55 263.99  232.82
   3  -1   2 15327.8   290.3   1-0.18659 0.57012-0.81584 0.71637 0.54735-0.40222  0 218.24 319.37  155.67 218.08 319.33  155.67
   3  -1   2 17222.7   168.1   2-0.19900 0.58189-0.29307 0.19357 0.93515-0.78990  0 232.05 335.95   36.93 231.87 335.78   37.06
   3  -1   2 15785.7   161.2   2 0.05106 0.33196-0.97948 0.87989-0.19495 0.34000  0 204.78 294.21  121.39 204.59 294.03  121.66
   3   1  -2 20760.4   323.9   1-0.21624 0.59941 0.51738-0.41790-0.82799 0.68269  0 382.45 340.53    9.01 382.46 340.40    9.17
   3   1  -2 16259.1   228.2   2 0.12271 0.26030-0.66042 0.75990-0.74080 0.59564  0 252.42 351.21  158.54 252.13 351.00  158.65
   3   1  -2 15108.1   219.3   2-0.09321 0.47613 0.97797-0.87839-0.18679 0.04166  0 199.27 271.16  279.94 199.15 270.94  279.90
  -3  -1  -3  78.022 101.896   1-0.29166-0.09197-0.85246 0.75294 0.43387-0.65163  0 426.57 224.36  146.59 426.95 224.04  146.56
  -3  -1  -3 147.409  46.297   2 0.02986-0.41288-0.99746 0.89786-0.06471-0.15286  0 425.56 221.54  113.84 425.48 221.49  114.04
  -3  -1  -3 179.789  50.723   2 0.04748-0.43036 0.57656-0.67609-0.81567 0.59807  0 372.85 157.00  235.55 372.97 157.21  235.32
  -3  -1   3 124.154  56.484   1-0.64382 0.26061-0.17724 0.07777-0.74436 0.96231  0 225.83 175.22   58.37 225.96 175.22   57.55
  -3  -1   3 109.622  72.057   2 0.01287-0.39589-0.99934 0.89975 0.03393 0.18364  0 331.87 142.14  108.57 332.01 142.16  108.34
  -3  -1   3 110.176  68.775   2-0.20362-0.17927 0.84413-0.94368 0.49597-0.27810  0 431.57 266.43  321.50 431.47 266.45  321.41
  -3   1  -3 188.010 102.176   1-0.53171 0.14809-0.84295 0.94248 0.08191-0.29967  0 413.67 195.80  121.60 413.76 195.66  121.97
  -3   1  -3 237.797  56.009   2 0.13298-0.51600-0.42370 0.52318-0.89599 0.67825  0 428.48 232.44  174.99 428.61 232.42  174.91
  -3   1  -3 108.979  55.685   2-0.17148-0.21141 0.94843-0.84889 0.26659-0.48446  0 362.81 151.98  307.04 362.88 151.97  306.65
  -3   1   3 167.778  38.952   1-0.70035 0.31714-0.44010 0.53957-0.56198 0.77992  0 275.00 145.77   76.43 275.03 145.87   76.22
  -3   1   3 158.022  40.610   1-0.12972-0.25380-0.78851 0.88799 0.60118-0.38349  0 325.45 141.24  160.92 325.30 141.17  160.42
  -3   1   3 124.728  74.179   2-0.10911-0.27384-0.77006 0.86959 0.62857-0.41088  0 325.69 141.16   70.34 325.77 141.26   70.45
  -3   1   3 165.481  78.412   2-0.09915-0.28377 0.98283-0.88325-0.15558 0.37327  0 430.60 273.14  281.53 430.72 273.10  281.74
   3  -1  -3 174.123  75.640   2 0.01590 0.36713-0.99973 0.90014 0.01689-0.23446  0 269.74 368.65  109.43 269.88 368.59  109.33
   3  -1  -3 189.108  57.505   2 0.02564 0.35724 0.67886-0.77840-0.73382 0.51621  0 191.10 249.74  242.60 190.97 249.76  242.94
   3  -1   3 141.077  69.704   1-0.23326 0.61678-0.83463 0.73515 0.49899-0.28130  0 203.60 310.60  152.17 203.68 310.62  151.67
   3  -1   3 140.327  37.780   2-0.23527 0.61816 0.16648-0.26598 0.95757-0.73968  0 235.65 349.84   10.64 235.65 349.89   10.37
   3  -1   3 112.604  36.974   2 0.02407 0.35895-0.99923 0.89963-0.03105 0.24862  0 193.81 285.92  112.16 193.99 285.83  112.11
   3   1  -3 176.750  83.425   1-0.32484 0.70801 0.39372-0.29424-0.85992 0.64198  0 384.22 352.02   18.61 384.44 352.04   18.79
   3   1  -3 158.256  71.114   2 0.11092 0.27210-0.77143 0.87102-0.62657 0.40900  0 264.28 366.54  149.52 264.18 366.38  149.44
   3   1  -3 136.808  51.113   2-0.09348 0.47640 0.97822-0.87864-0.18536-0.03233  0 190.77 255.56  280.07 190.70 255.41  279.98
   3   1   3  69.791  74.092   1 0.03089 0.35263-0.68492 0.78439 0.72796-0.51027  0 194.31 286.02  173.63 194.52 286.09  173.60
   3   1   3 149.507  31.907   2-0.20271 0.58560-0.26142 0.36092 0.94370-0.72582  0 197.49 297.56   35.18 197.56 297.48   35.16
   3   1   3 108.104  29.423   2-0.18926 0.57215 0.90170-0.80215 0.38873-0.17086  0 226.41 341.96  314.80 226.66 342.10  314.31
  -3  -1  -4  9771.6   312.7   1-0.35735-0.02628-0.86473 0.76520 0.35290-0.64325  0 444.93 233.80  140.59 445.13 233.80  140.55
  -3  -1  -4  9188.6   195.0   2 0.04029-0.42331-0.99096 0.89136-0.12799-0.16211  0 444.36 234.35  117.76 444.59 234.39  117.73
  -3  -1  -4 10857.5   212.9   2 0.01290-0.39577 0.73078-0.83031-0.68249 0.39236  0 365.80 138.34  247.04 365.83 138.53  247.19
  -3  -1   4  9972.9   235.7   1-0.69141 0.30820-0.36689 0.26742-0.62237 0.91296  0 221.46 164.60   70.74 221.34 164.68   70.76
  -3  -1   4  9184.3   259.7   2 0.00479-0.38781-0.99686 0.89726 0.07909 0.21100  0 318.15 127.95  105.75 318.33 128.11  105.70
  -3  -1   4  9073.1   252.5   2-0.19791-0.18498 0.86985-0.96940 0.45187-0.16137  0 443.92 285.63  318.85 444.14 285.67  318.42
  -3   1  -4 10505.2   309.7   1-0.55613 0.17250-0.83038 0.92991 0.03449-0.32483  0 435.27 204.11  118.96 435.47 204.17  118.84
  -3   1  -4  9958.6   218.0   2 0.12676-0.50978-0.60199 0.70147-0.78838 0.49806  0 445.72 243.37  162.99 446.00 243.50  162.96
  -3   1  -4  9155.8   212.1   2-0.14714-0.23578 0.98225-0.88267 0.11631-0.40657  0 357.24 135.14  297.81 357.42 135.33  297.69
  -3   1   4  9927.3   136.2   1-0.64674 0.26311-0.73987 0.83940-0.18524 0.47559  0 273.79 133.90  104.25 273.96 134.07  104.24
  -3   1   4  9805.2   271.5   2-0.09521-0.28774-0.81664 0.91617 0.56923-0.27899  0 312.64 127.88   74.75 312.71 128.02   74.82
  -3   1   4  8736.0   257.1   2-0.11392-0.26900 0.99063-0.89105-0.07536 0.36561  0 442.49 291.41  286.50 442.63 291.56  286.45
   3  -1  -4  8895.4   255.9   2 0.02537 0.35765-0.99893 0.89934-0.03855-0.25155  0 281.64 384.38  112.59 281.67 384.26  112.52
   3  -1  -4 10854.6   260.1   2 0.00790 0.37498 0.74983-0.84936-0.66158 0.37145  0 182.64 235.19  248.89 182.53 235.11  248.84
   3  -1   4  9106.4   273.2   1-0.26003 0.64365-0.84343 0.74390 0.47013-0.17978  0 188.77 302.10  149.23 188.69 302.04  149.37
   3  -1   4  9158.3   186.6   2 0.00790 0.37512-0.99805 0.89846 0.06193 0.22817  0 181.77 276.31  106.62 181.67 276.24  106.70
   3  -1   4  9377.2   190.1   2-0.23821 0.62113 0.42396-0.52348 0.87379-0.58324  0 240.49 367.02  354.64 240.45 366.91  354.44
   3   1  -4 10525.8   256.4   1-0.41456 0.79773 0.27387-0.17440-0.86783 0.57725  0 390.17 365.10   27.30 390.51 364.98   27.37
   3   1  -4  8841.4   250.1   2 0.10315 0.27987-0.82148 0.92107-0.56083 0.27074  0 276.40 383.06  144.59 276.38 382.86  144.70
   3   1  -4  8899.7   231.4   2-0.09075 0.47367 0.97562-0.87604-0.19981-0.09045  0 181.75 240.23  278.80 181.73 240.03  279.13
   3   1   4  9781.6   290.5   1-0.02103 0.40456-0.72257 0.82204 0.69098-0.40072  0 182.36 277.53  169.35 182.29 277.50  169.35
   3   1   4 10486.7   182.8   2-0.15779 0.54074-0.55834 0.65787 0.81447-0.52422  0 183.29 284.93   54.06 183.23 284.95   54.01
   3   1   4  9156.0   173.2   2-0.18224 0.56513 0.92315-0.82361 0.33849-0.04799  0 233.24 362.04  311.02 233.06 361.79  311.11
  -3  -1  -5  1307.2   181.8   1-0.41291 0.02928-0.86777 0.76824 0.27655-0.63949  0 466.53 244.22  135.24 466.39 244.19  135.13
  -3  -1  -5  1275.6   150.9   2 0.04847-0.43149-0.98273 0.88314-0.17856-0.18405  0 465.80 248.18  120.64 466.03 248.10  120.71
  -3  -1  -5  1344.6   146.8   2-0.00437-0.37855 0.79238-0.89196-0.61001 0.24719  0 358.88 118.47  252.71 358.80 118.57  252.75
  -3  -1   5  1092.7   124.7   1-0.70286 0.31965-0.51914 0.41966-0.48629 0.84953  0 214.07 153.34   82.33 214.01 153.35   82.49
  -3  -1   5  1078.9   147.0   2-0.00301-0.38001-0.99259 0.89300 0.12148 0.24114  0 304.35 112.97  103.27 304.51 113.15  103.22
  -3  -1   5  1059.9   145.9   2-0.19529-0.18760 0.88025-0.97979 0.43247-0.06935  0 458.18 306.22  317.13 458.45 306.21  317.14
  -3   1  -5  1284.7   176.8   1-0.57785 0.19422-0.81607 0.91560-0.01086-0.35208  0 459.61 213.02  116.11 459.77 213.02  115.85
  -3   1  -5  1219.4   151.3   2 0.12016-0.50317-0.69047 0.78995-0.71331 0.35042  0 466.51 256.13  156.30 466.34 256.27  156.33
  -3   1  -5 985.618 115.350   2-0.12939-0.25353 0.99153-0.89195 0.01156-0.37437  0 350.97 116.47  291.62 351.19 116.57  291.53
  -3   1   5  1260.1    91.2   1-0.55200 0.16837-0.83275 0.93228 0.04276 0.32018  0 265.58 121.55  119.68 265.65 121.78  119.39
  -3   1   5  1262.1   154.9   2-0.08750-0.29545-0.84013 0.93966 0.53528-0.17247  0 299.25 113.53   77.14 299.25 113.64   77.21
  -3   1   5  1011.3   146.7   2-0.12599-0.25693 0.99200-0.89242-0.00809 0.37091  0 456.15 311.60  290.43 456.31 311.63  290.39
   3  -1  -5  1344.8    95.6   1-0.34704 0.73021 0.36574-0.46522-0.86359 0.50036  0 336.92 402.72   20.87 336.93 402.54   20.85
   3  -1  -5 -22.300  91.899   2 0.03371 0.34931-0.99553 0.89594-0.08824-0.27438  2 294.07 401.61  114.94 294.06 401.76  115.41
   3  -1  -5  1061.7   129.6   2-0.00280 0.38572 0.78754-0.88712-0.61625 0.25343  0 173.20 220.01  251.96 173.22 219.90  252.29
   3  -1   5  1498.5   159.6   1-0.27365 0.65728-0.84757 0.74804 0.45470-0.09176  0 172.96 293.61  148.34 172.89 293.60  148.16
   3  -1   5  1143.1   104.5   2-0.00454 0.38756-0.99154 0.89194 0.12974 0.23288  0 168.22 266.32  102.71 168.10 266.24  102.73
   3  -1   5  1265.5   113.4   2-0.23499 0.61788 0.55598-0.65553 0.79728-0.43416  0 245.21 385.81  345.76 245.15 385.76  345.73
   3   1  -5  1183.8   134.9   1-0.48213 0.86530 0.16893-0.06946-0.85966 0.49643  0 400.23 379.67   34.62 400.31 379.67   34.54
   3   1  -5  1103.6   147.4   2 0.09867 0.28435-0.84524 0.94484-0.52519 0.16258  0 288.93 400.88  142.27 288.95 400.89  142.24
   3   1  -5  1192.9   130.3   2-0.08650 0.46942 0.97123-0.87165-0.22187-0.14094  0 171.99 224.61  277.99 171.99 224.45  277.81
   3   1   5  1016.1   137.0   1-0.05729 0.44081-0.74646 0.84593 0.66296-0.30015  0 168.74 268.87  166.39 168.74 268.82  166.39
   3   1   5  1189.3   102.4   2-0.13280 0.51576-0.67769 0.77722 0.72325-0.36044  0 168.83 273.53   62.87 168.70 273.56   62.75
   3   1   5  1179.4   109.7   2-0.18177 0.56466 0.92440-0.82485 0.33532 0.02780  0 238.47 382.13  311.00 238.48 381.92  310.91
  -3  -1  -6 15308.1   437.9   1-0.46033 0.07670-0.86381 0.76428 0.20478-0.64031  0 491.11 255.50  130.04 491.27 255.44  130.20
  -3  -1  -6 14179.6   328.7   2 0.05566-0.43869-0.97304 0.87344-0.22383-0.21131  0 490.22 262.79  123.08 490.44 262.79  123.38
  -3  -1  -6 14498.0   327.0   2-0.01294-0.36998 0.81915-0.91873-0.57344 0.13806  0 351.87  96.57  255.16 351.97  96.89  255.39
  -3  -1   6 14500.0   314.9   1-0.68912 0.30591-0.63310 0.53362-0.35257 0.78846  0 204.46 140.86   92.49 204.37 141.02   92.59
  -3  -1   6 13321.7   378.8   2-0.01061-0.37241-0.98667 0.88708 0.16237 0.27277  0 290.14  96.83  100.82 290.32  97.02  100.81
  -3  -1   6 13921.6   393.0   2-0.19468-0.18821 0.88255-0.98210 0.42803 0.00771  0 474.62 328.52  316.91 474.77 328.57  316.85
  -3   1  -6 15702.0   435.8   1-0.59736 0.21373-0.80010 0.89963-0.05475-0.38077  0 487.22 222.55  112.96 487.38 222.49  112.95
  -3   1  -6 13744.4   329.8   2 0.11538-0.49840-0.73594 0.83542-0.66714 0.23167  0 489.81 270.36  152.39 490.01 270.51  152.62
  -3   1  -6 13554.2   329.7   2-0.11492-0.26800 0.99092-0.89134-0.06975-0.36563  0 344.52  95.50  286.89 344.77  95.76  286.78
  -3   1   6 15016.5   215.8   1-0.48148 0.09785-0.85972 0.95925 0.17045 0.26508  0 253.83 108.17  127.91 253.76 108.42  127.88
  -3   1   6 13622.2   385.2   2-0.08375-0.29920-0.85105 0.95057 0.51837-0.08300  0 285.23  97.76   78.19 285.30  97.99   78.39
  -3   1   6 14707.6   407.7   2-0.13616-0.24676 0.98935-0.88977 0.05143 0.38395  0 472.07 333.51  293.87 472.07 333.66  293.86
   3  -1  -6 15534.2   231.7   1-0.48165 0.86482 0.16953-0.26901-0.85981 0.42393  0 350.65 420.30   34.45 350.73 420.11   34.50
   3  -1  -6 14539.1   397.6   2 0.04137 0.34165-0.99005 0.89045-0.13453-0.30062  0 307.28 421.70  117.75 307.25 421.47  118.11
   3  -1  -6 15077.9   367.0   2-0.00896 0.39188 0.80735-0.90693-0.59001 0.15463  0 162.79 204.27  253.93 162.82 204.14  254.20
   3  -1   6 13819.1   381.0   1-0.27837 0.66200-0.84891 0.74938 0.44930-0.01378  0 156.17 285.14  147.77 156.13 285.09  147.75
   3  -1   6 13218.9   284.0   2-0.01578 0.39874-0.98227 0.88274 0.18682 0.24855  0 153.38 256.09   99.18 153.29 256.07   99.33
   3  -1   6 13743.8   294.8   2-0.23083 0.61372 0.62746-0.72701 0.74365-0.30791  0 249.69 406.80  340.74 249.69 406.65  340.56
   3   1  -6 13858.3   334.1   1-0.52968 0.91285 0.08505 0.01443-0.84392 0.40804  0 413.38 396.75   39.62 413.73 396.59   40.13
   3   1  -6 14262.6   352.8   2-0.08137 0.46429 0.96527-0.86569-0.24826-0.18712  0 161.34 208.63  276.14 161.32 208.41  276.23
   3   1   6 15190.9   402.1   1-0.08120 0.46472-0.76120 0.86067 0.64341-0.20803  0 153.81 259.87  164.42 153.81 259.86  164.43
   3   1   6 14024.8   285.8   2-0.11918 0.50214-0.73287 0.83239 0.66985-0.23448  0 153.39 262.56   67.07 153.36 262.63   67.22
   3   1   6 13977.3   287.7   2-0.18364 0.56653 0.91900-0.81945 0.34888 0.08686  0 243.51 403.79  311.92 243.35 403.52  311.78
  -3  -1  -7  1094.8   165.2   2-0.01634-0.36658 0.82944-0.92902-0.55836 0.05041  0 345.37  72.93  256.31 345.28  73.11  256.45
  -3  -1   7  1154.1   138.7   1-0.66043 0.27680-0.71479 0.61527-0.23002 0.73813  0 192.79 127.31  101.28 192.78 127.32  101.20
  -3  -1   7 999.436 193.850   2-0.01868-0.36428-0.97918 0.87965 0.20213 0.30580  0 275.42  79.20   98.40 275.41  79.40   98.42
  -3  -1   7  1063.0   208.7   2-0.19540-0.18749 0.87984-0.97939 0.43325 0.07512  0 493.39 353.29  317.33 493.67 353.40  317.19
  -3   1  -7  1014.3   169.7   2-0.10247-0.28045 0.98516-0.88558-0.13769-0.37026  0 338.17  72.57  282.76 338.31  72.65  282.79
  -3   1   7  1111.5   108.6   1-0.42669 0.04306-0.86731 0.96683 0.25635 0.25176  0 240.12  93.22  133.56 240.17  93.44  133.73
  -3   1   7  1050.3   208.8   2-0.08251-0.30045-0.85426 0.95378 0.51326-0.00533  0 270.41  80.88   78.61 270.64  80.80   78.72
  -3   1   7 847.933 212.071   2-0.14543-0.23749 0.98372-0.88414 0.10558 0.40236  0 490.58 358.23  296.97 490.46 358.31  297.05
   3  -1  -7  1093.6   119.0   1-0.55236 0.93553 0.04110-0.14057-0.83259 0.32406  0 367.17 440.90   43.00 367.23 440.76   43.04
   3  -1  -7  1106.2   200.3   2 0.04850 0.33452-0.98270 0.88311-0.17871-0.32895  0 321.50 444.14  120.57 321.51 443.94  120.72
   3  -1  -7  1347.2   168.3   2-0.01208 0.39500 0.81648-0.91606-0.57724 0.06930  0 151.12 187.48  255.30 151.17 187.50  255.12
   3  -1   7 899.912 160.610   1-0.27662 0.66025-0.84842 0.74889 0.45130 0.05681  0 138.23 276.33  147.61 138.15 276.35  147.90
   3  -1   7 934.966 116.427   2-0.02521 0.40816-0.97124 0.87171 0.23678 0.27116  0 137.25 245.81   96.29 137.06 245.74   96.34
   3  -1   7 905.704 120.250   2-0.22781 0.61070 0.66617-0.76572 0.71016-0.20179  0 254.04 430.25  337.72 253.96 429.96  337.61
   3   1  -7 915.153 170.754   1-0.56159 0.94476 0.02244 0.07704-0.82711 0.31858  0 430.58 416.68   44.02 430.60 416.42   44.27
   3   1  -7 857.322 190.764   2 0.09593 0.28709-0.85830 0.95790-0.50409-0.00357  0 316.45 443.87  140.69 316.33 443.69  140.82
   3   1  -7 822.320 136.069   2-0.07572 0.45864 0.95777-0.85819-0.27738-0.23056  0 149.45 191.93  274.34 149.43 191.63  274.48
   3   1   7  1087.5   165.3   1-0.09547 0.47899-0.76964 0.86911 0.63131-0.12336  0 137.38 250.39  163.31 137.37 250.49  163.25
   3   1   7  1135.3   139.0   2-0.11222 0.49517-0.75895 0.85848 0.64140-0.13347  0 136.82 251.71   69.51 136.76 251.87   69.46
   3   1   7 982.972 130.540   2-0.18679 0.56968 0.90980-0.81025 0.37065 0.13772  0 247.75 427.38  313.23 247.74 427.24  313.14
  -3  -1  -8  6679.9   352.3   2-0.01683-0.36609 0.83069-0.93027-0.55648-0.02403  0 338.60  46.19  256.47 338.68  46.52  256.57
  -3  -1   8  6786.3   270.2   1-0.62323 0.23960-0.77299 0.67346-0.11862 0.69931  0 179.14 111.57  108.74 179.21 111.81  108.71
  -3  -1   8  6672.6   415.9   2-0.02613-0.35683-0.97004 0.87051 0.24155 0.33895  0 259.63  59.66   96.17 259.73  59.90   96.05
  -3   1  -8  6423.0   355.2   2-0.09119-0.29173 0.97605-0.87647-0.19751-0.38300  0 331.49  46.20  279.07 331.79  46.58  279.27
  -3   1   8  6994.9   210.1   1-0.37918-0.00445-0.86687 0.96639 0.32367 0.25702  0 225.37  76.01  138.41 225.50  76.27  138.45
  -3   1   8  5453.3   344.7   2-0.08319-0.29977-0.85233 0.95185 0.51635 0.06414  0 255.06  61.30   78.40 255.02  61.66   78.51
   3  -1  -8  6264.4   249.3   1-0.58882 0.97199-0.03597-0.06351-0.80747 0.22629  0 385.50 465.65   48.04 385.90 465.41   48.13
   3  -1  -8  6968.2   415.5   2 0.05529 0.32773-0.97360 0.87401-0.22145-0.35874  0 337.37 470.26  122.85 337.28 470.05  123.23
   3  -1  -8  7154.7   324.1   2-0.01282 0.39574 0.81876-0.91834-0.57399-0.00652  0 137.87 169.70  254.94 137.99 169.66  255.35
   3  -1   8  6571.1   323.9   1-0.26997 0.65360-0.84649 0.74697 0.45887 0.12183  0 118.87 267.21  148.46 118.62 267.20  148.49
   3  -1   8  6295.8   259.6   2-0.03442 0.41737-0.95836 0.85883 0.28349 0.29701  0 119.39 235.09   93.67 119.05 235.19   93.49
   3  -1   8  7443.6   344.7   2-0.22602 0.60891 0.68593-0.78548 0.69167-0.11069  0 257.68 456.55  335.98 257.94 456.35  336.04
   3   1  -8  5484.9   329.4   1-0.58214 0.96530-0.02105 0.12053-0.81282 0.23165  0 450.97 440.26   47.08 451.24 440.16   47.15
   3   1  -8  7234.0   421.5   2 0.09648 0.28654-0.85577 0.95537-0.50827-0.07191  0 332.09 470.24  140.98 331.88 469.98  141.10
   3   1  -8  6260.0   303.0   2-0.06953 0.45245 0.94878-0.84920-0.30820-0.27230  0 136.11 173.96  272.52 136.04 173.75  272.61
   3   1   8  6965.4   327.9   1-0.10220 0.48573-0.77348 0.87295 0.62553-0.04502  0 119.47 240.45  162.77 119.17 240.48  162.70
   3   1   8  6723.4   261.8   2-0.10924 0.49220-0.76960 0.86912 0.62912-0.04862  0 118.78 241.04   70.25 118.50 241.10   70.41
   3   1   8  6616.9   278.5   2-0.19040 0.57329 0.89793-0.79838 0.39682 0.18417  0 251.76 454.15  314.95 251.68 453.87  314.82
  -3  -1  -9 398.583 231.141   2-0.01520-0.36772 0.82603-0.92561-0.56343-0.08964  0 332.11  16.03  256.31 332.19  16.22  256.09
  -3  -1   9 473.205 140.745   1-0.58111 0.19748-0.81362 0.71409-0.01834 0.67162  0 163.72  93.63  115.47 163.72  93.92  115.36
  -3  -1   9 311.125 192.420   2-0.03380-0.34915-0.95930 0.85977 0.28037 0.37268  0 242.68  38.51   94.14 242.75  37.91   93.69
  -3   1  -9 277.393 232.843   2-0.08064-0.30228 0.96434-0.86477-0.25206-0.40101  0 325.24  16.38  275.90 325.20  16.67  276.00
  -3   1   9 373.560 101.140   1-0.33518-0.04845-0.86155 0.96108 0.38129 0.27199  0 209.93  55.35  142.99 209.79  56.15  142.62
  -3   1   9 263.082 190.168   2-0.08531-0.29765-0.84657 0.94610 0.52539 0.12767  0 237.98  40.59   77.98 238.05  40.02   77.90
   3  -1  -9 294.926 170.896   1-0.60718 0.99039-0.07904-0.02044-0.79062 0.13679  0 407.25 495.41   51.05 407.07 495.38   50.99
   3  -1  -9 273.090 266.203   2 0.06170 0.32132-0.96276 0.86317-0.26322-0.38949  0 355.08 501.62  126.07 355.08 500.99  125.70
   3  -1  -9 439.105 164.773   2-0.01195 0.39487 0.81607-0.91565-0.57783-0.07524  0 123.10 150.26  255.12 122.88 150.25  255.07
   3  -1   9 548.116 177.014   1-0.25946 0.64309-0.84325 0.74372 0.47076 0.18253  0  97.21 257.44  149.35  97.09 257.42  149.42
   3  -1   9 291.487 115.547   2-0.04338 0.42634-0.94368 0.84415 0.32802 0.32504  0  98.98 224.11   90.93  98.83 224.31   90.75
   3  -1   9 283.622 202.914   2-0.22526 0.60815 0.69368-0.79323 0.68415-0.03054  0 261.55 487.04  335.51 261.52 486.77  335.42
   3   1  -9 386.269 238.296   1-0.59450 0.97767-0.04895 0.14842-0.80261 0.14878  0 476.03 468.89   48.64 476.26 469.16   48.99
   3   1  -9 334.951 266.820   2 0.09781 0.28521-0.84944 0.94903-0.51855-0.13416  2 349.19 501.20  141.59 349.41 501.06  141.79
   3   1  -9 364.182 155.595   2-0.06317 0.44609 0.93816-0.83858-0.34038-0.31269  0 120.71 154.33  270.96 120.73 154.37  270.63
   3   1   9 280.732 159.554   1-0.10284 0.48636-0.77384 0.87331 0.62498 0.02809  0  99.01 229.43  163.11  98.83 229.56  162.65
   3   1   9 404.329 124.672   2-0.10882 0.49178-0.77082 0.87035 0.62769 0.02537  0  98.32 230.05   70.69  98.08 230.15   70.51
   3   1   9 305.806 161.593   2-0.19437 0.57726 0.88369-0.78414 0.42581 0.22780  0 254.93 484.33  316.97 255.08 484.34  316.70
  -3  -1  10  1531.7   203.5   1-0.53678 0.15315-0.84063 0.74111 0.07218 0.65369  0 146.22  73.07  121.26 146.12  72.93  121.34
  -3  -1  10  1584.1   269.3   2-0.04155-0.34140-0.94688 0.84735 0.31888 0.40674  0 223.86  11.94   90.93 223.92  12.59   91.32
  -3   1  10  1806.2   206.6   1-0.29165-0.09198-0.85246 0.95199 0.43388 0.29199  0 193.28  31.63  146.89 192.96  32.05  146.56
  -3   1  10  1554.0   279.5   2-0.08833-0.29463-0.83768 0.93721 0.53897 0.18665  0 219.15  15.17   76.97 219.21  15.13   76.95
   3  -1 -10  1140.8   214.8   2-0.00967 0.39259 0.80961-0.90919-0.58689-0.13874  0 105.44 128.77  254.39 105.32 128.68  254.43
   3  -1  10  1196.9   212.1   1-0.24552 0.62905-0.83890 0.73943 0.48576 0.23988  0  72.89 246.94  151.12  72.89 246.78  150.61
   3  -1  10  1491.1   206.3   2-0.05214 0.43510-0.92715 0.82762 0.37104 0.35458  0  75.83 212.93   88.02  75.74 212.95   88.05
   3   1 -10  1566.7   240.0   2-0.05639 0.43931 0.92597-0.82639-0.37337-0.35226  0 102.79 132.84  268.46 102.97 132.91  268.59
   3   1  10  1453.3   242.8   1-0.09845 0.48197-0.77134 0.87082 0.62876 0.09687  0  76.01 217.43  162.95  75.80 217.38  163.01
   3   1  10  1562.0   204.5   2-0.11039 0.49334-0.76546 0.86499 0.63394 0.09168  0  74.97 218.75   70.33  74.82 218.90   70.04
  -3  -1  11 205.028 190.377   1-0.49062 0.10699-0.85748 0.75796 0.15499 0.64347  0 125.95  47.67  127.50 125.92  47.57  126.85
   3  -1 -11 426.272 227.475   2-0.00664 0.38956 0.79987-0.89945-0.60013-0.19806  0  84.59 104.12  253.45  84.48 104.20  253.47
   3  -1  11 744.412 217.726   1-0.22891 0.61244-0.83305 0.73358 0.50361 0.29458  0  45.24 234.74  152.39  45.27 234.74  152.05
   3  -1  11 365.231 170.555   2-0.06084 0.44380-0.90867 0.80915 0.41305 0.38513  0  48.51 201.03   85.51  48.85 200.93   85.37
   3   1 -11 277.708 205.636   2-0.04933 0.43225 0.91208-0.81250-0.40704-0.39116  0  81.91 108.62  266.50  81.95 108.62  266.47
   3   1  11 199.338 198.019   1-0.08989 0.47341-0.76633 0.86580 0.63613 0.16207  0  49.85 203.68  163.75  49.28 203.43  163.72
   3   1  11 245.081 167.431   2-0.11324 0.49619-0.75518 0.85471 0.64566 0.15252  0  47.81 207.14   69.49  47.81 207.10   69.13
  -3  -2   0 33345.0   457.3   1-0.39769 0.01452 0.29748-0.49643-0.86796 0.86796  0 204.78 215.90   25.98 204.77 215.93   25.72
  -3  -2   0 28276.9   280.3   2-0.22387-0.15902-0.03712-0.16188 0.97391-0.97391  0 420.92 233.03   22.11 421.25 233.19   22.12
  -3  -2   0 26558.6   274.7   2 0.11944-0.50245-0.69808 0.49911-0.70599 0.70599  0 360.30 157.91  155.67 360.43 158.06  155.72
  -3   2   0 26398.7   298.2   1-0.63592 0.25229-0.75640 0.95545-0.15320 0.15320  0 355.69 155.50  106.23 355.79 155.59  106.40
  -3   2   0 29344.4   330.1   2-0.22838-0.15451 0.02843 0.17057 0.97316-0.97316  0 344.49 151.60   18.20 344.60 151.75   18.35
  -3   2   0 27030.5   317.1   2 0.04995-0.43282 0.56380-0.36473-0.82440 0.82440  0 423.61 250.54  234.38 423.84 250.50  234.43
   3  -2   0 25993.9   292.1   1-0.17781 0.56134-0.81195 0.61300 0.55599-0.55599  0 248.85 352.06  156.27 248.61 351.97  156.41
   3  -2   0 27653.0   304.9   2-0.12527 0.50823-0.70891 0.50985 0.69409-0.69409  0 253.23 354.88   65.02 252.98 354.77   65.24
   3  -2   0 28673.6   309.4   2 0.13015 0.25287-0.21760 0.01864-0.96732 0.96732  0 196.45 269.12  187.34 196.32 268.99  187.45
   3   2   0 29435.5   262.7   2 0.09171 0.29117 0.29135-0.09229-0.95221 0.95221  0 238.81 345.41  216.87 238.65 345.20  216.96
   3   2   0 24196.5   237.7   2-0.20133 0.58422 0.85491-0.65581 0.47811-0.47811  0 199.34 285.59  320.51 199.36 285.61  320.19
  -3  -2  -1 35694.1   488.0   1-0.30496-0.07821 0.41807-0.61702-0.85570 0.78305  0 199.88 224.74   17.09 199.87 224.75   16.98
  -3  -2  -1 30238.5   453.6   1-0.01108-0.37245-0.71573 0.51679 0.69829-0.77085  0 419.03 217.74  169.99 419.29 217.80  170.16
  -3  -2  -1 30869.1   278.9   2-0.17545-0.20744-0.46100 0.26200 0.86988-0.94251  0 421.62 227.15   47.76 422.05 227.35   47.49
  -3  -2  -1 32491.9   287.4   2 0.13311-0.51612-0.40817 0.20921-0.90315 0.83057  0 365.99 158.63  175.99 366.22 158.77  175.89
  -3  -2   1 33560.9   451.4   1-0.49183 0.10866 0.15250-0.35145-0.85723 0.92988  0 207.25 206.86   35.67 207.23 206.91   35.64
  -3  -2   1 27916.4   312.3   2 0.09692-0.47994-0.85372 0.65453-0.51164 0.58416  0 351.01 151.81  141.05 351.18 151.88  141.33
  -3   2  -1 28201.3   355.5   1-0.62591 0.24228-0.76970 0.96875-0.12570 0.05311  0 375.38 163.72  107.84 375.46 163.79  108.24
  -3   2  -1 31810.1   333.9   2 0.08968-0.47255 0.30836-0.10929-0.94703 0.87450  0 425.42 246.00  218.01 425.66 246.02  217.99
  -3   2   1 28307.4   246.6   1-0.66345 0.27982-0.70845 0.90750-0.24068 0.31327  0 335.21 147.03  100.41 335.33 147.14  100.47
  -3   2   1 31220.6   363.7   2-0.20341-0.17948-0.25525 0.45425 0.94524-0.87261  0 336.81 147.50   34.89 336.92 147.65   34.80
  -3   2   1 30840.4   359.3   2 0.00966-0.39253 0.74326-0.54419-0.66893 0.74147  0 426.18 259.55  248.04 426.40 259.53  248.27
   3  -2  -1 30605.9   343.1   2 0.11191 0.27097 0.09472-0.29378-0.98919 0.91666  0 194.40 261.24  205.46 194.31 261.22  205.43
   3  -2   1 28660.9   353.5   1-0.27537 0.65900-0.84806 0.64901 0.45273-0.38015  0 232.74 342.03  147.55 232.56 341.91  148.01
   3  -2   1 30195.6   308.4   2-0.16908 0.55204-0.49593 0.29688 0.85174-0.77918  0 248.77 354.27   49.81 248.57 354.15   49.79
   3  -2   1 27539.7   295.0   2 0.13018 0.25283-0.53523 0.33627-0.83461 0.90719  0 195.37 273.16  167.68 195.23 273.03  167.61
   3   2  -1 35782.8   471.2   1-0.18817 0.57134 0.54605-0.34710-0.81635 0.74370  0 409.26 318.14    7.00 409.51 318.03    6.78
   3   2  -1 32800.3   315.8   2 0.12589 0.25713-0.12017 0.31914-0.98474 0.91216  0 247.24 353.32  192.99 246.92 353.03  193.12
   3   2  -1 26055.7   282.7   2-0.17766 0.56055 0.93481-0.73571 0.30752-0.38014  0 195.67 275.29  309.44 195.63 275.27  309.18
   3   2   1 32024.9   253.3   2 0.02026 0.36261 0.70153-0.50247-0.71235 0.78488  0 233.16 342.94  244.89 233.09 342.79  244.76
   3   2   1 27757.2   236.2   2-0.22844 0.61133 0.65883-0.45973 0.71677-0.64414  0 199.35 291.34  338.43 199.37 291.40  338.18
  -3  -2  -2  4518.2   203.3   1-0.22169-0.16148 0.51167-0.71062-0.83009 0.68479  0 192.88 233.47    9.78 192.85 233.49    9.64
  -3  -2  -2  4011.6   214.5   1-0.10472-0.27881-0.77492 0.57597 0.62333-0.76845  0 429.27 227.74  162.56 429.47 227.79  162.49
  -3  -2  -2  3699.5   122.7   2-0.10931-0.27365-0.76937 0.57032 0.62938-0.77450  0 428.67 227.98   70.32 428.96 228.06   70.39
  -3  -2  -2  4073.0   129.8   2 0.12082-0.50383-0.02978-0.16918-0.99223 0.84707  0 367.30 152.57  198.05 367.33 152.66  198.32
  -3  -2   2  4216.2   178.8   1-0.57628 0.19311-0.00843-0.19052-0.81721 0.96250  0 207.17 197.54   46.12 207.15 197.55   46.31
  -3  -2   2  3256.0   154.2   2 0.07613-0.45915-0.92962 0.73043-0.36057 0.50562  0 339.80 142.46  131.56 339.98 142.51  131.63
  -3  -2   2  3745.0   159.3   2-0.23613-0.14676 0.52836-0.72746 0.81552-0.67028  0 432.85 258.38  347.92 433.15 258.37  347.64
  -3   2  -2  3363.3   174.4   1-0.62471 0.24108-0.77119 0.97024-0.12250-0.02268  0 395.36 171.71  108.40 395.68 171.82  108.46
  -3   2  -2  3819.6   147.4   2 0.11744-0.50031 0.02297 0.17610-0.99281 0.84775  0 432.18 246.48  201.25 432.35 246.57  201.32
  -3   2  -2  3553.6   147.1   2-0.23122-0.15167 0.62187-0.42277 0.74821-0.89346  0 350.55 145.54  341.01 350.46 145.64  340.98
  -3   2   2  3825.3   172.1   2-0.17633-0.20656-0.45539 0.65439 0.87266-0.72740  0 327.08 140.10   47.00 327.20 140.22   47.13
  -3   2   2  3637.0   170.9   2-0.02472-0.35820 0.85297-0.65381-0.52138 0.66651  0 431.99 271.95  259.00 432.20 272.03  258.99
   3  -2  -2  3499.1   162.4   2-0.05685 0.43981-0.91738 0.71832 0.39393-0.53906  0 268.51 369.36   86.70 268.58 369.31   86.60
   3  -2  -2  3831.0   146.4   2 0.08676 0.29612 0.33102-0.53009-0.93963 0.79456  0 190.04 250.83  219.29 189.93 250.85  219.37
   3  -2   2  3621.8   156.4   1-0.32446 0.70809-0.85963 0.66058 0.39467-0.24950  0 217.11 332.66  143.56 216.96 332.56  143.61
   3  -2   2  3841.3   127.4   2-0.20690 0.58979-0.22375 0.02475 0.95243-0.80718  0 247.13 359.12   32.98 246.97 358.94   32.93
   3  -2   2  3720.0   123.4   2 0.11140 0.27162-0.76736 0.56840-0.63147 0.77662  0 190.69 272.86  149.90 190.59 272.74  149.93
   3   2  -2  4387.9   217.2   1-0.28241 0.66558 0.44466-0.24571-0.85001 0.70472  0 409.48 329.11   15.22 409.66 329.05   14.95
   3   2  -2  3742.2   149.2   2 0.13305 0.24996-0.39744 0.59640-0.90793 0.76277  0 256.84 364.50  176.71 256.88 364.30  176.56
   3   2  -2  3258.5   127.3   2-0.15993 0.54282 0.96829-0.76919 0.19194-0.33718  0 189.90 262.84  302.27 189.83 262.83  302.13
   3   2   2  3643.4    98.8   2-0.04932 0.43224 0.91205-0.71289-0.40709 0.55222  0 231.87 348.21  266.61 231.74 348.06  266.47
  -3  -2  -3  48.718  82.576   1-0.15202-0.23115 0.58092-0.77987-0.79964 0.58170  0 184.37 242.17    3.56 183.89 242.21    3.74
  -3  -2  -3  -4.381 109.307   1-0.18996-0.19356-0.81730 0.61836 0.54400-0.76169  0 442.85 237.72  155.53 442.85 237.92  155.39
  -3  -2  -3  22.548  55.984   2-0.05851-0.32445-0.91383 0.71478 0.40185-0.61954  0 441.65 234.18   86.00 441.59 234.25   86.09
  -3  -2  -3  41.096  61.750   2 0.09323-0.47611 0.27882-0.47789-0.95581 0.73821  0 364.97 140.67  216.17 364.84 140.91  216.21
  -3  -2   3  63.994  71.460   1-0.64171 0.25850-0.17092-0.02803-0.74766 0.96561  0 204.54 187.66   57.42 204.43 187.78   57.12
  -3  -2   3 -47.703  76.898   2 0.05894-0.44196-0.96771 0.76852-0.24507 0.46264  0 327.83 131.09  124.49 327.82 131.18  124.63
  -3  -2   3  55.957  79.134   2-0.22926-0.15363 0.64839-0.84748 0.72597-0.50810  0 443.41 274.72  339.18 443.09 274.74  338.99
  -3   2  -3 -21.661 103.149   1-0.62822 0.24459-0.76677 0.96582-0.13193-0.08583  0 416.94 179.76  108.20 417.14 179.77  107.83
  -3   2  -3  27.318  65.480   2 0.13023-0.51325-0.22000 0.41897-0.96677 0.74903  0 443.94 251.54  187.47 443.75 251.63  187.31
  -3   2  -3  26.296  69.303   2-0.21215-0.17074 0.79729-0.59820 0.56508-0.78295  0 348.66 135.40  326.62 348.89 135.35  326.26
  -3   2   3 -91.265  81.556   2-0.15339-0.22957-0.58172 0.78078 0.79880-0.58111  0 316.16 130.70   55.56 316.21 130.44   55.64
  -3   2   3  47.457  82.825   2-0.05199-0.33093 0.91756-0.71841-0.39417 0.61186  0 440.45 286.97  267.58 440.65 287.00  267.29
   3  -2  -3 -14.502  78.045   2-0.03388 0.41684-0.95917 0.76012 0.28078-0.49846  0 278.48 381.24   93.89 278.51 381.19   93.67
   3  -2  -3   8.339  53.904   2 0.06349 0.31939 0.48740-0.68646-0.87087 0.65327  0 183.80 239.05  229.40 183.89 238.80  229.23
   3  -2   3  36.738  63.402   1-0.34920 0.73283-0.86367 0.66462 0.36349-0.14573  0 201.21 323.69  141.43 201.37 323.67  141.32
   3  -2   3  50.365  48.800   2-0.22894 0.61183 0.03739-0.23639 0.97272-0.75484  0 248.02 368.60   17.56 247.78 368.76   17.83
   3  -2   3 -51.017  40.431   2 0.08672 0.29630-0.89588 0.69670-0.43575 0.65332  0 183.06 268.82  136.57 182.76 268.76  136.36
   3   2  -3 -42.734  93.878   1-0.36496 0.74813 0.34226-0.14331-0.86583 0.64789  0 413.22 340.93   22.44 413.44 341.02   22.54
   3   2  -3  50.792  81.941   2 0.12916 0.25386-0.55824 0.75721-0.81956 0.60183  0 267.76 377.91  166.25 267.62 377.72  166.03
   3   2  -3  33.747  51.902   2-0.14564 0.52856 0.98354-0.78439 0.10690-0.32459  0 183.07 249.11  297.11 182.69 249.26  297.13
   3   2   3  31.873  33.459   2-0.22295 0.60584-0.04983 0.24883 0.97356-0.75567  0 185.04 284.69   22.75 185.17 284.79   22.85
   3   2   3  92.765  36.999   2-0.09157 0.47449 0.97642-0.77726-0.19550 0.41319  0 233.75 359.55  279.18 233.65 359.63  279.38
  -3  -2  -4  2792.4   229.7   1-0.26575-0.11788-0.84519 0.64614 0.46371-0.75406  0 459.26 248.52  148.86 459.40 248.54  148.86
  -3  -2  -4  2810.2   154.3   2-0.02448-0.35847-0.97217 0.77311 0.23301-0.52326  0 458.21 243.77   96.71 458.40 243.84   96.57
  -3  -2  -4  2962.9   160.8   2 0.06571-0.44859 0.47412-0.67318-0.87801 0.58787  0 360.56 125.29  228.15 360.46 125.41  228.37
  -3  -2   4  2845.2   161.7   1-0.68316 0.29995-0.32214 0.12319-0.65538 0.94597  0 199.22 177.41   67.46 199.20 177.48   67.54
  -3  -2   4  2650.0   195.6   2 0.04434-0.42737-0.98723 0.78804-0.15302 0.44311  0 314.95 118.22  119.23 315.11 118.29  119.20
  -3  -2   4  2452.0   190.4   2-0.22297-0.15992 0.71537-0.91446 0.66222-0.37173  0 455.00 292.84  334.05 455.00 292.88  333.64
  -3   2  -4  3067.8   221.1   1-0.63432 0.25069-0.75861 0.95766-0.14881-0.14154  0 440.15 187.84  106.65 440.45 187.78  106.70
  -3   2  -4  3052.7   174.8   2 0.13307-0.51609-0.39208 0.59104-0.91026 0.61994  0 458.88 259.88  177.02 459.14 259.95  176.90
  -3   2  -4  2602.5   168.8   2-0.19087-0.19202 0.89637-0.69727 0.40012-0.69061  0 345.48 121.29  315.16 345.39 121.47  315.03
  -3   2   4  3008.8   203.8   2-0.13686-0.24609-0.66039 0.85945 0.73835-0.44810  0 304.28 118.63   61.32 304.31 118.76   61.42
  -3   2   4  2826.2   209.8   2-0.07388-0.30904 0.95514-0.75598-0.28680 0.57705  0 451.31 304.02  273.82 451.41 304.11  273.91
   3  -2  -4  2529.9   188.7   2-0.01578 0.39874-0.98227 0.78321 0.18681-0.47706  0 289.40 395.59   99.35 289.40 395.44   99.33
   3  -2  -4  2775.3   166.9   2 0.04550 0.33738 0.58672-0.78579-0.80851 0.51837  0 176.55 225.71  236.25 176.45 225.63  236.04
   3  -2   4  2549.0   171.8   1-0.35997 0.74360-0.86507 0.66601 0.34941-0.05906  0 185.47 315.18  140.07 185.42 315.09  140.30
   3  -2   4  2999.9   142.5   2-0.23766 0.62055 0.23772-0.43672 0.94181-0.65130  0 250.36 382.52    6.08 250.12 382.41    6.17
   3  -2   4  2561.7   130.0   2 0.06372 0.31930-0.95896 0.75977-0.27629 0.56639  0 172.62 262.61  126.14 172.52 262.46  126.49
   3   2  -4  3017.3   215.4   1-0.43251 0.81568 0.24721-0.04826-0.86708 0.57649  0 420.62 354.24   28.97 420.88 354.22   29.21
   3   2  -4  2879.1   191.0   2 0.12347 0.25955-0.65082 0.84978-0.74913 0.45881  0 279.12 393.22  159.23 278.99 393.11  159.38
   3   2  -4  2476.6   152.5   2-0.13368 0.51660 0.99033-0.79117 0.03712-0.32737  0 174.55 235.33  293.14 174.48 235.11  293.02
   3   2   4  2864.1   123.6   2-0.19805 0.58094-0.30089 0.49989 0.93287-0.64236  0 173.87 276.92   37.61 173.74 276.87   37.53
   3   2   4  2539.9   117.3   2-0.11660 0.49952 0.99134-0.79219-0.06035 0.35060  0 237.18 375.21  287.42 236.97 375.01  287.32
  -3  -2  -5  1608.0   199.6   1-0.33239-0.05124-0.86108 0.66202 0.38479-0.74773  0 479.49 259.81  142.77 479.42 259.88  142.88
  -3  -2  -5  1579.9   168.4   2-0.00050-0.38252-0.99412 0.79493 0.10830-0.47092  0 478.40 255.58  103.86 478.58 255.53  103.99
  -3  -2  -5  1755.3   170.2   2 0.04543-0.42831 0.58706-0.78613-0.80827 0.44560  0 355.26 107.01  235.98 355.19 107.18  236.07
  -3  -2   5  1642.1   156.5   1-0.70133 0.31812-0.45345 0.25450-0.55001 0.91325  0 191.77 166.43   76.99 191.65 166.44   77.25
  -3  -2   5  1234.4   159.8   2 0.03160-0.41462-0.99662 0.79744-0.07577 0.43838  0 301.69 103.92  114.62 301.89 104.04  114.68
  -3  -2   5  1262.2   163.1   2-0.21856-0.16433 0.75314-0.95223 0.62050-0.25738  0 468.64 312.85  330.67 468.99 312.83  330.37
  -3   2  -5  1685.4   197.3   1-0.64184 0.25821-0.74766 0.94672-0.17043-0.19251  0 466.05 196.12  105.36 466.26 196.03  105.24
  -3   2  -5  1444.5   176.6   2 0.13126-0.51428-0.50460 0.70357-0.85331 0.49042  0 478.11 270.77  169.70 478.24 270.78  169.66
  -3   2  -5  1085.2   137.0   2-0.17090-0.21198 0.94958-0.75048 0.26285-0.62597  0 340.77 104.56  306.52 340.75 104.64  306.42
  -3   2   5  1538.6   177.1   2-0.12537-0.25758-0.70849 0.90754 0.69450-0.33169  0 291.66 105.35   65.00 291.67 105.47   65.21
  -3   2   5  1471.0   178.4   2-0.09171-0.29121 0.97656-0.77740-0.19472 0.55753  0 463.98 323.19  279.37 464.29 323.37  279.43
   3  -2  -5  1632.6   157.0   2 0.03246 0.35041 0.64905-0.84811-0.76006 0.39739  0 167.93 211.56  240.67 167.78 211.50  240.63
   3  -2   5  1368.3   168.1   1-0.36194 0.74557-0.86529 0.66623 0.34682 0.01612  0 168.89 306.73  139.86 168.87 306.67  140.11
   3  -2   5  1226.4   121.1   2 0.04395 0.33907-0.98761 0.78843-0.15062 0.51324  0 160.41 254.81  119.00 160.34 254.70  119.06
   3  -2   5  1363.3   133.6   2-0.23860 0.62152 0.37574-0.57480 0.89548-0.53228  0 253.56 399.44  357.59 253.49 399.38  357.48
   3   2  -5  1852.1   221.2   1-0.48457 0.86774 0.16485 0.03410-0.85908 0.49584  0 431.73 369.07   34.70 431.85 369.09   34.82
   3   2  -5 288.649 116.490   2 0.11876 0.26426-0.70493 0.90390-0.69926 0.33636  0 291.10 410.61  155.26 291.05 410.56  155.17
   3   2  -5  1482.2   141.0   2-0.12318 0.50610 0.99210-0.79295-0.02356-0.33926  0 165.14 220.48  289.51 165.20 220.32  289.47
   3   2   5  1559.4   116.0   2-0.17647 0.55936-0.45450 0.65350 0.87309-0.50996  0 160.77 267.87   47.13 160.62 267.89   47.07
   3   2   5  1341.6   118.1   2-0.13336 0.51628 0.99044-0.79128 0.03521 0.32761  0 241.06 393.23  292.86 240.71 393.02  292.91
  -3  -2  -6 11133.0   411.1   1-0.39045 0.00682-0.86750 0.66845 0.30820-0.74373  2 503.16 272.38  137.35 503.36 272.33  137.36
  -3  -2  -6  9767.1   298.2   2 0.01690-0.39992-0.99980 0.80061 0.01105-0.44620  0 502.56 269.06  109.75 502.71 269.02  109.65
  -3  -2  -6 11500.6   321.3   2 0.03186-0.41473 0.65181-0.85087-0.75772 0.32251  0 349.55  86.19  240.90 349.49  86.48  240.84
  -3  -2   6 10767.5   314.1   1-0.70041 0.31720-0.56171 0.36276-0.44035 0.87624  0 182.07 154.30   85.70 181.96 154.40   86.07
  -3  -2   6  9906.7   355.7   2 0.02010-0.40312-0.99976 0.80058-0.00822 0.44336  0 287.89  88.08  110.73 288.10  88.27  110.78
  -3  -2   6 10088.2   366.4   2-0.21573-0.16716 0.77379-0.97289 0.59558-0.15984  0 485.07 334.94  328.76 485.37 334.97  328.50
  -3   2  -6 10722.3   397.0   1-0.64998 0.26635-0.73442 0.93347-0.19533-0.24019  0 495.21 204.76  103.54 495.43 204.73  103.56
  -3   2  -6 10248.5   320.6   2 0.12828-0.51130-0.57574 0.77470-0.80750 0.37203  0 501.04 283.65  165.29 501.23 283.84  164.82
  -3   2  -6  9462.5   315.8   2-0.15303-0.22986 0.97689-0.77779 0.14925-0.58499  0 335.55  84.85  299.84 335.50  85.10  299.58
  -3   2   6  9988.4   363.1   2-0.11791-0.26504-0.73743 0.93648 0.66506-0.22968  0 278.14  90.35   67.52 278.25  90.57   67.60
  -3   2   6  9766.7   383.5   2-0.10686-0.27606 0.98770-0.78854-0.11416 0.54955  0 479.59 344.89  283.88 479.64 345.01  284.18
   3  -2  -6 10141.1   373.3   2 0.01240 0.37062-0.99925 0.80007 0.03659-0.47173  0 314.13 431.53  107.80 314.16 431.28  108.18
   3  -2  -6 10797.8   329.5   2 0.02354 0.35933 0.68785-0.88692-0.72547 0.29026  0 157.89 196.36  243.67 157.82 196.39  243.66
   3  -2   6  9316.8   329.3   1-0.35786 0.74149-0.86482 0.66577 0.35217 0.08335  0 151.43 298.32  140.44 151.43 298.28  140.50
   3  -2   6 10169.5   273.9   2 0.02722 0.35580-0.99842 0.79923-0.04925 0.48439  0 146.50 246.11  112.77 146.44 246.04  113.14
   3  -2   6 10337.4   299.3   2-0.23740 0.62032 0.46535-0.66441 0.85269-0.41686  0 256.77 419.16  352.01 257.01 419.03  351.75
   3   2  -6 10159.3   349.8   1-0.52286 0.90603 0.09768 0.10127-0.84681 0.41092  0 446.29 386.34   38.70 446.51 386.16   39.30
   3   2  -6  9855.8   311.4   2-0.11339 0.49631 0.99046-0.79130-0.07829-0.35709  0 154.71 204.97  286.17 154.75 204.79  286.28
   3   2   6 10852.5   357.5   1 0.02561 0.35792-0.68898 0.88792 0.72433-0.28895  0 146.94 247.14  172.93 146.93 247.16  173.16
   3   2   6 10518.1   265.2   2-0.16000 0.54296-0.54633 0.74539 0.82214-0.38677  0 146.03 258.42   53.07 145.99 258.47   53.19
   3   2   6 10125.9   265.6   2-0.14625 0.52917 0.98305-0.78389 0.11058 0.32480  0 244.87 413.82  297.36 244.49 413.48  297.34
  -3  -2  -7  1316.9   183.3   2 0.02338-0.40626 0.68853-0.88759-0.72483 0.21710  0 343.59  62.98  243.77 343.65  63.11  243.71
  -3  -2   7  1599.8   199.3   1-0.68536 0.30215-0.64793 0.44897-0.33237 0.84091  0 170.24 141.10   93.93 170.26 141.07   94.04
  -3  -2   7  1083.8   214.0   2 0.00954-0.39256-0.99856 0.79937 0.05280 0.45486  0 273.40  70.77  106.94 273.58  70.78  107.24
  -3  -2   7  1133.7   231.7   2-0.21424-0.16865 0.78375-0.98285 0.58295-0.07459  2 504.18 359.73  327.73 504.65 359.91  327.57
  -3   2  -7  1493.2   201.8   2-0.13650-0.24642 0.98920-0.79004 0.05340-0.56135  0 330.02  62.45  293.67 330.08  62.71  293.97
  -3   2   7  1471.1   232.7   2-0.11359-0.26937-0.75387 0.95292 0.64713-0.13920  0 263.96  73.70   68.92 263.90  73.84   69.01
  -3   2   7  1353.0   242.5   2-0.11994-0.26298 0.99189-0.79273-0.04198 0.54992  0 497.94 369.58  288.47 497.87 369.60  288.40
   3  -2  -7  1453.0    89.6   1-0.45909 0.84226 0.20621-0.40516-0.86413 0.35560  0 325.70 454.11   32.19 325.57 453.96   32.02
   3  -2  -7  1167.9   222.5   2 0.02347 0.35955-0.99934 0.80016-0.02759-0.48008  0 328.48 454.03  111.62 328.35 453.69  111.91
   3  -2  -7  1010.5   156.3   2 0.01783 0.36504 0.71129-0.91035-0.70268 0.19494  0 146.35 179.96  245.48 146.42 180.13  245.56
   3  -2   7  1116.9   167.7   1-0.34936 0.73299-0.86370 0.66464 0.36329 0.14482  0 132.75 289.66  141.20 132.79 289.76  141.30
   3  -2   7  1323.6   160.9   2 0.01253 0.37050-0.99928 0.80009 0.03587 0.47179  0 130.66 236.78  108.21 130.75 236.73  108.22
   3  -2   7  1253.3   188.9   2-0.23638 0.61927 0.52170-0.72080 0.81972-0.31136  0 260.47 441.95  348.02 260.66 441.79  348.09
   3   2  -7  1281.2   211.7   1-0.54994 0.93311 0.04592 0.15303-0.83394 0.32542  0 464.78 405.97   42.75 464.96 406.16   42.72
   3   2  -7  1353.8   223.0   2 0.11318 0.26983-0.75383 0.95279-0.64724 0.13919  0 317.89 453.17  150.98 317.92 453.33  151.10
   3   2  -7  1185.0   163.0   2-0.10404 0.48696 0.98616-0.78700-0.12912-0.37882  0 142.99 188.65  283.12 142.95 188.29  283.29
   3   2   7  1208.9   178.8   1 0.00498 0.37855-0.70435 0.90329 0.70983-0.20189  0 131.16 237.28  171.44 131.27 237.29  171.47
   3   2   7  1477.6   154.3   2-0.14959 0.53254-0.60055 0.79961 0.78547-0.27753  0 129.67 248.60   56.70 129.75 248.66   56.98
   3   2   7  1191.4   138.7   2-0.15723 0.54011 0.97191-0.77281 0.17514 0.33323  0 248.43 436.91  301.24 248.22 436.75  301.11
  -3  -2  -8  5853.8   363.5   2 0.01865-0.40152 0.70813-0.90720-0.70583 0.12556  0 337.74  36.08  245.26 337.68  36.54  245.30
  -3  -2   8  5253.2   285.2   1-0.66046 0.27683-0.71472 0.51567-0.23013 0.81083  0 156.62 126.06  100.81 156.64 126.09  101.19
  -3  -2   8  5669.6   413.3   2-0.00064-0.38238-0.99404 0.79485 0.10903 0.47116  0 257.82  51.02  103.72 258.01  51.15  103.95
  -3   2  -8  5413.6   373.3   2-0.12209-0.26083 0.99207-0.79291-0.02982-0.55069  0 323.76  36.79  289.00 324.07  37.05  289.11
  -3   2   8  4284.3   151.1   1-0.04001-0.34352-0.73528 0.93422 0.67659-0.09608  0 255.57  52.06  167.81 255.77  52.31  167.81
  -3   2   8  5758.1   343.7   2-0.11144-0.27152-0.76164 0.96069 0.63835-0.05785  0 248.52  54.84   69.63 248.40  54.91   69.70
   3  -2  -8  5054.5   177.6   1-0.55849 0.94166 0.02877-0.22772-0.82901 0.24784  0 349.03 480.60   43.97 349.05 480.47   43.85
   3  -2  -8  5481.7   424.5   2 0.03347 0.34955-0.99566 0.79648-0.08679-0.49340  0 344.38 480.43  115.28 344.24 480.09  115.33
   3  -2  -8  5677.7   305.4   2 0.01458 0.36829 0.72421-0.92328-0.68942 0.10915  0 133.51 162.49  246.61 133.34 162.49  246.63
   3  -2   8  5033.6   303.0   1-0.33732 0.72095-0.86191 0.66286 0.37859 0.20211  0 112.75 280.97  142.38 112.54 280.92  142.42
   3  -2   8  5165.9   260.2   2-0.00082 0.38384-0.99393 0.79474 0.11003 0.47016  0 113.36 226.82  104.18 113.02 226.84  103.89
   3  -2   8  5199.6   340.2   2-0.23494 0.61783 0.55710-0.75620 0.79652-0.21553  0 263.83 468.27  345.75 264.17 468.06  345.66
   3   2  -8  4319.9   380.5   1-0.56833 0.95150 0.00848 0.19047-0.82275 0.24158  0 487.77 430.32   45.01 487.87 430.15   45.20
   3   2  -8  5363.2   407.8   2 0.11212 0.27090-0.76194 0.96090-0.63787 0.05723  0 333.59 480.22  150.02 333.40 480.07  150.41
   3   2  -8  4963.3   289.4   2-0.09499 0.47791 0.97956-0.78040-0.17730-0.40321  0 129.23 170.66  280.43 129.51 170.57  280.46
   3   2   8  5231.4   311.6   1-0.00779 0.39132-0.71343 0.91238 0.70068-0.12017  0 113.87 226.65  170.43 113.69 226.65  170.43
   3   2   8  5330.0   249.5   2-0.14303 0.52599-0.63190 0.83095 0.76174-0.18124  0 111.88 238.52   59.27 111.58 238.58   59.27
   3   2   8  4495.6   259.7   2-0.16619 0.54908 0.95845-0.75935 0.23185 0.34914  0 251.71 463.69  304.70 251.53 463.29  304.54
  -3  -2   9 25441.0   539.7   1-0.62862 0.24499-0.76626 0.56721-0.13301 0.78629  0 140.63 108.60  107.78 140.74 108.81  107.76
  -3  -2   9 23749.4   606.2   2-0.01051-0.37251-0.98676 0.78758 0.16183 0.49088  0 241.04  28.60  101.00 241.02  28.80  100.84
  -3   2  -9 22586.9   639.5   2-0.10873-0.27419 0.98862-0.78947-0.10392-0.54915  2 317.33   7.05  284.91 317.80   7.23  284.77
  -3   2   9 26193.6   324.6   1-0.05669-0.32683-0.74608 0.94503 0.66344-0.01037  0 237.78  30.24  166.36 238.05  30.59  166.44
  -3   2   9 25997.6   644.7   2-0.11103-0.27193-0.76312 0.96218 0.63665 0.01641  0 231.59  33.13   70.09 231.38  33.31   69.83
   3  -2  -9 26813.3   619.6   2 0.01321 0.36967 0.72958-0.92865-0.68377 0.03096  0 118.45 142.97  247.19 118.19 143.06  247.09
   3  -2   9 23013.9   591.4   1-0.32245 0.70608-0.85924 0.66019 0.39715 0.25613  0  90.59 271.58  143.80  90.24 271.56  143.79
   3  -2   9 24634.2   524.4   2-0.01329 0.39632-0.98420 0.78501 0.17659 0.47613  0  93.14 216.40  100.20  92.83 216.40   99.97
   3  -2   9 24729.1   601.4   2-0.23394 0.61683 0.57742-0.77652 0.78221-0.12860  0 267.25 498.93  344.25 267.47 498.78  344.22
   3   2  -9 24454.8   589.6   2-0.08617 0.46909 0.97086-0.77170-0.22362-0.42945  0 114.23 151.49  277.67 113.96 151.23  277.71
   3   2   9 26157.2   626.2   1-0.01388 0.39741-0.71768 0.91663 0.69623-0.04316  0  93.97 214.85  169.98  93.79 214.93  169.93
   3   2   9 24573.1   507.1   2-0.13953 0.52248-0.64823 0.84729 0.74855-0.09549  0  91.36 228.06   60.55  91.05 228.15   60.50
   3   2   9 22709.8   517.5   2-0.17413 0.55702 0.94285-0.74376 0.28408 0.36953  0 254.51 494.62  307.92 254.37 494.05  307.74
  -3  -2  10 927.539 197.714   1-0.59163 0.20800-0.80512 0.60607-0.04186 0.76773  0 122.34  88.11  113.71 122.36  88.48  113.81
  -3   2  10 613.309 252.620   2-0.11195-0.27101-0.75975 0.95881 0.64051 0.08512  2 212.31   8.47   69.52 212.31   8.22   69.53
   3  -2 -10 939.586 216.385   2 0.01330 0.36957 0.72922-0.92829-0.68415-0.04119  0 100.52 121.24  247.47 100.42 121.28  247.06
   3  -2  10 521.528 196.108   1-0.30496 0.68859-0.85567 0.65661 0.41813 0.30774  0  65.45 261.73  145.37  65.23 261.42  145.37
   3  -2  10 709.120 166.527   2-0.02550 0.40846-0.97086 0.77180 0.23830 0.48733  0  69.66 205.47   96.08  69.53 205.35   96.25
   3   2 -10 485.252 189.934   2-0.07745 0.46037 0.96015-0.76100-0.26853-0.45711  0  96.07 129.91  275.36  95.80 129.71  275.01
   3   2  10  1178.9   218.8   1-0.01436 0.39788-0.71801 0.91695 0.69588 0.02975  0  71.38 201.92  170.13  71.05 201.71  169.90
   3   2  10 676.893 167.994   2-0.13823 0.52118-0.65420 0.85326 0.74358-0.01796  0  67.13 217.22   60.54  67.47 217.27   60.95
  -3  -2  11  2693.7   288.2   1-0.55161 0.16798-0.83296 0.63391 0.04352 0.75494  0 101.08  64.68  119.33 100.97  64.13  119.44
   3  -2 -11  2810.7   317.0   2 0.01457 0.36831 0.72428-0.92335-0.68935-0.10852  0  79.87  96.45  246.61  79.20  96.36  246.64
   3  -2  11  2919.7   359.1   1-0.28537 0.66900-0.85082 0.65177 0.44121 0.35725  0  36.18 250.16  147.22  36.54 250.11  147.12
   3  -2  11  2409.6   272.0   2-0.03675 0.41971-0.95469 0.75563 0.29533 0.50286  0  42.65 193.31   93.00  42.17 193.38   92.77
   3   2 -11  2311.7   295.2   2-0.06871 0.45163 0.94748-0.74832-0.31235-0.48585  0  73.75 105.17  272.39  74.16 105.18  272.36
   3   2  11  2657.2   312.8   1-0.01003 0.39355-0.71500 0.91394 0.69905 0.09914  0  44.53 186.32  170.31  44.62 186.44  170.25
   3   2  11  2666.6   305.9   2-0.13860 0.52155-0.65250 0.85156 0.74500 0.05318  0  40.21 205.63   60.96  39.89 205.77   60.82
  -3  -3   0 -24.703  80.591   1-0.46325 0.08008 0.19959-0.49802-0.86346 0.86346  0 185.99 227.43   32.50 186.07 227.67   32.47
  -3  -3   0  27.415  66.880   2-0.21746-0.16543-0.11589-0.18261 0.96917-0.96917  0 444.86 253.89   26.49 444.83 253.83   26.66
  -3  -3   0  -5.008  72.398   2 0.12905-0.51207-0.56062 0.26218-0.81796 0.81796  0 347.93 134.05  165.31 347.47 134.16  165.87
  -3   3   0  29.937  64.307   1-0.70303 0.31982-0.50750 0.80593-0.49819 0.49819  0 360.89 138.17   81.52 361.02 138.24   81.53
  -3   3   0 -19.622  77.944   2-0.23216-0.15073 0.09703 0.20147 0.96783-0.96783  0 327.93 130.20   14.63 328.06 130.50   14.40
  -3   3   0  65.311  78.844   2 0.06503-0.44790 0.47815-0.17955-0.87587 0.87587  0 443.63 274.46  228.41 443.77 274.60  228.62
   3  -3   0  24.317  46.006   1-0.36576 0.74939-0.86569 0.56711 0.34176-0.34176  0 244.07 367.16  139.63 244.17 367.04  139.75
   3  -3   0 -62.566  75.618   2-0.15185 0.53481-0.58963 0.29105 0.79327-0.79327  0 267.28 378.10   56.49 267.28 378.39   56.20
   3  -3   0   3.760  51.141   2 0.13047 0.25255-0.22756-0.07088-0.96498 0.96498  0 182.02 249.10  186.92 182.08 249.25  186.86
   3   3   0  32.134 108.186   1-0.14770 0.53087 0.58485-0.28642-0.79758 0.79758  0 439.93 295.05    3.51 440.04 295.02    3.38
   3   3   0  -5.554  50.308   2 0.09374 0.28913 0.27457 0.02403-0.95699 0.95699  0 249.57 370.47  215.69 249.53 370.38  215.96
   3   3   0  30.099  45.774   2-0.22614 0.60903 0.68470-0.38605 0.69286-0.69286  0 182.23 267.49  336.54 182.16 267.61  336.14
  -3  -3  -1  2945.3   184.9   1-0.39002 0.00685 0.30797-0.60640-0.86778 0.79513  0 182.88 236.48   24.79 182.75 236.55   24.97
  -3  -3  -1  2270.0   142.2   2-0.18700-0.19589-0.38380 0.08530 0.90428-0.97691  0 446.48 248.89   42.83 446.75 249.06   42.60
  -3  -3  -1  2271.0   143.0   2 0.13279-0.51581-0.34861 0.05017-0.92781 0.85523  0 352.27 133.52  179.66 352.38 133.61  179.59
  -3  -3   1  2811.6   172.3   1-0.53411 0.15094 0.07679-0.37521-0.84192 0.91457  0 187.21 218.62   40.69 187.17 218.65   40.68
  -3  -3   1  2233.1   154.3   2-0.23384-0.14905 0.13070-0.42920 0.96345-0.89082  0 446.78 262.45   12.49 446.99 262.55   12.45
  -3  -3   1  2411.4   160.6   2 0.11712-0.50014-0.72039 0.42195-0.68361 0.75619  0 339.96 130.47  153.88 340.11 130.60  153.93
  -3   3  -1  2415.3   161.5   1-0.69716 0.31395-0.59019 0.88862-0.40701 0.33436  0 382.53 146.26   88.65 382.49 146.34   88.59
  -3   3  -1  2102.5   159.9   2 0.09187-0.47475 0.28998 0.00862-0.95261 0.88008  0 446.31 270.78  217.03 446.39 270.80  216.88
  -3   3   1  2404.0   101.2   1-0.67981 0.29660-0.30667 0.60510-0.66619 0.73884  0 337.75 129.80   66.48 337.70 129.93   66.44
  -3   3   1  2505.7   173.9   2-0.21783-0.16506-0.11166 0.41016 0.96958-0.89695  0 321.60 128.07   26.30 321.73 128.17   26.41
  -3   3   1  2413.1   169.7   2 0.03528-0.41816 0.63606-0.33746-0.77083 0.84337  0 444.71 282.05  239.80 444.81 282.00  239.65
   3  -3  -1  2242.2   103.2   1-0.24663 0.63015-0.83928 0.54086 0.48455-0.55711  0 264.05 378.87  150.52 264.08 378.75  150.51
   3  -3  -1  2189.2   161.1   2-0.12135 0.50431-0.72429 0.42570 0.67874-0.75130  0 273.06 382.20   66.34 273.18 382.07   66.50
   3  -3  -1  2289.0   134.7   2 0.11971 0.26316-0.00892-0.28968-0.99277 0.92023  0 181.29 243.25  199.43 181.23 243.21  199.48
   3  -3   1  2226.5   127.6   1-0.41285 0.79648-0.86777 0.56919 0.27663-0.20404  0 226.99 356.63  135.11 226.94 356.55  135.14
   3  -3   1  2377.8   158.9   2-0.18169 0.56458-0.42042 0.12192 0.88895-0.81633  0 263.18 378.68   44.81 263.25 378.54   44.90
   3  -3   1  2335.7   130.1   2 0.13249 0.25053-0.44872 0.15028-0.88380 0.95637  0 180.54 252.68  173.11 180.45 252.57  173.31
   3   3  -1  2717.6   215.0   1-0.23281 0.61597 0.49988-0.20146-0.83422 0.76157  0 438.27 306.16   10.64 438.41 306.04   10.60
   3   3  -1  1593.5   131.2   2 0.11834 0.26454 0.01065 0.28795-0.99292 0.92038  0 256.19 375.48  200.42 256.15 375.45  200.61
   3   3  -1  2125.4   119.2   2-0.21049 0.59338 0.80748-0.50883 0.55107-0.62369  0 180.30 260.17  325.48 180.41 260.24  325.24
   3   3   1  2457.1   118.3   2 0.05479 0.32809 0.53770-0.23910-0.84135 0.91389  0 245.02 369.79  232.65 244.92 369.62  232.62
   3   3   1  1897.1   105.8   2-0.23687 0.61976 0.50553-0.20688 0.82966-0.75703  0 181.08 271.81  349.19 181.09 271.82  349.19
  -3  -3  -2   5.365  76.403   1-0.32050-0.06267 0.39917-0.69760-0.85904 0.71374  0 177.33 245.24   19.10 177.29 245.37   18.39
  -3  -3  -2 161.293 121.610   1-0.02850-0.35502-0.72763 0.42922 0.68537-0.83050  0 453.00 241.77  168.53 453.02 241.55  168.74
  -3  -3  -2   1.087  71.027   2-0.14600-0.23695-0.61825 0.31967 0.77230-0.91742  0 453.41 248.59   58.60 453.20 248.63   58.27
  -3  -3  -2  31.970  69.922   2 0.12551-0.50853-0.11192-0.18652-0.98576 0.84060  0 354.24 128.39  193.52 354.48 128.49  193.59
  -3  -3   2  64.231  75.905   1-0.59674 0.21357-0.05416-0.24427-0.80060 0.94590  0 185.92 209.28   49.45 185.96 209.34   49.33
  -3  -3   2  37.143  93.147   2 0.10192-0.48494-0.82825 0.52947-0.55101 0.69605  0 330.68 123.64  143.91 330.90 123.60  144.01
  -3   3  -2 -20.617  94.510   1-0.68995 0.30674-0.62940 0.92783-0.35752 0.21222  0 404.26 154.13   92.30 404.17 154.17   92.23
  -3   3  -2 -21.218  82.155   2 0.11205-0.49493 0.09304 0.20556-0.98934 0.84427  0 453.16 270.74  205.61 452.90 270.76  205.34
  -3   3  -2  17.223  85.474   2-0.23627-0.14662 0.52488-0.22624 0.81773-0.96297  0 333.95 124.36  348.02 333.86 124.14  347.87
  -3   3   2  10.980  90.969   2-0.20018-0.18271-0.28305 0.58155 0.93798-0.79273  0 313.50 122.58   36.40 313.55 122.74   36.46
  -3   3   2 0.02282 87.6081   2 0.00622-0.38910 0.75599-0.45739-0.65456 0.79962  0 448.68 292.65  249.71 449.10 292.61  249.38
   3  -3  -2  27.382  85.083   2-0.09335 0.47630-0.82254 0.52395 0.56100-0.70613  0 280.82 389.17   74.89 280.70 389.23   75.41
   3  -3  -2  12.210  60.608   2 0.10424 0.27863 0.17895-0.47755-0.97832 0.83325  0 178.36 234.80  210.45 178.19 234.81  210.32
   3  -3   2  14.772  65.288   1-0.43281 0.81644-0.86692 0.56835 0.24723-0.10206  0 210.36 346.60  133.47 210.60 346.86  133.10
   3  -3   2  13.691  78.293   2-0.20603 0.58892-0.23181-0.06669 0.95069-0.80544  0 261.02 382.84   33.38 261.13 382.91   33.41
   3  -3   2  59.577  55.901   2 0.12432 0.25870-0.63968 0.34124-0.75852 0.90368  0 176.26 253.05  159.91 176.19 252.99  160.21
   3   3  -2  25.334 118.257   1-0.31023 0.69340 0.41171-0.11328-0.85689 0.71159  0 440.43 317.84   18.16 440.24 317.59   17.45
   3   3  -2  -6.401  84.097   2 0.12987 0.25314-0.20792 0.50636-0.96948 0.82433  0 264.51 384.23  188.56 264.25 384.07  188.01
   3   3  -2  32.908  51.609   2-0.19406 0.57694 0.88486-0.58622 0.42351-0.56876  0 176.35 250.51  316.46 176.39 250.51  316.55
   3   3   2 113.474  46.981   2-0.23864 0.62153 0.28443 0.01407 0.92852-0.78327  0 176.92 271.96    3.52 176.81 272.22    3.39
   3   3   2  20.291  44.163   2 0.00980 0.37307 0.74272-0.44412-0.66953 0.81460  0 242.39 373.84  248.48 242.63 373.74  248.22
  -3  -3  -3  1630.9   164.9   1-0.25815-0.12502 0.47220-0.77063-0.84285 0.62490  0 169.84 254.23   12.64 169.84 254.28   12.81
  -3  -3  -3  1020.1   168.6   1-0.11290-0.27062-0.77946 0.48105 0.61619-0.83388  0 464.76 252.64  162.08 464.85 252.57  161.82
  -3  -3  -3  1012.0   116.6   2-0.10471-0.27825-0.78505 0.48646 0.61052-0.82821  0 464.07 252.29   71.72 464.24 252.27   71.80
  -3  -3  -3  1007.6   118.6   2 0.11112-0.49399 0.10374-0.40234-0.98838 0.77078  0 354.09 118.90  205.77 353.96 118.99  205.95
  -3  -3   3  1125.0   137.6   1-0.64646 0.26325-0.18524-0.11319-0.74012 0.95807  0 182.50 199.64   57.96 182.47 199.66   58.09
  -3  -3   3  1033.4   144.3   2 0.08606-0.46908-0.89826 0.59948-0.43096 0.64853  0 320.28 114.13  135.99 320.33 114.20  136.05
  -3  -3   3  1080.0   131.9   2-0.23758-0.14534 0.45623-0.75481 0.85756-0.63964  0 460.94 289.15  352.44 461.17 289.06  352.34
  -3   3  -3  1096.5   162.5   1-0.68536 0.30215-0.64794 0.94637-0.33236 0.11441  0 426.95 161.63   94.01 427.03 161.85   94.04
  -3   3  -3  1174.9   136.9   2 0.12418-0.50720-0.08732 0.38576-0.98841 0.77067  0 463.34 274.26  195.26 463.45 274.37  195.01
  -3   3  -3  1248.0   141.5   2-0.22583-0.15706 0.68791-0.38927 0.68977-0.90764  0 333.57 115.13  335.75 333.54 115.26  335.89
  -3   3   3 916.169 138.876   2-0.18294-0.19995-0.41190 0.71040 0.89268-0.67479  0 303.94 114.71   44.35 303.93 114.75   44.36
  -3   3   3 918.295 140.999   2-0.02049-0.36243 0.84138-0.54264-0.54006 0.75775  0 456.06 306.15  257.61 456.06 306.11  257.72
   3  -3  -3  1052.9   143.2   2-0.06866 0.45161-0.89038 0.59179 0.45002-0.66770  0 289.54 399.56   82.81 289.61 399.51   82.96
   3  -3  -3  1051.1   125.1   2 0.08760 0.29528 0.32459-0.62319-0.94179 0.72419  0 173.38 224.52  218.98 173.32 224.54  218.98
   3  -3   3 860.514 114.262   1-0.43929 0.82292-0.86640 0.56782 0.23745-0.01969  0 194.54 337.79  132.30 194.40 337.77  132.43
   3  -3   3  1009.7   125.2   2-0.22296 0.60585-0.04971-0.24879 0.97356-0.75568  0 260.72 391.34   22.76 260.73 391.25   22.84
   3  -3   3 970.246 108.477   2 0.10953 0.27349-0.78123 0.48245-0.61456 0.83213  0 169.52 250.79  148.37 169.39 250.63  148.55
   3   3  -3  1094.8   163.7   1-0.37706 0.76023 0.32573-0.02731-0.86702 0.64908  0 445.38 329.96   24.16 445.59 329.94   23.71
   3   3  -3  1080.6   133.9   2 0.13296 0.25006-0.36771 0.66615-0.92039 0.70265  0 273.66 395.77  178.37 273.72 395.66  178.42
   3   3  -3 832.436 103.979   2-0.17864 0.56153 0.93243-0.63378 0.31412-0.53199  0 170.60 239.06  309.80 170.58 239.06  309.60
   3   3   3  1102.4    99.1   2-0.23019 0.61308 0.06067 0.23783 0.97125-0.75337  0 169.64 269.71   16.48 169.61 269.66   16.50
   3   3   3  1094.3   102.5   2-0.03177 0.41469 0.87146-0.57273-0.48943 0.70712  0 242.35 382.53  261.16 242.33 382.40  261.14
  -3  -3  -4 67418.3   793.2   1-0.20527-0.17790 0.52880-0.82723-0.82355 0.53296  0 160.52 263.35    8.01 160.51 263.37    8.23
  -3  -3  -4 52505.0   712.5   1-0.19164-0.19189-0.81802 0.51961 0.54233-0.83258  0 480.01 264.18  155.21 480.19 264.15  155.24
  -3  -3  -4 57634.0   565.8   2-0.06953-0.31342-0.88822 0.58963 0.45413-0.74438  0 479.40 259.20   82.93 479.64 259.31   82.69
  -3  -3  -4 60399.6   581.1   2 0.09381-0.47668 0.27400-0.57260-0.95714 0.66701  0 351.90 105.53  215.91 351.76 105.69  215.92
  -3  -3   4 53602.0   659.0   1-0.68050 0.29729-0.30960 0.01117-0.66413 0.95472  0 176.77 189.45   66.64 176.73 189.46   66.65
  -3  -3   4 50183.2   615.4   2 0.07101-0.45403-0.94285 0.64407-0.32556 0.61565  0 308.52 102.59  129.29 308.75 102.73  129.47
  -3  -3   4 52721.5   629.4   2-0.23540-0.14749 0.54710-0.84575 0.80328-0.51279  0 472.04 305.99  346.46 472.34 305.95  346.35
  -3   3  -4 53973.3   669.2   1-0.68340 0.30019-0.65491 0.95334-0.32258 0.03199  0 451.64 169.22   94.79 451.81 169.43   94.74
  -3   3  -4 51401.7   578.4   2 0.13064-0.51366-0.23344 0.53188-0.96355 0.67324  0 477.71 281.02  186.46 477.93 281.10  186.52
  -3   3  -4 49200.2   571.0   2-0.21091-0.17197 0.80501-0.50636 0.55450-0.84500  0 331.65 102.74  325.63 331.50 102.95  325.49
  -3   3   4 57658.3   681.0   2-0.16784-0.21512-0.50330 0.80189 0.84765-0.55741  0 293.02 104.39   50.02 293.15 104.59   50.27
  -3   3   4 54624.1   666.7   2-0.04385-0.33907 0.90031-0.60158-0.43303 0.72328  0 465.78 322.12  264.86 465.74 322.11  264.82
   3  -3  -4 59033.1   669.2   2 0.07247 0.31040 0.43110-0.72970-0.89939 0.60925  0 166.94 212.68  225.65 166.82 212.71  225.59
   3  -3   4 45598.0   606.2   1-0.43787 0.82150-0.86652 0.56795 0.23960 0.05075  0 177.94 329.15  132.53 177.92 329.09  132.57
   3  -3   4 56111.6   588.5   2-0.23262 0.61551 0.10629-0.40479 0.96674-0.67623  0 261.63 403.55   14.31 261.72 403.34   13.86
   3  -3   4 51707.0   557.6   2 0.09168 0.29134-0.87670 0.57792-0.47222 0.76232  0 160.35 246.42  138.64 160.26 246.24  138.71
   3   3  -4 55777.2   681.4   1-0.43233 0.81550 0.24747 0.05096-0.86709 0.57650  0 454.27 343.66   28.90 454.48 343.59   29.19
   3   3  -4 55280.6   632.8   2 0.13196 0.25105-0.47793 0.77638-0.86843 0.57811  0 284.27 410.16  171.43 284.22 409.88  171.42
   3   3  -4 50149.8   595.1   2-0.16442 0.54731 0.96141-0.66276 0.22057-0.51107  0 163.26 226.43  304.32 163.25 226.38  303.86
   3   3   4 58560.5   541.3   2-0.21636 0.59925-0.12824 0.42674 0.96786-0.67735  0 159.97 264.77   27.24 159.90 264.65   27.37
   3   3   4 54205.8   520.4   2-0.06494 0.44786 0.94119-0.64245-0.33158 0.62184  0 243.74 395.44  271.08 243.51 395.17  271.18
  -3  -3  -5  4945.1   264.5   1-0.16219-0.22098 0.57128-0.86971-0.80457 0.44133  0 149.35 272.79    4.65 149.34 272.80    4.59
  -3  -3  -5  4984.4   316.2   1-0.26350-0.12013-0.84450 0.54593 0.46624-0.82918  0 499.08 276.73  149.28 499.25 276.73  149.06
  -3  -3  -5  4660.2   239.3   2-0.04116-0.34180-0.94757 0.64898 0.31689-0.67970  0 498.97 269.09   91.55 499.24 269.11   91.44
  -3  -3  -5  4652.1   243.0   2 0.07775-0.46063 0.39637-0.69497-0.91479 0.55212  0 348.43  88.88  223.16 348.27  89.10  223.41
  -3  -3   5  4593.3   241.6   1-0.69871 0.31550-0.42213 0.12370-0.57759 0.94083  0 168.92 178.52   74.80 168.86 178.55   74.85
  -3  -3   5  4186.1   279.6   2 0.05704-0.44006-0.97081 0.67203-0.23297 0.59558  0 296.13  89.33  124.00 296.33  89.39  123.90
  -3  -3   5  4429.7   295.0   2-0.23224-0.15065 0.60665-0.90529 0.76029-0.39718  0 485.82 325.28  342.00 486.02 325.28  342.11
  -3   3  -5  4300.4   300.0   1-0.68350 0.30029-0.65457 0.95300-0.32306-0.04018  0 479.21 176.90   94.80 479.31 177.10   94.70
  -3   3  -5  4728.2   259.5   2 0.13276-0.51578-0.34419 0.64263-0.92947 0.56657  0 496.37 290.58  179.84 496.47 290.60  179.86
  -3   3  -5  4185.1   254.3   2-0.19434-0.18855 0.88381-0.58516 0.42557-0.78869  0 328.30  87.29  316.75 328.21  87.50  316.69
  -3   3   5  4521.1   287.6   2-0.15610-0.22686-0.56736 0.86595 0.80854-0.44573  0 281.22  92.12   54.61 281.32  92.38   54.64
  -3   3   5  4724.3   316.2   2-0.06421-0.31871 0.93994-0.64121-0.33523 0.69805  0 478.04 340.69  270.75 478.02 340.72  270.95
   3  -3  -5  4406.6   295.8   2-0.02934 0.41229-0.96583 0.66725 0.25751-0.62032  0 311.13 428.77   95.00 311.16 428.56   95.08
   3  -3  -5  4853.9   238.5   2 0.06021 0.32266 0.50672-0.80532-0.86000 0.49733  0 158.88 199.54  230.53 158.82 199.56  230.53
   3  -3   5  3818.7   225.8   1-0.43124 0.81487-0.86703 0.56845 0.24958 0.11336  0 160.89 320.70  133.34 160.84 320.66  133.26
   3  -3   5  4732.4   246.6   2-0.23738 0.62027 0.22843-0.52693 0.94418-0.58104  0 263.58 419.06    6.75 263.63 418.81    6.72
   3  -3   5  4227.9   198.9   2 0.07349 0.30953-0.93659 0.63781-0.34264 0.70526  0 149.07 240.36  130.16 149.04 240.20  130.52
   3   3  -5  4578.5   316.2   1-0.47584 0.85901 0.17913 0.11929-0.86110 0.49786  0 466.82 358.88   33.99 466.99 358.87   33.85
   3   3  -5  4117.2   218.1   2-0.15100 0.53392 0.97858-0.67984 0.13991-0.50273  0 154.52 212.63  298.97 154.54 212.51  299.08
   3   3   5  4704.3   189.2   2-0.20163 0.58452-0.27078 0.56928 0.94129-0.57815  0 148.08 258.11   35.86 148.03 258.04   35.72
   3   3   5  4310.7   188.9   2-0.09050 0.47342 0.97538-0.67664-0.20112 0.56394  0 245.79 411.58  279.14 245.56 411.32  279.05
  -3  -3  -6 10649.7   368.9   1-0.12864-0.25453 0.60233-0.90076-0.78781 0.35193  0 136.32 282.65    1.97 136.34 282.70    1.79
  -3  -3  -6  9761.9   339.8   2 0.06470-0.44757 0.48014-0.77874-0.87481 0.43960  0 344.09  69.18  228.76 344.02  69.44  228.75
  -3  -3   6  8901.9   317.1   1-0.70284 0.31963-0.52002 0.22159-0.48538 0.92127  0 158.95 166.59   82.48 158.92 166.68   82.56
  -3  -3   6  7492.4   357.8   2 0.04396-0.42699-0.98760 0.68882-0.15070 0.58584  0 282.81  73.96  118.98 283.06  74.10  119.07
  -3  -3   6  8477.1   387.4   2-0.22952-0.15337 0.64505-0.94370 0.72886-0.29312  2 502.21 347.27  339.40 502.55 347.28  339.24
  -3   3  -6  7494.5   333.3   2-0.17778-0.20511 0.93453-0.63589 0.30829-0.74403  0 324.08  68.62  309.25 323.96  68.96  309.22
  -3   3   6  8338.6   382.1   2-0.14749-0.23547-0.61098 0.90957 0.77778-0.34241  0 268.33  78.04   57.73 268.43  78.16   57.74
  -3   3   6  8799.7   406.8   2-0.08180-0.30112 0.96580-0.66706-0.24606 0.68144  0 493.07 362.08  276.33 493.17 362.21  276.36
   3  -3  -6  9563.2   398.5   2-0.01311 0.39614-0.98437 0.68559 0.17563-0.61078  0 323.81 447.74   99.98 323.83 447.49  100.02
   3  -3  -6  9695.0   342.2   2 0.05081 0.33207 0.55923-0.85783-0.82745 0.39225  0 149.29 185.06  233.99 149.29 185.11  234.11
   3  -3   6  7549.6   311.7   1-0.42083 0.80446-0.86757 0.56900 0.26498 0.17054  0 142.89 312.39  134.28 142.84 312.35  134.33
   3  -3   6  7933.1   271.1   2 0.05630 0.32673-0.97198 0.67320-0.22822 0.66336  0 135.79 233.05  123.37 135.80 232.93  123.62
   3   3  -6  8123.8   373.5   1-0.50896 0.89213 0.12256 0.17587-0.85202 0.41614  0 483.32 376.46   37.66 483.50 376.37   37.64
   3   3  -6  8145.0   376.7   2 0.12681 0.25621-0.60123 0.89967-0.78895 0.35348  0 308.31 446.70  163.00 308.18 446.47  163.02
   3   3  -6  7736.0   298.6   2-0.13888 0.52180 0.98803-0.68929 0.06722-0.50260  0 144.43 197.82  295.00 144.39 197.66  294.79
   3   3   6  9708.0   276.2   2-0.18864 0.57153-0.37196 0.67046 0.90888-0.47312  0 134.26 250.34   42.00 134.19 250.32   41.87
   3   3   6  8539.7   270.9   2-0.11070 0.49362 0.98949-0.69075-0.09301 0.52839  0 248.32 431.04  285.55 248.01 430.70  285.41
  -3  -3  -7  1511.6   213.0   2 0.05509-0.43796 0.53569-0.83429-0.84261 0.33488  0 339.34  46.19  232.38 339.25  46.47  232.48
  -3  -3   7  1591.3   196.5   1-0.69518 0.31197-0.60291 0.30448-0.39145 0.89998  0 147.02 153.65   89.80 146.89 153.57   89.75
  -3  -3   7  1539.6   250.3   2 0.03170-0.41473-0.99658 0.69780-0.07636 0.58402  0 268.69  56.85  114.67 268.82  56.75  114.72
  -3   3  -7  1625.3   234.9   2-0.16169-0.22120 0.96573-0.66709 0.20302-0.71138  0 319.14  46.98  303.04 319.07  47.08  302.79
  -3   3   7  1983.0   231.1   2-0.14137-0.24159-0.63967 0.93826 0.75553-0.24760  0 254.32  61.80   60.03 254.38  61.84   59.86
   3  -3  -7  1603.3   261.1   2 0.00100 0.38202-0.99498 0.69620 0.10010-0.60776  0 337.99 470.33  104.46 338.08 470.12  104.47
   3  -3  -7  1895.1   225.4   2 0.04387 0.33901 0.59474-0.89334-0.80272 0.29498  0 138.29 169.28  236.68 138.11 169.24  236.62
   3  -3   7  1545.1   200.4   1-0.40750 0.79113-0.86782 0.56924 0.28432 0.22379  0 123.70 303.92  135.65 123.54 303.99  135.67
   3  -3   7  1563.2   177.4   2 0.04018 0.34284-0.99104 0.69226-0.12734 0.63501  0 120.77 224.67  117.50 120.49 224.65  117.69
   3  -3   7  2016.6   232.9   2-0.23859 0.62150 0.38472-0.68330 0.89167-0.38319  0 269.00 460.31  357.23 269.22 460.21  356.92
   3   3  -7  1445.5   256.8   1-0.53340 0.91657 0.07813 0.22030-0.84225 0.33372  2 503.76 396.97   40.59 504.35 396.97   40.59
   3   3  -7  1565.7   247.3   2 0.12478 0.25823-0.63314 0.93159-0.76391 0.25586  0 321.87 469.93  160.69 322.01 469.70  160.69
   3   3  -7  1541.9   184.4   2-0.12757 0.51049 0.99183-0.69309 0.00100-0.50895  0 132.57 181.58  291.02 132.62 181.59  290.91
   3   3   7  1839.5   170.3   2-0.17857 0.56146-0.44112 0.73962 0.87950-0.37111  0 118.60 241.97   46.26 118.32 241.84   46.21
   3   3   7  1695.6   194.4   2-0.12716 0.51008 0.99188-0.69314-0.00134 0.50928  0 250.72 453.62  290.80 250.54 453.38  290.78
  -3  -3  -8 -28.698 217.132   2 0.04849-0.43136 0.57134-0.86994-0.81928 0.23901  0 334.36  19.61  234.89 334.17  19.75  234.95
  -3  -3   8 293.909 139.725   1-0.67822 0.29501-0.67152 0.37309-0.29846 0.87964  0 132.71 138.66   96.62 132.70 138.80   96.44
  -3  -3   8 -95.824 160.736   2 0.02008-0.40310-0.99977 0.70098-0.00814 0.58833  0 253.49  37.21  111.00 253.34  36.87  110.77
  -3   3  -8 -20.744 212.552   2-0.14597-0.23695 0.98328-0.68454 0.10888-0.68939  0 313.77  21.06  297.28 313.95  21.41  297.24
  -3   3   8  88.035 167.103   2-0.13751-0.24545-0.65748 0.95606 0.74082-0.16033  0 239.00  42.41   60.91 238.93  43.04   61.20
   3  -3  -8 139.521 258.820   2 0.01354 0.36948-0.99945 0.70067 0.03017-0.61036  0 354.38 497.17  108.46 354.35 497.23  108.55
   3  -3  -8  53.742 132.736   2 0.03917 0.34370 0.61781-0.91641-0.78535 0.20508  0 124.60 151.82  237.92 125.03 151.72  238.30
   3  -3   8  26.342 144.209   1-0.39167 0.77530-0.86755 0.56897 0.30651 0.27419  0 102.20 295.54  137.70 102.56 295.44  137.24
   3  -3   8 145.331 107.937   2 0.02522 0.35780-0.99897 0.70019-0.03764 0.61782  0 103.06 215.53  112.47 102.85 215.51  112.47
   3  -3   8 151.933 209.412   2-0.23811 0.62103 0.42960-0.72818 0.87106-0.28994  0 272.18 486.76  354.56 272.20 486.78  354.07
   3   3  -8 165.379 244.990   2 0.12332 0.25970-0.65272 0.95117-0.74749 0.16686  0 337.62 496.83  159.33 337.49 497.28  159.23
   3   3  -8  31.743 132.537   2-0.11663 0.49955 0.99135-0.69261-0.06018-0.52032  0 118.36 163.96  286.83 119.00 164.07  287.33
   3   3   8 117.210 104.301   2-0.17102 0.55391-0.48723 0.78573 0.85636-0.27535  0  99.66 232.64   48.99 100.19 232.71   49.20
   3   3   8-124.588 119.405   2-0.14075 0.52367 0.98694-0.68820 0.07837 0.50214  0 252.65 480.06  295.58 252.95 479.92  295.44
  -3  -3   9 144.718 153.988   1-0.65423 0.27060-0.72688 0.42830-0.20888 0.86217  0 116.24 122.17  102.43 116.19 121.92  102.64
  -3  -3   9  67.135 193.962   2 0.00907-0.39209-0.99842 0.69964 0.05541 0.59730  0 236.29  13.77  107.06 236.29  13.90  107.08
  -3   3   9-142.921 202.860   2-0.13524-0.24772-0.66697 0.96555 0.73271-0.07965  0 221.67  21.13   61.52 221.72  21.20   61.92
   3  -3  -9  -6.252 171.563   2 0.03630 0.34658 0.63149-0.93009-0.77453 0.12173  0 108.94 132.01  239.60 109.66 132.14  239.31
   3  -3   9 -86.294 163.274   1-0.37380 0.75743-0.86643 0.56785 0.33102 0.32226  0  79.08 286.60  138.48  79.34 286.47  138.98
   3  -3   9   0.295 124.372   2 0.01121 0.37181-0.99900 0.70022 0.04325 0.60946  0  82.58 205.41  107.90  82.47 205.52  107.79
   3   3  -9 265.522 171.875   2-0.10621 0.48913 0.98735-0.68861-0.11775-0.53532  0 103.09 144.59  283.61 103.08 144.71  283.97
   3   3   9 286.460 128.868   2-0.16543 0.54838-0.51643 0.81502 0.84020-0.18714  0  79.48 222.95   51.12  79.42 223.05   51.16
  -3  -3  10  1892.0   247.9   1-0.62438 0.24075-0.77159 0.47301-0.12165 0.84753  0  96.64 101.79  108.48  96.73 101.99  108.51
   3  -3 -10  2347.3   296.9   2 0.03489 0.34798 0.63787-0.93647-0.76935 0.04402  0  91.83 109.86  239.69  91.40 109.91  239.78
   3  -3  10  2123.6   264.4   1-0.35399 0.73762-0.86431 0.56573 0.35728 0.36859  0  53.80 276.64  141.13  53.13 276.83  140.87
   3  -3  10  2401.8   268.9   2-0.00225 0.38527-0.99309 0.69431 0.11736 0.60787  0  58.97 194.56  103.42  58.64 194.62  103.46
   3   3 -10  2531.7   298.4   2-0.09601 0.47894 0.98033-0.68160-0.17242-0.55322  0  84.79 123.19  280.67  84.27 122.92  280.75
   3   3  10  2443.6   272.3   2-0.16240 0.54535-0.53305 0.83164 0.83035-0.10473  0  55.24 212.72   52.23  55.22 212.69   52.28
  -3  -3  11 451.191 236.531   1-0.58985 0.20622-0.80663 0.50805-0.03782 0.83628  0  73.83  77.93  114.61  73.67  78.00  114.07
   3  -3 -11 287.442 262.311   2 0.03478 0.34810 0.63841-0.93701-0.76891-0.02896  0  69.78  84.23  239.29  69.35  84.14  239.82
   3  -3  11  12.968 203.723   1-0.33231 0.71594-0.86106 0.56248 0.38489 0.41357  0  23.48 266.13  142.41  22.88 266.16  142.88
   3  -3  11  76.516 175.600   2-0.01581 0.39876-0.98224 0.68366 0.18695 0.61123  0  29.79 182.94   99.45  30.44 182.76   99.32
   3   3 -11 414.776 243.275   2-0.08594 0.46886 0.97060-0.67187-0.22482-0.57338  0  62.31  97.98  277.49  61.59  97.84  277.64
   3   3  11 243.158 182.173   2-0.16116 0.54412-0.53996 0.83855 0.82612-0.02793  0  26.82 201.31   52.88  26.61 201.58   52.75
  -3  -4   0 11549.8   340.7   1-0.51474 0.13157 0.11224-0.51014-0.84997 0.84997  0 165.42 239.52   38.00 165.42 239.50   38.33
  -3  -4   0 10478.3   286.2   2-0.21146-0.17143-0.17974-0.21826 0.96072-0.96072  0 472.16 276.26   30.22 472.45 276.42   30.36
  -3  -4   0  9776.8   282.3   2 0.13101-0.51403-0.50940 0.11148-0.85050 0.85050  0 334.40 107.90  169.16 334.60 108.09  169.34
  -3   4   0 10875.1   243.8   1-0.66855 0.28534-0.26037 0.65828-0.69660 0.69660  0 374.73 116.94   63.08 374.64 117.15   63.21
  -3   4   0 11487.1   326.9   2-0.23495-0.14794 0.15714 0.24086 0.95922-0.95922  0 311.21 107.19   11.18 311.35 107.36   10.92
  -3   4   0 10257.6   311.8   2 0.06958-0.45246 0.45008-0.05195-0.89027 0.89027  0 467.01 301.10  227.16 467.15 301.06  226.81
   3  -4   0  8016.9   197.7   1-0.49127 0.87490-0.85731 0.45920 0.15387-0.15387  0 233.17 383.84  126.75 233.07 383.68  126.77
   3  -4   0  9883.2   297.6   2-0.16142 0.54438-0.53852 0.14041 0.82701-0.82701  0 281.82 404.92   52.59 281.87 404.82   52.65
   3  -4   0 10789.0   284.7   2 0.13125 0.25177-0.25696-0.14096-0.95747 0.95747  0 166.49 229.53  185.01 166.44 229.44  185.13
   3   4   0 11889.6   372.6   1-0.17868 0.56185 0.55551-0.15761-0.81208 0.81208  0 472.36 281.51    5.97 472.44 281.50    5.97
   3   4   0 10567.7   283.7   2 0.09120 0.29168 0.29546 0.10267-0.95099 0.95099  0 259.67 398.06  217.18 259.83 397.82  217.21
   3   4   0  9649.6   246.2   2-0.23225 0.61514 0.60650-0.20831 0.76041-0.76041  0 163.85 250.28  342.23 163.82 250.38  342.12
  -3  -4  -1 27356.2   511.3   1-0.45766 0.07449 0.20845-0.60636-0.86434 0.79170  0 163.18 248.58   32.09 163.19 248.56   31.86
  -3  -4  -1 22586.8   388.5   2-0.18832-0.19457-0.37432-0.02368 0.90797-0.98060  0 474.81 271.85   41.76 475.11 272.05   42.01
  -3  -4  -1 21195.4   376.8   2 0.13279-0.51581-0.34850-0.04943-0.92786 0.85528  0 339.02 106.67  179.74 339.18 106.85  179.60
  -3  -4   1 25456.9   486.9   1-0.56880 0.18563 0.00751-0.40541-0.82244 0.89509  0 165.48 230.34   45.02 165.51 230.33   45.26
  -3  -4   1 21812.3   394.4   2-0.22690-0.15599 0.00620-0.40420 0.97390-0.90127  0 473.26 283.95   19.90 473.50 284.08   19.62
  -3  -4   1 20422.5   386.9   2 0.12382-0.50684-0.64642 0.24850-0.75287 0.82545  0 327.96 105.64  159.63 328.17 105.83  159.70
  -3   4  -1 22420.0   372.6   1-0.69475 0.31154-0.38938 0.78729-0.60474 0.53209  0 396.58 125.11   72.24 396.83 125.32   72.40
  -3   4  -1 22546.7   417.3   2 0.09025-0.47313 0.30377 0.09436-0.94846 0.87593  0 470.20 297.63  217.90 470.42 297.60  217.72
  -3   4   1 24863.2   283.3   1-0.58309 0.19992-0.02317 0.42107-0.81207 0.88472  0 351.47 108.38   47.24 351.45 108.64   47.29
  -3   4   1 24234.4   443.4   2-0.22611-0.15678-0.00547 0.40347 0.97409-0.90146  0 305.58 105.84   20.14 305.70 106.03   20.29
  -3   4   1 22804.4   434.7   2 0.04638-0.42925 0.58225-0.18412-0.81169 0.88422  0 467.15 307.78  235.86 467.30 307.68  235.72
   3  -4  -1 19154.1   244.0   1-0.45101 0.83464-0.86513 0.46703 0.21941-0.29199  0 252.25 396.06  131.03 252.15 395.94  131.20
   3  -4  -1 21984.4   419.5   2-0.13756 0.52051-0.65724 0.25913 0.74102-0.81358  0 287.27 407.79   60.81 287.33 407.63   61.18
   3  -4  -1 23452.3   414.9   2 0.12433 0.25868-0.09001-0.30792-0.98815 0.91557  0 166.29 224.26  195.20 166.20 224.23  194.86
   3  -4   1 17151.9   312.6   1-0.50489 0.88852-0.85329 0.45518 0.13032-0.05773  0 216.07 372.80  124.56 215.99 372.72  125.20
   3  -4   1 21763.1   404.8   2-0.18417 0.56706-0.40343 0.00542 0.89629-0.82366  0 277.83 405.60   44.11 277.88 405.41   43.83
   3  -4   1 22242.1   391.3   2 0.13297 0.25005-0.42522 0.02730-0.89527 0.96785  0 164.58 232.58  175.18 164.49 232.46  174.81
   3   4  -1 24470.5   497.0   1-0.25191 0.63508 0.47915-0.08125-0.84081 0.76816  0 472.24 293.25   11.93 472.32 293.23   12.26
   3   4  -1 22600.7   398.4   2 0.11121 0.27167 0.10275 0.29539-0.98847 0.91594  0 265.63 401.94  205.87 265.75 401.66  205.90
   3   4  -1 20649.7   360.7   2-0.22214 0.60503 0.72276-0.32457 0.65442-0.72705  0 162.96 244.17  333.13 162.94 244.25  333.02
   3   4   1 15627.6   313.8   2 0.06349 0.31938 0.48738-0.08924-0.87088 0.94341  0 255.32 398.05  229.07 255.43 397.68  229.23
   3   4   1 21327.7   349.2   2-0.23746 0.62038 0.46236-0.06425 0.85430-0.78166  0 162.33 253.98  352.01 162.37 253.97  351.95
  -3  -4  -2  6100.5   271.4   1-0.40086 0.01769 0.29301-0.69091-0.86802 0.72272  0 158.88 257.68   26.04 158.95 257.63   26.03
  -3  -4  -2  4591.4   297.4   1 0.02042-0.40395-0.69284 0.29496 0.72080-0.86592  0 482.76 256.73  172.71 482.80 256.68  172.74
  -3  -4  -2  4758.9   230.3   2-0.15841-0.22455-0.55500 0.15689 0.81663-0.96175  0 481.50 270.93   54.22 481.69 271.13   53.78
  -3  -4  -2  4522.7   226.5   2 0.12860-0.51162-0.17765-0.22027-0.97566 0.83050  0 341.60 101.78  189.75 341.75 101.93  189.79
  -3  -4   2  4788.3   242.1   1-0.61626 0.23305-0.10168-0.29623-0.78095 0.92625  0 163.43 220.97   52.41 163.45 220.94   52.49
  -3  -4   2  4276.6   232.6   2-0.23526-0.14763 0.16614-0.56414 0.95763-0.81237  0 477.77 294.72   10.41 477.94 294.79   10.39
  -3  -4   2  4068.5   246.8   2 0.11310-0.49612-0.75448 0.35656-0.64651 0.79166  0 319.86 100.35  151.00 320.10 100.52  151.04
  -3   4  -2  4534.6   246.1   1-0.70194 0.31873-0.46348 0.86139-0.54080 0.39550  0 419.35 132.91   77.97 419.53 133.10   78.03
  -3   4  -2  4816.4   254.2   2 0.10668-0.48956 0.15429 0.24385-0.98225 0.83718  0 477.03 297.36  209.03 477.18 297.34  208.89
  -3   4  -2  4499.3   251.3   2-0.23668-0.14624 0.48854-0.09043 0.83983-0.98511  0 317.29 100.33  350.38 317.27 100.65  350.20
  -3   4   2  5557.5   100.9   1-0.26936-0.11381 0.45961-0.06170-0.84629 0.99158  0 320.95 100.14   13.85 320.97 100.36   13.79
  -3   4   2  4732.1   260.2   2-0.21445-0.16844-0.14893 0.54693 0.96531-0.82006  0 298.32 101.82   28.51 298.45 101.87   28.56
  -3   4   2  4774.8   274.9   2 0.02223-0.40510 0.69339-0.29526-0.72022 0.86528  0 470.35 317.41  244.02 470.59 317.34  244.10
   3  -4  -2  4368.6    94.8   1-0.30141 0.68504-0.85484 0.45674 0.42238-0.56755  0 278.98 410.71  145.59 279.06 410.51  145.69
   3  -4  -2  39.059 109.082   2-0.11343 0.49638-0.75446 0.35635 0.64647-0.79159  2 293.95 413.33   68.88 294.29 413.77   69.07
   3  -4  -2  4836.9   216.9   2 0.11456 0.26832 0.06184-0.45997-0.99149 0.84642  0 164.08 216.94  203.57 163.94 216.97  203.54
   3  -4   2  3518.4   183.1   1-0.50692 0.89055-0.85262 0.45452 0.12677 0.01841  0 199.61 362.77  125.13 199.56 362.69  124.96
   3  -4   2  4560.9   237.8   2-0.20284 0.58573-0.26030-0.13770 0.94398-0.79873  0 275.33 409.88   35.02 275.43 409.71   35.10
   3  -4   2  4181.4   193.5   2 0.12807 0.25495-0.57998 0.18206-0.80450 0.94966  0 160.38 233.35  164.44 160.33 233.22  164.53
   3   4  -2  5085.5   291.4   1-0.31778 0.70095 0.40251-0.00461-0.85849 0.71319  0 475.60 305.43   18.09 475.70 305.45   18.14
   3   4  -2  5071.0   252.1   2 0.12324 0.25978-0.06996 0.46788-0.98991 0.84475  0 273.02 409.17  195.97 272.92 408.86  196.00
   3   4  -2  4188.7   195.8   2-0.20991 0.59280 0.81081-0.41262 0.54637-0.69162  0 159.96 235.95  325.01 159.95 236.06  324.91
   3   4   2  4707.1   184.3   2-0.23878 0.62167 0.30264 0.09536 0.92271-0.77746  0 158.35 255.07    2.15 158.27 255.01    2.29
   3   4   2  5058.0   196.8   2 0.03120 0.35167 0.65476-0.25663-0.75519 0.90026  0 252.75 401.71  241.15 252.63 401.48  241.07
  -3  -4  -3  2594.8   206.9   1-0.34776-0.03541 0.36482-0.76272-0.86369 0.64575  0 152.65 266.85   21.00 152.64 266.85   20.91
  -3  -4  -3  2129.7   264.3   1-0.05944-0.32408-0.74781 0.34993 0.66124-0.87893  0 493.14 268.70  166.36 493.54 268.73  166.22
  -3  -4  -3  1943.6   209.0   2-0.12660-0.25636-0.70342 0.30530 0.69941-0.91710  0 492.38 273.49   65.03 492.57 273.58   64.79
  -3  -4  -3  2398.7   211.8   2 0.11982-0.50284-0.01502-0.38290-0.99268 0.77495  0 342.45  93.18  198.88 342.42  93.33  199.17
  -3  -4   3  2200.6   193.5   1-0.65449 0.27128-0.21058-0.18733-0.72615 0.94410  0 159.22 211.22   60.11 159.31 211.23   59.80
  -3  -4   3  1913.9   230.0   2-0.23878-0.14411 0.29362-0.69162 0.92562-0.70774  0 485.49 308.21    2.99 485.48 308.30    2.84
  -3  -4   3  2130.2   233.2   2 0.10070-0.48372-0.83499 0.43662-0.54097 0.75854  0 310.48  92.19  143.16 310.65  92.36  143.33
  -3   4  -3  1916.2   223.4   1-0.70307 0.31986-0.50703 0.90494-0.49861 0.28066  0 443.78 140.28   81.44 443.70 140.47   81.50
  -3   4  -3  1965.7   226.4   2 0.11813-0.50100 0.01356 0.38458-0.99291 0.77530  0 487.73 300.25  200.79 487.74 300.27  200.78
  -3   4  -3  2112.3   224.4   2-0.23082-0.15207 0.62764-0.22945 0.74350-0.96137  0 317.48  92.05  340.69 317.44  92.23  340.55
  -3   4   3  2131.0   229.1   2-0.20203-0.18086-0.26733 0.66533 0.94219-0.72431  0 289.59  95.05   35.45 289.73  95.11   35.52
  -3   4   3  2284.4   253.5   2-0.00120-0.38172 0.78211-0.38379-0.62314 0.84083  0 476.83 330.02  251.75 476.64 329.93  251.78
   3  -4  -3  2276.6   185.6   2 0.10309 0.27978 0.19013-0.58826-0.97633 0.75873  0 159.85 207.89  210.81 159.83 207.82  210.97
   3  -4   3  1499.2   152.3   1-0.50247 0.88610-0.85406 0.45596 0.13455 0.08321  0 183.27 353.27  125.37 183.16 353.35  125.48
   3  -4   3  2151.8   216.6   2-0.21698 0.59987-0.12130-0.27670 0.96861-0.75073  0 274.36 417.71   26.74 274.34 417.56   26.97
   3  -4   3  1857.5   158.7   2 0.11833 0.26469-0.70925 0.31132-0.69496 0.91270  0 154.00 231.87  154.90 153.92 231.84  154.82
   3   4  -3  1998.0   223.0   1-0.37470 0.75787 0.32923 0.06867-0.86672 0.64878  0 482.60 318.58   23.38 482.62 318.46   23.48
   3   4  -3  2096.1   219.4   2 0.13002 0.25300-0.21225 0.61017-0.96853 0.75079  0 281.53 419.69  187.81 281.55 419.33  187.76
   3   4  -3  1955.9   164.0   2-0.19675 0.57964 0.87452-0.47632 0.44329-0.66116  0 155.08 226.04  318.03 155.06 226.09  317.86
   3   4   3  2261.0   148.2   2-0.23432 0.61721 0.14172 0.25628 0.96177-0.74389  0 151.75 253.89   11.88 151.76 253.81   11.81
   3   4   3  2033.0   152.2   2-0.00168 0.38460 0.78375-0.38544-0.62107 0.83876  0 251.37 409.38  252.00 251.26 409.13  251.94
  -3  -4  -4  3477.1   239.4   1-0.30025-0.08292 0.42369-0.82160-0.85460 0.56401  0 144.33 276.34   16.55 144.39 276.36   16.55
  -3  -4  -4  3084.0   249.1   2 0.10933-0.49221 0.12463-0.52276-0.98616 0.69603  0 341.55  80.86  207.00 341.42  81.08  207.16
  -3  -4   4  2852.9   220.4   1-0.68171 0.29850-0.31523-0.08268-0.66023 0.95082  0 153.12 201.07   67.00 153.07 201.02   67.05
  -3  -4   4  2801.8   265.2   2 0.08733-0.47035-0.89357 0.49519-0.44035 0.73045  0 299.76  81.97  136.48 300.02  81.99  136.65
  -3  -4   4  2562.5   271.9   2-0.23857-0.14435 0.38950-0.78761 0.88959-0.59903  0 496.25 324.47  356.67 496.22 324.49  356.62
  -3   4  -4  3170.6   276.3   1-0.70237 0.31916-0.53211 0.93002-0.47279 0.18220  0 469.92 147.48   83.53 470.11 147.60   83.56
  -3   4  -4  3137.0   262.8   2 0.12538-0.50840-0.10951 0.50743-0.98605 0.69573  0 502.20 306.16  193.80 502.24 306.30  193.73
  -3   4  -4  2567.7   256.2   2-0.22010-0.16279 0.74064-0.34244 0.63484-0.92533  0 316.43  80.56  331.66 316.32  80.65  331.48
  -3   4   4  3028.2   282.2   2-0.19024-0.19265-0.36038 0.75838 0.91320-0.62269  0 279.72  85.83   40.99 279.71  86.02   41.15
  -3   4   4  2800.0   293.4   2-0.02361-0.35931 0.84989-0.45157-0.52644 0.81669  0 486.08 345.43  258.61 485.77 345.40  258.64
   3  -4  -4  2965.0   270.6   2-0.06971 0.45266-0.88779 0.48967 0.45495-0.74520  0 312.36 435.79   82.60 312.42 435.58   82.64
   3  -4  -4  3420.9   221.3   2 0.09153 0.29134 0.29275-0.69089-0.95180 0.66166  0 153.99 196.91  216.96 153.98 197.02  217.05
   3  -4   4  2442.7   197.9   1-0.49383 0.87746-0.85661 0.45850 0.14952 0.14083  0 166.43 344.49  126.36 166.37 344.52  126.48
   3  -4   4  3003.6   244.6   2-0.22672 0.60961 0.00359-0.40159 0.97395-0.68344  0 274.39 429.35   20.22 274.44 429.00   19.77
   3  -4   4  2758.2   192.3   2 0.10530 0.27772-0.80891 0.41054-0.57843 0.86852  0 145.35 228.64  145.99 145.33 228.48  145.94
   3   4  -4  2922.8   293.7   1-0.42228 0.80545 0.26259 0.13531-0.86760 0.57701  0 493.07 332.69   27.86 493.32 332.70   28.16
   3   4  -4  16.131 123.891   2 0.13243 0.25059-0.32216 0.72008-0.93738 0.64706  0 291.48 432.93  181.39 291.35 432.76  181.21
   3   4  -4  2835.7   196.9   2-0.18350 0.56639 0.91940-0.52120 0.34791-0.63840  0 148.51 214.65  311.75 148.43 214.60  311.71
   3   4   4  3138.6   176.6   2-0.22620 0.60909-0.00419 0.40219 0.97407-0.68356  0 142.96 250.54   20.16 142.86 250.54   20.22
   3   4   4  2820.0   177.4   2-0.03271 0.41563 0.87387-0.47556-0.48505 0.77530  0 251.17 420.98  261.37 251.09 420.64  261.43
  -3  -4  -5  12.312 104.725   1-0.25960-0.12357 0.47058-0.86848-0.84330 0.48007  0 134.36 286.37   12.45 134.16 286.33   12.94
  -3  -4  -5  58.432 148.214   2 0.09798-0.48086 0.23772-0.63585-0.96638 0.60371  0 339.07  65.59  213.78 339.35  65.35  213.76
  -3  -4   5  98.717 109.209   1-0.69765 0.31444-0.41228 0.01437-0.58593 0.94917  0 144.54 189.88   74.36 144.74 190.11   74.11
  -3  -4   5 -44.716 166.347   2 0.07408-0.45710-0.93508 0.53670-0.34662 0.70923  0 288.06  69.40  130.52 288.29  69.35  130.76
  -3   4  -5  15.817 192.091   1-0.70168 0.31847-0.54521 0.94312-0.45870 0.09546  0 500.00 154.36   85.17 499.70 154.62   84.66
  -3   4  -5  95.231 154.997   2-0.20712-0.17577 0.82668-0.42848 0.52317-0.88629  0 314.38  65.43  323.31 313.91  65.81  323.27
  -3   4   5  66.253 172.576   2-0.18009-0.20280-0.43111 0.82911 0.88415-0.52101  0 268.33  74.73   45.64 268.44  74.61   45.58
  -3   4   5  63.848 188.146   2-0.04390-0.33902 0.90044-0.50212-0.43276 0.79558  0 497.93 364.00  265.06 497.80 363.83  264.83
   3  -4  -5 111.487 173.391   2-0.05084 0.43379-0.92976 0.53165 0.36463-0.72744  0 323.22 451.14   88.47 323.59 451.27   88.45
   3  -4  -5   4.733 110.433   2 0.08122 0.30165 0.37205-0.77018-0.92465 0.56198  0 146.48 184.48  221.38 146.46 184.61  221.89
   3  -4   5 -17.668 104.437   1-0.48215 0.86578-0.85957 0.46147 0.16934 0.19360  0 148.76 335.60  127.49 148.86 336.05  127.81
   3  -4   5 118.585 145.297   2-0.23275 0.61564 0.10900-0.50700 0.96641-0.60327  0 274.95 443.79   14.03 275.47 444.00   13.70
   3  -4   5 107.661  92.952   2 0.09033 0.29270-0.88219 0.48381-0.46216 0.82478  0 134.63 223.49  138.45 134.56 223.58  138.07
   3   4  -5   2.994  99.727   2-0.17054 0.55343 0.95029-0.55210 0.26050-0.62362  0 139.97 201.99  306.02 140.12 201.74  306.28
   3   4   5  94.667  80.745   2-0.21655 0.59944-0.12612 0.52412 0.96809-0.60495  0 131.45 245.32   27.43 131.72 245.60   27.25
   3   4   5 102.903  87.264   2-0.05963 0.44255 0.93183-0.53352-0.35795 0.72077  0 251.84 435.77  269.39 251.77 435.82  269.54
  -3  -4  -6 10984.2   407.0   1-0.22624-0.15693 0.50688-0.90478-0.83180 0.39592  0 122.12 296.98    9.91 121.91 296.94   10.03
  -3  -4  -6  9921.8   400.4   2 0.08764-0.47051 0.32428-0.72242-0.94189 0.50669  0 336.52  45.86  218.89 336.35  46.13  218.96
  -3  -4   6  8522.7   347.7   1-0.70308 0.31987-0.49954 0.10163-0.50611 0.94200  0 134.28 178.20   81.01 134.32 178.26   80.89
  -3  -4   6  7341.8   395.4   2 0.06119-0.44421-0.96369 0.56532-0.25991 0.69505  0 275.19  54.30  125.37 275.48  54.45  125.50
  -3   4  -6  8046.4   397.0   2-0.19277-0.19012 0.88953-0.49133 0.41423-0.84997  0 310.57  47.44  316.13 310.51  47.65  315.95
  -3   4   6  5444.7   364.7   2-0.17166-0.21123-0.48331 0.88131 0.85845-0.42269  0 255.97  60.73   48.98 255.90  60.91   48.94
   3  -4  -6  8830.9   441.4   2-0.03366 0.41662-0.95951 0.56140 0.27965-0.71503  0 336.31 470.84   93.79 336.34 470.56   93.74
   3  -4  -6  9285.2   359.6   2 0.07241 0.31047 0.43152-0.82965-0.89919 0.46399  0 137.32 170.57  225.65 137.18 170.65  225.62
   3  -4   6  6449.8   316.8   1-0.46799 0.85162-0.86251 0.46441 0.19250 0.24303  0 130.29 327.78  129.22 130.30 327.78  129.37
   3  -4   6  9319.8   385.6   2-0.23626 0.61915 0.19355-0.59155 0.95222-0.51646  0 277.10 462.92    8.77 277.16 462.72    8.78
   3  -4   6  7998.7   306.6   2 0.07482 0.30820-0.93314 0.53476-0.35165 0.78679  0 121.96 217.48  131.02 121.64 217.34  131.08
   3   4  -6  8897.7   425.5   2 0.13222 0.25080-0.46416 0.86209-0.87583 0.44035  0 314.75 469.59  172.31 314.65 469.39  172.32
   3   4   6  9580.8   305.5   2-0.20706 0.58995-0.22222 0.62022 0.95276-0.51699  0 118.71 239.46   33.33 118.32 239.40   32.84
   3   4   6  8459.2   298.3   2-0.08238 0.46530 0.96642-0.56810-0.24341 0.67879  0 253.23 455.01  276.66 252.96 454.57  276.52
  -3  -4  -7  6100.8   340.0   1-0.20009-0.18308 0.53408-0.93198-0.82142 0.31289  0 107.80 308.40    7.94 107.48 308.42    7.79
  -3  -4  -7  6024.8   411.7   2 0.07894-0.46181 0.38815-0.78628-0.91821 0.41047  0 332.75  22.84  222.79 332.68  23.09  222.90
  -3  -4   7  4600.6   294.2   1-0.69891 0.31570-0.57644 0.17853-0.42338 0.93191  0 122.03 165.15   87.21 121.70 165.18   87.36
  -3  -4   7  4981.7   427.9   2 0.04865-0.43167-0.98252 0.58415-0.17967 0.68733  0 261.20  37.07  120.63 261.45  36.97  120.77
  -3   4  -7  4186.9   375.3   2-0.17820-0.20469 0.93352-0.53532 0.31110-0.81947  0 306.35  25.53  309.50 306.21  25.83  309.40
  -3   4   7  4900.2   336.0   2-0.16475-0.21820-0.52030 0.91841 0.83794-0.33000  0 242.17  44.72   51.40 242.04  44.80   51.42
   3  -4  -7  5148.9   433.2   2-0.01823 0.40118-0.97967 0.58156 0.19976-0.70770  0 350.92 494.25   98.58 350.93 494.07   98.56
   3  -4  -7  5072.8   316.1   2 0.06555 0.31733 0.47514-0.87327-0.87747 0.36973  0 126.34 154.82  228.40 126.03 155.01  228.44
   3  -4   7  4364.7   299.2   1-0.45179 0.83542-0.86503 0.46693 0.21819 0.28992  0 110.46 319.65  131.20 110.30 319.58  131.11
   3  -4   7  4557.2   375.7   2-0.23814 0.62103 0.25878-0.65678 0.93612-0.42773  0 279.22 485.86    5.01 279.27 485.44    4.92
   3  -4   7  4841.7   272.5   2 0.05954 0.32348-0.96670 0.56833-0.24888 0.75655  0 106.74 210.08  124.71 106.37 209.91  124.86
   3   4  -7  5470.6   426.1   2 0.13120 0.25181-0.50662 0.90455-0.85213 0.34407  0 328.53 493.64  169.54 328.46 493.46  169.53
   3   4  -7  5097.6   302.9   2-0.14566 0.52858 0.98353-0.58522 0.10698-0.61492  0 118.52 171.87  297.31 118.35 171.69  297.13
   3   4   7  5339.9   263.2   2-0.19879 0.58168-0.29478 0.69278 0.93466-0.42627  0 102.96 232.24   36.92 102.61 232.17   37.16
  -3  -4  -8  2201.3   271.0   1-0.18068-0.20249 0.55355-0.95145-0.81298 0.23180  0  90.64 321.22    6.33  90.65 321.09    6.14
  -3  -4   8  1609.3   231.1   1-0.68676 0.30355-0.64264 0.24473-0.33967 0.92085  0 106.83 150.47   93.45 106.69 150.46   93.52
  -3  -4   8  1283.9   237.5   2 0.03653-0.41955-0.99380 0.59543-0.10497 0.68516  0 245.94  16.20  115.98 245.95  16.60  116.39
  -3   4   8  1695.5   263.7   2-0.16001-0.22294-0.54629 0.94440 0.82217-0.24168  0 226.32  25.32   52.95 226.44  25.77   53.18
   3  -4  -8  1840.8   239.8   2 0.06033 0.32254 0.50602-0.90415-0.86041 0.28014  0 112.87 137.09  230.47 112.73 137.35  230.48
   3  -4   8  1586.8   242.0   1-0.43376 0.81739-0.86685 0.46875 0.24580 0.33489  0  88.75 311.26  133.26  88.39 311.27  133.00
   3  -4   8  1460.1   197.0   2 0.04448 0.33854-0.98709 0.58872-0.15384 0.73403  0  88.40 201.57  118.89  88.51 201.38  119.25
   3   4  -8  1376.6   221.0   2-0.13383 0.51675 0.99028-0.59196 0.03800-0.61851  0 104.47 154.23  293.36 104.34 154.23  293.07
   3   4   8  1526.3   184.6   2-0.19191 0.57480-0.34782 0.74582 0.91771-0.33669  0  84.47 224.07   40.42  84.28 224.02   40.38
   3   4   8  1297.2   243.9   2-0.11871 0.50163 0.99172-0.59340-0.04897 0.62948  2 255.85 503.97  287.97 255.74 504.53  287.99
  -3  -4  -9 14667.2   541.8   1-0.16726-0.21591 0.56643-0.96433-0.80696 0.15314  0  71.17 335.37    5.00  70.92 335.40    5.01
  -3  -4   9 11175.8   454.3   1-0.66780 0.28459-0.69880 0.30089-0.25637 0.91021  0  89.25 133.52   99.29  88.94 133.57   99.37
   3  -4  -9 13979.8   534.8   2 0.05669 0.32619 0.52678-0.92491-0.84811 0.19531  0  97.26 117.20  231.84  96.82 117.33  231.88
   3  -4   9 10820.1   475.2   1-0.41404 0.79767-0.86775 0.46965 0.27492 0.37836  0  64.07 302.67  135.21  63.90 302.66  135.02
   3  -4   9 11444.3   428.0   2 0.03010 0.35292-0.99736 0.59899-0.06608 0.71879  0  67.81 191.88  113.99  67.52 191.74  114.12
   3   4  -9 10733.1   461.4   2-0.12257 0.50549 0.99209-0.59377-0.02704-0.62603  0  87.76 134.85  289.28  87.71 134.67  289.27
   3   4   9 12419.9   417.8   2-0.18686 0.56975-0.38479 0.78279 0.90389-0.25025  0  63.30 215.02   42.69  62.82 215.09   42.66
  -3  -4 -10-129.333 209.106   1-0.15960-0.22357 0.57375-0.97165-0.80333 0.07686  0  47.42 351.90    4.54  47.70 351.91    4.37
  -3  -4  10 131.061 226.036   1-0.64346 0.25983-0.74515 0.34704-0.17527 0.90114  0  67.65 113.66  104.50  68.01 113.81  104.91
   3  -4 -10-354.931 210.722   2 0.05448 0.32839 0.53939-0.93752-0.84029 0.11496  0  78.43  94.40  233.12  77.67  94.24  232.74
   3  -4  10   0.547 195.931   1-0.39264 0.77627-0.86759 0.46948 0.30517 0.42070  0  35.52 293.61  138.14  36.10 293.54  137.14
   3  -4  10  60.285 165.460   2 0.01614 0.36688-0.99975 0.60138 0.01548 0.70975  0  41.78 181.03  109.03  42.66 180.92  109.41
   3   4 -10 297.347 228.678   2-0.11152 0.49444 0.98980-0.59148-0.08870-0.63693  0  68.28 112.34  285.47  67.76 112.36  285.67
   3   4  10 122.388 168.090   2-0.18336 0.56625-0.40900 0.80700 0.89392-0.16765  0  37.43 205.68   44.02  37.53 205.30   44.18
  -3  -5   0  86.681 104.240   1-0.55663 0.17346 0.03254-0.52991-0.83012 0.83012  0 142.68 251.78   43.58 142.41 251.77   43.60
  -3  -5   0  52.640 144.256   2-0.20535-0.17754-0.23805-0.25945 0.94930-0.94930  2 504.34 301.41   33.87 505.81 301.87   33.78
  -3  -5   0 -39.451 136.160   2 0.13147-0.51449-0.49741 0.00000-0.85750 0.85750  0 321.49  78.76  170.24 321.60  78.88  170.14
  -3   5   0  45.669 115.171   1-0.60269 0.21948-0.06803 0.56542-0.79507 0.79507  0 394.83  91.28   50.51 394.88  91.15   50.26
  -3   5   0 191.630 151.491   2-0.23689-0.14600 0.21377 0.28373 0.94773-0.94773  0 293.76  81.71    7.59 294.02  81.51    7.59
  -3   5   0  78.475 159.468   2 0.06964-0.45252 0.44969 0.04797-0.89046 0.89046  0 495.36 330.96  226.31 495.36 331.09  226.79
   3  -5   0  71.518  74.302   1-0.55976 0.94339-0.82821 0.33058 0.02713-0.02713  0 217.43 402.78  118.35 217.46 402.71  118.35
   3  -5   0  49.257  91.523   2 0.13206 0.25096-0.29448-0.20292-0.94649 0.94649  0 148.83 208.69  183.12 148.75 208.91  182.89
   3   5   0  56.783 129.851   2 0.08700 0.29587 0.32918 0.16849-0.94025 0.94025  0 270.13 428.88  218.92 269.99 429.12  219.26
   3   5   0  32.645  76.323   2-0.23401 0.61690 0.57615-0.07841 0.78313-0.78313  0 142.80 233.05  344.53 143.42 233.06  344.31
  -3  -5  -1 19386.2   477.9   1-0.51200 0.12883 0.11714-0.61452-0.85096 0.77831  0 141.01 261.21   37.95 141.07 261.15   38.00
  -3  -5  -1 16490.4   406.4   2 0.13297-0.51598-0.36967-0.12773-0.91960 0.84702  0 325.88  76.91  178.25 326.06  77.15  178.30
  -3  -5   1 17750.8   452.0   1-0.59823 0.21502-0.05746-0.43993-0.79926 0.87191  0 141.69 242.38   49.53 141.70 242.33   49.56
  -3  -5   1 15185.0   452.8   2-0.21969-0.16320-0.09051-0.40699 0.97136-0.89873  2 505.64 308.90   24.99 506.15 309.13   25.19
  -3  -5   1 16055.8   417.5   2 0.12613-0.50915-0.61246 0.11506-0.78038 0.85296  0 315.40  77.23  162.09 315.62  77.46  162.21
  -3   5  -1 17492.0   387.8   1-0.65381 0.27060-0.20835 0.70574-0.72741 0.65476  0 417.48  99.21   59.71 417.67  99.53   59.65
  -3   5  -1 16606.8   441.6   2 0.08674-0.46961 0.33119 0.16648-0.93957 0.86704  0 499.01 327.84  219.38 499.28 327.80  219.38
  -3   5   1 19188.0   309.7   1-0.49694 0.11377 0.14375 0.35362-0.85580 0.92844  0 371.91  81.83   36.11 371.83  82.24   36.23
  -3   5   1 18451.8   458.5   2-0.23137-0.15152 0.08181 0.41569 0.96942-0.89679  0 288.58  80.64   15.05 288.72  80.86   15.28
  -3   5   1 16896.0   459.3   2 0.05053-0.43340 0.56073-0.06306-0.82646 0.89899  0 494.69 337.49  234.07 494.89 337.38  234.22
   3  -5  -1 12478.7   239.7   1-0.55106 0.93469-0.83328 0.33565 0.04443-0.11702  0 235.27 415.74  119.28 235.23 415.64  119.50
   3  -5  -1 18265.9   417.4   2 0.12787 0.25514-0.16018-0.33722-0.97877 0.90619  0 148.97 204.15  190.85 148.88 204.09  190.81
   3  -5   1 12055.0   298.2   1-0.55896 0.94259-0.82870 0.33107 0.02876 0.04383  0 200.85 391.28  118.20 200.83 391.18  118.46
   3  -5   1  16.753 120.663   2-0.18294 0.56583-0.41187-0.08563 0.89269-0.82006  0 293.55 436.36   44.44 293.18 436.36   44.36
   3  -5   1 16085.0   385.0   2 0.13293 0.25009-0.42945-0.06795-0.89326 0.96583  0 146.66 211.88  174.58 146.57 211.81  174.54
   3   5  -1 16463.4   408.6   2 0.10428 0.27860 0.17858 0.31909-0.97838 0.90585  0 275.61 432.66  210.06 275.67 432.39  210.30
   3   5  -1 15864.5   366.4   2-0.22676 0.60965 0.67791-0.18016 0.69930-0.77192  0 143.09 227.39  337.30 143.03 227.54  336.69
   3   5   1 16798.1   397.4   2 0.06487 0.31800 0.47907 0.01859-0.87537 0.94791  0 265.31 429.62  228.67 265.52 429.31  228.68
   3   5   1 14965.8   346.2   2-0.23752 0.62044 0.45927 0.03837 0.85595-0.78331  0 141.66 236.45  352.21 141.73 236.45  352.15
  -3  -5  -2  3049.9   235.4   1-0.46665 0.08348 0.19406-0.69144-0.86289 0.71759  0 137.70 270.65   32.70 137.65 270.64   32.84
  -3  -5  -2  2188.9   252.2   2 0.13075-0.51377-0.23710-0.26030-0.96265 0.81749  0 328.92  71.82  186.30 328.96  72.08  186.30
  -3  -5   2  2868.9   227.7   1-0.63446 0.25125-0.15021-0.34717-0.75822 0.90352  0 139.04 232.81   55.69 139.00 232.75   55.73
  -3  -5   2  2211.3   264.3   2 0.11817-0.50119-0.71073 0.21332-0.69347 0.83863  0 307.91  73.13  154.58 308.17  73.11  154.70
  -3   5  -2  2743.7   265.9   1-0.67855 0.29534-0.30098 0.79837-0.67006 0.52477  0 441.53 107.00   66.18 441.54 107.20   66.04
  -3   5  -2  2450.2   271.8   2-0.23688-0.14604 0.48143 0.01620 0.84387-0.98915  0 299.88  74.14  351.00 299.96  74.16  350.68
  -3   5   2  2859.7   140.2   1-0.27464-0.10853 0.45359 0.04378-0.84784 0.99313  0 346.53  72.43   14.42 346.43  72.62   14.26
  -3   5   2  2484.0   285.2   2-0.22371-0.15918-0.03922 0.53672 0.97387-0.82861  0 281.78  77.28   22.27 281.93  77.50   22.24
  -3   5   2  2539.7   301.8   2 0.03016-0.41304 0.65942-0.16176-0.75117 0.89623  0 497.21 346.66  241.41 497.57 346.68  241.42
   3  -5  -2  1433.4   108.6   1-0.51841 0.90204-0.84851 0.35088 0.10623-0.25140  0 256.39 430.69  123.59 256.37 430.59  123.59
   3  -5  -2  2400.5   273.4   2-0.12397 0.50693-0.71376 0.21612 0.68933-0.83446  0 309.46 443.87   65.57 309.49 443.53   65.63
   3  -5  -2  2255.5   205.2   2 0.12113 0.26189-0.03457-0.46283-0.99203 0.84688  0 147.10 197.37  197.97 147.08 197.41  198.04
   3  -5   2  1818.3   181.3   1-0.55294 0.93657-0.83222 0.33459 0.04087 0.10431  0 184.54 380.57  118.98 184.51 380.71  119.26
   3  -5   2 432.095 146.787   2-0.19847 0.58136-0.29738-0.20012 0.93390-0.78865  0 290.32 440.82   36.98 290.43 440.81   37.32
   3  -5   2  2104.6   192.7   2 0.12920 0.25382-0.55723 0.05983-0.82024 0.96540  0 142.43 212.88  165.84 142.33 212.79  166.10
   3   5  -2  2774.1   275.9   2 0.11640 0.26647 0.03841 0.45926-0.99246 0.84739  0 282.70 439.15  202.30 282.64 439.05  202.19
   3   5  -2  2083.9   177.1   2-0.21731 0.60020 0.76238-0.26463 0.60956-0.75480  0 140.48 220.11  329.71 140.61 220.19  329.55
   3   5   2  2273.0   248.6   2 0.03952 0.34336 0.61616-0.11849-0.78663 0.93170  0 262.21 433.24  238.24 262.32 433.13  238.18
  -3  -5  -3 -54.753 114.620   1-0.42280 0.03963 0.26184-0.75921-0.86757 0.64963  0 131.97 280.31   28.58 132.24 280.35   28.21
  -3  -5  -3  26.167 149.779   2 0.12534-0.50836-0.10866-0.38874-0.98615 0.76841  0 330.13  64.14  194.24 330.31  63.56  193.78
  -3  -5   3  92.158 117.737   1-0.66376 0.28055-0.24268-0.25471-0.70748 0.92543  0 134.31 222.96   61.41 134.20 222.87   62.00
  -3  -5   3  45.972 164.596   2 0.10815-0.49117-0.79043 0.29247-0.60292 0.82049  0 299.29  65.75  148.11 299.39  65.78  147.69
  -3   5  -3  10.458 165.304   1-0.69078 0.30757-0.36233 0.85971-0.62574 0.40779  0 467.42 114.22   71.28 467.39 114.31   70.43
  -3   5  -3  90.733 160.964   2-0.23266-0.15023 0.59992-0.10217 0.76549-0.98336  0 300.31  66.31  342.51 300.48  65.80  342.60
  -3   5   3  94.802 180.059   2-0.21486-0.16803-0.14457 0.64207 0.96589-0.74800  0 273.87  70.97   28.15 273.76  71.50   28.31
  -3   5   3 -39.484 189.487   2 0.00960-0.39248 0.74346-0.24580-0.66871 0.88631  2 502.70 358.76  248.27 503.44 359.06  248.28
   3  -5  -3  52.508 172.975   2-0.10366 0.48661-0.78865 0.29101 0.60603-0.82372  0 317.64 452.10   72.58 317.71 452.56   72.13
   3  -5  -3  45.565 103.844   2 0.11334 0.26953 0.07664-0.57431-0.99060 0.77299  0 142.91 188.89  203.98 143.38 188.95  204.40
   3  -5   3 -98.756  94.144   1-0.54346 0.92709-0.83733 0.33970 0.05933 0.15843  0 167.98 370.94  120.38 167.99 371.05  120.49
   3  -5   3 -56.360 145.195   2-0.21086 0.59375-0.18578-0.31172 0.95970-0.74182  0 288.69 448.67   30.52 288.85 448.72   30.71
   3  -5   3 -22.181  97.840   2 0.12198 0.26104-0.67032 0.17292-0.73198 0.94971  0 136.41 212.08  157.49 135.99 211.91  157.90
   3   5  -3 103.836 146.267   2 0.12402 0.25900-0.08447 0.58187-0.98868 0.77094  0 290.57 448.87  195.17 290.61 448.90  195.18
   3   5  -3 118.823  97.421   2-0.20654 0.58943 0.82970-0.33196 0.51859-0.73647  0 136.44 211.24  323.03 136.23 211.14  322.95
   3   5   3 -54.172  76.755   2-0.23680 0.61969 0.21068 0.28683 0.94844-0.73056  0 131.69 237.31    7.73 131.29 237.38    7.77
   3   5   3  83.569 143.456   2 0.01261 0.37026 0.73188-0.23421-0.68131 0.89892  0 260.61 440.22  246.93 260.27 440.60  247.28
  -3  -5  -4 18770.9   493.3   1-0.38161-0.00156 0.31955-0.81692-0.86733 0.57675  0 125.00 290.53   23.96 124.77 290.47   24.15
  -3  -5  -4 15177.8   438.2   2 0.11860-0.50148 0.00693-0.50460-0.99292 0.70278  0 330.25  51.33  200.12 330.16  51.55  200.40
  -3  -5   4 12257.5   400.3   1-0.68516 0.30195-0.33208-0.16531-0.64829 0.93888  0 127.49 212.54   68.04 127.37 212.52   68.25
  -3  -5   4 13661.4   457.4   2 0.09696-0.47998-0.85356 0.35560-0.51189 0.80198  0 289.11  55.95  140.95 289.35  56.03  141.34
  -3   5  -4 15011.2   475.3   1-0.69647 0.31326-0.40248 0.89987-0.59409 0.30349  0 495.87 120.78   73.32 496.02 120.90   73.38
  -3   5  -4 13718.5   456.5   2-0.22437-0.15852 0.70249-0.20475 0.67540-0.96589  0 300.02  53.99  335.18 299.91  54.27  334.71
  -3   5   4 15038.5   488.2   2-0.20594-0.17695-0.23262 0.73012 0.95051-0.66000  0 263.97  62.81   33.40 264.16  63.03   33.46
   3  -5  -4 14296.0   481.2   2-0.08430 0.46726-0.84947 0.35183 0.52085-0.81110  0 327.47 465.23   78.16 327.41 465.01   78.21
   3  -5  -4 15871.7   439.3   2 0.10502 0.27785 0.17122-0.66889-0.97962 0.68948  0 138.00 178.57  210.21 137.89 178.69  209.87
   3  -5   4 11221.4   371.3   1-0.53148 0.91511-0.84306 0.34543 0.08236 0.20799  0 150.94 362.12  121.83 150.91 362.03  122.00
   3  -5   4 14009.3   433.6   2-0.22032 0.60321-0.08295-0.41455 0.97190-0.68139  0 288.32 460.55   25.27 288.34 460.23   24.75
   3  -5   4 12334.2   368.1   2 0.11171 0.27131-0.76504 0.26764-0.63422 0.92453  0 127.62 209.38  150.08 127.49 209.31  150.13
   3   5  -4 13694.2   391.7   2-0.19492 0.57780 0.88166-0.38392 0.42975-0.72024  0 130.02 200.31  317.01 129.99 200.45  316.96
   3   5   4 15130.9   368.8   2-0.23201 0.61490 0.09414 0.40337 0.96815-0.67764  0 123.00 235.25   14.65 122.66 235.18   14.56
   3   5   4 15027.9   414.1   2-0.01415 0.39707 0.82285-0.32496-0.56808 0.85833  0 258.88 452.12  255.80 259.07 451.70  255.77
  -3  -5  -5  7991.1   354.3   1-0.34548-0.03769 0.36775-0.86513-0.86337 0.50013  0 115.40 301.29   20.73 115.18 301.18   20.70
  -3  -5  -5  6831.0   396.1   2 0.11087-0.49375 0.10652-0.60418-0.98811 0.62544  0 329.20  35.61  205.99 329.09  35.89  206.11
  -3  -5   5  6660.5   326.1   1-0.69811 0.31490-0.41644-0.08095-0.58243 0.94567  0 118.61 201.44   74.37 118.39 201.49   74.42
  -3  -5   5  5720.2   400.9   2 0.08499-0.46801-0.90197 0.40400-0.42335 0.78597  0 277.85  43.62  135.41 278.07  43.74  135.56
  -3   5  -5  6131.8   397.2   2-0.21379-0.16910 0.78666-0.28892 0.57918-0.94230  0 298.25  38.95  327.37 298.09  39.40  327.30
  -3   5   5  7226.4   368.1   2-0.19769-0.18520-0.30381 0.80131 0.93200-0.56886  0 253.29  51.93   37.65 253.17  52.08   37.71
   3  -5  -5  6040.1   423.4   2-0.06579 0.44875-0.89729 0.39965 0.43650-0.79931  0 338.73 481.50   84.02 338.77 481.18   83.85
   3  -5  -5  6702.5   330.4   2 0.09676 0.28612 0.24852-0.74619-0.96378 0.60111  0 130.62 166.56  214.42 130.54 166.73  214.40
   3  -5   5  4808.9   286.6   1-0.51732 0.90095-0.84892 0.35130 0.10821 0.25472  0 132.84 353.54  123.75 132.91 353.47  123.72
   3  -5   5  4525.9   339.8   2-0.22699 0.60988 0.00753-0.50503 0.97387-0.61073  0 288.42 476.02   19.62 288.72 475.54   19.55
   3  -5   5  6568.5   298.9   2 0.09972 0.28330-0.84000 0.34203-0.53335 0.89597  0 117.12 205.21  142.63 116.77 205.07  142.80
   3   5  -5  6227.0   400.8   2 0.13154 0.25148-0.26887 0.76627-0.95415 0.59126  0 311.06 479.45  184.38 310.85 479.17  184.42
   3   5  -5  5850.2   296.5   2-0.18312 0.56601 0.92076-0.42302 0.34448-0.70760  0 122.11 188.10  311.71 121.88 188.21  311.48
   3   5   5  6854.2   280.7   2-0.22590 0.60879-0.00855 0.50605 0.97411-0.61098  0 111.97 231.55   20.48 111.70 231.44   20.47
   3   5   5  6210.8   342.2   2-0.03938 0.42230 0.88987-0.39198-0.45451 0.81732  0 258.56 467.03  263.39 258.66 466.69  263.42
  -3  -5  -6  8828.4   387.5   1-0.31439-0.06878 0.40665-0.90403-0.85778 0.42190  0 103.64 312.76   18.14 103.43 312.69   17.83
  -3  -5  -6  7933.6   447.4   2 0.10329-0.48616 0.18823-0.68589-0.97668 0.54148  0 327.29  16.01  210.85 327.13  16.31  210.86
  -3  -5   6  7440.4   354.7   1-0.70303 0.31982-0.49400-0.00339-0.51158 0.94747  0 107.49 189.47   80.39 107.23 189.52   80.44
  -3  -5   6  7021.6   480.9   2 0.07292-0.45594-0.93818 0.44021-0.33838 0.77352  0 265.27  28.55  129.96 265.49  28.75  130.26
  -3   5  -6  6753.0   427.7   2-0.20176-0.18113 0.85302-0.35528 0.48130-0.91704  0 295.36  20.44  320.49 295.18  20.88  320.40
  -3   5   6  7514.1   394.4   2-0.19033-0.19256-0.35966 0.85716 0.91347-0.47770  0 240.83  38.25   40.99 240.73  38.54   41.11
   3  -5  -6  7552.3   511.4   2-0.04870 0.43166-0.93392 0.43628 0.35414-0.78951  2 351.88 501.53   88.97 351.96 501.46   89.11
   3  -5  -6  7483.1   365.1   2 0.08945 0.29342 0.31011-0.80777-0.94648 0.51128  0 121.65 152.78  217.99 121.28 152.95  218.10
   3  -5   6  6168.4   325.2   1-0.50141 0.88504-0.85438 0.35675 0.13647 0.29905  0 113.88 345.23  125.55 113.64 345.24  125.61
   3  -5   6 117.132 195.759   2-0.23148 0.61437 0.08386-0.58136 0.96922-0.53346  0 289.86 494.79   14.97 289.81 494.97   15.16
   3  -5   6  6984.8   331.9   2 0.08622 0.29680-0.89769 0.39972-0.43211 0.86725  0 103.99 199.60  136.21 103.71 199.48  136.13
   3   5  -6  7084.2   468.1   2 0.13255 0.25047-0.33270 0.83010-0.93367 0.49820  0 323.21 500.58  180.57 323.13 500.10  180.57
   3   5  -6  7181.7   344.0   2-0.17104 0.55393 0.94931-0.45157 0.26372-0.69946  0 112.19 174.35  306.70 111.81 174.38  306.48
   3   5   6  7930.6   313.9   2-0.21933 0.60222-0.09479 0.59230 0.97103-0.53527  0  98.69 226.40   25.38  98.35 226.35   25.44
   3   5   6  7102.2   384.1   2-0.06216 0.44508 0.93639-0.43850-0.34540 0.78078  0 258.78 485.98  270.37 258.73 485.72  270.32
  -3  -5  -7 17422.6   530.2   1-0.28888-0.09429 0.43714-0.93451-0.85174 0.34321  0  89.37 325.49   15.52  89.23 325.35   15.53
  -3  -5   7 13826.4   476.8   1-0.70018 0.31697-0.56419 0.06680-0.43754 0.94608  0  93.96 176.30   86.17  93.66 176.32   86.29
  -3   5   7 14245.1   529.1   2-0.18432-0.19857-0.40237 0.89987 0.89673-0.38834  0 226.76  22.04   43.73 226.59  22.07   43.76
   3  -5  -7 15283.8   518.1   2 0.08325 0.29963 0.35782-0.85548-0.93007 0.42234  0 110.28 137.00  220.99 109.86 137.17  221.01
   3  -5   7 10819.6   438.0   1-0.48388 0.86751-0.85916 0.36153 0.16646 0.34165  0  92.89 337.26  127.59  92.66 337.19  127.61
   3  -5   7 12964.1   438.8   2 0.07225 0.31077-0.93985 0.44188-0.33386 0.84152  0  88.39 192.78  130.06  88.08 192.59  129.99
   3   5  -7 13268.1   468.3   2-0.15917 0.54206 0.96935-0.47160 0.18717-0.69553  0  99.89 158.80  302.00  99.56 158.80  301.85
   3   5   7 14089.2   416.4   2-0.21297 0.59586-0.16444 0.66194 0.96312-0.45473  0  82.66 220.15   29.44  82.31 220.11   29.47
  -3  -5  -8  2580.5   306.7   1-0.26894-0.11423 0.46008-0.95746-0.84616 0.26499  0  72.67 339.62   14.19  72.32 339.51   13.76
  -3  -5   8  2458.2   283.2   1-0.69065 0.30744-0.62629 0.12891-0.36161 0.94280  0  77.41 161.39   91.65  77.43 161.46   91.94
   3  -5  -8  1868.5   271.6   2 0.07814 0.30473 0.39367-0.89133-0.91593 0.33565  0  95.90 118.79  223.02  95.97 119.10  223.24
   3  -5   8  1663.2   248.9   1-0.46476 0.84839-0.86308 0.36545 0.19771 0.38298  0  69.73 329.06  130.15  69.46 329.17  129.72
   3  -5   8  1643.4   228.0   2 0.05813 0.32489-0.96906 0.47109-0.23988 0.82007  0  69.39 184.46  123.98  69.47 184.43  124.32
   3   5  -8  1827.0   256.5   2-0.14701 0.52993 0.98237-0.48447 0.11553-0.69603  0  85.30 141.03  297.67  84.92 141.05  297.64
   3   5   8  2266.5   255.0   2-0.20745 0.59034-0.21856 0.71606 0.95352-0.37250  0  63.35 212.89   32.68  63.29 212.83   32.63
  -3  -5  -9 170.652 210.602   1-0.25444-0.12873 0.47636-0.97373-0.84163 0.18781  0  51.91 355.76   13.21  52.14 355.71   12.48
  -3  -5   9 391.694 209.699   1-0.67505 0.29184-0.68053 0.18314-0.28494 0.93877  0  57.79 144.24   97.41  58.01 144.37   97.39
   3  -5  -9  64.485 226.143   2 0.07423 0.30864 0.41955-0.91722-0.90469 0.25189  0  79.68  98.36  225.10  79.04  98.18  224.86
   3  -5   9-121.416 198.222   1-0.44415 0.82778-0.86592 0.36829 0.23003 0.42325  0  43.02 320.84  131.82  43.31 320.98  131.92
   3  -5   9 152.539 184.923   2 0.04394 0.33908-0.98762 0.48965-0.15057 0.80328  0  47.18 174.84  118.84  47.34 174.91  119.06
   3   5  -9 124.395 211.261   2-0.13534 0.51826 0.98970-0.49181 0.04659-0.69966  0  66.87 120.95  293.62  67.09 120.89  293.58
   3   5   9 148.334 156.096   2-0.20299 0.58588-0.25898 0.75648 0.94431-0.29067  0  40.82 204.67   35.59  40.72 204.56   35.02
  -3  -6   0  1448.5   201.2   1-0.59137 0.20820-0.04177-0.55508-0.80532 0.80532  0 116.61 264.96   48.49 116.41 264.97   48.51
  -3  -6   0 905.140 210.122   2 0.13124-0.51425-0.50554-0.09134-0.85276 0.85276  0 307.74  45.27  169.70 308.10  45.20  169.60
  -3   6   0  1362.4   195.9   1-0.53271 0.14954 0.07943 0.51742-0.84256 0.84256  0 420.98  58.01   40.48 420.88  58.20   40.51
  -3   6   0  1159.2   240.9   2-0.23836-0.14453 0.26841 0.32859 0.93335-0.93335  0 275.25  51.44    4.02 275.43  51.83    4.35
   3  -6   0 804.849 123.616   1-0.59378 0.97741-0.80327 0.20611-0.04679 0.04679  0 198.51 425.22  113.48 198.48 425.26  113.48
   3  -6   0  1513.5   248.6   2-0.16360 0.54655-0.52629-0.07088 0.83442-0.83442  0 314.27 472.57   51.62 314.20 472.27   51.82
   3  -6   0  1562.7   194.4   2 0.13269 0.25033-0.33619-0.26070-0.93240 0.93240  0 128.19 187.18  180.35 128.19 186.93  180.35
   3   6   0  1166.4   212.8   2 0.08165 0.30123 0.36899 0.22821-0.92584 0.92584  0 280.08 466.32  221.60 280.27 466.09  221.70
   3   6   0  1193.7   163.5   2-0.23422 0.61711 0.57152 0.02578 0.78645-0.78645  0 120.41 214.88  344.95 120.05 215.07  344.65
  -3  -6  -1  4381.2   290.6   1-0.55662 0.17346 0.03254-0.62940-0.83013 0.75748  0 115.91 274.83   43.63 115.73 274.84   43.60
  -3  -6  -1  4083.3   339.8   2 0.13314-0.51616-0.40097-0.19591-0.90636 0.83378  0 312.52  42.75  176.33 312.64  42.97  176.34
  -3  -6   1  4418.7   288.8   1-0.62333 0.24012-0.11973-0.47714-0.77274 0.84539  0 115.26 255.21   54.09 115.07 255.14   53.69
  -3  -6   1  3899.4   357.7   2 0.12671-0.50973-0.60284 0.00596-0.78774 0.86031  0 302.13  43.97  162.82 302.28  44.34  162.90
  -3   6  -1  4423.9   331.5   1-0.59705 0.21388-0.05487 0.65172-0.80033 0.72768  0 444.97  66.69   49.30 445.13  66.78   49.38
  -3   6  -1  3858.0   368.6   2-0.23859-0.14433 0.38141 0.21575 0.89308-0.96572  0 279.05  48.93  356.96 279.15  49.23  357.13
  -3   6   1  4614.0   267.1   1-0.42500 0.04183 0.25858 0.33827-0.86747 0.94012  0 397.01  48.15   28.22 397.34  48.53   28.43
  -3   6   1  3861.2   383.1   2-0.23500-0.14789 0.15832 0.43868 0.95902-0.88639  0 270.15  51.56   11.00 270.29  51.66   10.85
   3  -6  -1  2702.5   168.9   1-0.59479 0.97842-0.80240 0.20524-0.04878-0.02381  0 215.51 439.13  113.13 215.57 439.17  113.35
   3  -6  -1  3774.2   377.0   2-0.14684 0.52980-0.61417 0.01700 0.77539-0.84795  0 319.78 474.74   58.01 319.78 474.54   57.97
   3  -6  -1  3801.6   269.0   2 0.13038 0.25264-0.22466-0.37222-0.96568 0.89310  0 128.68 182.40  186.93 128.59 182.27  187.03
   3  -6   1  2741.0   208.9   1-0.58806 0.97169-0.80811 0.21096-0.03378 0.10636  0 182.08 413.14  114.29 182.09 412.96  114.34
   3  -6   1  3625.9   353.7   2-0.17972 0.56261-0.43354-0.16346 0.88303-0.81040  0 309.91 473.76   45.66 309.83 473.45   45.73
   3  -6   1  3983.0   264.9   2 0.13250 0.25052-0.44822-0.14866-0.88405 0.95663  0 125.89 189.90  173.30 125.80 189.84  173.34
   3   6  -1  4220.7   346.5   2 0.09699 0.28588 0.24643 0.35077-0.96429 0.89176  0 286.07 469.47  214.25 286.05 469.21  214.28
   3   6  -1  3420.1   238.1   2-0.22840 0.61129 0.65930-0.06201 0.71635-0.78897  0 120.08 209.67  338.15 119.94 209.85  338.14
   3   6   1  3610.4   326.0   2 0.06289 0.31998 0.49095 0.10625-0.86891 0.94145  0 275.40 466.73  229.40 275.60 466.55  229.46
   3   6   1  3781.6   236.3   2-0.23704 0.61996 0.47466 0.12250 0.84765-0.77501  0 118.34 218.46  351.24 118.15 218.46  351.13
  -3  -6  -2 687.670 167.064   1-0.52074 0.13757 0.10155-0.69840-0.84765 0.70236  0 113.14 284.76   38.95 113.00 284.90   39.04
  -3  -6  -2 558.339 211.741   2 0.13204-0.51506-0.29346-0.30343-0.94681 0.80165  0 315.65  37.11  182.95 315.77  37.45  182.95
  -3  -6   2 636.608 156.041   1-0.65104 0.26783-0.19943-0.39744-0.73238 0.87767  0 111.43 245.40   59.33 111.68 245.22   59.05
  -3  -6   2 519.860 212.518   2 0.12022-0.50324-0.68976 0.09288-0.71398 0.85914  0 295.15  39.96  155.99 295.12  40.52  156.38
  -3   6  -2 726.937 233.000   1-0.63547 0.25226-0.15309 0.74996-0.75679 0.61150  0 470.66  74.59   56.38 470.91  74.36   55.92
  -3   6  -2 775.058 238.267   2-0.23661-0.14631 0.49124 0.10592 0.83827-0.98355  0 281.48  43.60  350.42 281.48  43.64  350.02
  -3   6   2 830.683 137.387   1-0.24647-0.13670 0.48511 0.11174-0.83900 0.98429  0 372.80  38.03   11.92 372.61  37.93   11.79
  -3   6   2 787.250 242.765   2-0.22987-0.15302 0.05511 0.54189 0.97166-0.82640  0 263.66  48.89   16.98 263.71  48.76   16.82
   3  -6  -2 665.786  89.978   1-0.58706 0.97069-0.80893 0.21178-0.03152-0.11365  0 234.75 455.34  114.61 234.59 455.21  114.49
   3  -6  -2 999.730 250.496   2-0.12888 0.51184-0.69384 0.09667 0.70850-0.85363  0 326.81 480.32   63.88 326.76 480.23   64.03
   3  -6  -2 685.942 165.313   2 0.12581 0.25720-0.11872-0.47816-0.98492 0.83977  0 126.96 175.85  193.34 127.03 175.81  193.21
   3  -6   2 668.871 140.635   1-0.57929 0.96292-0.81500 0.21785-0.01399 0.15916  0 165.97 402.27  115.55 165.72 401.92  115.64
   3  -6   2 492.225 225.472   2-0.19310 0.57599-0.33875-0.25825 0.92085-0.77559  0 306.88 478.36   39.92 306.78 478.28   39.83
   3  -6   2 753.061 157.704   2 0.12927 0.25375-0.55575-0.04113-0.82124 0.96639  0 121.37 191.08  166.08 121.37 190.98  166.21
   3   6  -2  19.129 181.366   2 0.10886 0.27401 0.12976 0.46744-0.98555 0.84048  0 293.35 475.25  207.39 292.98 475.78  207.46
   3   6  -2 790.431 151.616   2-0.22066 0.60355 0.73609-0.13880 0.63991-0.78515  0 118.06 202.73  332.07 117.79 202.90  331.87
   3   6   2 639.396 197.661   2 0.04175 0.34113 0.60528-0.00808-0.79491 0.93998  0 272.12 470.34  237.42 271.95 470.59  237.38
   3   6   2 692.345 134.336   2-0.23860 0.62152 0.37398 0.22318 0.89622-0.75094  0 114.09 220.39  357.47 113.95 220.20  357.59
  -3  -6  -3 23595.8   573.9   1-0.48515 0.10198 0.16389-0.76074-0.85894 0.64100  0 108.39 295.41   34.99 108.14 295.32   34.88
  -3  -6  -3 20421.8   546.6   2 0.12918-0.51220-0.18883-0.40805-0.97348 0.75574  0 317.47  28.24  188.83 317.64  28.51  189.13
  -3  -6   3 19418.4   524.7   1-0.67333 0.29012-0.27895-0.31791-0.68470 0.90264  0 106.46 235.06   64.44 106.18 235.03   64.50
  -3  -6   3 17647.4   550.7   2 0.11179-0.49481-0.76441 0.16753-0.63496 0.85270  0 286.34  33.58  149.75 286.64  33.79  150.19
  -3   6  -3 19152.5   561.4   1-0.65838 0.27517-0.22387 0.82073-0.71862 0.50068  0 499.20  80.79   60.69 499.28  80.99   60.71
  -3   6  -3 19842.4   579.7   2-0.23308-0.14981 0.59286 0.00443 0.77083-0.98871  0 282.32  34.49  343.20 282.17  34.85  343.11
  -3   6   3 12355.3   480.9   2-0.22381-0.15908-0.03793 0.63493 0.97389-0.75601  0 255.65  42.98   22.06 255.66  43.21   22.17
   3  -6  -3 15556.2   223.6   1-0.55413 0.93776-0.83154 0.23438 0.03849-0.25625  0 259.14 474.83  118.92 259.53 474.64  119.10
   3  -6  -3 18473.9   247.0   1-0.03515 0.41868-0.73207 0.13524 0.68032-0.89801  0 344.74 490.08  168.29 344.41 489.71  168.20
   3  -6  -3 18592.1   586.4   2-0.11082 0.49378-0.76388 0.16671 0.63577-0.85346  0 335.25 489.82   69.79 335.21 489.54   69.90
   3  -6  -3 20279.2   517.3   2 0.12028 0.26273-0.02181-0.57508-0.99250 0.77476  0 123.89 167.51  198.77 123.53 167.58  198.78
   3  -6   3 14048.3   409.2   1-0.56812 0.95175-0.82289 0.22573 0.00986 0.20790  0 148.91 391.91  116.76 148.93 391.85  117.22
   3  -6   3 18817.6   612.9   2-0.20443 0.58732-0.24640-0.35060 0.94736-0.72948  2 305.03 486.98   34.17 304.80 486.68   34.27
   3  -6   3 19172.7   482.9   2 0.12321 0.25981-0.65420 0.05732-0.74622 0.96396  0 115.11 190.51  159.00 114.81 190.41  159.12
   3   6  -3 17560.1   462.2   2-0.21154 0.59443 0.80100-0.20370 0.56005-0.77792  0 113.96 194.06  326.01 113.65 194.27  325.90
   3   6   3 20449.4   463.1   2-0.23846 0.62135 0.27394 0.32306 0.93171-0.71383  0 107.71 220.20    3.69 107.45 220.15    4.02
   3   6   3 19144.3   512.8   2 0.01904 0.36383 0.70653-0.10933-0.70742 0.92503  0 269.05 478.63  245.18 269.26 478.29  245.17
  -3  -6  -4-289.343 126.322   1-0.45112 0.06795 0.21872-0.81557-0.86525 0.57466  0 100.75 306.48   31.44 101.13 306.32   31.16
  -3  -6  -4 182.355 228.785   2 0.12440-0.50742-0.09120-0.50569-0.98803 0.69772  0 318.20  16.08  194.56 318.31  15.94  194.79
  -3  -6   4 -57.471 134.755   1-0.68974 0.30653-0.35624-0.24062-0.63035 0.92094  0  98.68 224.46   69.45  98.60 224.40   69.99
  -3  -6   4 364.585 254.215   2 0.10227-0.48529-0.82635 0.22879-0.55379 0.84389  0 276.87  23.75  144.26 276.79  23.94  144.21
  -3   6  -4 217.348 244.921   2-0.22618-0.15671 0.68422-0.08692 0.69332-0.98381  0 281.94  22.32  335.90 281.88  22.80  336.18
  -3   6   4  22.379 177.541   2-0.21720-0.16569-0.11880 0.71580 0.96887-0.67836  0 246.03  34.88   26.90 246.19  34.92   26.83
   3  -6  -4 191.337 259.977   2-0.09302 0.47598-0.82354 0.22637 0.55957-0.84982  2 345.19 502.50   75.38 345.33 502.75   75.51
   3  -6  -4  64.424 138.190   2 0.11445 0.26843 0.06322-0.66042-0.99142 0.70128  0 118.59 157.60  203.92 118.03 157.54  203.62
   3  -6   4 0.06378 139.069   1-0.55499 0.93862-0.83105 0.23389 0.03678 0.25357  0 131.10 382.35  119.26 131.34 382.57  118.99
   3  -6   4  59.034 128.917   2 0.11483 0.26819-0.74038 0.14350-0.66230 0.95262  0 105.63 188.24  151.87 106.07 188.19  152.26
   3   6  -4 -33.191 243.899   2 0.12316 0.25986-0.06862 0.66551-0.99001 0.69970  0 310.68 499.51  195.89 310.32 499.79  196.08
   3   6  -4  30.997 127.034   2-0.20148 0.58437 0.85425-0.25695 0.47924-0.76973  0 107.31 184.03  319.92 107.44 183.99  320.26
   3   6   4 -24.670 108.035   2-0.23571 0.61860 0.17826 0.41874 0.95533-0.66483  0  99.03 218.72   10.06  98.66 218.64    9.68
   3   6   4 -22.888 196.047   2-0.00410 0.38702 0.79148-0.19401-0.61118 0.90143  0 266.94 490.11  253.08 267.26 489.81  252.66
  -3  -6  -5  3250.4   319.3   1-0.42010 0.03693 0.26580-0.86265-0.86768 0.50445  0  92.03 318.16   27.67  91.92 318.07   27.93
  -3  -6   5  2695.3   275.4   1-0.69950 0.31629-0.43017-0.16669-0.57066 0.93390  0  88.90 213.17   75.40  88.73 213.10   75.46
  -3  -6   5  2145.6   340.5   2 0.09166-0.47468-0.87678 0.27922-0.47208 0.83470  0 265.45  12.03  138.67 265.63  11.44  138.70
  -3   6  -5  2492.4   353.6   2-0.21726-0.16563 0.76276-0.16547 0.60909-0.97221  2 280.54   7.39  329.65 280.36   7.12  329.51
  -3   6   5  2592.8   293.2   2-0.21073-0.17216-0.18705 0.78405 0.95948-0.59634  0 235.21  23.94   30.98 235.14  23.91   30.78
   3  -6  -5  2960.7   309.5   2 0.10842 0.27445 0.13608-0.73328-0.98475 0.62208  0 110.94 145.56  207.67 110.56 145.55  207.83
   3  -6   5  1952.0   243.0   1-0.54008 0.92371-0.83903 0.24188 0.06586 0.29707  0 112.94 374.02  121.22 112.61 373.90  120.92
   3  -6   5  2063.2   249.9   2 0.10469 0.27833-0.81248 0.21492-0.57351 0.93613  0  95.23 184.49  145.41  94.99 184.36  145.59
   3   6  -5  2213.9   242.4   2-0.19075 0.57364 0.89677-0.29947 0.39928-0.76240  0  99.44 171.95  315.00  99.18 172.03  314.98
   3   6   5  2690.2   238.5   2-0.23187 0.61476 0.09136 0.50564 0.96845-0.60531  0  87.69 215.60   14.73  87.41 215.69   14.72
  -3  -6  -6 -76.321 155.645   1-0.39216 0.00899 0.30499-0.90184-0.86787 0.43199  0  80.28 331.08   26.16  80.25 330.86   25.18
  -3  -6   6 193.782 154.430   1-0.70307 0.31986-0.49912-0.09774-0.50652 0.94241  0  76.62 200.93   81.14  76.47 200.86   80.86
  -3   6   6 294.062 227.626   2-0.20479-0.17810-0.24309 0.84009 0.94814-0.51237  2 222.37   9.73   34.25 222.36   9.88   34.08
   3  -6  -6 340.409 197.041   2 0.10244 0.28044 0.19640-0.79360-0.97516 0.53995  0 100.37 131.54  210.96 100.89 131.54  211.34
   3  -6   6  44.712 179.391   1-0.52366 0.90729-0.84640 0.24925 0.09686 0.33866  0  92.32 365.75  122.56  92.32 365.71  122.96
   3  -6   6 251.696 157.340   2 0.09298 0.29004-0.87128 0.27372-0.48189 0.91703  0  80.64 179.24  139.37  81.32 179.11  139.35
   3   6  -6 303.780 180.101   2-0.17969 0.56258 0.92981-0.33252 0.32118-0.75693  0  88.70 158.17  310.41  88.65 158.24  310.04
   3   6   6  91.651 131.667   2-0.22757 0.61046 0.01559 0.58141 0.97364-0.53787  0  73.85 211.44   19.52  73.51 211.42   19.09
  -3  -6  -7  8068.3   456.1   1-0.36900-0.01417 0.33688-0.93373-0.86623 0.35770  0  65.96 345.16   22.73  65.86 345.13   22.93
  -3  -6   7  5598.8   374.6   1-0.70032 0.31711-0.56269-0.03417-0.43924 0.94777  0  61.44 187.26   86.13  61.49 187.35   86.16
   3  -6  -7  6501.8   440.5   2 0.09714 0.28574 0.24520-0.84240-0.96459 0.45686  0  88.98 114.98  213.99  88.74 115.20  214.21
   3  -6   7  5039.3   385.9   1-0.50564 0.88927-0.85304 0.25589 0.12901 0.37910  0  70.17 357.81  124.98  69.95 357.84  125.11
   3  -6   7  5889.0   365.8   2 0.08035 0.30267-0.91720 0.31964-0.39023 0.89790  0  64.74 172.72  133.32  64.74 172.44  133.47
   3   6  -7  6136.7   402.3   2-0.16833 0.55122 0.95465-0.35735 0.24560-0.75396  0  75.60 142.34  305.55  75.57 142.43  305.36
   3   6   7  5762.4   338.3   2-0.22307 0.60596-0.04828 0.64528 0.97361-0.46521  0  56.98 205.89   22.75  56.64 205.92   22.76
  -3  -6  -8 599.050 222.651   1-0.35014-0.03303 0.36174-0.95860-0.86403 0.28285  0  48.43 361.43   21.63  48.33 361.33   21.14
  -3  -6   8 140.526 214.447   1-0.69196 0.30875-0.62011 0.02324-0.36968 0.95086  0  43.28 171.88   91.39  43.41 172.13   91.35
   3  -6  -8 504.565 239.454   2 0.09266 0.29022 0.28357-0.88077-0.95447 0.37419  0  73.73  96.24  216.77  73.69  96.10  216.49
   3  -6   8 124.816 204.373   1-0.48623 0.86986-0.85861 0.26146 0.16238 0.41831  0  44.81 350.39  127.56  44.89 350.17  127.34
   3  -6   8 -43.167 198.176   2 0.06737 0.31565-0.95149 0.35393-0.30021 0.88040  0  45.09 163.95  127.43  44.75 164.25  127.94
   3   6  -8 355.197 229.145   2-0.15683 0.53972 0.97242-0.37512 0.17266-0.75365  0  59.58 124.24  300.58  59.50 124.21  300.97
   3   6   8 619.479 183.869   2-0.21881 0.60170-0.10027 0.69727 0.97060-0.38958  0  36.39 199.10   25.54  36.29 199.22   25.75
  -3  -7   0 -26.792 142.466   1-0.62047 0.23726-0.11216-0.58419-0.77617 0.77617  0  86.23 279.76   54.10  86.37 279.73   53.19
  -3   7   0-169.263 232.112   1-0.46405 0.08089 0.19823 0.49810-0.86334 0.86334  0 453.75  14.42   32.41 453.79  14.65   32.56
   3  -7   0-111.778 116.434   1-0.60871 0.99234-0.78915 0.09247-0.08195 0.08195  0 176.65 453.92  111.64 176.37 453.10  111.15
   3  -7   0  30.977 143.478   2 0.13298 0.25004-0.38037-0.31599-0.91522 0.91522  0 103.74 162.47  177.57 103.67 162.63  177.63
   3   7   0  70.462 142.181   2-0.23369 0.61658 0.58202 0.11482 0.77887-0.77887  0  92.84 195.75  344.14  92.47 195.89  343.89
  -3  -7  -1  3106.3   290.8   1-0.59361 0.21044-0.04691-0.64942-0.80338 0.73073  0  86.53 290.20   48.69  86.21 290.30   48.85
  -3  -7   1  2876.8   286.7   1-0.64476 0.26155-0.18008-0.51626-0.74287 0.81551  0  84.63 269.49   57.93  84.42 269.32   57.74
  -3   7  -1  2602.2   310.7   1-0.53494 0.15177 0.07522 0.62111-0.84154 0.76889  0 480.51  23.44   40.87 480.56  23.48   40.78
  -3   7  -1  2627.1   355.1   2-0.23828-0.14464 0.41781 0.27888 0.87673-0.94937  0 258.47  13.51  355.02 258.56  13.42  354.83
  -3   7   1  2455.4   284.1   2-0.23738-0.14551 0.22833 0.46817 0.94420-0.87157  0 249.78  16.72    6.96 249.63  16.77    6.73
   3  -7  -1  1309.0   156.0   1-0.61226 0.99589-0.78543 0.08875-0.09075 0.01816  0 193.42 468.48  110.45 193.44 468.45  110.57
   3  -7  -1  2766.6   285.4   2 0.13190 0.25112-0.28582-0.41054-0.94916 0.87658  0 104.00 157.91  183.38 104.24 157.92  183.40
   3  -7   1  1678.6   196.1   1-0.60183 0.98546-0.79595 0.09927-0.06529 0.13788  0 159.69 439.53  112.02 159.76 439.70  112.25
   3  -7   1  2835.0   282.8   2 0.13199 0.25103-0.47536-0.22100-0.86983 0.94241  0 101.49 165.66  171.61 101.02 165.63  171.59
   3   7  -1  3048.3   270.6   2-0.22853 0.61142 0.65776 0.03908 0.71772-0.79034  0  92.65 190.56  338.40  92.51 190.66  338.26
   3   7   1  2374.7   253.1   2-0.23702 0.61990 0.50087 0.19597 0.83244-0.75981  0  90.44 199.28  349.65  90.22 199.47  349.50
  -3  -7  -2 24559.3   625.2   1-0.56546 0.18229 0.01448-0.71081-0.82465 0.67936  0  84.06 301.28   44.80  83.90 301.19   44.80
  -3  -7   2 22569.1   598.4   1-0.66557 0.28236-0.24928-0.44706-0.70347 0.84877  0  80.55 258.98   62.39  80.28 258.89   62.45
  -3   7  -2 22089.8   716.8   2-0.23669-0.14620 0.51095 0.18589 0.82638-0.97163  2 260.81   6.94  349.06 260.71   7.09  348.82
  -3   7   2 22870.6   624.3   2-0.23421-0.14868 0.13923 0.55727 0.96216-0.81691  0 243.07  13.90   11.98 242.97  14.11   11.96
   3  -7  -2 14149.8   308.5   1-0.61053 0.99416-0.78727 0.09059-0.08644-0.05874  0 211.98 486.47  110.77 212.04 486.34  110.86
   3  -7  -2 22914.9   590.5   2 0.12941 0.25361-0.19480-0.50157-0.97227 0.82711  0 103.05 151.42  188.81 102.71 151.40  188.78
   3  -7   2 14319.0   424.3   1-0.59244 0.97607-0.80443 0.10775-0.04371 0.18889  0 142.88 428.02  113.66 142.96 427.82  113.68
   3  -7   2 20730.6   552.0   2 0.12869 0.25433-0.56740-0.12896-0.81332 0.95848  0  96.47 166.98  165.32  96.25 166.89  165.41
   3   7  -2 19747.5   523.1   2-0.22174 0.60463 0.72622-0.02938 0.65072-0.79596  0  90.74 183.51  333.10  90.42 183.76  332.73
   3   7   2 22227.6   535.9   2-0.23829 0.62120 0.41676 0.27992 0.87723-0.73195  0  86.05 201.26  354.88  85.83 201.30  354.90
  -3  -7  -3 553.637 201.956   1-0.53718 0.15401 0.07096-0.76729-0.84048 0.62254  0  79.51 312.52   41.36  79.40 312.60   41.07
  -3  -7   3 525.286 176.079   1-0.68234 0.29913-0.31821-0.37814-0.65815 0.87609  0  74.23 248.21   67.37  73.98 248.26   67.26
  -3   7   3 314.764 210.069   2-0.23000-0.15289 0.05723 0.63927 0.97151-0.75363  2 234.97   8.92   16.53 234.80   8.56   16.70
   3  -7  -3 617.234 200.428   2 0.12542 0.25759-0.11029-0.58608-0.98595 0.76822  0  99.39 143.02  193.34  99.15 143.06  193.69
   3  -7   3 585.978 168.566   1-0.58106 0.96469-0.81366 0.11698-0.01822 0.23599  0 125.87 416.64  115.39 125.54 417.18  115.37
   3  -7   3 470.935 167.049   2 0.12327 0.25974-0.65332-0.04305-0.74698 0.96472  0  89.01 166.68  159.04  89.24 166.50  159.19
   3   7  -3 646.310 176.232   2-0.21384 0.59673 0.78637-0.08953 0.57956-0.79743  0  85.90 175.21  327.45  86.21 175.24  327.32
  -3  -7  -4 225.189 184.520   1-0.50949 0.12632 0.12162-0.81795-0.85184 0.56125  0  72.66 324.70   37.46  72.56 324.77   37.70
  -3  -7   4 157.716 161.586   1-0.69424 0.31103-0.38577-0.31058-0.60763 0.89822  0  64.89 237.08   73.12  65.34 237.19   72.14
   3  -7  -4  21.682 179.026   2 0.12108 0.26193-0.03384-0.66252-0.99207 0.70175  0  93.31 132.74  198.04  93.41 132.73  198.08
   3  -7   4 266.679 180.853   1-0.56797 0.95160-0.82299 0.12631 0.01016 0.28019  0 106.93 407.43  117.33 107.06 407.58  117.24
   3  -7   4 262.878 180.539   2 0.11598 0.26704-0.73071 0.03435-0.67276 0.96307  0  79.76 164.53  153.33  79.86 164.46  153.06
   3   7  -4 302.642 174.259   2-0.20494 0.58783 0.83776-0.14092 0.50612-0.79662  0  79.66 164.99  322.45  79.67 164.97  322.10
   3   7   4 431.810 153.907   2-0.23804 0.62093 0.25392 0.44258 0.93748-0.64697  0  69.48 200.88    5.19  69.60 200.61    5.21
  -3  -7  -5  7469.9   415.5   1-0.48381 0.10064 0.16613-0.86245-0.85926 0.49603  0  63.27 338.12   35.17  63.22 337.98   34.73
  -3  -7   5  6072.0   413.9   1-0.70115 0.31794-0.45071-0.24564-0.55250 0.91574  0  54.41 225.53   76.99  54.20 225.46   77.03
   3  -7  -5  6510.8   437.6   2 0.11682 0.26605 0.03292-0.72965-0.99261 0.62994  0  85.67 120.13  202.20  85.30 120.30  201.88
   3  -7   5  4886.7   380.7   1-0.55319 0.93682-0.83208 0.13540 0.04038 0.32255  0  87.44 398.69  118.98  87.10 398.79  119.23
   3  -7   5  5788.4   393.4   2 0.10710 0.27592-0.79785 0.10069-0.59327 0.95589  0  68.26 160.91  147.07  67.90 160.68  147.00
   3   7  -5  5826.6   395.9   2-0.19521 0.57810 0.88054-0.18370 0.43190-0.79502  0  71.00 152.67  317.29  70.77 152.82  317.10
   3   7   5  6660.8   354.7   2-0.23576 0.61865 0.17984 0.51666 0.95502-0.59189  0  57.69 198.19    9.69  57.52 198.16    9.59
  -3  -7  -6 10787.1   501.5   1-0.46040 0.07723 0.20413-0.90045-0.86392 0.42804  0  51.18 352.77   32.09  51.15 352.64   32.16
  -3  -7   6  9880.5   478.8   1-0.70299 0.31978-0.51210-0.18424-0.49352 0.92941  0  40.47 212.74   82.14  40.31 212.77   81.91
   3  -7  -6 10196.3   515.4   2 0.11228 0.27059 0.09033-0.78706-0.98956 0.55436  0  74.96 105.28  204.99  74.74 105.48  205.18
   3  -7   6  6748.4   418.3   1-0.53681 0.92044-0.84061 0.14393 0.07211 0.36341  0  65.49 390.71  121.28  65.22 390.67  121.33
   3  -7   6  8592.4   455.8   2 0.09670 0.28632-0.85476 0.15760-0.50994 0.94508  0  53.27 155.73  141.01  53.01 155.46  141.21
   3   7  -6  7650.1   449.0   2-0.18495 0.56784 0.91526-0.21842 0.35789-0.79363  0  59.31 138.39  312.56  59.26 138.61  312.34
   3   7   6  9166.0   412.9   2-0.23297 0.61586 0.11362 0.58288 0.96582-0.53006  0  42.62 194.42   13.36  42.45 194.39   13.44
  -3  -7  -7  1538.1   300.5   1-0.44013 0.05696 0.23569-0.93201-0.86645 0.35792  0  36.28 369.15   29.94  36.02 369.16   30.00
  -3  -7   7 556.058 235.933   1-0.69969 0.31648-0.56940-0.12694-0.43153 0.94007  0  23.67 198.92   86.67  23.25 198.75   86.75
   3  -7  -7  1509.0   300.7   2 0.10821 0.27466 0.13831-0.83504-0.98446 0.47672  0  61.47  87.79  207.62  61.21  87.85  207.96
   3  -7   7 493.043 244.365   1-0.51897 0.90260-0.84829 0.15161 0.10522 0.40289  0  40.62 383.29  124.21  40.76 383.10  123.52
   3  -7   7 692.391 259.451   2 0.08521 0.29781-0.90123 0.20407-0.42489 0.93256  0  35.24 148.75  136.02  34.74 148.59  135.66
   3   7  -7  1384.1   293.8   2-0.17425 0.55714 0.94260-0.24576 0.28485-0.79322  0  45.00 122.05  307.59  44.67 122.01  307.79
   3   7   7  1101.8   229.5   2-0.22994 0.61283 0.05627 0.64023 0.97158-0.46319  0  24.46 189.27   16.69  23.91 189.33   16.75
  -3  -8   0  6192.2   404.9   1-0.64466 0.26145-0.17975-0.61607-0.74304 0.74304  0  50.67 297.19   57.75  50.56 297.05   57.71
   3  -8   0  3415.2   309.3   1-0.61220 0.99583-0.78550-0.01071-0.09060 0.09060  0 150.41 488.93  110.47 150.50 488.96  110.58
   3  -8   0  6082.6   420.6   2 0.13296 0.25006-0.42610-0.36974-0.89485 0.89485  0  73.78 134.75  174.76  73.37 134.69  174.76
   3   8   0  6055.5   372.4   2-0.23253 0.61542 0.60203 0.19436 0.76386-0.76386  0  58.84 174.45  342.58  58.76 174.61  342.44
  -3  -8  -1  6849.6   415.3   1-0.62434 0.24113-0.12242-0.67340-0.77150 0.69885  0  50.93 308.56   54.12  50.83 308.58   53.87
  -3  -8   1  6179.4   395.0   1-0.66276 0.27955-0.23913-0.55669-0.70962 0.78227  0  48.23 285.87   61.69  47.92 285.81   61.75
   3  -8  -1  6489.0   427.1   2 0.13276 0.25025-0.34476-0.45108-0.92926 0.85668  0  74.37 129.90  179.74  74.04 129.73  179.83
   3  -8   1  4206.1   338.0   1-0.60553 0.98916-0.79235-0.00385-0.07418 0.14676  0 132.87 473.87  111.59 133.05 473.92  111.66
   3  -8   1  6142.9   403.0   2 0.13105 0.25196-0.50797-0.28788-0.85135 0.92393  0  70.50 137.99  169.44  70.41 137.86  169.44
   3   8  -1  5390.8   360.7   2-0.22768 0.61057 0.66765 0.12874 0.70880-0.78143  0  58.81 169.13  337.63  58.87 169.16  337.49
   3   8   1  5636.5   362.7   2-0.23595 0.61884 0.53289 0.26350 0.81262-0.74000  0  56.31 178.27  347.40  56.20 178.40  347.33
  -3  -8  -2 310.820 187.179   1-0.60271 0.21950-0.06806-0.72776-0.79506 0.64976  0  48.87 320.93   51.14  48.75 320.59   50.26
  -3  -8   2 254.631 186.948   1-0.67819 0.29498-0.29940-0.49642-0.67113 0.81643  0  43.61 274.59   66.12  42.94 274.65   65.93
   3  -8  -2 295.169 202.581   2 0.13147 0.25155-0.26587-0.52997-0.95500 0.80985  0  73.34 123.00  184.58  72.42 122.86  184.60
   3  -8   2  91.847 189.187   1-0.59655 0.98018-0.80083 0.00462-0.05287 0.19804  0 115.33 460.67  113.11 115.28 460.87  113.08
   3  -8   2 544.232 221.749   2 0.12766 0.25536-0.58762-0.20822-0.79900 0.94416  0  64.75 139.12  163.61  65.11 139.26  163.99
   3   8  -2 217.577 192.077   2-0.22159 0.60448 0.72829 0.06810 0.64846-0.79371  0  57.26 161.78  333.11  56.62 162.10  332.54
   3   8   2-123.648 166.423   2-0.23748 0.62039 0.46170 0.33451 0.85465-0.70938  0  51.46 180.24  352.09  51.39 180.45  351.99
  -3  -8  -3  3981.2   409.8   1-0.58053 0.19736-0.01753-0.77827-0.81405 0.59611  0  44.12 333.57   46.71  44.23 333.43   46.91
  -3  -8   3  4180.1   361.4   1-0.69031 0.30710-0.35955-0.43626-0.62785 0.84579  0  35.47 263.33   70.18  35.50 263.34   70.23
   3  -8  -3  4157.6   427.1   2 0.12928 0.25373-0.19146-0.60438-0.97295 0.75521  0  68.52 113.91  189.02  68.41 113.95  188.98
   3  -8   3  3055.7   354.4   1-0.58556 0.96919-0.81014 0.01393-0.02817 0.24593  0  96.52 449.75  114.69  96.63 449.44  114.71
   3  -8   3  3346.6   360.9   2 0.12251 0.26051-0.66298-0.13287-0.73855 0.95628  0  57.53 138.87  158.37  57.31 138.90  158.45
   3   8  -3  2911.1   353.0   2-0.21437 0.59726 0.78289 0.01350 0.58406-0.80193  0  52.76 153.06  328.10  51.98 153.25  327.65
   3   8   3  3498.2   331.2   2-0.23856 0.62148 0.39150 0.40471 0.88871-0.67080  0  43.66 181.17  356.53  43.75 181.20  356.50
  -3  -8  -4  41.813 227.401   1-0.55864 0.17547 0.02846-0.82426-0.82892 0.53833  0  36.67 347.29   43.55  37.09 347.32   43.87
  -3  -8   4-316.122 193.829   1-0.69837 0.31516-0.41886-0.37696-0.58037 0.87096  0  25.42 251.76   74.58  25.39 251.65   74.60
   3  -8  -4 414.620 254.036   2 0.12604 0.25697-0.12331-0.67254-0.98433 0.69402  0  62.09 103.06  192.97  61.98 102.87  192.94
   3  -8   4 519.673 214.462   1-0.57292 0.95655-0.81961 0.02341-0.00028 0.29063  0  76.61 439.33  116.59  76.62 439.41  116.55
   3  -8   4  53.355 230.051   2 0.11582 0.26720-0.73216-0.06369-0.67122 0.96153  0  46.43 136.73  152.86  46.82 136.79  152.94
   3   8  -4 -59.682 205.321   2-0.20630 0.58919 0.83090-0.03451 0.51676-0.80726  0  45.11 142.44  323.03  44.63 142.53  322.83
  -4   0   0 186196.   1010.   1-0.25545-0.25545 0.47520-0.47520-0.84198 0.84198  0 212.85 165.21   12.58 212.76 165.34   12.57
  -4   0   0 144103.    890.   1-0.25568-0.25568-0.84224 0.84224 0.47461-0.47461  0 400.67 149.66  149.91 401.12 149.79  149.73
  -4   0  -1  13.739  70.453   1-0.14723-0.36366 0.58529-0.58529-0.79735 0.72470  0 202.50 175.15    3.37 202.53 175.08    3.34
  -4   0  -1 -60.259 101.791   1-0.31803-0.19347-0.85836 0.85836 0.40258-0.47517  0 415.10 158.97  144.49 415.25 159.18  144.20
  -4   0   1  -8.484  63.467   1-0.38396-0.12693 0.31632-0.31632-0.86748 0.94012  0 221.47 154.95   24.53 221.38 155.01   24.38
  -4   0   1 -78.789  85.763   1-0.18260-0.32876-0.81409 0.81409 0.55129-0.47873  0 389.44 139.92  156.55 389.51 139.74  156.01
  -4   0   1 -29.356  45.974   2-0.14909-0.36151-0.60303 0.60303 0.78367-0.71110  0 396.88 144.68   57.15 396.73 144.77   57.16
  -4   0   1  23.391  42.117   2-0.19705-0.31347 0.87332-0.87332 0.44551-0.37289  0 445.60 202.94  317.84 445.47 202.77  318.01
   4   0  -1  21.457  15.740   2 0.13301 0.37768-0.42132 0.42132-0.89710 0.82452  0 200.18 338.74  174.59 200.07 338.43  175.06
   4   0  -1  -4.730  14.235   2 0.11941 0.39128-0.00898 0.00898-0.99280 0.92023  0 190.63 323.63  199.40 190.61 323.61  199.51
  -4   0  -2  72.337 115.304   1-0.37127-0.14024-0.86621 0.86621 0.33442-0.47959  0 431.94 168.15  139.33 431.92 168.11  139.22
  -4   0   2 -11.566  53.679   1-0.51753 0.00663 0.10739-0.10739-0.84890 0.99419  0 227.76 144.24   38.49 227.92 144.06   38.65
  -4   0   2  78.534  88.069   1-0.09764-0.41373-0.77088 0.77088 0.62945-0.48432  0 380.96 128.63  163.47 380.92 128.76  163.08
  -4   0   2 -39.186  64.961   2-0.10367-0.40694-0.78862 0.78862 0.60607-0.46095  0 379.51 128.18   71.93 379.31 128.37   72.13
  -4   0   2 -22.630  60.949   2-0.18135-0.32917 0.92553-0.92553 0.33241-0.18717  0 459.94 224.38  311.07 459.73 224.34  310.73
   4   0  -2  31.042  38.811   2 0.10720 0.40349-0.79719 0.79719-0.59413 0.44908  0 219.31 365.84  147.76 219.67 365.84  147.07
   4   0  -2  25.384  36.868   2 0.04580 0.46470 0.58519-0.58519-0.80960 0.66453  0 174.55 294.95  235.87 174.54 294.98  235.93
  -4   0  -3  36.374 128.156   1-0.41720-0.09431-0.86768 0.86768 0.27034-0.48810  0 451.22 177.00  135.17 451.20 176.85  134.70
  -4   0  -3   3.640  26.513   2 0.12118-0.63187-0.03539 0.03539-0.99200 0.77426  0 446.71 171.18  198.39 446.77 171.46  197.99
  -4   0  -3 -10.232  27.255   2 0.05028-0.56078 0.56204-0.56204-0.82558 0.60798  0 429.63 151.34  234.79 429.79 151.63  234.31
  -4   0   3  -1.116  56.002   1-0.62869 0.11774-0.13421 0.13421-0.76599 0.98393  0 231.88 132.32   54.65 231.89 132.23   54.66
  -4   0   3  15.869  89.862   1-0.00194-0.50943-0.70930 0.70930 0.70490-0.48721  0 375.65 116.62  171.03 375.77 116.44  170.91
  -4   0   3 -31.318  85.274   2-0.08264-0.42797-0.85389 0.85389 0.51385-0.29616  0 363.71 112.55   78.49 363.60 112.67   78.68
  -4   0   3  17.771  80.621   2-0.17580-0.33472 0.93915-0.93915 0.29512-0.07725  0 474.21 244.81  308.54 474.22 244.97  308.42
   4   0  -3 -38.283  52.183   2 0.09379 0.41690-0.86779 0.86779-0.48799 0.27042  0 233.35 384.91  139.23 233.09 384.95  139.75
   4   0  -3  -0.870  42.849   2 0.01211 0.49839 0.73383-0.73383-0.67922 0.46162  0 163.83 276.46  247.64 164.02 276.61  247.45
   4   0   3  -3.803  74.271   1 0.00103 0.51033-0.70718 0.70718 0.70703-0.48934  0 178.05 323.16  171.30 178.25 323.20  171.15
  -4   0  -4  2645.9   262.3   1-0.45720-0.05430-0.86428 0.86428 0.20972-0.50007  0 473.28 185.41  130.53 473.40 185.54  130.54
  -4   0  -4  2693.6   121.8   2 0.12930-0.63999-0.55493 0.55493-0.82179 0.53147  0 475.58 192.10  166.28 475.84 192.32  166.26
  -4   0  -4  2922.4   126.4   2-0.01371-0.49685 0.82149-0.82149-0.57006 0.27980  0 415.20 122.02  255.66 415.46 122.33  255.63
  -4   0   4  2878.9   138.0   1-0.69158 0.18064-0.36801 0.36801-0.62152 0.91211  0 232.84 119.33   70.91 232.77 119.51   70.84
  -4   0   4  2616.9   203.1   2-0.07231-0.43830-0.88127 0.88127 0.46706-0.17681  0 348.62  96.39   81.82 348.64  96.56   81.84
  -4   0   4  2446.7   203.5   2-0.17458-0.33594 0.94188-0.94188 0.28703 0.00346  0 490.06 265.72  308.02 490.10 265.94  307.92
   4   0  -4  2452.9   157.7   2 0.08738 0.42331-0.89337 0.89337-0.44074 0.15065  0 245.76 404.14  136.59 245.54 403.93  136.67
   4   0  -4  2669.4   148.2   2-0.00571 0.51627 0.79681-0.79681-0.60421 0.31395  0 153.68 259.94  253.08 153.70 259.78  253.17
   4   0   4  2572.5   194.0   1-0.04412 0.55549-0.73803 0.73803 0.67333-0.38307  0 164.46 314.50  167.42 164.32 314.55  167.47
  -4   0  -5 194.748 181.004   1-0.49237-0.01914-0.85701 0.85701 0.15201-0.51495  0 499.21 194.62  126.53 499.06 194.45  126.65
  -4   0  -5 163.216  86.728   2 0.11977-0.63046-0.69463 0.69463-0.70933 0.34643  2 502.68 207.57  156.09 502.70 207.66  156.00
  -4   0  -5  53.395  86.278   2-0.02961-0.48095 0.86611-0.86611-0.49897 0.13615  0 406.95  97.67  260.57 407.10  97.70  260.51
  -4   0   5  10.170  64.470   1-0.70075 0.18980-0.55783 0.55783-0.44472 0.80796  0 230.55 105.40   85.91 230.48 105.62   85.74
  -4   0   5 -56.933 126.195   2-0.06769-0.44292-0.89274 0.89274 0.44545-0.08264  0 334.44  79.22   83.57 333.94  79.49   83.26
   4   0  -5 -23.472  99.897   1-0.19916 0.71006 0.53502-0.53502-0.82103 0.45780  0 379.00 429.64    8.10 378.78 429.99    7.71
   4   0  -5  33.719 115.590   2 0.08474 0.42595-0.90282 0.90282-0.42158 0.05896  0 257.49 423.96  135.66 257.76 424.11  135.45
   4   0  -5 -48.731  68.124   2-0.01544 0.52600 0.82674-0.82674-0.56237 0.19955  0 142.46 243.62  256.73 142.75 243.51  256.17
   4   0   5  22.496  99.340   1-0.07547 0.58684-0.75776 0.75776 0.64815-0.28533  0 149.38 306.01  165.12 149.17 306.00  164.90
   4   0   5 0.07014 41.1350   2-0.13456 0.64516-0.66998 0.66998 0.73008-0.36727  0 150.93 313.64   61.96 151.03 313.47   62.16
   4   0   5  20.943  44.373   2-0.23825 0.74880 0.42069-0.42069 0.87536-0.51216  0 193.49 382.60  355.11 193.91 382.75  354.65
  -4   0  -6 10459.8   296.2   2-0.03454-0.47602 0.87847-0.87847-0.47655 0.04117  0 399.94  71.89  261.96 400.35  72.21  261.99
  -4   0   6 10038.4   240.5   1-0.67116 0.16022-0.69065 0.69065-0.26933 0.70522  0 225.22  90.12   98.28 225.13  90.28   98.47
  -4   0   6  9179.7   363.7   2-0.06638-0.44423-0.89590 0.89590 0.43926-0.00389  0 319.13  60.83   83.64 319.15  61.00   83.67
   4   0  -6 11811.7   289.2   1-0.28424 0.79514 0.44254-0.44254-0.85051 0.41463  0 385.48 449.58   15.04 385.79 449.33   15.11
   4   0  -6  9799.8   366.1   2 0.08429 0.42641-0.90437 0.90437-0.41833-0.01681  0 270.29 446.63  135.09 270.20 446.40  135.24
   4   0  -6  9815.1   304.4   2-0.02031 0.53087 0.84086-0.84086-0.54087 0.10549  0 130.71 227.36  257.51 130.75 227.16  257.66
   4   0   6  9893.5   366.0   1-0.09605 0.60742-0.76997 0.76997 0.63081-0.19543  0 132.67 297.46  162.88 132.66 297.43  163.21
   4   0   6  9456.5   212.8   2-0.11466 0.62526-0.74987 0.74987 0.65158-0.21620  0 132.69 299.69   68.77 132.68 299.79   68.67
   4   0   6  9677.5   220.4   2-0.23461 0.74513 0.56392-0.56392 0.79180-0.35606  0 199.12 408.53  345.15 199.16 408.32  345.18
  -4   0  -7  65.718 161.762   2-0.03473-0.47583 0.87894-0.87894-0.47566-0.03228  0 394.73  44.46  262.00 394.68  44.48  262.05
  -4   0   7 -67.868  78.089   1-0.62155 0.11004-0.77501 0.77501-0.11419 0.62230  0 217.06  72.99  108.91 217.20  72.83  109.01
  -4   0   7 -49.853 183.424   2-0.06718-0.44342-0.89396 0.89396 0.44308 0.06486  0 304.16  40.10   83.73 303.99  40.60   83.42
   4   0  -7 -13.807 135.207   1-0.35170 0.86259 0.35973-0.35973-0.86424 0.35571  0 396.02 472.77   21.02 396.50 472.43   21.28
   4   0  -7 101.039 177.308   2 0.08522 0.42548-0.90118 0.90118-0.42498-0.08269  0 283.33 471.82  135.83 283.18 471.63  135.67
   4   0  -7  56.100 103.216   2-0.02210 0.53266 0.84597-0.84597-0.53278 0.02483  0 116.88 210.58  258.33 117.38 210.30  258.22
   4   0   7-145.621 110.841   1-0.10820 0.61956-0.77686 0.77686 0.62031-0.11236  0 114.39 288.20  163.11 114.51 288.66  162.20
   4   0   7  36.625  67.069   2-0.10645 0.61706-0.77923 0.77923 0.61763-0.10969  0 113.87 288.72   71.02 113.94 288.32   71.27
   4   0   7-118.035  74.731   2-0.23071 0.74123 0.62921-0.62921 0.74221-0.23384  0 202.29 434.14  340.62 202.42 434.45  340.43
  -4   0   8 41712.5   497.2   1-0.56366 0.05215-0.82578 0.82578 0.01913 0.56157  0 206.90  52.63  117.88 206.97  52.88  117.82
  -4   0   8 40446.5   766.0   2-0.06945-0.44116-0.88843 0.88843 0.45373 0.12677  0 288.03  17.39   82.68 288.09  17.65   82.72
   4   0  -8 42765.1   549.6   1-0.40143 0.91232 0.29221-0.29221-0.86803 0.28685  2 410.48 500.71   26.01 410.82 500.44   26.09
   4   0  -8 41409.2   693.8   2-0.02183 0.53239 0.84522-0.84522-0.53398-0.04653  0 102.43 192.75  257.95 102.20 192.57  258.14
   4   0   8 38476.5   741.7   1-0.11361 0.62498-0.77985 0.77985 0.61557-0.03506  0  94.70 279.53  161.98  94.38 279.52  161.76
   4   0   8 39087.4   526.3   2-0.10365 0.61425-0.78870 0.78870 0.60598-0.02549  0  93.95 277.80   72.03  93.67 277.86   72.14
   4   0   8 38285.1   531.5   2-0.22831 0.73883 0.66035-0.66035 0.71541-0.13442  0 204.16 463.12  338.03 204.17 462.88  338.06
  -4   0   9-106.112 112.041   1-0.50360-0.00790-0.85370 0.85370 0.13258 0.52070  0 194.66  29.66  125.11 194.77  29.30  125.35
   4   0  -9 110.029 146.814   2-0.02010 0.53066 0.84025-0.84025-0.54182-0.11125  0  85.13 173.40  258.02  84.68 173.52  257.59
   4   0   9-199.514 147.379   1-0.11353 0.62490-0.77981 0.77981 0.61564 0.03743  0  72.15 269.46  162.12  71.77 269.78  161.76
   4   0   9  -9.558 105.116   2-0.10399 0.61460-0.78752 0.78752 0.60745 0.04561  0  71.42 267.51   72.39  71.06 267.99   72.03
   4   0   9 158.945 144.129   2-0.22719 0.73771 0.67327-0.67327 0.70363-0.05002  0 203.93 495.00  337.44 204.42 495.04  337.05
   4   0 -10  9826.9   449.8   2-0.01726 0.52782 0.83195-0.83195-0.55457-0.17106  0  64.40 152.69  256.59  64.11 152.58  256.71
   4   0  10  9595.3   459.4   1-0.10887 0.62023-0.77723 0.77723 0.61972 0.10591  0  46.05 259.14  162.27  45.96 259.13  162.15
   4   0  10  9357.9   349.2   2-0.10638 0.61699-0.77948 0.77948 0.61732 0.10830  0  45.52 258.34   71.19  45.24 258.50   71.29
   4   0 -11  29.236 221.268   2-0.01349 0.52405 0.82083-0.82083-0.57102-0.22718  0  40.41 128.79  255.45  39.46 128.91  255.56
   4   0  11 154.584 160.895   2-0.11013 0.62074-0.76639 0.76639 0.63286 0.16532  0  15.61 248.62   70.52  15.03 249.25   70.12
  -4  -1   0 -23.693  76.074   1-0.33846-0.17243 0.37663-0.47611-0.86232 0.86232  0 198.60 178.53   21.27 198.44 178.53   20.05
  -4  -1   0  44.058 111.243   1-0.11366-0.39771-0.77988 0.68041 0.61553-0.61553  0 421.15 162.61  161.52 421.06 162.46  161.75
  -4   1   0  79.563  64.816   1-0.15202-0.35887 0.58091-0.48144-0.79965 0.79965  0 224.24 150.89    3.53 224.04 151.05    3.74
  -4   1   0 -60.582  88.397   1-0.43410-0.07741-0.86683 0.96635 0.24529-0.24529  0 386.12 135.83  132.78 386.06 135.85  132.97
  -4   1   0  11.437  46.430   2-0.23485-0.27567 0.15449-0.05499 0.95968-0.95968  0 399.67 144.55   10.78 399.43 144.53   11.07
  -4   1   0  12.218  44.240   2-0.07767-0.43289 0.96045-0.86087-0.26740 0.26740  0 446.38 200.69  274.93 446.60 200.71  275.08
  -4  -1  -1 123.707  79.881   1-0.24566-0.26523 0.48600-0.58547-0.83872 0.76608  0 190.69 188.20   11.52 190.66 187.98   11.71
  -4  -1  -1  34.972 113.597   1-0.18895-0.32242-0.81686 0.71739 0.54501-0.61757  0 432.39 172.61  155.56 432.42 172.41  155.47
  -4  -1   1 124.403  77.271   1-0.43957-0.07133 0.23654-0.33602-0.86650 0.93915  0 204.08 168.68   30.31 204.23 168.66   29.94
  -4  -1   1 162.358 101.278   1-0.03164-0.47973-0.72974 0.63026 0.68300-0.61043  0 412.68 152.11  168.39 412.78 151.83  168.49
  -4  -1   1  90.206  51.330   2-0.04059-0.47002-0.94833 0.84880 0.31468-0.24212  0 397.55 141.20   92.01 397.87 141.15   91.58
  -4  -1   1  68.308  49.910   2-0.23755-0.27301 0.45799-0.55752 0.85663-0.78399  0 449.96 202.78  352.56 449.94 202.95  352.23
  -4   1  -1 140.685 100.767   1-0.46620-0.04531-0.86283 0.96235 0.19541-0.26800  0 403.46 144.74  129.53 403.64 144.64  129.56
  -4   1  -1  96.564  36.999   2-0.03041-0.48015 0.86795-0.76837-0.49571 0.42315  0 442.48 188.60  260.94 442.68 188.73  260.72
  -4   1  -1  85.524  40.854   2-0.22207-0.28845 0.72341-0.62386 0.65373-0.72636  0 409.97 150.25  333.59 410.35 150.45  332.97
  -4   1   1  56.605  55.677   1-0.31262-0.19828 0.40881-0.30934-0.85740 0.93005  0 236.55 140.11   17.55 236.62 140.01   17.67
  -4   1   1  17.478  76.583   1-0.39698-0.11453-0.86772 0.96725 0.29911-0.22652  0 370.03 126.47  136.43 370.09 126.44  136.71
  -4   1   1  54.313  63.504   2-0.19737-0.31315-0.30641 0.40591 0.93121-0.85859  0 385.41 133.46   37.88 385.54 133.73   37.86
  -4   1   1  30.545  57.776   2-0.09989-0.41067 0.98339-0.88381-0.15157 0.22414  0 455.11 216.95  282.09 455.15 216.91  281.98
   4  -1  -1 105.406  36.489   2 0.05134 0.45936-0.97913 0.87954-0.19665 0.12412  0 214.00 358.49  121.93 213.92 358.47  121.76
   4  -1  -1  99.553  35.528   2 0.12147 0.38922-0.03986-0.05962-0.99179 0.91922  0 178.70 302.85  198.07 178.62 303.07  197.74
   4   1  -1  88.568  20.111   2 0.11262 0.39788 0.08635 0.01318-0.98988 0.91734  0 199.99 342.78  205.70 200.28 343.11  204.95
   4   1  -1  61.954  19.931   2 0.03733 0.47317 0.62661-0.52708-0.77844 0.70590  0 186.41 321.21  239.12 186.39 321.30  238.95
  -4  -1  -2  1883.3   184.7   1-0.16675-0.34414 0.56692-0.66640-0.80672 0.66143  0 181.31 197.04    5.00 181.16 197.10    4.97
  -4  -1  -2  1666.4   205.3   1-0.25650-0.25486-0.84251 0.74303 0.47370-0.61883  0 446.55 182.04  150.17 446.77 182.02  149.66
  -4  -1   2  1640.4   141.9   1-0.53814 0.02725 0.06912-0.16859-0.84002 0.98531  0 207.85 158.21   40.98 207.81 158.22   41.19
  -4  -1   2  1341.6   129.6   2-0.02693-0.48368-0.96898 0.86945 0.24568-0.10056  0 380.73 125.08   96.01 380.82 125.16   95.80
  -4  -1   2  1292.7   123.6   2-0.22543-0.28508 0.69197-0.79152 0.68583-0.54058  0 463.83 223.85  335.95 463.93 223.99  335.56
  -4   1  -2  1362.8   155.5   1-0.49469-0.01682-0.85637 0.95589 0.14806-0.29323  0 422.89 153.09  126.37 422.99 152.99  126.38
  -4   1  -2  1467.0    75.9   2 0.05798-0.56848 0.51951-0.41998-0.85249 0.70743  0 448.92 186.92  231.73 449.06 187.22  231.38
  -4   1  -2  1328.2    79.0   2-0.16747-0.34305 0.95621-0.85666 0.24004-0.38529  0 413.04 144.96  304.85 413.00 145.07  305.03
  -4   1   2  1698.7   102.1   1-0.50261-0.00829 0.13393-0.03445-0.85408 0.99937  0 248.39 127.96   36.93 248.32 128.12   36.88
  -4   1   2  1411.1   122.0   1-0.35203-0.15947-0.86406 0.96358 0.35983-0.21465  0 355.68 116.08  141.03 355.81 116.15  141.05
  -4   1   2  1326.9   140.9   2-0.15949-0.35112-0.54911 0.64864 0.82039-0.67526  0 371.26 121.06   53.23 371.34 121.28   53.38
  -4   1   2  1292.9   132.7   2-0.11388-0.39668 0.99062-0.89104-0.07555 0.22068  0 465.89 234.36  286.48 466.07 234.59  286.44
   4  -1  -2  1190.3    94.5   2 0.04643 0.46427-0.98504 0.88545-0.16594 0.02090  0 226.68 375.00  119.99 226.58 374.93  119.96
   4  -1  -2  1536.9    96.7   2 0.08567 0.42483 0.33982-0.43935-0.93658 0.79151  0 169.81 285.72  220.03 169.76 285.78  219.90
   4  -1   2  1456.4   147.0   1-0.04830 0.55967-0.74073 0.64126 0.67007-0.52494  0 197.24 345.69  167.30 197.10 345.61  167.13
   4   1  -2  1434.1    89.2   2 0.13196 0.37873-0.47804 0.57752-0.86837 0.72321  0 218.58 368.60  171.50 218.41 368.41  171.41
   4   1  -2  1288.3    81.1   2-0.02711 0.53767 0.85947-0.75989-0.51046 0.36534  0 172.07 295.68  259.45 172.01 295.40  259.73
  -4  -1  -3 11643.8   362.7   1-0.31683-0.19467-0.85812 0.75859 0.40405-0.62181  0 463.84 191.41  144.23 464.08 191.49  144.30
  -4  -1  -3 11582.0   112.8   2 0.11458-0.62527-0.74247 0.64298-0.66001 0.44228  0 451.68 171.90  152.00 452.03 172.23  152.08
  -4  -1  -3 12067.9   112.7   2 0.12266-0.63335-0.06036-0.03912-0.99061 0.77287  0 429.77 146.37  195.88 429.79 146.26  196.56
  -4  -1   3 13069.1   291.5   1-0.62067 0.10973-0.11268 0.01320-0.77593 0.99387  0 208.96 146.99   52.60 208.90 147.05   53.23
  -4  -1   3 10433.2   259.6   2-0.02384-0.48677-0.97298 0.87345 0.22966-0.01198  0 365.24 109.33   96.91 365.22 109.59   96.77
  -4  -1   3 10836.9   257.2   2-0.21445-0.29606 0.78235-0.88189 0.58476-0.36689  0 478.29 244.32  327.97 478.44 244.47  327.70
  -4   1  -3 12056.6   349.1   1-0.52046 0.00895-0.84769 0.94721 0.10272-0.32049  0 444.25 160.94  123.33 444.48 161.06  123.35
  -4   1  -3 12926.4   186.9   2 0.11713-0.62763 0.02716 0.07237-0.99275 0.77514  0 464.73 194.77  201.78 464.93 195.03  201.56
  -4   1  -3 11131.4   179.8   2-0.13343-0.37713 0.99042-0.89084 0.03565-0.25335  0 409.20 129.99  292.86 409.60 130.31  292.94
  -4   1   3 12359.1   195.5   1-0.66121 0.15026-0.23364 0.33312-0.71289 0.93083  0 258.48 114.79   61.26 258.65 114.96   61.38
  -4   1   3 12423.9   196.0   1-0.29448-0.21703-0.85315 0.95268 0.43059-0.21283  0 343.42 104.49  146.43 343.56 104.71  146.31
  -4   1   3 12154.4   284.3   2-0.13347-0.37713-0.67476 0.77429 0.72587-0.50818  0 357.24 107.29   62.32 357.23 107.48   62.53
  -4   1   3 10845.8   270.5   2-0.12464-0.38592 0.99208-0.89250-0.01580 0.23349  0 478.79 253.05  290.34 478.94 253.35  289.94
   4  -1  -3 11414.5   244.0   2 0.04707 0.46363-0.98434 0.88475-0.16988-0.04769  0 238.71 391.68  120.05 238.48 391.53  120.20
   4  -1  -3 12513.0   251.7   2 0.05552 0.45498 0.53332-0.63285-0.84409 0.62649  0 160.86 269.89  232.20 160.83 269.83  232.32
   4  -1   3 11149.6   310.7   1-0.10447 0.61583-0.77476 0.67528 0.62357-0.40588  0 182.75 336.64  162.49 182.59 336.57  162.51
   4   1  -3 14564.6   332.0   1-0.14232 0.65321 0.58984-0.49037-0.79488 0.57694  0 407.04 388.42    3.45 407.33 388.21    2.93
   4   1  -3 11994.7   238.6   2 0.12290 0.38779-0.65805 0.75753-0.74288 0.52514  0 231.95 387.65  158.82 231.68 387.36  158.83
   4   1  -3 11229.6   226.4   2-0.04576 0.55632 0.90456-0.80498-0.42389 0.20620  0 161.65 277.52  265.07 161.55 277.22  265.40
  -4  -1  -4  6546.7   335.8   1-0.37006-0.14144-0.86610 0.76658 0.33603-0.62638  0 484.51 200.94  139.34 484.68 201.01  139.34
  -4  -1  -4  5825.9   155.3   2 0.09164-0.60233-0.87684 0.77725-0.47196 0.18187  0 479.54 190.98  138.60 479.95 191.12  138.69
  -4  -1  -4  7159.2   164.4   2 0.06897-0.57947 0.45397-0.55350-0.88835 0.59821  0 417.47 119.19  226.85 417.50 119.27  227.06
  -4  -1   4  6699.2   225.2   1-0.67617 0.16523-0.29077 0.19130-0.67693 0.96753  0 207.48 134.93   65.10 207.35 135.02   65.33
  -4  -1   4  5947.5   251.4   2-0.02477-0.48584-0.97180 0.87227 0.23451 0.05574  0 350.26  93.29   96.51 350.29  93.49   96.48
  -4  -1   4  5551.0   241.6   2-0.20763-0.30288 0.82337-0.92292 0.52816-0.23766  0 494.34 265.30  323.89 494.46 265.42  323.64
  -4   1  -4  6693.2   320.8   1-0.54391 0.03240-0.83711 0.93663 0.05847-0.34882  0 468.40 168.96  120.38 468.51 169.02  120.43
  -4   1  -4  6273.1   179.4   2 0.13211-0.64280-0.29723 0.39671-0.94562 0.65531  0 485.48 205.93  182.69 485.71 206.04  182.72
  -4   1  -4  5860.8   180.3   2-0.11509-0.39547 0.99097-0.89139-0.06883-0.22142  0 403.54 111.10  286.90 404.03 111.38  286.83
  -4   1   4  6446.0   139.3   1-0.69824 0.18730-0.58185 0.68133-0.41702 0.70761  0 266.29 100.49   87.74 266.44 100.67   87.84
  -4   1   4  6846.9   144.6   1-0.21360-0.29777-0.82716 0.92663 0.51979-0.22953  0 334.39  91.37  153.57 334.44  91.66  153.36
  -4   1   4  6633.8   264.0   2-0.11676-0.39385-0.74187 0.84139 0.66030-0.37005  0 343.21  92.35   68.00 343.16  92.53   67.98
  -4   1   4  5822.3   256.1   2-0.13358-0.37698 0.99037-0.89079 0.03651 0.25374  0 493.81 272.98  293.00 493.84 273.30  292.99
   4  -1  -4  6561.1   222.6   2 0.04985 0.46084-0.98108 0.88148-0.18709-0.10300  0 250.41 409.49  121.11 250.21 409.29  121.21
   4  -1  -4  6749.9   218.2   2 0.03480 0.47570 0.63830-0.73783-0.76900 0.47886  0 151.32 254.37  239.93 151.27 254.28  239.82
   4  -1   4  6379.3   266.3   1-0.14182 0.65319-0.79475 0.69528 0.59013-0.29988  0 167.40 327.93  159.38 167.28 327.89  159.42
   4  -1   4  6384.6   128.1   2-0.22076 0.73128-0.07758-0.02192 0.97224-0.68173  0 196.19 370.92   24.48 196.05 370.72   24.44
   4  -1   4  6219.7   126.8   2-0.05809 0.56870-0.91474 0.81521 0.39985-0.10960  0 161.42 314.80   86.35 161.36 314.87   86.21
   4   1  -4  7377.9   268.9   1-0.22402 0.73491 0.50923-0.40975-0.83097 0.54038  0 409.21 402.96    9.99 409.42 402.79    9.84
   4   1  -4  6133.6   211.1   2 0.11488 0.39581-0.73991 0.83939-0.66282 0.37251  0 244.31 406.53  152.06 244.00 406.30  152.30
   4   1  -4  6000.2   200.1   2-0.05315 0.56371 0.91960-0.82002-0.38924 0.09899  0 151.27 260.82  267.40 151.21 260.58  267.60
  -4  -1  -5 25436.0   337.3   2 0.03743-0.54793 0.62614-0.72567-0.77882 0.41615  0 409.35  94.65  238.93 409.56  94.89  238.91
  -4  -1   5 25113.7   401.7   1-0.70101 0.19006-0.44867 0.34919-0.55433 0.91757  0 203.35 121.79   76.89 203.24 121.92   76.88
  -4  -1   5 20362.0   431.9   2-0.02773-0.48288-0.96789 0.86837 0.24982 0.11299  0 335.56  76.14   95.71 335.60  76.35   95.56
  -4   1  -5 22648.0   528.6   1-0.56551 0.05400-0.82460 0.92413 0.01531-0.37825  0 495.63 177.06  117.60 495.80 177.07  117.57
  -4   1  -5 21547.5   342.2   2-0.10193-0.40863 0.98481-0.88523-0.14057-0.22225  0 397.81  89.59  282.73 398.34  90.00  282.62
  -4   1   5 23658.1   219.0   1-0.61375 0.10225-0.78382 0.88335-0.09449 0.45743  0 269.46  84.81  110.25 269.73  85.01  110.32
  -4   1   5 25533.0   229.0   1-0.09687-0.41449-0.77044 0.86992 0.63010-0.26729  0 330.87  75.85  163.50 330.72  76.19  163.14
  -4   1   5 21904.3   451.1   2-0.10656-0.40405-0.77887 0.87840 0.61806-0.25525  0 329.05  75.89   70.63 329.03  76.19   71.24
   4  -1  -5 20896.8   426.8   2 0.05363 0.45706-0.97601 0.87642-0.21101-0.15161  0 262.05 429.04  122.65 262.09 428.83  122.61
   4  -1  -5 22482.9   411.1   2 0.02117 0.48933 0.69779-0.79732-0.71599 0.35332  0 140.84 238.81  244.26 140.79 238.72  244.45
   4  -1   5 22357.7   487.5   1-0.16561 0.67698-0.80637 0.70690 0.56775-0.20494  0 151.09 319.46  157.39 151.01 319.42  157.43
   4  -1   5 23009.5   289.6   2-0.23707 0.74759 0.21727-0.31677 0.94688-0.58375  0 201.28 393.32    7.38 201.14 393.11    7.38
   4  -1   5 22381.9   284.8   2-0.05295 0.56356-0.92551 0.82599 0.37499-0.01218  0 145.31 302.46   87.92 145.26 302.51   87.80
   4   1  -5 25751.3   430.6   1-0.29608 0.80697 0.42867-0.32920-0.85357 0.49033  0 414.96 419.79   15.55 415.22 419.57   16.17
   4   1  -5 17007.0   374.3   2 0.10956 0.40114-0.78102 0.88062-0.61482 0.25220  0 256.37 426.69  148.31 256.11 426.51  148.56
   4   1  -5 21065.0   390.5   2-0.05533 0.56589 0.92391-0.82433-0.37859 0.01577  0 140.23 244.60  267.75 140.22 244.33  268.27
   4   1   5 22438.8   499.5   1 0.01859 0.49278-0.69420 0.79367 0.71954-0.35672  0 143.69 293.18  172.62 143.60 293.13  172.59
   4   1   5 24400.0   257.7   2-0.19235 0.70287-0.34450 0.44400 0.91887-0.55573  0 149.17 315.44   40.27 149.11 315.38   40.18
   4   1   5 21797.3   247.1   2-0.22464 0.73516 0.69984-0.60029 0.67806-0.31494  0 191.55 384.27  334.89 191.51 384.04  334.93
  -4  -1  -6 696.518 137.507   2 0.02033-0.53083 0.70125-0.80078-0.71262 0.27742  0 402.76  69.42  245.00 403.11  69.34  244.74
  -4  -1   6 610.066 117.147   1-0.69878 0.18783-0.57749 0.47802-0.42214 0.85803  0 196.88 107.43   87.41 196.66 107.39   87.46
  -4  -1   6 574.571 186.038   2-0.03198-0.47863-0.96203 0.86250 0.27105 0.16432  0 320.79  57.49   94.37 320.81  57.76   94.26
  -4   1  -6 489.877 144.949   2-0.09099-0.41957 0.97586-0.87628-0.19854-0.23684  0 392.64  66.02  279.41 392.98  66.11  279.20
  -4   1   6 837.706 101.772   1-0.50250-0.00901-0.85405 0.95358 0.13451 0.30101  0 267.06  67.85  125.71 266.85  68.16  125.47
  -4   1   6 565.647 186.339   2-0.10065-0.40995-0.79884 0.89837 0.59306-0.15768  0 314.58  57.84   72.97 314.61  58.20   73.10
   4  -1  -6 785.019 179.759   2 0.05796 0.45274-0.96934 0.86975-0.23877-0.19637  0 274.48 450.77  124.19 274.35 450.76  124.25
   4  -1  -6 803.600 120.093   2 0.01256 0.49794 0.73209-0.83162-0.68109 0.24589  0 128.89 223.13  247.41 129.09 222.79  247.30
   4  -1   6 644.881 152.123   1-0.17942 0.69078-0.81267 0.71319 0.55442-0.11904  0 133.79 310.91  156.33 133.53 311.02  156.28
   4  -1   6 545.333  82.428   2-0.05420 0.56480-0.92296 0.82344 0.38105 0.05432  0 128.63 291.99   87.17 128.63 291.67   87.42
   4  -1   6 572.352  90.989   2-0.23860 0.74915 0.37859-0.47812 0.89428-0.45844  0 205.04 416.53  357.18 205.00 416.34  357.30
   4   1  -6 553.448 161.105   1-0.35574 0.86664 0.35440-0.25492-0.86478 0.42890  0 424.53 439.46   21.50 424.70 439.21   21.67
   4   1  -6 634.883 169.926   2 0.10639 0.40430-0.80227 0.90186-0.58741 0.15227  0 268.73 448.67  146.32 268.49 448.95  146.58
   4   1  -6 547.221 119.917   2-0.05472 0.56528 0.92272-0.82314-0.38157-0.05381  0 128.05 228.15  268.23 128.17 227.99  268.08
   4   1   6 664.234 157.722   1-0.00739 0.51876-0.71315 0.81262 0.70097-0.26559  0 128.00 284.44  170.42 128.01 284.30  170.46
   4   1   6 644.541  81.606   2-0.16553 0.67614-0.51583 0.61536 0.84054-0.40517  0 130.65 301.90   51.07 130.68 301.84   51.12
   4   1   6 638.816  87.179   2-0.21717 0.72769 0.76338-0.66383 0.60835-0.17261  0 196.78 409.72  329.34 196.64 409.63  329.46
  -4  -1  -7  1603.9   192.4   2 0.01139-0.52189 0.73669-0.83623-0.67613 0.16839  0 397.74  41.10  247.61 397.67  41.42  247.70
  -4  -1   7  1977.2   193.5   1-0.67658 0.16564-0.67626 0.57678-0.29139 0.79993  0 187.75  91.00   96.75 187.77  91.03   96.94
  -4  -1   7  1819.4   255.9   2-0.03693-0.47368-0.95440 0.85487 0.29623 0.21170  0 305.45  37.28   92.62 305.63  37.12   92.71
  -4   1  -7  1481.0   200.9   2-0.08111-0.42945 0.96494-0.86536-0.24963-0.25831  0 387.57  39.35  276.25 388.10  39.23  276.15
  -4   1   7  1694.3   131.8   1-0.41515-0.09635-0.86773 0.96725 0.27330 0.23481  0 259.00  49.05  135.10 259.02  49.33  134.90
  -4   1   7  1975.0   268.2   2-0.09778-0.41283-0.80839 0.90791 0.58048-0.07254  0 299.65  37.90   74.29 299.68  38.12   74.01
   4  -1  -7  2169.2   149.4   1-0.18779 0.69868 0.54643-0.64591-0.81618 0.30765  0 345.40 482.42    7.08 345.07 482.35    6.75
   4  -1  -7  1918.3   248.9   2 0.06259 0.44810-0.96112 0.86152-0.26896-0.23871  0 287.26 476.04  126.41 287.29 475.84  126.05
   4  -1  -7  2039.9   208.3   2 0.00751 0.50298 0.75125-0.85078-0.65998 0.15224  0 116.11 206.10  248.89 115.91 206.19  248.96
   4  -1   7  1517.2   207.1   1-0.18562 0.69699-0.81542 0.71594 0.54831-0.04037  0 114.86 302.46  155.66 114.56 302.54  155.75
   4  -1   7  1962.6   154.7   2-0.05800 0.56861-0.91495 0.81542 0.39939 0.10855  0 111.08 281.43   86.24 110.66 281.56   86.24
   4  -1   7  1502.8   160.7   2-0.23731 0.74787 0.46945-0.56897 0.85047-0.34199  0 207.46 441.33  351.64 207.49 441.32  351.48
   4   1  -7  1772.1   223.1   1-0.40242 0.91332 0.29080-0.19132-0.86804 0.35951  0 437.96 462.32   26.42 437.99 462.61   26.19
   4   1  -7  1726.1   238.3   2 0.10479 0.40590-0.81189 0.91148-0.57433 0.06666  0 281.34 474.61  145.53 281.39 474.36  145.65
   4   1  -7  1914.6   192.8   2-0.05226 0.56282 0.91811-0.81853-0.39287-0.11508  0 114.77 211.41  266.86 114.70 211.14  267.37
   4   1   7  1676.3   209.7   1-0.02484 0.53620-0.72516 0.82463 0.68813-0.18019  0 110.68 275.13  169.33 110.64 275.14  169.04
   4   1   7  1686.6   143.6   2-0.15040 0.66101-0.59645 0.69598 0.78843-0.28050  0 112.02 290.29   56.90 111.82 290.46   56.69
   4   1   7  1744.0   163.2   2-0.21408 0.72460 0.78482-0.68528 0.58157-0.07320  0 199.74 435.93  327.46 199.70 435.77  327.47
  -4  -1  -8  1739.6   248.7   2 0.00719-0.51769 0.75244-0.85197-0.65862 0.07835  2 392.40  10.19  249.40 393.15   9.97  249.07
  -4  -1   8  1826.2   213.7   1-0.64137 0.12987-0.74837 0.64885-0.16906 0.74976  0 176.69  71.98  105.31 176.76  72.14  105.33
  -4  -1   8  1756.1   305.2   2-0.04255-0.46806-0.94514 0.84562 0.32387 0.25663  0 289.75  13.98   91.27 289.72  13.91   91.01
  -4   1  -8  1123.2   231.1   2-0.07178-0.43878 0.95222-0.85265-0.29684-0.28366  2 383.36   8.70  273.46 383.79   8.64  273.30
  -4   1   8  1676.3   123.9   1-0.34646-0.16505-0.86332 0.96284 0.36694 0.21376  0 249.03  26.93  142.07 248.54  27.60  141.57
  -4   1   8  1576.4   294.9   2-0.09700-0.41361-0.81092 0.91045 0.57706 0.00343  0 283.78  14.91   74.33 283.87  15.39   74.26
   4  -1  -8  1719.1   207.9   2 0.00502 0.50554 0.76047-0.86005-0.64935 0.06885  0 101.22 188.52  249.64 100.89 188.48  249.81
   4  -1   8  1215.4   208.0   1-0.18591 0.69727-0.81554 0.71607 0.54803 0.03248  0  94.07 293.76  155.60  93.67 293.82  155.73
   4  -1   8  1527.3   169.4   2-0.06312 0.57373-0.90348 0.80395 0.42397 0.15653  0  91.07 271.87   84.72  90.80 271.83   84.66
   4  -1   8  1771.4   204.2   2-0.23642 0.74694 0.52079-0.62033 0.82030-0.23931  0 208.56 469.33  348.31 208.84 469.31  348.15
   4   1  -8  1472.0   246.0   1-0.43706 0.94795 0.24034-0.14087-0.86673 0.28555  0 455.10 491.14   29.62 455.20 490.99   29.68
   4   1  -8  1691.5   199.5   2-0.04873 0.55929 0.91081-0.81123-0.40994-0.17057  0  99.31 193.67  266.32  99.38 193.43  266.29
   4   1   8  1377.3   213.4   1-0.03510 0.54646-0.73204 0.83151 0.68036-0.09985  0  90.88 265.62  168.22  91.16 265.50  168.21
   4   1   8  1372.3   159.6   2-0.14186 0.65247-0.63735 0.73688 0.75741-0.17691  0  91.56 280.18   59.70  91.42 280.10   59.68
   4   1   8  1840.8   206.0   2-0.21336 0.72387 0.78946-0.68991 0.57553 0.00546  0 201.45 464.43  326.91 201.23 464.30  327.03
  -4  -1   9  1169.0   181.3   1-0.59759 0.08609-0.79989 0.70037-0.05529 0.70857  0 163.25  50.22  112.65 163.50  50.00  112.92
   4  -1  -9 998.750 201.789   2 0.00437 0.50619 0.76282-0.86239-0.64660-0.00647  0  83.09 169.55  250.28  83.42 169.43  250.02
   4  -1   9 846.242 206.813   1-0.18142 0.69279-0.81356 0.71409 0.55246 0.10061  0  69.89 284.61  156.36  70.34 284.65  156.11
   4  -1   9 982.188 148.279   2-0.06913 0.57974-0.88920 0.78967 0.45227 0.20079  0  68.71 262.61   82.70  68.39 262.38   82.82
   4  -1   9  1006.9   183.3   2-0.23526 0.74578 0.55006-0.64961 0.80130-0.14769  0 208.31 501.57  346.43 208.87 501.37  346.14
   4   1  -9  1089.2   202.1   2-0.04429 0.55485 0.90131-0.80173-0.43090-0.22217  0  81.76 174.37  264.68  81.68 174.37  264.95
   4   1   9 849.206 203.421   1-0.03937 0.55074-0.73486 0.83433 0.67708-0.02401  0  69.53 254.83  168.12  69.08 255.09  167.86
   4   1   9  1059.5   143.3   2-0.13767 0.64828-0.65673 0.75625 0.74146-0.08840  0  68.78 270.11   61.27  68.65 270.38   61.14
   4   1   9 910.235 167.478   2-0.21406 0.72458 0.78495-0.68540 0.58140 0.07221  0 201.41 496.41  327.46 201.22 496.59  327.46
  -4  -1  10 845.143 198.212   1-0.54885 0.03734-0.83450 0.73497 0.04880 0.67707  0 147.71  24.07  119.56 147.90  23.45  119.79
   4  -1 -10 989.146 227.955   2 0.00515 0.50541 0.75998-0.85955-0.64993-0.07570  0  63.31 148.44  249.65  62.82 148.38  249.76
   4  -1  10 894.894 222.680   1-0.17294 0.68431-0.80977 0.71029 0.56069 0.16494  0  44.39 274.69  156.63  43.78 274.74  156.82
   4  -1  10 544.147 142.543   2-0.07572 0.58633-0.87239 0.77286 0.48291 0.24271  0  42.48 253.33   80.55  42.59 253.07   80.78
   4   1 -10 548.826 189.743   2-0.03931 0.54987 0.88971-0.79013-0.45483-0.27080  0  60.36 153.71  263.01  60.89 153.46  263.40
   4   1  10 749.800 215.252   1-0.03859 0.54996-0.73434 0.83382 0.67768 0.04795  0  44.12 243.76  168.13  43.70 243.57  167.92
   4   1  10 513.341 143.680   2-0.13609 0.64670-0.66315 0.76268 0.73601-0.01039  0  42.50 261.42   61.41  42.59 261.02   61.63
  -4  -2   0 309.394  99.721   1-0.40576-0.10513 0.28653-0.48548-0.86791 0.86791  0 181.54 190.78   26.36 181.70 190.96   26.49
  -4  -2   0 347.088 145.507   1-0.01490-0.49647-0.71839 0.51944 0.69548-0.69548  0 445.79 174.35  169.68 445.89 174.46  169.85
  -4  -2   0 263.625  57.760   2-0.20693-0.30359-0.22350 0.02450 0.95249-0.95249  0 459.71 200.30   32.91 459.66 200.42   32.92
  -4  -2   0 314.913  64.592   2 0.07232-0.58301-0.93968 0.74050-0.33431 0.33431  0 403.29 133.74  129.77 403.29 133.83  130.01
  -4   2   0 376.885  99.109   1-0.60357 0.09207-0.79428 0.99333-0.06945 0.06945  0 376.95 119.64  112.02 376.92 119.77  111.98
  -4   2   0 296.966  83.013   2-0.23475-0.27577 0.15212 0.04688 0.96008-0.96008  0 380.57 121.43   10.89 380.36 121.59   11.21
  -4   2   0 264.121  76.483   2 0.00398-0.51454 0.76421-0.56505-0.64496 0.64496  0 467.79 225.59  250.11 467.75 225.77  250.14
   4  -2   0 235.526  52.619   2-0.06046 0.57107-0.90952 0.71046 0.41125-0.41125  0 218.78 371.87   85.52 218.71 371.85   85.48
   4  -2   0 201.014  46.780   2 0.13307 0.37762-0.41333 0.21437-0.90081 0.90081  0 169.42 294.26  175.39 169.32 294.10  175.56
   4   2   0 267.542  31.730   2 0.01986 0.49064 0.70317-0.50410-0.71074 0.71074  0 194.96 347.25  245.48 195.25 347.48  244.89
   4   2   0 257.867  30.420   2-0.08328 0.59384 0.96752-0.76836-0.23869 0.23869  0 181.24 325.38  276.74 181.10 325.24  276.81
  -4  -2  -1  2648.7   188.2   1-0.32852-0.18238 0.38915-0.58810-0.86060 0.78796  0 175.73 200.19   18.87 175.83 200.26   19.13
  -4  -2  -1  2456.2   236.5   1-0.09121-0.42016-0.76710 0.56815 0.63501-0.70758  0 454.99 185.00  163.66 455.02 185.09  163.61
  -4  -2  -1  2439.5    96.6   2-0.12841-0.38220-0.69584 0.49679 0.70662-0.77918  0 456.15 188.79   64.45 456.48 189.08   64.19
  -4  -2  -1  2204.8    99.2   2 0.10194-0.61263-0.82817 0.62898-0.55113 0.47861  0 413.26 138.61  144.08 413.77 138.71  144.02
  -4  -2   1  2485.9   184.0   1-0.48524-0.02565 0.16373-0.36268-0.85891 0.93156  0 185.52 181.20   35.22 185.54 181.30   34.89
  -4  -2   1  2254.0   127.4   2-0.23600-0.27452 0.18593-0.38493 0.95380-0.88117  0 467.34 215.76    9.13 467.52 215.83    9.23
  -4  -2   1  1884.4   131.9   2 0.05270-0.56340-0.97730 0.77812-0.20518 0.27770  0 389.84 123.92  122.06 390.10 124.02  122.27
  -4   2  -1  2245.6   190.5   1-0.60082 0.08932-0.79690 0.99596-0.06289-0.00969  0 398.08 127.95  112.34 398.28 128.01  112.41
  -4   2  -1  2283.5   134.6   2 0.04507-0.55557 0.58888-0.38981-0.80696 0.73443  0 468.13 218.41  236.11 468.20 218.42  236.20
  -4   2  -1  2303.6   143.1   2-0.23732-0.27324 0.46925-0.27020 0.85058-0.92322  0 387.12 122.68  351.61 387.38 122.84  351.50
  -4   2   1  2836.8   119.1   1-0.21507-0.29582 0.51859-0.31964-0.82753 0.90018  0 249.04 123.12    9.02 248.90 123.32    9.07
  -4   2   1  2100.3   133.5   1-0.61778 0.10627-0.77935 0.97840-0.10472 0.17730  0 355.14 110.99  109.66 355.20 111.05  109.64
  -4   2   1  2410.9   163.2   2-0.21547-0.29505-0.13797 0.33697 0.96672-0.89409  0 370.53 115.61   27.98 370.66 115.79   27.93
  -4   2   1  2089.4   149.3   2-0.03069-0.47987 0.86869-0.66953-0.49441 0.56697  0 472.06 237.13  260.72 472.21 237.19  260.81
   4  -2  -1  2082.2   114.4   2-0.03426 0.54487-0.95859 0.75954 0.28272-0.35528  0 227.30 380.30   93.60 227.15 380.17   93.55
   4  -2  -1  2197.8   113.4   2 0.12426 0.38643-0.08867-0.11029-0.98828 0.91570  0 165.81 283.83  195.01 165.75 283.80  194.93
   4  -2   1  2313.2   148.9   1-0.08875 0.60011-0.76566 0.56672 0.63709-0.56453  0 215.11 370.31  163.76 214.91 370.20  163.81
   4  -2   1  2283.9    97.6   2-0.09814 0.60875-0.80720 0.60814 0.58206-0.50950  0 212.45 368.30   73.68 212.28 368.12   73.89
   4  -2   1  2185.4    92.6   2 0.11746 0.39323-0.71721 0.51825-0.68689 0.75947  0 169.96 301.25  154.12 169.89 301.14  154.19
   4   2  -1  2358.8    95.5   2 0.10895 0.40155 0.12877 0.07029-0.98567 0.91314  0 210.22 366.31  207.24 210.11 366.04  207.40
   4   2  -1  2000.7    83.9   2-0.10385 0.61441 0.98604-0.78688-0.13015 0.05759  0 170.98 304.77  283.12 170.87 304.38  283.23
  -4  -2  -2 25193.0   479.0   1-0.25873-0.25217 0.47155-0.67051-0.84303 0.69774  0 168.08 209.26   12.96 168.05 209.34   12.86
  -4  -2  -2 20170.0   457.4   1-0.16340-0.34797-0.80533 0.60638 0.56987-0.71500  0 467.22 195.35  157.72 467.42 195.44  157.62
  -4  -2  -2 19596.9   199.4   2-0.04633-0.46428-0.93831 0.73925 0.34268-0.48781  0 462.00 186.29   90.08 462.32 186.52   89.84
  -4  -2  -2 20141.6   204.6   2 0.13031-0.64100-0.53185 0.33289-0.83675 0.69159  0 417.14 134.18  167.81 417.56 134.41  167.84
  -4  -2   2 22479.3   421.2   1-0.56018 0.04928 0.02533-0.22428-0.82799 0.97328  0 187.21 171.07   43.82 187.22 171.11   44.08
  -4  -2   2 18695.8   306.5   2 0.03866-0.54935-0.99224 0.79306-0.11816 0.26320  0 376.10 111.76  117.02 376.24 111.92  117.15
  -4  -2   2 18829.1   303.3   2-0.23802-0.27253 0.43646-0.63552 0.86767-0.72239  0 478.18 232.88  353.90 478.29 233.04  353.63
  -4   2  -2 19598.4   393.5   1-0.60401 0.09250-0.79386 0.99291-0.07049-0.07468  0 420.07 135.82  111.99 420.44 135.83  111.91
  -4   2  -2 20610.3   281.0   2 0.08514-0.59564 0.34381-0.14475-0.93517 0.79010  0 474.19 216.23  220.15 474.34 216.34  220.15
  -4   2  -2 19269.3   280.2   2-0.22274-0.28778 0.71744-0.51834 0.66005-0.80530  0 390.61 117.98  333.36 390.66 118.13  333.47
  -4   2   2 23966.2   212.3   1-0.51010-0.00079 0.12053 0.07842-0.85163 0.99692  0 271.02 109.21   37.68 271.21 109.45   37.77
  -4   2   2 20398.9   198.9   1-0.65802 0.14651-0.71969 0.91874-0.22150 0.36667  0 329.67 101.99  101.78 329.75 102.13  101.78
  -4   2   2 20823.4   349.2   2-0.19133-0.31919-0.35220 0.55120 0.91616-0.77090  0 359.29 106.56   40.59 359.32 106.80   40.65
  -4   2   2 19326.2   338.7   2-0.05744-0.45312 0.92796-0.72880-0.36823 0.51335  0 480.13 251.35  268.95 480.17 251.55  268.92
   4  -2  -2 18202.2   297.6   2-0.01555 0.52616-0.98251 0.78345 0.18558-0.33071  0 236.84 391.70   99.35 236.66 391.58   99.41
   4  -2  -2 22204.4   325.5   2 0.10465 0.40585 0.17486-0.37393-0.97902 0.83395  0 160.19 271.64  210.02 160.14 271.65  210.08
   4  -2   2 19105.1   365.6   1-0.16032 0.67169-0.80386 0.60492 0.57280-0.42767  0 199.09 360.35  157.99 198.91 360.28  157.88
   4  -2   2 19764.5   232.6   2-0.14589 0.65650-0.61880 0.41975 0.77188-0.62676  0 209.00 371.01   58.08 208.77 370.78   58.31
   4  -2   2 18706.5   225.9   2 0.08573 0.42497-0.89941 0.70022-0.42862 0.57367  0 166.46 303.35  135.75 166.27 303.10  135.90
   4   2  -2 23765.0   457.4   1-0.14116 0.65205 0.59091-0.39196-0.79429 0.64900  0 438.23 364.44    3.11 438.49 364.27    2.83
   4   2  -2 19247.6   271.1   2 0.13056 0.38013-0.23075 0.42971-0.96421 0.81906  0 222.40 382.19  186.69 222.15 381.89  186.68
   4   2  -2 18210.8   262.2   2-0.10521 0.61577 0.98678-0.78762-0.12325-0.02188  0 162.49 288.08  283.62 162.37 287.76  283.64
  -4  -2  -3 24914.2   497.5   1-0.19891-0.31198 0.53527-0.73422-0.82093 0.60299  0 158.55 218.19    7.97 158.54 218.25    7.69
  -4  -2  -3 21111.4   487.5   1-0.23023-0.28113-0.83353 0.63459 0.50221-0.71990  0 482.97 205.64  152.08 483.19 205.69  151.93
  -4  -2  -3 19634.6   235.8   2-0.00151-0.50918-0.99351 0.79432 0.11378-0.33135  0 476.80 192.18  103.62 476.97 192.24  103.67
  -4  -2  -3 20968.7   243.4   2 0.12584-0.63653-0.11924-0.07972-0.98486 0.76712  0 415.12 120.82  192.92 415.43 120.92  193.18
  -4  -2   3 22887.8   422.9   1-0.62347 0.11252-0.12010-0.07886-0.77257 0.99052  0 186.60 160.23   53.71 186.58 160.30   53.71
  -4  -2   3 19409.2   353.3   2 0.02741-0.53810-0.99836 0.79917-0.05034 0.26791  0 362.15  98.06  113.05 362.25  98.28  113.21
  -4  -2   3 18973.9   348.4   2-0.23380-0.27672 0.58008-0.77917 0.78029-0.56242  0 491.18 251.54  344.19 491.42 251.60  344.03
  -4   2  -3 19538.8   437.0   1-0.61047 0.09897-0.78732 0.98637-0.08631-0.13145  0 443.84 143.34  111.00 444.19 143.33  110.86
  -4   2  -3 20172.7   299.8   2 0.11311-0.62361 0.08060 0.11847-0.99031 0.77271  0 486.28 219.09  204.84 486.40 219.30  204.62
  -4   2  -3 19517.8   300.9   2-0.19879-0.31173 0.86588-0.66679 0.45905-0.67692  0 390.78 107.70  318.89 390.80 107.92  318.92
  -4   2   3 20289.8   382.2   2-0.16943-0.34118-0.49386 0.69292 0.85287-0.63519  0 347.11  95.17   49.71 347.16  95.45   49.65
  -4   2   3 18716.3   368.5   2-0.07827-0.43230 0.96126-0.76210-0.26432 0.48201  0 491.09 267.86  275.06 491.15 268.10  275.27
   4  -2  -3 19153.4   339.0   2-0.00066 0.51135-0.99402 0.79484 0.10916-0.32673  0 247.02 405.66  104.54 246.88 405.50  103.94
   4  -2  -3 22036.4   360.5   2 0.08330 0.42720 0.35741-0.55648-0.93022 0.71262  0 153.05 258.47  221.38 152.99 258.48  220.99
   4  -2   3 19468.1   402.7   1-0.20483 0.71620-0.82366 0.62472 0.52880-0.31111  0 182.97 351.04  153.81 182.80 350.98  154.11
   4  -2   3 20248.1   254.1   2-0.19003 0.70055-0.36190 0.16290 0.91264-0.69476  0 208.36 380.04   41.14 208.15 379.79   41.24
   4  -2   3 18199.4   241.3   2 0.05535 0.45534-0.97351 0.77432-0.22184 0.43942  0 158.75 300.60  123.02 158.56 300.38  123.26
   4   2  -3 22782.8   454.1   1-0.21444 0.72534 0.51924-0.32029-0.82729 0.60935  0 439.21 377.84    9.01 439.40 377.70    9.02
   4   2  -3 19646.3   320.4   2 0.13272 0.37797-0.43907 0.63803-0.88859 0.67086  0 234.10 398.73  173.98 233.85 398.48  173.94
   4   2  -3 18460.8   306.3   2-0.10247 0.61303 0.98516-0.78600-0.13769-0.08000  0 153.63 272.38  282.86 153.54 272.04  282.79
  -4  -2  -4  7272.8   310.0   1-0.14971-0.36118 0.58308-0.78203-0.79850 0.50792  0 147.25 227.07    3.59 147.31 227.17    3.54
  -4  -2  -4  5664.0   342.3   1-0.29153-0.21997-0.85243 0.65338 0.43402-0.72437  2 502.38 216.19  146.66 502.56 216.22  146.57
  -4  -2  -4  5350.3   177.2   2 0.02103-0.53173-0.99969 0.80050-0.01357-0.27653  0 497.22 201.83  111.08 497.38 201.88  111.09
  -4  -2  -4  6404.2   194.3   2 0.10279-0.61329 0.19305-0.39212-0.97579 0.68565  0 410.85 102.65  211.05 410.92 102.79  211.14
  -4  -2   4  6114.2   236.5   1-0.66935 0.15840-0.26343 0.06448-0.69467 0.98527  0 183.71 148.65   63.31 183.63 148.67   63.43
  -4  -2   4  5781.3   268.4   2 0.01755-0.52824-0.99982 0.80063 0.00735 0.28275  0 348.07  83.04  110.23 348.28  83.21  109.87
  -4   2  -4  5912.9   318.9   1-0.61886 0.10735-0.77815 0.97721-0.10720-0.18315  0 470.00 150.54  109.43 470.26 150.58  109.47
  -4   2  -4  5572.6   211.9   2 0.12687-0.63756-0.14044 0.33940-0.98193 0.69161  2 503.57 225.97  191.97 504.02 226.16  191.95
  -4   2  -4  5171.6   220.1   2-0.17509-0.33543 0.94075-0.74165 0.29040-0.58090  0 388.34  92.60  308.13 388.71  93.10  308.13
  -4   2   4  5876.3   285.5   2-0.15258-0.35803-0.58589 0.78494 0.79590-0.50565  0 334.34  81.82   56.29 334.41  82.07   55.94
  -4   2   4  5039.6   267.3   2-0.09515-0.41541 0.97959-0.78044-0.17703 0.46729  2 504.51 286.46  280.46 504.82 286.69  280.48
   4  -2  -4  6141.3   263.2   2 0.01128 0.49942-0.99902 0.79983 0.04285-0.33295  0 257.38 421.90  108.00 257.60 421.66  107.82
   4  -2  -4  6277.0   227.9   2 0.06505 0.44545 0.47798-0.67704-0.87596 0.58582  0 144.58 244.63  228.76 144.53 244.62  228.61
   4  -2   4  5368.7   252.7   1-0.23184 0.74320-0.83411 0.63517 0.50050-0.21025  0 166.40 342.20  151.83 166.26 342.18  151.80
   4  -2   4  5600.6   166.4   2-0.21798 0.72850-0.10993-0.08907 0.96974-0.67923  0 209.44 393.94   26.28 209.27 393.73   26.31
   4  -2   4  5437.8   161.0   2 0.03188 0.47882-0.99649 0.79730-0.07738 0.36748  0 147.96 294.77  114.68 147.79 294.60  114.78
   4   2  -4  6560.2   312.3   1-0.28040 0.79129 0.44699-0.24804-0.84946 0.55887  0 443.71 392.88   15.36 443.89 392.79   14.77
   4   2  -4  5905.3   221.3   2 0.12910 0.38159-0.55940 0.75837-0.81878 0.52846  0 245.63 416.61  166.02 245.36 416.34  165.95
   4   2  -4  5425.6   204.0   2-0.09810 0.60866 0.98203-0.78287-0.16123-0.12902  0 143.98 256.93  281.19 143.96 256.62  281.41
   4   2   4  5788.0   121.8   2-0.23560 0.74612 0.17536 0.02364 0.95590-0.66539  0 155.41 319.97    9.84 155.31 319.83    9.85
   4   2   4  5504.4   121.6   2-0.18556 0.69608 0.91349-0.71439 0.36209-0.07160  0 189.82 375.72  312.55 189.70 375.34  312.60
  -4  -2  -5  8873.5   257.2   2 0.07917-0.58967 0.38654-0.58560-0.91887 0.55620  0 406.05  81.32  222.74 406.07  81.49  222.80
  -4  -2   5  8641.5   294.8   1-0.69559 0.18465-0.39564 0.19668-0.59968 0.96292  0 178.38 135.89   72.89 178.38 136.01   72.87
  -4  -2   5  7620.9   330.9   2 0.00840-0.51910-0.99821 0.79903 0.05914 0.30347  0 333.97  66.38  106.88 334.17  66.62  106.87
  -4   2  -5  8025.6   387.8   1-0.62816 0.11665-0.76684 0.96590-0.13177-0.23116  0 499.26 157.78  108.17 499.52 157.74  107.84
  -4   2  -5  7662.1   278.7   2-0.15425-0.35627 0.97552-0.77643 0.15672-0.51984  0 385.45  74.18  300.01 385.55  74.47  300.02
  -4   2   5  9068.0   357.3   2-0.14031-0.37030-0.64462 0.84367 0.75152-0.38871  0 321.11  66.54   60.19 321.13  66.78   60.23
   4  -2  -5  7353.5   320.6   2 0.02150 0.48919-0.99964 0.80045-0.01625-0.34637  0 268.80 440.57  111.21 268.82 440.30  111.25
   4  -2  -5  9026.2   294.7   2 0.05122 0.45928 0.55703-0.75610-0.82891 0.46624  0 134.72 230.11  234.23 134.71 230.11  233.96
   4  -2   5  7252.4   303.3   1-0.24698 0.75835-0.83940 0.64045 0.48416-0.12135  0 149.03 333.72  150.44 148.95 333.71  150.48
   4  -2   5  8090.5   214.9   2-0.23169 0.74221 0.08785-0.28685 0.96882-0.60568  0 211.11 411.48   15.00 211.04 411.26   14.93
   4  -2   5  7262.0   202.9   2 0.01417 0.49652-0.99955 0.80036 0.02663 0.33599  0 134.87 287.44  108.66 134.76 287.30  108.76
   4   2  -5  9331.6   358.7   1-0.33700 0.84789 0.37849-0.17954-0.86208 0.49884  0 451.88 410.20   19.99 451.99 410.10   19.91
   4   2  -5  8830.8   314.8   2 0.12492 0.38577-0.63113 0.83009-0.76555 0.40266  0 257.03 436.47  160.78 257.01 436.16  160.84
   4   2  -5  7479.9   256.2   2-0.09275 0.60331 0.97754-0.77839-0.18922-0.17359  0 133.40 241.40  279.73 133.34 241.09  279.76
   4   2   5  8279.5   183.0   2-0.21662 0.72714-0.12534 0.32434 0.96818-0.60504  0 139.28 308.08   27.19 139.22 307.94   27.20
   4   2   5  7400.4   178.4   2-0.18375 0.69427 0.91869-0.71959 0.34965 0.01347  0 194.43 397.84  311.76 194.23 397.49  311.82
  -4  -2  -6 11166.5   328.8   2 0.06128-0.57178 0.50070-0.69977-0.86345 0.42824  0 401.32  57.06  230.00 401.37  57.37  230.11
  -4  -2   6 10587.1   329.1   1-0.70300 0.19205-0.51111 0.31216-0.49453 0.93042  0 170.95 121.85   81.82 170.86 121.97   81.83
  -4  -2   6  9307.1   397.7   2-0.00033-0.51037-0.99422 0.79503 0.10735 0.32779  0 319.58  47.98  103.99 319.77  48.20  104.05
  -4   2  -6  9418.4   340.6   2-0.13580-0.37476 0.98951-0.79035 0.04929-0.48467  0 382.05  52.06  293.84 382.25  52.38  293.73
  -4   2   6 10983.6   429.6   2-0.13188-0.37873-0.68172 0.88077 0.71963-0.28426  0 307.21  49.21   62.99 307.27  49.46   63.07
   4  -2  -6  9161.8   381.0   2 0.03081 0.47988-0.99705 0.79786-0.07028-0.36486  0 280.73 462.09  114.35 280.76 461.84  114.37
   4  -2  -6 10846.8   341.8   2 0.04112 0.46938 0.60837-0.80744-0.79259 0.35738  0 123.80 214.88  237.60 123.44 214.87  237.61
   4  -2   6  8995.8   366.5   1-0.25367 0.76504-0.84159 0.64265 0.47683-0.04145  0 130.56 325.43  150.00 130.54 325.41  149.91
   4  -2   6  9672.7   262.2   2-0.23736 0.74788 0.22759-0.42659 0.94438-0.50862  0 212.92 432.07    6.82 212.74 431.80    6.77
   4  -2   6  9317.9   251.5   2-0.00052 0.51122-0.99411 0.79492 0.10840 0.32674  0 120.15 279.36  103.97 119.74 279.27  103.98
   4   2  -6  9772.3   393.0   1-0.38342 0.89432 0.31706-0.11811-0.86744 0.43156  0 463.87 430.52   24.21 463.99 430.23   24.33
   4   2  -6  9001.0   371.0   2 0.12162 0.38907-0.67451 0.87347-0.72818 0.29271  0 269.12 458.82  157.39 269.03 458.49  157.57
   4   2  -6  9640.6   316.0   2-0.08686 0.59742 0.97162-0.77247-0.22000-0.21538  0 121.73 225.50  277.84 121.41 225.20  277.92
   4   2   6 10303.1   235.5   2-0.19783 0.70835-0.30264 0.50164 0.93235-0.49658  0 122.82 297.52   37.77 122.44 297.50   37.64
   4   2   6  9041.6   229.3   2-0.18563 0.69615 0.91326-0.71416 0.36263 0.07311  0 197.42 420.85  312.71 197.29 420.51  312.64
  -4  -2  -7  1519.7   204.0   2 0.04914-0.55964 0.56793-0.76700-0.82161 0.31387  0 397.05  29.90  234.72 397.13  29.95  234.71
  -4  -2   7  1527.4   187.2   1-0.69435 0.18340-0.60767 0.40871-0.38551 0.89405  0 161.16 106.19   89.65 161.13 106.18   90.19
  -4  -2   7  1081.8   234.6   2-0.00888-0.50182-0.98817 0.78898 0.15313 0.35453  0 304.90  26.96  101.29 304.80  27.51  101.35
  -4   2  -7  1445.8   217.9   2-0.12034-0.39022 0.99194-0.79278-0.03972-0.46822  0 378.37  26.48  288.50 378.52  26.62  288.53
  -4   2   7  1315.4   261.1   2-0.12639-0.38422-0.70429 0.90335 0.69857-0.19064  0 292.47  29.88   64.94 292.64  29.75   64.86
   4  -2  -7  12.499 184.602   2 0.03917 0.47153-0.99185 0.79267-0.12122-0.38645  2 293.53 486.47  117.54 293.58 486.97  117.33
   4  -2  -7  1508.8   187.9   2 0.03417 0.47633 0.64123-0.84030-0.76658 0.25885  0 110.63 198.80  240.02 110.45 198.69  240.04
   4  -2   7  1060.8   188.8   1-0.25404 0.76541-0.84172 0.64277 0.47642 0.03152  0 111.12 316.92  149.62 110.68 317.17  149.88
   4  -2   7  1151.6   132.3   2-0.01340 0.52409-0.98409 0.78491 0.17714 0.33052  0 102.87 271.08   99.83 102.66 270.91   99.93
   4   2  -7  1317.8   259.4   1-0.41997 0.93087 0.26598-0.06703-0.86768 0.35916  0 479.98 454.17   28.43 480.05 454.33   27.92
   4   2  -7  1133.8   224.4   2 0.11923 0.39145-0.70014 0.89910-0.70398 0.19593  0 281.76 484.23  155.44 281.69 484.17  155.56
   4   2  -7  1135.6   164.7   2-0.08055 0.59111 0.96423-0.76508-0.25251-0.25543  0 107.84 208.84  276.06 107.91 208.64  275.98
   4   2   7  1360.9   142.5   2-0.18331 0.69383-0.40934 0.60834 0.89378-0.38539  0 104.38 287.80   44.10 104.20 287.68   44.20
   4   2   7  1382.5   168.2   2-0.18878 0.69930 0.90326-0.70416 0.38533 0.12303  0 199.60 445.76  313.92 199.18 445.67  314.09
  -4  -2   8  1513.6   201.0   1-0.67315 0.16220-0.68557 0.48662-0.27724 0.85843  0 149.08  87.95   97.70 149.14  88.06   97.92
  -4   2   8  1168.9   317.5   2-0.12323-0.38738-0.71677 0.91583 0.68634-0.10584  2 276.91   7.59   66.10 276.97   7.12   65.88
   4  -2  -8 935.160 178.981   2 0.02966 0.48084 0.66124-0.86031-0.74959 0.16932  0  96.07 181.39  241.51  95.40 181.29  241.57
   4  -2   8  1118.4   210.4   1-0.24951 0.76087-0.84023 0.64129 0.48141 0.09909  0  88.79 308.76  150.18  88.90 308.79  150.27
   4  -2   8 860.480 132.728   2-0.02554 0.53615-0.97080 0.77175 0.23852 0.34198  0  83.41 262.41   96.21  83.25 262.41   96.24
   4  -2   8  1115.4   172.8   2-0.23858 0.74914 0.38645-0.58550 0.89092-0.30980  0 214.96 483.40  356.80 214.86 483.30  356.81
   4   2  -8 980.888 287.323   1-0.44744 0.95833 0.22443-0.02548-0.86570 0.28452  0 500.77 483.26   31.44 500.78 483.50   30.77
   4   2  -8  1539.9   201.2   2-0.07398 0.58454 0.95529-0.75613-0.28627-0.29424  0  92.45 191.27  273.99  92.40 191.10  273.94
   4   2   8  1033.5   128.6   2-0.17318 0.68370-0.47393 0.67293 0.86337-0.28235  0  84.35 278.12   48.48  83.93 278.33   48.33
   4   2   8  1168.7   157.4   2-0.19262 0.70314 0.89006-0.69096 0.41315 0.16784  0 199.86 474.01  315.94 199.84 473.90  315.88
  -4  -2   9  6471.0   350.0   1-0.64285 0.13135-0.74609 0.54704-0.17345 0.82674  0 134.67  66.69  104.99 134.79  66.83  105.04
   4  -2  -9  6701.4   376.2   2 0.02721 0.48329 0.67204-0.87111-0.74001 0.08721  0  77.81 162.21  242.36  77.78 162.25  242.41
   4  -2   9  5600.8   390.1   1-0.24100 0.75237-0.83736 0.63841 0.49067 0.16240  0  64.85 300.14  151.00  64.64 300.14  151.00
   4  -2   9  5976.3   288.6   2-0.03646 0.54707-0.95516 0.75610 0.29385 0.35921  0  60.94 253.78   92.87  60.90 253.72   92.86
   4   2  -9  5300.3   352.8   2-0.06704 0.57760 0.94478-0.74562-0.32077-0.33230  0  74.57 172.31  271.99  74.35 172.08  271.84
   4   2   9  6252.5   280.3   2-0.16613 0.67674-0.51236 0.71142 0.84255-0.18949  0  61.15 269.43   50.88  61.05 269.36   50.89
  -4  -2  10  5485.2   370.8   1-0.60521 0.09371-0.79267 0.59362-0.07340 0.79927  0 117.75  41.07  111.67 117.61  41.36  111.72
   4  -2 -10  6584.8   415.0   2 0.02634 0.48416 0.67584-0.87491-0.73658 0.01124  0  57.19 140.95  242.66  56.84 140.99  242.71
   4  -2  10  5291.8   414.6   1-0.22916 0.74053-0.83314 0.63420 0.50335 0.22228  0  36.99 290.92  152.28  37.01 290.89  152.03
   4   2 -10  5220.8   377.4   2-0.06002 0.57058 0.93254-0.73338-0.35605-0.36959  0  53.36 151.17  269.57  52.96 151.05  269.66
   4   2  10  5409.7   301.3   2-0.16238 0.67299-0.53315 0.73221 0.83029-0.10467  0  34.88 260.48   52.27  34.56 260.60   52.29
  -4  -3   0  72.708 102.386   1-0.46115-0.04975 0.20294-0.50136-0.86381 0.86381  0 162.84 202.50   32.54 162.76 202.90   32.24
  -4  -3   0  -3.097  75.714   2-0.20582-0.30470-0.23381-0.06469 0.95025-0.95025  0 488.50 222.25   33.49 488.26 222.27   33.53
  -4  -3   0 -35.997  85.408   2 0.11047-0.62116-0.77467 0.47588-0.62265 0.62265  0 389.50 106.08  148.93 389.22 106.17  149.15
  -4   3   0 -41.442  87.530   1-0.69508 0.18414-0.60344 0.90188-0.39078 0.39078  0 374.80 101.03   89.94 374.69 100.79   89.80
  -4   3   0  85.178 101.484   2-0.23588-0.27464 0.18240 0.11610 0.95451-0.95451  0 362.76  97.61    9.31 362.71  97.68    9.43
  -4   3   0  66.529 101.483   2 0.03371-0.54421 0.64332-0.34472-0.76485 0.76485  0 492.18 251.19  240.44 492.08 251.22  240.20
   4  -3   0 -28.512  57.898   1-0.11174 0.62310-0.77882 0.48041 0.61721-0.61721  0 232.91 398.54  161.86 232.94 398.50  161.91
   4  -3   0  63.104  63.487   2-0.10860 0.61921-0.77161 0.47302 0.62676-0.62676  0 233.59 398.98   70.63 233.27 398.85   70.58
   4  -3   0 -26.805  52.834   2 0.13285 0.37784-0.35883 0.06039-0.92390 0.92390  0 153.29 272.14  179.09 153.06 272.35  178.97
   4   3   0 -19.774  45.878   2 0.06589 0.44461 0.47304-0.17444-0.87858 0.87858  0 210.33 382.36  228.62 210.46 382.52  228.30
   4   3   0  62.077  43.923   2-0.18779 0.69831 0.90670-0.60805 0.37766-0.37766  0 157.84 298.93  313.52 157.70 298.80  313.59
  -4  -3  -1 31835.6   557.2   1-0.39792-0.11297 0.29715-0.59558-0.86796 0.79531  0 158.30 212.20   25.98 158.35 212.24   25.74
  -4  -3  -1 26237.0   534.6   1-0.02320-0.48817-0.72405 0.42563 0.68936-0.76192  0 483.31 197.75  169.17 483.49 197.79  169.18
  -4  -3  -1 27100.4   334.5   2-0.16552-0.34509-0.51591 0.21732 0.84050-0.91306  0 488.08 214.17   51.16 488.38 214.45   51.13
  -4  -3  -1 25415.8   329.6   2 0.12553-0.63622-0.62179 0.32335-0.77305 0.70048  0 396.11 107.31  161.40 396.58 107.54  161.53
  -4  -3   1 30763.6   531.3   1-0.52397 0.01308 0.09563-0.39405-0.84635 0.91900  0 165.18 193.23   39.37 165.21 193.27   39.43
  -4  -3   1 26842.1   372.0   2-0.22868-0.28184 0.03318-0.33168 0.97294-0.90031  0 492.46 233.66   18.07 492.70 233.90   18.08
  -4  -3   1 25010.1   366.7   2 0.09307-0.60377-0.87088 0.57210-0.48260 0.55513  0 379.19 100.37  139.16 379.41 100.47  139.40
  -4   3  -1 26196.5   407.3   1-0.68368 0.17273-0.65394 0.95237-0.32396 0.25131  0 399.30 108.32   94.73 399.51 108.63   94.64
  -4   3  -1 25592.9   387.0   2 0.06292-0.57342 0.49101-0.19241-0.86888 0.79635  0 493.77 245.31  229.55 493.91 245.36  229.47
  -4   3  -1 27509.9   402.6   2-0.23840-0.27216 0.40206-0.10348 0.88403-0.95667  0 368.54  97.12  355.96 368.53  97.41  355.83
  -4   3   1 26756.4   280.5   1-0.70263 0.19168-0.47954 0.77797-0.52570 0.59835  0 346.94  92.50   79.29 346.85  92.79   79.29
  -4   3   1 27365.7   425.7   2-0.22464-0.28588-0.02655 0.32505 0.97408-0.90145  0 354.74  93.95   21.47 354.80  94.18   21.51
  -4   3   1 25841.2   415.4   2 0.00497-0.51553 0.76064-0.46191-0.64915 0.72171  0 494.36 260.56  249.94 494.35 260.65  249.82
   4  -3  -1 27069.9   389.2   2-0.08139 0.59200-0.85739 0.55881 0.50819-0.58075  0 240.26 404.60   79.01 240.06 404.40   79.07
   4  -3  -1 27112.3   386.4   2 0.12681 0.38388-0.13915-0.15929-0.98212 0.90954  0 151.39 264.93  191.71 151.29 264.81  192.02
   4  -3   1 25686.5   382.0   1-0.20808 0.71945-0.82497 0.52656 0.52547-0.45291  0 214.06 387.00  153.84 213.86 386.89  153.84
   4  -3   1 25795.3   352.1   2-0.13894 0.64955-0.65093 0.35235 0.74631-0.67375  0 228.23 397.53   60.58 227.98 397.33   60.70
   4  -3   1 26284.0   352.9   2 0.12846 0.38223-0.57216 0.27372-0.81002 0.88260  0 152.39 277.53  165.00 152.28 277.35  165.07
   4   3  -1 27637.7   338.4   2 0.10428 0.40622 0.17855 0.12005-0.97839 0.90586  0 219.20 391.39  210.07 219.01 391.08  210.29
   4   3  -1 23205.7   309.3   2-0.17072 0.68123 0.94995-0.65131 0.26162-0.33425  0 153.93 288.20  306.68 153.97 288.17  306.35
   4   3   1 27911.6   282.7   2 0.01056 0.49994 0.73985-0.44125-0.67269 0.74523  0 203.55 378.45  248.12 203.58 378.34  247.97
   4   3   1 23679.5   260.8   2-0.20809 0.71861 0.82091-0.52226 0.53180-0.45917  0 158.38 306.30  324.21 158.49 306.42  323.89
  -4  -3  -2  6739.5   298.3   1-0.33822-0.17267 0.37694-0.67536-0.86228 0.71698  0 151.96 221.39   19.98 151.95 221.38   20.03
  -4  -3  -2  5638.4   334.7   1-0.09415-0.41722-0.76887 0.47046 0.63243-0.77756  0 494.33 208.92  163.41 494.42 208.99  163.36
  -4  -3  -2  5364.8   188.4   2-0.11663-0.39398-0.74237 0.44379 0.65976-0.80488  0 494.20 211.13   68.09 494.38 211.37   68.02
  -4  -3  -2  5192.8   189.9   2 0.13309-0.64378-0.41043 0.11199-0.90213 0.75697  0 400.49 103.15  175.93 400.97 103.34  175.75
  -4  -3   2  6359.9   277.0   1-0.58213 0.07124-0.02105-0.27738-0.81282 0.95812  0 165.58 183.18   47.14 165.53 183.17   47.14
  -4  -3   2  5413.2   230.4   2-0.23779-0.27273 0.24314-0.54164 0.94039-0.79514  0 500.81 248.18    5.92 500.93 248.36    5.85
  -4  -3   2  4756.6   233.2   2 0.07656-0.58726-0.92842 0.62964-0.36356 0.50861  0 367.88  91.42  131.85 368.08  91.48  131.82
  -4   3  -2  5276.8   271.4   1-0.67628 0.16533-0.67712 0.97555-0.29010 0.14480  0 424.10 115.73   96.99 424.24 115.96   97.03
  -4   3  -2  4805.8   218.3   2 0.08898-0.59948 0.31380-0.01520-0.94531 0.80024  0 500.38 243.08  218.35 500.46 243.20  218.32
  -4   3  -2  5132.5   231.3   2-0.23287-0.27765 0.59649-0.29784 0.76810-0.91334  0 372.22  92.43  342.84 371.89  92.67  342.84
  -4   3   2  5495.7   263.4   2-0.20918-0.30134-0.20216 0.50066 0.95675-0.81150  0 345.33  87.15   31.72 345.35  87.41   31.66
  -4   3   2  5021.7   250.5   2-0.02150-0.48906 0.84429-0.54555-0.53546 0.68059  0 500.55 272.90  258.00 500.54 273.02  258.03
   4  -3  -2  5055.7   208.9   2-0.05808 0.56868-0.91477 0.61619 0.39977-0.54489  0 248.23 413.54   86.13 248.10 413.41   86.22
   4  -3  -2  5223.3   199.3   2 0.11492 0.39558 0.05735-0.35595-0.99172 0.84665  0 147.37 255.29  203.16 147.34 255.28  203.28
   4  -3   2  4581.9   212.0   1-0.26199 0.77350-0.84404 0.54546 0.46793-0.32275  0 196.31 376.44  148.98 196.16 376.37  149.19
   4  -3   2  4935.1   176.0   2-0.16902 0.67963-0.49631 0.19773 0.85153-0.70641  0 224.52 400.48   49.86 224.41 400.24   49.81
   4  -3   2  4897.7   169.9   2 0.11422 0.39647-0.74543 0.44699-0.65672 0.80188  0 148.72 279.57  151.78 148.61 279.41  151.83
   4   3  -2  6013.2   316.1   1-0.18796 0.69885 0.54627-0.24784-0.81625 0.67096  0 472.38 353.77    6.82 472.39 353.59    6.76
   4   3  -2  5439.6   189.2   2 0.12330 0.38739-0.07096 0.36940-0.98983 0.84467  0 228.47 402.98  195.98 228.26 402.60  195.95
   4   3  -2  4870.8   173.5   2-0.15672 0.66724 0.97255-0.67390 0.17200-0.31725  0 148.19 276.06  301.03 148.27 275.96  300.93
   4   3   2  4925.1   129.3   2-0.04593 0.55649 0.90493-0.60620-0.42307 0.56819  0 199.24 380.21  265.64 199.26 380.04  265.46
   4   3   2  4660.4   126.8   2-0.22795 0.73847 0.66458-0.36593 0.71160-0.56635  0 155.27 309.40  337.97 155.32 309.52  337.73
  -4  -3  -3 12075.3   387.1   1-0.28454-0.22635 0.44220-0.74062-0.85059 0.63265  0 143.61 230.49   14.89 143.67 230.47   15.14
  -4  -3  -3  9804.8   245.5   2 0.12841-0.63910-0.17286-0.12558-0.97654 0.75880  0 401.88  93.28  189.97 402.24  93.45  190.07
  -4  -3   3  9826.8   327.9   1-0.63145 0.12051-0.14181-0.15662-0.76234 0.98028  0 163.72 172.52   55.00 163.71 172.49   55.17
  -4  -3   3  8489.5   296.9   2 0.06177-0.57246-0.96264 0.66386-0.26365 0.48123  0 355.72  79.81  125.77 355.87  79.97  125.73
  -4   3  -3  9344.2   355.2   1-0.67271 0.16176-0.68672 0.98515-0.27546 0.05752  0 450.04 122.72   97.87 450.22 122.92   98.05
  -4   3  -3  8872.9   282.6   2-0.21921-0.29131 0.74770-0.44905 0.62681-0.84468  0 373.66  83.46  330.90 373.32  83.69  330.86
  -4   3   3 10317.1   337.1   2-0.19325-0.31727-0.33761 0.63611 0.92124-0.70335  0 334.62  77.70   39.70 334.69  77.95   39.76
   4  -3  -3  9218.5   301.8   2-0.03836 0.54897-0.95207 0.65349 0.30346-0.52114  0 256.97 425.57   92.23 257.11 425.45   92.27
   4  -3  -3  9989.7   282.3   2 0.10049 0.41001 0.21478-0.51338-0.97148 0.75388  0 141.51 244.14  212.38 141.48 244.16  212.41
   4  -3   3  8402.5   284.1   1-0.29270 0.80421-0.85271 0.55413 0.43268-0.21492  0 178.86 366.90  146.40 178.77 366.79  146.47
   4  -3   3  9107.4   231.3   2-0.19525 0.70577-0.32344 0.02494 0.92588-0.70800  0 222.59 407.80   38.93 222.40 407.53   38.89
   4  -3   3  8783.6   224.2   2 0.09474 0.41595-0.86366 0.56488-0.49510 0.71267  0 142.17 278.76  140.05 142.05 278.53  140.23
   4   3  -3 10485.3   402.6   1-0.25029 0.76118 0.48094-0.18251-0.84027 0.62233  0 475.35 367.83   11.82 475.43 367.71   12.12
   4   3  -3  9791.3   263.7   2 0.13126 0.37943-0.25747 0.55591-0.95733 0.73959  0 238.56 417.15  185.05 238.30 416.80  185.10
   4   3   3  8829.0   177.3   2-0.08752 0.59808 0.97234-0.67360-0.21654 0.43423  0 197.79 388.49  278.34 197.76 388.25  278.13
   4   3   3  8043.9   168.7   2-0.23797 0.74852 0.44042-0.14184 0.86568-0.64776  0 147.98 307.76  353.39 147.99 307.62  353.37
  -4  -3  -4 374.705 132.260   1-0.23824-0.27265 0.49405-0.79247-0.83616 0.54557  0 133.07 239.64   11.35 133.54 239.66   11.07
  -4  -3  -4 353.561 118.289   2 0.11638-0.62688 0.03871-0.33731-0.99245 0.70231  0 401.39  78.67  201.85 401.13  78.76  202.21
  -4  -3   4 503.481 124.605   1-0.66873 0.15778-0.26105-0.03739-0.69617 0.98677  0 159.74 160.87   63.35 159.70 161.06   63.26
  -4  -3   4 434.518 152.699   2 0.04845-0.55915-0.98276 0.68398-0.17845 0.46854  0 342.99  66.31  120.52 343.10  66.23  120.70
  -4   3  -4 203.834 193.142   1-0.67208 0.16113-0.68834 0.98678-0.27294-0.01765  0 478.44 129.14   98.33 478.44 129.47   98.22
  -4   3  -4 268.085 127.669   2-0.20203-0.30849 0.85178-0.55313 0.48338-0.77387  0 373.17  70.45  320.46 372.96  70.54  320.54
  -4   3   4 248.859 161.520   2-0.17919-0.33133-0.43708 0.73558 0.88140-0.59089  0 323.15  65.78   46.02 323.07  65.99   45.96
   4  -3  -4 394.978 147.533   2-0.02159 0.53220-0.97573 0.67714 0.21793-0.50817  0 266.81 440.73   97.72 266.99 440.46   97.47
   4  -3  -4 316.251 100.831   2 0.08651 0.42398 0.33345-0.63205-0.93879 0.64866  0 134.02 231.73  219.68 133.95 231.79  219.51
   4  -3   4 303.372 124.802   1-0.30919 0.82069-0.85662 0.55804 0.41305-0.12270  0 161.27 357.86  144.51 161.18 357.82  144.99
   4  -3   4 358.226  93.242   2-0.21394 0.72446-0.15432-0.14418 0.96458-0.67407  0 221.63 419.25   28.99 221.68 419.16   28.88
   4  -3   4 305.154  78.931   2 0.07387 0.43682-0.93561 0.63683-0.34523 0.63533  0 132.69 275.63  130.53 132.78 275.42  130.68
   4   3  -4 405.164 205.279   1-0.30541 0.81630 0.41752-0.11910-0.85580 0.56522  0 482.25 383.71   17.20 482.10 383.51   17.02
   4   3  -4 485.197 111.958   2 0.13308 0.37761-0.38766 0.68610-0.91214 0.62183  0 249.06 433.68  177.01 248.83 433.49  177.18
   4   3  -4 251.347  86.083   2-0.13357 0.64413 0.99037-0.69163 0.03646-0.32672  0 132.30 248.88  293.01 132.24 248.84  292.99
   4   3   4 325.074  62.507   2-0.23673 0.74725 0.20854 0.08996 0.94893-0.65842  0 137.40 302.76    7.96 137.31 302.68    7.90
   4   3   4 310.128  66.449   2-0.11490 0.62546 0.99092-0.69218-0.06986 0.36012  0 197.90 401.63  286.84 198.03 401.69  286.77
  -4  -3  -5  2008.7   233.1   1-0.19988-0.31102 0.53429-0.83272-0.82133 0.45810  0 121.71 248.92    7.75 121.52 249.05    7.77
  -4  -3  -5  1470.7   169.1   2 0.10176-0.61226 0.20295-0.50155-0.97389 0.61122  0 399.08  59.75  211.68 399.10  59.86  211.71
  -4  -3   5  1666.4   205.2   1-0.69245 0.18150-0.37347 0.07503-0.61728 0.98052  0 153.49 148.78   71.18 153.53 148.61   71.24
  -4  -3   5  1161.1   201.1   2 0.03633-0.54702-0.99394 0.69516-0.10378 0.46640  0 329.90  50.29  116.00 329.80  50.42  116.32
  -4   3  -5  1359.4   187.3   2-0.18388-0.32664 0.91832-0.61967 0.35055-0.71367  0 371.88  53.14  311.65 371.40  53.47  311.88
  -4   3   5  1454.5   217.7   2-0.16707-0.34354-0.50693 0.80552 0.84564-0.48283  0 310.64  51.51   50.46 310.70  51.77   50.53
   4  -3  -5  1563.5   222.7   2-0.00681 0.51751-0.98985 0.69107 0.14197-0.50459  0 277.52 458.65  102.00 277.70 458.40  102.01
   4  -3  -5  1819.9   190.9   2 0.07421 0.43629 0.41968-0.71828-0.90463 0.54196  0 125.08 218.29  224.73 124.77 218.37  224.87
   4  -3   5  1256.4   176.4   1-0.31632 0.82782-0.85801 0.55943 0.40468-0.04174  0 143.03 349.41  144.35 142.90 349.32  144.35
   4  -3   5  1553.0   162.5   2-0.22593 0.73645-0.00807-0.29043 0.97411-0.61097  0 221.87 434.72   20.48 221.68 434.66   20.44
   4  -3   5  1375.8   139.3   2 0.05440 0.45629-0.97490 0.67612-0.21588 0.57850  0 121.05 270.80  122.69 121.02 270.57  122.90
   4   3  -5  1501.6   233.8   1-0.35239 0.86328 0.35883-0.06041-0.86433 0.50109  0 492.58 401.63   21.29 492.62 401.56   21.35
   4   3  -5  1424.4   198.0   2 0.13197 0.37872-0.47618 0.77462-0.86939 0.50650  0 259.94 452.87  171.53 259.84 452.75  171.53
   4   3  -5  1116.4   133.8   2-0.12375 0.63431 0.99209-0.69336-0.02090-0.34192  0 122.36 234.53  289.72 122.11 234.40  289.64
   4   3   5  1344.1   121.4   2-0.22725 0.73777 0.01073 0.28777 0.97378-0.61064  0 124.48 296.38   19.16 124.21 296.14   19.37
   4   3   5  1188.1   127.6   2-0.13349 0.64405 0.99040-0.69166 0.03601 0.32681  0 198.83 419.07  293.12 198.93 418.93  292.96
  -4  -3  -6 521.298 151.657   1-0.16914-0.34176 0.56462-0.86305-0.80783 0.37195  0 107.55 258.45    5.42 107.51 258.84    5.17
  -4  -3  -6 390.426 168.421   2 0.08806-0.59856 0.32098-0.61958-0.94298 0.50778  0 396.67  37.14  218.63 396.53  37.03  218.76
  -4  -3   6 475.220 151.366   1-0.70249 0.19154-0.47556 0.17713-0.52948 0.96537  0 145.18 134.86   79.28 145.17 134.84   78.97
  -4  -3   6 225.749 196.756   2 0.02505-0.53575-0.99901 0.70023-0.03672 0.47186  0 316.36  31.61  112.45 315.92  32.22  112.44
  -4   3  -6 178.072 177.923   2-0.16626-0.34426 0.95832-0.65967 0.23233-0.66807  0 369.16  32.13  304.36 369.13  32.45  304.57
  -4   3   6 410.158 214.407   2-0.15813-0.35247-0.55648 0.85506 0.81567-0.38030  0 297.27  35.07   54.00 297.39  35.04   53.88
   4  -3  -6  61.215 182.992   2 0.00606 0.50463-0.99738 0.69860 0.07211-0.50725  0 289.37 479.85  106.45 289.38 479.80  106.11
   4  -3  -6 407.870 126.326   2 0.06449 0.44601 0.48142-0.78002-0.87412 0.43891  0 113.93 203.63  228.69 113.83 203.81  228.83
   4  -3   6 363.517 148.745   1-0.31672 0.82823-0.85809 0.55951 0.40418 0.03134  0 123.44 341.36  144.40 123.59 341.12  144.32
   4  -3   6 212.954 106.990   2-0.23275 0.74327 0.10888-0.40738 0.96642-0.53066  0 222.16 453.95   13.49 221.96 453.91   13.71
   4  -3   6 251.840  91.427   2 0.03661 0.47408-0.99375 0.69497-0.10548 0.54062  0 107.00 264.42  116.51 106.92 264.51  116.42
   4   3  -6 199.131 186.919   2 0.13015 0.38053-0.53598 0.83442-0.83414 0.39866  0 271.59 475.02  167.36 271.40 475.08  167.56
   4   3  -6 348.641 110.221   2-0.11422 0.62478 0.99072-0.69198-0.07370-0.36169  0 110.19 219.35  286.39 110.40 219.18  286.55
   4   3   6 372.037  89.763   2-0.21539 0.72591-0.13884 0.43734 0.96661-0.53084  0 109.08 288.79   27.96 108.93 288.77   27.98
   4   3   6 481.759 104.779   2-0.14756 0.65812 0.98189-0.68315 0.11886 0.31652  0 199.73 439.36  297.96 199.76 439.49  297.84
  -4  -3  -7 32336.7   694.9   1-0.14561-0.36529 0.58680-0.88522-0.79654 0.28801  0  91.58 269.09    3.03  91.30 269.21    3.20
  -4  -3  -7 27187.2   553.9   2 0.07677-0.58727 0.40249-0.70109-0.91220 0.40446  2 394.00   9.60  223.79 393.96  10.00  223.78
  -4  -3   7 24488.4   542.0   1-0.70009 0.18914-0.56509 0.26666-0.43651 0.94505  0 134.54 119.28   86.30 134.50 119.31   86.37
  -4  -3   7 23625.0   623.7   2 0.01448-0.52517-0.99959 0.70080 0.02489 0.48277  0 301.05  11.20  108.84 301.31  11.37  108.86
  -4   3  -7 22027.7   610.6   2-0.14907-0.36149 0.98050-0.68176 0.12809-0.63603  2 366.60   6.92  298.31 366.98   7.03  298.38
  -4   3   7 25885.9   662.4   2-0.15173-0.35888-0.59026 0.88884 0.79283-0.28489  0 282.98  15.14   55.85 283.04  15.54   56.25
   4  -3  -7 28221.8   591.0   2 0.05708 0.45342 0.52460-0.82320-0.84944 0.34170  0 101.32 187.92  231.76 100.93 188.02  231.73
   4  -3   7 21592.4   557.4   1-0.31202 0.82353-0.85724 0.55866 0.40962 0.09849  0 103.16 333.11  144.71 102.82 333.08  144.73
   4  -3   7 24269.3   470.3   2-0.23638 0.74690 0.19736-0.49586 0.95141-0.44301  0 222.26 477.37    8.63 222.07 477.07    8.56
   4  -3   7 22848.2   446.6   2 0.02047 0.49022-0.99974 0.70096-0.01035 0.51802  0  90.73 257.83  110.88  90.37 257.63  110.90
   4   3  -7 25973.5   631.3   2 0.12828 0.38240-0.57566 0.87411-0.80756 0.29951  0 283.94 501.72  164.84 283.80 501.30  164.83
   4   3  -7 23435.7   524.9   2-0.10512 0.61568 0.98673-0.68799-0.12375-0.38420  0  97.09 203.30  283.60  96.82 203.03  283.61
   4   3   7 26885.7   437.3   2-0.20454 0.71506-0.24535 0.54385 0.94761-0.43922  0  91.76 281.16   34.13  91.39 281.06   34.21
   4   3   7 23035.8   419.5   2-0.15950 0.67002 0.96889-0.67025 0.18923 0.31914  0 200.31 464.01  302.01 200.10 463.56  301.97
  -4  -3  -8 937.619 209.228   1-0.12872-0.38217 0.60226-0.90068-0.78786 0.20668  0  72.96 280.12    1.58  72.55 280.43    1.80
  -4  -3   8 909.733 191.729   1-0.68712 0.17617-0.64126 0.34283-0.34155 0.92273  0 121.74 101.72   93.46 121.45 101.56   93.38
   4  -3  -8 961.318 191.915   2 0.05181 0.45869 0.55390-0.85250-0.83097 0.25070  0  85.86 170.60  233.63  85.76 170.72  233.74
   4  -3   8 920.877 204.392   1-0.30347 0.81498-0.85532 0.55674 0.41992 0.16078  0  79.93 325.18  145.57  80.00 325.05  145.50
   4  -3   8 652.995 178.306   2-0.23821 0.74873 0.26178-0.56028 0.93527-0.35425  2 222.31 503.68    4.36 221.62 504.63    4.74
   4  -3   8 565.189 131.269   2 0.00590 0.50480-0.99731 0.69853 0.07301 0.50718  0  71.14 250.25  106.15  71.09 250.16  106.06
   4   3  -8 790.879 184.346   2-0.09616 0.60672 0.98045-0.68171-0.17166-0.40885  0  81.17 185.75  280.57  81.01 185.63  280.80
   4   3   8 720.190 130.332   2-0.19583 0.70635-0.31885 0.61735 0.92735-0.34634  0  71.35 273.22   38.61  71.31 273.21   38.61
   4   3   8 629.987 153.594   2-0.16890 0.67942 0.95343-0.65479 0.24987 0.33112  0 199.75 491.53  305.54 199.41 491.60  305.64
  -4  -3   9 289.491 207.897   1-0.66539 0.15388-0.70420 0.40562-0.24771 0.90099  0 105.84  80.85   99.62 105.78  80.81   99.99
   4  -3  -9 519.064 214.207   2 0.04826 0.46224 0.57254-0.87114-0.81845 0.16565  0  67.72 151.56  234.91  67.72 151.52  235.04
   4  -3   9 803.549 233.236   1-0.29166 0.80316-0.85246 0.55388 0.43387 0.21941  0  54.71 316.72  146.55  54.49 316.85  146.56
   4  -3   9 328.873 130.733   2-0.00795 0.51864-0.98895 0.69017 0.14805 0.50466  0  48.31 242.17  101.60  48.48 242.21  101.65
   4   3  -9 435.867 189.267   2-0.08724 0.59780 0.97204-0.67331-0.21799-0.43508  0  62.26 166.43  278.35  62.37 166.57  278.04
   4   3   9 708.055 139.720   2-0.18914 0.69966-0.36830 0.66680 0.91027-0.25662  0  47.99 265.43   41.54  48.02 265.29   41.64
  -4  -3  10  2224.9   290.9   1-0.63647 0.12496-0.75562 0.45704-0.15475 0.88062  0  86.81  56.08  106.46  86.75  55.89  106.29
   4  -3 -10  1905.3   294.9   2 0.04624 0.46426 0.58293-0.88153-0.81121 0.08587  0  46.33 129.77  236.07  46.03 129.80  235.77
   4  -3  10  1835.2   301.3   1-0.27708 0.78858-0.84854 0.54997 0.45078 0.27509  0  25.87 308.28  147.78  25.35 308.27  147.86
   4  -3  10  1544.5   198.0   2-0.02151 0.53212-0.97583 0.67724 0.21749 0.50813  0  22.07 234.07   97.50  21.86 233.99   97.50
   4   3 -10  1369.9   251.4   2-0.07847 0.58903 0.96152-0.66278-0.26329-0.46235  0  39.78 145.40  275.48  40.05 145.31  275.33
   4   3  10  1792.6   201.2   2-0.18474 0.69526-0.39946 0.69796 0.89795-0.17167  0  20.91 257.60   43.58  20.80 257.43   43.58
  -4  -4   0 12375.0   388.3   1-0.50772-0.00318 0.12496-0.52286-0.85241 0.85241  0 141.50 214.70   37.44 141.53 214.70   37.48
  -4  -4   0 10219.9   310.5   2 0.12097-0.63166-0.68192 0.28400-0.72136 0.72136  0 376.21  76.28  156.96 376.35  76.58  156.99
  -4   4   0 10414.2   265.6   1-0.69028 0.17933-0.35937 0.75728-0.62799 0.62799  0 380.21  76.90   70.05 380.17  77.21   70.21
  -4   4   0 11191.0   348.0   2-0.23721-0.27331 0.22215 0.17585 0.94572-0.94572  0 345.46  71.21    6.85 345.53  71.46    7.09
   4  -4   0  9814.7   229.9   1-0.24108 0.75244-0.83738 0.43950 0.49058-0.49058  0 228.70 418.36  150.96 228.53 418.24  151.00
   4  -4   0  9704.8   284.6   2-0.12925 0.63986-0.69227 0.29416 0.70996-0.70996  0 247.03 428.21   64.18 246.83 427.97   63.90
   4  -4   0 10116.3   278.2   2 0.13284 0.37785-0.35619-0.04174-0.92492 0.92492  0 135.74 252.13  178.87 135.72 251.97  179.13
   4   4   0 10749.7   254.7   2 0.07203 0.43847 0.43400-0.03587-0.89803 0.89803  0 220.22 413.44  225.78 220.09 413.16  225.78
   4   4   0  8819.1   229.1   2-0.21201 0.72253 0.79817-0.39998 0.56389-0.56389  0 136.85 279.99  326.33 136.96 280.05  326.18
  -4  -4  -1  4335.8   262.3   1-0.45646-0.05443 0.21035-0.60825-0.86452 0.79187  0 138.05 224.19   32.11 138.13 224.20   31.73
  -4  -4  -1  3241.4   236.7   2 0.12956-0.64025-0.54895 0.15103-0.82575 0.75317  0 382.78  76.29  166.67 382.89  76.40  166.67
  -4  -4   1  4494.3   266.0   1-0.55750 0.04660 0.03078-0.42868-0.82961 0.90225  0 142.80 204.91   43.78 142.85 204.93   43.72
  -4  -4   1  3415.6   249.0   2 0.10909-0.61979-0.78419 0.38581-0.61086 0.68338  0 367.89  72.59  148.15 368.07  72.66  148.27
  -4   4  -1  3695.9   239.5   1-0.70208 0.19113-0.46617 0.86408-0.53830 0.46565  0 407.72  84.45   78.17 407.80  84.70   78.24
  -4   4  -1  3386.6   256.8   2-0.23857-0.27199 0.38943 0.00868 0.88962-0.96226  0 350.83  70.04  356.76 350.84  70.29  356.63
  -4   4   1  3885.8   154.1   1-0.62834 0.11740-0.13327 0.53118-0.76644 0.83908  0 348.02  69.49   54.64 347.89  69.72   54.59
  -4   4   1  4217.5   277.0   2-0.23019-0.28033 0.06055 0.33745 0.97126-0.89863  0 338.57  69.04   16.50 338.60  69.23   16.51
   4  -4  -1  2949.2   126.8   1-0.09103 0.60240-0.76699 0.36911 0.63516-0.70773  0 255.12 433.08  163.62 254.95 432.95  163.63
   4  -4  -1  3535.0   207.9   2-0.10592 0.61652-0.78111 0.38300 0.61534-0.68790  0 253.15 432.59   71.25 252.99 432.25   71.44
   4  -4  -1  4127.2   205.3   2 0.12923 0.38146-0.18992-0.20800-0.97326 0.90068  0 134.79 245.75  188.99 134.78 245.66  189.07
   4  -4   1  3497.2   180.8   1-0.30949 0.82100-0.85669 0.45858 0.41268-0.34009  0 207.82 405.82  144.89 207.74 405.75  144.96
   4  -4   1  3685.1   200.3   2-0.15295 0.66356-0.58398 0.18586 0.79723-0.72467  0 242.05 427.52   55.81 241.84 427.32   55.80
   4  -4   1  3466.7   179.7   2 0.13068 0.38001-0.51958 0.12166-0.84437 0.91695  0 134.38 256.39  168.78 134.35 256.26  168.66
   4   4  -1  3384.9   184.0   2 0.09884 0.41166 0.22984 0.16829-0.96820 0.89566  0 227.33 419.57  213.12 227.21 419.34  213.30
   4   4  -1  3293.5   162.1   2-0.19802 0.70854 0.86942-0.47122 0.45266-0.52529  0 134.82 271.91  318.81 134.92 272.02  318.48
   4   4   1  3823.3   168.7   2 0.03726 0.47324 0.62696-0.22883-0.77816 0.85069  0 214.32 411.21  238.96 214.28 410.99  238.97
   4   4   1  3258.6   151.4   2-0.22491 0.73543 0.69720-0.29900 0.68068-0.60806  0 136.34 285.67  335.22 136.42 285.76  335.14
  -4  -4  -2 17154.5   461.5   1-0.40653-0.10436 0.28543-0.68333-0.86791 0.72261  0 132.74 233.60   26.58 132.82 233.59   26.57
  -4  -4  -2 13778.5   333.9   2 0.13307-0.64376-0.39184-0.00609-0.91036 0.76520  0 387.02  71.65  176.98 387.48  71.88  176.92
  -4  -4   2 15796.9   428.0   1-0.60317 0.09222-0.06917-0.32874-0.79461 0.93991  0 142.08 194.76   50.21 142.12 194.75   50.34
  -4  -4   2 13565.1   376.8   2 0.09580-0.60649-0.85892 0.46054-0.50308 0.64812  0 358.08  65.50  140.76 358.33  65.58  140.75
  -4   4  -2 13873.1   382.4   1-0.70272 0.19177-0.52439 0.92230-0.48084 0.33554  0 434.83  91.37   83.45 434.93  91.59   82.92
  -4   4  -2 13201.1   372.4   2-0.23551-0.27501 0.54454-0.14634 0.80499-0.95024  0 354.45  65.04  346.60 354.22  65.29  346.53
  -4   4   2 15129.9   416.6   2-0.22021-0.29031-0.08421 0.48221 0.97181-0.82656  0 330.10  63.70   24.78 330.21  63.87   24.83
   4  -4  -2 13590.3   381.5   2-0.08405 0.59466-0.85020 0.45209 0.51971-0.66483  0 260.27 440.22   78.10 260.30 440.03   78.29
   4  -4  -2 14618.9   353.3   2 0.12121 0.38948-0.03572-0.36220-0.99198 0.84683  0 131.79 237.53  197.99 131.72 237.49  197.97
   4  -4   2 11346.1   309.5   1-0.34512 0.85663-0.86312 0.46502 0.36866-0.22349  0 188.95 394.87  141.64 188.79 394.74  141.69
   4  -4   2 12661.9   308.5   2-0.17553 0.68605-0.46052 0.06252 0.87012-0.72487  0 238.35 430.64   47.27 238.05 430.37   47.46
   4  -4   2 12971.6   307.7   2 0.12243 0.38826-0.66483 0.26690-0.73690 0.88205  0 130.63 258.50  158.07 130.57 258.35  158.32
   4   4  -2 14154.8   323.9   2 0.11610 0.39440 0.04234 0.35579-0.99233 0.84727  0 235.47 429.23  202.15 235.31 428.90  202.42
   4   4  -2 12064.5   290.4   2-0.18416 0.69468 0.91753-0.51933 0.35246-0.49771  0 130.54 262.11  312.15 130.66 262.12  312.00
   4   4   2 13754.9   271.0   2-0.00101 0.51157 0.78145-0.38313-0.62397 0.76910  0 209.88 413.37  251.89 209.92 413.08  251.72
   4   4   2 12540.4   256.7   2-0.23455 0.74507 0.56503-0.16683 0.79103-0.64578  0 132.96 288.66  345.13 133.02 288.74  345.10
  -4  -4  -3 14626.4   443.2   1-0.35973-0.15117 0.34918-0.74708-0.86526 0.64732  0 125.80 243.03   21.89 125.50 243.00   22.04
  -4  -4  -3 10939.1   325.6   2 0.13040-0.64108-0.22526-0.17266-0.96553 0.74780  0 389.66  62.59  186.98 390.09  62.82  187.00
  -4  -4   3 12691.5   393.4   1-0.64196 0.13101-0.17167-0.22624-0.74728 0.96522  0 139.26 184.05   57.10 139.36 184.07   57.17
  -4  -4   3 10450.2   378.2   2 0.08219-0.59288-0.91146 0.51308-0.40311 0.62068  0 347.20  55.54  134.10 347.49  55.60  134.29
  -4   4  -3 10323.7   387.2   1-0.70080 0.18986-0.55718 0.95509-0.44545 0.22751  0 463.05  97.86   85.71 463.23  97.91   85.68
  -4   4  -3 10670.3   366.9   2-0.22677-0.28375 0.67787-0.27967 0.69934-0.91721  0 356.56  56.27  336.82 356.26  56.57  336.69
  -4   4   3 11205.1   405.2   2-0.20885-0.30167-0.20528 0.60328 0.95616-0.73828  0 320.44  55.43   32.14 320.57  55.65   31.85
   4  -4  -3  9972.4   363.8   2-0.06390 0.57451-0.90174 0.50363 0.42752-0.64521  0 268.56 451.31   84.27 268.68 451.13   84.44
   4  -4  -3  9276.1   307.1   2 0.11164 0.39886 0.09782-0.49596-0.98892 0.77132  0 126.85 227.67  205.78 126.71 227.72  205.61
   4  -4   3  9363.8   321.2   1-0.36338 0.87489-0.86544 0.46734 0.34491-0.12715  0 170.55 384.80  139.89 170.46 384.73  139.98
   4  -4   3 10465.0   295.1   2-0.19445 0.70497-0.32974-0.06826 0.92383-0.70595  0 235.63 437.76   39.15 235.43 437.46   39.27
   4  -4   3 10129.6   280.8   2 0.10953 0.40116-0.78119 0.38282-0.61461 0.83218  0 124.61 258.48  148.34 124.28 258.21  148.55
   4   4  -3 10875.7   316.0   2 0.12558 0.38511-0.11418 0.51210-0.98549 0.76776  0 244.40 441.86  193.17 243.98 441.48  193.47
   4   4   3 10743.1   252.0   2-0.03799 0.54855 0.88654-0.48823-0.46108 0.67877  0 206.95 420.12  263.02 206.94 419.84  262.99
   4   4   3  8429.0   221.8   2-0.23835 0.74890 0.40978-0.01167 0.88050-0.66258  0 126.73 289.00  355.18 126.66 288.78  355.34
  -4  -4  -4  1156.0   180.6   1-0.31800-0.19290 0.40224-0.80014-0.85853 0.56795  0 116.23 252.55   18.35 116.24 252.58   18.16
  -4  -4  -4 981.306 177.092   2 0.12314-0.63383-0.06830-0.32962-0.99004 0.69972  0 390.81  49.29  196.35 391.00  49.32  196.10
  -4  -4   4  1027.2   175.8   1-0.67185 0.16090-0.27320-0.12471-0.68847 0.97906  0 134.39 172.57   64.01 134.45 172.63   64.10
  -4  -4   4 899.129 202.819   2 0.06895-0.57965-0.94763 0.54925-0.31184 0.60194  0 335.81  42.62  128.37 335.74  42.97  128.63
  -4   4  -4  1092.2   248.1   1-0.69907 0.18813-0.57498 0.97289-0.42507 0.13448  0 493.85 103.46   87.29 493.98 103.67   87.24
  -4   4  -4 719.327 189.276   2-0.21431-0.29621 0.78328-0.38508 0.58356-0.87405  0 357.04  43.89  327.51 356.88  43.93  327.61
  -4   4   4 692.646 207.492   2-0.19790-0.31262-0.30207 0.70007 0.93252-0.64201  0 309.78  44.79   37.47 309.80  44.73   37.60
   4  -4  -4  1016.4   214.0   2-0.04585 0.55646-0.93920 0.54109 0.34029-0.63054  0 278.10 465.57   90.00 278.05 465.51   89.99
   4  -4  -4 967.742 151.208   2 0.10133 0.40917 0.20698-0.60511-0.97308 0.68295  0 119.81 216.33  211.69 119.77 216.46  211.95
   4  -4   4 708.910 153.647   1-0.37106 0.88257-0.86619 0.46809 0.33470-0.04435  0 151.93 375.46  138.97 151.96 375.53  139.24
   4  -4   4 811.862 130.489   2-0.20915 0.71967-0.20241-0.19559 0.95671-0.66620  0 233.92 448.47   31.57 233.73 448.44   31.68
   4  -4   4 771.014 117.605   2 0.09386 0.41684-0.86753 0.46915-0.48846 0.77855  0 115.54 256.57  139.61 115.48 256.32  139.79
   4   4  -4 848.141 148.581   2 0.13076 0.37993-0.23750 0.63542-0.96255 0.67223  0 253.80 457.31  186.22 253.68 457.33  186.28
   4   4  -4 855.736 126.325   2-0.15867 0.66919 0.97002-0.57183 0.18406-0.47455  0 116.50 238.60  301.71 116.47 238.41  301.67
   4   4   4 732.448 100.548   2-0.23803 0.74855 0.25338 0.14462 0.93763-0.64712  0 117.55 286.90    4.91 117.36 286.58    5.24
   4   4   4 789.058 104.855   2-0.06880 0.57936 0.94761-0.54930-0.31193 0.60218  0 205.15 431.18  272.46 205.15 431.06  272.38
  -4  -4  -5  8299.5   376.6   1-0.28198-0.22892 0.44517-0.84307-0.84989 0.48666  0 105.19 262.53   14.75 104.90 262.51   14.91
  -4  -4  -5  6623.3   348.4   2 0.11431-0.62481 0.06491-0.46305-0.99132 0.62865  0 390.75  31.22  203.58 390.65  31.47  203.72
  -4  -4   5  5523.0   317.9   1-0.69193 0.18098-0.37016-0.02775-0.61985 0.98309  0 127.51 160.14   71.02 127.38 160.21   70.99
  -4  -4   5  5596.0   377.2   2 0.05635-0.56705-0.97189 0.57351-0.22860 0.59122  0 322.94  27.61  123.56 323.19  27.71  123.64
  -4   4  -5  5255.6   354.7   2-0.19984-0.31068 0.86145-0.46326 0.46686-0.82998  0 356.66  26.87  319.41 356.41  27.31  319.44
  -4   4   5  6298.4   415.6   2-0.18799-0.32253-0.37667 0.77467 0.90707-0.54394  0 297.93  30.88   42.15 297.96  31.14   42.16
   4  -4  -5  4999.1   382.4   2-0.02957 0.54018-0.96551 0.56739 0.25870-0.62151  0 288.28 483.81   95.00 288.48 483.45   95.01
   4  -4  -5  7158.1   314.4   2 0.09153 0.41897 0.29282-0.69095-0.95178 0.58911  0 111.26 203.71  216.98 110.98 203.85  217.05
   4  -4   5  5336.1   311.1   1-0.37167 0.88317-0.86625 0.46815 0.33388 0.02905  0 132.85 366.99  139.01 132.82 366.95  139.18
   4  -4   5  5854.4   268.9   2-0.21992 0.73044-0.08773-0.31027 0.97156-0.60843  0 232.84 463.61   24.86 232.60 463.34   25.03
   4  -4   5  6051.2   249.9   2 0.07709 0.43360-0.92695 0.52858-0.36717 0.72979  0 104.52 253.09  131.97 104.20 252.83  132.04
   4   4  -5  6045.8   371.8   2 0.13252 0.37817-0.33022 0.72815-0.93455 0.57166  0 264.00 476.85  180.77 264.06 476.38  180.72
   4   4  -5  5799.4   272.4   2-0.14668 0.65724 0.98269-0.58437 0.11315-0.47597  0 106.91 224.97  297.66 106.70 224.76  297.49
   4   4   5  6150.0   222.2   2-0.23274 0.74326 0.10886 0.28914 0.96643-0.60329  0 105.67 282.89   13.76 105.41 282.70   13.71
   4   4   5  6641.6   239.4   2-0.09394 0.60450 0.97863-0.58031-0.18291 0.54573  0 204.13 446.67  280.13 203.98 446.40  280.13
  -4  -4  -6  6669.9   365.9   1-0.25203-0.25887 0.47902-0.87692-0.84085 0.40497  0  91.54 272.93   12.20  91.36 272.99   12.27
  -4  -4  -6  5361.7   379.7   2 0.10495-0.61545 0.17192-0.57005-0.97951 0.54430  2 390.06   8.80  209.79 390.00   9.08  209.91
  -4  -4   6  5754.2   336.9   1-0.70177 0.19082-0.46027 0.06237-0.54375 0.97964  0 118.31 146.27   77.76 118.07 146.48   77.78
  -4  -4   6  4938.2   430.1   2 0.04424-0.55493-0.98733 0.58896-0.15238 0.58752  2 309.65   9.52  119.24 309.82   9.54  119.16
  -4   4   6  5647.7   441.2   2-0.17983-0.33069-0.43285 0.83085 0.88335-0.44758  0 284.85  14.69   45.63 284.99  14.66   45.69
   4  -4  -6  5984.0   327.0   2 0.08313 0.42737 0.35869-0.75682-0.92975 0.49455  0 100.51 189.63  221.00 100.18 189.80  221.06
   4  -4   6  4169.1   306.3   1-0.36718 0.87868-0.86583 0.46773 0.33988 0.09564  0 112.76 358.87  139.56 112.54 358.82  139.61
   4  -4   6  4872.8   281.3   2-0.22719 0.73771 0.00980-0.40780 0.97380-0.53804  0 231.83 482.61   19.44 231.76 482.39   19.42
   4  -4   6  4781.4   250.1   2 0.06047 0.45022-0.96508 0.56670-0.25490 0.69004  0  90.77 248.19  125.08  90.37 248.09  125.22
   4   4  -6  4955.6   402.7   2 0.13315 0.37754-0.39885 0.79677-0.90730 0.47182  0 275.25 499.72  176.58 275.31 499.30  176.47
   4   4  -6  4467.2   271.7   2-0.13546 0.64602 0.98965-0.59134 0.04730-0.48268  0  95.36 210.48  293.73  95.03 210.22  293.62
   4   4   6  5365.9   231.5   2-0.22567 0.73619-0.01211 0.41011 0.97413-0.53837  0  91.10 277.82   20.76  90.88 277.64   20.68
   4   4   6  5248.2   249.2   2-0.11433 0.62489 0.99075-0.59243-0.07309 0.50847  0 203.08 466.14  286.77 202.94 465.79  286.58
  -4  -4  -7 788.492 197.339   1-0.22810-0.28280 0.50492-0.90282-0.83249 0.32396  0  75.02 284.52   10.51  75.38 284.24   10.19
  -4  -4   7 624.743 178.637   1-0.70189 0.19094-0.54173 0.14382-0.46247 0.97101  0 106.37 130.90   84.38 106.30 131.00   84.37
   4  -4  -7 660.642 177.892   2 0.07599 0.43450 0.40775-0.80588-0.90993 0.40219  0  87.33 174.20  224.41  87.16 174.25  224.11
   4  -4   7 559.382 186.070   1-0.35877 0.87028-0.86493 0.46682 0.35098 0.15713  0  90.29 351.26  140.44  90.63 350.99  140.41
   4  -4   7 466.672 134.331   2 0.04422 0.46647-0.98735 0.58898-0.15227 0.65993  0  73.80 242.69  118.95  73.85 242.31  119.16
   4   4  -7 616.282 168.582   2-0.12490 0.63546 0.99207-0.59375-0.01433-0.49361  0  81.19 194.67  289.91  81.17 194.44  290.02
   4   4   7 696.085 128.849   2-0.21814 0.72866-0.10800 0.50600 0.96992-0.46153  0  73.98 271.57   26.35  73.65 271.75   26.20
   4   4   7 613.639 156.368   2-0.13106 0.64162 0.99115-0.59283 0.02125 0.48670  0 200.99 489.34  292.49 201.47 489.30  292.09
  -4  -4  -8  4820.9   376.5   1-0.20993-0.30096 0.52391-0.92181-0.82550 0.24433  0  56.80 296.40    8.65  56.58 296.57    8.63
  -4  -4   8  3996.4   357.0   1-0.69326 0.18231-0.61352 0.21561-0.37812 0.95931  0  92.06 113.04   90.67  91.92 113.31   90.73
   4  -4  -8  4433.4   349.7   2 0.07055 0.43995 0.44349-0.84163-0.89350 0.31323  0  71.29 156.78  226.39  71.49 156.87  226.39
   4  -4   8  3033.4   334.5   1-0.34723 0.85873-0.86340 0.46529 0.36603 0.21466  0  66.58 343.49  141.47  66.48 343.32  141.50
   4  -4   8  3758.7   266.7   2 0.02888 0.48182-0.99784 0.59947-0.05894 0.63913  0  54.26 235.96  113.58  54.19 235.70  113.71
   4   4  -8  3486.1   310.3   2-0.11447 0.62503 0.99079-0.59248-0.07227-0.50824  0  65.13 177.34  286.60  64.75 177.14  286.63
   4   4   8  4248.1   258.3   2-0.21137 0.72189-0.18063 0.57863 0.96057-0.37955  0  53.65 265.48   30.35  53.32 265.38   30.41
  -4  -4  -9  9959.9   495.6   1-0.19725-0.31364 0.53695-0.93485-0.82023 0.16641  0  34.53 310.39    7.56  34.33 310.43    7.55
  -4  -4   9  8659.1   486.6   1-0.67682 0.16588-0.67558 0.27767-0.29242 0.94625  0  74.51  92.36   96.74  74.42  92.56   96.86
   4  -4  -9  8807.6   485.3   2 0.06664 0.44386 0.46843-0.86656-0.88099 0.22818  0  52.88 137.08  228.23  52.59 137.22  228.00
   4  -4   9  7029.0   438.8   1-0.33295 0.84445-0.86117 0.46307 0.38409 0.26919  0  39.75 335.60  142.79  39.27 335.66  142.82
   4  -4   9  7390.8   354.8   2 0.01418 0.49651-0.99955 0.60117 0.02656 0.62615  0  31.24 228.45  108.62  30.82 228.37  108.77
   4   4  -9  7430.5   427.5   2-0.10433 0.61489 0.98633-0.58801-0.12756-0.52551  0  44.91 158.22  283.38  45.10 157.88  283.39
   4   4   9  7998.9   338.5   2-0.20585 0.71637-0.23350 0.63150 0.95032-0.29667  0  29.65 258.76   33.58  29.35 258.73   33.51
  -4  -5   0  -6.435 119.098   1-0.54739 0.03650 0.05119-0.54857-0.83531 0.83531  0 117.00 226.61   43.01 117.44 226.68   42.38
  -4  -5   0 -23.958 162.803   2 0.12440-0.63509-0.63859 0.14119-0.75943 0.75943  0 363.87  43.30  160.71 364.26  42.93  160.29
  -4   5   0  94.396 138.217   1-0.62897 0.11802-0.13499 0.63237-0.76562 0.76562  0 392.90  47.47   54.93 392.79  47.51   54.71
  -4   5   0-148.339 177.933   2-0.23832-0.27220 0.26614 0.23136 0.93401-0.93401  0 328.23  41.62    4.63 328.21  41.66    4.49
   4  -5   0  44.453  83.894   1-0.34133 0.85284-0.86255 0.36492 0.37350-0.37350  0 218.75 441.25  142.00 218.72 441.31  142.05
   4  -5   0  63.250 162.625   2-0.13851 0.64912-0.65290 0.15526 0.74467-0.74467  0 260.36 461.72   60.94 260.29 461.52   60.85
   4  -5   0 -75.123  96.195   2 0.13297 0.37771-0.37434-0.12306-0.91771 0.91771  0 116.31 231.31  178.12 116.08 231.53  178.01
   4   5   0 -17.829  98.156   2 0.07152 0.43898 0.43730 0.06036-0.89647 0.89647  0 228.30 446.75  225.55 228.14 446.99  225.99
   4   5   0 107.171  87.652   2-0.22056 0.73108 0.73690-0.23916 0.63901-0.63901  0 114.37 263.08  331.65 114.39 262.76  331.80
  -4  -5  -1 883.830 176.864   1-0.50601-0.00488 0.12797-0.62534-0.85298 0.78034  0 114.81 236.69   37.27 114.93 236.52   37.28
  -4  -5  -1 825.303 190.584   2 0.13047-0.64116-0.52763 0.03023-0.83939 0.76682  0 370.51  41.50  167.92 370.51  41.85  168.12
  -4  -5   1 978.493 176.462   1-0.58691 0.07602-0.03168-0.46569-0.80903 0.88168  0 118.46 216.62   48.11 117.89 216.65   47.85
  -4  -5   1 659.752 200.686   2 0.11574-0.62643-0.73283 0.23543-0.67049 0.74307  0 356.50  40.58  153.04 356.65  40.38  152.89
  -4   5  -1 862.008 182.126   1-0.67217 0.16122-0.27449 0.77188-0.68763 0.61499  0 422.88  54.94   64.39 422.90  54.64   64.19
  -4   5  -1 934.683 215.711   2-0.23841-0.27215 0.40057 0.09707 0.88471-0.95735  0 333.29  39.79  355.84 333.28  39.84  355.92
  -4   5   1 947.551 121.972   1-0.51536 0.00446 0.11113 0.38624-0.84974 0.92239  0 358.50  40.22   38.75 358.06  40.25   38.40
  -4   5   1 930.234 216.990   2-0.23404-0.27648 0.13528 0.36222 0.96277-0.89014  0 321.77  40.06   11.99 321.77  40.29   12.19
   4  -5  -1 759.194  87.536   1-0.24314 0.75450-0.83809 0.34074 0.48835-0.56091  0 246.34 457.46  150.92 246.08 457.36  150.82
   4  -5  -1 544.393 179.742   2-0.11861 0.62922-0.73510 0.23745 0.66751-0.74007  0 266.26 465.56   67.45 266.32 465.24   67.41
   4  -5  -1 970.323 150.645   2 0.13088 0.37981-0.24148-0.25592-0.96154 0.88896  0 115.74 226.01  185.94 115.63 225.82  186.04
   4  -5   1 735.537 126.848   1-0.38547 0.89698-0.86726 0.36963 0.31507-0.24248  0 196.80 427.55  137.56 196.92 427.82  137.84
   4  -5   1 379.209 152.175   2-0.15764 0.66825-0.55913 0.06149 0.81395-0.74139  0 255.40 461.35   53.95 255.34 461.37   54.07
   4  -5   1 729.885 120.322   2 0.13123 0.37946-0.50584 0.00843-0.85259 0.92517  0 114.58 235.59  169.56 114.33 235.50  169.58
   4   5  -1 763.078 136.053   2 0.09291 0.41759 0.28144 0.21623-0.95507 0.88254  0 234.94 452.29  216.37 234.76 452.18  216.37
   4   5  -1 743.102 119.343   2-0.20989 0.72041 0.81095-0.31320 0.54618-0.61880  0 113.23 255.61  324.77 113.13 255.82  324.90
   4   5   1 822.594 132.674   2 0.04541 0.46509 0.58716-0.08949-0.80820 0.88073  0 222.26 445.73  236.41 222.53 445.64  236.07
   4   5   1 680.344 108.207   2-0.22952 0.74004 0.64505-0.14730 0.72886-0.65624  0 113.46 267.60  339.35 113.27 267.83  339.24
  -4  -5  -2 14357.6   461.5   1-0.46470-0.04619 0.19720-0.69457-0.86323 0.71794  0 110.56 246.34   32.66 110.34 246.32   32.63
  -4  -5  -2 11572.5   389.8   2 0.13313-0.64382-0.40471-0.09269-0.90470 0.75955  0 375.12  36.52  176.15 375.35  36.81  176.11
  -4  -5   2 13458.5   436.9   1-0.62284 0.11189-0.11844-0.37895-0.77333 0.91863  0 116.47 206.29   53.59 116.32 206.28   53.60
  -4  -5   2 11790.0   430.6   2 0.10534-0.61604-0.80862 0.31065-0.57883 0.72387  0 347.51  34.22  145.93 347.81  34.17  145.97
  -4   5  -2 11713.5   401.8   1-0.69041 0.17946-0.36015 0.85754-0.62739 0.48210  0 452.47  60.72   70.09 452.59  61.14   70.27
  -4   5  -2 12168.0   436.6   2-0.23616-0.27436 0.52775-0.03001 0.81591-0.96116  0 336.93  34.11  347.71 336.72  34.38  347.68
  -4   5   2 12115.3   458.8   2-0.22748-0.28305 0.01418 0.48332 0.97368-0.82843  0 313.92  35.46   18.72 313.98  35.79   19.17
   4  -5  -2 10563.1   401.7   2-0.09900 0.60961-0.80436 0.30672 0.58583-0.73096  0 273.26 472.84   73.48 273.37 472.49   73.62
   4  -5  -2 11923.4   363.8   2 0.12565 0.38504-0.11549-0.38191-0.98533 0.84017  0 113.32 218.44  193.33 113.07 218.40  193.39
   4  -5   2  9275.6   307.4   1-0.40682 0.91833-0.86782 0.37019 0.28529-0.14011  0 177.20 416.16  135.67 177.10 416.06  135.74
   4  -5   2 10876.6   345.9   2-0.17592 0.68644-0.45801-0.03949 0.87137-0.72611  0 251.60 465.04   47.11 251.26 464.78   47.30
   4  -5   2 11330.8   333.9   2 0.12515 0.38554-0.62776 0.13036-0.76828 0.91344  0 110.64 237.81  160.83 110.31 237.67  161.09
   4   5  -2 12042.1   352.9   2 0.10869 0.40181 0.13315 0.36451-0.98512 0.84005  0 242.37 461.17  207.60 242.22 460.84  207.66
   4   5  -2 10562.1   314.1   2-0.19827 0.70879 0.86805-0.37031 0.45516-0.60041  0 109.85 247.10  318.96 109.64 247.18  318.66
   4   5   2 11651.7   309.3   2 0.01614 0.49436 0.71807-0.22040-0.69578 0.84085  0 217.85 448.36  246.12 217.93 448.12  246.12
   4   5   2 10325.0   283.8   2-0.23577 0.74629 0.53742-0.03967 0.80969-0.66444  0 109.89 270.79  346.99 109.64 270.86  347.02
  -4  -5  -3  6802.9   349.8   1-0.42530-0.08559 0.25814-0.75551-0.86746 0.64952  0 103.85 256.27   28.45 103.76 256.23   28.46
  -4  -5  -3  4754.3   336.5   2 0.13172-0.64241-0.27713-0.22027-0.95176 0.73402  0 378.61  27.33  183.99 378.72  27.60  183.92
  -4  -5   3  5894.4   320.8   1-0.65334 0.14240-0.20683-0.29055-0.72826 0.94620  0 112.82 195.31   59.51 112.65 195.40   59.55
  -4  -5   3  4549.9   373.0   2 0.09379-0.60449-0.86779 0.36983-0.48799 0.70557  0 337.52  25.01  139.66 337.83  25.08  139.75
  -4   5  -3  5314.1   399.1   1-0.69785 0.18690-0.41407 0.91146-0.58442 0.36648  0 483.57  66.41   73.98 483.65  66.70   74.24
  -4   5  -3  5257.1   377.2   2-0.22970-0.28082 0.64269-0.14494 0.73088-0.94875  0 339.31  25.00  339.47 339.11  25.33  339.42
  -4   5   3  5904.4   406.3   2-0.21955-0.29097-0.09224 0.58975 0.97123-0.75335  0 304.90  27.98   25.04 304.92  28.31   25.29
   4  -5  -3  5312.0   365.0   2-0.08022 0.59083-0.86065 0.36301 0.50283-0.72052  0 281.64 483.45   79.32 281.49 483.35   79.43
   4  -5  -3  5859.2   286.8   2 0.11922 0.39128-0.00182-0.49585-0.99287 0.77526  0 108.83 209.33  199.99 108.45 209.39  199.89
   4  -5   3  4195.8   262.2   1-0.41589 0.92740-0.86771 0.37008 0.27223-0.05447  0 157.96 405.70  134.70 157.89 405.59  134.83
   4  -5   3  5114.5   280.0   2-0.19115 0.70167-0.35353-0.14397 0.91568-0.69780  0 248.39 472.27   40.76 248.16 472.12   40.73
   4  -5   3  4977.6   252.7   2 0.11571 0.39498-0.73310 0.23570-0.67020 0.88794  0 104.19 238.19  152.70 103.92 238.07  152.86
   4   5  -3  5214.6   289.1   2 0.11895 0.39155 0.00208 0.49558-0.99290 0.77530  0 250.71 473.37  199.97 250.49 472.96  200.12
   4   5  -3  4583.8   246.0   2-0.18645 0.69697 0.91082-0.41307 0.36830-0.58618  0 104.32 236.98  313.04 104.07 237.09  312.99
   4   5   3  4878.6   231.0   2-0.01374 0.52430 0.82158-0.32368-0.56993 0.78762  0 214.15 454.86  255.74 214.13 454.56  255.64
   4   5   3  4784.1   217.9   2-0.23826 0.74882 0.41926 0.07837 0.87604-0.65813  0 103.55 271.82  354.80 103.41 271.71  354.74
  -4  -5  -4 21573.5   568.5   1-0.38851-0.12238 0.31006-0.80743-0.86771 0.57713  0  95.26 266.45   24.80  95.04 266.41   24.83
  -4  -5  -4 18060.2   485.6   2 0.12764-0.63833-0.15485-0.34255-0.97966 0.68934  0 380.86  13.75  190.61 380.92  14.03  191.12
  -4  -5   4 18676.9   517.0   1-0.67707 0.16612-0.29452-0.20287-0.67442 0.96501  0 107.05 183.75   65.56 106.83 183.79   65.59
  -4  -5   4 16534.4   546.7   2 0.08182-0.59252-0.91261 0.41465-0.40055 0.69065  0 326.51  12.90  133.81 326.80  12.98  134.13
  -4   5  -4 16301.7   521.1   2-0.22013-0.29038 0.74036-0.24261 0.63515-0.92564  0 340.66  12.08  331.59 340.34  12.42  331.50
  -4   5   4 17876.7   563.9   2-0.21124-0.29929-0.18203 0.67953 0.96034-0.66983  0 294.50  17.53   30.43 294.64  17.89   30.49
   4  -5  -4 -36.690 199.920   2-0.06247 0.57308-0.90498 0.40734 0.42085-0.71110  0 290.59 498.44   84.97 290.75 497.93   84.86
   4  -5  -4 18223.0   471.3   2 0.11179 0.39871 0.09606-0.59373-0.98908 0.69894  0 102.11 198.66  205.58 101.82 198.78  205.51
   4  -5   4 13333.0   416.0   1-0.41729 0.92879-0.86768 0.37005 0.27020 0.02015  0 138.51 396.27  134.64 138.51 396.11  134.69
   4  -5   4 16354.2   423.6   2-0.20376 0.71428-0.25221-0.24529 0.94598-0.65547  0 246.04 483.54   34.68 245.73 483.32   34.62
   4  -5   4 16274.1   406.0   2 0.10371 0.40698-0.81832 0.32036-0.56532 0.85542  0  95.50 236.99  144.59  95.14 236.72  145.02
   4   5  -4 17563.8   513.9   2 0.12534 0.38535-0.10867 0.60608-0.98614 0.69583  0 259.47 489.05  193.70 259.35 488.52  193.78
   4   5  -4 15893.1   420.9   2-0.17456 0.68508 0.94193-0.44418 0.28689-0.57738  0  96.74 225.59  307.91  96.46 225.63  307.91
   4   5   4 17011.1   368.5   2-0.23876 0.74928 0.30149 0.19601 0.92309-0.63258  0  94.73 270.96    2.29  94.38 270.84    2.36
   4   5   4 16026.7   372.1   2-0.04204 0.55260 0.89606-0.39816-0.44194 0.73219  0 211.08 465.59  264.19 211.06 465.25  264.24
  -4  -5  -5  9805.2   420.1   1-0.35622-0.15468 0.35378-0.85116-0.86484 0.50161  0  84.30 277.15   21.93  84.08 277.11   21.71
  -4  -5   5  7869.1   376.8   1-0.69328 0.18233-0.37916-0.11823-0.61286 0.97610  0  98.90 171.09   71.64  98.75 171.21   71.65
   4  -5  -5  8684.8   375.8   2 0.10440 0.40610 0.17741-0.67508-0.97858 0.61591  0  93.29 186.46  210.26  93.07 186.59  210.23
   4  -5   5  6447.6   359.4   1-0.41338 0.92489-0.86776 0.37013 0.27587 0.08707  0 118.63 387.37  135.14 118.36 387.42  135.08
   4  -5   5  7488.4   347.2   2-0.21352 0.72404-0.15872-0.33879 0.96396-0.60082  0 244.07 498.96   29.04 243.77 498.64   29.13
   4  -5   5  7542.0   311.9   2 0.08977 0.42093-0.88438 0.38641-0.45806 0.82067  0  84.12 234.24  137.64  83.76 234.05  137.80
   4   5  -5  7441.4   334.4   2-0.16290 0.67342 0.96389-0.46615 0.21065-0.57377  0  87.00 212.88  303.48  86.76 212.90  303.25
   4   5   5  7628.5   276.4   2-0.23614 0.74666 0.18994 0.30756 0.95298-0.58984  0  83.01 268.71    9.01  82.71 268.57    8.99
   4   5   5  7204.5   295.8   2-0.06718 0.57774 0.94502-0.44712-0.32004 0.68286  0 208.60 480.54  271.91 208.40 480.19  271.88
  -4  -5  -6 248.719 162.388   1-0.32834-0.18255 0.38937-0.88674-0.86057 0.42469  0  70.02 288.54   19.46  70.73 288.48   19.11
  -4  -5   6 -86.867 160.561   1-0.70169 0.19074-0.45892-0.03847-0.54500 0.98089  0  88.24 157.47   77.45  88.28 157.30   77.67
   4  -5  -6 -75.465 164.485   2 0.09739 0.41311 0.24295-0.74062-0.96514 0.52993  0  82.03 172.89  214.46  82.05 172.79  214.07
   4  -5   6  73.856 176.912   1-0.40552 0.91703-0.86781 0.37019 0.28714 0.14838  0  97.26 379.59  135.45  96.92 379.35  135.87
   4  -5   6  16.500 127.750   2 0.07503 0.43566-0.93258 0.43461-0.35309 0.78823  0  69.20 230.40  130.86  69.69 230.12  131.17
   4   5  -6 223.030 149.340   2-0.15105 0.66161 0.97854-0.48064 0.14017-0.57555  0  74.90 198.69  299.28  74.86 198.60  299.09
   4   5   6 190.458 108.916   2-0.23186 0.74238 0.09117 0.40633 0.96847-0.53270  0  68.18 265.40   14.47  68.21 265.08   14.73
   4   5   6 173.311 133.496   2-0.08928 0.59985 0.97414-0.47624-0.20757 0.64295  0 205.95 499.48  278.43 205.72 499.53  278.67
  -4  -5  -7  7403.5   443.4   1-0.30535-0.20554 0.41759-0.91497-0.85579 0.34726  0  54.68 300.92   17.18  54.63 300.90   17.01
  -4  -5   7  5979.8   388.5   1-0.70235 0.19141-0.53253 0.03515-0.47235 0.98088  0  75.44 141.63   83.51  75.09 141.62   83.59
   4  -5  -7  6743.6   402.6   2 0.09131 0.41918 0.29452-0.79219-0.95127 0.44354  0  68.67 156.99  216.99  68.50 157.15  217.15
   4  -5   7  4358.8   396.8   1-0.39450 0.90600-0.86765 0.37002 0.30258 0.20553  0  73.74 371.92  136.77  73.60 371.77  136.96
   4  -5   7  5626.9   320.7   2 0.06014 0.45055-0.96565 0.46769-0.25278 0.76044  0  52.95 225.34  125.00  52.54 225.09  125.09
   4   5  -7  5123.3   351.2   2-0.13982 0.65038 0.98749-0.48960 0.07283-0.58077  0  60.44 183.23  295.26  60.39 182.98  295.12
   4   5   7  5774.4   283.7   2-0.22703 0.73755 0.00826 0.48924 0.97385-0.46546  0  50.90 260.80   19.57  50.62 260.71   19.51
  -4  -5  -8  3550.5   367.4   1-0.28720-0.22370 0.43910-0.93648-0.85130 0.27012  0  35.35 314.84   15.40  35.27 314.73   15.38
  -4  -5   8  3355.0   362.1   1-0.69582 0.18488-0.59897 0.10158-0.39631 0.97750  0  59.01 123.59   89.38  58.93 123.66   89.39
   4  -5  -8  3185.9   369.3   2 0.08643 0.42407 0.33407-0.83174-0.93858 0.35831  0  52.81 139.25  219.62  51.90 139.26  219.55
   4  -5   8  2072.3   299.8   1-0.38087 0.89237-0.86698 0.36935 0.32137 0.25932  0  48.00 364.55  138.29  47.69 364.54  138.29
   4   5  -8  3261.8   344.2   2-0.12892 0.63948 0.99162-0.49372 0.00882-0.58933  0  42.62 165.78  291.42  42.84 165.54  291.37
   4   5   8  3345.7   264.0   2-0.22228 0.73280-0.05854 0.55604 0.97322-0.39221  0  29.82 255.56   23.40  29.50 255.67   23.35
  -4  -6   0 41854.4   789.1   1-0.58139 0.07050-0.01942-0.57743-0.81339 0.81339  0  89.93 239.39   46.99  89.70 239.32   47.04
  -4   6   0 39726.9   565.1   1-0.54956 0.03866 0.04667 0.55018-0.83415 0.83415  2 411.77   8.69   42.75 411.91   9.08   42.67
   4  -6   0 29726.8   435.3   1-0.40880 0.92030-0.86781 0.27066 0.28246-0.28246  0 204.52 469.31  135.35 204.49 469.20  135.54
   4  -6   0 33318.2   675.9   2-0.14171 0.65232-0.63805 0.04088 0.75684-0.75684  2 274.32 502.33   59.65 274.31 502.01   59.73
   4  -6   0 35745.5   632.3   2 0.13313 0.37756-0.40300-0.19388-0.90546 0.90546  0  93.32 210.28  176.13  93.01 210.13  176.21
   4   6   0 34983.9   588.6   2 0.06825 0.44225 0.45845 0.13875-0.88610 0.88610  0 235.14 487.17  227.16 235.08 486.79  227.35
   4   6   0 30985.2   539.3   2-0.22376 0.73428 0.70807-0.11078 0.66975-0.66975  0  88.74 245.51  334.35  88.48 245.71  334.24
  -4  -6  -1  1062.2   196.7   1-0.54819 0.03730 0.04936-0.64621-0.83489 0.76225  0  87.93 249.53   42.51  87.83 249.68   42.49
  -4  -6   1  1037.3   193.6   1-0.61267 0.10172-0.09261-0.50426-0.78489 0.85754  0  89.61 229.16   51.63  89.42 228.85   51.89
  -4   6  -1  1306.4   243.8   1-0.61592 0.10497-0.10081 0.69767-0.78133 0.70868  0 444.94  15.91   52.52 445.07  15.78   52.44
   4  -6  -1 766.197 106.716   1-0.34626 0.85776-0.86329 0.26613 0.36721-0.43979  0 232.71 487.45  141.85 232.35 487.07  141.59
   4  -6  -1  1160.8   184.7   2 0.13204 0.37865-0.29322-0.30367-0.94688 0.87431  0  92.82 204.50  183.05  92.88 204.68  182.96
   4  -6   1 735.796 141.178   1-0.43655 0.94806-0.86663 0.26948 0.24159-0.16900  0 181.90 454.45  132.61 181.89 454.43  132.71
   4  -6   1 818.807 261.287   2-0.15798 0.66858-0.55732-0.03985 0.81513-0.74257  2 269.02 502.36   53.91 269.13 502.22   53.94
   4  -6   1  1225.7   172.0   2 0.13091 0.37978-0.51251-0.08437-0.84864 0.92122  0  91.08 214.13  169.00  90.94 214.01  169.14
   4   6  -1 845.608 173.987   2 0.08655 0.42395 0.33318 0.26402-0.93888 0.86635  0 241.29 491.65  219.56 241.60 491.60  219.50
   4   6  -1 832.282 141.386   2-0.21524 0.72576 0.77711-0.17982 0.59141-0.66403  0  87.52 239.31  328.38  87.68 239.27  328.19
   4   6   1 755.701 155.838   2 0.04682 0.46368 0.57995 0.01725-0.81330 0.88584  0 229.21 485.90  235.62 229.32 485.82  235.56
   4   6   1 835.898 143.184   2-0.23078 0.74130 0.62814-0.03085 0.74309-0.67046  0  87.19 250.40  340.62  86.98 250.57  340.51
  -4  -6  -2 262.585 168.862   1-0.51454 0.00365 0.11260-0.70945-0.85004 0.70475  0  83.97 260.15   39.12  83.88 260.07   38.30
  -4  -6   2 438.040 188.311   1-0.64089 0.12994-0.16849-0.42837-0.74892 0.89421  0  87.04 218.17   56.49  87.04 218.11   56.96
  -4   6  -2 560.069 274.155   1-0.65153 0.14058-0.20100 0.79787-0.73151 0.58621  0 477.94  21.53   60.51 477.98  21.63   59.15
   4  -6  -2 488.590 155.665   2 0.12912 0.38157-0.18727-0.40961-0.97379 0.82863  0  90.13 197.75  188.94  90.52 197.58  189.22
   4  -6   2 206.816 141.634   1-0.44869 0.96020-0.86542 0.26826 0.22301-0.07783  0 160.99 441.66  131.33 161.19 441.78  131.44
   4  -6   2 360.724 135.403   2 0.12591 0.38478-0.61596 0.01908-0.77765 0.92281  0  86.73 216.23  162.11  86.61 216.27  161.95
   4   6  -2 486.129 175.823   2 0.10077 0.40973 0.21215 0.38505-0.97203 0.82696  0 249.28 500.19  211.89 248.85 500.12  212.26
   4   6  -2 644.243 137.889   2-0.20559 0.71611 0.83451-0.23722 0.51119-0.65644  0  84.47 231.10  322.54  84.53 231.31  322.45
   4   6   2 450.006 149.516   2 0.02293 0.48757 0.69044-0.09324-0.72302 0.86809  0 225.02 488.60  243.49 224.28 488.65  243.86
   4   6   2 497.252 123.851   2-0.23569 0.74621 0.53934 0.05796 0.80843-0.66319  0  83.17 253.65  347.08  83.02 253.73  346.89
  -4  -6  -3 510.873 176.528   1-0.48180-0.02909 0.16947-0.76632-0.85974 0.64180  0  77.67 270.46   35.13  77.68 270.70   34.50
  -4  -6   3 269.174 163.338   1-0.66459 0.15364-0.24568-0.35119-0.70567 0.92361  0  82.11 206.98   63.13  82.43 206.87   62.20
   4  -6  -3 307.096 160.060   2 0.12432 0.38637-0.08978-0.50710-0.98817 0.77044  0  86.04 188.93  194.46  86.04 188.88  194.87
   4  -6   3 187.058 157.090   1-0.45195 0.96346-0.86501 0.26785 0.21794-0.00018  0 141.04 430.50  130.95 141.02 430.69  131.10
   4  -6   3 269.187 137.432   2 0.11835 0.39234-0.70898 0.11210-0.69523 0.91297  0  79.93 216.78  154.34  79.88 216.92  154.84
   4   6  -3 270.610 128.595   2-0.19516 0.70567 0.88075-0.28346 0.43149-0.64936  0  79.44 221.80  317.08  79.15 221.84  317.07
   4   6   3  99.591 144.292   2-0.00181 0.51237 0.78418-0.18670-0.62054 0.83823  0 219.93 495.33  251.51 219.76 495.45  251.98
   4   6   3 291.524 109.793   2-0.23790 0.74845 0.44492 0.15224 0.86340-0.64548  0  76.54 255.38  352.93  76.57 255.10  353.08
  -4  -6  -4 -91.193 156.392   1-0.45075-0.06014 0.21929-0.81615-0.86529 0.57471  0  68.56 281.98   31.52  69.18 281.78   31.12
  -4  -6   4-116.822 159.679   1-0.68316 0.17221-0.32213-0.27473-0.65538 0.94597  0  75.76 194.94   67.59  75.56 194.94   67.54
   4  -6  -4-221.781 139.666   2 0.11930 0.39120-0.00294-0.59426-0.99285 0.70272  0  79.69 178.54  199.65  79.28 178.51  199.83
   4  -6   4  26.317 153.829   1-0.44943 0.96093-0.86533 0.26817 0.22187 0.06848  0 120.67 420.39  132.34 120.55 420.85  131.36
   4  -6   4  12.682 130.919   2 0.10843 0.40226-0.78859 0.19103-0.60528 0.89537  0  71.01 215.89  148.05  70.68 215.96  147.86
   4   6  -4  60.294 133.745   2-0.18434 0.69486 0.91703-0.31973 0.35367-0.64416  0  71.17 211.19  311.99  71.53 210.91  312.07
  -4  -6  -5 182.053 180.994   1-0.42260-0.08829 0.26212-0.85897-0.86758 0.50435  0  58.18 293.68   28.41  58.28 293.51   28.19
  -4  -6   5  44.679 188.024   1-0.69572 0.18477-0.39658-0.20029-0.59892 0.96216  0  66.22 181.94   72.54  66.23 181.99   72.94
   4  -6  -5 304.011 178.999   2 0.11372 0.39678 0.07205-0.66925-0.99090 0.62823  0  69.86 166.33  203.98  70.21 166.39  204.13
   4  -6   5 136.993 183.409   1-0.44274 0.95425-0.86607 0.26891 0.23218 0.13075  0  99.13 411.77  133.29  99.13 412.03  132.06
   4  -6   5 423.485 153.613   2 0.09681 0.41388-0.85425 0.25669-0.51077 0.87339  0  58.46 213.96  141.54  58.70 213.78  141.27
   4   6  -5 260.017 156.593   2-0.17330 0.68382 0.94466-0.34737 0.27854-0.64166  0  61.22 198.76  307.52  61.50 198.53  307.38
   4   6   5 217.914 120.832   2-0.23821 0.74873 0.26209 0.33491 0.93518-0.57204  0  54.76 254.58    4.36  55.24 253.87    4.72
  -4  -6  -6  2170.9   286.8   1-0.39745-0.11345 0.29783-0.89468-0.86795 0.43207  0  44.80 306.16   25.65  44.64 306.18   25.69
  -4  -6   6  2084.1   278.7   1-0.70214 0.19120-0.46746-0.12940-0.53710 0.97298  0  54.12 167.55   78.41  54.24 167.67   78.34
   4  -6  -6  2048.0   276.5   2 0.10851 0.40199 0.13510-0.73230-0.98487 0.54967  0  58.88 152.03  207.70  58.54 152.31  207.77
   4  -6   6  1114.1   245.6   1-0.43282 0.94433-0.86692 0.26977 0.24720 0.18832  0  76.18 404.18  133.45  76.12 404.07  133.10
   4  -6   6  1682.4   232.5   2 0.08381 0.42689-0.90598 0.30842-0.41494 0.85009  0  43.87 210.33  135.10  43.75 210.33  135.02
   4   6  -6  1904.7   257.5   2-0.16222 0.67274 0.96494-0.36765 0.20633-0.64208  0  48.80 184.43  302.67  48.84 184.56  302.99
   4   6   6  1402.8   178.7   2-0.23579 0.74631 0.18044 0.41656 0.95491-0.51914  0  40.21 251.40    9.70  40.02 251.53    9.55
  -4  -6  -7  1120.7   263.8   1-0.37617-0.13472 0.32694-0.92379-0.86695 0.35842  0  28.32 320.01   23.55  27.83 320.23   23.63
  -4  -6   7 763.631 246.261   1-0.70229 0.19135-0.53383-0.06303-0.47096 0.97950  0  39.39 151.64   84.19  39.13 151.51   83.70
   4  -6  -7 917.497 250.860   2 0.10347 0.40703 0.18646-0.78366-0.97700 0.46926  0  44.42 136.14  210.72  43.87 136.09  210.76
   4  -6   7 524.041 239.341   1-0.42025 0.93175-0.86760 0.27044 0.26584 0.24227  0  50.83 396.83  134.37  50.84 396.84  134.39
   4  -6   7 741.510 205.420   2 0.07022 0.44048-0.94472 0.34716-0.32026 0.82792  0  25.26 205.83  129.50  25.36 205.68  129.15
   4   6  -7 784.149 228.705   2-0.15069 0.66125 0.97890-0.38142 0.13801-0.64596  0  33.09 168.52  298.77  33.24 168.54  298.97
   4   6   7 854.005 170.521   2-0.23277 0.74329 0.10937 0.48763 0.96636-0.45797  0  20.88 248.63   13.50  21.32 248.30   13.68
  -4  -7   0 143.826 170.116   1-0.61064 0.09970-0.08756-0.60878-0.78705 0.78705  0  57.44 253.09   51.46  56.99 253.24   51.56
   4  -7   0-326.178 146.850   2 0.13273 0.37796-0.43810-0.25826-0.88907 0.88907  0  65.40 186.76  173.55  65.06 186.88  174.00
   4   7   0 -49.571 133.799   2-0.22463 0.73515 0.70000-0.00315 0.67790-0.67790  0  57.83 228.37  334.85  57.60 228.18  334.91
  -4  -7  -1  2162.9   273.5   1-0.58437 0.07348-0.02600-0.67032-0.81107 0.73842  0  55.77 264.31   47.47  55.66 264.33   47.47
  -4  -7   1  2622.5   311.2   1-0.63520 0.12426-0.15233-0.54402-0.75718 0.82982  0  56.29 242.34   55.77  56.05 242.14   55.87
   4  -7  -1  2394.2   289.0   2 0.13276 0.37793-0.34502-0.35134-0.92916 0.85658  0  65.54 181.39  179.89  65.09 181.40  179.81
   4  -7   1  1265.2   194.2   1-0.46713 0.97864-0.86267 0.16599 0.19388-0.12129  0 162.60 488.11  129.46 162.70 487.99  129.46
   4  -7   1  2044.0   234.7   2 0.13035 0.38034-0.53091-0.16546-0.83735 0.90992  0  62.90 190.75  168.03  62.69 190.79  167.90
   4   7  -1  1800.4   213.5   2-0.21736 0.72788 0.76203-0.06518 0.60998-0.68260  0  57.35 221.76  329.77  56.99 221.89  329.58
   4   7   1  1523.3   192.1   2-0.23058 0.74110 0.63094 0.06590 0.74078-0.66815  0  55.79 232.83  340.41  55.73 233.07  340.30
  -4  -7  -2  7220.9   418.0   1-0.55726 0.04637 0.03125-0.72758-0.82975 0.68445  0  52.25 275.66   43.75  51.99 275.59   43.69
  -4  -7   2  7775.4   419.9   1-0.65707 0.14613-0.21915-0.47719-0.72127 0.86656  0  52.83 230.86   60.36  52.78 230.82   60.39
   4  -7  -2  7500.5   393.4   2 0.13119 0.37950-0.25465-0.44172-0.95809 0.81294  0  62.78 174.35  185.24  62.78 174.29  185.26
   4  -7   2  4279.8   329.1   1-0.47414 0.98565-0.86132 0.16464 0.18253-0.03735  0 140.84 473.91  128.62 140.74 474.06  128.69
   4  -7   2  6151.2   350.1   2 0.12566 0.38503-0.61988-0.07648-0.77457 0.91973  0  58.34 193.09  161.64  57.86 193.16  161.67
   4   7  -2  6368.1   338.7   2-0.20899 0.71951 0.81601-0.11917 0.53894-0.68418  0  54.20 213.89  324.65  53.92 214.12  324.39
   4   7   2  6388.4   318.0   2-0.23496 0.74548 0.55661 0.14023 0.79686-0.65161  0  51.55 236.29  345.86  51.31 236.46  345.69
  -4  -7  -3  9947.0   469.0   1-0.53048 0.01959 0.08355-0.77987-0.84357 0.62563  0  45.97 287.28   40.20  45.99 287.23   40.23
  -4  -7   3  8623.7   466.4   1-0.67526 0.16431-0.28692-0.40942-0.67948 0.89743  0  47.39 219.10   64.97  47.07 219.03   65.06
   4  -7  -3  9009.2   443.6   2 0.12829 0.38240-0.16989-0.52647-0.97708 0.75934  0  58.12 165.55  189.98  58.05 165.48  190.24
   4  -7   3  5445.6   363.9   1-0.47422 0.98572-0.86131 0.16463 0.18240 0.03536  0 119.40 462.40  128.66 119.22 462.13  128.69
   4  -7   3  8186.3   399.2   2 0.11907 0.39162-0.70178 0.00541-0.70238 0.92011  0  50.89 194.13  155.16  50.50 193.98  155.42
   4   7  -3  7658.9   371.1   2-0.19978 0.71030 0.86169-0.16485 0.46645-0.68432  0  48.57 204.68  319.65  48.35 204.85  319.41
   4   7   3  8372.6   355.2   2-0.23694 0.74750 0.47871 0.21798 0.84540-0.62748  0  44.53 238.20  350.92  44.32 238.24  350.86
  -4  -7  -4  2600.3   311.5   1-0.50472-0.00617 0.13023-0.82656-0.85340 0.56282  0  37.26 299.78   37.26  37.37 299.51   37.13
  -4  -7   4  1843.8   277.1   1-0.68938 0.17843-0.35414-0.34220-0.63194 0.92253  0  39.03 206.61   70.14  38.89 206.53   69.83
   4  -7  -4  2092.1   280.7   2 0.12449 0.38620-0.09282-0.60354-0.98787 0.69756  0  51.15 154.88  194.53  50.86 154.89  194.70
   4  -7   4  1098.4   251.2   1-0.46957 0.98108-0.86222 0.16554 0.18995 0.10040  0  97.49 451.21  129.01  97.21 451.82  129.20
   4  -7   4  1994.9   256.1   2 0.11052 0.40017-0.77430 0.07715-0.62309 0.91319  0  40.38 193.46  149.02  40.42 193.21  149.18
   4   7  -4  1699.3   238.0   2-0.18998 0.70050 0.89934-0.20250 0.39383-0.68432  0  40.63 193.72  314.71  40.25 194.07  314.63
   4   7   4  2043.6   252.0   2-0.23840 0.74896 0.40202 0.29467 0.88405-0.59349  0  35.02 238.82  356.07  34.33 238.96  355.83
  -4  -7  -5 26156.1   728.6   1-0.48075-0.03014 0.17103-0.86735-0.86001 0.49678  0  26.07 312.84   34.39  25.93 312.74   34.40
  -4  -7   5 23279.3   683.9   1-0.69850 0.18755-0.42006-0.27629-0.57936 0.94260  0  28.09 192.99   74.67  27.86 192.98   74.69
   4  -7  -5 22842.0   660.6   2 0.12046 0.39023-0.02448-0.67188-0.99242 0.62952  0  41.31 142.15  198.59  40.91 142.29  198.62
   4  -7   5 14849.1   561.7   1-0.46141 0.97292-0.86364 0.16696 0.20306 0.15987  0  74.21 442.86  129.69  73.96 442.88  130.08
   4  -7   5 22484.1   607.8   2 0.10040 0.41030-0.83655 0.13939-0.53862 0.90123  0  27.55 191.61  142.62  27.28 191.26  143.17
   4   7  -5 21298.6   613.8   2-0.17980 0.69032 0.92953-0.23269 0.32195-0.68507  0  29.57 181.47  310.29  29.34 181.63  310.08
  -4  -8   0  6602.2   472.2   1-0.63571 0.12477-0.15378-0.64204-0.75645 0.75645  0  17.20 269.39   56.13  17.14 269.36   55.97
   4  -8   0  6823.2   431.8   2 0.13198 0.37871-0.47708-0.31876-0.86889 0.86889  0  29.67 160.63  171.48  29.93 160.46  171.47
   4   8   0  5094.7   361.9   2-0.22403 0.73455 0.70544 0.09095 0.67243-0.67243  0  19.30 209.35  334.56  19.25 209.50  334.46
  -5   0   0 193.246 100.028   1-0.31931-0.31931 0.40063-0.40063-0.85880 0.85880  0 188.63 134.38   18.44 188.51 134.18   18.28
  -5   0   0  92.237 148.212   1-0.31969-0.31969-0.85870 0.85870 0.40055-0.40055  0 435.05 106.66  144.67 435.36 106.56  144.04
  -5   0  -1 436.658 126.702   1-0.22871-0.40990 0.50426-0.50426-0.83271 0.76007  0 177.50 144.68   10.03 177.54 144.81   10.25
  -5   0  -1 361.052 174.309   1-0.36302-0.27636-0.86540 0.86540 0.34539-0.41797  0 451.93 116.21  140.36 452.09 116.35  140.01
  -5   0   1 436.232 111.162   1-0.42214-0.21648 0.26281-0.26281-0.86760 0.94025  0 198.30 122.91   27.96 198.21 122.72   28.14
  -5   0   1 242.310 140.280   1-0.27198-0.36741-0.84708 0.84708 0.45660-0.38401  0 421.19  95.88  148.62 421.12  95.70  148.31
  -5   0   1 395.279  55.159   2-0.21350-0.42465-0.15891 0.15891 0.96393-0.89130  0 454.85 119.56   29.25 455.08 119.59   29.14
  -5   0   1 370.904  52.555   2-0.23404-0.40411 0.57561-0.57561 0.78352-0.71089  0 487.45 155.59  344.90 487.66 156.09  344.35
  -5   0  -2 162.771 119.152   1-0.15372-0.48490 0.57932-0.57932-0.80048 0.65518  0 165.18 154.65    3.52 165.35 154.75    3.88
  -5   0  -2   4.065 180.382   1-0.40238-0.23700-0.86779 0.86779 0.29160-0.43678  0 471.58 125.51  136.78 471.51 125.41  136.18
  -5   0   2  39.107  83.375   1-0.52801-0.11061 0.08817-0.08817-0.84465 0.98995  0 206.51 110.00   40.16 206.52 110.25   39.93
  -5   0   2  -8.747 126.907   1-0.21945-0.41976-0.82943 0.82943 0.51371-0.36858  0 409.09  83.06  152.36 409.22  83.60  152.86
  -5   0   2   1.058  86.527   2-0.15373-0.48453-0.57997 0.57997 0.80001-0.65488  0 428.20  93.14   55.33 428.03  93.38   55.52
   5   0  -2  38.774  29.667   2 0.13289 0.50547-0.43242 0.43242-0.89183 0.74667  0 171.46 370.89  174.56 171.50 370.95  174.35
   5   0  -2  23.647  29.445   2 0.11091 0.52721 0.10609-0.10609-0.98815 0.84308  0 151.49 337.90  206.51 151.69 338.29  206.09
  -5   0  -3 46469.4   717.1   1-0.43820-0.20118-0.86649 0.86649 0.23909-0.45685  0 493.68 133.77  132.59 494.00 133.84  132.54
  -5   0   3 50317.9   525.8   1-0.62112-0.01756-0.11385 0.11385-0.77540 0.99334  0 213.24  96.31   53.12 213.19  96.45   53.31
  -5   0   3 45788.7   526.6   1-0.16221-0.47700-0.80476 0.80476 0.57100-0.35331  0 399.61  69.56  157.93 399.93  69.86  157.72
  -5   0   3 46654.0   495.9   2-0.12278-0.51548-0.71857 0.71857 0.68453-0.46685  0 408.40  73.14   65.93 408.64  73.36   66.03
   5   0  -3 44246.3   405.1   2 0.11854 0.51982-0.70710 0.70710-0.69710 0.47937  0 191.51 403.02  154.87 191.27 402.67  154.99
   5   0  -3 51408.7   433.3   2 0.06149 0.57664 0.49947-0.49947-0.86415 0.64655  0 133.65 308.09  230.05 133.67 308.05  230.03
  -5   0   4-131.124  71.398   1-0.68335 0.04466-0.32305 0.32305-0.65474 0.94533  0 218.26  80.51   68.09 217.92  81.17   67.60
  -5   0   4  58.896 135.281   1-0.10099-0.53822-0.77279 0.77279 0.62658-0.33632  0 393.38  53.99  162.93 393.32  53.93  162.80
  -5   0   4-141.913 133.421   2-0.10565-0.53261-0.78176 0.78176 0.61457-0.32432  0 391.37  53.81   71.51 391.43  53.78   71.50
   5   0  -4  73.398  81.919   2 0.10876 0.52960-0.78639 0.78639-0.60809 0.31799  0 204.74 426.48  148.11 204.93 426.57  148.07
   5   0  -4 -24.978  61.107   2 0.03501 0.60311 0.63732-0.63732-0.76981 0.47967  0 120.69 287.25  240.23 120.48 287.73  239.74
  -5   0  -5  6402.8   159.1   2 0.05349-0.69161 0.54483-0.54483-0.83684 0.47417  0 489.90  80.90  233.03 489.76  81.07  233.11
  -5   0   5  6621.5   211.4   1-0.70298 0.06430-0.51268 0.51268-0.49293 0.85617  0 220.67  63.82   81.93 220.58  63.99   81.96
  -5   0   5  6136.3   273.2   1-0.03740-0.60181-0.73356 0.73356 0.67860-0.31578  0 389.48  35.11  168.13 389.68  35.24  168.02
  -5   0   5  5763.6   336.3   2-0.09620-0.54206-0.81348 0.81348 0.57358-0.21077  0 375.35  32.87   74.34 375.27  33.17   74.51
   5   0  -5  5858.2   254.3   2 0.10323 0.53513-0.82103 0.82103-0.56148 0.19886  0 217.56 450.95  144.69 217.17 450.59  144.74
   5   0  -5  6263.2   234.7   2 0.01935 0.61877 0.70526-0.70526-0.70868 0.34601  0 107.68 269.74  245.10 107.35 269.68  245.06
   5   0   5  6758.2   335.5   1 0.01541 0.62380-0.69655 0.69655 0.71734-0.35453  0 121.64 335.10  172.34 121.23 335.00  172.33
  -5   0  -6  51.760 124.849   2 0.02136-0.65948 0.69700-0.69700-0.71675 0.28155  0 477.77  43.20  244.53 478.14  43.22  244.39
  -5   0   6  46.655  91.946   1-0.68124 0.04256-0.66208 0.66208-0.31233 0.74822  0 221.07  44.42   95.54 221.00  44.49   95.46
  -5   0   6 262.668 220.252   2-0.09126-0.54700-0.82900 0.82900 0.55175-0.11637  0 359.47  10.64   76.40 359.56  10.71   76.07
   5   0  -6  56.369 129.364   2 0.10039 0.53798-0.83659 0.83659-0.53855 0.10341  0 228.51 476.37  143.28 228.81 476.52  143.16
   5   0  -6  79.449  95.265   2 0.01007 0.62805 0.74169-0.74169-0.67066 0.23546  0  93.42 252.49  248.80  93.22 252.33  248.13
   5   0   6 -87.745 136.025   1-0.00885 0.64806-0.71417 0.71417 0.69991-0.26453  0 103.19 326.65  171.14 103.47 326.49  170.34
  -5   0   7  9100.7   252.5   1-0.62975-0.00963-0.76478 0.76478-0.13611 0.64422  0 219.20  21.59  107.47 219.25  21.70  107.55
   5   0  -7  9141.7   341.0   2 0.00488 0.63332 0.76097-0.76097-0.64877 0.14083  0  77.69 235.05  249.77  77.52 234.87  249.85
   5   0   7  7863.7   412.6   1-0.02519 0.66440-0.72540 0.72540 0.68787-0.17993  0  84.00 318.12  169.02  83.69 317.96  169.01
   5   0   7  8253.5   168.2   2-0.23638 0.87453 0.19729-0.19729 0.95142-0.44303  0 133.58 423.13    8.71 133.66 423.05    8.56
   5   0   7  8576.4   165.7   2-0.17821 0.81636-0.44344 0.44344 0.87841-0.37002  0  94.68 354.43   46.62  94.56 354.67   46.36
   5   0  -8 -43.939 132.609   2 0.00243 0.63577 0.76970-0.76970-0.63840 0.05789  0  59.01 217.23  250.34  59.53 216.99  250.64
   5   0   8 -19.999 167.692   1-0.03485 0.67406-0.73187 0.73187 0.68055-0.10004  0  60.85 309.30  168.28  61.44 309.27  168.23
   5   0   8  96.258  79.285   2-0.15785 0.79611-0.55800 0.55800 0.81469-0.23419  0  67.48 338.43   54.17  67.64 338.72   53.99
   5   0  -9 350.902 176.551   2 0.00197 0.63623 0.77132-0.77132-0.63645-0.01663  0  38.82 197.85  251.03  38.55 198.06  250.79
   5   0   9 492.964 207.487   1-0.03891 0.67811-0.73455 0.73455 0.67744-0.02437  0  36.53 300.21  168.14  36.03 300.17  167.90
   5   0   9 623.143 116.766   2-0.14927 0.78753-0.60214 0.60214 0.78431-0.13125  0  40.26 327.77   57.33  40.21 328.34   57.10
   5   0   9 637.774 146.734   2-0.23811 0.87631 0.43008-0.43008 0.87082-0.21707  0 133.33 497.06  354.02 133.16 497.20  354.04
  -5  -1   0 -20.274  99.764   1-0.37767-0.26095 0.32491-0.42439-0.86706 0.86706  0 173.32 148.71   24.30 173.18 148.54   23.77
  -5  -1   0-123.774 152.156   1-0.19953-0.43968-0.82135 0.72188 0.53439-0.53439  0 459.03 119.32  154.62 458.87 119.69  154.57
  -5   1   0  16.967  86.493   1-0.25253-0.38609 0.47847-0.37899-0.84101 0.84101  0 201.39 118.10   12.45 201.48 118.21   12.31
  -5   1   0  -6.862 134.712   1-0.46186-0.17752-0.86356 0.96309 0.20235-0.20235  0 416.50  91.38  131.55 416.48  91.42  130.03
  -5   1   0  -5.384  38.393   2-0.18327-0.45488 0.92034-0.82079 0.34553-0.34553  0 484.72 148.92  311.53 484.69 148.91  311.55
  -5   1   0   1.397  39.441   2-0.23226-0.40589 0.60630-0.50675 0.76056-0.76056  0 462.38 123.90  342.66 462.80 124.19  342.13
  -5  -1  -1 848.518 146.129   1-0.30002-0.33860 0.42397-0.52344-0.85454 0.78189  0 164.70 158.81   16.55 164.49 158.79   16.53
  -5  -1  -1 938.366 208.507   1-0.25448-0.38472-0.84186 0.74239 0.47593-0.54850  0 472.92 130.31  149.80 472.98 130.31  149.84
  -5  -1   1  1127.1   149.6   1-0.46108-0.17754 0.20304-0.30252-0.86382 0.93646  0 180.14 137.51   32.28 180.19 137.60   32.23
  -5  -1   1 745.844 175.340   1-0.14077-0.49844-0.79421 0.69474 0.59111-0.51854  0 447.50 108.35  160.35 447.78 108.17  159.51
  -5  -1   1 770.906  79.134   2-0.23035-0.40780 0.06350-0.16300 0.97103-0.89841  0 490.61 153.20   16.54 490.86 153.42   16.34
  -5  -1   1 856.008  80.986   2-0.14722-0.49104-0.61230 0.51277 0.77680-0.70424  0 458.83 117.85   58.14 459.23 118.11   57.83
  -5   1  -1 951.572 137.021   1-0.14951-0.48911 0.58326-0.48379-0.79841 0.72576  0 187.72 129.19    3.60 187.60 129.45    3.53
  -5   1  -1 931.873 176.187   1-0.48413-0.15525-0.85910 0.95862 0.16603-0.23862  0 436.69 100.45  127.65 436.64 100.48  127.58
  -5   1   1  1028.7   119.4   1-0.37965-0.25897 0.32222-0.22275-0.86720 0.93985  0 214.99 105.82   23.90 214.99 105.85   23.96
  -5   1   1 710.543 139.510   1-0.43950-0.19989-0.86638 0.96590 0.23713-0.16454  0 397.65  81.60  132.48 397.86  81.43  132.40
  -5   1   1 867.463  93.597   2-0.22452-0.41363-0.02827 0.12777 0.97406-0.90143  0 436.46 101.06   21.90 436.83 101.20   21.61
  -5   1   1 720.782  87.490   2-0.15869-0.47946 0.96999-0.87044 0.18421-0.11158  2 504.15 177.78  302.15 505.08 178.15  301.67
  -5  -1  -2 14160.4   394.4   1-0.23188-0.40673 0.50087-0.60034-0.83388 0.68859  0 154.27 168.39   10.50 154.24 168.49   10.52
  -5  -1  -2 10889.7   412.3   1-0.30550-0.33388-0.85579 0.75626 0.41749-0.56266  0 489.86 140.08  145.35 490.22 140.18  145.32
  -5  -1   2 12913.3   332.4   1-0.54332-0.09529 0.05914-0.15861-0.83744 0.98273  0 185.46 125.69   41.93 185.43 125.83   41.85
  -5  -1   2 11530.6   370.2   1-0.07908-0.56013-0.75994 0.66047 0.64517-0.50004  0 439.53  95.08  164.75 439.73  95.23  164.61
  -5  -1   2 10979.8   229.0   2-0.08954-0.54871-0.83401 0.73448 0.54443-0.39931  0 431.37  90.84   76.31 431.47  90.96   76.57
  -5   1  -2 10672.6   388.9   1-0.50589-0.13350-0.85296 0.95249 0.12858-0.27376  0 458.59 108.61  124.86 458.79 108.70  125.08
  -5   1   2 13163.3   258.9   1-0.52059-0.11803 0.10183-0.00236-0.84771 0.99301  0 228.36  91.98   38.99 228.28  92.19   39.02
  -5   1   2 10700.8   274.0   1-0.41780-0.22159-0.86766 0.96719 0.26946-0.12429  0 380.26  70.16  134.82 380.34  70.30  134.64
  -5   1   2 11442.6   259.9   2-0.19076-0.44739-0.35647 0.45597 0.91462-0.76937  0 417.50  83.62   40.79 417.71  83.83   40.91
   5  -1  -2 10393.6   177.9   2 0.09546 0.54290-0.86044 0.76085-0.50053 0.35548  0 183.20 388.71  140.58 183.04 388.48  140.58
   5  -1  -2 11671.7   183.5   2 0.11862 0.51950 0.00664-0.10617-0.99292 0.84785  0 141.75 320.74  200.55 141.83 320.82  200.38
   5   1  -2 10868.2   116.0   2 0.11965 0.51871-0.01255 0.11203-0.99274 0.84758  0 168.04 370.70  198.77 167.60 369.92  199.31
   5   1  -2 11431.6   118.6   2 0.07121 0.56691 0.43926-0.33973-0.89553 0.75047  0 150.42 341.63  226.29 150.58 341.67  226.11
  -5  -1  -3 696.108 155.538   1-0.17482-0.46380 0.55929-0.65876-0.81033 0.59239  0 142.42 177.79    5.69 142.48 177.78    5.65
  -5  -1   3 718.500 124.633   1-0.61551-0.02317-0.09977 0.00029-0.78179 0.99973  0 188.65 112.84   52.36 188.69 112.89   52.37
  -5  -1   3 630.540 178.303   1-0.01591-0.62330-0.71908 0.61961 0.69474-0.47705  0 434.64  80.63  169.61 434.72  80.59  169.77
  -5  -1   3 600.501 127.828   2-0.07002-0.56824-0.88700 0.78747 0.45643-0.23875  0 411.36  70.72   82.85 411.75  70.62   82.54
  -5   1  -3 669.752 209.551   1-0.52697-0.11241-0.84502 0.94455 0.09076-0.30853  0 483.62 116.27  122.87 483.56 116.28  122.56
  -5   1   3 574.612  77.815   1-0.64574 0.00706-0.18305 0.28253-0.74129 0.95923  0 242.09  76.26   58.30 241.76  76.65   57.94
  -5   1   3 587.839 110.856   1-0.39841-0.24097-0.86776 0.96728 0.29709-0.07933  0 363.40  57.62  136.66 363.34  57.79  136.57
  -5   1   3 563.853 140.125   2-0.16290-0.47535-0.53021 0.62974 0.83207-0.61438  0 400.89  66.65   51.87 400.77  66.73   52.09
   5  -1  -3 551.659  87.672   2 0.08293 0.55544-0.90888 0.80929-0.40873 0.19116  0 197.60 411.78  134.67 197.60 411.70  134.63
   5  -1  -3 584.478  81.067   2 0.08948 0.54864 0.30988-0.40941-0.94656 0.72895  0 129.08 299.20  218.04 129.14 299.27  218.08
   5  -1   3 439.456 138.143   1 0.01212 0.62709-0.69896 0.59949 0.71506-0.49737  0 158.17 367.51  172.07 158.08 367.36  172.06
   5   1  -3 632.155  81.782   2 0.13249 0.50587-0.44857 0.54805-0.88387 0.66614  0 188.70 404.05  173.29 188.63 403.81  173.32
   5   1  -3 421.617  67.256   2 0.01531 0.62282 0.72137-0.62184-0.69238 0.47477  0 131.94 309.94  246.48 131.73 310.12  246.40
  -5  -1  -4  7292.1   333.6   1-0.12855-0.51007 0.60241-0.70189-0.78776 0.49718  0 129.24 186.65    1.96 129.14 186.78    1.79
  -5  -1   4  5951.2   243.5   1-0.66894 0.03025-0.26184 0.16236-0.69567 0.98627  0 189.88  98.62   63.15 189.83  98.74   63.32
  -5  -1   4  5285.5   288.8   2-0.06173-0.57653-0.90667 0.80714 0.41731-0.12706  0 394.21  50.55   84.97 394.37  50.76   85.09
  -5   1  -4  5733.7   134.8   2-0.02787-0.61033 0.86149-0.76191-0.50701 0.21675  0 481.57  94.70  260.08 481.95  95.18  259.96
  -5   1   4  4189.0   147.2   1-0.70302 0.06434-0.49358 0.59306-0.51199 0.80258  0 256.11  58.54   80.38 256.11  58.88   80.41
  -5   1   4  5753.9   177.7   1-0.38496-0.25443-0.86723 0.96676 0.31578-0.02543  0 346.11  43.46  138.06 346.06  43.72  137.89
  -5   1   4  5343.1   305.7   2-0.14361-0.49465-0.62916 0.72868 0.76390-0.47365  0 384.64  48.33   59.17 384.85  48.57   59.07
   5  -1  -4  5031.8   214.8   2 0.07820 0.56017-0.92357 0.82398-0.37536 0.08527  0 210.36 433.81  132.41 210.06 433.60  132.54
   5  -1  -4  6037.0   212.5   2 0.06625 0.57188 0.47086-0.57039-0.87972 0.58958  0 117.58 281.14  228.06 117.26 281.10  228.16
   5  -1   4  5273.5   282.3   1-0.03068 0.66989-0.72910 0.62962 0.68372-0.39347  0 142.12 358.43  168.57 141.94 358.34  168.57
   5   1  -4  5780.4   211.1   2 0.12691 0.51145-0.59937 0.69885-0.79035 0.50003  0 202.72 428.50  163.05 202.45 428.17  163.15
   5   1  -4  5534.9   193.8   2-0.00593 0.64413 0.79753-0.69795-0.60325 0.31300  0 118.64 289.89  252.98 118.37 289.46  253.24
  -5  -1  -5  1737.1   126.2   2 0.10832-0.74645 0.13711-0.23664-0.98462 0.62195  2 496.53  80.70  207.65 496.26  80.65  207.89
  -5  -1   5  1892.5   193.5   1-0.69791 0.05923-0.41463 0.31516-0.58395 0.94719  0 188.89  82.65   74.32 188.78  82.89   74.29
  -5  -1   5  1666.6   224.7   2-0.05868-0.57958-0.91347 0.81394 0.40266-0.03985  0 378.26  29.63   85.97 378.10  29.90   86.03
  -5   1  -5  1665.8   179.6   2-0.04421-0.59399 0.90114-0.80156-0.43127 0.06846  0 471.31  63.21  265.00 471.60  63.33  264.93
  -5   1   5  1802.1   106.8   1-0.63785-0.00154-0.75363 0.85316-0.15872 0.52165  0 274.28  37.32  106.22 274.03  37.55  106.03
  -5   1   5  1874.5   109.3   1-0.39085-0.24854-0.86752 0.96704 0.30766 0.05528  0 326.17  28.01  137.73 325.78  28.16  137.32
  -5   1   5  1770.4   222.1   2-0.13069-0.50756-0.68683 0.78636 0.71497-0.35216  0 369.70  28.69   63.32 369.42  28.87   63.47
   5  -1  -5  1688.5   192.8   2 0.07702 0.56135-0.92716 0.82757-0.36666 0.00404  0 222.00 456.85  131.95 221.70 456.62  132.01
   5  -1  -5  1664.3   164.3   2 0.04977 0.58835 0.56470-0.66424-0.82379 0.46112  0 104.87 264.02  234.52 104.77 264.03  234.49
   5  -1   5  1550.7   213.7   1-0.06087 0.70008-0.74871 0.64924 0.66010-0.29728  0 124.87 349.64  165.94 124.63 349.77  166.10
   5   1  -5  1666.1   188.6   2 0.12158 0.51679-0.67501 0.77449-0.72773 0.36483  0 214.92 452.77  157.43 214.70 452.46  157.53
   5   1  -5  1695.1   158.1   2-0.01655 0.65475 0.82986-0.73028-0.55772 0.19491  0 105.34 271.57  256.34 105.08 271.31  256.49
  -5  -1  -6  9252.6   264.3   2 0.07323-0.71135 0.42620-0.52574-0.90166 0.46646  0 483.93  41.19  225.11 483.66  41.31  225.28
  -5  -1   6  9225.0   301.1   1-0.70150 0.06281-0.54794 0.44846-0.45570 0.89159  0 185.52  64.90   84.84 185.51  64.91   84.89
  -5  -1   6  9288.6   475.6   2-0.05857-0.57968-0.91369 0.81416 0.40216 0.03321  2 362.43   7.17   85.96 362.33   7.14   86.07
  -5   1  -6  8418.0   300.2   2-0.04623-0.59197 0.90543-0.80585-0.42198-0.01340  0 465.71  31.80  265.51 466.10  32.26  265.52
   5  -1  -6  8484.3   338.8   2 0.07771 0.56065-0.92519 0.82560-0.37146-0.06368  0 233.28 482.43  132.15 233.07 482.07  132.31
   5  -1  -6  9480.4   316.9   2 0.03843 0.59969 0.62137-0.72090-0.78257 0.34737  0  91.24 247.36  238.55  91.02 247.29  238.56
   5  -1   6  9401.5   403.6   1-0.08112 0.72033-0.76115 0.66168 0.64348-0.20810  0 106.30 341.52  164.40 105.81 341.45  164.44
   5  -1   6  8651.8   131.0   2-0.20922 0.84737-0.20175 0.10225 0.95683-0.52107  0 137.12 401.81   31.84 137.32 401.78   31.64
   5  -1   6  8826.2   134.7   2-0.14337 0.78163-0.63029 0.53076 0.76301-0.32763  0 112.44 358.29   59.44 112.35 358.65   59.15
   5   1  -6  9180.1   336.9   2 0.11759 0.52077-0.71596 0.81544-0.68817 0.25269  0 226.57 479.06  154.09 226.27 478.62  154.29
   5   1  -6  9200.8   303.0   2-0.02154 0.65974 0.84440-0.74482-0.53528 0.09990  0  91.08 254.21  257.98  90.80 253.88  258.05
  -5  -1   7  1185.5   168.1   1-0.68311 0.04442-0.65591 0.55643-0.32117 0.82971  0 179.96  44.06   94.95 180.05  44.27   94.84
   5  -1  -7  1015.4   167.2   2 0.03096 0.60716 0.65583-0.75536-0.75427 0.24654  0  75.52 230.36  241.01  75.48 230.30  241.15
   5  -1   7 766.869 199.990   1-0.09345 0.73266-0.76847 0.66900 0.63302-0.12508  0  85.20 333.08  163.40  85.13 333.27  163.42
   5  -1   7 889.473  96.145   2-0.23114 0.86929 0.07778-0.17728 0.96981-0.46141  0 142.42 437.81   15.77 142.68 438.07   15.51
   5  -1   7 942.848  94.496   2-0.11968 0.75794-0.73092 0.63139 0.67189-0.16396  0  86.77 340.05   66.99  86.66 339.84   67.06
   5   1  -7 737.725 137.823   2-0.02337 0.66157 0.84921-0.74963-0.52754 0.01960  0  75.18 236.68  258.43  74.90 236.53  258.57
   5   1   7 940.738  88.926   2-0.21333 0.85148-0.16067 0.26017 0.96368-0.45529  0  94.35 360.89   29.27  94.29 360.90   29.25
  -5  -1   8  3894.1   283.1   1-0.64797 0.00859-0.73783 0.63831-0.18904 0.76973  0 172.37  19.86  103.93 172.46  19.81  103.98
   5  -1  -8  4209.8   294.3   2 0.02632 0.61180 0.67589-0.77543-0.73653 0.15626  0  57.68 212.56  242.63  57.59 212.63  242.71
   5  -1   8  3445.0   370.3   1-0.09943 0.73864-0.77190 0.67243 0.62792-0.04741  0  62.32 325.10  163.15  62.02 325.05  162.93
   5  -1   8  3778.2   210.5   2-0.23706 0.87521 0.21685-0.31635 0.94698-0.36597  0 142.27 471.18    7.40 142.18 471.00    7.40
   5  -1   8  3982.7   193.8   2-0.11284 0.75110-0.75666 0.65713 0.64400-0.06350  0  62.47 328.07   69.39  62.28 328.42   69.26
   5   1  -8  3807.1   282.1   2-0.02297 0.66117 0.84807-0.74850-0.52938-0.05113  0  56.87 218.91  258.20  56.70 218.64  258.44
   5   1   8  3525.5   346.1   1 0.03410 0.60511-0.68249 0.78196 0.73010-0.14960  0  57.14 294.32  174.13  56.65 294.18  173.86
   5   1   8  4247.1   175.1   2-0.19265 0.83080-0.34218 0.44168 0.91967-0.33865  0  66.56 343.68   40.11  66.31 343.69   40.03
   5   1   8  3561.4   185.3   2-0.23639 0.87454 0.52166-0.42212 0.81975-0.23876  0 131.32 459.64  347.99 131.29 459.45  348.09
   5  -1  -9-208.992 147.135   2 0.02395 0.61418 0.68613-0.78567-0.72708 0.07428  0  36.47 193.80  243.44  36.62 193.74  243.52
   5  -1   9 -90.027 192.972   1-0.10014 0.73934-0.77231 0.67283 0.62731 0.02576  0  35.94 316.35  162.46  35.77 316.62  162.87
   5  -1   9   8.079 102.433   2-0.11162 0.74988-0.76096 0.66143 0.63913 0.01393  0  35.72 319.56   69.67  35.74 319.66   69.64
   5   1  -9  12.419 164.393   2-0.02096 0.65916 0.84272-0.74314-0.53794-0.11513  0  35.76 199.41  257.52  35.43 199.69  257.86
   5   1   9  10.745 195.792   1 0.02701 0.61220-0.68793 0.78740 0.72528-0.07221  0  31.42 284.60  173.33  31.70 284.33  173.28
   5   1   9 -56.166  91.571   2-0.18114 0.81929-0.42411 0.52361 0.88731-0.23366  0  38.48 332.45   45.47  38.39 333.10   45.13
   5   1   9  11.057 128.284   2-0.23433 0.87248 0.56936-0.46981 0.78799-0.13437  0 128.64 496.75  344.58 128.15 496.72  344.80
  -5  -2   0 14682.8   404.4   1-0.42896-0.20965 0.25251-0.45146-0.86731 0.86731  0 155.61 161.63   29.00 155.60 161.72   28.84
  -5  -2   0 11811.2   448.7   1-0.10869-0.53052-0.77714 0.57819 0.61987-0.61987  0 487.54 131.51  162.20 487.72 131.60  162.16
  -5   2   0 14401.2   302.2   1-0.17660-0.46201 0.55755-0.35860-0.81114 0.81114  0 211.78  99.90    5.93 211.66 100.15    5.80
  -5   2   0 11733.5   318.3   1-0.59923-0.04015-0.79839 0.99744-0.05913 0.05913  0 401.99  73.37  112.76 402.32  73.47  112.66
   5  -2   0 10638.7   126.1   2 0.04133 0.59704-0.99008 0.79090-0.13426 0.13426  0 168.22 374.47  118.46 168.37 374.71  118.10
   5  -2   0 11174.3   127.2   2 0.11168 0.52668-0.76524 0.56628-0.63398 0.63398  0 147.48 340.21  149.94 147.35 339.96  150.11
  -5  -2  -1 29493.8   555.8   1-0.36328-0.27534 0.34449-0.54344-0.86565 0.79301  0 148.70 171.70   22.34 148.69 171.77   22.38
  -5  -2  -1 23395.6   550.4   1-0.16765-0.47156-0.80732 0.60838 0.56580-0.63836  0 499.52 142.94  157.33 499.74 143.03  157.26
  -5  -2   1 29385.8   537.2   1-0.49670-0.14192 0.14416-0.34311-0.85587 0.92851  0 160.67 150.98   35.80 160.71 151.09   36.20
  -5  -2   1 24736.5   552.4   1-0.04810-0.59111-0.74060 0.54166 0.67022-0.59766  0 478.93 118.99  167.20 479.08 119.18  167.14
  -5  -2   1 23126.9   267.5   2-0.02459-0.61367-0.97203 0.77297 0.23356-0.16100  0 447.68  94.61   96.56 448.00  94.77   96.53
  -5   2  -1 23594.9   446.4   1-0.59756-0.04182-0.79992 0.99897-0.05521-0.01738  0 426.37  81.72  113.01 426.73  81.68  112.92
  -5   2  -1 22622.5   280.3   2-0.22796-0.41019 0.66444-0.46534 0.71173-0.78435  0 443.46  91.69  337.55 443.15  91.75  337.74
  -5   2   1 29713.6   365.0   1-0.33289-0.30572 0.38367-0.18472-0.86138 0.93403  0 230.64  86.20   19.47 230.56  86.40   19.53
  -5   2   1 24198.3   358.4   1-0.60973-0.02965-0.78809 0.98714-0.08448 0.15707  0 377.55  64.39  110.99 377.57  64.48  110.99
  -5   2   1 25842.5   363.5   2-0.22932-0.40883 0.04573 0.15327 0.97228-0.89965  0 417.98  78.10   17.28 418.31  78.35   17.36
   5  -2  -1 21861.7   257.4   2 0.03372 0.60465-0.99552 0.79634-0.08828 0.01575  0 182.89 393.66  115.55 182.84 393.65  115.41
   5  -2  -1 23919.4   265.8   2 0.13298 0.50539-0.37557 0.17660-0.91721 0.84463  0 137.76 319.51  177.90 137.63 319.23  177.93
  -5  -2  -2  3345.5   249.1   1-0.30315-0.33546 0.42023-0.61918-0.85528 0.70999  0 140.05 181.27   17.19 140.03 181.39   16.81
  -5  -2   2  3391.8   237.1   1-0.56182-0.07680 0.02197-0.22092-0.82697 0.97226  0 163.76 139.64   44.30 163.85 139.61   44.30
  -5  -2   2  2966.2   339.1   1 0.01280-0.65201-0.69846 0.49952 0.71553-0.57041  0 473.57 105.36  172.14 473.74 105.50  172.12
  -5  -2   2  2845.9   189.8   2-0.01688-0.62138-0.98112 0.78207 0.19264-0.04751  0 427.55  76.05   99.03 427.78  76.20   98.99
  -5   2  -2  2859.4   288.5   1-0.60090-0.03848-0.79683 0.99588-0.06308-0.08209  0 451.97  88.97  112.38 452.15  89.12  112.40
  -5   2  -2  2636.9   150.3   2-0.19780-0.44035 0.87030-0.67120 0.45107-0.59631  0 450.86  89.18  318.22 450.64  89.22  318.37
  -5   2   2  3240.5   130.3   1-0.53477-0.10384 0.07553 0.12342-0.84161 0.98691  0 253.90  70.00   40.92 253.63  70.39   40.76
  -5   2   2  3030.1   161.8   1-0.63780-0.00158-0.75369 0.95274-0.15859 0.30377  0 349.55  55.00  106.20 349.43  55.05  106.04
  -5   2   2  3265.9   230.8   2-0.20980-0.42835-0.19622 0.39522 0.95785-0.81260  0 403.67  66.22   31.27 404.01  66.40   31.32
   5  -2  -2  2457.9   138.5   2 0.03480 0.60357-0.99490 0.79571-0.09466-0.05039  0 194.95 410.86  115.95 194.97 410.76  115.79
   5  -2  -2  2794.0   138.0   2 0.12266 0.51571-0.06025-0.13871-0.99062 0.84546  0 128.96 302.31  196.70 128.93 302.27  196.56
   5  -2   2  2972.9   214.4   1-0.01443 0.65364-0.71806 0.51912 0.69583-0.55070  0 177.73 393.77  170.39 177.53 393.62  169.89
   5   2  -2  2857.3   109.3   2 0.11179 0.52633 0.09603 0.10304-0.98908 0.84401  0 174.57 390.67  205.28 174.39 390.36  205.51
   5   2  -2  2685.4    97.9   2-0.01889 0.65709 0.83675-0.63760-0.54725 0.40212  0 136.93 328.84  256.93 136.82 328.33  257.22
  -5  -2  -3  72.670 123.402   1-0.25047-0.38815 0.48073-0.67968-0.84033 0.62239  0 129.45 190.87   12.63 129.62 190.71   12.13
  -5  -2   3  82.673 121.011   1-0.61910-0.01959-0.10858-0.09037-0.77777 0.99572  0 165.18 127.46   53.03 164.97 127.21   52.96
  -5  -2   3 128.934 126.090   2-0.01636-0.62189-0.98167 0.78261 0.18991 0.02778  0 410.43  58.10   99.04 410.14  58.20   99.15
  -5   2  -3 104.290 191.531   1-0.60723-0.03216-0.79066 0.98971-0.07833-0.13943  0 479.66  96.02  111.45 479.63  95.83  111.39
  -5   2  -3-117.444  89.782   2-0.16545-0.47270 0.95970-0.76061 0.22714-0.44501  0 452.69  78.52  304.95 453.45  78.70  304.26
  -5   2   3 -35.796 140.452   2-0.18968-0.44847-0.36448 0.56348 0.91169-0.69381  0 389.52  52.08   41.55 389.59  52.27   41.40
   5  -2  -3  75.010  78.214   2 0.03823 0.60014-0.99256 0.79337-0.11560-0.10197  0 206.06 428.87  117.09 206.30 428.65  117.00
   5  -2  -3 148.533  70.344   2 0.10535 0.53277 0.16789-0.36696-0.98016 0.76256  0 119.63 286.11  209.65 119.63 286.20  209.67
   5  -2   3  22.087 101.754   1-0.06948 0.70869-0.75412 0.55517 0.65306-0.43537  0 160.32 383.91  165.58 160.44 383.72  165.39
   5   2  -3  40.641  65.909   2 0.13058 0.50778-0.23131 0.43027-0.96408 0.74634  0 189.87 415.45  186.43 189.64 415.34  186.64
   5   2  -3   2.054  54.590   2-0.04258 0.68078 0.89730-0.69814-0.43936 0.22167  0 122.95 305.12  264.49 123.13 305.28  264.41
  -5  -2  -4  1599.5   216.1   1-0.20603-0.43259 0.52802-0.72697-0.82386 0.53327  0 117.68 199.68    8.27 117.43 199.85    8.29
  -5  -2   4  1256.3   170.8   1-0.66343 0.02474-0.24150 0.04254-0.70820 0.99879  0 163.90 113.48   61.80 163.98 113.60   61.91
  -5  -2   4  1077.8   180.0   2-0.01874-0.61952-0.97911 0.78006 0.20246 0.08779  0 393.61  39.33   98.47 393.77  39.34   98.40
  -5   2  -4  1075.7   132.6   2-0.13913-0.49907 0.98789-0.78873 0.06867-0.35892  0 453.54  61.48  294.88 453.81  61.53  294.88
  -5   2   4  1241.8   199.9   2-0.17268-0.46547-0.47703 0.67603 0.86176-0.57125  0 375.34  35.68   48.44 375.25  35.96   48.53
   5  -2  -4 937.124 130.835   2 0.04269 0.59568-0.98881 0.78963-0.14293-0.14717  0 217.51 448.30  118.47 217.24 448.18  118.61
   5  -2  -4  1245.1   149.4   2 0.08793 0.55019 0.32201-0.52108-0.94264 0.65251  0 109.45 270.75  218.73 109.28 270.59  218.82
   5  -2   4  1202.3   184.0   1-0.10721 0.74642-0.77631 0.57737 0.62116-0.33091  0 143.10 374.44  162.14 142.80 374.56  162.29
   5   2  -4  1700.5   247.4   1-0.12967 0.76828 0.60140-0.40245-0.78835 0.49776  0 475.19 443.59    1.68 475.19 443.43    1.88
   5   2  -4  1192.1   130.8   2 0.13310 0.50526-0.40898 0.60794-0.90278 0.61247  0 202.33 438.49  176.00 202.39 438.31  175.84
   5   2  -4  1081.8   116.0   2-0.05099 0.68919 0.91553-0.71637-0.39901 0.10875  0 110.86 286.82  266.90 110.70 286.50  266.98
  -5  -2  -5 325.985 159.017   1-0.16970-0.46892 0.56408-0.76303-0.80809 0.44486  0 103.23 208.72    5.48 103.38 208.96    5.22
  -5  -2  -5 334.785 106.907   2 0.12106-0.75942-0.03341-0.16555-0.99208 0.62919  0 487.72  58.49  198.38 488.25  58.59  198.11
  -5  -2   5 315.466 131.045   1-0.69174 0.05306-0.36897 0.17002-0.62077 0.98401  0 160.68  98.37   70.58 160.83  98.48   70.91
  -5  -2   5 209.727 194.969   2-0.02257-0.61569-0.97455 0.77549 0.22303 0.13978  0 377.71  19.14   97.49 378.09  18.85   97.17
  -5   2  -5 219.480 143.111   2-0.11996-0.51824 0.99189-0.79274-0.04189-0.32093  0 452.03  39.07  288.63 452.39  39.20  288.40
  -5   2   5 170.383 199.414   2-0.15921-0.47904-0.55062 0.74968 0.81943-0.45662  0 360.95  17.63   53.59 360.98  17.48   53.48
   5  -2  -5 154.764 115.169   2 0.04768 0.59069-0.98365 0.78446-0.17366-0.18896  0 228.07 470.11  120.43 228.08 470.08  120.42
   5  -2  -5 352.118 106.725   2 0.07332 0.56480 0.42557-0.62464-0.90195 0.53928  0  98.14 254.60  225.57  97.63 254.98  225.24
   5  -2   5 233.254 148.042   1-0.13223 0.77144-0.78983 0.59088 0.59891-0.23609  0 124.20 366.04  160.32 124.22 365.95  160.21
   5  -2   5 277.318  56.816   2-0.18298 0.82113-0.41163 0.21262 0.89280-0.52966  0 150.57 406.86   44.77 150.94 407.27   44.34
   5  -2   5 243.208  54.674   2-0.05695 0.69521-0.91717 0.71812 0.39440-0.03159  0 113.50 342.45   86.89 113.42 343.01   86.57
   5   2  -5 191.795 235.269   1-0.18123 0.81985 0.55301-0.35406-0.81322 0.44999  0 480.26 464.71    5.96 480.40 464.34    6.19
   5   2  -5 389.978 123.599   2 0.13090 0.50746-0.51291 0.71187-0.84840 0.48551  0 213.47 462.29  169.44 214.01 462.11  169.11
   5   2  -5 260.668  84.232   2-0.05372 0.69192 0.92075-0.72159-0.38645 0.02363  0  97.58 269.45  267.60  97.75 269.16  267.77
  -5  -2  -6 10409.9   439.2   1-0.14106-0.49755 0.59100-0.78995-0.79424 0.35836  0  87.54 218.03    2.94  87.26 218.18    2.82
  -5  -2  -6  7929.5   293.6   2 0.10157-0.73969 0.20474-0.40381-0.97353 0.53833  0 482.38  25.38  211.75 482.32  25.51  211.82
  -5  -2   6  8585.2   330.0   1-0.70287 0.06418-0.48526 0.28630-0.52010 0.95599  0 155.50  81.18   79.69 155.48  81.38   79.74
  -5   2  -6  7192.1   346.5   2-0.10451-0.53369 0.98644-0.78728-0.12657-0.30881  0 450.80  11.95  283.43 451.13  12.32  283.44
   5  -2  -6  7212.1   336.0   2 0.05292 0.58545-0.97700 0.77782-0.20655-0.22859  0 239.12 495.37  122.27 239.02 495.14  122.35
   5  -2  -6  9487.7   336.0   2 0.06217 0.57595 0.49544-0.69451-0.86642 0.43121  0  84.52 238.98  229.80  84.26 239.06  229.76
   5  -2   6  7728.6   393.6   1-0.14769 0.78690-0.79769 0.59875 0.58470-0.14932  0 104.64 357.83  158.82 104.28 357.77  158.93
   5  -2   6  7298.5   198.4   2-0.21203 0.85018-0.17396-0.02504 0.96165-0.52589  0 152.78 433.32   30.02 152.68 433.03   30.02
   5  -2   6  7320.0   191.4   2-0.05731 0.69556-0.91644 0.71739 0.39604 0.03933  0  94.64 331.85   86.62  94.39 332.03   86.46
   5   2  -6  8552.0   483.2   1-0.22657 0.86519 0.50653-0.30758-0.83192 0.39604  0 489.57 489.50    9.97 489.55 489.14   10.06
   5   2  -6  7698.2   329.1   2 0.12822 0.51014-0.57690 0.77586-0.80669 0.37122  0 225.64 488.67  164.72 225.23 488.30  164.74
   5   2  -6  7712.7   289.8   2-0.05333 0.69153 0.91997-0.72081-0.38834-0.04704  0  83.74 252.53  267.53  83.52 252.20  267.65
  -5  -2   7  2331.1   274.5   1-0.69762 0.05894-0.58658 0.38763-0.41139 0.91993  0 147.87  61.29   88.35 147.86  61.66   88.27
   5  -2  -7  3000.5   253.1   2 0.05399 0.58414 0.54210-0.74117-0.83858 0.33084  0  69.08 222.48  232.74  68.90 222.55  232.93
   5  -2   7  1866.9   254.4   1-0.15574 0.79495-0.80166 0.60272 0.57714-0.06919  0  82.40 350.03  158.38  82.50 349.87  158.26
   5  -2   7  2084.5   180.5   2-0.22593 0.86408-0.00804-0.19096 0.97411-0.46572  0 152.02 460.39   20.56 152.11 460.21   20.44
   5  -2   7  2028.0   160.1   2-0.06132 0.69958-0.90759 0.70853 0.41536 0.09257  0  74.28 322.53   85.44  74.03 322.95   85.22
   5   2  -7  1790.3   195.9   2-0.05099 0.68919 0.91551-0.71635-0.39904-0.10890  0  67.61 235.29  267.25  67.47 235.05  266.98
   5   2   7  2230.7   120.6   2-0.22747 0.86562 0.01404 0.18496 0.97368-0.46529  0  84.10 355.36   19.50  83.98 355.78   19.18
   5   2   7  1652.7   125.0   2-0.22959 0.86774 0.64415-0.44505 0.72963-0.22126  0 128.19 433.61  339.53 128.36 434.04  339.31
  -5  -2   8  3600.5   327.2   1-0.67848 0.03980-0.67073 0.47178-0.29964 0.88082  0 137.94  38.30   96.39 137.87  38.64   96.36
   5  -2  -8  2808.5   290.6   2 0.04826 0.58986 0.57250-0.77157-0.81848 0.23821  0  51.07 205.08  234.67  50.95 205.11  235.03
   5  -2   8  2702.7   308.9   1-0.15793 0.79714-0.80272 0.60377 0.57507 0.00544  0  58.50 342.05  158.23  58.29 342.10  158.08
   5  -2   8  2544.2   227.2   2-0.23260 0.87075 0.10592-0.30492 0.96679-0.38577  0 149.24 490.67   13.97 149.30 490.51   13.88
   5  -2   8  2564.7   192.7   2-0.06701 0.70527-0.89439 0.69533 0.44225 0.13825  0  51.39 315.03   83.51  51.33 315.10   83.48
   5   2  -8  2391.1   260.7   2-0.04750 0.68570 0.90818-0.70902-0.41587-0.16463  0  49.15 217.66  265.76  48.93 217.31  265.91
   5   2   8  2766.4   165.7   2-0.21351 0.85166-0.15883 0.35783 0.96394-0.38292  0  57.94 342.32   29.23  57.69 342.49   29.14
   5   2   8  2347.1   191.5   2-0.22538 0.86353 0.69248-0.49338 0.68533-0.10434  0 128.02 469.49  335.72 128.40 469.54  335.52
  -5  -2   9 18404.5   519.8   1-0.64801 0.00863-0.73777 0.53872-0.18916 0.84244  2 125.56  10.66  104.10 125.32  10.76  103.98
   5  -2  -9 18859.4   561.6   2 0.04462 0.59351 0.59118-0.79025-0.80530 0.15250  0  29.67 186.22  236.34  29.68 186.24  236.36
   5  -2   9 16199.1   601.3   1-0.15532 0.79453-0.80145 0.60251 0.57754 0.07553  0  31.12 334.29  158.29  30.86 334.30  158.29
   5  -2   9 15256.3   375.4   2-0.07360 0.71186-0.87793 0.67887 0.47310 0.17996  0  25.59 308.27   81.42  25.33 308.29   81.43
   5   2  -9 16291.7   512.6   2-0.04306 0.68126 0.89853-0.69937-0.43680-0.21627  0  27.28 198.74  264.37  27.13 198.40  264.57
   5   2   9 17252.6   353.2   2-0.20333 0.84148-0.25595 0.45495 0.94506-0.29142  0  30.22 333.72   34.84  29.89 333.52   34.84
  -5  -3   0-138.566 123.026   1-0.47409-0.16453 0.18201-0.48043-0.86146 0.86146  0 135.93 174.19   33.60 135.67 174.03   33.66
  -5  -3   0  17.709  95.782   2 0.06160-0.69996-0.96296 0.66418-0.26253 0.26253  0 450.50  75.85  126.13 451.18  75.96  125.66
  -5   3   0 -75.617 131.098   1-0.68767 0.04899-0.63906 0.93749-0.34455 0.34455  0 392.91  52.05   93.00 392.95  52.13   93.17
   5  -3   0  31.497  67.467   2-0.04829 0.68655-0.93470 0.63612 0.35214-0.35214  0 188.50 415.32   89.44 188.77 415.40   89.24
   5  -3   0  19.998  58.481   2 0.12928 0.50908-0.55541 0.25697-0.82146 0.82146  0 122.87 305.62  166.65 122.83 306.24  166.23
  -5  -3  -1  2676.2   248.8   1-0.41925-0.21937 0.26704-0.56547-0.86771 0.79506  0 130.12 184.09   28.17 130.15 184.11   27.85
  -5  -3  -1  2119.0   156.8   2 0.08038-0.71874-0.91711 0.61833-0.39044 0.31792  0 464.79  82.05  133.47 465.14  82.13  133.49
  -5  -3   1  2689.5   247.6   1-0.52928-0.10934 0.08579-0.38422-0.84410 0.91675  0 139.28 163.48   40.31 139.32 163.46   40.08
  -5  -3   1  2185.4   199.4   2 0.04757-0.68594-0.98378 0.68500-0.17298 0.24550  0 435.70  65.36  120.34 435.92  65.55  120.38
  -5   3  -1  2261.4   259.1   1-0.67639 0.03771-0.67681 0.97524-0.29057 0.21792  0 422.23  59.06   97.66 422.25  59.43   96.99
  -5   3  -1  2236.6   226.4   2-0.23593-0.40221 0.53335-0.23470 0.81233-0.88495  0 419.67  58.50  347.12 419.50  58.73  347.30
  -5   3   1  2792.6   136.3   1-0.28162-0.35700 0.44558-0.14716-0.84979 0.92244  0 245.03  63.21   14.96 244.83  63.48   14.88
  -5   3   1  2429.5   174.2   1-0.70142 0.06274-0.54899 0.84743-0.45454 0.52719  0 359.81  44.32   85.05 359.64  44.46   84.98
  -5   3   1  2455.2   247.2   2-0.23268-0.40547 0.10760 0.19090 0.96658-0.89395  0 400.58  52.04   13.72 400.65  52.35   13.79
   5  -3  -1  2360.1   157.7   2-0.02939 0.66765-0.96576 0.66717 0.25778-0.33034  0 197.43 424.54   95.01 197.32 424.39   95.06
   5  -3  -1  2352.1   141.5   2 0.13252 0.50584-0.33001 0.03157-0.93463 0.86205  0 119.71 295.63  180.93 119.34 295.65  180.73
   5  -3   1  2337.6   184.1   1-0.02281 0.66201-0.72378 0.42537 0.68965-0.61709  0 197.53 424.41  169.22 197.37 424.21  169.21
   5  -3   1  2438.8   131.0   2-0.07228 0.71054-0.88132 0.58274 0.46696-0.39440  0 181.26 410.48   81.87 181.27 410.42   81.84
   5  -3   1  2183.4   120.5   2 0.11290 0.52546-0.75606 0.45762-0.64469 0.71727  0 123.99 314.84  150.83 123.70 314.67  150.91
   5   3  -1  2579.0   105.3   2 0.06177 0.57636 0.49782-0.19922-0.86508 0.79254  0 167.03 395.53  230.10 167.20 395.51  229.92
   5   3  -1  2305.3    93.1   2-0.08670 0.72490 0.97144-0.67271-0.22087 0.14830  0 130.17 334.14  277.77 130.02 333.74  277.87
  -5  -3  -2  39.396 123.294   1-0.36712-0.27149 0.33939-0.63781-0.86605 0.72075  0 122.85 193.89   22.61 122.71 193.80   22.75
  -5  -3  -2 229.454  88.932   2 0.10485-0.74322-0.81153 0.51275-0.57482 0.42978  0 474.62  80.78  146.02 475.16  81.03  145.68
  -5  -3   2 309.824 143.193   1-0.58146-0.05715-0.01957-0.27885-0.81334 0.95863  0 140.91 152.33   46.89 140.94 152.14   47.05
  -5  -3   2 150.689 133.471   2 0.03622-0.67459-0.99401 0.69523-0.10313 0.24818  0 420.94  52.54  115.97 420.52  52.52  116.28
  -5   3  -2 191.723 190.212   1-0.66981 0.03112-0.69401 0.99244-0.26404 0.11874  0 451.22  66.47   99.49 451.32  66.02   98.84
  -5   3  -2 118.861 136.247   2-0.22325-0.41490 0.71278-0.41413 0.66491-0.81016  0 425.61  54.89  334.19 425.99  54.75  333.85
  -5   3   2 156.025 158.124   2-0.22071-0.41744-0.07819 0.37670 0.97220-0.82695  0 389.19  43.14   24.35 389.03  43.41   24.48
   5  -3  -2  88.142  84.525   2-0.01391 0.65228-0.98360 0.68482 0.17985-0.32490  0 206.82 436.91   99.67 206.50 436.64   99.77
   5  -3  -2 182.558  78.893   2 0.12583 0.51253-0.11906-0.17938-0.98488 0.83972  0 113.44 283.75  193.08 113.70 283.73  193.19
   5  -3   2 238.019 119.070   1-0.09702 0.73622-0.77052 0.47211 0.62998-0.48486  0 178.02 412.32  163.26 177.89 412.62  163.13
   5  -3   2 179.262  64.936   2-0.10218 0.74044-0.79370 0.49511 0.59967-0.45455  0 175.22 410.13   72.84 175.35 410.39   72.61
   5  -3   2 226.524  61.829   2 0.08729 0.55108-0.89370 0.59492-0.44009 0.58514  0 121.28 319.48  136.84 121.20 319.76  136.63
   5   3  -2 218.948  73.851   2 0.10575 0.53238 0.16391 0.13469-0.98079 0.83572  0 180.98 415.94  209.55 181.07 415.89  209.44
   5   3  -2 149.817  60.914   2-0.09406 0.73226 0.97875-0.68001-0.18223 0.03710  0 119.20 313.49  280.18 119.38 313.49  280.17
  -5  -3  -3  33.207 125.592   1-0.31995-0.31867 0.39985-0.69827-0.85893 0.64099  0 113.39 203.20   18.43 113.40 203.28   18.34
  -5  -3  -3  17.400  94.354   2 0.12620-0.76456-0.61132 0.31288-0.78125 0.56352  0 478.91  70.43  162.52 479.02  70.53  162.29
  -5  -3   3-127.095 118.340   1-0.62732-0.01137-0.13039-0.16804-0.76777 0.98571  0 140.34 139.79   54.61 140.52 139.95   54.40
  -5  -3   3   5.753 156.556   2 0.02629-0.66466-0.99869 0.69991-0.04387 0.26144  0 405.79  37.00  112.39 405.39  37.22  112.83
  -5   3  -3  92.962 215.964   1-0.66707 0.02769-0.70038 0.99896-0.25393 0.03617  0 481.74  72.00   99.62 482.04  71.34   99.56
  -5   3  -3  21.462 134.859   2-0.20444-0.43370 0.84018-0.54153 0.50230-0.72017  0 430.14  45.36  321.90 430.20  45.32  321.84
  -5   3   3  24.365 180.009   2-0.20668-0.43147-0.22582 0.52432 0.95199-0.73411  0 376.79  31.34   32.90 376.63  31.49   33.06
   5  -3  -3 -84.204  93.806   2-0.00104 0.63941-0.99379 0.69501 0.11123-0.32880  0 216.29 451.79  103.51 216.00 451.67  103.82
   5  -3  -3 -20.436  78.382   2 0.11488 0.52324 0.05776-0.35636-0.99170 0.77410  0 106.47 270.70  203.60 106.28 270.90  203.31
   5  -3   3 125.369 124.175   1-0.14539 0.78460-0.79655 0.49813 0.58684-0.36915  0 158.62 402.04  159.42 158.92 402.25  159.12
   5  -3   3  -7.019  62.026   2-0.13557 0.77383-0.66548 0.36690 0.73400-0.51631  0 170.79 416.00   62.19 171.17 416.14   61.81
   5  -3   3  33.218  53.974   2 0.06003 0.57834-0.96585 0.66707-0.25205 0.46962  0 115.16 321.63  124.79 114.92 321.28  125.05
   5   3  -3 -11.675  82.404   2 0.12352 0.51484-0.07477 0.37321-0.98952 0.77179  0 192.14 435.26  196.02 192.70 435.33  195.73
   5   3  -3  39.915  65.044   2-0.09410 0.73230 0.97878-0.68004-0.18202-0.03567  0 108.96 296.40  279.78 109.06 296.05  280.18
  -5  -3  -4 32197.6   672.5   1-0.27866-0.35996 0.44899-0.74742-0.84897 0.55839  0 102.38 212.63   14.64 102.13 212.69   14.62
  -5  -3  -4 24315.8   330.8   2 0.13285-0.77121-0.35841 0.05997-0.92406 0.63375  0 478.77  51.49  179.00 479.20  51.78  178.99
  -5  -3   4 28928.2   577.5   1-0.66373 0.02505-0.24260-0.05584-0.70753 0.99813  0 138.00 126.57   62.00 138.00 126.62   61.99
  -5  -3   4 23356.0   505.3   2 0.01719-0.65556-0.99981 0.70103 0.00938 0.28071  0 390.04  19.51  109.85 390.56  19.74  109.75
  -5   3  -4 23721.5   438.6   2-0.18359-0.45456 0.91914-0.62049 0.34854-0.63904  0 432.85  30.28  311.75 432.59  30.62  311.75
  -5   3   4 29382.0   586.8   2-0.19330-0.44485-0.33720 0.63570 0.92137-0.63086  0 363.72  16.55   39.81 363.69  16.81   39.73
   5  -3  -4 24537.7   465.8   2 0.01012 0.62825-0.99872 0.69994 0.04959-0.33969  0 225.91 469.76  107.43 225.82 469.59  107.42
   5  -3  -4 29462.1   495.2   2 0.10259 0.53553 0.19493-0.49353-0.97544 0.68530  0  97.35 257.22  211.13  97.08 257.30  211.25
   5  -3   4 23582.0   516.8   1-0.17663 0.81584-0.81145 0.51303 0.55710-0.26684  0 139.95 392.86  156.46 139.77 392.83  156.51
   5  -3   4 25491.2   335.9   2-0.16692 0.80518-0.50779 0.20921 0.84515-0.55490  0 168.67 427.77   50.45 168.44 427.43   50.58
   5  -3   4 23538.5   318.3   2 0.03601 0.60236-0.99415 0.69537-0.10185 0.39195  0 105.63 319.97  115.97 105.09 319.57  116.21
   5   3  -4 27152.7   445.9   2 0.13089 0.50747-0.24205 0.54049-0.96139 0.67108  0 204.15 456.74  185.98 203.88 456.29  186.01
   5   3  -4 23495.5   403.5   2-0.09136 0.72956 0.97622-0.67748-0.19661-0.09364  0  98.29 280.19  279.09  97.96 279.65  279.32
  -5  -3  -5  2563.5   286.6   1-0.24374-0.39487 0.48809-0.78652-0.83807 0.47483  0  88.94 222.15   11.54  88.79 222.18   11.55
  -5  -3  -5  1615.6   174.2   2 0.12618-0.76454-0.12599-0.17245-0.98398 0.62108  0 477.80  27.30  192.89 478.12  27.37  192.79
  -5  -3   5  2045.6   254.1   1-0.68887 0.05019-0.35125 0.05281-0.63410 0.99734  0 133.31 111.58   69.69 133.30 111.84   69.62
  -5   3  -5  1262.3   211.5   2-0.16346-0.47469 0.96302-0.66437 0.21418-0.57730  0 434.03  10.42  303.57 434.02  10.56  303.46
   5  -3  -5  1273.6   179.6   2 0.01996 0.61841-0.99977 0.70099-0.00741-0.35521  0 236.15 490.78  110.64 235.83 490.76  110.73
   5  -3  -5  1887.1   207.6   2 0.09096 0.54716 0.29735-0.59595-0.95042 0.58776  0  86.25 243.01  217.22  86.07 243.06  217.32
   5  -3   5  1491.5   223.0   1-0.19591 0.83511-0.81983 0.52142 0.53805-0.17523  0 119.97 384.18  154.73 119.85 384.15  154.88
   5  -3   5  1847.5   158.7   2-0.19217 0.83032-0.34583 0.04733 0.91841-0.55527  0 166.15 443.57   40.29 166.26 443.39   40.26
   5  -3   5  1438.2   134.5   2 0.01645 0.62191-0.99977 0.70099 0.01357 0.34904  0  92.34 315.95  109.32  92.12 315.73  109.51
   5   3  -5  1635.9   186.6   2 0.13284 0.50552-0.35622 0.65466-0.92491 0.56202  0 214.40 479.70  179.38 214.62 479.50  179.13
   5   3  -5  1661.8   174.8   2-0.08711 0.72531 0.97190-0.67316-0.21868-0.14414  0  85.55 263.86  278.17  85.55 263.55  278.00
  -5  -3  -6  6195.5   384.3   1-0.21520-0.42341 0.51845-0.81688-0.82758 0.39170  0  73.31 231.75    9.11  73.17 231.93    9.08
  -5  -3   6  4783.5   326.2   1-0.70133 0.06265-0.45342 0.15499-0.55004 0.98593  0 126.51  95.30   76.68 126.30  95.10   77.24
   5  -3  -6  5463.2   302.6   2 0.08115 0.55697 0.37252-0.67112-0.92447 0.48927  0  73.25 227.88  222.01  73.05 227.98  221.92
   5  -3   6  5031.7   365.7   1-0.20638 0.84559-0.82429 0.52587 0.52722-0.09184  0  98.87 376.17  153.83  98.61 376.06  153.98
   5  -3   6  4553.5   219.3   2-0.20942 0.84757-0.19981-0.09869 0.95719-0.52143  0 163.97 464.00   31.56 163.98 463.73   31.53
   5  -3   6  4415.3   195.5   2-0.00001 0.63838-0.99441 0.69562 0.10563 0.32951  0  76.65 311.08  103.98  76.26 310.79  104.15
   5   3  -6  4954.3   262.3   2-0.08195 0.72016 0.96599-0.66725-0.24525-0.19013  0  71.71 247.71  276.27  71.43 247.36  276.41
   5   3   6  4399.0   141.9   2-0.20750 0.84565 0.82467-0.52602 0.52618-0.09044  0 129.68 427.51  323.41 129.68 427.04  323.48
  -5  -3  -7 959.080 229.885   1-0.19284-0.44578 0.54139-0.83981-0.81836 0.30983  0  54.66 242.36    6.93  54.93 242.14    7.17
  -5  -3   7 681.636 204.327   1-0.70166 0.06298-0.54545 0.24702-0.45843 0.96696  0 117.12  75.69   85.39 116.90  75.86   84.68
   5  -3  -7 713.756 169.739   2 0.07318 0.56494 0.42650-0.72510-0.90152 0.39378  0  57.39 212.02  224.99  57.65 212.01  225.30
   5  -3   7 592.996 211.203   1-0.21026 0.84946-0.82584 0.52743 0.52324-0.01530  0  75.59 368.38  153.68  75.53 368.43  153.65
   5  -3   7 752.795 139.241   2-0.22054 0.85869-0.08021-0.21829 0.97207-0.46368  0 160.02 488.21   24.97 160.76 488.28   24.60
   5  -3   7 560.145 112.544   2-0.01530 0.65356-0.98276 0.68417 0.18426 0.32368  0  57.92 305.48   99.51  57.62 305.54   99.48
   5   3  -7 581.958 142.222   2-0.07622 0.71442 0.95847-0.65973-0.27481-0.23313  0  55.01 230.96  274.59  55.13 230.72  274.63
   5   3   7 775.480  96.397   2-0.23324 0.87139 0.11928 0.17922 0.96508-0.45668  0  66.80 345.62   12.98  66.66 345.17   13.11
   5   3   7 811.069 107.759   2-0.20533 0.84348 0.83580-0.53716 0.50919-0.00082  0 128.77 457.21  322.90 129.80 457.74  322.31
  -5  -3  -8 220.145 200.862   1-0.17620-0.46242 0.55794-0.85637-0.81096 0.22978  0  34.20 253.15    5.47  33.63 253.07    5.76
  -5  -3   8-117.280 195.548   1-0.69076 0.05207-0.62578 0.32735-0.36228 0.94347  0 104.68  52.99   91.14 104.88  53.39   91.89
   5  -3  -8-164.669 155.833   2 0.06726 0.57086 0.46462-0.76322-0.88295 0.30268  0  40.04 194.57  227.57  39.31 194.71  227.75
   5  -3   8 101.812 199.516   1-0.20889 0.84810-0.82530 0.52688 0.52464 0.05586  0  50.47 360.75  153.53  49.91 361.12  153.77
   5  -3   8  79.425 108.789   2-0.02811 0.66637-0.96754 0.66895 0.25117 0.32933  0  35.63 300.05   95.46  35.49 300.18   95.46
   5   3  -8  -2.896 147.768   2-0.06992 0.70812 0.94938-0.65065-0.30624-0.27427  0  36.59 213.08  272.59  36.04 213.17  272.73
   5   3   8 -67.682  91.184   2-0.22528 0.86343-0.01766 0.31616 0.97413-0.39312  0  42.39 335.86   21.43  42.19 336.86   21.00
   5   3   8  89.476 120.951   2-0.20641 0.84456 0.83034-0.53170 0.51762 0.06337  0 126.17 489.61  323.02 126.29 489.85  322.89
  -5  -4   0  4236.4   293.8   1-0.51401-0.12460 0.11355-0.51145-0.85023 0.85023  0 113.16 185.80   38.10 113.06 185.90   38.24
  -5  -4   0  3368.7   272.7   2 0.09494-0.73330-0.86279 0.46441-0.49657 0.49657  0 436.64  37.98  140.10 436.89  38.09  140.33
  -5   4   0  3994.4   252.1   1-0.69707 0.05839-0.40734 0.80525-0.59005 0.59005  0 389.11  24.88   73.85 389.15  24.98   73.74
   5  -4   0  3437.0   183.4   1 0.00503 0.63418-0.70432 0.30643 0.70987-0.70987  0 221.75 462.39  171.54 221.42 462.08  171.47
   5  -4   0  3624.1   214.2   2-0.08511 0.72337-0.84714 0.44903 0.52451-0.52451  0 202.40 450.25   77.90 202.24 450.09   77.96
   5  -4   0  3789.6   187.5   2 0.13139 0.50697-0.50022 0.10230-0.85587 0.85587  0 102.28 283.16  169.97 101.96 283.01  169.95
   5   4   0  3864.2   154.5   2 0.02907 0.60905 0.66386-0.26572-0.74729 0.74729  0 166.40 419.93  241.85 166.55 419.76  241.77
   5   4   0  3369.2   138.4   2-0.16044 0.79859 0.96757-0.56937 0.19513-0.19513  0 111.05 326.16  302.58 110.90 326.10  302.32
  -5  -4  -1 12001.4   444.1   1-0.46842-0.17020 0.19122-0.58912-0.86257 0.78992  0 108.76 196.10   33.00 108.53 196.12   33.03
  -5  -4  -1  8648.4   305.8   2 0.10958-0.74794-0.78089 0.38252-0.61498 0.54246  0 446.98  39.94  148.44 447.36  40.01  148.58
  -5  -4   1 11562.9   429.9   1-0.55898-0.07964 0.02777-0.42568-0.82872 0.90136  0 115.76 175.12   44.01 115.49 175.16   43.92
  -5  -4   1  8278.5   333.5   2 0.08037-0.71874-0.91713 0.51875-0.39041 0.46294  0 424.38  31.62  133.34 424.92  31.71  133.49
  -5   4  -1  9570.9   363.3   1-0.70308 0.06440-0.50226 0.90017-0.50339 0.43075  0 423.85  30.88   81.02 423.99  31.25   81.11
  -5   4  -1  9520.4   378.5   2-0.23662-0.40158 0.49090-0.09279 0.83847-0.91111  0 400.27  25.13  350.05 400.38  25.61  350.04
  -5   4   1 12109.6   208.6   1-0.22611-0.41250 0.50702-0.10911-0.83175 0.90440  0 257.69  35.47   10.08 257.74  35.87   10.02
  -5   4   1 10430.0   207.1   1-0.64568 0.00699-0.18285 0.58076-0.74140 0.81404  0 344.44  19.26   57.98 344.30  19.62   57.92
  -5   4   1  8548.2   389.4   2-0.23523-0.40292 0.16529 0.23271 0.95778-0.88515  0 383.54  22.15   10.37 383.74  22.46   10.44
   5  -4  -1  9469.7   293.0   2-0.06475 0.70301-0.89976 0.50165 0.43155-0.50411  0 209.61 457.00   84.10 209.51 456.80   84.17
   5  -4  -1  9553.3   278.3   2 0.13267 0.50569-0.33462-0.06331-0.93297 0.86039  0 100.30 274.99  180.40  99.96 274.80  180.45
   5  -4   1  9271.6   288.8   1-0.10584 0.74505-0.77555 0.37766 0.62235-0.54979  0 196.33 447.42  162.27 196.07 447.34  162.40
   5  -4   1  9233.1   272.9   2-0.10733 0.74559-0.77612 0.37801 0.62138-0.54882  0 195.96 447.56   70.94 195.80 447.26   70.99
   5  -4   1  9976.2   264.1   2 0.12306 0.51530-0.65602 0.25810-0.74464 0.81722  0 101.78 289.61  158.93 101.45 289.40  158.98
   5   4  -1 10249.5   243.5   2 0.07109 0.56703 0.44003-0.04190-0.89516 0.82263  0 176.47 431.70  226.15 176.56 431.37  226.16
   5   4  -1  8581.3   217.4   2-0.14942 0.78762 0.98017-0.58185 0.13019-0.20276  0 106.06 312.93  298.59 105.76 312.55  298.51
   5   4   1  9660.1   180.1   2-0.02406 0.66226 0.85113-0.45281-0.52441 0.59697  0 156.52 411.20  259.08 156.90 411.26  258.78
   5   4   1  8390.1   170.9   2-0.17356 0.81171 0.94411-0.54591 0.28025-0.20762  0 113.68 337.97  307.85 113.57 338.07  307.48
  -5  -4  -2  5308.3   327.1   1-0.42424-0.21438 0.25971-0.65761-0.86751 0.72222  0 102.19 206.13   28.26 102.07 206.07   28.36
  -5  -4  -2  3829.8   268.2   2 0.12241-0.76077-0.66514 0.26722-0.73662 0.59146  0 455.15  36.63  158.31 455.66  36.83  158.30
  -5  -4   2  5076.9   326.9   1-0.60107-0.03761-0.06416-0.33375-0.79662 0.94191  0 116.10 163.73   50.30 115.90 163.77   50.01
  -5  -4   2  4078.1   322.7   2 0.06691-0.70528-0.95248 0.55411-0.29716 0.44221  0 411.92  21.52  127.67 412.13  21.67  127.76
  -5   4  -2  4386.9   367.3   1-0.70120 0.06251-0.55214 0.95005-0.45107 0.30578  0 457.11  36.74   85.28 457.06  36.78   85.25
  -5   4  -2  4349.1   333.3   2-0.23017-0.40798 0.63656-0.23837 0.73608-0.88132  0 406.38  20.30  339.86 406.20  20.54  339.88
  -5   4   2  4320.4   365.4   2-0.22764-0.41051 0.01678 0.38122 0.97360-0.82835  0 373.62  14.85   18.99 373.59  15.27   19.02
   5  -4  -2  3688.3   237.8   2-0.04671 0.68496-0.93761 0.53950 0.34453-0.48966  0 217.67 467.14   89.79 217.46 467.02   89.72
   5  -4  -2  3829.4   213.2   2 0.12850 0.50986-0.17526-0.22267-0.97610 0.83094  0  95.85 265.34  189.87  95.66 265.09  189.93
   5  -4   2  4158.5   249.3   1-0.17133 0.81054-0.80903 0.41114 0.56225-0.41712  0 174.20 434.86  156.96 174.12 434.77  156.95
   5  -4   2  3760.9   208.4   2-0.13087 0.76913-0.68607 0.28796 0.71567-0.57054  0 190.52 448.84   63.16 190.19 448.65   63.41
   5  -4   2  3891.3   186.4   2 0.10903 0.52933-0.78458 0.38620-0.61037 0.75542  0  98.47 293.84  148.06  98.21 293.44  148.24
   5   4  -2  4052.6   206.8   2 0.09946 0.53867 0.22424 0.17389-0.96945 0.82438  0 186.68 446.02  212.89 186.59 445.71  212.97
   5   4  -2  3631.6   176.6   2-0.13984 0.77804 0.98749-0.58917 0.07290-0.21803  0  99.19 299.10  295.10  98.96 298.73  295.12
   5   4   2  3874.9   117.6   2-0.07662 0.71482 0.95902-0.56070-0.27278 0.41791  0 148.30 407.87  275.09 148.58 407.96  274.75
   5   4   2  3378.8   113.0   2-0.19066 0.82880 0.89709-0.49889 0.39860-0.25335  0 112.76 346.51  315.39 112.81 346.95  314.94
  -5  -4  -3  1098.4   213.5   1-0.38265-0.25597 0.31812-0.71602-0.86740 0.64946  0  93.37 215.76   24.27  93.56 215.87   24.25
  -5  -4  -3 845.026 169.342   2 0.13074-0.76911-0.51765 0.11973-0.84554 0.62780  0 461.45  27.30  168.96 461.74  27.28  168.79
  -5  -4   3  1072.5   190.5   1-0.63788-0.00081-0.15998-0.23793-0.75334 0.97128  0 114.33 151.54   56.32 114.28 151.60   56.38
  -5  -4   3 957.337 227.190   2 0.05437-0.69273-0.97496 0.57658-0.21564 0.43321  2 398.99   8.46  122.66 398.88   8.34  122.89
  -5   4  -3 975.563 268.902   1-0.69851 0.05983-0.57974 0.97765-0.41951 0.20157  0 491.21  41.76   87.52 491.25  41.38   87.66
  -5   4  -3 909.772 219.588   2-0.21798-0.42016 0.75744-0.35925 0.61544-0.83331  0 410.99  10.89  330.04 410.96  10.93  329.99
   5  -4  -3 854.203 156.372   2-0.03067 0.66893-0.96393 0.56582 0.26437-0.48205  0 226.01 480.57   94.64 225.99 480.74   94.66
   5  -4  -3  1041.9   142.6   2 0.12106 0.51730-0.03351-0.36441-0.99208 0.77434  0  89.39 254.20  198.05  89.22 254.07  198.10
   5  -4   3  1143.1   179.7   1-0.21161 0.85081-0.82638 0.42849 0.52185-0.30416  0 153.47 423.81  153.54 153.30 423.76  153.54
   5  -4   3 908.420 128.715   2-0.15388 0.79214-0.57917 0.18105 0.80055-0.58287  0 185.54 454.37   55.39 185.44 454.42   55.46
   5  -4   3 871.051 112.983   2 0.09102 0.54735-0.87942 0.48104-0.46727 0.68484  0  91.98 296.26  137.88  91.98 295.51  138.40
   5   4  -3 911.751 138.539   2 0.11618 0.52195 0.04133 0.35680-0.99237 0.77477  0 196.35 462.47  202.48 196.48 462.50  202.36
   5   4  -3 883.690 118.683   2-0.13099 0.76919 0.99117-0.59285 0.02081-0.23850  0  90.33 284.87  291.99  90.48 284.60  292.07
   5   4   3  1187.7    92.5   2-0.11565 0.75385 0.99112-0.59280-0.06568 0.28337  0 142.52 411.83  287.43 142.92 412.13  287.01
   5   4   3 993.664  87.958   2-0.21103 0.84918 0.80435-0.40615 0.55542-0.33755  0 107.04 349.91  325.91 107.10 350.37  325.55
  -5  -4  -4  1533.3   229.0   1-0.34558-0.29304 0.36763-0.76553-0.86338 0.57279  0  83.19 225.67   20.69  82.90 225.70   20.71
  -5  -4  -4  1266.5   192.3   2 0.13283-0.77119-0.35481-0.04312-0.92546 0.63514  0 465.65  11.42  179.32 466.12  11.38  179.21
  -5  -4   4  1351.5   210.0   1-0.66755 0.02887-0.25659-0.14132-0.69895 0.98954  0 110.32 138.31   62.63 110.43 138.31   62.95
   5  -4  -4  1178.3   187.2   2-0.01644 0.65470-0.98159 0.58348 0.19030-0.48055  0 235.39 497.87   98.96 234.99 497.98   99.12
   5  -4  -4  1566.1   178.6   2 0.11267 0.52545 0.08581-0.48394-0.98992 0.69979  0  80.88 241.86  204.91  80.77 241.92  204.92
   5  -4   4  1178.1   200.3   1-0.23604 0.87524-0.83562 0.43773 0.49601-0.20576  0 132.90 413.64  151.38 132.59 413.99  151.43
   5  -4   4  1030.2   135.8   2-0.17495 0.81310-0.46284 0.06484 0.86901-0.57850  0 180.84 464.73   47.88 181.28 464.56   47.61
   5  -4   4  1081.2   124.5   2 0.07159 0.56678-0.94146 0.54308-0.32944 0.61953  0  83.12 295.36  129.89  82.81 295.58  129.71
   5   4  -4  1386.0   177.5   2 0.12507 0.51329-0.10363 0.50155-0.98672 0.69641  0 205.95 482.41  194.17 206.01 481.96  194.07
   5   4  -4  1055.3   135.9   2-0.12244 0.76064 0.99209-0.59377-0.02782-0.26243  0  80.58 270.21  289.27  80.33 270.19  289.22
   5   4   4  1193.5   108.3   2-0.13967 0.77787 0.98759-0.58927 0.07188 0.21837  0 139.21 423.54  295.54 139.73 423.90  295.06
   5   4   4  1084.5   100.8   2-0.22830 0.86645 0.66043-0.26224 0.71533-0.42484  0  96.55 348.41  338.27  96.41 348.67  338.05
  -5  -4  -5 204.230 176.908   1-0.31314-0.32547 0.40817-0.80607-0.85752 0.49428  0  70.20 235.82   18.13  70.04 235.75   17.72
  -5  -4   5 214.442 160.830   1-0.68880 0.05012-0.35086-0.04705-0.63439 0.99763  0 104.28 123.67   70.25 104.34 123.56   69.60
   5  -4  -5 258.139 128.614   2 0.10396 0.53417 0.18172-0.57985-0.97784 0.61517  0  69.89 228.68  210.46  70.09 228.66  210.48
   5  -4   5 124.837 179.064   1-0.24976 0.88896-0.84031 0.44243 0.48114-0.11832  0 111.47 404.89  150.49 111.18 405.21  150.25
   5  -4   5 286.458 124.003   2-0.19208 0.83023-0.34651-0.05149 0.91817-0.55503  0 177.68 479.54   40.04 177.38 479.41   40.30
   5  -4   5 169.920  90.282   2 0.05257 0.58580-0.97748 0.57911-0.20437 0.56699  0  70.47 294.40  121.97  70.60 294.04  122.22
   5   4  -5 178.086 159.933   2 0.13011 0.50825-0.21497 0.61289-0.96792 0.60502  2 216.26 503.70  187.38 215.90 504.99  187.60
   5   4  -5 313.965 114.458   2-0.11409 0.75229 0.99068-0.59236-0.07442-0.28839  0  68.26 255.37  286.51  68.31 255.38  286.50
   5   4   5 323.749  80.139   2-0.15593 0.79408 0.97353-0.57534 0.16709 0.19603  0 137.05 441.21  300.81 137.29 441.26  300.64
   5   4   5 162.701  69.770   2-0.23663 0.87483 0.49039-0.09228 0.83876-0.47556  0  81.66 343.09  350.46  81.90 343.78  350.08
  -5  -4  -6  9379.0   457.6   1-0.28582-0.35280 0.44071-0.83861-0.85093 0.41505  0  54.80 246.20   14.96  54.60 246.21   15.25
  -5  -4   6  8166.2   420.1   1-0.70042 0.06173-0.44089 0.04298-0.56128 0.99717  0  96.12 106.95   75.83  95.79 106.88   76.28
   5  -4  -6  8727.3   382.5   2 0.09583 0.54230 0.25658-0.65471-0.96176 0.52656  0  57.35 214.05  215.23  57.03 214.29  214.88
   5  -4   6  6415.8   400.2   1-0.25577 0.89498-0.84227 0.44439 0.47451-0.03913  0  88.82 397.29  149.67  88.49 397.22  149.72
   5  -4   6  7316.2   310.6   2-0.20523 0.84338-0.23913-0.15887 0.94905-0.51329  0 173.20 499.16   33.98 173.22 498.81   33.84
   5  -4   6  7014.6   266.7   2 0.03461 0.60376-0.99502 0.59664-0.09353 0.52867  0  55.71 291.32  115.74  55.33 291.28  115.72
   5   4  -6  6945.7   319.1   2-0.10586 0.74406 0.98715-0.58883-0.11970-0.31568  0  54.43 240.31  283.87  54.10 239.98  283.85
   5   4   6  7019.9   229.3   2-0.16702 0.80516 0.95701-0.55881 0.23715 0.19859  0 134.20 463.58  304.95 134.28 463.12  304.86
  -5  -4  -7  2243.6   284.4   1-0.26362-0.37500 0.46608-0.86398-0.84456 0.33603  0  35.92 257.18   13.41  36.28 257.34   13.29
  -5  -4   7  1990.3   280.1   1-0.70274 0.06405-0.52382 0.12591-0.48144 0.98997  0  84.57  87.49   82.61  84.61  87.71   82.87
   5  -4  -7  2413.0   289.2   2 0.08897 0.54915 0.31390-0.71203-0.94528 0.43754  0  40.83 198.68  218.29  41.26 198.56  218.33
   5  -4   7  1509.9   262.5   1-0.25596 0.89517-0.84233 0.44445 0.47430 0.03365  0  64.17 389.51  149.54  63.81 389.90  149.71
   5  -4   7  1888.3   208.5   2 0.01812 0.62025-0.99983 0.60145 0.00414 0.50353  0  36.77 288.04  109.92  36.73 287.79  110.06
   5   4  -7  2199.3   263.3   2-0.09760 0.73580 0.98163-0.58331-0.16393-0.34401  0  37.23 224.07  281.24  37.34 223.75  281.25
   5   4   7  1792.7   172.0   2-0.23646 0.87461 0.19984 0.19816 0.95087-0.44248  0  44.47 333.17    8.61  44.12 333.52    8.41
   5   4   7  1931.4   223.0   2-0.17597 0.81412 0.93876-0.54057 0.29624 0.21212  0 129.93 489.27  308.47 129.78 489.06  308.49
  -5  -5   0  51.406 171.233   1-0.54947-0.08914 0.04684-0.54421-0.83420 0.83420  0  86.95 197.41   42.52  86.91 197.60   42.66
   5  -5   0  -8.647  96.763   1-0.07742 0.71663-0.75894 0.26158 0.64654-0.64654  0 219.99 492.12  164.92 219.86 491.88  164.74
   5  -5   0 -43.046 128.334   2-0.10315 0.74140-0.79042 0.29278 0.60382-0.60382  0 213.58 488.67   72.43 213.80 488.51   72.30
   5  -5   0  58.822  95.287   2 0.13169 0.50668-0.48933-0.00807-0.86210 0.86210  0  78.91 261.99  170.48  79.01 261.71  170.67
   5   5   0 -12.431  98.495   2 0.04198 0.59614 0.60411-0.10644-0.79579 0.79579  0 174.19 460.39  237.06 173.75 460.26  237.30
   5   5   0  20.589  79.828   2-0.18950 0.82765 0.90091-0.40317 0.39044-0.39044  0  83.37 305.54  314.42  83.32 305.59  314.42
  -5  -5  -1 12693.2   485.2   1-0.51181-0.12680 0.11748-0.61486-0.85103 0.77838  0  83.47 208.18   38.14  83.31 208.22   37.98
  -5  -5   1 12869.6   472.8   1-0.58606-0.05256-0.02976-0.46761-0.80972 0.88237  0  88.62 186.58   47.75  88.44 186.58   47.72
   5  -5  -1 10758.0   372.5   2-0.08471 0.72297-0.84829 0.35065 0.52272-0.59528  0 220.91 494.46   77.99 220.63 494.24   78.09
   5  -5  -1 11114.9   340.4   2 0.13285 0.50551-0.35829-0.13911-0.92411 0.85153  0  78.07 254.75  179.01  77.74 254.54  179.00
   5  -5   1 10741.3   319.3   1-0.17761 0.81682-0.81186 0.31450 0.55619-0.48362  0 190.70 475.21  156.28 190.58 475.11  156.43
   5  -5   1 10415.1   348.3   2-0.12225 0.76051-0.72071 0.22307 0.68237-0.60981  0 207.67 486.97   66.09 207.55 486.65   66.20
   5  -5   1 10896.7   325.0   2 0.12593 0.51243-0.61553 0.11813-0.77799 0.85057  0  78.12 267.55  161.94  77.84 267.34  161.99
   5   5  -1 11493.6   318.9   2 0.07076 0.56737 0.44219 0.05548-0.89413 0.82159  0 182.06 469.26  226.16 182.01 468.84  226.30
   5   5  -1  9946.7   280.9   2-0.17743 0.81558 0.93537-0.43762 0.30595-0.37857  0  80.47 295.59  309.20  80.35 295.59  309.08
   5   5   1 11617.3   280.0   2 0.00800 0.63013 0.74946-0.25179-0.66200 0.73453  0 165.81 455.66  248.94 166.03 455.52  248.81
   5   5   1  9311.9   247.0   2-0.20204 0.84019 0.85174-0.35400 0.48344-0.41082  0  83.70 313.81  320.79  83.66 313.96  320.55
  -5  -5  -2  3738.9   319.2   1-0.47462-0.16399 0.18113-0.67850-0.86135 0.71606  0  77.77 218.66   33.64  77.47 218.58   33.72
  -5  -5   2  3473.1   333.5   1-0.61996-0.01873-0.11081-0.38658-0.77677 0.92207  0  88.07 175.10   53.33  87.84 174.98   53.10
   5  -5  -2  3226.4   282.2   2-0.06705 0.70530-0.89430 0.39666 0.44242-0.58755  2 228.32 503.47   83.30 228.12 503.85   83.46
   5  -5  -2  2908.7   228.5   2 0.13056 0.50780-0.23056-0.26684-0.96426 0.81910  0  74.14 246.18  186.65  74.09 245.91  186.69
   5  -5   2  2748.7   253.8   1-0.23312 0.87233-0.83458 0.33722 0.49913-0.35401  0 166.22 461.33  151.72 166.12 461.29  151.68
   5  -5   2  3001.8   261.1   2-0.14125 0.77950-0.64025 0.14261 0.75507-0.60995  0 202.34 488.92   59.67 201.80 488.79   59.90
   5   5  -2  3010.2   245.2   2 0.09290 0.54523 0.28159 0.21608-0.95503 0.80996  0 190.75 481.41  216.31 190.62 481.12  216.38
   5   5  -2  2564.6   197.1   2-0.16590 0.80405 0.95895-0.46121 0.22998-0.37523  0  75.29 284.17  304.70  75.03 284.36  304.43
   5   5   2  2810.6   179.6   2-0.02828 0.66648 0.86260-0.36470-0.50510 0.65023  0 158.51 455.01  260.29 158.85 454.94  260.09
   5   5   2  2575.0   163.5   2-0.21425 0.85240 0.78370-0.28595 0.58303-0.43778  0  80.94 320.17  327.70  81.03 320.18  327.58
  -5  -5  -3 435.144 183.060   1-0.43916-0.19945 0.23715-0.73453-0.86654 0.64860  0  69.69 228.93   30.13  69.52 228.92   29.90
  -5  -5   3  79.451 166.366   1-0.64950 0.01082-0.19457-0.30282-0.73504 0.95299  0  85.19 162.73   58.47  85.04 162.58   58.72
   5  -5  -3  88.306 122.126   2 0.12558 0.51278-0.11338-0.38402-0.98558 0.76785  0  68.05 236.03  193.33  68.15 235.94  193.51
   5  -5   3  30.589 154.171   1-0.26537 0.90475-0.84508 0.34745 0.46414-0.24638  0 143.21 449.62  148.71 143.46 449.47  148.90
   5  -5   3 213.397 142.531   2-0.15905 0.79731-0.55153 0.05389 0.81885-0.60117  0 196.56 495.27   53.59 196.57 495.12   53.54
   5  -5   3 202.393 110.053   2 0.10353 0.53483-0.81934 0.32137-0.56388 0.78146  0  67.41 273.73  144.61  67.59 273.37  144.91
   5   5  -3 351.816 147.923   2 0.10844 0.52969 0.13589 0.36178-0.98477 0.76717  0 200.01 496.53  207.51 199.38 496.79  207.82
   5   5  -3 103.000  99.283   2-0.15493 0.79308 0.97473-0.47698 0.16095-0.37882  0  68.19 271.66  300.63  67.53 272.17  300.27
   5   5   3 149.542  95.197   2-0.06211 0.70031 0.93630-0.43841-0.34566 0.56335  0 151.93 459.23  270.63 152.44 459.45  270.31
   5   5   3 266.797  90.764   2-0.22508 0.86323 0.69554-0.19780 0.68232-0.46445  0  75.04 324.12  335.31  75.03 324.11  335.27
  -5  -5  -4 13899.9   526.4   1-0.40651-0.23211 0.28546-0.78283-0.86791 0.57732  0  59.47 239.40   26.57  59.21 239.41   26.56
  -5  -5   4 12348.4   480.9   1-0.67335 0.03466-0.27902-0.21837-0.68466 0.97525  0  80.19 149.04   64.43  79.90 149.03   64.50
   5  -5  -4 12868.6   413.3   2 0.11949 0.51887-0.01025-0.48715-0.99278 0.70247  0  60.11 224.55  199.36  59.83 224.60  199.44
   5  -5   4 10243.5   427.3   1-0.28378 0.92317-0.85040 0.35277 0.44305-0.15270  0 121.44 439.20  147.27 121.02 439.29  147.26
   5  -5   4 10734.7   331.6   2 0.08828 0.55009-0.89004 0.39207-0.44726 0.73735  0  58.62 274.37  137.08  58.19 274.18  137.09
   5   5  -4 10352.7   345.1   2-0.14420 0.78240 0.98466-0.48677 0.09821-0.38846  0  57.99 259.19  296.76  57.72 258.91  296.62
   5   5   4 10906.4   279.7   2-0.09067 0.72887 0.97554-0.47764-0.20027 0.49052  0 146.40 469.29  279.32 146.68 469.05  279.10
   5   5   4  9822.3   258.8   2-0.23319 0.87134 0.59100-0.09325 0.77223-0.48174  0  65.75 325.53  343.42  65.65 325.80  343.24
  -5  -5  -5  4575.8   367.8   1-0.37696-0.26166 0.32588-0.82325-0.86701 0.50378  0  46.74 250.29   23.66  46.39 250.21   23.70
  -5  -5   5  3610.7   338.3   1-0.69068 0.05200-0.36178-0.13561-0.62616 0.98940  0  72.58 134.01   70.35  72.38 134.06   70.39
   5  -5  -5  3565.8   294.8   2 0.11331 0.52482 0.07706-0.57473-0.99057 0.62790  0  49.22 211.80  204.38  49.11 211.99  204.42
   5  -5   5  2995.2   335.7   1-0.29285 0.93223-0.85275 0.35512 0.43251-0.06958  0  98.29 430.52  146.38  97.93 430.38  146.46
   5  -5   5  3349.0   239.8   2 0.07211 0.56626-0.94019 0.44222-0.33293 0.69555  0  46.13 273.69  129.99  45.77 273.67  129.93
   5   5  -5  2587.7   244.6   2-0.13398 0.77218 0.99022-0.49232 0.03887-0.40169  0  45.87 245.36  293.24  45.66 245.02  293.13
   5   5   5  3312.7   222.0   2-0.11407 0.75227 0.99067-0.49278-0.07452 0.43733  0 141.06 483.89  286.58 140.98 483.77  286.50
   5   5   5  2789.9   181.7   2-0.23699 0.87519 0.47669 0.02095 0.84652-0.48333  0  52.79 325.35  351.00  52.70 325.19  350.99
  -5  -5  -6  6470.7   414.6   1-0.35186-0.28675 0.35952-0.85689-0.86426 0.42838  0  30.76 261.73   21.35  30.70 261.64   21.30
  -5  -5   6  5159.2   396.7   1-0.70047 0.06179-0.44161-0.05578-0.56064 0.99653  0  62.39 117.05   75.85  62.10 117.11   76.33
   5  -5  -6  5834.4   363.1   2 0.10720 0.53092 0.14887-0.64654-0.98303 0.54783  0  35.64 197.82  208.58  35.61 197.84  208.57
   5  -5   6  4325.6   414.4   1-0.29520 0.93458-0.85333 0.35571 0.42974 0.00578  0  73.79 422.15  146.24  73.43 422.53  146.25
   5   5  -6  4185.2   300.6   2-0.12429 0.76249 0.99209-0.49419-0.01779-0.41759  0  31.38 230.47  290.00  30.97 230.30  289.82
   5   5   6  4527.6   274.3   2-0.13279 0.77099 0.99063-0.49273 0.03192 0.40346  2 134.84 503.62  292.84 134.70 503.48  292.72
  -5  -6   0 170.567 200.617   1-0.58096-0.05766-0.01847-0.57838-0.81372 0.81372  0  56.31 209.76   46.90  56.27 209.63   46.97
   5  -6   0 186.542 131.203   2 0.13142 0.50694-0.49925-0.09763-0.85643 0.85643  0  51.86 240.66  170.35  52.03 240.51  170.01
   5   6   0 183.141 151.721   2 0.04445 0.59368 0.59203 0.00517-0.80469 0.80469  2 176.80 503.87  236.46 176.91 505.07  236.42
   5   6   0 314.481 106.648   2-0.20138 0.83953 0.85470-0.25741 0.47847-0.47847  0  52.56 288.95  319.94  52.93 288.50  320.21
  -5  -6  -1  3406.3   340.0   1-0.55010-0.08851 0.04559-0.64244-0.83385 0.76121  0  53.69 220.83   43.13  53.24 220.80   42.74
  -5  -6   1  3484.1   342.6   1-0.61048-0.02821-0.08714-0.50972-0.78723 0.85988  0  57.18 198.12   51.47  56.97 198.11   51.53
   5  -6  -1  2881.9   257.7   2 0.13307 0.50529-0.39116-0.20572-0.91065 0.83807  0  51.41 233.89  177.00  51.14 233.76  176.96
   5  -6   1  2918.3   247.2   2 0.12662 0.51175-0.60444 0.00756-0.78653 0.85910  0  50.51 245.96  162.80  50.37 245.83  162.79
   5   6  -1  2770.7   219.2   2-0.19084 0.82899 0.89647-0.29918 0.39989-0.47252  0  50.82 279.77  315.06  50.82 279.77  315.02
   5   6   1  2837.5   255.8   2 0.01819 0.61994 0.71000-0.11280-0.70397 0.77650  0 169.30 501.63  245.53 169.45 501.38  245.45
   5   6   1  2546.3   211.2   2-0.21139 0.84954 0.80187-0.20457 0.55886-0.48624  0  52.49 295.61  325.98  52.40 295.82  325.82
  -5  -6  -2  90.761 178.225   1-0.51923-0.11938 0.10430-0.70115-0.84824 0.70295  0  48.65 232.17   38.41  47.96 231.85   38.86
  -5  -6   2 317.493 188.638   1-0.63757-0.00111-0.15909-0.43777-0.75379 0.89908  0  55.33 186.22   56.42  55.39 186.06   56.32
   5  -6  -2 410.005 145.412   2 0.13189 0.50647-0.28555-0.31134-0.94925 0.80409  0  47.52 225.61  183.49  47.78 225.66  183.42
   5  -6   2 321.032 177.448   1-0.27982 0.91921-0.84931 0.25216 0.44762-0.30245  0 153.80 493.57  147.35 153.86 494.33  147.62
   5  -6   2  -4.290 116.196   2 0.11915 0.51921-0.70102 0.10414-0.70312 0.84828  0  46.15 249.90  155.42  46.06 249.69  155.49
   5   6  -2 136.953 124.919   2-0.18017 0.81832 0.92859-0.33130 0.32443-0.46968  0  46.06 269.61  310.30  46.12 269.79  310.24
   5   6   2  42.972 129.393   2-0.00983 0.64803 0.81010-0.21263-0.58621 0.73133  0 161.42 501.63  254.74 162.10 501.92  254.48
   5   6   2 140.807 103.312   2-0.22048 0.85863 0.73755-0.14026 0.63828-0.49304  0  49.35 301.06  332.09  48.90 301.70  331.75
  -5  -6  -3 13594.7   530.5   1-0.48929-0.14933 0.15692-0.75377-0.85789 0.63995  0  40.33 242.91   35.32  40.19 242.93   35.35
  -5  -6   3 13001.4   528.0   1-0.66104 0.02235-0.23303-0.36383-0.71325 0.93120  0  51.62 173.24   61.30  51.38 173.19   61.33
   5  -6  -3 12434.5   440.9   2 0.12908 0.50928-0.18616-0.41072-0.97400 0.75627  0  41.94 216.24  189.19  41.83 216.10  189.29
   5  -6   3  9777.6   424.2   1-0.30577 0.94515-0.85585 0.25870 0.41716-0.19940  0 128.99 481.60  145.19 128.92 481.54  145.30
   5  -6   3 11337.5   381.7   2 0.10897 0.52940-0.78500 0.18744-0.60984 0.82741  0  39.43 252.25  148.13  39.02 251.99  148.20
   5   6  -3  9923.8   367.0   2-0.16938 0.80753 0.95253-0.35524 0.25298-0.47085  0  39.04 258.81  305.89  38.90 258.67  305.83
   5   6   3  9876.4   303.4   2-0.22810 0.86625 0.66285-0.06555 0.71316-0.49529  0  42.44 305.80  337.99  42.36 306.03  337.87
  -5  -6  -4  15.403 202.403   1-0.46106-0.17756 0.20307-0.79992-0.86382 0.57323  0  28.99 254.38   32.50  29.79 254.33   32.23
  -5  -6   4 -45.369 198.008   1-0.68000 0.04132-0.30734-0.28953-0.66569 0.95628  0  44.96 159.42   66.72  44.86 159.22   66.49
   5  -6  -4 -41.664 158.074   2 0.12470 0.51366-0.09675-0.50014-0.98747 0.69715  0  33.14 205.18  194.39  33.33 205.15  194.47
   5  -6   4 417.929 211.144   1-0.31948 0.95886-0.85865 0.26150 0.40081-0.11046  0 104.11 470.93  144.53 104.39 470.87  144.06
   5  -6   4  85.750 139.115   2 0.09675 0.54162-0.85455 0.25699-0.51028 0.80038  0  29.18 252.68  141.52  28.93 253.23  141.24
   5   6  -4 158.650 141.655   2-0.15882 0.79696 0.96983-0.37253 0.18497-0.47546  0  28.34 246.88  301.45  29.10 246.53  301.72
   5   6   4  41.991 111.957   2-0.23377 0.87192 0.58066 0.01664 0.77987-0.48937  0  32.57 308.97  343.97  32.63 308.90  343.99
  -5  -6  -5  2043.0   295.6   1-0.43541-0.20320 0.24283-0.83968-0.86686 0.50363  0  16.45 266.27   29.54  16.66 266.28   29.51
  -5  -6   5  2024.1   291.1   1-0.69352 0.05483-0.38077-0.21609-0.61159 0.97483  0  36.03 143.91   71.69  35.56 143.68   71.77
   5  -6  -5  1649.2   258.6   2 0.12004 0.51832-0.01825-0.57863-0.99260 0.62971  0  22.24 192.63  199.00  21.91 192.59  198.98
   5  -6   5  1505.1   271.4   1-0.32503 0.96441-0.85974 0.26258 0.39397-0.03103  0  79.01 462.98  143.63  79.16 461.78  143.55
   5  -6   5  1458.1   195.8   2 0.08288 0.55549-0.90905 0.31149-0.40836 0.77097  0  15.70 253.63  134.48  15.60 253.38  134.60
   5   6  -5  1635.2   222.1   2-0.14797 0.78617 0.98151-0.38404 0.12138-0.48419  0  16.59 233.16  297.68  16.47 232.98  297.99
   5   6   5  1525.6   168.7   2-0.23653 0.87473 0.49396 0.10321 0.83670-0.47350  0  19.29 310.11  349.96  19.25 310.16  349.84
  -5  -7   0  40.759 209.840   1-0.60870-0.02998-0.08277-0.61357-0.78907 0.78907  0  19.08 222.55   51.40  19.26 222.55   51.24
   5  -7   0 405.764 163.276   2 0.13063 0.50773-0.52103-0.17534-0.84348 0.84348  0  18.73 218.26  168.52  18.84 218.24  168.57
   5   7   0  64.478 136.545   2-0.20653 0.84468 0.82975-0.13291 0.51851-0.51851  0  16.71 272.99  322.92  16.74 272.82  322.95
  -5  -7  -1  2027.7   296.1   1-0.58380-0.05482-0.02472-0.67161-0.81152 0.73888  0  16.64 234.62   47.40  16.74 234.56   47.39
   5  -7  -1  1557.7   227.2   2 0.13292 0.50544-0.42962-0.26675-0.89317 0.82060  0  17.89 211.86  174.40  18.18 211.54  174.53
   5  -7   1  1566.7   215.1   2 0.12626 0.51210-0.61032-0.08604-0.78203 0.85460  0  17.37 223.28  162.46  16.76 223.54  162.36
  -6   0   0 70692.8   796.7   1-0.38317-0.38317 0.31741-0.31741-0.86743 0.86743  0 161.55  94.50   24.26 161.53  94.59   24.30
  -6   0   0 54117.8   759.6   1-0.38363-0.38363-0.86716 0.86716 0.31760-0.31760  0 477.16  46.79  138.02 477.52  46.94  138.02
  -6   0  -1  53.199 144.994   1-0.30548-0.46086 0.41743-0.41743-0.85582 0.78317  0 149.21 106.59   17.56 149.19 106.62   17.02
  -6   0  -1  71.651 259.810   1-0.41319-0.35407-0.86777 0.86777 0.27615-0.34873  0 498.63  57.20  135.07 498.59  57.18  135.10
  -6   0   1 -50.853 123.733   1-0.46838-0.29796 0.19127-0.19127-0.86257 0.93522  0 172.99  81.60   34.58 172.84  81.32   33.03
  -6   0   1 -14.029 210.021   1-0.35316-0.41410-0.86420 0.86420 0.35837-0.28578  0 459.14  35.25  140.36 459.07  35.14  140.95
  -6   0  -2 165.285 157.880   1-0.23840-0.52794 0.49387-0.49387-0.83621 0.69092  0 136.00 117.65   12.35 135.76 117.57   11.08
  -6   0   2 374.018 129.469   1-0.55456-0.21178 0.03670-0.03670-0.83133 0.97663  0 183.43  66.07   43.52 183.32  66.43   43.33
  -6   0   2 136.181 204.446   1-0.32215-0.44511-0.85918 0.85918 0.39753-0.25235  0 442.50  21.34  143.59 442.74  21.52  143.82
  -6   0  -3 131.764 144.205   1-0.18270-0.58364 0.55156-0.55156-0.81388 0.59594  0 121.09 127.50    6.55 121.08 127.68    6.31
  -6   0   3  71.498 111.780   1-0.63111-0.13531-0.14087 0.14087-0.76279 0.98074  0 192.93  49.73   55.02 192.96  49.51   55.10
  -6   0   3  25.989 145.365   2-0.17061-0.59517-0.48970 0.48970 0.85503-0.63715  0 481.06  25.95   49.38 481.10  25.91   49.36
  -6   0  -4 345.854 182.525   1-0.13774-0.62860 0.59405-0.59405-0.79254 0.50196  0 104.55 136.74    2.58 104.92 137.06    2.55
  -6   0   4 296.201 118.293   1-0.68472-0.08171-0.32983 0.32983-0.64991 0.94050  0 202.00  29.87   68.20 201.91  30.11   68.09
   6   0  -4 324.256  85.241   2 0.12889 0.63714-0.56394 0.56394-0.81569 0.52538  0 145.67 439.72  165.96 146.39 440.01  165.64
   6   0  -4 414.257  85.619   2 0.08433 0.68142 0.34983-0.34983-0.93301 0.64287  0  86.54 334.91  220.93  86.60 335.51  220.52
   6   0  -5 -16.744 111.162   2 0.12202 0.64402-0.66986 0.66986-0.73240 0.36950  0 160.40 473.22  158.17 160.70 473.30  157.93
   6   0  -5  57.645  89.155   2 0.06071 0.70504 0.50401-0.50401-0.86156 0.49889  0  68.33 310.61  230.58  68.13 310.96  230.34
   6   0  -6 10143.4   315.5   2 0.04600 0.71975 0.58416-0.58416-0.81034 0.37513  0  50.29 290.58  235.90  49.98 290.51  235.86
   6   0  -7   4.289 122.277   2 0.03668 0.72907 0.62968-0.62968-0.77599 0.26825  0  30.61 271.00  239.53  30.21 271.58  239.18
  -6  -1   0  90.252 141.950   1-0.42348-0.34286 0.26083-0.36030-0.86754 0.86754  0 144.35 111.08   27.96 144.34 110.82   28.28
  -6   1   0 -57.659 114.249   1-0.34119-0.42515 0.37317-0.27369-0.86275 0.86275  0 177.19  75.61   20.57 176.87  75.96   20.30
  -6   1   0  22.151 209.318   1-0.50093-0.26633-0.85453 0.95405 0.13730-0.13730  0 452.83  30.13  125.61 452.75  30.31  125.66
  -6  -1  -1  -7.902 139.527   1-0.35689-0.40945 0.35290-0.45238-0.86492 0.79228  0 134.09 121.93   22.32 134.35 122.28   21.78
  -6  -1   1 -73.202 128.374   1-0.49367-0.27267 0.14935-0.24883-0.85673 0.92937  0 153.25  98.02   35.55 152.89  98.31   35.85
  -6  -1   1 -44.996 239.437   1-0.23824-0.52881-0.83640 0.73693 0.49364-0.42108  0 492.16  46.84  151.40 492.00  47.60  151.24
  -6   1  -1  32.198 129.978   1-0.25107-0.51527 0.48007-0.38059-0.84053 0.76789  0 161.44  88.90   12.48 161.42  88.81   12.19
  -6   1  -1 115.582 241.264   1-0.51449-0.25277-0.84998 0.94950 0.11330-0.18589  0 477.86  39.20  124.50 477.59  39.39  124.06
  -6   1   1  10.988 108.475   1-0.44567-0.32067 0.22716-0.12769-0.86590 0.93854  0 191.84  61.65   30.49 192.24  61.47   30.59
  -6   1   1 -29.118 189.461   1-0.49001-0.27725-0.85764 0.95717 0.15602-0.08343  0 429.29  19.86  126.95 429.38  19.75  126.92
  -6  -1  -2  3563.2   303.5   1-0.29702-0.46932 0.42755-0.52703-0.85380 0.70851  0 123.09 132.94   16.19 122.89 132.92   16.26
  -6  -1   2  3420.1   265.6   1-0.56270-0.20364 0.02015-0.11963-0.82642 0.97171  0 159.75  83.91   44.42 159.87  84.30   44.42
  -6  -1   2  2688.0   307.4   1-0.19554-0.57151-0.81968 0.72021 0.53841-0.39329  0 480.00  32.69  155.49 479.99  32.73  154.91
  -6   1  -2  3493.7   282.7   1-0.17727-0.58907 0.55690-0.45743-0.81144 0.66615  0 145.59 100.16    5.93 145.58 100.34    5.85
  -6   1  -2  3496.3   435.5   1-0.52955-0.23771-0.84391 0.94344 0.08596-0.23113  2 503.86  47.10  122.30 504.83  47.09  122.24
  -6   1   2  3116.2   202.5   1-0.55655-0.20979 0.03269 0.06678-0.83017 0.97546  0 208.33  44.95   43.48 208.39  44.87   43.59
  -6   1   2  2812.6   324.8   1-0.48373-0.28353-0.85920 0.95872 0.16671-0.02153  2 406.40   8.21  127.95 406.45   7.64  127.63
  -6   1   2  2916.4   216.8   2-0.22364-0.54214-0.04023 0.13973 0.97384-0.82859  0 495.03  42.11   22.38 495.32  42.18   22.30
  -6  -1   3  7095.4   457.7   1-0.15244-0.61461-0.80003 0.70056 0.58027-0.36258  0 470.53  15.47  158.74 470.70  15.53  158.53
  -6  -1   3  7349.8   292.4   2-0.12885-0.63706-0.69399 0.59447 0.70836-0.49067  0 487.91  24.07   63.79 487.60  24.16   64.04
  -6   1   3  8040.7   226.7   1-0.65448-0.11194-0.21055 0.31003-0.72617 0.94412  0 226.43  25.22   59.73 226.37  25.35   59.80
  -6   1   3  7533.3   324.5   2-0.19658-0.56920-0.31272 0.41222 0.92928-0.71140  0 469.71  15.70   38.14 469.94  15.80   38.24
   6  -1  -3  7212.6   149.5   2 0.12327 0.64277-0.65340 0.55392-0.74691 0.52917  0 135.14 415.33  159.08 135.02 414.94  159.18
   6  -1  -3  7838.6   149.8   2 0.12557 0.64046-0.11320 0.01372-0.98561 0.76787  0 101.31 355.92  193.78 101.18 356.12  193.52
  -6  -1  -4  1144.0   233.8   1-0.20202-0.56432 0.53212-0.63159-0.82222 0.53163  0  94.99 152.18    7.81  94.98 152.25    7.95
  -6  -1   4 944.496 162.263   1-0.67123-0.09519-0.27078 0.17130-0.69002 0.98061  0 169.15  51.70   63.55 169.20  51.06   63.93
   6  -1  -4 933.395 117.574   2 0.10971 0.65634-0.78000 0.68040-0.61609 0.32600  0 153.31 451.06  148.66 153.22 451.03  148.66
   6  -1  -4 929.951 107.024   2 0.10173 0.66402 0.20316-0.30269-0.97385 0.68371  0  81.29 325.82  211.49  81.17 325.36  211.73
   6   1  -4  1133.3   130.5   2 0.13249 0.63354-0.32758 0.42706-0.93549 0.64517  0 141.59 438.96  181.08 141.89 439.06  180.88
   6   1  -4  1089.8   120.4   2 0.05530 0.71045 0.53454-0.43500-0.84333 0.55320  0  85.28 339.49  232.70  85.27 339.83  232.41
  -6  -1  -5 15717.2   558.4   1-0.16688-0.59946 0.56680-0.66627-0.80678 0.44355  0  78.60 161.09    5.09  78.22 161.27    4.98
  -6  -1   5 14101.3   381.0   1-0.69805-0.06837-0.41584 0.31637-0.58293 0.94617  0 171.54  30.69   74.25 171.48  30.75   74.38
   6  -1  -5 12191.2   338.4   2 0.10313 0.66292-0.82163 0.72204-0.56061 0.19799  0 166.10 482.16  144.71 165.97 481.68  144.68
   6  -1  -5 14247.0   331.4   2 0.08263 0.68312 0.36233-0.46186-0.92838 0.56571  0  64.42 303.56  221.23  64.30 303.54  221.29
   6   1  -5 13082.6   322.4   2 0.13162 0.63442-0.49195 0.59143-0.86062 0.49773  0 156.93 474.13  170.48 156.75 473.74  170.50
   6   1  -5 13673.6   306.2   2 0.03176 0.73399 0.65225-0.55271-0.75734 0.39467  0  66.41 314.57  240.85  66.20 314.30  240.87
  -6  -1  -6 100.704 202.403   1-0.13928-0.62706 0.59264-0.69212-0.79333 0.35745  0  59.37 170.25    2.58  59.16 170.03    2.68
   6  -1  -6 306.164 121.845   2 0.06846 0.69729 0.45715-0.55668-0.88675 0.45155  0  47.32 283.83  227.60  46.78 284.30  227.27
   6  -1   6  28.536 191.943   1 0.01590 0.75115-0.69619 0.59672 0.71768-0.28230  0  70.85 380.25  173.21  70.86 379.93  172.37
   6   1  -6  68.753 104.981   2 0.01907 0.74668 0.70641-0.60688-0.70754 0.27234  0  47.94 293.59  245.08  47.68 293.53  245.16
   6  -1  -7 860.618 160.740   2 0.05847 0.70728 0.51670-0.61624-0.85417 0.34643  0  27.53 265.52  231.40  27.29 265.95  231.20
   6  -1   7 368.460 250.030   1-0.00098 0.76803-0.70862 0.60915 0.70559-0.19765  0  47.39 372.09  171.19  47.26 372.18  170.98
   6   1  -7 818.730 139.868   2 0.01205 0.75370 0.73405-0.63452-0.67899 0.17125  0  27.78 274.32  247.49  27.57 274.42  247.47
  -6  -2   0  1591.7   228.6   1-0.46152-0.30482 0.20234-0.40129-0.86374 0.86374  0 125.20 125.16   32.34 125.00 125.11   32.28
  -6   2   0  1591.5   166.9   1-0.29843-0.46791 0.42588-0.22693-0.85415 0.85415  0 190.59  53.77   16.48 190.58  54.05   16.38
  -6   2   0  1437.9   239.6   1-0.61301-0.15425-0.78463 0.98368-0.09262 0.09262  2 431.76  10.17  110.54 431.98   9.70  110.44
  -6  -2  -1  2476.7   273.7   1-0.40477-0.36156 0.28745-0.48640-0.86806 0.79541  0 117.16 136.18   26.36 116.87 136.37   26.42
  -6  -2   1  2388.0   275.5   1-0.51969-0.24665 0.10346-0.30241-0.84807 0.92071  0 131.51 112.79   38.88 131.49 112.97   38.91
  -6   2  -1  2571.6   246.6   1-0.19472-0.57161 0.53949-0.34054-0.81916 0.74652  0 171.23  67.94    7.31 171.06  68.15    7.33
  -6   2  -1  2234.5   282.9   1-0.60948-0.15778-0.78836 0.98741-0.08385 0.01126  0 461.76  17.57  111.26 461.95  17.45  111.03
  -6   2   1  2477.8   187.8   1-0.42919-0.33715 0.25217-0.05322-0.86730 0.93995  0 212.38  37.34   28.95 212.27  37.59   28.87
  -6  -2  -2 17000.4   500.3   1-0.35214-0.41420 0.35915-0.55810-0.86429 0.71900  0 107.19 146.80   21.32 106.88 146.85   21.33
  -6  -2   2 16318.4   460.7   1-0.57583-0.19051-0.00746-0.19149-0.81753 0.96283  0 136.11  99.55   46.08 136.13  99.52   46.25
  -6   2  -2 13585.1   534.8   1-0.61084-0.15642-0.78694 0.98599-0.08721-0.05796  0 492.77  24.10  110.81 493.12  23.88  110.80
  -6   2   2 15985.7   260.9   1-0.58249-0.18385-0.02184 0.22079-0.81254 0.95784  0 240.23  17.17   47.18 240.14  17.48   47.20
  -6   2   2 14648.2   360.5   2-0.22881-0.53697 0.03533 0.16367 0.97283-0.82757  0 475.48  16.43   17.87 475.61  16.65   17.95
   6  -2  -2 12622.7   156.4   2 0.10287 0.66317-0.82303 0.62384-0.55860 0.41355  0 128.90 408.25  144.68 128.99 408.12  144.54
   6  -2  -2 13234.3   156.9   2 0.13159 0.63445-0.49304 0.29408-0.86000 0.71484  0 104.23 364.83  170.35 103.78 364.34  170.43
  -6  -2  -3 13548.9   495.1   1-0.30511-0.46123 0.41788-0.61683-0.85574 0.63779  0  95.33 156.64   17.22  95.11 156.82   16.99
  -6  -2   3 11930.5   410.3   1-0.62595-0.14047-0.12671-0.07225-0.76950 0.98745  0 138.91  84.59   54.10 138.93  84.64   54.16
  -6  -2   3 10324.2   336.0   2-0.07575-0.69016-0.87230 0.67324 0.48307-0.26538  2 488.33   8.96   80.53 488.07   9.03   80.77
   6  -2  -3  9673.8   234.7   2 0.08502 0.68103-0.90189 0.70270-0.42353 0.20596  0 148.05 443.17  135.61 148.06 442.94  135.57
   6  -2  -3 11037.0   235.9   2 0.12640 0.63964-0.13050-0.06846-0.98336 0.76562  0  85.41 333.20  192.67  85.17 333.26  192.53
  -6  -2  -4  2605.7   313.1   1-0.26449-0.50185 0.46510-0.66405-0.84482 0.55423  0  81.44 166.30   13.41  81.34 166.36   13.37
  -6  -2   4  2046.0   224.8   1-0.66578-0.10064-0.25000 0.05104-0.70302 0.99361  0 139.74  67.81   62.42 139.84  67.92   62.50
   6  -2  -4  1781.9   202.3   2 0.07937 0.68667-0.92014 0.72095-0.38347 0.09337  0 161.32 470.66  132.99 161.08 470.55  133.05
   6  -2  -4  2003.0   168.9   2 0.11228 0.65347 0.09039-0.28946-0.98956 0.69942  0  70.36 311.75  205.17  70.39 311.75  205.18
   6  -2   4  1864.7   246.2   1 0.01236 0.75469-0.69878 0.49984 0.71523-0.42497  0 114.16 415.99  172.32 113.87 416.05  172.08
   6   2  -4  1871.9   158.0   2 0.12663 0.63940-0.13544 0.33441-0.98266 0.69234  0 140.34 450.05  192.24 140.19 449.76  192.24
   6   2  -4  1620.8   131.9   2 0.01435 0.75140 0.72512-0.52605-0.68847 0.39834  0  76.68 337.14  246.90  76.53 337.35  246.71
  -6  -2  -5  4503.1   373.1   1-0.23049-0.53585 0.50237-0.70132-0.83337 0.47013  0  65.55 175.56   10.40  65.39 175.62   10.40
  -6  -2   5  3076.2   290.9   1-0.69210-0.07432-0.37127 0.17231-0.61899 0.98224  0 138.84  48.85   71.24 138.79  48.79   71.07
   6  -2  -5  2615.0   260.7   2 0.07789 0.68815-0.92469 0.72550-0.37268 0.01006  0 172.20 498.74  132.31 172.07 498.66  132.39
   6  -2  -5  2878.9   215.9   2 0.09816 0.66759 0.23615-0.43522-0.96675 0.60408  0  55.17 292.87  213.73  55.10 292.96  213.67
   6  -2   5  2561.4   287.5   1-0.01940 0.78645-0.72145 0.52251 0.69219-0.32938  0  93.34 407.33  169.48  93.06 407.23  169.49
   6   2  -5  3091.3   229.9   2 0.13237 0.63367-0.31729 0.51625-0.93905 0.57615  0 154.06 483.61  181.48 153.95 483.29  181.50
   6   2  -5  2894.6   188.2   2-0.00243 0.76827 0.78628-0.58712-0.61786 0.25505  0  58.13 313.94  251.89  58.18 313.26  252.17
  -6  -2  -6 12340.6   553.5   1-0.20296-0.56338 0.53115-0.73010-0.82261 0.38673  0  47.17 184.64    7.90  46.92 184.79    8.03
  -6  -2   6 11272.2   418.4   1-0.70287-0.06356-0.48520 0.28624-0.52016 0.95605  0 135.79  26.61   79.71 135.75  26.60   79.74
   6  -2  -6 10515.3   352.7   2 0.08630 0.67945 0.33508-0.53415-0.93823 0.50303  0  38.44 275.07  219.74  38.24 275.16  219.61
   6  -2   6  8854.1   449.0   1-0.04146 0.80851-0.73623 0.53728 0.67547-0.24009  0  71.00 399.22  167.68  70.51 399.24  167.69
   6   2  -6  9240.5   307.9   2-0.01054 0.77638 0.81164-0.61248-0.58406 0.14868  0  39.76 293.69  254.44  39.64 293.18  254.63
  -6  -2  -7 967.666 246.314   1-0.18150-0.58484 0.55275-0.75170-0.81334 0.30482  0  25.51 193.69    6.43  25.51 194.07    6.21
   6  -2  -7 573.719 155.573   2 0.07679 0.68896 0.40235-0.60141-0.91226 0.40452  0  18.41 258.19  223.51  18.99 257.68  223.77
   6  -2   7 199.472 227.738   1-0.05569 0.82274-0.74545 0.54651 0.66423-0.15629  0  45.70 392.03  167.22  45.52 391.92  166.52
   6   2  -7 482.161 141.257   2-0.01395 0.77979 0.82222-0.62306-0.56900 0.06106  0  19.08 274.70  255.56  19.24 274.35  255.70
  -6  -3   0 -55.601 151.597   1-0.49713-0.26921 0.14342-0.44185-0.85574 0.85574  0 102.74 137.90   37.24 103.15 138.12   36.25
  -6   3   0 -26.566 113.985   1-0.25682-0.50952 0.47368-0.17525-0.84242 0.84242  0 203.26  27.36   12.95 203.06  27.63   12.69
  -6   3   0  61.023 170.888   2-0.23625-0.52953 0.52533-0.22669 0.81744-0.81744  2 488.50   9.03  348.18 489.53   8.68  347.84
  -6  -3  -1 13560.1   496.1   1-0.44908-0.31726 0.22189-0.52031-0.86550 0.79285  0  96.45 149.17   31.00  96.26 149.29   30.95
  -6  -3   1 13468.8   474.2   1-0.54543-0.22091 0.05503-0.35346-0.83635 0.90899  0 108.19 125.96   41.82 107.97 126.00   42.12
  -6   3  -1 12424.9   360.0   1-0.13848-0.62786 0.59337-0.29495-0.79293 0.72028  0 178.20  43.32    2.68 178.04  43.65    2.61
   6  -3  -1  9560.7   189.8   2 0.04505 0.72099-0.98652 0.68774-0.15734 0.08482  0 133.09 429.05  119.67 133.28 429.21  119.46
   6  -3  -1  9988.5   187.1   2 0.12456 0.64147-0.63630 0.33786-0.76132 0.68874  0  89.81 352.33  160.48  89.47 352.25  160.46
  -6  -3  -2  1687.1   235.5   1-0.40325-0.36309 0.28962-0.58804-0.86805 0.72275  0  87.41 159.68   26.34  87.54 159.86   26.27
  -6  -3   2  1260.1   220.7   1-0.59142-0.17492-0.04188-0.25655-0.80528 0.95057  0 110.82 112.73   48.42 110.85 112.76   48.52
   6  -3  -2 874.745 113.118   2 0.04247 0.72358-0.98902 0.69024-0.14157-0.00347  0 147.14 451.55  118.44 146.98 451.49  118.53
   6  -3  -2 972.071 103.098   2 0.13298 0.63305-0.38136 0.08292-0.91481 0.76965  0  78.44 331.36  177.60  78.43 331.18  177.57
  -6  -3  -3  4147.4   340.5   1-0.36131-0.40503 0.34709-0.64552-0.86544 0.64750  0  76.74 169.77   21.95  76.68 169.97   22.19
  -6  -3   3  3228.4   322.4   1-0.63243-0.13399-0.14453-0.15390-0.76101 0.97896  0 111.90  98.45   55.31 111.76  98.21   55.35
   6  -3  -3  2709.8   212.0   2 0.04406 0.72198-0.98751 0.68873-0.15128-0.06629  0 158.87 473.65  118.98 158.55 473.46  119.10
   6  -3  -3  3348.3   190.6   2 0.12827 0.63776-0.16963-0.12881-0.97712 0.75939  0  67.48 313.44  190.17  67.30 313.25  190.25
   6  -3   3  2637.7   294.2   1-0.00366 0.77071-0.71052 0.41211 0.70367-0.48598  0 134.47 448.53  170.83 134.34 448.51  170.77
   6   3  -3  2957.1   144.0   2 0.09420 0.67155 0.27073 0.02787-0.95804 0.74044  0 124.57 437.18  215.65 124.45 436.76  215.73
   6   3  -3  2848.5   125.7   2-0.01050 0.77634 0.81152-0.51279-0.58422 0.36653  0  80.09 358.13  254.45  79.85 357.67  254.62
  -6  -3  -4  1416.0   242.8   1-0.32406-0.44228 0.39469-0.69312-0.85977 0.56918  0  64.04 179.71   18.66  63.72 179.77   18.72
  -6  -3   4 922.318 200.189   1-0.66572-0.10070-0.24983-0.04860-0.70314 0.99373  0 110.59  82.13   62.42 110.53  81.89   62.49
   6  -3  -4 865.590 160.863   2 0.04737 0.71867-0.98400 0.68522-0.17178-0.11832  0 169.59 497.23  119.98 168.94 497.16  120.31
   6  -3  -4  1069.9   143.0   2 0.11921 0.64654-0.00169-0.29691-0.99287 0.70273  0  55.35 296.35  199.90  55.00 296.43  199.90
   6  -3   4  1004.6   216.1   1-0.04537 0.81242-0.73884 0.44042 0.67236-0.38210  0 112.83 437.87  166.98 112.65 438.41  167.37
   6   3  -4  1035.4   132.2   2 0.11893 0.64682 0.00239 0.29621-0.99290 0.70276  0 139.83 470.97  200.37 140.29 470.95  200.13
   6   3  -4 925.126 107.902   2-0.03032 0.79616 0.86772-0.56899-0.49612 0.20587  0  61.17 330.81  260.46  61.27 330.25  260.69
  -6  -3  -5 764.192 220.334   1-0.29204-0.47430 0.43343-0.73185-0.85256 0.48932  0  49.09 189.55   15.67  48.27 189.46   15.81
  -6  -3   5 670.518 206.526   1-0.68931-0.07711-0.35372 0.05529-0.63225 0.99549  0 107.06  62.79   70.39 107.12  63.34   69.80
   6  -3  -5 749.168 143.588   2 0.10919 0.65656 0.12615-0.42475-0.98598 0.62331  0  41.33 279.44  207.49  40.83 280.03  207.25
   6  -3   5 371.328 236.745   1-0.07419 0.84124-0.75699 0.45858 0.64920-0.28638  0  90.23 429.19  165.52  89.99 429.52  165.01
   6   3  -5 603.830 155.951   2 0.12808 0.63796-0.16493 0.46337-0.97795 0.61506  2 151.87 502.26  190.48 151.72 502.27  190.53
   6   3  -5 662.540 118.953   2-0.03761 0.80345 0.88565-0.58691-0.46284 0.10002  0  44.03 309.37  262.84  44.04 309.16  262.88
  -6  -3  -6 593.173 239.810   1-0.26532-0.50102 0.46416-0.76259-0.84508 0.40920  0  29.96 199.19   14.18  30.07 199.22   13.44
  -6  -3   6 210.814 213.923   1-0.70134-0.06508-0.45363 0.15520-0.54985 0.98574  0 101.46  42.52   76.87 101.35  41.74   77.26
   6  -3  -6 239.211 143.782   2 0.09977 0.66598 0.22139-0.51999-0.97007 0.53487  0  23.64 264.20  212.42  24.32 263.68  212.80
   6  -3   6 300.650 231.165   1-0.09320 0.86025-0.76833 0.46991 0.63323-0.19785  0  65.32 421.91  163.62  65.70 421.68  163.44
   6   3  -6  30.825 112.450   2-0.03981 0.80565 0.89088-0.59215-0.45248 0.01710  0  25.57 290.46  263.42  25.62 290.17  263.56
  -6  -4   0  3812.3   340.0   1-0.53016-0.23618 0.08415-0.48205-0.84371 0.84371  0  77.92 149.96   40.31  77.89 150.04   40.19
   6  -4   0  2332.6   179.9   2-0.02110 0.78701-0.97641 0.57829 0.21490-0.21490  0 138.25 462.75   97.71 138.37 462.65   97.66
   6  -4   0  2768.3   164.9   2 0.11842 0.64762-0.70834 0.31042-0.69587 0.69587  0  66.83 335.08  154.83  66.51 334.95  154.89
  -6  -4  -1  4852.3   370.0   1-0.48971-0.27663 0.15621-0.55411-0.85778 0.78513  0  72.38 161.53   35.33  72.14 161.45   35.40
  -6  -4   1  5069.5   367.0   1-0.57018-0.19616 0.00460-0.40250-0.82151 0.89416  0  81.48 137.52   45.42  81.48 137.80   45.45
   6  -4  -1  3361.1   213.5   2-0.00912 0.77516-0.98796 0.58959 0.15444-0.22696  0 148.19 475.23  101.38 148.38 475.24  101.28
   6  -4  -1  3504.8   187.7   2 0.12987 0.63616-0.54140 0.14348-0.83067 0.75809  0  62.17 321.63  167.36  61.87 321.78  167.19
   6  -4   1  3521.3   179.9   2-0.03497 0.80088-0.95751 0.55940 0.28628-0.21371  0 128.32 453.92   93.42 128.39 453.95   93.32
   6  -4   1  3676.0   160.1   2 0.09800 0.66804-0.84853 0.45015-0.52000 0.59252  0  68.93 347.34  141.78  68.63 346.96  141.89
  -6  -4  -2  8287.1   455.1   1-0.45036-0.31598 0.21990-0.61780-0.86534 0.72005  0  64.40 172.24   31.18  64.17 172.27   31.08
  -6  -4   2  7194.9   427.9   1-0.60797-0.15845-0.08097-0.31694-0.78982 0.93512  0  83.08 124.53   51.18  82.94 124.52   51.12
   6  -4  -2  5524.1   267.1   2 0.00135 0.76469-0.99519 0.59681 0.09798-0.24302  0 157.68 490.54  104.82 158.03 490.57  104.60
   6  -4  -2  6104.4   244.7   2 0.13297 0.63306-0.37163-0.02629-0.91881 0.77365  0  55.32 308.47  178.07  55.03 308.14  178.18
   6  -4   2  5594.9   320.7   1-0.00052 0.76757-0.70829 0.31040 0.70592-0.56080  0 156.26 488.96  171.18 155.94 488.52  171.02
   6  -4   2  5452.1   179.3   2-0.05207 0.81798-0.92731 0.52919 0.37066-0.22554  0 118.79 449.48   88.10 118.58 449.38   88.07
   6  -4   2  5514.1   167.9   2 0.07058 0.69546-0.94388 0.54550-0.32267 0.46771  0  68.04 358.01  129.18  67.61 357.61  129.30
   6   4  -2  6638.0   163.2   2 0.04910 0.71665 0.56815-0.17001-0.82146 0.67639  0 111.07 439.87  235.00 111.38 440.07  234.73
   6   4  -2  5736.1   143.9   2-0.05162 0.81746 0.91681-0.51850-0.39596 0.25084  0  72.50 370.45  266.78  71.94 369.30  267.18
  -6  -4  -3  7680.8   444.6   1-0.41358-0.35275 0.27529-0.67319-0.86785 0.64991  0  54.17 182.67   26.85  54.05 182.76   27.27
  -6  -4   3  7413.7   437.5   1-0.64159-0.12483-0.17058-0.22733-0.74784 0.96578  0  82.43 110.01   57.13  82.26 109.99   57.10
   6  -4  -3  6672.0   268.7   2 0.13014 0.63589-0.21582-0.18210-0.96772 0.74999  0  46.17 294.49  187.53  46.03 294.26  187.55
   6  -4   3  5497.2   366.3   1-0.05779 0.82484-0.74678 0.34889 0.66256-0.44487  0 131.68 475.95  166.25 131.43 475.94  166.35
   6  -4   3  5705.6   175.1   2-0.07345 0.83936-0.87833 0.48022 0.47238-0.25469  0 109.62 450.57   81.57 109.58 450.52   81.48
   6  -4   3  5386.0   160.1   2 0.04182 0.72422-0.98965 0.59128-0.13724 0.35481  0  63.25 365.66  118.20  62.74 365.41  118.27
   6   4  -3  5616.2   228.8   2 0.09043 0.67532 0.30240 0.09574-0.94888 0.73128  0 127.54 472.28  217.63 127.66 471.98  217.63
   6   4  -3  5431.8   196.0   2-0.06582 0.83166 0.94276-0.54444-0.32691 0.10922  0  55.55 342.84  271.19  55.27 341.96  271.46
  -6  -4  -4  1243.9   272.3   1-0.37987-0.38647 0.32192-0.71982-0.86722 0.57663  0  41.75 193.12   23.46  41.47 192.99   23.98
  -6  -4   4 962.266 229.103   1-0.66906-0.09736-0.26232-0.13559-0.69538 0.98597  0  79.70  94.64   63.39  79.23  93.70   63.35
   6  -4  -4 647.571 148.457   2 0.12390 0.64214-0.08223-0.31569-0.98888 0.69857  0  34.98 279.66  195.53  34.83 280.07  195.31
   6  -4   4 726.728 241.723   1-0.09645 0.86350-0.77020 0.37232 0.63046-0.34021  0 107.33 465.27  163.34 107.30 465.27  163.17
   6  -4   4 928.838 101.570   2-0.09870 0.86462-0.80534 0.40723 0.58453-0.29428  0 101.84 458.32   73.60 101.51 458.10   73.71
   6  -4   4 809.211  89.630   2 0.01644 0.74960-0.99977 0.60140 0.01366 0.27643  0  53.44 369.16  109.70  53.39 369.66  109.50
   6   4  -4 904.028 165.223   2 0.11072 0.65503 0.10829 0.28984-0.98793 0.69780  0 140.22 500.88  205.88 139.47 500.57  206.22
   6   4  -4 454.526 110.954   2-0.06917 0.83501 0.94820-0.54988-0.31006 0.01980  0  40.20 321.41  272.40  40.03 321.09  272.50
  -6  -4  -5  2839.0   345.5   1-0.35055-0.41579 0.36122-0.75912-0.86408 0.50085  0  25.91 203.18   21.37  26.14 203.26   21.18
   6  -4  -5  1662.3   198.3   2 0.11712 0.64863 0.02889-0.42702-0.99270 0.63003  0  21.08 265.24  201.62  21.16 265.35  201.65
   6  -4   5  1637.6   287.6   1-0.12201 0.88906-0.78441 0.38652 0.60813-0.24531  0  82.86 456.03  160.95  82.45 456.23  161.06
   6  -4   5  1453.6   163.9   2-0.12498 0.89089-0.71009 0.31197 0.69293-0.33012  0  92.98 471.82   65.72  93.76 472.44   65.34
   6  -4   5  1463.8   142.1   2-0.00446 0.77050-0.99159 0.59322 0.12934 0.23328  0  39.64 370.37  103.07  39.48 371.18  102.76
   6   4  -5  1386.2   158.3   2-0.06856 0.83440 0.94723-0.54892-0.31313-0.04969  0  23.52 303.44  271.97  23.68 302.52  272.31
  -6  -5   0 218.877 213.796   1-0.56054-0.20580 0.02459-0.52197-0.82776 0.82776  0  48.36 161.71   44.36  48.24 161.33   44.13
   6  -5   0   1.653 101.601   2 0.12370 0.64233-0.64807 0.15067-0.75147 0.75147  0  36.97 307.79  160.01  36.63 308.87  159.58
  -6  -5  -1  1108.1   254.6   1-0.52670-0.23964 0.09060-0.58797-0.84521 0.77257  0  43.61 173.23   40.16  43.37 173.20   39.77
  -6  -5   1  1211.8   271.7   1-0.59366-0.17268-0.04701-0.45036-0.80334 0.87599  0  50.70 148.59   49.18  50.82 148.75   48.86
   6  -5  -1  1047.8   146.3   2 0.13069 0.63535-0.51938 0.02198-0.84449 0.77191  0  34.15 298.00  169.03  33.75 298.65  168.68
   6  -5   1 938.583 131.475   2 0.11180 0.65424-0.76435 0.26695-0.63503 0.70761  0  36.67 318.42  149.89  36.68 317.84  150.19
   6   5  -1  1011.1   104.6   2 0.01672 0.74903 0.71576-0.21809-0.69815 0.62561  0 101.43 463.46  246.35 102.13 464.15  245.93
   6   5  -1 774.089  91.882   2-0.10503 0.87087 0.98668-0.48879-0.12419 0.05163  0  50.28 368.87  283.75  50.10 369.17  283.59
  -6  -5  -2  5817.2   413.6   1-0.49327-0.27307 0.15003-0.64741-0.85684 0.71154  0  36.40 184.58   35.79  36.08 184.53   35.81
  -6  -5   2  5564.3   444.0   1-0.62463-0.14179-0.12318-0.37421-0.77115 0.91644  0  51.28 135.18   54.19  51.06 135.21   53.92
   6  -5  -2  4912.9   269.0   2 0.13308 0.63296-0.38875-0.10865-0.91168 0.76652  0  28.48 287.66  177.04  28.24 287.44  177.11
   6  -5   2  4665.9   224.2   2 0.09588 0.67016-0.85854 0.36057-0.50370 0.64875  0  33.92 325.58  140.76  33.63 325.24  140.79
   6   5  -2  5502.4   244.2   2 0.05738 0.70837 0.52291-0.02524-0.85046 0.70539  0 115.46 488.36  231.71 115.66 488.26  231.61
   6   5  -2  4177.9   195.5   2-0.10591 0.87175 0.98718-0.48928-0.11942-0.02570  0  38.84 347.79  283.85  38.60 347.32  283.87
  -6  -5  -3  6774.2   453.6   1-0.46138-0.30496 0.20256-0.69994-0.86377 0.64583  0  26.13 195.46   32.33  26.14 195.53   32.26
  -6  -5   3  5698.2   426.7   1-0.65199-0.11443-0.20246-0.29492-0.73070 0.94864  0  48.79 120.10   59.31  48.88 120.34   59.25
   6  -5  -3  6105.0   300.9   2 0.13146 0.63457-0.26570-0.23170-0.95505 0.73731  0  20.21 275.66  184.61  20.09 275.49  184.61
   6  -5   3  4906.4   232.1   2 0.07695 0.68909-0.92735 0.42939-0.36619 0.58376  0  27.46 332.07  131.79  27.22 331.46  131.98
   6   5  -3  4667.2   227.4   2-0.10315 0.86899 0.98560-0.48770-0.13399-0.08370  0  26.74 329.19  282.90  26.46 328.54  283.01
  -7   0   0  18.490 185.197   1-0.44703-0.44703 0.22506-0.22506-0.86574 0.86574  0 130.26  40.98   30.47 129.99  40.23   30.73
  -7   0  -1  1784.7   260.5   1-0.37952-0.51454 0.32240-0.32240-0.86719 0.79455  0 115.62  54.40   23.78 115.41  54.52   23.95
  -7   0   1  1463.3   219.4   1-0.51892-0.37515 0.10487-0.10487-0.84837 0.92101  0 144.02  24.55   38.60 144.03  23.93   38.82
  -7   0  -2-194.947 194.214   1-0.31928-0.57479 0.40067-0.40067-0.85879 0.71350  0  99.71  67.55   18.12  99.73  67.16   18.28
  -7   0  -3 28033.3   686.8   1-0.26744-0.62662 0.46178-0.46178-0.84572 0.62778  0  83.01  78.07   13.62  82.68  78.38   13.63
  -7   0  -4  77.964 232.780   1-0.22416-0.66990 0.50908-0.50908-0.83102 0.54043  0  63.24  87.68   10.33  63.89  88.38    9.85
  -7  -1   0-158.033 184.235   1-0.47301-0.42105 0.18376-0.28324-0.86168 0.86168  0 109.77  59.29   33.53 109.70  59.44   33.54
  -7   1   0   6.834 173.185   1-0.42356-0.47051 0.26071-0.16124-0.86754 0.86754  0 149.27  16.48   28.50 149.08  17.10   28.29
  -7  -1  -1  1126.8   250.4   1-0.41535-0.47872 0.27273-0.37221-0.86782 0.79517  0  98.08  73.75   27.36  97.74  73.05   27.45
  -7  -1   1  1368.1   232.5   1-0.53280-0.36127 0.07927-0.17874-0.84252 0.91517  0 120.49  44.27   40.49 120.32  44.19   40.52
  -7   1  -1  1129.6   216.6   1-0.34429-0.54977 0.36928-0.26980-0.86319 0.79054  0 130.75  32.68   20.63 130.74  32.58   20.59
  -7  -1  -2  6148.4   425.0   1-0.36220-0.53186 0.34592-0.44539-0.86554 0.72024  0  84.49  85.22   22.29  84.20  85.09   22.28
  -7  -1   2  5903.8   381.2   1-0.59081-0.30325-0.04050-0.05898-0.80579 0.95108  0 129.75  26.56   48.34 129.70  26.57   48.43
  -7   1  -2  6284.8   413.9   1-0.27625-0.61781 0.45175-0.35228-0.84830 0.70300  0 112.41  46.06   14.31 112.23  46.11   14.40
  -7  -1  -3 242.204 237.008   1-0.31514-0.57893 0.40574-0.50522-0.85794 0.64000  0  69.03  95.50   18.30  68.94  96.07   17.90
  -7   1  -3 138.191 227.743   1-0.21981-0.67425 0.51365-0.41417-0.82937 0.61143  0  92.91  57.66    9.53  92.94  57.80    9.48
  -7  -1  -4  2665.9   335.7   1-0.27468-0.61938 0.45355-0.55302-0.84785 0.55726  0  52.14 106.61   14.26  51.54 106.05   14.27
  -7   1  -4  2752.5   322.8   1-0.17421-0.71985 0.55988-0.46040-0.81005 0.51947  0  72.16  67.35    5.59  72.31  68.07    5.59
  -7  -2   0  9093.7   458.9   1-0.49998-0.39408 0.13849-0.33744-0.85489 0.85489  0  87.30  75.24   36.57  87.34  75.75   36.58
  -7  -2  -1  9518.2   491.0   1-0.45064-0.44342 0.21946-0.41841-0.86531 0.79266  0  77.65  88.94   30.98  77.22  88.80   31.11
  -7  -2  -2  1441.5   257.6   1-0.40409-0.48997 0.28843-0.48738-0.86806 0.72276  0  65.33 100.69   26.34  65.38 100.71   26.35
  -7  -2   2  1372.5   252.1   1-0.59816-0.29600-0.05729-0.14167-0.79933 0.94462  0 101.99  44.11   49.57 101.88  44.12   49.55
  -7   2  -2  1067.4   240.7   1-0.23447-0.65960 0.49810-0.29915-0.83482 0.68952  0 121.98  21.18   10.63 122.04  20.82   10.74
  -7  -2  -3 264.837 244.680   1-0.36184-0.53223 0.34640-0.54535-0.86550 0.64756  0  51.81 112.09   22.66  51.31 111.61   22.24
  -7  -2   3 357.321 218.117   1-0.64086-0.25330-0.16841-0.03055-0.74896 0.96691  0 106.56  25.11   56.48 106.71  25.13   56.95
  -7   2  -3 250.977 229.772   1-0.17362-0.72044 0.56045-0.36150-0.80978 0.59184  0  99.94  33.53    5.52  99.85  33.38    5.54
  -7  -3   0-203.622 220.794   1-0.52693-0.36713 0.09016-0.38859-0.84511 0.84511  0  61.48  88.86   40.17  61.76  89.54   39.79
  -7  -3  -1 434.497 261.135   1-0.48486-0.40921 0.16438-0.46280-0.85901 0.78636  0  53.01 102.19   35.00  53.25 102.64   34.85
  -7  -3   1 974.630 276.450   1-0.56898-0.32508 0.00712-0.30554-0.82232 0.89497  0  68.24  75.49   45.43  68.11  74.92   45.29
;
_shelx_hkl_checksum              53962
loop_
_space_group_symop_operation_xyz
'x, y, z'
'-x+1/2, -y, z+1/2'
'-x, y+1/2, -z'
'x+1/2, -y+1/2, -z+1/2'
'-x, -y, -z'
'x-1/2, y, -z-1/2'
'x, -y-1/2, z'
'-x-1/2, y-1/2, z-1/2'
loop_
_atom_site_label
_atom_site_type_symbol
_atom_site_fract_x
_atom_site_fract_y
_atom_site_fract_z
_atom_site_U_iso_or_equiv
_atom_site_adp_type
_atom_site_occupancy
_atom_site_site_symmetry_order
_atom_site_calc_flag
_atom_site_refinement_flags_posn
_atom_site_refinement_flags_adp
_atom_site_refinement_flags_occupancy
O1 O 0.2166(4) 0.0228(4) 0.3335(2) 0.0185(6) Uani 1 1 d . . .
O2 O -0.0042(5) 0.2500 0.0726(4) 0.0158(8) Uani 1 2 d S T P
N1 N 0.1771(6) 0.2500 0.5635(4) 0.0098(8) Uani 1 2 d S T P
P1 P 0.27523(17) 0.2500 0.41899(11) 0.0062(3) Uani 1 2 d S T P
Sr1 Sr 0.34108(6) 0.2500 0.07795(5) 0.00878(16) Uani 1 2 d S T P
Sr2 Sr 0.49384(6) 0.2500 0.69782(4) 0.00536(16) Uani 1 2 d S T P
loop_
_atom_site_aniso_label
_atom_site_aniso_U_11
_atom_site_aniso_U_22
_atom_site_aniso_U_33
_atom_site_aniso_U_23
_atom_site_aniso_U_13
_atom_site_aniso_U_12
O1 0.0182(14) 0.0146(12) 0.0226(12) -0.0066(10) -0.0072(11) 0.0022(11)
O2 0.0082(17) 0.023(2) 0.0165(18) 0.000 0.0011(13) 0.000
N1 0.0062(18) 0.018(2) 0.0048(17) 0.000 0.0015(15) 0.000
P1 0.0044(6) 0.0082(5) 0.0059(5) 0.000 0.0000(4) 0.000
Sr1 0.0049(2) 0.0089(3) 0.0125(2) 0.000 -0.00175(16) 0.000
Sr2 0.0028(2) 0.0079(3) 0.0054(2) 0.000 0.00003(14) 0.000
loop_
_atom_type_symbol
_atom_type_description
_atom_type_scat_dispersion_real
_atom_type_scat_dispersion_imag
_atom_type_scat_source
N N 0.0061 0.0000 'International Tables Vol C Tables 4.2.6.8 and 6.1.1.4'
O O 0.0106 0.0000 'International Tables Vol C Tables 4.2.6.8 and 6.1.1.4'
P P 0.1023 0.0000 'International Tables Vol C Tables 4.2.6.8 and 6.1.1.4'
Sr Sr -1.5307 0.0000 'International Tables Vol C Tables 4.2.6.8 and 6.1.1.4'
loop_
_geom_angle_atom_site_label_1
_geom_angle_atom_site_label_2
_geom_angle_atom_site_label_3
_geom_angle
_geom_angle_site_symmetry_1
_geom_angle_site_symmetry_3
P1 O1 Sr2 157.68(16) . 2_554
P1 O1 Sr2 108.83(14) . 5_656
Sr2 O1 Sr2 93.48(8) 2_554 5_656
P1 O1 Sr1 91.15(11) . 2
Sr2 O1 Sr1 92.04(8) 2_554 2
Sr2 O1 Sr1 84.43(7) 5_656 2
P1 O1 Sr1 91.51(12) . .
Sr2 O1 Sr1 89.45(7) 2_554 .
Sr2 O1 Sr1 84.82(8) 5_656 .
Sr1 O1 Sr1 169.21(10) 2 .
P1 O1 Sr1 75.68(11) . 6_556
Sr2 O1 Sr1 82.92(8) 2_554 6_556
Sr2 O1 Sr1 165.64(11) 5_656 6_556
Sr1 O1 Sr1 81.82(7) 2 6_556
Sr1 O1 Sr1 108.96(8) . 6_556
P1 O2 Sr1 175.8(2) 6_556 .
P1 O2 Sr2 92.68(17) 6_556 6_556
Sr1 O2 Sr2 91.50(12) . 6_556
P1 O2 Sr2 90.20(9) 6_556 2_564
Sr1 O2 Sr2 88.11(8) . 2_564
Sr2 O2 Sr2 113.77(6) 6_556 2_564
P1 O2 Sr2 90.20(9) 6_556 2_554
Sr1 O2 Sr2 88.11(8) . 2_554
Sr2 O2 Sr2 113.77(6) 6_556 2_554
Sr2 O2 Sr2 132.38(13) 2_564 2_554
P1 N1 Sr2 93.83(18) . .
P1 N1 Sr2 177.1(2) . 6_557
Sr2 N1 Sr2 89.06(11) . 6_557
P1 N1 Sr1 86.36(16) . 6_556
Sr2 N1 Sr1 179.81(15) . 6_556
Sr2 N1 Sr1 90.75(12) 6_557 6_556
P1 N1 Sr1 93.79(8) . 2
Sr2 N1 Sr1 90.84(8) . 2
Sr2 N1 Sr1 86.15(8) 6_557 2
Sr1 N1 Sr1 89.15(8) 6_556 2
P1 N1 Sr1 93.79(8) . 2_565
Sr2 N1 Sr1 90.84(8) . 2_565
Sr2 N1 Sr1 86.15(8) 6_557 2_565
Sr1 N1 Sr1 89.15(8) 6_556 2_565
Sr1 N1 Sr1 172.10(16) 2 2_565
O1 P1 O1 107.02(19) . 7_565
O1 P1 O2 107.06(13) . 6_656
O1 P1 O2 107.06(13) 7_565 6_656
O1 P1 N1 111.00(13) . .
O1 P1 N1 111.00(13) 7_565 .
O2 P1 N1 113.4(2) 6_656 .
O1 P1 Sr1 74.87(11) . 6_556
O1 P1 Sr1 74.87(11) 7_565 6_556
O2 P1 Sr1 176.47(15) 6_656 6_556
N1 P1 Sr1 63.10(15) . 6_556
O1 P1 Sr2 126.42(10) . .
O1 P1 Sr2 126.42(10) 7_565 .
O2 P1 Sr2 57.26(14) 6_656 .
N1 P1 Sr2 56.11(15) . .
Sr1 P1 Sr2 119.20(4) 6_556 .
O1 P1 Sr1 149.67(12) . 2_565
O1 P1 Sr1 60.34(9) 7_565 2_565
O2 P1 Sr1 103.13(7) 6_656 2_565
N1 P1 Sr1 57.643(18) . 2_565
Sr1 P1 Sr1 75.13(2) 6_556 2_565
Sr2 P1 Sr1 73.44(2) . 2_565
O1 P1 Sr1 60.34(9) . 2
O1 P1 Sr1 149.67(12) 7_565 2
O2 P1 Sr1 103.13(7) 6_656 2
N1 P1 Sr1 57.643(18) . 2
Sr1 P1 Sr1 75.13(2) 6_556 2
Sr2 P1 Sr1 73.44(2) . 2
Sr1 P1 Sr1 115.25(4) 2_565 2
O1 P1 Sr1 60.69(10) . .
O1 P1 Sr1 60.69(10) 7_565 .
O2 P1 Sr1 84.96(14) 6_656 .
N1 P1 Sr1 161.67(16) . .
Sr1 P1 Sr1 98.57(3) 6_556 .
Sr2 P1 Sr1 142.23(4) . .
Sr1 P1 Sr1 120.194(19) 2_565 .
Sr1 P1 Sr1 120.193(19) 2 .
O1 P1 Sr2 127.06(11) . 5_666
O1 P1 Sr2 45.46(10) 7_565 5_666
O2 P1 Sr2 62.44(6) 6_656 5_666
N1 P1 Sr2 120.80(5) . 5_666
Sr1 P1 Sr2 118.94(2) 6_556 5_666
Sr2 P1 Sr2 92.91(3) . 5_666
Sr1 P1 Sr2 66.021(10) 2_565 5_666
Sr1 P1 Sr2 164.51(4) 2 5_666
Sr1 P1 Sr2 66.601(19) . 5_666
O1 P1 Sr2 45.45(10) . 5_656
O1 P1 Sr2 127.06(11) 7_565 5_656
O2 P1 Sr2 62.44(6) 6_656 5_656
N1 P1 Sr2 120.80(5) . 5_656
Sr1 P1 Sr2 118.94(2) 6_556 5_656
Sr2 P1 Sr2 92.91(3) . 5_656
Sr1 P1 Sr2 164.51(4) 2_565 5_656
Sr1 P1 Sr2 66.021(10) 2 5_656
Sr1 P1 Sr2 66.601(19) . 5_656
Sr2 P1 Sr2 108.41(3) 5_666 5_656
O2 Sr1 N1 148.80(12) . 6_656
O2 Sr1 N1 87.27(8) . 2_554
N1 Sr1 N1 90.85(8) 6_656 2_554
O2 Sr1 N1 87.27(8) . 2_564
N1 Sr1 N1 90.85(8) 6_656 2_564
N1 Sr1 N1 172.10(16) 2_554 2_564
O2 Sr1 O1 80.71(9) . 2_554
N1 Sr1 O1 72.95(8) 6_656 2_554
N1 Sr1 O1 54.69(9) 2_554 2_554
N1 Sr1 O1 118.66(9) 2_564 2_554
O2 Sr1 O1 80.71(9) . 8_665
N1 Sr1 O1 72.95(8) 6_656 8_665
N1 Sr1 O1 118.66(9) 2_554 8_665
N1 Sr1 O1 54.69(9) 2_564 8_665
O1 Sr1 O1 64.03(10) 2_554 8_665
O2 Sr1 O1 73.49(9) . 7_565
N1 Sr1 O1 133.39(8) 6_656 7_565
N1 Sr1 O1 117.27(9) 2_554 7_565
N1 Sr1 O1 66.44(9) 2_564 7_565
O1 Sr1 O1 153.56(3) 2_554 7_565
O1 Sr1 O1 116.078(10) 8_665 7_565
O2 Sr1 O1 73.49(9) . .
N1 Sr1 O1 133.39(8) 6_656 .
N1 Sr1 O1 66.44(9) 2_554 .
N1 Sr1 O1 117.27(9) 2_564 .
O1 Sr1 O1 116.078(10) 2_554 .
O1 Sr1 O1 153.56(3) 8_665 .
O1 Sr1 O1 50.93(9) 7_565 .
O2 Sr1 O1 150.91(7) . 4
N1 Sr1 O1 52.29(8) 6_656 4
N1 Sr1 O1 117.59(10) 2_554 4
N1 Sr1 O1 69.28(9) 2_564 4
O1 Sr1 O1 125.19(5) 2_554 4
O1 Sr1 O1 98.18(7) 8_665 4
O1 Sr1 O1 81.23(5) 7_565 4
O1 Sr1 O1 101.52(6) . 4
O2 Sr1 O1 150.91(7) . 6_656
N1 Sr1 O1 52.29(8) 6_656 6_656
N1 Sr1 O1 69.28(9) 2_554 6_656
N1 Sr1 O1 117.59(10) 2_564 6_656
O1 Sr1 O1 98.18(7) 2_554 6_656
O1 Sr1 O1 125.19(5) 8_665 6_656
O1 Sr1 O1 101.52(6) 7_565 6_656
O1 Sr1 O1 81.23(5) . 6_656
O1 Sr1 O1 48.34(10) 4 6_656
O2 Sr1 P1 179.35(9) . 6_656
N1 Sr1 P1 30.54(8) 6_656 6_656
N1 Sr1 P1 92.69(8) 2_554 6_656
N1 Sr1 P1 92.69(8) 2_564 6_656
O1 Sr1 P1 98.74(6) 2_554 6_656
O1 Sr1 P1 98.74(6) 8_665 6_656
O1 Sr1 P1 107.09(6) 7_565 6_656
O1 Sr1 P1 107.09(6) . 6_656
O1 Sr1 P1 29.45(5) 4 6_656
O1 Sr1 P1 29.45(5) 6_656 6_656
O2 Sr1 P1 74.81(5) . 2_554
N1 Sr1 P1 88.98(5) 6_656 2_554
N1 Sr1 P1 28.56(8) 2_554 2_554
N1 Sr1 P1 143.79(8) 2_564 2_554
O1 Sr1 P1 28.51(5) 2_554 2_554
O1 Sr1 P1 90.96(5) 8_665 2_554
O1 Sr1 P1 133.54(6) 7_565 2_554
O1 Sr1 P1 87.86(5) . 2_554
O1 Sr1 P1 134.20(5) 4 2_554
O1 Sr1 P1 90.32(5) 6_656 2_554
P1 Sr1 P1 104.87(2) 6_656 2_554
O1 Sr2 O1 74.23(11) 2 8_666
O1 Sr2 O1 153.57(6) 2 3_656
O1 Sr2 O1 100.73(9) 8_666 3_656
O1 Sr2 O1 100.73(9) 2 5_656
O1 Sr2 O1 153.57(6) 8_666 5_656
O1 Sr2 O1 71.98(12) 3_656 5_656
O1 Sr2 N1 75.48(9) 2 .
O1 Sr2 N1 75.48(9) 8_666 .
O1 Sr2 N1 129.20(7) 3_656 .
O1 Sr2 N1 129.20(7) 5_656 .
O1 Sr2 O2 122.10(8) 2 6_656
O1 Sr2 O2 122.10(8) 8_666 6_656
O1 Sr2 O2 82.93(8) 3_656 6_656
O1 Sr2 O2 82.93(8) 5_656 6_656
N1 Sr2 O2 60.11(11) . 6_656
O1 Sr2 N1 80.26(9) 2 6_657
O1 Sr2 N1 80.26(9) 8_666 6_657
O1 Sr2 N1 73.31(8) 3_656 6_657
O1 Sr2 N1 73.31(8) 5_656 6_657
N1 Sr2 N1 149.42(12) . 6_657
O2 Sr2 N1 150.46(12) 6_656 6_657
O1 Sr2 O2 71.06(9) 2 2
O1 Sr2 O2 141.22(9) 8_666 2
O1 Sr2 O2 118.04(9) 3_656 2
O1 Sr2 O2 52.77(9) 5_656 2
N1 Sr2 O2 79.54(7) . 2
O2 Sr2 O2 66.23(6) 6_656 2
N1 Sr2 O2 109.86(7) 6_657 2
O1 Sr2 O2 141.22(9) 2 2_565
O1 Sr2 O2 71.06(9) 8_666 2_565
O1 Sr2 O2 52.77(9) 3_656 2_565
O1 Sr2 O2 118.04(9) 5_656 2_565
N1 Sr2 O2 79.54(7) . 2_565
O2 Sr2 O2 66.23(6) 6_656 2_565
N1 Sr2 O2 109.86(7) 6_657 2_565
O2 Sr2 O2 132.38(13) 2 2_565
O1 Sr2 P1 99.33(7) 2 .
O1 Sr2 P1 99.33(6) 8_666 .
O1 Sr2 P1 107.10(6) 3_656 .
O1 Sr2 P1 107.10(6) 5_656 .
N1 Sr2 P1 30.06(8) . .
O2 Sr2 P1 30.06(8) 6_656 .
N1 Sr2 P1 179.48(9) 6_657 .
O2 Sr2 P1 70.26(7) 2 .
O2 Sr2 P1 70.26(7) 2_565 .
O1 Sr2 P1 162.30(6) 2 5_666
O1 Sr2 P1 88.50(6) 8_666 5_666
O1 Sr2 P1 25.72(6) 3_656 5_666
O1 Sr2 P1 93.00(6) 5_656 5_666
N1 Sr2 P1 104.35(5) . 5_666
O2 Sr2 P1 70.38(5) 6_656 5_666
N1 Sr2 P1 93.22(5) 6_657 5_666
O2 Sr2 P1 126.58(7) 2 5_666
O2 Sr2 P1 27.36(7) 2_565 5_666
P1 Sr2 P1 87.09(3) . 5_666
O1 Sr2 P1 88.50(6) 2 5_656
O1 Sr2 P1 162.30(6) 8_666 5_656
O1 Sr2 P1 93.00(6) 3_656 5_656
O1 Sr2 P1 25.72(6) 5_656 5_656
N1 Sr2 P1 104.35(5) . 5_656
O2 Sr2 P1 70.38(5) 6_656 5_656
N1 Sr2 P1 93.22(5) 6_657 5_656
O2 Sr2 P1 27.36(7) 2 5_656
O2 Sr2 P1 126.58(7) 2_565 5_656
P1 Sr2 P1 87.09(3) . 5_656
P1 Sr2 P1 108.41(3) 5_666 5_656
loop_
_geom_bond_atom_site_label_1
_geom_bond_atom_site_label_2
_geom_bond_distance
_geom_bond_site_symmetry_2
O1 P1 1.573(2) .
O1 Sr2 2.515(2) 2_554
O1 Sr2 2.583(3) 5_656
O1 Sr1 2.863(3) 2
O1 Sr1 2.941(3) .
O1 Sr1 3.088(3) 6_556
O2 P1 1.577(4) 6_556
O2 Sr1 2.466(4) .
O2 Sr2 2.648(4) 6_556
O2 Sr2 3.0413(15) 2_564
O2 Sr2 3.0413(15) 2_554
N1 P1 1.579(4) .
N1 Sr2 2.616(4) .
N1 Sr2 2.678(4) 6_557
N1 Sr1 2.770(4) 6_556
N1 Sr1 2.7891(3) 2
N1 Sr1 2.7891(3) 2_565
P1 O1 1.573(2) 7_565
P1 O2 1.577(4) 6_656
P1 Sr1 3.0998(13) 6_556
P1 Sr2 3.1446(12) .
P1 Sr1 3.2945(7) 2_565
P1 Sr1 3.2945(7) 2
P1 Sr1 3.3718(12) .
P1 Sr2 3.4305(8) 5_666
P1 Sr2 3.4305(8) 5_656
Sr1 N1 2.770(4) 6_656
Sr1 N1 2.7891(3) 2_554
Sr1 N1 2.7891(3) 2_564
Sr1 O1 2.863(3) 2_554
Sr1 O1 2.863(3) 8_665
Sr1 O1 2.941(3) 7_565
Sr1 O1 3.088(3) 4
Sr1 O1 3.088(3) 6_656
Sr1 P1 3.0999(13) 6_656
Sr1 P1 3.2945(7) 2_554
Sr2 O1 2.515(2) 2
Sr2 O1 2.515(2) 8_666
Sr2 O1 2.583(3) 3_656
Sr2 O1 2.583(3) 5_656
Sr2 O2 2.648(4) 6_656
Sr2 N1 2.678(4) 6_657
Sr2 O2 3.0413(15) 2
Sr2 O2 3.0413(15) 2_565
Sr2 P1 3.4305(8) 5_666
Sr2 P1 3.4305(8) 5_656
