#------------------------------------------------------------------------------
#$Date: 2016-02-04 01:42:20 +0200 (Thu, 04 Feb 2016) $
#$Revision: 175509 $
#$URL: svn://www.crystallography.net/cod/cif/4/34/45/4344577.cif $
#------------------------------------------------------------------------------
#
# This file is available in the Crystallography Open Database (COD),
# http://www.crystallography.net/
#
# All data on this site have been placed in the public domain by the
# contributors.
#
data_4344577
loop_
_publ_author_name
'Henze, Alexander'
'F\"assler, Thomas F'
_publ_section_title
;
 Switching the Structure Type upon Ag Substitution: Synthesis and Crystal
 as well as Electronic Structures of Li12AgGe4.
;
_journal_issue                   2
_journal_name_full               'Inorganic chemistry'
_journal_page_first              822
_journal_page_last               827
_journal_paper_doi               10.1021/acs.inorgchem.5b02299
_journal_volume                  55
_journal_year                    2016
_chemical_formula_sum            'Ag Ge4 Li12'
_chemical_formula_weight         481.51
_space_group_crystal_system      orthorhombic
_space_group_IT_number           55
_space_group_name_Hall           '-P 2 2ab'
_space_group_name_H-M_alt        'P b a m'
_symmetry_space_group_name_Hall  '-P 2 2ab'
_symmetry_space_group_name_H-M   'P b a m'
_audit_creation_method           SHELXL-2014/7
_cell_angle_alpha                90
_cell_angle_beta                 90
_cell_angle_gamma                90
_cell_formula_units_Z            2
_cell_length_a                   8.0420(2)
_cell_length_b                   15.1061(4)
_cell_length_c                   4.48670(10)
_cell_measurement_reflns_used    5167
_cell_measurement_temperature    130(2)
_cell_measurement_theta_max      32.6711
_cell_measurement_theta_min      3.6891
_cell_volume                     545.06(2)
_computing_structure_refinement  'SHELXL-2014/7 (Sheldrick, 2014)'
_diffrn_ambient_temperature      130(2)
_diffrn_measured_fraction_theta_full 0.996
_diffrn_measured_fraction_theta_max 0.957
_diffrn_measurement_device_type
;
'Oxford Diffraction Xcalibur3 diffractometer, CCD detector' 
;
_diffrn_measurement_method       '\w and \p scans'
_diffrn_radiation_type           MoK\a
_diffrn_radiation_wavelength     0.71073
_diffrn_reflns_av_R_equivalents  0.0638
_diffrn_reflns_av_unetI/netI     0.0291
_diffrn_reflns_laue_measured_fraction_full 0.996
_diffrn_reflns_laue_measured_fraction_max 0.957
_diffrn_reflns_limit_h_max       11
_diffrn_reflns_limit_h_min       -12
_diffrn_reflns_limit_k_max       14
_diffrn_reflns_limit_k_min       -22
_diffrn_reflns_limit_l_max       6
_diffrn_reflns_limit_l_min       -6
_diffrn_reflns_number            9860
_diffrn_reflns_point_group_measured_fraction_full 0.996
_diffrn_reflns_point_group_measured_fraction_max 0.957
_diffrn_reflns_theta_full        25.242
_diffrn_reflns_theta_max         32.740
_diffrn_reflns_theta_min         3.701
_diffrn_source                   'fine-focus sealed tube'
_exptl_absorpt_coefficient_mu    12.588
_exptl_absorpt_correction_T_max  1.00000
_exptl_absorpt_correction_T_min  0.32956
_exptl_absorpt_correction_type   multi-scan
_exptl_absorpt_process_details
; 
 CrysAlis RED, Oxford Diffraction Ltd.,
Version 1.171.33.34d (release 27-02-2009 CrysAlis171 .NET)
(compiled Feb 27 2009,15:38:38)
Empirical absorption correction using spherical harmonics,
 implemented in SCALE3 ABSPACK scaling algorithm.
;
_exptl_crystal_colour            'metallic silver'
_exptl_crystal_density_diffrn    2.934
_exptl_crystal_description       irregular
_exptl_crystal_F_000             422
_exptl_crystal_size_max          0.12
_exptl_crystal_size_mid          0.10
_exptl_crystal_size_min          0.07
_refine_diff_density_max         1.520
_refine_diff_density_min         -1.529
_refine_diff_density_rms         0.255
_refine_ls_extinction_coef       0.0030(6)
_refine_ls_extinction_expression Fc^*^=kFc[1+0.001xFc^2^\l^3^/sin(2\q)]^-1/4^
_refine_ls_extinction_method     'SHELXL-2014/7 (Sheldrick 2014'
_refine_ls_goodness_of_fit_ref   1.133
_refine_ls_hydrogen_treatment    undef
_refine_ls_matrix_type           full
_refine_ls_number_parameters     55
_refine_ls_number_reflns         1066
_refine_ls_number_restraints     0
_refine_ls_restrained_S_all      1.133
_refine_ls_R_factor_all          0.0355
_refine_ls_R_factor_gt           0.0293
_refine_ls_shift/su_max          0.003
_refine_ls_shift/su_mean         0.000
_refine_ls_structure_factor_coef Fsqd
_refine_ls_weighting_details
'w=1/[\s^2^(Fo^2^)+(0.0418P)^2^] where P=(Fo^2^+2Fc^2^)/3'
_refine_ls_weighting_scheme      calc
_refine_ls_wR_factor_gt          0.0692
_refine_ls_wR_factor_ref         0.0713
_reflns_Friedel_coverage         0.000
_reflns_number_gt                901
_reflns_number_total             1066
_reflns_threshold_expression     'I > 2\s(I)'
_cod_data_source_file            ic5b02299_si_002.cif
_cod_data_source_block           Li12AgGe4
_cod_database_code               4344577
_shelx_shelxl_version_number     2014/7
_shelx_space_group_comment
;
The symmetry employed for this shelxl refinement is uniquely defined
by the following loop, which should always be used as a source of
symmetry information in preference to the above space-group names.
They are only intended as comments.
;
_shelx_res_file
;

    AH507_pbam.res created by SHELXL-2014/7


TITL AH507_pbam in Pbam
CELL 0.71073   8.0420  15.1061   4.4867  90.000  90.000  90.000
ZERR    2.00   0.0002   0.0004   0.0001   0.000   0.000   0.000
LATT  1
SYMM -X, -Y, Z
SYMM 0.5-X, 0.5+Y, -Z
SYMM 0.5+X, 0.5-Y, -Z
SFAC LI GE AG
UNIT 24 8 2

rem omit -1 55

L.S. 10
BOND
FMAP 2
PLAN 20

acta

WGHT    0.041800
EXTI    0.003002
FVAR       0.23225   0.57670
AG1   3    0.000000    0.000000    0.000000    10.25000    0.01801    0.01076 =
         0.01423    0.00000    0.00000   -0.00077
GE1   2    0.084874    0.162637    0.000000    10.50000    0.01099    0.00968 =
         0.00834    0.00000    0.00000    0.00035
GE2   2    0.068979    0.425223    0.500000    10.50000    0.01041    0.01009 =
         0.00947    0.00000    0.00000    0.00140
LI1   1    0.155480    0.520785    0.000000    10.50000    0.02352    0.02873 =
         0.01507    0.00000    0.00000   -0.00086
LI2   1    0.739793    0.155847    0.000000    10.50000    0.01881    0.02802 =
         0.02062    0.00000    0.00000   -0.00161
LI3   1    0.909420    0.312626    0.000000    10.50000    0.01320    0.02832 =
         0.05763    0.00000    0.00000    0.00361
LI4   1    0.737041    0.413359    0.500000    10.50000    0.01110    0.04091 =
         0.02000    0.00000    0.00000   -0.01095
LI5   1    0.406729    0.399934    0.500000    10.50000    0.00898    0.02473 =
         0.01431    0.00000    0.00000    0.00225
LI6A  1    0.069235    0.252414    0.500000    20.50000    0.01307
LI6B  1    0.129816    0.250526    0.500000   -20.50000    0.01337
HKLF 4

REM  AH507_pbam in Pbam
REM R1 =  0.0293 for     901 Fo > 4sig(Fo)  and  0.0355 for all    1066 data
REM     55 parameters refined using      0 restraints

END

WGHT      0.0418      0.0000

REM Highest difference peak  1.520,  deepest hole -1.529,  1-sigma level  0.255
Q1    1  -0.0117  0.2645  0.5000  10.50000  0.05    1.52
Q2    1  -0.0356  0.4192  0.5000  10.50000  0.05    1.51
Q3    1  -0.1562 -0.0016  0.0000  10.50000  0.05    1.30
Q4    1   0.9051  0.1612  0.0000  10.50000  0.05    1.16
Q5    1   0.0059  0.0125  0.1985  11.00000  0.05    0.90
Q6    1   1.0903  0.2802  0.0000  10.50000  0.05    0.79
Q7    1   0.0559  0.2452  0.1335  11.00000  0.05    0.75
Q8    1  -0.0020  0.0668  0.0000  10.50000  0.05    0.75
Q9    1   0.6414  0.4235  0.5000  10.50000  0.05    0.75
Q10   1   0.2829  0.4107  0.4134  11.00000  0.05    0.74
Q11   1   0.0995  0.2266  0.0000  10.50000  0.05    0.71
Q12   1  -0.0267  0.2056  0.0663  11.00000  0.05    0.70
Q13   1   0.2461  0.1433  0.0566  11.00000  0.05    0.69
Q14   1   0.0983  0.1481  0.2035  11.00000  0.05    0.69
Q15   1   0.0979  0.1770  0.1858  11.00000  0.05    0.69
Q16   1   0.0179  0.0825  0.0982  11.00000  0.05    0.68
Q17   1   0.0541  0.1716  0.3312  11.00000  0.05    0.67
Q18   1   0.0566  0.4153  0.1591  11.00000  0.05    0.67
Q19   1   0.0931  0.0512  0.0000  10.50000  0.05    0.66
Q20   1   0.0966  0.4362  0.3141  11.00000  0.05    0.66
;
_shelx_res_checksum              59655
_shelx_hkl_file
;
   0  -3   0    0.78    0.50
   0  -3   0    0.36    0.62
   0  -3   0    0.78    0.93
   0  -3   0    0.79    0.95
   0  -4   0   27.51    2.08
   0  -4   0   26.72    1.29
   0  -4   0   28.04    1.59
   0  -4   0   30.76    2.02
   0  -5   0    0.98    0.80
   0  -5   0   -0.28    1.28
   0   5   0   -0.01    0.36
   0  -5   0   -0.05    1.31
   0  -5   0    0.00    0.21
   0  -5   0    0.76    0.98
   0  -6   0  291.55    4.46
   0  -6   0   -0.01    0.24
   0  -6   0  285.97    6.24
   0  -6   0  275.20    5.21
   0  -6   0  299.73    6.94
   0   6   0  300.63    3.22
   0  -7   0    0.04    0.26
   0  -7   0   -0.04    2.45
   0   7   0    0.85    0.44
   0  -7   0    0.85    2.48
   0  -7   0    1.34    1.66
   0  -7   0    0.00    1.76
   0   8   0   66.84    1.76
   0  -8   0   74.88    3.02
   0  -8   0   68.37    3.99
   0  -8   0    0.09    0.41
   0  -8   0   67.78    3.33
   0  -8   0   75.21    4.61
   0  -9   0    0.47    1.40
   0  -9   0   -0.04    2.22
   0  -9   0    0.63    2.14
   0  -9   0    0.65    1.51
   0  -9   0    0.14    0.61
   0   9   0    0.37    0.36
   0 -10   0    0.73    1.53
   0 -10   0    0.17    1.59
   0 -10   0    5.90    2.34
   0 -10   0    0.83    2.21
   0 -11   0    0.86    1.77
   0 -11   0    0.37    2.35
   0 -11   0    0.05    1.69
   0 -11   0    0.25    2.27
   0 -12   0 1690.67   21.92
   0 -12   0 1606.08   17.38
   0 -12   0 1771.85   18.99
   0 -12   0 1644.90   14.48
   0 -13   0    8.39    2.31
   0 -13   0    2.94    2.39
   0 -13   0    6.54    1.95
   0 -14   0  372.26    9.64
   0 -14   0  361.55    9.41
   0 -15   0    2.22    1.97
   0 -15   0    0.21    2.40
   0 -16   0    3.52    2.76
   0 -16   0    5.19    2.45
   0 -17   0   -0.50    2.67
   0 -17   0    0.99    2.66
   0 -18   0   85.29    6.05
   0 -18   0   91.67    5.90
   0 -19   0   -2.31    2.47
   0 -19   0    2.40    3.27
   0 -20   0    3.77    3.14
   0 -21   0   -1.35    3.40
   0 -22   0   22.65    5.04
   1   2   0   14.85    0.82
   1  -2   0   12.76    0.88
   1  -2   0   12.95    0.91
  -1  -2   0   13.78    0.90
   1  -2   0   11.37    1.06
  -1   2   0   12.31    1.03
  -1  -2   0   13.41    0.73
  -1  -2   0   11.08    0.91
  -1  -2   0   11.75    1.46
  -1  -2   0   12.29    0.83
   1  -3   0   68.43    2.07
  -1  -3   0   69.75    2.02
   1  -3   0   67.99    2.01
  -1  -3   0   73.98    3.11
  -1   3   0   74.40    2.29
   1  -3   0   67.19    2.20
  -1  -3   0   69.82    2.13
  -1  -3   0   73.62    1.85
  -1  -4   0  399.44    5.01
  -1  -4   0  410.84    7.14
   1  -4   0  397.47    5.27
  -1   4   0  396.36    5.23
   1  -4   0  394.40    5.11
   1  -4   0  382.28    5.21
  -1  -4   0  397.74    4.75
  -1  -4   0  388.25    5.31
  -1  -5   0 1400.99   13.61
   1  -5   0 1287.13   10.69
   1  -5   0 1286.61    9.26
  -1  -5   0 1342.91    9.63
  -1  -5   0 1309.05   10.60
  -1  -5   0 1348.27    9.61
  -1   5   0 1347.39    9.71
   1  -5   0 1268.98   10.22
  -1   6   0    7.72    1.19
  -1  -6   0    8.41    1.45
   1  -6   0    6.65    1.73
  -1  -6   0    7.49    1.62
   1  -6   0    6.31    1.31
  -1  -6   0    8.28    1.33
  -1  -6   0    6.72    1.81
   1  -6   0    5.89    1.44
  -1  -7   0 2088.22   18.47
   1  -7   0 1927.30   11.99
   1  -7   0 1919.22   14.70
  -1  -7   0 2034.68   14.05
  -1   7   0 2099.27   51.83
  -1  -7   0 2026.26   15.29
   1  -7   0 2034.42   16.46
  -1  -7   0 1986.93   13.38
  -1   8   0  203.13    4.43
   1  -8   0  205.93    6.15
  -1  -8   0  194.71    4.79
  -1  -8   0  194.45    5.61
   1  -8   0  204.93    4.28
   1  -8   0  195.11    5.34
  -1  -8   0  199.07    5.15
  -1  -8   0  191.99    6.56
  -1  -9   0   30.87    2.69
   1  -9   0   40.72    3.56
  -1  -9   0   34.67    3.10
   1  -9   0   34.51    2.77
  -1  -9   0   42.47    3.79
  -1  -9   0   33.37    2.49
   1  -9   0   37.15    2.43
  -1   9   0   36.53    2.15
   1 -10   0    1.80    1.59
   1 -10   0    0.89    1.00
  -1 -10   0    1.87    1.94
  -1 -10   0    2.05    1.74
  -1 -10   0    1.04    2.15
   1 -10   0   -0.36    2.36
  -1 -10   0    1.66    1.56
  -1  10   0    1.64    1.04
   1 -11   0   75.40    4.92
  -1 -11   0   83.83    5.33
   1 -11   0   68.28    2.60
   1 -11   0   76.56    4.20
  -1 -11   0   75.49    4.41
  -1 -11   0   73.28    4.04
  -1  11   0   76.08    3.08
  -1 -11   0   73.53    3.73
   1 -12   0    9.38    2.81
   1 -12   0    8.65    2.27
  -1 -12   0   10.65    2.35
  -1 -12   0    9.15    2.50
  -1 -12   0    9.00    2.04
  -1 -12   0   10.66    2.80
   1 -12   0    0.01    0.53
  -1 -13   0   44.66    3.16
  -1 -13   0   45.56    3.89
   1 -13   0   45.75    4.02
  -1 -13   0   47.30    4.34
  -1 -13   0   43.83    3.70
   1 -13   0   47.24    3.83
  -1 -14   0   25.95    3.26
  -1 -14   0   25.53    3.77
  -1 -14   0   21.41    2.38
  -1 -14   0   24.59    3.14
   1 -14   0   26.51    3.47
   1 -14   0   27.71    3.39
  -1 -15   0  112.78    5.92
  -1 -15   0  103.22    6.74
   1 -15   0  109.97    6.06
  -1 -15   0   91.24    4.67
  -1 -15   0  102.08    5.60
   1 -15   0  105.86    5.85
  -1 -16   0   51.50    3.76
   1 -16   0   55.10    4.73
   1 -16   0   52.37    4.59
  -1 -16   0   54.02    5.30
  -1 -16   0   53.17    4.53
  -1 -16   0   57.27    4.70
   1 -17   0   95.98    6.07
  -1 -17   0   94.03    5.86
  -1 -17   0   88.38    5.77
   1 -17   0   93.67    5.88
   1 -18   0   27.70    4.05
  -1 -18   0   23.32    3.82
   1 -18   0   22.28    4.10
  -1 -18   0   24.94    4.06
  -1 -19   0  431.98   12.54
  -1 -19   0  488.69   12.81
   1 -19   0  459.12   13.24
   1 -20   0   15.62    4.10
  -1 -20   0   14.86    3.93
  -1 -21   0   36.01    5.02
   1 -21   0   36.26    5.15
   1 -22   0   -0.15    4.00
  -1 -22   0    1.64    3.81
  -2   0   0 2005.49   35.48
   2   0   0 2058.19   27.63
  -2   0   0 1960.38   12.56
   2   0   0 1954.73   50.37
   2  -1   0  803.73    8.54
  -2   1   0  796.70    8.53
   2   1   0  790.84    7.92
  -2  -1   0  790.20    6.27
  -2  -1   0  766.91    9.62
  -2  -1   0  790.74    7.84
  -2   1   0  802.20   20.61
   2  -1   0  795.46   21.18
   2  -2   0  428.94    6.55
   2  -2   0  442.57    4.70
  -2  -2   0  443.26    7.99
  -2   2   0  445.63    3.54
   2   2   0  456.26    5.89
  -2  -2   0  455.16    5.25
  -2  -2   0  447.97    5.76
  -2   2   0  454.14    6.71
  -2   3   0  341.85    3.08
   2   3   0  339.25    4.93
  -2  -3   0  348.71    7.51
  -2  -3   0  339.46    4.98
   2  -3   0  337.65    6.04
   2  -3   0  330.69    4.69
  -2   3   0  352.60    6.16
  -2  -3   0  337.01    4.85
   2  -4   0   49.37    2.70
  -2  -4   0   54.77    1.90
   2   4   0   53.14    2.03
  -2  -4   0   51.33    2.25
  -2  -4   0   53.19    2.09
  -2   4   0   51.11    2.70
   2  -4   0   53.70    2.31
   2  -4   0   49.06    2.21
  -2  -4   0   52.28    3.41
  -2  -5   0   27.89    1.89
   2  -5   0   26.41    1.96
  -2  -5   0   27.18    2.03
  -2  -5   0   27.04    1.68
   2  -5   0   30.74    2.02
  -2  -5   0   30.73    1.79
   2  -5   0   26.77    2.30
   2   5   0   30.73    1.50
  -2  -5   0   27.55    2.89
  -2   5   0   28.38    2.20
  -2  -6   0  124.85    4.08
  -2   6   0  142.08    4.46
   2   6   0  143.77    2.69
   2  -6   0  126.12    4.06
  -2  -6   0  141.72    5.82
   2  -6   0  131.55    4.05
  -2  -6   0  137.38    3.69
  -2  -6   0  135.12    4.00
  -2  -6   0  116.32    2.55
   2  -6   0  132.71    4.47
  -2  -7   0   94.24    3.85
  -2   7   0   97.47    3.88
  -2  -7   0   90.37    3.47
   2   7   0   79.95    1.88
   2  -7   0   89.55    3.88
   2  -7   0   92.29    3.72
  -2  -7   0   94.94    3.59
  -2  -7   0    0.45    0.75
   2  -7   0   91.65    4.21
  -2  -7   0   99.43    5.11
   2  -8   0    1.21    1.95
  -2  -8   0    0.93    1.66
  -2  -8   0   -0.07    1.35
  -2   8   0    0.46    1.33
  -2  -8   0    0.52    2.33
  -2  -8   0    2.03    1.67
   2  -8   0    0.05    1.33
   2  -8   0    0.15    1.93
   2  -9   0   54.99    3.32
  -2  -9   0   52.87    3.14
  -2  -9   0   51.57    3.04
  -2   9   0   57.52    3.24
  -2  -9   0   48.38    3.98
   2  -9   0   52.86    3.66
   2  -9   0   53.62    3.40
  -2  -9   0   57.76    3.52
  -2 -10   0   46.72    4.08
  -2 -10   0   44.62    3.01
  -2 -10   0   39.53    3.06
   2 -10   0   36.45    3.05
  -2  10   0   47.47    3.07
   2 -10   0   40.68    3.59
   2 -10   0   41.08    3.20
  -2 -10   0   40.59    3.21
  -2  11   0  861.27   11.74
   2 -11   0  756.72   12.26
  -2 -11   0  806.95   11.56
  -2 -11   0  824.53   12.48
   2 -11   0  771.82   10.28
  -2 -11   0  812.20   11.49
   2 -11   0  828.60   13.59
  -2 -11   0  865.37   14.94
  -2 -12   0  659.87   13.66
  -2 -12   0  607.20   10.67
  -2 -12   0  646.66   11.60
  -2  12   0  674.40   10.60
  -2 -12   0  635.72   10.64
   2 -12   0  598.78   11.46
   2 -12   0  646.12   12.68
   2 -12   0  591.05    9.01
   2 -13   0   26.98    3.53
  -2 -13   0   34.45    3.52
  -2 -13   0   28.98    3.71
  -2 -13   0   30.63    3.18
   2 -13   0   33.15    3.48
  -2 -13   0   30.37    2.91
   2 -14   0  245.19    8.65
  -2 -14   0  240.62    7.31
  -2 -14   0  239.65    7.63
  -2 -14   0  253.56    8.12
   2 -14   0  232.19    8.06
  -2 -14   0  271.61    9.77
   2 -15   0   95.65    5.91
  -2 -15   0   94.07    4.94
  -2 -15   0  107.27    5.80
   2 -15   0   92.60    5.71
  -2 -15   0  105.73    6.72
  -2 -15   0   89.12    5.21
  -2 -16   0   56.66    4.70
  -2 -16   0   42.86    4.19
  -2 -16   0   48.40    3.91
   2 -16   0   60.08    4.91
   2 -16   0   47.09    4.60
  -2 -16   0   51.93    5.22
  -2 -17   0    1.30    2.21
  -2 -17   0    0.62    2.75
  -2 -17   0    1.73    2.54
   2 -17   0    1.97    2.38
  -2 -17   0    0.88    3.04
   2 -17   0    0.96    2.69
  -2 -18   0   51.61    4.93
   2 -18   0   53.54    5.15
   2 -18   0   61.87    5.54
  -2 -18   0   53.74    4.86
  -2 -18   0   55.19    5.80
  -2 -18   0   52.63    4.43
  -2 -19   0   51.33    5.17
   2 -19   0   54.96    5.79
  -2 -19   0   52.16    5.16
   2 -20   0    2.85    3.52
  -2 -20   0    1.48    3.40
   2 -21   0    3.49    3.62
  -2 -21   0    1.78    3.61
  -2 -22   0    0.00    2.92
  -3   0   0    0.15    1.24
  -3   0   0    0.21    0.65
   3   0   0    0.20    1.14
   3   0   0    0.65    0.58
  -3   1   0  135.78    4.57
  -3  -1   0  139.15    3.28
   3   1   0  147.89    2.13
   3  -1   0  145.34    2.78
   3  -1   0  136.37    4.60
  -3   1   0  146.35    2.93
  -3  -1   0  143.23    4.47
   3   1   0  147.12    4.51
  -3  -1   0  126.86    5.11
  -3  -2   0    4.55    1.53
  -3  -2   0    4.55    2.15
  -3   2   0    5.33    1.52
  -3  -2   0    5.01    1.01
   3   2   0    5.19    1.35
  -3   2   0    5.42    0.75
   3  -2   0    5.89    1.54
   3  -2   0    6.60    0.99
   3  -3   0  285.26    4.75
  -3   3   0  303.01    6.92
  -3  -3   0  278.00    5.76
   3   3   0  285.86    5.86
   3  -3   0  276.11    6.64
  -3   3   0  287.88    3.44
  -3  -3   0  282.99    5.18
  -3  -3   0  268.91    7.76
   3  -4   0 1612.42   15.55
  -3   4   0 1709.97   16.11
  -3  -4   0 1631.02   12.66
  -3  -4   0 1779.65   19.14
   3  -4   0 1644.29   11.92
   3   4   0 1740.26   13.32
  -3   4   0 1722.93   30.22
  -3  -4   0 1632.95   13.01
   3  -5   0  413.80    8.31
  -3  -5   0  423.83    6.61
  -3   5   0  417.10    3.80
   3  -5   0  414.67    6.72
  -3  -5   0  440.76   10.13
   3   5   0  440.72    6.75
  -3  -5   0  408.75    6.87
  -3   5   0  430.35    8.64
   3  -5   0  401.95    6.80
  -3  -6   0   60.97    3.05
   3  -6   0   58.51    2.99
  -3  -6   0   57.28    2.84
   3   6   0   64.12    2.70
  -3   6   0   70.86    3.86
  -3  -6   0   61.64    4.67
  -3   6   0   57.39    1.60
   3  -6   0   62.83    3.88
   3  -6   0   59.72    3.13
  -3   7   0  395.94    8.66
  -3  -7   0  411.36   10.12
  -3  -7   0  368.93    7.18
   3  -7   0  368.59    8.15
   3  -7   0  376.04    7.39
   3   7   0  400.34    5.93
  -3  -7   0  361.42    5.86
   3  -7   0  363.06    7.23
   3  -8   0  946.79   11.96
  -3  -8   0 1034.75   15.77
   3  -8   0  942.99   12.78
  -3   8   0  970.58   13.57
  -3  -8   0  926.42   11.64
   3   8   0  989.97    8.53
   3  -8   0  921.93   11.98
  -3  -8   0  930.23   10.09
  -3  -8   0  904.15    8.10
   3   9   0  198.17    3.66
   3  -9   0  202.05    6.26
  -3  -9   0  211.29    7.76
  -3  -9   0    0.25    0.59
   3  -9   0  204.36    6.32
  -3  -9   0  207.79    5.42
   3  -9   0  205.28    6.53
  -3  -9   0  207.33    6.01
  -3   9   0  203.37    6.69
   3 -10   0    8.55    2.26
  -3 -10   0   14.46    3.59
   3 -10   0   13.47    2.88
  -3 -10   0   14.44    2.44
  -3 -10   0   15.22    2.51
   3 -10   0   15.61    2.91
  -3  10   0   15.27    2.46
  -3 -10   0   18.59    2.47
   3 -11   0   65.27    4.22
  -3 -11   0   72.33    4.26
  -3  11   0   72.08    4.41
  -3 -11   0   69.22    5.08
   3 -11   0   63.21    4.11
  -3 -11   0   66.83    3.83
   3 -11   0   68.42    4.59
  -3 -11   0   66.65    3.96
  -3 -12   0   11.88    2.27
   3 -12   0   12.64    2.57
   3 -12   0   11.90    2.67
  -3  12   0   14.47    2.67
   3 -12   0   16.06    2.77
  -3 -12   0   14.23    2.51
  -3 -12   0   12.18    2.92
  -3 -12   0   15.45    2.74
  -3 -13   0   22.33    2.92
  -3 -13   0   28.93    3.39
  -3 -13   0   22.07    2.76
   3 -13   0   21.15    3.17
   3 -13   0   24.95    3.45
   3 -13   0   25.23    2.70
  -3 -13   0   26.26    3.65
  -3 -14   0   63.54    4.68
   3 -14   0   69.68    4.99
  -3 -14   0   57.05    4.23
  -3 -14   0   66.75    5.35
  -3 -14   0   67.82    4.44
   3 -14   0   70.65    5.19
  -3 -15   0   36.33    3.67
  -3 -15   0   42.84    3.85
  -3 -15   0   39.18    4.10
   3 -15   0   33.91    4.14
  -3 -15   0   47.89    4.98
   3 -15   0   42.37    4.32
   3 -16   0  265.18    9.67
   3 -16   0  288.72   10.14
  -3 -16   0  278.81    9.44
  -3 -16   0  263.90    8.70
  -3 -16   0  317.69   11.42
  -3 -16   0  289.50    9.07
  -3 -17   0   56.77    4.79
  -3 -17   0   56.34    5.75
   3 -17   0   49.54    5.20
  -3 -17   0   47.83    4.42
   3 -17   0   51.18    5.07
  -3 -18   0  117.88    6.45
  -3 -18   0  130.92    8.25
   3 -18   0    0.00    1.42
   3 -18   0  136.93    7.89
  -3 -18   0  111.24    6.54
   3 -19   0   72.08    6.18
  -3 -19   0   56.80    5.04
  -3 -19   0   65.24    6.59
   3 -20   0   61.06    6.46
  -3 -20   0   24.50    4.16
   3 -21   0   47.02    6.29
  -4   0   0    2.97    0.89
  -4   0   0    2.48    1.81
   4   0   0    2.82    0.75
   4   0   0    1.14    1.52
  -4  -1   0  523.28    9.56
  -4  -1   0  537.55    7.10
   4  -1   0  546.16    5.73
  -4  -1   0  507.46   11.18
  -4   1   0  497.65    9.71
   4  -1   0  505.18    9.90
  -4   1   0  534.69    6.37
   4   1   0  534.98    9.80
   4   1   0  561.29    4.52
   4  -2   0  319.26    4.96
   4   2   0  321.99    3.17
   4  -2   0  292.25    7.73
  -4  -2   0  277.12    8.66
  -4   2   0  296.13    7.78
   4   2   0  311.43    7.48
  -4  -2   0  306.49    7.35
  -4  -2   0  309.18    5.76
  -4   2   0  307.09    4.65
  -4   3   0  419.15    4.98
   4  -3   0  404.67    6.07
  -4  -3   0  396.93    6.81
   4   3   0  404.56    8.24
  -4   3   0  400.24    9.18
   4  -3   0  398.64    9.09
  -4  -3   0  396.50    8.15
  -4  -3   0  392.53   10.58
   4  -4   0  350.45    6.13
  -4  -4   0  337.47    7.40
   4  -4   0  330.13    8.42
  -4   4   0  343.37    4.23
   4   4   0  366.32    7.69
  -4  -4   0  354.97   10.03
  -4   4   0  347.58    8.71
  -4  -4   0  332.75    6.55
   4  -5   0    0.98    1.97
  -4  -5   0   -0.38    2.88
  -4  -5   0    0.97    1.26
   4   5   0    0.01    1.34
  -4  -5   0    1.65    2.12
  -4   5   0    1.36    0.50
   4  -5   0    0.16    1.17
  -4   5   0    0.03    1.72
   4  -6   0   32.61    3.39
  -4   6   0   30.37    3.23
  -4  -6   0   30.65    2.54
   4  -6   0   32.55    2.64
  -4  -6   0   31.01    2.96
   4  -6   0   32.29    2.54
  -4  -6   0   29.59    3.93
   4   6   0   31.25    2.51
  -4   6   0   33.62    1.23
   4  -7   0   77.50    3.89
  -4  -7   0   73.65    3.78
  -4   7   0   74.22    1.60
   4  -7   0   80.95    4.78
   4   7   0   76.94    3.54
  -4  -7   0   74.38    3.83
  -4  -7   0   78.28    5.44
   4  -7   0   83.09    3.92
  -4   7   0   72.70    4.70
  -4  -8   0  257.58    6.84
  -4   8   0  278.79    8.59
   4  -8   0  271.65    7.11
   4  -8   0  270.95    7.04
  -4  -8   0  257.42    5.81
   4  -8   0  263.39    8.13
   4   8   0  288.99    6.24
  -4  -8   0  290.96    9.43
  -4  -9   0   87.13    5.67
   4  -9   0   74.06    4.86
  -4  -9   0   79.98    4.22
  -4   9   0   79.66    5.03
  -4  -9   0   76.00    3.22
   4  -9   0   83.60    4.40
   4  -9   0   74.41    4.22
  -4 -10   0  236.49    8.82
  -4  10   0  230.24    8.21
   4 -10   0  241.14    7.41
   4 -10   0  241.34    7.40
   4 -10   0  235.88    7.83
  -4 -10   0  243.88    7.16
   4 -11   0  628.30   12.15
  -4  11   0  685.50   13.82
  -4 -11   0  622.88   11.58
  -4 -11   0  666.50   14.31
   4 -11   0  621.75   12.12
   4 -11   0  622.39   12.32
   4 -12   0    1.54    2.06
  -4 -12   0    1.12    2.01
   4 -12   0    2.72    2.13
  -4  12   0    0.79    2.12
  -4 -12   0    1.38    2.21
   4 -12   0    1.09    2.20
  -4 -13   0   17.87    3.40
   4 -13   0   21.54    3.34
   4 -13   0   25.10    3.44
  -4 -13   0   28.35    3.33
   4 -13   0   20.69    3.17
  -4  13   0   22.53    3.57
  -4 -14   0   77.42    4.97
   4 -14   0   71.60    5.29
   4 -14   0   66.78    5.11
  -4 -14   0   70.60    5.55
   4 -15   0  123.84    6.97
  -4 -15   0  130.61    6.48
  -4 -15   0  131.20    7.59
   4 -15   0  127.74    7.01
   4 -16   0   89.50    6.26
   4 -16   0  107.02    6.69
  -4 -16   0  117.12    7.30
  -4 -16   0   96.70    5.96
   4 -17   0    2.84    3.22
  -4 -17   0    1.31    3.19
  -4 -17   0    1.39    2.79
   4 -17   0    2.54    3.01
   4 -18   0    9.40    3.66
  -4 -18   0    3.52    3.32
  -4 -18   0    6.91    3.45
  -4 -19   0   53.40    5.22
   4 -19   0   59.31    6.28
  -4 -20   0   41.36    5.16
   4 -20   0   46.29    6.03
  -5   0   0   -0.18    0.96
   5   0   0   -0.06    0.68
   5   0   0    0.63    1.91
  -5   0   0    0.04    2.12
  -5  -1   0  146.14    6.11
   5   1   0  158.41    6.34
   5   1   0  177.70    2.88
  -5   1   0  164.53    6.60
   5  -1   0  168.51    3.60
  -5   1   0  160.61    4.15
   5  -1   0  159.63    6.50
  -5  -1   0  134.37    6.93
  -5  -1   0  157.05    4.46
   5  -2   0   26.53    3.25
  -5   2   0   27.25    1.82
   5   2   0   30.05    1.15
  -5   2   0   23.99    3.12
  -5  -2   0   27.97    2.22
   5  -2   0   32.35    1.98
  -5  -2   0   23.53    3.15
  -5  -2   0   28.29    4.00
   5   2   0   30.04    3.12
  -5   3   0  842.74   14.70
  -5   3   0  881.29    8.20
   5   3   0  890.08   13.71
  -5  -3   0  837.10   13.24
   5  -3   0  827.39   14.45
   5   3   0  832.64    4.75
   5  -3   0  899.09    9.43
  -5  -3   0  856.13   10.81
  -5  -3   0  853.93   16.44
  -5  -4   0  416.57   11.88
  -5   4   0  428.39    5.49
  -5  -4   0  406.38    9.26
   5   4   0  374.22    3.61
   5  -4   0  409.34    7.08
  -5  -4   0  401.34    7.85
   5  -4   0  408.41   10.48
  -5   4   0  402.83   10.55
   5   4   0  410.78    9.40
  -5  -5   0    0.43    1.34
  -5  -5   0    1.82    2.39
  -5   5   0    0.27    0.66
  -5   5   0    0.99    2.11
   5   5   0    0.15    1.63
  -5  -5   0    1.62    2.90
   5  -5   0    1.86    2.18
   5  -5   0    0.76    1.33
   5  -6   0   37.60    3.89
  -5   6   0   34.36    1.47
   5  -6   0   32.61    2.98
  -5  -6   0   36.48    2.95
   5   6   0   38.83    3.27
  -5   6   0   33.22    3.82
  -5  -6   0   40.77    5.48
   5  -6   0   32.55    2.76
  -5  -6   0   29.41    3.96
   5  -7   0   78.93    4.24
   5  -7   0   80.07    5.30
   5   7   0   83.30    4.33
  -5   7   0   76.95    5.31
   5  -7   0   81.37    4.14
  -5  -7   0   75.73    4.52
  -5  -7   0   78.95    4.17
  -5  -7   0   82.54    6.00
  -5  -8   0  151.55    5.78
   5   8   0  161.42    5.71
  -5  -8   0  132.22    5.29
  -5   8   0  144.56    7.15
   5  -8   0  150.21    7.01
   5  -8   0  139.83    5.60
  -5  -8   0  152.28    7.63
   5  -8   0  164.03    5.89
  -5  -9   0  320.40    7.47
   5  -9   0  352.93    8.79
  -5  -9   0  336.28   10.82
   5  -9   0  325.12    9.99
   5  -9   0  313.92    8.32
  -5  -9   0  321.22    8.37
  -5   9   0  328.32   10.50
  -5 -10   0   32.73    4.11
  -5  10   0   29.86    4.00
  -5 -10   0   29.53    3.28
   5 -10   0   31.18    3.87
   5 -10   0   30.08    3.30
   5 -10   0   36.39    3.53
  -5 -11   0   87.62    6.06
   5 -11   0   75.96    4.86
   5 -11   0   85.74    5.21
   5 -11   0   76.38    5.47
  -5 -11   0   83.61    4.94
  -5  11   0   94.75    6.26
  -5 -12   0   19.73    3.68
   5 -12   0   17.67    3.06
  -5  12   0   18.05    3.79
   5 -12   0   21.52    3.37
  -5 -12   0   17.41    3.11
   5 -12   0   13.50    3.11
  -5  13   0   41.53    4.80
   5 -13   0   29.39    3.71
   5 -13   0   33.66    3.79
   5 -13   0   40.39    4.29
  -5 -13   0   38.93    3.97
  -5 -13   0   35.66    4.26
  -5 -14   0    0.71    2.83
   5 -14   0    2.61    2.44
   5 -14   0    1.41    2.65
  -5 -14   0    0.54    2.46
   5 -14   0    2.02    2.46
  -5 -15   0  463.72   12.28
   5 -15   0  446.25   12.57
   5 -15   0  459.65   13.12
  -5 -15   0  465.64   13.70
   5 -16   0  108.88    7.00
   5 -16   0  108.02    7.07
  -5 -16   0  108.27    6.58
  -5 -16   0  116.83    7.60
   5 -17   0    0.00    1.47
   5 -17   0   24.41    4.41
  -5 -17   0   25.74    3.92
  -5 -17   0   23.76    4.41
  -5 -18   0   43.46    4.88
   5 -18   0   47.30    5.71
   5 -19   0   20.27    5.08
  -5 -19   0   14.29    3.94
  -5 -20   0    4.40    3.86
   6   0   0  567.37   12.92
  -6   0   0  552.96   12.66
   6   0   0  597.44    6.19
  -6   0   0  565.88    8.66
   6  -1   0   16.56    3.11
  -6  -1   0   20.03    2.13
  -6   1   0   18.47    3.21
  -6  -1   0   15.90    4.09
  -6  -1   0   15.17    3.21
   6   1   0   16.38    3.10
  -6   1   0   20.00    1.91
   6  -1   0   19.49    1.59
  -6  -2   0  118.86    6.32
   6  -2   0  127.38    6.64
  -6  -2   0  128.32    4.69
   6   2   0  114.31    6.16
  -6   2   0  126.22    6.68
   6  -2   0  131.94    3.81
  -6  -2   0  112.14    7.31
  -6   2   0  135.95    4.07
  -6  -3   0   80.64    6.35
   6  -3   0   93.62    3.55
  -6  -3   0   90.88    5.46
   6   3   0   84.04    5.25
  -6   3   0   86.12    5.76
  -6   3   0   88.74    3.24
  -6  -3   0   89.43    4.12
   6  -3   0   85.29    5.64
  -6  -4   0  671.10   10.86
  -6   4   0  666.67   14.89
   6  -4   0  728.95    9.85
  -6   4   0  675.42    7.79
  -6  -4   0  686.77   16.38
   6  -4   0  684.13   14.71
  -6  -4   0  672.21   13.16
   6   4   0  681.03   13.53
   6  -5   0   40.14    2.92
  -6  -5   0   38.46    4.81
   6  -5   0   36.44    4.14
   6   5   0   43.08    3.93
  -6  -5   0   39.80    3.18
  -6   5   0   40.10    4.45
  -6  -5   0   40.75    4.04
   6  -6   0   60.03    5.20
  -6  -6   0   65.44    4.03
   6  -6   0   66.48    3.76
  -6   6   0   66.24    5.45
  -6  -6   0   65.75    5.80
   6   6   0   62.79    4.59
  -6  -6   0   60.51    4.59
   6  -7   0    1.85    1.70
  -6  -7   0    1.16    2.36
   6  -7   0    4.67    2.75
  -6  -7   0    3.94    1.95
   6   7   0    2.84    1.97
  -6   7   0    2.02    2.63
  -6  -7   0    3.24    2.77
   6  -7   0    2.32    1.91
  -6   8   0  584.36   14.89
   6   8   0  636.01   12.45
  -6  -8   0  547.89   11.42
   6  -8   0  570.67   14.20
   6  -8   0  599.54   11.25
  -6  -8   0  587.23   14.98
  -6  -8   0  565.57   11.34
   6  -8   0  562.69   11.32
  -6   9   0   42.68    5.07
  -6  -9   0    1.46    1.09
   6  -9   0   50.97    5.03
   6  -9   0   50.42    3.96
  -6  -9   0   46.51    4.01
   6  -9   0   44.88    3.79
  -6  -9   0   38.21    4.80
   6 -10   0  279.87   10.59
   6 -10   0  268.18    8.56
  -6  10   0  306.31   11.48
   6 -10   0  303.66    9.01
  -6 -10   0  297.96    8.95
  -6 -10   0  290.62   10.83
  -6 -11   0   21.13    3.79
  -6 -11   0   20.26    3.22
   6 -11   0   19.87    3.13
   6 -11   0   22.95    3.94
   6 -11   0   23.17    3.42
  -6  11   0   18.09    3.98
  -6  12   0  160.49    8.95
   6 -12   0  144.26    6.99
  -6 -12   0  141.38    7.84
  -6 -12   0  132.74    6.67
   6 -12   0  135.03    6.86
   6 -12   0  134.09    7.65
  -6  13   0    2.26    3.38
   6 -13   0   -0.17    2.53
  -6 -13   0   -0.40    2.40
   6 -13   0   -0.20    2.64
   6 -13   0    0.73    2.96
  -6 -13   0    0.24    3.06
   6 -14   0    0.59    2.84
   6 -14   0    0.83    2.75
  -6 -14   0    1.20    2.76
   6 -14   0   -0.43    3.05
  -6 -14   0    1.27    2.85
   6 -15   0   12.94    3.81
  -6 -15   0   13.55    3.35
  -6 -15   0   11.29    3.59
   6 -15   0   11.76    3.45
  -6 -16   0  107.64    7.01
   6 -16   0  107.96    7.10
   6 -16   0  107.99    7.29
  -6 -17   0   11.27    3.65
   6 -17   0   18.07    4.46
   6 -18   0    4.43    4.06
  -6 -18   0    3.63    3.43
  -6 -19   0    2.91    3.63
  -7   0   0    0.04    1.37
  -7   0   0    0.10    2.73
   7   0   0   -0.04    2.77
  -7   0   0   -0.85    2.89
  -7  -1   0  210.96   10.27
   7   1   0  228.23    9.35
  -7  -1   0  197.77    8.67
  -7   1   0  223.66    9.36
  -7  -1   0  226.41    6.39
  -7   1   0  224.63    5.95
   7  -1   0  235.49    9.61
   7  -2   0   74.70    5.93
  -7  -2   0   58.02    5.89
  -7   2   0   61.53    5.63
  -7   2   0   72.49    3.42
  -7  -2   0   66.62    5.39
   7   2   0   65.39    5.42
  -7  -2   0   64.49    3.80
  -7  -3   0  459.95    9.54
   7   3   0  483.01   12.95
  -7   3   0  465.57   13.58
  -7  -3   0  483.69   15.04
  -7  -3   0  453.42   12.36
   7  -3   0  474.72   13.57
  -7   3   0  500.14    7.92
  -7  -4   0   25.31    4.47
   7   4   0   23.26    3.87
  -7  -4   0   28.12    3.00
  -7   4   0   30.14    4.45
   7  -4   0   27.88    2.55
  -7  -4   0   20.01    3.49
   7  -4   0   28.02    4.32
  -7  -5   0   19.43    4.05
  -7  -5   0   18.78    3.17
   7  -5   0   20.32    2.47
  -7  -5   0   18.54    2.77
  -7   5   0   17.07    4.20
   7   5   0   19.02    3.53
   7  -5   0   17.09    4.28
  -7  -6   0    0.42    2.95
  -7   6   0   -0.34    3.10
  -7  -6   0    0.27    1.96
  -7  -6   0    0.37    2.57
   7  -6   0    0.76    3.21
   7   6   0    0.04    2.34
   7  -6   0    1.14    1.70
  -7  -7   0  132.56    6.06
   7  -7   0  130.17    7.94
   7  -7   0  113.43    5.74
  -7  -7   0  115.83    7.65
   7  -7   0  132.74    5.59
  -7  -7   0  132.60    6.81
  -7   7   0  123.59    7.94
   7   7   0  133.33    6.91
  -7  -8   0   24.59    4.46
   7  -8   0   21.93    3.04
   7  -8   0   30.05    4.80
  -7  -8   0   20.66    3.59
  -7  -8   0   20.61    3.13
   7  -8   0   21.57    3.07
  -7   8   0   21.74    4.50
   7  -9   0  119.59    5.87
  -7  -9   0  112.54    7.48
   7  -9   0  106.13    5.82
  -7   9   0  132.50    8.57
   7  -9   0  117.51    7.84
  -7  -9   0  112.41    6.00
   7 -10   0   41.90    4.05
  -7  10   0   41.39    5.65
  -7 -10   0   37.22    4.95
   7 -10   0   29.49    3.61
  -7 -10   0   36.50    3.96
   7 -10   0   37.88    5.30
   7 -11   0   86.25    5.63
  -7  11   0   88.56    7.64
   7 -11   0   77.51    6.88
   7 -11   0   91.05    5.83
  -7 -11   0   81.20    6.56
  -7 -11   0   90.47    5.84
   7 -12   0    2.01    3.41
  -7 -12   0    1.51    2.93
   7 -12   0    2.35    2.64
  -7 -12   0    3.76    3.17
  -7  12   0    2.98    3.83
   7 -12   0    2.39    2.40
   7 -13   0   88.95    7.30
  -7 -13   0   81.35    6.06
   7 -13   0   87.70    6.06
  -7 -13   0   85.20    6.79
   7 -13   0  102.57    6.53
  -7  13   0   95.05    8.06
   7 -14   0   19.81    4.79
  -7 -14   0   22.87    4.04
  -7  14   0   28.57    5.35
   7 -14   0   18.14    3.80
  -7 -14   0    2.56    2.10
   7 -14   0   23.85    4.13
   7 -15   0  351.55   12.34
   7 -15   0  382.42   12.60
  -7 -15   0  338.39   11.87
  -7 -16   0   -0.18    3.45
   7 -16   0    1.20    3.70
   7 -17   0   14.45    4.35
  -7 -17   0   14.52    4.26
   7 -18   0    0.32    4.01
   8   0   0   77.45    6.69
  -8   0   0   78.69    4.20
  -8   0   0   70.31    7.08
  -8   0   0   76.15    6.44
  -8   1   0  111.75    8.63
  -8   1   0  134.33    5.11
  -8   1   0  128.93    8.18
  -8  -1   0  126.21    7.78
   8   1   0  133.91    8.20
  -8  -1   0  130.51    5.44
  -8  -1   0  116.75    8.80
   8  -1   0  140.57    8.38
  -8  -2   0    8.38    2.23
  -8  -2   0    7.94    3.80
   8  -2   0    7.98    3.76
  -8  -2   0    6.46    3.17
   8   2   0   11.48    3.74
  -8   2   0   11.75    3.84
  -8   3   0   22.80    4.66
  -8  -3   0   21.96    4.13
  -8  -3   0   25.45    2.97
  -8  -3   0   16.58    4.74
   8  -3   0   22.83    4.53
   8   3   0   28.50    4.39
  -8   4   0  185.46    9.90
  -8  -4   0  178.70    6.88
  -8  -4   0  175.82    8.66
   8  -4   0  178.11    9.70
  -8  -4   0  188.30   10.62
   8   4   0  190.09    9.13
  -8   5   0   42.75    5.33
  -8  -5   0   38.78    3.78
  -8  -5   0   41.64    5.77
  -8  -5   0   38.94    4.88
   8   5   0   39.42    5.02
   8  -5   0   36.09    5.12
  -8   6   0  161.17    9.76
   8   6   0  163.39    8.68
  -8  -6   0  163.70    8.26
   8  -6   0  165.45    9.62
  -8  -6   0  160.23    6.89
  -8  -6   0  175.50   10.05
  -8  -7   0   57.28    4.61
  -8  -7   0   51.91    6.03
  -8  -7   0   55.36    5.34
  -8   7   0   61.44    6.59
   8  -7   0   60.58    6.58
   8   7   0   70.06    5.89
   8  -7   0   54.49    4.64
   8  -8   0  262.69    9.22
   8  -8   0  281.26   12.20
  -8  -8   0  278.57   12.08
  -8  -8   0    0.37    2.24
  -8   8   0  291.82   12.86
  -8  -8   0  282.14    9.45
  -8  -9   0    0.39    3.26
  -8  -9   0    0.35    2.52
   8  -9   0    0.49    2.29
   8  -9   0   -1.06    4.06
  -8   9   0   -0.46    4.21
   8 -10   0   87.70    5.85
  -8  10   0   87.24    8.29
   8 -10   0   82.80    7.55
  -8 -10   0   94.44    6.13
   8 -10   0   91.99    5.80
  -8 -10   0   91.04    7.32
  -8 -11   0  146.92    8.98
   8 -11   0  134.51    9.11
   8 -11   0  126.86    7.12
  -8  11   0  137.49    9.83
  -8 -11   0  132.21    7.29
   8 -11   0  140.69    7.07
   8 -12   0   19.77    5.04
  -8  12   0   19.11    5.75
  -8 -12   0   14.50    3.65
   8 -12   0   16.53    3.63
   8 -12   0   20.14    3.97
  -8 -12   0   16.53    3.67
   8 -13   0   11.49    3.38
  -8 -13   0   14.43    3.73
   8 -13   0   16.92    3.83
   8 -13   0   21.83    5.30
  -8  13   0   19.09    5.10
  -8 -14   0    3.03    3.15
   8 -14   0    1.54    3.28
   8 -14   0    0.63    3.52
   8 -14   0   -1.29    4.46
  -8  14   0    4.16    4.99
  -8 -15   0   16.91    4.36
   8 -15   0   16.40    4.42
   8 -16   0   20.61    4.66
   9   0   0   -0.11    3.83
  -9   0   0    0.01    4.00
  -9   0   0   -1.65    4.27
  -9  -1   0  231.10    7.55
   9   1   0  226.67   11.12
   9  -1   0  243.47   11.62
  -9   1   0  214.66   12.46
  -9   1   0  218.71   11.09
  -9  -1   0  224.68   12.67
  -9  -1   0  231.36   11.19
   9   2   0   10.60    4.33
  -9  -2   0   12.38    4.33
  -9   2   0   11.74    4.26
  -9  -2   0    8.24    4.26
  -9  -2   0   10.78    2.69
  -9   2   0    8.72    4.53
   9  -2   0   13.73    4.40
  -9  -3   0   62.19    6.37
  -9   3   0   54.52    6.53
  -9  -3   0   52.35    6.95
   9  -3   0   54.97    6.54
  -9  -3   0   62.70    4.60
   9   3   0   63.15    6.50
   9  -4   0  292.07   13.02
   9   4   0  302.76   12.50
  -9   4   0  291.79   13.22
  -9  -4   0  271.42   11.70
  -9  -4   0  274.01   13.52
  -9  -4   0  293.24    9.19
  -9  -5   0   -2.57    4.49
   9   5   0    0.64    3.44
  -9   5   0    0.14    4.25
  -9  -5   0    0.45    2.35
  -9  -5   0   -0.14    3.83
   9  -5   0    1.32    4.50
  -9   6   0    9.47    4.75
   9  -6   0   13.20    4.77
  -9  -6   0    7.70    4.44
  -9  -6   0    9.20    3.09
   9   6   0    8.62    3.63
  -9  -6   0   12.81    4.20
   9  -7   0   -0.73    4.41
  -9   7   0    0.44    4.75
  -9  -7   0    1.10    2.49
  -9  -7   0    0.23    4.21
   9  -7   0   -0.02    2.68
  -9  -7   0    2.18    3.43
   9  -8   0  155.78    7.86
  -9   8   0  174.86   11.41
  -9  -8   0  171.22    7.95
  -9  -8   0  197.91   11.19
   9  -8   0  175.30   10.83
   9  -9   0    6.12    4.88
   9  -9   0    3.81    2.96
  -9   9   0    4.08    5.11
  -9  -9   0    3.30    2.96
  -9  -9   0    4.11    3.98
   9 -10   0    0.15    2.78
  -9 -10   0    1.19    3.81
  -9  10   0    1.51    5.39
  -9 -10   0    0.62    3.18
   9 -10   0   -0.38    4.74
  -9  11   0   78.35    8.52
  -9 -11   0   71.25    6.12
   9 -11   0   68.42    5.74
   9 -11   0   68.09    7.67
  -9  12   0    2.52    5.49
  -9 -12   0    1.48    3.33
   9 -12   0    3.98    3.12
   9 -12   0    0.66    5.13
   9 -13   0  111.98    7.56
  -9  13   0  124.56   10.66
  -9 -13   0  111.86    7.59
   9 -13   0  117.55    9.26
   9 -14   0    3.05    2.59
  -9  14   0   25.49    7.16
   9 -14   0   22.87    6.03
 -10   0   0   54.29    8.15
  10   0   0   52.08    7.10
 -10   0   0   45.24    6.66
 -10  -1   0  105.46    9.89
  10  -1   0   99.67    8.40
 -10   1   0   78.06    7.52
 -10  -1   0   87.25    8.15
  10   1   0   96.82    8.59
 -10   1   0   97.13    9.58
 -10  -2   0    0.53    4.59
 -10   2   0    0.21    4.33
 -10   2   0    2.59    5.01
 -10  -2   0   -0.62    4.93
  10   2   0    1.57    4.48
  10  -2   0   -0.65    4.64
 -10  -3   0   69.11    5.07
 -10  -3   0   64.24    7.26
  10   3   0   79.21    7.89
 -10   3   0   71.08    7.94
 -10   3   0   66.04    8.67
 -10  -3   0   85.24    8.13
  10  -3   0   68.24    7.53
 -10  -4   0    8.16    2.96
 -10  -4   0   10.28    4.42
  10   4   0    7.84    4.63
 -10  -4   0   16.05    5.62
 -10   4   0   10.51    4.79
  10  -4   0    4.14    4.31
 -10  -5   0   -0.32    4.02
  10   5   0   -2.51    4.06
  10  -5   0   -0.73    5.06
 -10  -5   0    0.20    2.57
 -10   5   0   -0.14    5.33
 -10  -5   0    0.21    5.00
  10  -6   0  179.18   11.58
 -10  -6   0  180.67   11.77
 -10  -6   0  157.86    9.86
 -10  -6   0  166.14    7.97
 -10   6   0  178.53   11.88
  10  -6   0  157.96    8.34
 -10   7   0   14.18    5.30
  10  -7   0   14.53    5.56
 -10  -7   0   12.88    5.03
  10  -7   0   13.81    3.61
 -10  -7   0   11.72    3.49
  10  -8   0   26.68    4.43
 -10  -8   0   15.75    4.36
  10  -8   0   29.98    6.19
 -10   8   0   25.41    6.35
 -10  -8   0   31.97    4.72
  10  -9   0   18.36    3.87
 -10   9   0   20.85    6.36
 -10  -9   0   19.23    4.01
  10  -9   0   19.89    5.93
 -10 -10   0    1.80    3.58
  10 -10   0    1.96    3.39
 -10  10   0    4.02    5.32
  10 -10   0   -0.36    4.89
  10 -11   0  121.97    7.93
 -10 -11   0  145.07    8.55
  10 -11   0  121.36   10.15
 -10  11   0  152.03   11.93
  10 -12   0   21.66    4.72
  10 -12   0   28.57    7.08
 -10  12   0   39.51    8.01
  10 -13   0    0.54    2.85
 -11   0   0   -0.59    6.31
  11   0   0   -1.07    5.20
 -11   0   0    3.44    5.48
  11  -1   0   65.78    7.94
 -11  -1   0   65.91    7.95
 -11   1   0   55.69    8.61
 -11  -1   0   64.24    9.11
  11   1   0   66.52    7.88
 -11   1   0   60.88    8.13
 -11  -2   0    6.86    5.19
 -11   2   0   13.12    5.94
 -11   2   0    7.63    6.09
  11   2   0    8.24    5.42
  11  -2   0    7.75    5.62
 -11  -2   0    6.63    6.10
  11   3   0    6.28    5.43
 -11  -3   0    4.42    6.59
 -11   3   0    6.24    6.60
  11  -3   0    6.26    5.86
 -11   3   0    2.08    5.31
 -11  -3   0    5.99    5.68
 -11   4   0   79.37   10.06
 -11   4   0   81.77    8.92
  11  -4   0   99.20    9.70
 -11  -4   0   82.44    8.59
  11   4   0   77.92    8.68
 -11  -4   0   89.30    9.55
 -11  -5   0   43.98    6.76
 -11   5   0   52.66    7.93
 -11   5   0   34.96    8.27
  11   5   0   45.23    6.95
 -11  -5   0   43.17    4.86
 -11  -5   0   41.82    7.40
  11  -5   0   34.40    6.95
 -11  -6   0    3.44    3.31
  11  -6   0    3.88    3.66
 -11  -6   0    0.00    3.02
 -11   6   0   10.32    6.12
  11  -6   0    1.58    6.34
 -11   7   0   87.28    9.83
  11  -7   0   82.94    9.32
  11  -7   0   68.12    6.49
 -11  -7   0   87.63    6.66
  11  -8   0   38.14    5.39
 -11  -8   0   42.10    5.11
  11  -9   0    2.93    4.21
 -12   0   0  220.23   16.01
 -12   1   0    5.71    8.84
 -12  -1   0   -4.80    8.59
 -12  -2   0    6.74    8.64
 -12  -3   0   22.06    6.97
 -12  -3   0   31.86    7.72
 -12  -4   0    2.29    7.66
   0   0  -1  363.06    8.88
   0   0   1  384.75    4.43
   0   0   1  389.00    8.84
   0   0  -1  374.04    5.75
   0   1   1    0.01    1.87
   0  -1  -1    0.58    1.10
   0  -1   1    2.14    1.89
   0  -1   1    1.03    0.81
   0   1  -1    1.08    0.73
   0   1  -1    0.75    1.91
   0   1   1    0.52    0.40
   0  -1  -1    1.93    2.29
   0  -2  -1   75.23    3.53
   0  -2   1   87.62    4.12
   0   2   1   71.74    4.36
   0   2  -1   77.70    4.11
   0  -2  -1   76.65    2.63
   0  -2   1   75.40    2.49
   0  -2  -1   75.21    4.63
   0  -2   1   83.33    3.01
   0  -3   1    0.44    1.78
   0  -3   1    3.85    1.03
   0  -3  -1   -0.09    1.33
   0  -3   1    0.03    1.20
   0   3   1    0.92    1.67
   0   3  -1    0.52    1.55
   0  -3  -1    0.98    1.21
   0  -3  -1    1.26    2.09
   0  -4  -1  130.75    4.66
   0   4   1  128.93    4.62
   0   4  -1  125.63    4.74
   0  -4   1  131.20    4.50
   0  -4  -1  116.79    5.00
   0  -4   1  131.16    3.08
   0  -4  -1  121.18    3.37
   0  -4   1  135.81    4.68
   0  -5  -1   -0.20    1.80
   0   5  -1    0.45    1.26
   0  -5   1    0.19    0.88
   0  -5  -1    0.11    1.61
   0  -5  -1    0.27    0.65
   0  -5   1    0.44    1.88
   0  -5  -1    0.28    1.15
   0   5   1    0.39    1.12
   0  -5   1    0.01    1.48
   0   6   1 3716.77   77.37
   0  -6  -1 3445.80   71.37
   0   6  -1 3904.63   24.01
   0  -6   1 3981.88   88.60
   0  -6   1 3668.15   62.20
   0  -6   1 3680.53   81.17
   0  -6   1 3878.27   25.21
   0  -6  -1 3826.86   51.89
   0  -6  -1 3810.03   28.74
   0  -6  -1 3753.65   77.07
   0  -7  -1    3.02    1.57
   0  -7  -1    0.83    1.90
   0   7  -1    0.44    1.34
   0  -7   1    0.25    2.73
   0  -7   1    0.19    1.46
   0  -7   1    0.83    1.91
   0   7   1    0.56    0.94
   0  -7   1   -0.03    1.25
   0  -7  -1    0.01    1.84
   0  -7  -1    0.08    1.27
   0  -8   1  482.92    6.59
   0  -8   1  468.13    8.57
   0  -8   1  473.68    8.59
   0  -8  -1  465.59    6.12
   0   8  -1  451.93    8.99
   0   8   1  451.43    6.88
   0  -8  -1  464.49    6.79
   0  -8  -1  451.24    7.67
   0  -8  -1  481.60   11.84
   0  -8   1  469.45   10.17
   0   9  -1    0.34    1.56
   0  -9   1   -0.27    1.46
   0  -9   1   -0.11    2.07
   0  -9  -1    1.26    1.50
   0  -9   1    0.09    1.73
   0  -9  -1   -0.38    2.13
   0   9   1    0.55    0.96
   0  -9  -1   -0.17    1.76
   0  -9  -1   -0.14    1.60
   0  -9   1   -0.22    2.76
   0 -10  -1    0.49    0.88
   0 -10   1    0.56    1.64
   0 -10   1    0.26    2.02
   0  10   1    0.35    1.03
   0 -10  -1    0.19    2.20
   0 -10  -1    0.81    1.79
   0  10  -1    0.41    1.75
   0 -10   1    0.17    1.46
   0 -10  -1    0.88    1.63
   0 -10   1    0.45    1.55
   0 -11  -1    0.19    1.77
   0 -11  -1    0.05    0.86
   0 -11  -1    0.30    1.92
   0 -11  -1   -0.08    2.45
   0 -11   1    0.12    1.73
   0 -11   1   -0.33    2.29
   0 -11   1   -0.46    1.53
   0 -11   1   -0.08    1.80
   0 -12  -1  144.71    8.09
   0 -12   1  144.56    6.67
   0 -12   1  138.71    5.89
   0 -12  -1  131.00    5.44
   0 -12  -1  145.08    4.87
   0 -12   1  138.55    4.58
   0 -13  -1   -0.31    2.09
   0 -13   1    0.41    1.41
   0 -13   1    0.31    2.30
   0 -13  -1   -0.23    3.03
   0 -13   1    0.07    2.28
   0 -13  -1    0.03    1.72
   0 -14  -1   22.40    4.41
   0 -14   1   20.69    3.23
   0 -14  -1   28.99    3.39
   0 -14   1   24.78    2.46
   0 -14  -1   24.50    2.69
   0 -14   1   26.15    3.84
   0 -15  -1    0.52    2.23
   0 -15   1    0.35    2.52
   0 -15   1   -0.02    2.47
   0 -15  -1    0.53    1.43
   0 -15  -1   -0.52    3.30
   0 -15   1   -0.32    1.04
   0 -16  -1   24.05    4.92
   0 -16  -1   25.52    3.62
   0 -16   1   28.25    3.82
   0 -16   1   28.05    4.19
   0 -17   1    1.29    2.82
   0 -17  -1    1.37    2.79
   0 -17   1    1.25    2.89
   0 -18   1  497.56   13.74
   0 -18   1  468.90   13.17
   0 -18  -1  462.77   12.68
   0 -19   1    0.13    3.27
   0 -19  -1    1.25    3.23
   0 -19   1    0.89    3.12
   0 -20  -1  192.07    9.11
   0 -20   1  200.60    9.56
   0 -20   1  179.27    9.13
   0 -21  -1    0.40    3.24
   0 -21   1    1.10    4.01
   0 -22   1   15.09    4.77
   0 -22  -1   11.06    4.81
  -1 -22  -1    9.13    4.70
   1 -22   1    0.00    2.32
   1 -21   1   29.98    5.21
   1 -21   1   42.35    5.52
  -1 -21  -1   31.37    5.15
   1 -20   1   17.34    4.35
  -1 -20  -1   15.60    3.79
   1 -20   1   13.62    4.25
   1 -19   1   32.46    4.61
   1 -19   1   31.11    4.97
  -1 -19  -1   35.41    4.50
  -1 -19  -1   35.86    5.98
  -1 -18  -1    2.80    3.64
   1 -18   1    2.24    3.24
  -1 -18  -1    3.14    3.02
   1 -18   1    1.61    3.63
   1 -17   1   52.94    5.33
  -1 -17  -1   55.81    6.43
  -1 -17  -1   55.04    4.83
   1 -17   1   58.86    5.25
  -1 -16  -1    1.54    3.39
   1 -16   1    1.09    2.84
   1 -16   1    0.16    2.64
  -1 -16  -1   -0.84    2.26
  -1 -15  -1   44.98    3.98
  -1 -15  -1   51.58    3.56
   1 -15   1   50.38    4.87
   1 -15   1   44.87    4.32
  -1 -15  -1   48.20    5.71
  -1 -14  -1   60.86    3.67
  -1 -14  -1   69.06    6.28
  -1 -14  -1   56.18    4.21
   1 -14   1   55.65    4.53
   1 -14   1   62.02    5.09
   1 -13   1  960.11   10.10
   1 -13   1 1044.64   15.82
  -1 -13  -1 1063.63   14.75
   1 -13   1 1078.71   17.85
  -1 -13  -1 1197.93   21.98
  -1 -13  -1 1126.95   13.00
  -1 -12  -1   19.57    2.64
   1 -12   1   27.38    3.19
  -1 -12  -1   21.15    3.90
   1 -12   1   17.91    1.70
   1 -12   1    9.27    1.59
   1 -12   1   14.04    2.92
  -1 -12  -1   16.24    2.44
  -1 -11  -1  391.81    7.20
   1 -11   1  381.10    9.04
   1 -11   1  373.09    7.25
   1 -11   1  372.50   10.20
   1 -11   1  405.00    6.10
  -1 -11  -1  391.63    8.26
  -1  11   1  418.77    7.66
  -1 -11  -1  412.60   12.46
   1 -10   1  143.01    6.31
   1  10  -1  116.08    3.33
  -1 -10  -1  146.60    3.12
  -1  10   1  174.37    5.12
  -1 -10  -1  166.59    4.59
   1 -10   1  161.70    5.84
  -1 -10  -1  149.26    5.03
   1 -10   1  145.34    4.69
  -1 -10  -1  157.09    7.70
   1 -10   1  160.40    3.88
   1  -9   1  132.09    6.10
   1   9  -1   98.83    3.48
  -1  -9  -1  119.26    6.60
   1  -9   1  118.88    4.86
  -1  -9  -1  124.32    3.79
   1  -9   1  124.78    4.51
  -1  -9  -1  128.15    4.42
  -1   9   1  131.44    4.49
   1  -9   1  138.29    3.42
  -1  -8  -1   18.91    3.24
  -1  -8  -1   22.35    2.49
   1  -8   1   20.56    2.70
  -1   8   1   26.76    2.31
   1  -8   1   19.82    2.60
   1  -8   1   20.60    2.33
   1   8  -1   16.50    1.88
   1  -8   1   23.75    1.71
  -1  -8  -1   22.43    1.99
  -1  -8  -1   19.85    2.21
   1  -7   1   55.58    3.45
   1  -7   1   61.00    2.27
  -1  -7  -1   55.00    4.12
  -1   7   1   53.22    2.95
  -1  -7  -1   57.04    4.67
   1  -7   1   52.90    3.05
  -1  -7  -1   54.71    2.88
   1   7  -1   45.83    2.88
   1  -7   1   54.06    3.63
   1  -6   1    7.69    1.89
   1  -6   1    9.99    1.20
  -1  -6  -1    8.97    1.74
  -1  -6  -1    8.96    2.60
  -1  -6  -1    6.44    3.26
  -1   6   1    7.79    1.55
   1  -6   1    8.81    1.63
   1  -6   1   10.00    2.23
   1   6  -1    6.22    1.73
   1  -5   1   81.36    3.41
  -1  -5  -1   74.46    4.72
   1  -5   1   89.65    2.18
  -1   5   1   79.35    3.41
  -1  -5  -1   82.44    5.27
   1  -5   1   77.56    3.47
  -1  -5  -1   79.36    2.74
   1  -5   1   87.17    3.33
   1   5  -1   69.87    3.71
   1  -4   1    3.37    1.21
  -1  -4  -1    0.18    1.02
   1  -4   1    0.02    0.75
   1  -4   1    0.13    1.27
  -1  -4  -1    1.00    2.24
   1   4  -1    0.93    1.50
  -1   4   1   -0.06    1.17
   1  -4   1    0.06    1.03
  -1  -4  -1    0.83    1.75
  -1  -3  -1    1.45    1.87
  -1  -3  -1    0.36    1.58
   1  -3   1    1.11    0.89
  -1  -3  -1    0.97    1.06
  -1   3   1    0.82    1.16
   1  -3   1    2.08    1.32
   1   3  -1    1.15    1.55
  -1  -2  -1  349.49    8.06
   1   2  -1  363.60    7.63
  -1  -2  -1  382.69    7.12
  -1  -2  -1  345.95    4.67
   1  -2   1  374.98    6.34
  -1   2   1  366.29    6.86
   1  -2   1  380.44    5.21
  -1  -1  -1 1977.25   59.05
  -1  -1  -1 2150.27   17.78
  -1   1   1 2084.10   63.70
   1  -1   1 2221.09   43.23
   1  -1   1 2009.88   56.11
   1   1  -1 2132.78   17.24
  -1   0  -1    1.70    1.12
  -1   0  -1    1.30    1.27
   1   0   1    1.07    1.01
  -1   0   1    1.96    1.45
   1   0   1    2.30    0.66
  -1   0   1    2.15    0.67
   1   0  -1    2.27    1.58
  -1  -1   1 2043.61   46.12
  -1   1  -1 2122.75   15.06
  -1  -1   1 2090.18   16.28
  -1   1  -1 2031.33   58.65
   1  -1  -1 1954.54   50.46
   1  -1  -1 1972.00   15.86
  -1  -1   1 2010.26   50.67
   1   1   1 2097.77   59.11
  -1  -2   1  388.78    7.46
  -1  -2   1  383.93    5.74
  -1   2  -1  370.07    6.58
   1  -2  -1  384.04    5.81
   1  -2  -1  363.11    6.71
  -1  -2   1  372.63    5.93
   1   2   1  371.12    6.92
   1  -2  -1  379.79    7.08
  -1   3  -1    0.32    1.05
   1  -3  -1    0.72    1.21
   1  -3  -1    0.33    0.23
   1  -3  -1    1.06    1.37
  -1  -3   1    2.15    1.24
   1   3   1    1.31    1.42
   1  -3  -1    1.38    1.32
  -1  -3   1    0.81    1.81
  -1  -3   1    3.12    1.03
   1  -4  -1   -0.09    1.40
   1  -4  -1    0.02    0.56
  -1  -4   1    0.27    0.82
   1   4   1    0.02    1.75
  -1  -4   1   -0.19    1.30
  -1  -4   1    0.40    1.79
   1  -4  -1    0.10    1.35
  -1  -4   1    0.05    0.91
   1  -4  -1   -0.05    1.12
  -1   4  -1    1.02    1.12
   1  -5  -1   79.55    4.44
   1  -5  -1   74.90    3.13
  -1  -5   1   80.28    2.70
   1  -5  -1   94.18    2.56
  -1  -5   1   83.61    2.98
  -1   5  -1   85.78    3.55
   1  -5  -1   75.31    3.44
  -1  -5   1   88.10    4.07
   1   5   1   79.68    4.72
  -1  -5   1   73.37    3.76
  -1  -6   1   11.85    2.58
  -1   6  -1    6.93    1.51
   1  -6  -1   10.51    1.79
   1  -6  -1    9.12    1.68
  -1  -6   1    9.53    1.80
   1  -6  -1    6.89    2.06
   1   6   1    9.66    2.21
   1  -6  -1   10.83    2.36
  -1  -6   1   11.28    1.84
  -1  -6   1    9.32    2.23
  -1  -7   1   60.71    2.98
  -1   7  -1   56.16    3.11
  -1  -7   1   59.12    3.46
   1  -7  -1   50.16    4.17
   1   7   1   51.10    3.12
   1  -7  -1   53.95    3.09
   1  -7  -1   61.75    3.19
  -1  -7   1   59.51    3.90
   1  -7  -1   54.67    3.63
  -1  -7   1   59.83    3.78
   1  -8  -1   22.81    2.70
  -1  -8   1   20.42    2.56
  -1  -8   1   24.27    2.23
  -1  -8   1   20.64    2.53
   1  -8  -1   19.60    2.29
   1  -8  -1   26.14    2.54
   1   8   1   16.84    1.66
   1  -8  -1   18.12    3.14
  -1  -8   1   21.77    2.92
  -1   8  -1   21.93    2.21
  -1   9  -1  120.99    4.58
   1  -9  -1  134.38    4.53
   1  -9  -1  118.08    6.67
  -1  -9   1  120.05    4.76
  -1  -9   1  122.92    5.67
  -1  -9   1  115.17    3.26
  -1  -9   1  124.68    4.21
   1  -9  -1  117.09    4.61
   1  -9  -1  134.46    4.41
  -1  -9   1  116.48    4.78
   1 -10  -1  158.44    4.82
   1 -10  -1  170.16    5.14
  -1 -10   1  147.09    6.36
  -1 -10   1  153.18    4.85
  -1 -10   1    0.16    0.64
  -1 -10   1  160.55    5.78
   1 -10  -1  144.73    5.30
  -1  10  -1  155.16    5.26
   1 -10  -1  154.29    7.89
   1  10   1  137.19    3.44
   1 -11  -1  405.52    7.17
   1 -11  -1  387.82    8.68
  -1 -11   1  398.59    7.71
  -1 -11   1  388.12    9.04
   1 -11  -1  426.28    7.91
  -1 -11   1  384.27   10.12
  -1  11  -1  376.45    8.28
   1 -11  -1  374.55   12.22
  -1 -12   1   14.45    3.10
   1 -12  -1   20.48    2.77
   1 -12  -1   16.58    1.85
  -1 -12   1   19.94    2.90
   1 -12  -1   18.28    3.73
   1 -12  -1   20.50    2.82
  -1 -12   1   18.09    2.44
   1 -13  -1 1130.39   13.27
  -1 -13   1 1124.10   17.76
  -1 -13   1 1068.10   13.23
  -1 -13   1 1092.87   16.02
   1 -13  -1 1042.18   15.38
   1 -14  -1   53.92    4.37
   1 -14  -1   46.65    3.45
  -1 -14   1   55.24    4.48
  -1 -14   1   61.09    3.77
  -1 -14   1   55.43    4.69
  -1 -15   1   46.01    3.50
   1 -15  -1   47.74    4.41
  -1 -15   1   50.92    4.78
  -1 -15   1   42.05    4.14
  -1 -16   1    0.27    1.98
   1 -16  -1    0.66    2.68
  -1 -16   1    1.48    2.89
  -1 -16   1    0.91    2.64
  -1 -17   1   52.75    5.30
  -1 -17   1   48.65    4.90
   1 -17  -1   48.61    4.88
   1 -18  -1    3.57    3.12
  -1 -18   1    0.48    3.17
   1 -19  -1   38.89    4.97
  -1 -19   1   29.44    4.71
   1 -20  -1   15.77    4.07
  -1 -20   1    9.80    4.05
   1 -21  -1   34.27    5.37
  -1 -21   1   31.05    5.39
  -1 -22   1   18.20    4.78
   2 -21   1   24.31    4.87
   2 -21   1   22.10    5.15
  -2 -21  -1   23.53    5.48
   2 -20   1  111.25    7.65
  -2 -20  -1  118.39    7.28
   2 -20   1  119.05    8.12
  -2 -20  -1  125.33    9.80
   2 -19   1    1.74    3.63
  -2 -19  -1    0.97    4.21
  -2 -19  -1    3.17    3.00
   2 -19   1    2.22    3.30
  -2 -18  -1  194.10    8.18
   2 -18   1  200.34    9.07
  -2 -18  -1  230.61   11.98
   2 -18   1  220.93    9.93
  -2 -17  -1  330.04    9.97
   2 -17   1  339.00   11.20
  -2 -17  -1  420.19   15.05
   2 -17   1  361.83   12.12
  -2 -16  -1    3.32    3.25
  -2 -16  -1    2.48    2.42
   2 -16   1    2.74    3.03
   2 -16   1    0.95    2.61
  -2 -15  -1    3.31    3.12
   2 -15   1    2.16    2.56
  -2 -15  -1    2.30    2.25
   2 -15   1    3.14    2.81
  -2 -14  -1   -0.09    2.76
   2 -14   1    1.01    2.58
  -2 -14  -1    0.13    2.01
   2 -14   1    0.03    2.87
   2 -13   1   78.45    5.03
  -2 -13  -1   83.21    4.47
   2 -13   1   73.11    5.32
  -2 -13  -1   89.83    6.76
   2 -12   1   70.83    5.10
   2 -12   1   71.25    3.84
  -2 -12  -1   78.59    6.16
   2 -12   1   76.91    4.72
  -2 -12  -1   77.01    4.15
  -2  12   1   81.90    4.35
  -2  11   1    3.12    1.65
  -2 -11  -1    6.58    1.84
   2 -11   1    7.41    2.44
  -2 -11  -1    5.83    2.05
   2 -11   1    4.31    2.07
  -2 -11  -1    4.04    2.56
   2 -11   1    4.53    2.29
  -2 -10  -1    2.90    0.79
   2 -10   1   55.97    4.20
  -2 -10  -1   54.60    3.54
   2 -10   1   54.68    3.78
   2 -10   1   52.57    4.04
  -2 -10  -1   53.51    3.45
  -2  10   1   57.65    3.66
  -2 -10  -1   49.89    4.99
   2 -10   1   54.47    1.74
  -2  -9  -1  180.90    5.12
   2  -9   1  198.33    2.84
  -2  -9  -1  206.83    5.34
   2  -9   1  197.16    6.17
  -2  -9  -1  203.61    5.82
   2  -9   1  186.01    6.62
   2  -9   1  190.65    5.84
  -2  -9  -1  196.30    8.53
  -2   9   1  220.36    6.46
   2   9  -1  208.35    4.14
   2   8  -1  358.54    5.82
   2  -8   1    9.36    0.77
   2  -8   1  321.85    7.36
  -2  -8  -1  334.60    8.70
  -2  -8  -1  336.56    6.10
   2  -8   1  324.87    7.25
  -2  -8  -1  332.83    7.01
  -2   8   1  351.73    7.91
  -2  -8  -1  348.13   10.90
   2  -8   1  318.11    7.95
   2  -7   1  181.00    5.70
   2  -7   1    0.02    0.24
   2  -7   1  198.90    5.71
  -2  -7  -1  193.58    4.37
  -2   7   1  205.00    6.10
  -2  -7  -1  182.29    7.92
  -2  -7  -1  197.34    5.29
  -2  -7  -1  196.22    6.92
   2  -7   1  196.78    5.53
   2   7  -1  200.63    4.75
  -2  -6  -1 1267.03   19.02
  -2   6   1 1250.37   13.91
   2  -6   1 1189.57   12.19
   2  -6   1  104.99    1.58
   2  -6   1 1169.41   12.85
  -2  -6  -1 1223.22   11.88
  -2  -6  -1 1253.99   13.86
   2   6  -1 1250.11   11.72
   2  -6   1 1218.89   12.83
  -2  -6  -1 1227.37    9.32
  -2   5   1  971.91   12.21
   2  -5   1  953.78   10.73
  -2  -5  -1  932.16    7.51
  -2  -5  -1  949.29   16.10
   2  -5   1    0.02    0.26
   2   5  -1  976.88   10.73
   2  -5   1  939.14   10.23
  -2  -5  -1  967.24   10.09
  -2  -5  -1  934.28   11.24
   2  -5   1  953.09   11.33
   2  -4   1  196.57    5.32
  -2  -4  -1  197.59    4.51
   2   4  -1  190.83    5.09
  -2   4   1  189.91    5.59
  -2  -4  -1  190.29    7.49
  -2  -4  -1  190.86    3.25
   2  -4   1  194.78    4.56
   2  -4   1    0.20    0.29
  -2  -4  -1  182.61    5.12
   2  -4   1  190.11    4.69
   2  -3   1  192.09    5.15
  -2   3   1  191.73    5.46
  -2  -3  -1  201.31    4.30
  -2  -3  -1  180.17    6.99
  -2  -3  -1  194.93    3.00
   2  -3   1  198.50    4.30
   2   3  -1  196.12    5.25
  -2  -3  -1  187.80    5.04
   2  -3   1  193.60    4.41
  -2  -2  -1   11.13    2.45
  -2  -2  -1   11.03    1.21
  -2   2   1   10.68    1.90
  -2  -2  -1    9.70    1.72
  -2  -2  -1    9.51    1.20
   2   2  -1    9.31    1.71
   2  -2   1    9.72    1.72
   2  -2   1    9.78    1.25
   2  -1   1   67.14    3.11
   2   1  -1   67.75    3.33
  -2   1   1   65.13    3.28
  -2   1   1   63.77    2.83
  -2  -1  -1   65.94    3.24
  -2  -1  -1   63.60    4.13
   2   0  -1  146.43    4.77
   2   0   1  155.21    4.50
  -2   0  -1  145.86    5.52
  -2   0  -1  146.74    4.63
  -2   0   1  151.76    4.73
  -2   0   1  147.35    4.06
   2  -1  -1   63.37    3.31
   2  -1  -1   65.31    2.89
  -2  -1   1   67.26    3.26
  -2  -1   1   73.66    2.93
  -2   1  -1   62.99    3.27
   2   1   1   68.17    3.14
  -2   2  -1    9.00    1.86
  -2  -2   1    8.38    1.75
   2  -2  -1   10.03    1.66
  -2  -2   1   11.11    1.42
  -2  -2   1    9.02    1.37
   2  -2  -1   12.29    1.95
   2   2   1   10.08    1.59
  -2  -2   1   11.32    1.39
   2   3   1  194.61    4.96
   2  -3  -1  209.31    4.79
  -2  -3   1  202.41    5.14
  -2  -3   1  194.81    4.60
  -2  -3   1  191.48    4.79
  -2   3  -1  204.00    5.70
  -2  -3   1  222.04    3.99
   2  -3  -1  183.55    5.42
  -2  -4   1  208.08    4.02
  -2   4  -1  197.32    5.80
   2  -4  -1  184.20    5.58
  -2  -4   1  187.12    4.63
   2   4   1  187.47    4.97
  -2  -4   1  181.69    5.07
   2  -4  -1  197.26    4.84
  -2  -4   1  194.99    5.03
  -2   5  -1 1013.91   12.64
   2   5   1  970.42   11.42
   2  -5  -1  973.45   12.13
  -2  -5   1  965.52   10.30
   2  -5  -1  947.98    7.59
   2  -5  -1  957.20   10.55
  -2  -5   1  989.80   10.28
  -2  -5   1  991.59    8.77
  -2  -5   1  953.15   11.83
  -2   6  -1 1232.83   14.31
  -2  -6   1 1230.31   10.61
  -2  -6   1 1263.16   11.16
  -2  -6   1 1177.03   13.87
  -2  -6   1 1187.97   11.78
   2   6   1 1302.17   14.35
   2  -6  -1 1190.31   12.24
   2  -6  -1 1231.08    9.44
   2  -6  -1 1228.41   13.65
  -2  -7   1  197.83    4.93
   2   7   1  195.67    6.80
  -2   7  -1  201.12    6.18
  -2  -7   1  206.10    4.70
   2  -7  -1  190.45    5.48
  -2  -7   1  184.25    5.11
  -2  -7   1  188.93    6.31
   2  -7  -1  199.38    6.03
   2  -7  -1  204.52    4.64
  -2  -8   1  332.35    6.89
  -2  -8   1  305.08    8.19
   2  -8  -1  328.08    7.33
  -2  -8   1  344.56    5.52
   2  -8  -1  340.99    7.72
  -2  -8   1  354.74    7.00
   2   8   1  262.73    8.25
  -2   8  -1  366.26    8.22
   2  -8  -1  350.98    6.56
  -2  -9   1  199.58    3.83
  -2  -9   1  204.33    7.15
  -2   9  -1  201.82    6.34
   2  -9  -1  200.64    6.13
  -2  -9   1  216.78    6.02
  -2  -9   1  198.66    5.70
   2  -9  -1  204.73    6.27
   2   9   1  159.49    5.39
   2  -9  -1  214.88    5.75
  -2 -10   1   53.15    4.23
  -2 -10   1   59.99    3.64
   2 -10  -1   57.97    4.32
   2 -10  -1   53.81    3.75
  -2  10  -1   62.04    3.82
  -2 -10   1    0.35    0.55
  -2 -10   1   67.76    4.41
   2 -10  -1   61.93    4.37
   2 -11  -1    6.14    2.32
  -2 -11   1    5.56    2.41
  -2 -11   1    7.12    2.62
  -2 -11   1    6.29    2.00
   2 -11  -1    3.22    2.56
  -2  11  -1    6.56    1.73
   2 -11  -1    4.09    2.38
  -2  12  -1   70.22    4.29
  -2 -12   1   76.01    4.10
   2 -12  -1   78.34    4.17
  -2 -12   1   74.67    4.62
   2 -12  -1   75.91    4.64
  -2 -12   1   84.64    5.48
   2 -12  -1   89.34    4.77
  -2 -13   1   75.75    5.42
   2 -13  -1   85.32    4.48
  -2 -13   1   77.92    4.74
  -2 -13   1   87.85    4.56
   2 -13  -1   72.76    4.82
   2 -14  -1   -0.64    2.30
  -2 -14   1    0.77    2.05
   2 -14  -1    0.89    1.68
  -2 -14   1    0.24    2.85
  -2 -14   1   -0.22    1.85
  -2 -15   1    4.32    2.07
   2 -15  -1    3.02    2.67
  -2 -15   1    1.27    2.89
   2 -16  -1    1.83    2.77
  -2 -16   1    0.67    2.04
  -2 -16   1    4.29    3.01
   2 -17  -1  377.46   11.73
  -2 -17   1  331.49    9.52
  -2 -17   1  363.28   11.96
   2 -18  -1  224.53    9.63
  -2 -18   1  218.76    9.77
  -2 -18   1  147.21    6.64
  -2 -19   1    1.45    3.55
   2 -19  -1    0.56    3.42
   2 -20  -1  120.74    7.93
  -2 -20   1  124.04    8.03
   2 -21  -1   27.59    4.95
  -2 -21   1   23.11    5.06
  -2 -22   1   24.93    5.34
  -3 -21  -1   15.77    5.19
   3 -21   1   12.14    4.18
   3 -20   1   62.42    6.31
  -3 -20  -1   66.00    7.72
   3 -20   1   52.83    6.25
  -3 -19  -1   11.38    4.66
   3 -19   1   11.25    3.66
   3 -19   1   12.13    4.05
  -3 -18  -1   10.98    4.60
   3 -18   1    8.10    3.85
   3 -18   1    6.02    3.60
  -3 -17  -1   40.24    5.76
   3 -17   1   34.48    4.37
   3 -17   1   32.61    4.70
  -3 -17  -1   -0.01    1.21
   3 -16   1    8.46    3.28
  -3 -16  -1    9.73    2.81
   3 -16   1    9.50    3.52
  -3 -16  -1    6.16    3.43
  -3 -15  -1   95.11    5.16
   3 -15   1   95.32    6.57
  -3 -15  -1  118.06    8.13
   3 -15   1  109.09    6.33
   3 -14   1  266.31    9.89
  -3 -14  -1  279.58    8.50
   3 -14   1  279.88    9.26
  -3 -14  -1  259.55    7.59
  -3 -14  -1  302.92   11.96
  -3 -13  -1  173.39    9.13
   3 -13   1  152.49    6.80
   3 -13   1  152.03    7.38
  -3 -13  -1  159.08    6.37
  -3 -13  -1  152.20    5.65
   3 -13   1  145.76    5.81
   3 -12   1  127.44    5.99
  -3 -12  -1  129.71    5.61
   3 -12   1  137.70    6.81
  -3 -12  -1  124.57    7.77
  -3 -12  -1  132.40    4.98
   3 -12   1  112.32    5.22
  -3  12   1  124.00    5.94
  -3 -11  -1  174.25    8.79
  -3 -11  -1  159.01    5.21
   3 -11   1  149.33    6.14
   3 -11   1  137.14    5.70
   3 -11   1  154.12    6.76
  -3  11   1  162.13    6.59
  -3 -11  -1  152.33    5.83
  -3 -10  -1  642.89   11.11
   3 -10   1  772.84   12.18
  -3 -10  -1  803.72   12.17
   3 -10   1  787.38   13.72
  -3 -10  -1  848.20   17.96
   3 -10   1  755.83   12.42
  -3 -10  -1  796.52   10.14
  -3  10   1  847.11   13.92
   3   9  -1  121.44    3.77
   3  -9   1  102.35    5.12
   3  -9   1  109.09    5.27
   3  -9   1  103.84    4.74
  -3  -9  -1  104.16    4.94
  -3   9   1  117.58    5.51
  -3  -9  -1  104.03    4.54
  -3  -9  -1  116.30    4.24
  -3  -9  -1  113.47    7.03
  -3  -8  -1   39.91    2.55
   3  -8   1   37.14    3.40
  -3  -8  -1   37.22    4.43
  -3   8   1   43.17    3.60
  -3  -8  -1   36.23    2.86
   3   8  -1   39.14    2.47
   3  -8   1   37.98    3.17
   3  -8   1   30.72    2.77
  -3  -8  -1   37.27    3.60
   3  -7   1   66.99    3.76
  -3  -7  -1   57.06    5.22
  -3  -7  -1   61.57    3.85
  -3   7   1   63.04    4.05
  -3  -7  -1   69.28    2.76
   3  -7   1   61.13    3.38
  -3  -7  -1   59.92    3.33
   3   7  -1   62.70    3.14
   3  -7   1   66.18    3.97
  -3  -6  -1    6.07    1.53
  -3  -6  -1    8.68    3.03
   3  -6   1    7.38    1.76
  -3   6   1    7.23    2.08
  -3  -6  -1    7.77    1.45
  -3  -6  -1    7.89    2.62
   3  -6   1    8.33    1.63
   3   6  -1    7.04    1.55
   3  -6   1    7.93    2.35
   3   5  -1  104.27    4.20
  -3  -5  -1  102.24    4.39
  -3  -5  -1  117.08    2.54
   3  -5   1  103.52    4.04
   3  -5   1  107.52    3.81
   3  -5   1  102.81    4.68
  -3  -5  -1  116.04    4.03
  -3  -5  -1   99.75    6.30
  -3   5   1  108.14    4.99
  -3  -4  -1    4.74    0.85
   3  -4   1    3.16    1.30
   3  -4   1    3.06    1.94
  -3   4   1    5.11    1.88
  -3  -4  -1    4.19    2.13
  -3  -4  -1    2.94    2.51
   3   4  -1    4.43    1.57
  -3  -4  -1    4.15    1.22
   3  -4   1    4.81    1.19
  -3   3   1  287.17    7.50
  -3  -3  -1  264.45    9.17
   3  -3   1  302.85    5.30
  -3  -3  -1  295.27    6.94
   3  -3   1  293.36    7.21
   3   3  -1  316.31    7.21
   3  -3   1  281.63    5.81
  -3   3   1  287.56    6.05
  -3  -3  -1    0.00    0.20
  -3  -3  -1  312.38    5.75
  -3  -2  -1 1529.25   20.29
   3  -2   1 1628.97   15.71
   3   2  -1 1684.34   16.14
  -3  -2  -1 1659.49   15.83
  -3  -2  -1 1695.28   12.05
   3  -2   1 1664.02   11.02
  -3   2   1 1601.45   16.42
  -3   2   1 1627.75   13.53
  -3  -2  -1    0.01    0.26
   3  -1   1  519.23    9.03
  -3  -1  -1  483.95   11.33
  -3   1   1  514.60    7.71
   3   1  -1  504.60    9.24
  -3  -1  -1  530.21    6.48
  -3   1   1  494.36    9.27
  -3  -1  -1  512.60    9.24
  -3   0  -1    0.80    0.71
   3   0   1    1.03    1.32
  -3   0   1    0.37    0.96
   3   0  -1    0.31    1.57
  -3   0   1    0.84    1.78
  -3   0  -1    0.13    1.85
  -3   0  -1    0.14    1.63
   3   0  -1    6.20    1.57
  -3  -1   1  505.40    7.62
  -3   1  -1  517.58    9.64
   3   1   1  517.84    8.81
   3  -1  -1  498.60    9.47
  -3  -1   1  507.58    9.03
   3  -1  -1  530.98    7.62
   3  -2  -1 1532.01   16.27
   3  -2  -1 1672.71   13.12
  -3  -2   1 1656.46   15.56
   3   2   1 1684.09   15.31
  -3  -2   1 1674.79   14.07
  -3  -2   1 1626.15   13.47
  -3   2  -1 1633.49   16.91
  -3   3  -1  290.85    7.67
  -3  -3   1  308.02    6.49
   3  -3  -1  291.13    5.93
  -3  -3   1  307.46    6.97
  -3  -3   1  291.20    6.09
   3   3   1  282.96    6.50
   3  -3  -1  290.69    7.57
   3   4   1    4.96    1.56
   3  -4  -1    3.48    1.51
  -3  -4   1    5.23    2.17
  -3  -4   1    4.30    2.06
  -3  -4   1    4.86    1.39
   3  -4  -1    4.32    1.97
  -3   4  -1    5.24    1.99
  -3   5  -1  107.67    5.04
   3   5   1  110.20    4.22
   3  -5  -1   95.84    4.93
   3  -5  -1  113.72    4.18
  -3  -5   1  104.55    4.37
  -3  -5   1  119.21    4.35
  -3  -5   1  105.19    4.08
  -3  -5   1  102.32    4.23
   3  -6  -1    7.22    2.44
  -3  -6   1    8.17    2.47
  -3  -6   1    6.63    1.61
   3  -6  -1    7.45    1.80
  -3   6  -1    7.25    2.13
   3  -6  -1    6.20    1.72
  -3  -6   1    8.56    1.94
   3   6   1    6.80    1.56
  -3  -6   1    8.17    2.24
   3  -7  -1   60.85    3.58
  -3  -7   1   59.67    3.47
   3  -7  -1   59.02    4.13
   3  -7  -1   61.18    3.04
   3   7   1   53.55    3.28
  -3  -7   1   59.70    3.35
  -3  -7   1   59.51    3.90
  -3   7  -1   61.83    4.23
  -3  -7   1   64.03    3.40
  -3   8  -1   35.75    3.33
  -3  -8   1   37.91    2.56
  -3  -8   1   36.75    3.11
   3   8   1   35.25    3.07
   3  -8  -1   34.51    3.53
  -3  -8   1   39.56    3.45
   3  -8  -1   33.87    3.00
   3  -8  -1   38.00    2.82
  -3  -8   1   38.63    2.89
  -3  -9   1  100.36    4.50
  -3   9  -1  107.48    5.42
   3  -9  -1  111.73    4.96
  -3  -9   1   97.10    5.27
  -3  -9   1  104.12    3.33
   3  -9  -1  110.36    4.71
   3  -9  -1  105.92    5.52
   3   9   1  103.68    5.27
  -3  -9   1  117.93    5.11
  -3 -10   1  826.46   14.32
  -3 -10   1  829.09   11.97
  -3 -10   1   74.04    2.58
   3 -10  -1  781.68   12.71
   3 -10  -1  768.74   12.95
  -3 -10   1  813.07   12.24
  -3  10  -1  840.11   14.21
   3 -10  -1  814.31   11.53
  -3  11  -1  156.61    6.56
  -3 -11   1  159.72    5.99
  -3 -11   1  157.42    6.98
  -3 -11   1  156.26    5.89
   3 -11  -1  154.19    6.33
   3 -11  -1  165.49    6.00
   3 -11  -1  155.08    6.27
  -3  12  -1  133.90    6.21
   3 -12  -1  134.38    5.91
  -3 -12   1  130.27    6.64
  -3 -12   1  150.61    5.93
   3 -12  -1  130.45    6.12
  -3 -12   1  147.64    5.94
   3 -12  -1  138.19    5.69
  -3 -13   1  154.89    6.31
  -3 -13   1  171.40    6.70
  -3 -13   1  166.63    7.56
   3 -13  -1  169.56    7.12
   3 -13  -1  146.19    6.15
   3 -13  -1  170.59    6.46
  -3 -14   1  273.20    8.44
   3 -14  -1  288.37    9.53
  -3 -14   1  291.21   10.10
   3 -14  -1    0.00    0.85
  -3 -14   1  275.80    8.68
  -3 -15   1  103.71    5.64
  -3 -15   1   86.61    5.36
  -3 -15   1   99.67    6.53
   3 -15  -1  100.26    6.33
  -3 -16   1    8.10    3.20
   3 -16  -1    8.95    3.51
  -3 -16   1    7.06    2.62
  -3 -17   1   35.36    4.93
  -3 -17   1   33.17    3.99
   3 -17  -1   31.83    4.69
   3 -18  -1    5.21    3.58
  -3 -18   1    8.50    3.09
  -3 -18   1    5.99    4.00
   3 -19  -1   10.07    4.03
  -3 -19   1    9.87    4.25
  -3 -19   1    9.42    3.21
  -3 -20   1   61.75    6.40
   3 -20  -1   58.33    6.14
  -3 -21   1    7.40    4.42
  -4 -21  -1   24.30    6.11
   4 -20   1   21.08    4.85
   4 -20   1   25.45    4.97
  -4 -20  -1   24.21    5.51
  -4 -19  -1    0.92    4.14
   4 -19   1    0.14    3.15
   4 -19   1   -1.01    3.87
   4 -18   1    0.93    3.31
   4 -18   1    1.31    3.95
  -4 -18  -1    2.72    3.73
  -4 -17  -1  330.94   13.75
   4 -17   1  292.98   11.76
   4 -17   1  307.20   11.16
  -4 -16  -1  152.64    9.42
   4 -16   1  145.26    7.79
   4 -16   1  135.48    8.05
  -4 -15  -1    4.45    2.65
  -4 -15  -1    8.93    3.73
   4 -15   1    9.88    3.25
   4 -15   1    6.29    3.21
   4 -14   1  120.08    7.09
  -4 -14  -1  117.36    8.06
  -4 -14  -1  114.59    6.04
   4 -14   1  122.27    6.61
  -4  13   1   78.41    5.57
   4 -13   1   71.86    4.81
   4 -13   1   80.78    5.83
  -4 -13  -1   87.61    5.16
   4 -13   1   87.64    5.49
  -4 -13  -1   81.53    6.71
   4 -12   1   12.41    2.90
  -4  12   1   18.63    3.50
   4 -12   1   16.42    2.96
  -4 -12  -1   15.12    3.77
  -4 -12  -1    0.64    1.02
   4 -12   1   12.03    2.74
  -4 -12  -1   17.36    2.82
  -4  11   1    1.24    2.40
  -4 -11  -1    1.48    1.83
   4 -11   1    4.14    2.21
   4 -11   1    2.39    2.07
  -4 -11  -1    1.67    1.41
   4 -11   1    1.42    2.08
  -4 -11  -1    2.66    2.97
  -4  10   1  187.53    7.68
  -4 -10  -1  188.23    9.32
   4 -10   1  174.69    6.77
   4 -10   1  194.10    7.24
   4 -10   1  185.94    6.66
  -4 -10  -1  190.16    4.90
  -4 -10  -1  194.48    6.60
  -4  -9  -1  290.81   11.23
   4  -9   1  275.39    8.32
  -4   9   1  286.22    9.15
  -4  -9  -1  271.03    5.33
  -4  -9  -1  281.17    7.57
  -4  -9  -1  262.93    7.13
   4   9  -1  293.88    6.78
   4  -9   1  268.85    7.51
   4  -9   1  275.40    8.12
  -4  -8  -1  160.28    8.56
   4  -8   1  157.27    6.44
   4  -8   1  160.44    6.02
  -4  -8  -1  165.27    3.81
   4  -8   1  157.14    5.58
  -4  -8  -1  156.41    5.60
  -4   8   1  166.97    7.06
   4   8  -1  168.38    5.46
  -4  -8  -1  151.82    5.45
   4  -7   1  167.48    6.52
  -4  -7  -1  162.82    8.54
  -4  -7  -1  169.64    3.38
   4  -7   1  174.48    5.55
  -4   7   1  149.47    5.02
  -4  -7  -1  175.51    5.68
   4   7  -1  180.09    5.80
   4  -7   1  170.63    5.93
  -4   7   1  168.95    6.97
  -4  -7  -1  159.88    5.92
  -4  -6  -1    0.83    1.34
   4  -6   1    1.79    1.97
  -4  -6  -1    0.90    2.89
  -4  -6  -1    1.25    2.39
  -4   6   1    2.51    1.32
   4  -6   1    0.86    1.52
   4   6  -1    0.69    1.50
  -4   6   1    0.77    2.02
   4  -6   1    0.50    1.34
  -4  -6  -1    0.64    0.44
  -4   5   1  677.82   12.84
  -4  -5  -1  683.04   15.94
   4  -5   1  690.16   12.14
   4  -5   1  715.46    9.49
  -4  -5  -1  702.97   10.05
   4  -5   1  692.62   10.51
  -4   5   1  702.43    9.76
  -4  -5  -1  717.69   11.44
  -4  -5  -1  584.09    3.77
   4   5  -1  739.90   11.59
  -4  -4  -1  259.05   10.03
  -4   4   1  272.99    8.23
   4  -4   1  287.60    6.71
  -4   4   1  279.95    6.19
  -4  -4  -1  283.68    7.58
   4   4  -1  302.14    7.82
  -4  -4  -1  294.88    6.37
   4  -4   1  298.06    5.85
   4  -4   1  281.03    7.92
  -4  -3  -1  245.92    7.24
   4   3  -1  230.56    7.02
  -4  -3  -1  224.79    9.25
   4  -3   1  247.70    4.99
  -4  -3  -1  251.38    5.63
   4  -3   1  250.45    7.42
  -4   3   1  243.72    5.70
  -4   3   1  235.93    7.58
   4   2  -1  365.40    8.75
  -4  -2  -1  334.75   10.82
  -4   2   1  360.69    6.84
  -4   2   1  348.36    8.91
   4  -2   1  348.26    8.56
  -4  -2  -1  350.81    6.30
  -4  -2  -1  343.07    8.51
   4  -2   1  358.85    5.44
   4  -1   1   19.95    2.64
  -4   1   1   18.58    2.80
  -4  -1  -1   22.81    2.97
  -4  -1  -1   15.66    3.06
  -4  -1  -1   18.63    1.67
  -4   1   1   22.34    2.05
   4   1  -1   22.69    2.81
   4   1  -1   17.31    2.15
   4   0  -1   37.45    2.55
  -4   0  -1   33.83    3.43
  -4   0   1   31.69    3.19
   4   0   1   41.52    3.34
   4   0  -1   41.12    3.45
  -4   0  -1   37.64    2.02
  -4   0   1   38.08    2.51
  -4   0  -1   32.90    3.86
  -4  -1   1   20.71    2.03
   4   1   1   20.53    2.59
  -4   1  -1   19.16    2.90
  -4   1  -1   19.83    1.45
   4  -1  -1   20.89    2.75
   4  -1  -1   20.56    2.05
  -4  -1   1   24.22    3.06
  -4  -2   1  356.49    8.26
  -4   2  -1  366.96    9.31
  -4  -2   1  331.62    8.24
   4  -2  -1  353.72    6.64
  -4  -2   1  360.72    7.13
   4  -2  -1  345.34    8.92
  -4   2  -1  367.69    4.82
   4   2   1  346.95    8.21
   4  -3  -1  246.99    5.86
  -4  -3   1  258.93    7.26
  -4  -3   1  240.65    6.05
   4   3   1  241.42    6.82
   4  -3  -1  244.18    7.67
  -4   3  -1  238.28    7.70
  -4  -3   1  219.94    6.79
  -4   4  -1  301.03    8.73
   4  -4  -1  292.50    6.53
  -4  -4   1  299.72    7.73
   4   4   1  298.61    7.52
  -4  -4   1  295.01    7.60
  -4  -4   1  309.21    6.99
   4  -4  -1  280.68    8.34
  -4  -5   1  779.26   11.74
  -4   5  -1  716.55   13.35
  -4  -5   1  700.39   11.01
   4  -5  -1  719.94   13.07
  -4  -5   1  699.05   10.59
   4   5   1  705.69   11.10
   4  -5  -1  711.29   10.38
  -4  -6   1    1.07    2.31
  -4  -6   1    0.73    1.41
   4  -6  -1    0.35    2.16
  -4   6  -1    1.07    1.89
   4   6   1    0.69    1.45
  -4  -6   1    0.67    2.45
   4  -6  -1    0.72    1.71
  -4   7  -1  174.15    7.19
  -4  -7   1  175.60    6.06
  -4  -7   1  172.87    5.77
  -4  -7   1  171.15    5.70
   4  -7  -1  159.13    4.96
   4  -7  -1  169.20    5.76
   4  -7  -1  174.48    7.01
   4   7   1  168.18    5.73
  -4  -8   1  157.29    5.86
  -4   8  -1  155.64    6.94
   4  -8  -1  155.72    5.11
   4  -8  -1  149.79    6.75
   4  -8  -1  169.82    5.97
   4   8   1  163.58    5.80
  -4  -8   1  152.88    5.63
  -4  -8   1  147.44    4.86
  -4   9  -1  266.62    9.03
   4  -9  -1  285.31    7.92
   4  -9  -1  265.69    6.74
  -4  -9   1  267.16    6.14
   4  -9  -1  284.15    9.15
  -4  -9   1  282.58    7.58
  -4  -9   1  289.30    7.79
   4   9   1  272.21    7.68
  -4  10  -1  200.91    8.03
   4 -10  -1  191.44    6.87
   4 -10  -1  193.23    6.21
  -4 -10   1  188.63    6.60
  -4 -10   1  188.04    6.56
   4 -10  -1  191.03    7.52
  -4 -11   1    2.72    1.96
   4 -11  -1    2.20    2.33
  -4 -11   1    2.54    1.70
  -4  11  -1    2.01    2.59
   4 -11  -1    1.93    2.28
   4 -11  -1    1.80    1.65
  -4 -11   1    3.80    2.59
  -4 -12   1   17.15    2.85
   4 -12  -1   16.05    2.73
  -4  12  -1   15.28    3.26
  -4 -12   1   16.65    2.62
  -4 -12   1   19.71    3.46
   4 -12  -1   18.97    3.19
   4 -12  -1   16.59    3.23
  -4  13  -1   84.65    5.88
  -4 -13   1   91.46    5.10
   4 -13  -1   82.01    5.48
  -4 -13   1   82.44    5.15
  -4 -13   1   88.06    6.00
   4 -13  -1   85.85    5.58
   4 -13  -1   88.67    5.04
  -4 -14   1  114.93    6.89
   4 -14  -1  118.62    6.72
  -4 -14   1  115.60    6.06
  -4 -15   1    8.37    3.42
   4 -15  -1    9.41    3.58
  -4 -15   1   10.87    3.10
  -4 -16   1  146.82    8.18
   4 -16  -1  148.52    8.02
  -4 -16   1  138.73    7.07
   4 -17  -1  317.65   11.62
  -4 -17   1  317.13   10.66
   4 -18  -1    1.90    3.52
  -4 -18   1    4.69    3.13
   4 -19  -1   -0.05    3.84
  -4 -19   1    0.17    3.10
  -4 -20   1   20.50    4.28
   4 -20  -1   28.63    5.40
  -5 -20  -1    9.41    5.55
   5 -20   1    2.18    3.51
   5 -19   1    4.99    3.60
   5 -19   1    3.00    4.33
  -5 -19  -1    7.90    4.84
   5 -18   1   13.13    4.59
   5 -18   1   14.31    4.04
  -5 -18  -1   11.97    4.31
   5 -17   1   35.99    5.23
  -5 -17  -1   38.98    5.90
  -5 -17  -1   32.83    4.23
   5 -17   1   31.95    4.66
   5 -16   1   16.51    4.07
  -5 -16  -1   15.99    4.19
  -5 -16  -1   17.66    3.67
   5 -16   1   17.99    4.25
  -5 -15  -1  117.08    6.65
   5 -15   1  119.06    7.10
   5 -15   1  107.21    7.25
  -5 -15  -1  124.22    8.82
   5 -14   1   40.11    4.89
  -5 -14  -1   40.23    5.63
  -5 -14  -1   39.12    4.18
   5 -14   1   40.40    4.43
   5 -14   1   23.29    3.25
  -5 -13  -1   52.58    5.98
   5 -13   1   45.57    4.37
  -5  13   1   52.49    5.34
  -5 -13  -1   48.06    4.30
   5 -13   1   52.18    4.99
   5 -13   1   54.34    4.76
  -5 -12  -1   66.55    6.47
   5 -12   1   53.94    4.69
   5 -12   1   63.33    5.07
  -5  12   1   62.83    5.64
  -5 -12  -1   61.84    4.53
   5 -12   1   63.89    4.78
   5 -11   1   12.07    3.09
   5 -11   1   15.18    3.06
   5 -11   1   11.14    2.70
  -5 -11  -1   11.00    2.60
  -5 -11  -1   12.84    3.95
  -5  11   1   11.01    3.45
   5 -10   1  266.23    8.72
  -5  10   1  247.27    9.55
   5 -10   1  251.47    8.80
   5 -10   1  257.07    7.98
  -5 -10  -1  260.05    7.98
  -5 -10  -1  289.85   11.83
  -5  -9  -1  674.80   11.91
  -5  -9  -1  741.36   18.22
  -5   9   1  717.55   15.48
   5  -9   1  704.29   13.08
   5  -9   1  679.92   11.97
  -5  -9  -1  680.73   12.12
   5  -9   1  674.84   13.88
   5  -8   1    1.69    1.76
  -5  -8  -1    2.22    1.61
  -5  -8  -1    0.52    2.99
   5   8  -1    3.20    1.85
  -5   8   1    1.90    2.42
  -5  -8  -1    4.35    2.96
   5  -8   1    3.62    1.87
   5  -8   1    3.81    2.34
   5   7  -1   97.58    5.05
  -5  -7  -1   92.09    5.13
  -5   7   1   88.96    5.86
   5  -7   1   93.01    4.81
   5  -7   1   91.04    4.32
  -5  -7  -1   88.84    4.47
  -5  -7  -1   77.64    6.53
  -5   7   1   88.69    3.79
   5  -7   1   87.83    5.41
  -5   6   1    7.30    1.52
   5  -6   1    9.02    1.89
  -5  -6  -1    6.83    2.95
  -5  -6  -1    6.66    1.88
  -5  -6  -1    6.64    3.16
   5  -6   1    7.02    1.96
  -5   6   1    7.95    2.76
   5   6  -1    9.32    2.29
   5  -6   1   10.80    2.85
  -5  -5  -1  120.96    7.73
  -5  -5  -1  139.26    5.03
  -5  -5  -1  142.45    6.40
   5   5  -1  139.20    6.10
   5  -5   1  131.77    6.33
   5  -5   1  136.81    5.33
  -5   5   1  134.55    4.48
  -5   5   1  128.97    6.62
   5  -5   1  135.62    4.56
  -5  -4  -1   32.31    4.66
  -5  -4  -1   39.74    2.85
  -5   4   1   38.29    4.01
  -5  -4  -1   42.20    3.96
   5  -4   1   44.74    2.66
  -5   4   1   43.04    2.74
   5  -4   1   43.08    4.05
   5   4  -1   44.25    3.82
   5  -4   1   39.23    3.06
  -5  -3  -1  594.10   11.95
  -5   3   1  575.27   12.59
   5  -3   1  600.94   12.36
   5  -3   1  605.05    7.90
  -5  -3  -1  595.79    9.17
  -5  -3  -1  569.14   15.48
   5   3  -1  578.57   12.00
  -5   3   1  614.67    9.10
  -5   2   1  314.35    6.72
   5   2  -1  308.01    9.00
   5  -2   1  322.32    5.39
  -5  -2  -1  320.44    6.57
  -5  -2  -1  309.65   11.44
   5  -2   1  324.53    9.13
  -5   2   1  304.61    9.28
   5   2  -1  308.81    6.61
  -5  -2  -1  303.26    8.86
  -5  -1  -1   28.75    3.53
  -5   1   1   29.75    2.44
  -5   1   1   27.37    3.40
   5   1  -1   29.86    2.50
   5  -1   1   27.74    3.24
  -5  -1  -1   28.01    2.13
  -5  -1  -1   21.69    3.87
   5   1  -1   30.16    3.35
   5   0   1   -0.01    2.08
  -5   0   1    0.10    1.26
  -5   0  -1    0.45    2.21
  -5   0  -1   -1.18    2.38
  -5   0  -1    1.84    1.01
  -5   0   1    0.38    1.96
   5   0  -1   -1.32    1.98
   5   0  -1   -0.20    1.41
  -5  -1   1   26.81    2.45
  -5   1  -1   27.61    3.43
  -5  -1   1   27.16    3.31
   5  -1  -1   30.00    2.42
   5   1   1   32.33    3.39
  -5   1  -1   26.78    1.87
   5  -1  -1   23.78    3.33
   5  -2  -1  312.97    6.63
  -5   2  -1  315.25    9.49
  -5  -2   1  336.56    9.42
   5  -2  -1  302.40    9.32
  -5  -2   1  292.83    8.63
  -5  -2   1  300.29    7.08
   5   2   1  315.37    8.75
  -5   2  -1  314.45    5.16
  -5  -3   1  577.21   11.64
   5   3   1  609.51   11.78
  -5  -3   1  593.33   10.00
  -5  -3   1  620.15   12.30
  -5   3  -1  594.95    6.32
   5  -3  -1  588.44    9.24
  -5   3  -1  608.58   13.17
   5  -3  -1  554.22   12.55
  -5  -4   1   38.39    3.02
  -5   4  -1   40.60    4.08
  -5  -4   1   37.07    3.78
  -5  -4   1   43.40    4.25
   5  -4  -1   44.01    4.26
   5   4   1   46.43    3.68
   5  -4  -1   42.03    3.03
  -5   5  -1  124.32    6.66
  -5  -5   1  137.73    6.18
   5   5   1  122.87    5.57
  -5  -5   1  138.38    5.35
  -5  -5   1  147.75    7.01
   5  -5  -1  134.50    5.07
   5  -5  -1  130.14    6.66
  -5  -6   1    6.97    3.09
  -5   6  -1    7.03    2.65
  -5  -6   1    6.32    1.98
  -5  -6   1    7.33    2.85
   5   6   1    9.45    2.18
   5  -6  -1    9.17    2.82
   5  -6  -1    8.49    2.17
  -5  -7   1   90.12    5.25
   5   7   1   90.69    4.83
  -5  -7   1   82.76    4.81
   5  -7  -1   92.45    4.66
   5  -7  -1   80.84    4.08
  -5  -7   1   88.08    4.60
   5  -7  -1   85.05    5.71
  -5   7  -1   85.63    5.82
   5  -8  -1    3.88    2.02
  -5  -8   1    2.69    1.98
   5  -8  -1    4.72    2.71
  -5  -8   1    3.17    2.64
   5  -8  -1    3.57    1.97
  -5  -8   1    2.21    2.69
   5   8   1    5.22    2.09
  -5   8  -1    3.38    2.58
  -5  -9   1  720.84   12.67
  -5   9  -1  738.38   15.86
  -5  -9   1  715.00   12.82
  -5  -9   1  698.55   11.12
   5  -9  -1  727.09   12.84
   5  -9  -1  691.21   11.26
   5  -9  -1  709.89   15.18
  -5 -10   1  258.21    7.87
  -5  10  -1  259.18    9.92
   5 -10  -1  249.96    7.26
   5 -10  -1  262.48    9.72
   5 -10  -1  264.42    8.36
  -5 -10   1  257.45    8.23
  -5 -11   1   11.40    2.68
   5 -11  -1   10.81    2.84
   5 -11  -1   14.52    3.48
  -5 -11   1   11.49    2.36
   5 -11  -1   11.66    2.42
  -5  11  -1   11.23    3.48
  -5  12  -1   62.65    5.59
   5 -12  -1   56.95    4.18
   5 -12  -1   61.79    5.48
  -5 -12   1   61.50    4.72
   5 -12  -1   61.20    4.87
  -5 -12   1    0.00    1.06
   5 -13  -1   44.60    4.88
  -5  13  -1   42.22    5.02
   5 -13  -1   48.86    4.75
  -5 -13   1   58.17    4.89
   5 -13  -1    0.00    1.07
   5 -14  -1   37.06    4.52
  -5 -14   1   43.67    4.41
   5 -14  -1   36.47    4.46
  -5 -15   1  108.22    6.58
   5 -15  -1  128.26    7.44
  -5 -16   1   13.80    3.58
   5 -16  -1   18.58    3.95
   5 -17  -1   34.68    5.04
  -5 -17   1   28.43    4.38
  -5 -18   1   12.99    3.85
   5 -18  -1   15.99    4.77
  -5 -19   1    6.68    3.89
   5 -19  -1   13.36    4.75
  -5 -20   1    5.89    4.05
  -6 -19  -1    3.03    5.41
   6 -19   1    1.74    5.39
   6 -18   1   19.53    4.87
  -6 -18  -1   23.90    5.36
   6 -18   1   19.71    4.80
  -6 -17  -1    4.46    3.66
  -6 -17  -1   12.53    4.71
   6 -17   1    8.62    4.02
   6 -17   1   10.73    3.92
  -6 -16  -1  221.48    9.49
   6 -16   1  240.75   10.28
  -6 -16  -1  241.39   12.14
   6 -16   1  221.41   10.58
   6 -15   1    6.42    3.68
  -6 -15  -1   11.77    4.51
  -6 -15  -1   15.19    3.67
   6 -15   1   13.55    3.63
   6 -14   1  265.51   10.70
  -6 -14  -1  243.93    9.30
   6 -14   1  255.43    9.80
   6 -14   1  235.69    9.77
  -6 -14  -1  264.15   12.24
  -6 -13  -1   -0.14    2.58
   6 -13   1   -0.20    2.95
  -6 -13  -1   -1.31    3.37
   6 -13   1   -0.26    2.73
  -6  13   1   -1.17    3.62
   6 -13   1    0.14    2.83
  -6 -12  -1   17.57    3.23
  -6 -12  -1   19.30    4.52
  -6  12   1   19.62    4.44
   6 -12   1   23.32    3.56
   6 -12   1   18.68    3.59
   6 -12   1   15.88    3.68
  -6  11   1   36.08    5.08
   6 -11   1   29.05    3.87
   6 -11   1   29.73    3.66
  -6 -11  -1   30.54    3.71
   6 -11   1   23.50    4.14
  -6 -11  -1   30.29    4.79
  -6  10   1  313.26   11.77
   6 -10   1  298.98    9.47
   6 -10   1  299.25   10.42
   6 -10   1  299.73    8.81
  -6 -10  -1  294.23    8.94
  -6 -10  -1  327.79   13.18
  -6   9   1   43.93    5.18
  -6  -9  -1    7.21    2.07
   6  -9   1   41.99    3.92
   6  -9   1   41.69    3.72
  -6  -9  -1   41.19    3.86
   6  -9   1   45.42    4.87
  -6  -9  -1   37.99    5.40
  -6  -8  -1   16.91    2.92
   6  -8   1   17.66    2.90
  -6   8   1   18.42    3.86
  -6  -8  -1   16.48    2.67
   6  -8   1   20.60    2.79
   6  -8   1   20.35    3.85
  -6  -8  -1   14.17    3.84
   6   8  -1   23.57    3.42
  -6  -7  -1    3.15    3.07
   6   7  -1    1.82    2.40
  -6  -7  -1    2.87    1.84
   6  -7   1    1.11    1.99
  -6  -7  -1    1.42    2.20
   6  -7   1    2.92    2.80
   6  -7   1    2.69    1.67
  -6   7   1    0.99    3.02
  -6  -6  -1  361.15   13.68
  -6   6   1  375.82    7.24
   6  -6   1  374.94    8.02
  -6  -6  -1  351.69    8.63
   6  -6   1  358.27    9.23
  -6   6   1  376.39   11.81
   6  -6   1  363.03   11.07
  -6  -6  -1  346.45   10.06
   6   6  -1  385.18   10.75
  -6  -5  -1   23.32    3.50
  -6  -5  -1   33.33    4.21
  -6  -5  -1   24.90    2.73
   6  -5   1   25.15    2.39
   6  -5   1   22.44    2.79
   6   5  -1   24.85    3.52
  -6   5   1   22.31    3.86
   6  -5   1   25.37    3.76
  -6   5   1   23.53    2.24
  -6  -4  -1  223.70    8.42
  -6  -4  -1  199.55   10.37
   6   4  -1  233.94    8.68
  -6   4   1  239.91    6.07
   6  -4   1  255.51    5.90
  -6  -4  -1  243.35    6.75
  -6   4   1  242.10    9.38
   6  -4   1  240.74    9.00
   6   3  -1   75.92    5.31
  -6  -3  -1   73.67    5.31
   6   3  -1   77.26    3.67
  -6   3   1   81.45    3.77
  -6  -3  -1   73.52    6.74
  -6   3   1   72.62    5.57
   6  -3   1   77.91    3.19
   6  -3   1   81.32    5.52
  -6  -3  -1   83.17    4.00
  -6  -2  -1  751.85   14.87
   6   2  -1  772.29    9.92
  -6   2   1  718.61   15.16
  -6  -2  -1  670.47   17.84
   6  -2   1  765.13   15.14
   6  -2   1  769.56    8.46
  -6  -2  -1  759.45   10.70
  -6   2   1  777.90   10.90
   6   2  -1  775.70   15.38
   6   1  -1   19.00    2.19
  -6   1   1   19.72    2.28
   6  -1   1   19.41    3.25
  -6  -1  -1   19.35    3.40
  -6  -1  -1   18.64    2.10
   6   1  -1   24.32    3.71
  -6   1   1   17.69    3.24
  -6  -1  -1   15.08    3.80
   6   0  -1   89.77    3.74
  -6   0  -1   80.25    5.54
  -6   0  -1   77.41    6.63
  -6   0   1   87.98    4.16
  -6   0   1   83.35    5.68
   6   0   1   93.41    5.66
  -6   0  -1   86.76    3.58
   6   0  -1   83.56    5.81
  -6  -1   1   20.45    3.35
  -6   1  -1   16.40    3.27
  -6   1  -1   20.72    4.12
  -6   1  -1   21.27    1.92
  -6  -1   1   18.58    2.40
   6  -1  -1   20.93    2.25
   6  -1  -1   22.97    3.73
   6   1   1   18.67    3.29
  -6  -2   1  823.27   15.89
   6  -2  -1  762.42   15.88
  -6  -2   1  732.90   14.47
  -6   2  -1  784.19    8.86
   6   2   1  754.26   14.61
  -6  -2   1  765.28   11.81
   6  -2  -1  786.27   10.62
  -6   2  -1  790.61   16.04
   6  -3  -1   75.09    3.85
  -6   3  -1   76.79    5.69
   6   3   1   78.81    5.25
  -6  -3   1   78.24    5.29
  -6  -3   1   79.99    5.80
   6  -3  -1   82.06    5.91
  -6   3  -1   78.94    2.81
  -6  -3   1   78.63    4.30
   6  -4  -1  222.91    9.15
  -6  -4   1  226.97    6.98
  -6  -4   1  236.12    8.37
  -6   4  -1  243.07    9.56
   6  -4  -1  245.73    6.64
   6   4   1  238.96    8.41
  -6  -4   1  254.26    9.10
  -6  -5   1   20.78    3.40
  -6   5  -1   23.95    4.07
  -6  -5   1   24.04    3.98
   6  -5  -1   25.04    2.76
   6   5   1   21.87    3.18
  -6  -5   1   22.54    2.77
   6  -5  -1   19.41    3.81
  -6  -6   1  403.50   10.82
  -6   6  -1  374.21   12.07
   6  -6  -1  348.85   11.56
  -6  -6   1  372.68   10.04
   6  -6  -1  367.71    8.64
  -6  -6   1  356.42    9.08
   6   6   1  367.82   10.16
  -6  -7   1    1.17    2.20
   6  -7  -1    2.41    1.96
  -6  -7   1    2.68    2.20
  -6   7  -1    2.27    3.08
  -6  -7   1    1.56    2.12
   6   7   1    1.88    2.04
   6  -7  -1    3.48    3.02
  -6  -8   1   18.91    2.98
   6  -8  -1   21.59    3.10
  -6  -8   1   18.25    3.01
  -6  -8   1   16.26    2.98
   6   8   1   19.57    3.13
   6  -8  -1   18.46    2.65
   6  -8  -1   18.74    3.87
  -6   8  -1   20.65    4.22
   6  -9  -1   47.76    5.12
  -6  -9   1   40.22    3.90
  -6   9  -1   39.58    5.14
  -6  -9   1    0.00    1.08
   6  -9  -1   44.28    3.97
   6  -9  -1   38.50    3.26
  -6  -9   1   41.51    3.98
  -6 -10   1  216.17    7.87
  -6  10  -1  307.49   11.78
   6 -10  -1  303.22    9.28
   6 -10  -1  317.13   11.59
  -6 -10   1  300.47    9.38
   6 -10  -1  293.72    8.32
  -6 -11   1   33.85    4.04
  -6  11  -1   36.93    5.25
   6 -11  -1   35.04    4.02
   6 -11  -1   26.18    3.14
   6 -11  -1   33.54    4.45
  -6 -12   1   20.58    3.69
  -6  12  -1   17.72    4.35
   6 -12  -1   20.95    3.64
   6 -12  -1   19.02    3.11
   6 -12  -1   19.30    4.29
  -6  13  -1   -0.75    3.45
  -6 -13   1   -0.72    2.83
   6 -13  -1    0.04    3.42
   6 -13  -1    1.03    2.79
  -6 -14   1  268.86   10.08
   6 -14  -1  242.67   10.66
   6 -14  -1  297.95   10.82
  -6 -15   1   10.53    3.28
   6 -15  -1   11.18    4.18
  -6 -16   1  240.34    9.99
   6 -16  -1  240.81   10.65
   6 -17  -1    6.34    3.94
  -6 -17   1    7.60    3.42
   6 -18  -1   23.02    5.14
  -6 -18   1   20.92    4.35
  -6 -19   1    3.58    4.01
  -7 -18  -1    2.66    4.66
   7 -18   1    0.03    5.40
   7 -17   1   29.87    5.39
  -7 -17  -1   24.10    5.47
  -7 -17  -1   26.60    4.57
   7 -17   1   31.81    5.14
  -7 -16  -1   12.63    3.84
   7 -16   1   12.87    4.04
  -7 -16  -1   13.04    4.33
   7 -16   1   10.98    4.08
  -7 -15  -1   30.45    4.34
  -7 -15  -1   27.74    5.12
   7 -15   1   30.54    5.14
   7 -15   1   28.08    4.33
  -7 -14  -1   14.51    3.66
  -7  14   1   18.85    4.78
  -7 -14  -1    9.84    4.34
   7 -14   1    9.29    3.40
   7 -14   1    9.81    3.61
   7 -14   1    9.29    3.95
  -7  13   1   79.86    7.58
   7 -13   1   69.54    5.80
   7 -13   1   74.15    5.83
  -7 -13  -1   73.84    5.79
   7 -13   1   68.12    6.50
  -7 -13  -1   71.13    7.19
  -7 -12  -1    1.10    2.59
  -7  12   1    1.70    4.11
   7 -12   1    0.25    2.75
   7 -12   1   -0.17    3.46
  -7 -12  -1   -0.76    3.62
   7 -12   1    2.07    2.42
   7 -11   1    1.00    2.50
  -7 -11  -1    1.87    3.69
  -7  11   1    1.02    3.80
  -7 -11  -1    0.95    2.49
   7 -11   1    0.61    3.45
   7 -11   1    1.40    2.43
  -7 -10  -1    8.72    2.85
  -7 -10  -1   11.41    4.41
  -7  10   1   10.88    4.27
   7 -10   1    8.28    3.66
   7 -10   1    8.06    2.67
   7 -10   1   12.26    2.91
  -7   9   1  490.13   15.46
   7  -9   1  471.47   12.02
   7  -9   1  484.28   10.98
  -7  -9  -1  472.47   11.51
  -7  -9  -1  487.25   16.61
   7  -9   1  474.75   14.14
  -7   8   1   40.10    5.48
  -7  -8  -1   34.92    5.56
   7  -8   1   41.10    5.22
   7  -8   1   39.75    3.55
  -7  -8  -1   40.33    3.90
   7  -8   1   37.98    3.91
  -7  -8  -1   34.31    4.17
  -7  -7  -1  158.73    9.96
  -7   7   1  165.81    9.19
   7  -7   1  167.74    8.71
   7  -7   1  163.14    6.06
   7  -7   1  166.29    7.12
  -7  -7  -1  174.00    6.85
  -7  -7  -1  151.48    7.43
   7   7  -1  189.52    8.59
   7  -6   1    1.05    2.86
  -7  -6  -1    0.69    2.02
  -7   6   1    1.31    3.27
   7  -6   1    0.70    2.18
  -7  -6  -1   -0.29    2.71
   7   6  -1    1.72    2.78
  -7  -6  -1   -0.54    3.52
  -7   5   1  150.75    8.51
   7  -5   1  146.13    7.98
  -7  -5  -1  155.76    7.63
  -7  -5  -1  153.79    9.91
   7  -5   1  158.13    6.67
  -7  -5  -1  156.30    6.13
   7   5  -1  164.89    8.19
  -7  -4  -1   55.11    5.03
  -7  -4  -1   56.89    6.52
   7  -4   1   64.86    5.77
  -7   4   1   62.23    5.78
   7   4  -1   64.82    5.55
  -7  -4  -1   60.47    3.95
  -7   4   1   59.42    3.50
  -7  -3  -1  249.20    9.76
  -7  -3  -1  242.24   12.10
  -7   3   1  267.98    6.93
  -7   3   1  266.83   10.60
  -7  -3  -1  256.55    7.22
   7   3  -1  279.47   10.53
   7  -3   1  271.87   10.33
  -7   2   1   28.87    4.37
  -7   2   1   30.00    2.78
  -7  -2  -1   22.06    3.90
  -7  -2  -1   22.67    4.79
   7  -2   1   25.97    4.13
  -7  -2  -1   31.07    2.80
   7   2  -1   38.07    4.76
  -7  -1  -1   84.48    6.17
  -7  -1  -1   78.66    7.45
  -7   1   1   91.15    6.46
   7  -1   1   86.55    6.24
  -7  -1  -1   91.36    4.20
  -7   1   1   81.64    4.30
   7   1  -1   88.62    6.44
   7   0  -1   -0.12    3.04
  -7   0  -1    0.70    1.29
  -7   0   1    0.24    2.93
  -7   0   1   -0.06    1.75
  -7   0  -1    1.62    2.98
  -7   0  -1   -0.02    3.31
   7   0   1   -0.44    2.72
  -7   1  -1   86.06    6.43
  -7  -1   1   96.37    6.74
  -7  -1   1   92.96    6.34
  -7   1  -1   86.58    3.77
  -7  -1   1   92.21    4.67
   7  -1  -1   81.30    6.44
   7  -1  -1   83.50    3.84
  -7   1  -1   78.03    7.16
   7   1   1   87.17    6.06
   7  -2  -1   33.64    2.82
   7   2   1   29.30    4.05
  -7  -2   1   29.63    3.05
  -7   2  -1   27.34    4.37
  -7  -2   1   27.68    4.23
  -7  -2   1   27.20    4.18
   7  -2  -1   33.18    4.80
  -7  -3   1  249.82    9.53
   7  -3  -1  266.27   10.75
  -7   3  -1  268.82   10.79
  -7  -3   1  296.39   10.78
   7   3   1  269.12    9.83
   7  -3  -1  284.07    7.14
  -7  -3   1  271.72    7.94
  -7  -4   1   58.43    5.02
   7  -4  -1   61.17    3.79
  -7  -4   1   56.07    5.06
  -7   4  -1   61.29    5.99
   7   4   1   58.28    5.05
   7  -4  -1   68.98    6.12
  -7  -4   1   60.41    4.23
  -7  -5   1  155.56    7.60
   7  -5  -1  162.35    8.88
  -7   5  -1  154.39    8.77
  -7  -5   1  172.62    6.78
   7  -5  -1  165.42    6.03
   7   5   1  165.40    7.73
  -7  -5   1  171.71    8.18
  -7  -6   1    0.68    2.23
  -7  -6   1    0.21    2.68
  -7  -6   1   -0.61    2.55
   7  -6  -1    1.01    1.97
   7   6   1    0.44    2.67
   7  -6  -1    2.32    3.51
  -7   6  -1    2.66    2.87
  -7  -7   1  167.86    7.88
  -7   7  -1  164.82    9.39
   7  -7  -1  175.09    6.74
  -7  -7   1  157.66    7.46
   7   7   1  168.26    7.81
   7  -7  -1  158.34    9.19
  -7  -7   1  173.76    7.21
   7  -8  -1   39.64    3.88
   7  -8  -1   38.66    3.67
  -7  -8   1   35.52    4.27
  -7  -8   1   37.47    4.28
  -7  -8   1   39.20    4.03
  -7   8  -1   36.88    5.59
   7  -8  -1   36.03    5.33
  -7   9  -1  476.14   15.66
  -7  -9   1  489.84   12.25
   7  -9  -1  441.07   10.73
   7  -9  -1  492.39   11.68
   7  -9  -1  455.97   14.77
   7 -10  -1   10.55    3.09
  -7  10  -1    7.00    4.29
   7 -10  -1    6.75    2.33
  -7 -10   1   11.38    3.08
   7 -10  -1   11.99    4.10
  -7 -11   1    1.00    2.68
   7 -11  -1    1.37    2.21
   7 -11  -1    0.83    2.69
   7 -11  -1    0.98    3.93
  -7  11  -1    1.83    3.55
  -7 -12   1    0.92    2.97
   7 -12  -1   -3.43    2.81
   7 -12  -1    0.38    3.93
  -7  12  -1   -0.57    4.02
  -7 -13   1   77.63    6.23
  -7  13  -1   72.26    7.39
   7 -13  -1   80.96    6.23
   7 -13  -1   72.64    7.20
   7 -14  -1    7.97    4.34
  -7  14  -1    9.14    4.14
  -7 -14   1   10.69    3.56
   7 -14  -1   12.98    3.73
  -7 -15   1   36.80    4.88
   7 -15  -1   30.16    4.93
  -7 -16   1   10.20    4.20
   7 -16  -1   10.98    4.02
   7 -17  -1   25.18    5.19
  -7 -17   1   20.13    4.95
   8 -16   1   82.02    7.34
   8 -16   1   76.69    6.71
  -8 -16  -1   78.53    7.78
   8 -15   1    1.18    3.59
  -8 -15  -1    5.86    3.67
   8 -15   1   -0.31    3.91
  -8 -15  -1    3.00    4.85
  -8  14   1  168.20   11.30
  -8 -14  -1  166.97   10.65
  -8 -14  -1  175.29    8.93
   8 -14   1  158.37    9.69
   8 -14   1  164.17    9.22
   8 -13   1   36.87    4.92
   8 -13   1   29.96    5.77
  -8 -13  -1   33.74    5.89
  -8  13   1   48.93    6.83
  -8 -13  -1   35.87    4.44
  -8  12   1   81.93    8.05
  -8 -12  -1   76.48    7.87
   8 -12   1   76.24    6.22
  -8 -12  -1   75.90    5.93
   8 -12   1   78.07    7.32
  -8 -11  -1   22.33    3.69
  -8 -11  -1   21.69    5.21
   8 -11   1   16.23    3.63
  -8  11   1   20.86    5.47
   8 -11   1   16.21    5.02
  -8 -10  -1   64.00    7.43
  -8  10   1   70.62    7.44
  -8 -10  -1   62.51    5.19
   8 -10   1   65.51    6.76
   8 -10   1   65.47    5.47
  -8  -9  -1   32.80    5.85
  -8  -9  -1   34.36    4.20
  -8   9   1   31.65    5.77
   8  -9   1   27.64    5.31
   8  -9   1   27.62    3.96
   8  -8   1    0.29    2.60
  -8  -8  -1    0.00    1.70
  -8  -8  -1    0.08    4.08
   8  -8   1   -0.43    4.10
  -8  -8  -1    0.82    2.46
  -8   8   1   -0.66    4.04
  -8  -7  -1   52.19    5.37
  -8  -7  -1   50.16    6.84
  -8   7   1   61.47    6.57
  -8  -7  -1   50.62    4.45
   8  -7   1   55.25    4.72
   8  -7   1   50.68    6.08
   8   7  -1   55.31    5.71
  -8   6   1   48.75    6.07
   8  -6   1   49.00    4.59
  -8  -6  -1   48.76    6.17
  -8  -6  -1   41.91    5.23
  -8  -6  -1   50.43    4.17
   8   6  -1   46.91    5.48
   8  -6   1   48.30    5.73
  -8  -5  -1  145.37    8.20
  -8  -5  -1  153.05   10.77
  -8  -5  -1  161.41    6.67
   8  -5   1  165.52    9.34
  -8   5   1  158.65    9.51
   8  -5   1  148.23    7.01
   8   5  -1  170.46    9.11
  -8   4   1   54.03    6.00
  -8  -4  -1   43.15    5.17
  -8  -4  -1   36.66    6.11
   8  -4   1   38.77    5.53
  -8  -4  -1   48.00    3.94
   8   4  -1   50.25    5.74
  -8  -3  -1    3.38    3.21
   8   3  -1    5.15    3.63
  -8  -3  -1    3.37    3.61
   8  -3   1    0.91    3.58
  -8   3   1    2.15    3.92
  -8  -3  -1    2.25    1.90
  -8  -2  -1  266.76    7.67
  -8  -2  -1  258.07   10.90
  -8  -2  -1  234.46   12.75
  -8   2   1  272.11   11.51
   8  -2   1  263.27   11.08
   8   2  -1  271.13   11.51
  -8   2   1  271.05    7.55
  -8  -1  -1   56.99    6.94
  -8  -1  -1   53.85    5.67
  -8   1   1   49.03    5.58
  -8  -1  -1   56.60    3.72
  -8   1   1   54.24    3.83
   8  -1   1   55.61    5.89
   8   1  -1   66.09    6.47
  -8   0  -1  185.65    9.59
  -8   0  -1  185.35   11.46
  -8   0   1  232.77   11.05
  -8   0   1  190.60    9.55
  -8   0   1  195.10    6.79
   8   0  -1  202.82   10.23
   8   0   1  187.40    9.29
  -8   0  -1  195.54    6.15
  -8   1  -1   51.29    5.90
  -8  -1   1   52.07    5.73
  -8  -1   1   63.64    6.40
   8   1   1   54.60    5.59
  -8  -1   1   57.78    4.17
  -8   1  -1   56.70    6.96
   8  -1  -1   49.00    5.85
  -8   2  -1  273.06   11.62
  -8   2  -1  253.34   13.20
  -8  -2   1  268.15   10.97
  -8  -2   1  270.02    8.28
   8   2   1  283.12   11.03
   8  -2  -1  263.97   11.59
  -8  -2   1  277.90   11.75
  -8  -3   1    3.47    2.11
  -8   3  -1    1.99    3.74
  -8  -3   1    3.66    3.27
  -8  -3   1    2.90    2.92
   8   3   1    2.20    2.94
   8  -3  -1    3.13    3.87
  -8   4  -1   46.08    5.98
  -8  -4   1   46.81    5.20
   8  -4  -1   44.45    5.87
   8   4   1   47.54    4.95
  -8  -4   1   49.04    5.51
  -8  -4   1   44.98    4.14
  -8  -5   1  152.64    8.53
  -8   5  -1  145.86    9.34
  -8  -5   1  150.31    6.92
   8  -5  -1  152.99    9.59
  -8  -5   1  163.49    8.47
   8   5   1  153.76    8.20
   8   6   1   50.60    5.24
  -8  -6   1   57.03    5.62
  -8  -6   1   49.48    4.51
  -8  -6   1   56.95    5.60
  -8   6  -1   52.97    6.39
   8  -6  -1   51.51    6.29
  -8   7  -1   54.20    6.79
  -8  -7   1   51.10    5.34
  -8  -7   1   64.38    5.10
   8   7   1   54.51    5.50
   8  -7  -1   56.77    4.38
   8  -7  -1   60.09    6.62
   8  -8  -1    1.17    2.04
   8  -8  -1   -0.40    4.22
  -8  -8   1    0.00    1.43
  -8  -8   1    1.22    2.52
   8  -8  -1   -0.79    2.31
  -8   8  -1   -0.47    3.96
  -8   9  -1   32.38    5.87
  -8  -9   1   32.72    4.36
   8  -9  -1   34.01    3.93
   8  -9  -1   24.19    3.35
   8  -9  -1   26.58    5.69
  -8 -10   1   69.64    5.65
  -8  10  -1   70.57    7.61
   8 -10  -1   53.34    4.69
   8 -10  -1   71.74    5.47
   8 -10  -1   71.52    7.34
  -8 -11   1   20.66    4.27
   8 -11  -1   14.43    5.32
   8 -11  -1    3.24    1.75
   8 -11  -1   18.35    3.69
  -8  11  -1   18.83    5.67
  -8  12  -1   80.91    8.45
  -8 -12   1   79.23    6.33
   8 -12  -1   83.08    6.34
   8 -12  -1   65.96    7.11
  -8 -13   1   38.81    5.22
   8 -13  -1   34.31    6.01
   8 -13  -1   42.62    4.95
  -8  13  -1   31.99    6.12
  -8 -14   1  179.80    9.42
  -8  14  -1  168.62   11.15
   8 -14  -1  174.62    9.08
   8 -14  -1  164.81   10.59
  -8 -15   1    1.16    3.98
   8 -15  -1    1.94    3.85
   8 -16  -1   90.46    7.53
  -9 -14  -1   50.31    7.04
  -9  14   1   68.22    8.80
   9 -14   1   70.62    6.63
   9 -14   1   59.20    7.25
  -9 -13  -1    1.53    3.46
  -9  13   1   -2.49    6.27
   9 -13   1   -0.56    3.85
   9 -13   1   -0.04    4.87
  -9 -13  -1   -1.02    5.29
  -9 -12  -1   18.66    5.93
   9 -12   1   24.88    6.00
  -9  12   1   22.80    6.13
   9 -12   1   24.92    4.30
  -9 -12  -1   25.38    4.18
  -9 -11  -1    3.18    3.07
  -9 -11  -1    4.80    4.70
  -9  11   1    5.91    5.09
   9 -11   1    2.95    4.96
   9 -11   1    4.99    3.11
  -9 -10  -1  154.42   11.09
  -9  10   1  154.26   10.98
   9 -10   1  149.49    8.22
  -9 -10  -1  147.16    7.77
   9 -10   1  128.75    9.56
  -9   9   1   55.19    7.54
  -9  -9  -1   52.32    7.20
   9  -9   1   51.50    5.25
  -9  -9  -1   52.98    5.05
   9  -9   1   49.62    6.77
   9  -8   1   23.02    4.02
  -9  -8  -1   18.50    3.57
  -9  -8  -1   19.14    5.76
  -9   8   1   21.81    5.74
   9  -8   1   14.20    5.42
  -9  -7  -1  188.93   12.39
  -9  -7  -1  156.61    9.11
   9  -7   1  201.55   11.11
  -9   7   1  175.74   11.01
  -9  -7  -1  182.60    7.99
   9  -7   1  189.84    8.64
  -9  -6  -1   -0.10    4.21
  -9  -6  -1   -0.36    4.11
  -9   6   1    3.36    4.17
  -9  -6  -1    1.07    2.45
   9  -6   1    3.06    2.53
   9  -6   1    1.29    4.56
   9   6  -1   -0.29    4.01
   9   5  -1  166.07    9.88
  -9  -5  -1  140.00    8.75
  -9   5   1  160.30   10.36
  -9  -5  -1  138.06   10.72
   9  -5   1  150.48    7.62
  -9  -5  -1  158.61    7.10
   9  -5   1  158.10    9.92
  -9  -4  -1    1.57    2.32
  -9   4   1    1.80    4.19
  -9  -4  -1    0.92    4.05
  -9  -4  -1    2.21    4.70
   9   4  -1    2.12    3.65
   9  -4   1    4.25    4.42
  -9   3   1   22.14    5.56
   9   3  -1   20.09    4.89
   9  -3   1   28.33    5.72
  -9  -3  -1   15.36    4.59
  -9  -3  -1   31.29    6.08
  -9  -3  -1   22.66    3.20
  -9  -2  -1  261.76   14.45
  -9   2   1  283.83   12.75
   9  -2   1  287.26   12.39
  -9  -2  -1  269.32   12.00
  -9  -2  -1  280.10    8.30
   9   2  -1  284.52   12.84
   9  -1   1   -0.41    3.98
  -9  -1  -1    3.49    4.18
  -9   1   1   -0.30    4.14
  -9  -1  -1    0.39    4.50
  -9   1   1    3.82    3.63
   9   1  -1   -0.37    4.01
  -9   0   1    0.55    4.17
  -9   0   1   -1.82    2.13
  -9   0  -1   -0.69    4.15
   9   0   1    0.12    3.91
  -9   0  -1    1.39    4.51
  -9   0   1    0.36    3.94
   9   0  -1    0.70    4.46
   9  -1  -1    1.91    4.09
  -9  -1   1    0.02    2.27
  -9   1  -1   -0.46    3.89
  -9  -1   1   -0.01    3.89
  -9   1  -1   -0.71    4.47
   9   1   1   -0.39    3.52
  -9  -1   1    0.36    3.57
  -9   2  -1  277.19   12.77
  -9   2  -1  274.58   14.92
  -9  -2   1  268.71   12.04
   9   2   1  289.68   12.20
  -9  -2   1  272.84    8.96
   9  -2  -1  288.73   13.22
  -9  -2   1  281.93   13.00
  -9  -3   1   25.06    3.57
  -9  -3   1   25.15    4.90
  -9  -3   1   16.61    4.66
  -9   3  -1   20.97    5.66
  -9   3  -1   25.12    6.16
   9   3   1   26.60    4.87
   9  -3  -1   25.78    5.69
  -9  -4   1    3.31    2.58
  -9  -4   1    1.48    3.74
  -9  -4   1    3.64    3.62
   9  -4  -1    3.23    4.54
  -9   4  -1    0.25    4.64
   9   4   1    2.69    3.75
  -9  -5   1  158.48    9.29
   9   5   1  159.72    9.08
   9  -5  -1  171.47   10.70
  -9   5  -1  167.05   10.71
  -9  -5   1  165.96    7.68
   9   6   1   -0.41    3.60
  -9   6  -1    0.57    4.74
  -9  -6   1    0.92    3.96
  -9  -6   1    1.41    2.58
   9  -6  -1    0.06    3.89
  -9  -7   1  178.97    9.67
  -9   7  -1  206.17   12.04
  -9  -7   1  186.12    8.50
   9  -7  -1  177.59   11.06
  -9  -8   1   17.79    3.72
  -9   8  -1   15.35    5.75
   9  -8  -1   18.72    3.61
   9  -8  -1   18.19    5.65
  -9   9  -1   59.43    7.92
  -9  -9   1   59.17    5.61
   9  -9  -1   51.67    4.93
   9  -9  -1   67.65    7.62
  -9  10  -1  157.80   11.47
  -9 -10   1  151.02    8.41
   9 -10  -1  123.92    6.96
   9 -10  -1  154.39   10.61
  -9  11  -1   -0.44    5.07
  -9 -11   1    7.22    3.93
   9 -11  -1    3.58    5.29
   9 -12  -1   21.27    5.37
  -9 -12   1   23.18    4.92
  -9  12  -1   17.14    6.08
  -9 -13   1    1.57    3.70
  -9  13  -1   -1.70    5.70
   9 -13  -1   -0.51    5.63
  -9  14  -1   59.26    8.71
   9 -14  -1   60.76    7.91
 -10 -12  -1   90.70    9.25
  10 -11   1   -1.91    3.73
 -10 -11  -1   -4.45    6.43
 -10  11   1   -1.78    6.31
  10 -11   1    0.99    5.60
 -10 -11  -1    0.48    3.53
 -10 -10  -1    3.90    3.44
 -10 -10  -1    6.72    6.00
  10 -10   1    4.48    3.48
 -10  10   1    6.48    5.11
  10 -10   1    5.81    5.25
  10  -9   1   54.86    7.70
 -10  -9  -1   52.28    7.93
 -10  -9  -1   52.49    5.52
  10  -9   1   48.32    5.61
 -10   9   1   55.91    8.28
  10  -8   1    0.24    3.32
 -10  -8  -1    0.03    2.94
 -10  -8  -1    2.82    5.75
 -10   8   1   -3.33    4.65
  10  -8   1   -0.01    4.67
 -10   7   1   26.70    6.28
  10  -7   1   25.25    4.40
 -10  -7  -1   29.25    3.97
  10  -7   1   21.57    6.35
 -10  -7  -1   23.19    6.57
 -10  -6  -1   44.56    6.45
 -10  -6  -1   34.87    7.17
 -10   6   1   41.35    7.48
 -10  -6  -1   45.95    4.72
  10  -6   1   46.31    5.19
  10  -6   1   44.42    6.80
 -10  -5  -1  118.69    8.99
 -10  -5  -1  132.65   11.38
 -10   5   1  151.98   10.91
  10  -5   1  137.69    7.93
 -10  -5  -1  138.71    7.13
  10  -5   1  136.59   10.21
  10   5  -1  143.82   10.27
 -10  -4  -1   -0.67    4.18
 -10   4   1    0.71    5.36
 -10  -4  -1   -0.87    5.42
  10   4  -1   -2.21    4.83
  10  -4   1    2.03    4.77
 -10  -3  -1   44.70    7.92
 -10  -3  -1   47.43    6.48
 -10   3   1   43.65    6.96
  10   3  -1   53.09    7.07
  10  -3   1   47.48    7.08
 -10   2   1   17.80    5.09
 -10   2   1   16.61    5.71
  10   2  -1   17.77    5.53
 -10  -2  -1   15.24    5.70
 -10  -2  -1   10.84    4.93
  10  -2   1   21.31    4.82
 -10  -1  -1    6.14    4.31
 -10   1   1    4.23    4.45
 -10  -1  -1    0.27    5.15
 -10   1   1    4.09    5.04
  10   1  -1    3.40    4.93
  10  -1   1    6.29    3.65
 -10   0  -1  166.67   10.83
 -10   0  -1  182.05   13.25
 -10   0   1  186.97   11.47
 -10   0   1  188.08   12.17
  10   0  -1  195.35   11.92
  10   0   1  173.19   10.81
 -10  -1   1    4.22    4.46
 -10  -1   1    4.77    4.92
 -10   1  -1    2.96    5.39
  10   1   1    5.30    4.08
 -10   1  -1    0.53    4.48
  10  -1  -1    5.64    4.37
 -10  -2   1   15.62    3.18
 -10   2  -1   19.99    5.90
 -10  -2   1   18.27    5.67
 -10  -2   1   26.19    6.03
 -10   2  -1   11.84    5.98
  10   2   1   23.40    5.45
  10  -2  -1   16.00    5.30
  10  -3  -1   56.71    7.74
  10   3   1   50.34    6.74
 -10  -3   1   46.70    6.58
 -10  -3   1   48.36    4.73
 -10   3  -1   43.26    7.97
 -10   3  -1   46.12    7.25
  10   4   1    2.06    3.91
 -10   4  -1   -0.02    5.25
 -10  -4   1    1.41    3.99
 -10  -4   1    0.78    2.69
 -10   4  -1    2.54    4.99
  10  -4  -1    2.54    5.33
 -10   5  -1  136.38   10.90
 -10   5  -1  125.52   11.46
 -10  -5   1  138.10    9.49
 -10  -5   1  138.30    7.61
  10  -5  -1  141.30   10.63
  10   5   1  126.99    9.24
 -10  -6   1   46.73    5.14
  10  -6  -1   47.70    7.63
 -10   6  -1   49.31    7.66
 -10  -6   1   42.06    6.18
 -10  -7   1   25.17    4.44
  10  -7  -1   24.63    4.22
 -10   7  -1   32.39    6.77
  10  -7  -1   45.48    7.06
 -10   8  -1    4.65    4.72
 -10  -8   1    0.67    3.07
  10  -8  -1    1.32    3.33
  10  -8  -1   -0.91    5.14
 -10  -9   1   54.36    5.72
  10  -9  -1   53.50    7.85
 -10   9  -1   45.36    8.39
  10  -9  -1   44.12    4.91
 -10 -10   1    1.85    3.71
 -10  10  -1    1.45    6.13
  10 -10  -1    3.25    5.46
  10 -11  -1    1.87    6.23
 -10  11  -1    0.07    6.68
 -11  -9  -1    4.70    7.54
 -11  -8  -1   -0.15    3.80
 -11  -8  -1   -1.96    7.31
 -11  -7  -1   58.92    9.23
 -11  -7  -1   60.20    5.56
  11  -6   1    3.74    3.53
 -11  -6  -1    0.09    6.80
 -11   6   1   11.87    5.54
  11  -6   1    4.01    5.22
  11  -5   1   45.33    5.78
  11  -5   1   45.28    8.11
 -11  -5  -1   25.98    7.35
 -11   5   1   36.15    7.92
 -11  -5  -1   41.60    8.52
  11  -4   1   24.48    6.84
  11  -4   1   19.44    4.35
 -11  -4  -1   24.06    6.04
 -11   4   1   18.89    6.81
 -11  -4  -1   15.12    7.13
  11   4  -1   25.23    6.23
  11  -3   1    3.88    5.53
 -11  -3  -1    2.65    5.14
 -11   3   1    5.65    5.31
 -11  -3  -1    4.02    6.37
 -11   3   1    1.71    6.40
  11   3  -1    4.19    5.35
 -11  -2  -1   64.61    7.76
 -11   2   1   73.59    9.04
 -11   2   1   79.40    8.92
 -11  -2  -1   67.44    9.65
  11  -2   1   84.10    9.29
  11   2  -1   80.83    8.93
 -11   1   1   84.92    9.39
 -11   1   1   71.32    8.41
 -11  -1  -1   52.33    7.58
 -11  -1  -1   54.79    8.98
  11  -1   1   76.11    8.54
  11   1  -1   82.31    8.38
 -11   0  -1    0.11    5.46
 -11   0   1    0.56    5.35
 -11   0  -1    1.31    6.44
  11   0   1    2.74    5.19
 -11   0   1    0.00    2.84
  11   0  -1    0.96    5.29
 -11   1  -1   69.14    8.37
 -11  -1   1   68.64    8.56
 -11   1  -1   69.94    9.86
  11   1   1   74.51    8.14
  11  -1  -1   81.87    9.12
 -11  -2   1   81.09    8.81
 -11   2  -1   58.39    8.71
 -11   2  -1   65.68    9.78
  11   2   1   77.48    8.57
  11  -2  -1   80.80    9.04
 -11   3  -1    4.19    6.05
 -11  -3   1   -0.19    5.03
 -11   3  -1    1.76    6.62
  11   3   1    6.00    5.33
  11  -3  -1    3.16    5.40
 -11  -4   1   18.28    4.07
 -11   4  -1   20.61    7.51
 -11  -4   1   21.55    5.93
 -11   4  -1   25.12    7.38
  11   4   1   23.71    5.54
  11  -4  -1   17.51    6.36
 -11  -5   1   37.01    4.81
 -11   5  -1   35.65    8.16
 -11  -5   1   38.54    7.65
  11   5   1   31.57    6.62
 -11   5  -1   38.85    8.74
  11  -5  -1   53.08    7.19
 -11   6  -1    4.93    6.03
 -11   6  -1    1.89    7.18
  11  -6  -1    3.35    5.44
 -11  -6   1    4.61    3.68
  11  -7  -1   53.30    5.95
 -11  -7   1   59.56    6.10
  11  -8  -1    2.13    3.50
   0   0  -2 3567.73   35.86
   0   0   2 3677.12   34.58
   0   0  -2 3705.73   93.07
   0   0   2 3838.08   74.33
   0   1   2    0.46    0.83
   0  -1  -2    0.97    3.78
   0   1  -2    1.96    3.45
   0  -1   2    0.61    1.11
   0  -1   2    1.35    3.36
   0  -1  -2   -0.13    1.38
   0   1  -2    1.11    1.22
   0   1   2   -1.20    3.12
   0  -2   2  319.79    6.80
   0  -2  -2  305.20    8.34
   0   2  -2  328.75    6.24
   0   2   2  342.98    4.60
   0  -2   2  324.32   10.81
   0   2  -2  321.58   11.20
   0   2   2  345.93   11.83
   0  -2  -2  340.93   12.36
   0   3   2    0.39    2.78
   0  -3  -2    1.60    3.66
   0   3  -2    0.15    2.79
   0  -3  -2    0.14    1.65
   0  -3  -2    7.17    2.19
   0   3  -2    0.82    0.91
   0  -3   2    2.45    1.70
   0   3   2    0.26    0.46
   0  -3   2    0.23    1.40
   0  -3   2   -0.51    3.18
   0  -4  -2   20.54    4.84
   0  -4  -2   13.07    2.67
   0   4  -2   15.80    3.53
   0  -4   2   16.95    2.32
   0  -4  -2   18.62    2.63
   0   4   2   15.95    3.66
   0  -4   2   20.08    4.08
   0  -4   2   18.04    2.34
   0  -5  -2   -0.85    3.86
   0   5  -2    0.07    2.43
   0   5   2    2.06    2.40
   0  -5   2   -0.52    1.66
   0  -5   2    0.05    1.67
   0  -5  -2   -0.38    2.07
   0  -5   2   -0.83    3.42
   0  -5  -2   -0.12    2.00
   0   6  -2  165.53    8.16
   0  -6  -2  138.60    7.24
   0   6   2  152.12    7.26
   0  -6   2  179.77    8.08
   0  -6  -2  166.86    7.91
   0  -6   2  181.12    5.15
   0  -6  -2  185.97    5.61
   0  -6   2  166.07    6.24
   0  -7  -2    0.77    3.49
   0   7  -2   -1.68    2.41
   0   7   2    1.15    1.99
   0  -7  -2   -0.77    2.19
   0  -7   2   -0.14    1.77
   0  -7  -2    0.58    1.85
   0  -7   2   -0.27    1.92
   0  -7   2    0.35    3.65
   0  -8   2   47.45    5.29
   0  -8  -2   49.14    5.00
   0  -8  -2   54.71    3.61
   0  -8   2   54.89    3.20
   0   8  -2   48.34    5.10
   0  -8   2   60.05    4.41
   0  -8  -2   44.74    4.53
   0   8   2   43.85    3.90
   0  -9  -2    0.52    4.17
   0  -9   2    0.53    2.29
   0   9  -2   -0.54    2.40
   0  -9  -2    0.06    2.73
   0   9   2   -0.48    1.63
   0  -9   2    0.45    2.18
   0  -9   2   -0.89    5.32
   0  -9  -2   -0.31    2.18
   0 -10  -2   -0.20    2.19
   0 -10  -2    0.84    2.88
   0  10  -2    2.41    2.82
   0 -10   2    0.99    1.73
   0 -10  -2    0.44    3.05
   0  10   2    0.89    1.59
   0 -10   2   -0.90    3.61
   0 -10   2    2.72    2.37
   0 -11   2    0.44    2.39
   0 -11  -2    0.39    3.12
   0 -11   2    0.24    1.81
   0 -11   2    0.57    2.28
   0 -11  -2    1.62    2.32
   0  11   2    0.11    1.78
   0 -11  -2    0.20    2.00
   0 -12  -2 1456.04   27.06
   0 -12  -2    0.00    0.77
   0 -12  -2 1322.36   16.84
   0 -12   2 1342.51   20.31
   0 -12   2 1363.14   14.14
   0 -13   2    0.26    1.51
   0 -13  -2   -1.41    3.31
   0 -13   2    0.02    2.58
   0 -13  -2    0.98    2.36
   0 -14  -2  279.61   13.37
   0 -14   2  283.09   10.30
   0 -14  -2  288.93    8.98
   0 -15  -2   -0.03    4.11
   0 -15  -2    0.16    2.60
   0 -15   2   -0.63    2.98
   0 -16   2    4.50    3.23
   0 -16  -2    6.87    4.35
   0 -16  -2    2.04    2.82
   0 -17   2   -0.06    3.40
   0 -17  -2    2.20    4.69
   0 -17  -2    0.00    3.01
   0 -18  -2   78.77    6.17
   0 -18   2   80.91    6.80
   0 -18  -2   83.32    8.93
   0 -19   2   -0.26    3.89
   0 -19  -2   -0.50    3.51
   0 -20   2    0.63    3.92
   0 -20  -2    0.84    3.69
   0 -21  -2    0.86    3.84
   0 -21   2    1.69    4.21
  -1 -21  -2   23.40    5.10
   1 -21   2   39.18    6.13
   1 -20   2    8.52    4.29
  -1 -20  -2   16.63    5.94
  -1 -20  -2    8.39    3.99
  -1 -19  -2  418.20   18.22
  -1 -19  -2  398.68   12.35
   1 -19   2  396.60   13.71
  -1 -18  -2   24.08    5.83
   1 -18   2   20.57    4.60
  -1 -18  -2   13.52    3.76
   1 -17   2   81.26    6.58
  -1 -17  -2   75.21    8.36
  -1 -17  -2   82.68    5.86
  -1 -16  -2   42.60    6.38
   1 -16   2   48.96    5.26
  -1 -16  -2   44.70    4.50
   1 -15   2   85.51    6.43
  -1 -15  -2   78.85    5.29
  -1 -15  -2   82.65    8.00
  -1 -14  -2   22.13    5.24
  -1 -14  -2   21.46    3.25
   1 -14   2   22.70    4.02
  -1 -13  -2   34.96    3.50
  -1 -13  -2   30.63    5.18
   1 -13   2   31.66    4.27
  -1 -12  -2    5.39    3.51
   1 -12   2    0.00    0.47
  -1 -12  -2    5.41    2.16
   1 -12   2    6.30    2.76
   1 -12   2    6.10    2.63
  -1 -11  -2   60.76    6.26
  -1 -11  -2   51.91    3.65
   1 -11   2   48.27    5.06
  -1  11   2   47.32    3.85
   1 -11   2   55.92    2.82
  -1 -11  -2   50.39    3.62
   1 -11   2   54.86    4.78
   1 -10   2   -0.57    3.37
  -1 -10  -2    0.79    2.08
   1  10  -2    0.69    2.46
   1 -10   2    0.85    1.12
  -1 -10  -2   -0.24    2.75
  -1  10   2   -0.18    1.83
  -1 -10  -2    1.78    1.89
   1 -10   2    0.62    2.31
  -1  -9  -2   21.55    4.66
   1   9  -2   18.12    3.56
  -1  -9  -2   22.98    3.96
  -1   9   2   21.40    2.89
   1  -9   2   21.58    4.24
  -1  -9  -2   28.17    3.33
   1  -9   2   26.44    2.27
   1  -9   2   26.30    3.29
   1   8  -2  120.29    7.00
   1  -8   2  147.61    6.68
  -1  -8  -2  123.35    7.58
  -1   8   2  141.57    6.26
  -1  -8  -2  146.30    5.15
   1  -8   2  155.54    4.37
  -1  -8  -2  154.29    7.75
   1  -8   2  141.60    6.17
   1  -7   2 1385.70   16.87
  -1  -7  -2 1444.44   14.07
   1  -7   2 1476.41   12.17
  -1   7   2 1380.44   18.06
   1  -7   2 1412.17   17.97
  -1  -7  -2 1299.50   21.98
  -1  -7  -2 1570.74   22.99
   1   7  -2 1324.33   21.59
   1   6  -2    4.49    2.75
   1  -6   2    5.08    1.80
  -1  -6  -2    3.48    4.84
  -1  -6  -2    6.86    2.19
  -1  -6  -2    4.00    2.33
   1  -6   2    6.14    2.01
  -1   6   2    5.57    2.04
   1  -6   2    6.16    3.20
  -1  -5  -2 1020.82   19.81
   1  -5   2  864.69   12.13
   1  -5   2  869.42   14.18
  -1  -5  -2  889.18   10.79
  -1  -5  -2  846.86   16.72
  -1   5   2  809.01   14.81
   1  -5   2  876.92   10.06
   1   5  -2  895.11   18.31
  -1  -4  -2  233.75   10.64
  -1  -4  -2  203.57    8.23
   1  -4   2  224.77    6.00
   1  -4   2  226.12    7.86
  -1   4   2  222.91    8.32
  -1  -4  -2  224.20    5.85
   1   4  -2  214.01    9.49
   1  -3   2   45.51    2.77
   1  -3   2   50.83    4.15
  -1  -3  -2   51.78    4.27
  -1   3   2   40.78    4.23
  -1  -3  -2   42.08    3.09
  -1  -3  -2   46.12    5.45
   1   3  -2   42.36    4.88
  -1   2   2    5.07    0.74
   1   2  -2    2.99    2.94
  -1  -2  -2    6.78    3.61
   1   2  -2    3.62    0.59
  -1  -2  -2    3.60    1.96
   1  -2   2    4.97    2.60
   1  -2   2    4.74    1.22
  -1   2   2    4.50    2.36
   1   1  -2   46.50    2.17
  -1  -1  -2   45.36    3.71
   1  -1   2   53.75    4.50
   1  -1   2   53.06    2.48
  -1  -1  -2   50.65    5.03
  -1   1   2   45.58    4.77
  -1   1   2   49.03    2.11
   1   1  -2   45.65    4.97
  -1   0   2    0.68    0.99
   1   0  -2   -0.29    3.35
  -1   0  -2    1.63    2.82
   1   0  -2    0.76    1.02
  -1   0  -2    0.95    1.58
   1   0   2    1.93    2.53
  -1   0   2    1.26    3.32
   1   0   2    0.53    0.77
  -1   1  -2   57.49    3.67
  -1  -1   2   52.99    5.34
  -1  -1   2   50.61    2.83
   1  -1  -2   45.22    2.97
   1   1   2   58.59    4.67
   1   1   2   53.45    2.05
  -1   1  -2   50.01    4.41
   1  -1  -2   52.54    5.34
   1  -2  -2    6.19    3.07
  -1  -2   2    5.72    1.59
  -1   2  -2    4.25    2.07
   1  -2  -2    4.53    1.51
  -1  -2   2    3.17    3.21
  -1   2  -2    5.01    1.52
  -1  -2   2    6.09    1.95
   1   2   2    6.07    0.81
   1   2   2    8.79    2.86
   1  -3  -2   44.37    3.57
  -1   3  -2   49.71    4.22
  -1  -3   2   57.61    5.28
   1   3   2   42.87    4.72
  -1   3  -2   45.22    3.04
   1   3   2   49.19    1.63
   1  -3  -2   47.70    3.46
  -1  -3   2   48.05    3.29
  -1  -3   2   52.01    3.22
   1  -3  -2   41.83    4.57
  -1  -4   2  215.47    6.01
  -1  -4   2  240.04    6.94
  -1  -4   2  240.67    9.71
  -1   4  -2  219.34    8.03
   1   4   2  232.23    9.75
   1  -4  -2  205.53    7.53
   1  -4  -2  249.69    9.29
   1  -4  -2  220.74    6.28
   1   5   2  907.14   19.05
  -1  -5   2  969.36   17.42
   1  -5  -2  787.79   15.07
   1  -5  -2  879.01   11.83
  -1  -5   2  912.70   13.59
  -1   5  -2  896.87   15.51
  -1  -5   2  888.47   11.39
   1  -5  -2  949.07   15.98
  -1  -6   2    6.29    2.02
  -1  -6   2    6.97    4.13
   1  -6  -2    3.48    3.26
   1  -6  -2    3.61    2.00
  -1   6  -2    3.35    2.32
  -1  -6   2    7.18    2.27
   1   6   2    3.38    2.84
   1  -6  -2    6.33    2.10
   1  -7  -2 1307.95   21.41
  -1  -7   2 1445.52   18.26
   1  -7  -2 1396.17   15.34
  -1  -7   2 1437.28   14.37
  -1  -7   2 1591.99   21.00
  -1   7  -2 1437.28   19.92
   1  -7  -2 1454.23   18.44
   1   7   2 1288.66   21.96
  -1   8  -2  134.11    6.70
   1  -8  -2  130.27    7.59
   1   8   2  132.42    7.13
  -1  -8   2  142.77    6.48
  -1  -8   2  164.07    7.54
   1  -8  -2  149.49    5.63
  -1  -8   2  147.81    5.12
   1  -8  -2  146.78    6.48
   1  -9  -2   21.82    3.83
   1  -9  -2   23.69    3.00
  -1   9  -2   18.21    3.09
  -1  -9   2   23.76    3.46
   1   9   2   17.07    2.94
   1  -9  -2   21.66    3.98
  -1  -9   2   24.78    2.89
  -1  -9   2   23.96    4.41
   1 -10  -2    0.28    2.92
   1 -10  -2    1.02    2.82
  -1 -10   2    0.30    2.43
  -1 -10   2    0.73    1.81
  -1  10  -2    2.14    2.27
   1 -10  -2    0.49    2.30
  -1 -10   2    1.62    1.91
   1  10   2   -1.81    1.79
   1 -11  -2   57.00    4.12
   1 -11  -2   49.38    5.87
  -1  11  -2   50.83    4.91
  -1 -11   2   54.32    3.99
  -1 -11   2   53.31    3.47
   1 -11  -2   54.89    4.52
  -1 -11   2   53.29    4.72
  -1 -12   2    4.91    2.92
  -1 -12   2    6.04    1.95
   1 -12  -2    6.91    3.37
   1 -12  -2    3.12    2.41
   1 -12  -2    5.39    2.07
   1 -13  -2   28.70    5.14
   1 -13  -2   37.49    3.88
  -1 -13   2   34.93    4.26
  -1 -13   2   33.09    3.09
  -1 -14   2   20.65    3.96
   1 -14  -2   24.60    3.65
  -1 -14   2   20.22    2.82
   1 -14  -2   20.76    5.02
  -1 -15   2   90.06    6.56
  -1 -15   2   76.35    4.62
   1 -15  -2   72.80    7.84
   1 -15  -2   83.02    5.70
   1 -16  -2   48.06    4.87
  -1 -16   2   38.98    4.94
   1 -17  -2   75.14    5.98
  -1 -17   2   73.85    6.49
   1 -18  -2   18.68    4.19
  -1 -18   2   17.33    4.53
  -1 -19   2  442.08   14.51
   1 -19  -2  389.01   12.98
   1 -20  -2   12.82    4.63
  -1 -20   2   11.96    4.78
   1 -21  -2   33.93    6.01
  -1 -21   2   29.87    5.62
   2 -21   2   -2.41    4.42
  -2 -20  -2    2.34    5.67
   2 -20   2   -1.40    4.65
  -2 -19  -2   37.42    6.88
   2 -19   2   46.02    5.85
  -2 -18  -2   55.53    7.54
   2 -18   2   48.57    5.85
  -2 -18  -2   38.59    4.51
  -2 -17  -2    0.74    4.69
   2 -17   2    1.95    3.25
  -2 -17  -2   -0.08    2.91
   2 -16   2   34.15    5.10
  -2 -16  -2   40.48    4.25
  -2 -16  -2   52.36    7.00
  -2 -15  -2   86.46    8.16
  -2 -15  -2   76.32    5.02
   2 -15   2   76.63    6.33
  -2 -14  -2  191.04   11.08
  -2 -14  -2  190.57    7.06
   2 -14   2  189.08    8.83
  -2 -13  -2   25.48    4.16
  -2 -13  -2   24.73    3.08
   2 -13   2   21.83    3.69
  -2 -12  -2  497.76   16.40
  -2  12   2  480.65   11.44
  -2 -12  -2  481.40    9.69
   2 -12   2  472.41   12.59
   2 -12   2  459.60   11.21
  -2 -11  -2  625.15   17.92
   2 -11   2  580.30   12.27
  -2 -11  -2    0.00    0.88
  -2  11   2  570.52   12.39
   2 -11   2  606.57   13.58
  -2 -11  -2  604.08   10.33
   2 -10   2   26.69    3.44
  -2 -10  -2   33.60    5.01
   2  10  -2   24.08    3.10
  -2 -10  -2   25.41    3.46
  -2  10   2   24.33    3.22
  -2 -10  -2   28.46    2.85
   2 -10   2   28.55    3.82
  -2   9   2   43.34    3.94
  -2  -9  -2   37.34    5.06
   2  -9   2   44.51    4.26
   2  -9   2   42.37    3.97
   2  -9   2   44.59    2.04
  -2  -9  -2   46.15    3.24
   2   9  -2   38.18    3.96
  -2  -9  -2   42.99    5.95
   2   8  -2    0.49    2.08
   2  -8   2   -0.09    1.88
   2  -8   2    0.29    0.83
  -2  -8  -2    0.52    2.77
  -2  -8  -2   -0.78    7.03
  -2  -8  -2   -0.03    2.34
   2  -8   2   -0.08    3.14
  -2   8   2    0.09    1.98
   2  -7   2   72.80    4.81
  -2  -7  -2   75.05    3.60
   2  -7   2   66.25    4.10
  -2  -7  -2   77.11    7.09
  -2   7   2   63.31    4.60
  -2  -7  -2   60.97    5.69
   2  -7   2   77.69    2.75
   2   7  -2   59.83    4.81
  -2  -6  -2   68.80    5.74
  -2  -6  -2   87.36    3.74
   2  -6   2   83.09    4.94
   2  -6   2   79.42    4.22
   2   6  -2   65.08    5.03
  -2   6   2   87.19    5.21
  -2  -6  -2   88.05    6.93
   2  -6   2   83.65    3.21
   2  -5   2   20.35    2.33
  -2  -5  -2   25.86    4.63
   2   5  -2   14.98    3.10
  -2   5   2   15.98    2.95
  -2  -5  -2   19.17    3.41
  -2  -5  -2   20.33    2.46
   2  -5   2   19.01    2.30
   2  -5   2   19.22    3.05
   2   4  -2   21.19    3.39
  -2  -4  -2   27.42    4.13
   2  -4   2   23.03    2.22
  -2  -4  -2   28.00    2.68
  -2  -4  -2   23.09    3.53
   2  -4   2   29.29    3.20
  -2  -3  -2  199.63    7.89
  -2  -3  -2  201.13    8.44
  -2  -3  -2  188.35    5.15
  -2   3   2  188.63    7.47
   2  -3   2  209.24    7.10
   2  -3   2  203.61    5.31
   2   3  -2  182.95    8.03
  -2  -2  -2  276.68    8.75
  -2  -2  -2  264.61    9.15
   2  -2   2  262.11    5.57
   2   2  -2  244.60    9.15
  -2   2   2  247.22    8.53
   2  -2   2  261.59    7.90
  -2  -1  -2  516.63   12.23
   2  -1   2  492.23   10.51
   2   1  -2  501.91   12.61
   2  -1   2  531.23    7.31
  -2   1   2  470.30   11.59
  -2  -1  -2  484.56   11.04
  -2   0  -2 1225.70   16.98
  -2   0  -2 1271.87   18.17
  -2   0   2 1171.62   17.78
   2   0   2 1219.73   10.52
  -2   0   2 1174.43   10.70
   2   0   2 1206.88   16.21
  -2   0   2 1229.20   14.51
   2   0  -2 1219.85   19.11
  -2  -1   2  465.10    9.09
  -2   1  -2  494.07   11.02
   2   1   2  534.22    6.60
  -2   1  -2  522.46   11.42
  -2  -1   2  475.41    7.77
  -2  -1   2  492.04   11.81
   2   1   2  489.66   10.75
   2  -1  -2  464.33   11.98
  -2  -2   2  265.13    6.91
  -2  -2   2  240.44    6.07
  -2   2  -2  265.68    7.97
   2  -2  -2  259.08    9.10
  -2  -2   2  266.91    8.99
  -2   2  -2  264.88    8.33
   2  -2  -2  225.82    6.82
   2   2   2  268.68    8.36
  -2   3  -2  186.41    7.23
  -2  -3   2  180.66    7.61
   2   3   2  201.05    7.59
  -2  -3   2  183.31    5.85
  -2  -3   2  198.91    6.02
   2  -3  -2  201.52    7.95
   2  -3  -2  205.80    6.37
  -2  -4   2   23.25    3.91
  -2  -4   2   23.17    2.73
   2  -4  -2   17.68    2.68
  -2   4  -2   26.70    3.18
   2  -4  -2   27.89    2.97
   2   4   2   24.38    3.49
  -2  -4   2   24.42    2.62
   2  -5  -2    0.09    0.32
   2  -5  -2   15.46    3.36
  -2  -5   2   17.06    2.62
   2  -5  -2   13.75    2.72
  -2   5  -2   17.01    2.97
   2  -5  -2   17.78    2.76
  -2  -5   2   19.66    4.00
   2   5   2   17.37    3.41
  -2  -5   2   19.19    2.47
  -2   6  -2   78.50    5.08
   2  -6  -2    7.79    0.65
   2  -6  -2   75.29    5.18
  -2  -6   2   85.54    4.18
  -2  -6   2   89.01    5.60
   2   6   2   82.02    6.05
   2  -6  -2   86.04    4.46
  -2  -6   2   77.04    4.63
   2  -6  -2   61.57    4.94
  -2   7  -2   68.71    4.96
   2  -7  -2   73.76    4.31
   2  -7  -2   13.65    0.88
  -2  -7   2   73.41    5.26
  -2  -7   2   62.10    4.47
   2   7   2   65.19    5.98
  -2  -7   2   75.66    4.05
   2  -7  -2   65.61    4.90
   2  -7  -2   61.16    5.32
  -2  -8   2    0.26    2.19
   2  -8  -2    0.99    3.09
   2   8   2   -0.04    2.82
  -2   8  -2    0.13    2.12
  -2  -8   2    1.18    1.83
   2  -8  -2   -0.03    0.48
   2  -8  -2    0.94    2.19
  -2  -8   2    1.25    4.13
   2  -8  -2   -0.14    2.43
  -2   9  -2   43.51    4.24
  -2  -9   2   44.19    3.42
   2   9   2   35.01    4.52
  -2  -9   2   49.01    4.67
   2  -9  -2   42.38    3.64
  -2  -9   2   42.32    3.71
   2  -9  -2   39.11    4.15
   2  -9  -2   35.58    4.75
   2  10   2   23.46    3.55
  -2  10  -2   22.83    3.58
   2 -10  -2   27.10    3.69
   2 -10  -2   24.99    3.28
  -2 -10   2   28.79    2.97
  -2 -10   2   26.70    2.92
  -2 -10   2   27.85    3.77
  -2 -11   2  576.60   13.58
   2 -11  -2  595.92   12.13
  -2 -11   2  633.61   11.30
   2 -11  -2  623.71   12.41
  -2  11  -2  608.62   14.12
  -2  12  -2  486.07   13.05
   2 -12  -2  514.08   11.64
  -2 -12   2  471.25   10.21
  -2 -12   2  499.79   13.07
   2 -12  -2  484.78   11.05
  -2 -13   2   21.12    3.92
   2 -13  -2    0.00    0.97
   2 -13  -2   26.17    3.56
  -2 -13   2   27.31    3.25
  -2 -14   2  194.09    7.15
  -2 -14   2  198.02    9.06
   2 -14  -2  191.86    8.03
  -2 -15   2   80.25    5.00
   2 -15  -2   75.78    5.70
  -2 -15   2   78.89    6.48
  -2 -16   2   34.26    4.80
   2 -16  -2   35.92    4.66
  -2 -16   2   40.93    4.06
   2 -17  -2    0.86    3.29
  -2 -17   2    0.54    3.84
  -2 -18   2   48.43    5.81
   2 -18  -2   41.67    5.28
   2 -19  -2   45.39    5.59
  -2 -19   2   36.07    5.47
  -2 -20   2    0.21    4.42
   2 -20  -2   -0.68    4.35
  -3 -20  -2   44.13    7.75
   3 -20   2   50.03    6.21
   3 -19   2   48.49    6.14
  -3 -19  -2   69.37    8.55
  -3 -18  -2  110.33    9.77
   3 -18   2  118.50    8.29
  -3 -17  -2   50.22    7.37
   3 -17   2   50.57    5.90
  -3 -16  -2  264.51   13.60
   3 -16   2  212.44   10.13
  -3 -15  -2   30.32    5.69
   3 -15   2   26.22    4.39
  -3 -14  -2   48.85    3.76
   3 -14   2   61.23    5.67
  -3 -14  -2   63.49    7.22
  -3 -13  -2   21.92    4.84
  -3 -13  -2   16.03    2.58
   3 -13   2   23.83    3.52
   3 -13   2   19.91    3.76
   3 -12   2    7.68    2.70
  -3  12   2   11.30    3.00
   3 -12   2    6.55    2.93
  -3 -12  -2    8.23    2.13
  -3 -12  -2   11.90    3.95
  -3 -11  -2   49.66    6.07
   3 -11   2   52.02    4.52
  -3 -11  -2   54.70    3.40
  -3  11   2   52.64    4.65
   3 -11   2   40.18    3.92
  -3 -10  -2   10.35    3.33
   3 -10   2    9.15    2.59
  -3 -10  -2   11.55    3.82
   3 -10   2   11.79    2.86
  -3  10   2    8.81    2.76
  -3 -10  -2    8.76    2.09
   3  -9   2  144.21    6.63
   3  -9   2  144.11    6.47
  -3   9   2  141.39    6.92
  -3  -9  -2  162.54    9.54
  -3  -9  -2  162.16    4.92
  -3  -9  -2  155.50    9.02
   3   9  -2  139.92    6.25
  -3  -8  -2  804.35   17.10
  -3  -8  -2  704.24   18.30
   3  -8   2  735.21   13.04
  -3   8   2  727.81   14.49
  -3  -8  -2  715.81    9.15
   3  -8   2  728.17   13.65
   3   8  -2  693.52   13.32
  -3  -7  -2  282.30   10.56
  -3  -7  -2  252.31   11.07
   3  -7   2  270.36    7.70
  -3   7   2  267.72    9.03
  -3  -7  -2  276.51    5.81
   3  -7   2  276.95    8.76
   3  -7   2  280.50    4.04
   3   7  -2  245.76    8.50
   3  -6   2   48.91    2.12
  -3  -6  -2   46.25    4.96
  -3  -6  -2   62.91    5.98
   3  -6   2   44.08    3.32
  -3  -6  -2   49.62    2.86
  -3   6   2   41.86    4.16
   3  -6   2   50.04    4.15
   3   6  -2   49.31    4.27
  -3  -5  -2  285.95    9.21
   3   5  -2  281.20    9.21
   3  -5   2  278.57    7.05
  -3   5   2  276.18    9.03
   3  -5   2  278.86    8.48
  -3  -5  -2  304.63    5.57
  -3  -5  -2  262.19   10.76
  -3  -4  -2 1234.47   17.63
  -3  -4  -2 1131.20   20.91
  -3   4   2 1193.03   17.85
   3   4  -2 1157.90   18.14
   3  -4   2 1195.93   13.33
   3  -4   2 1177.00   16.53
  -3  -4  -2 1233.60   10.65
  -3  -3  -2  168.92    7.04
  -3  -3  -2  170.91    8.45
  -3   3   2  181.39    7.45
   3  -3   2  173.81    5.14
   3  -3   2  188.23    6.98
   3   3  -2  169.31    7.48
  -3  -3  -2  174.28    4.66
   3  -2   2    2.88    1.26
   3   2  -2    2.97    2.20
  -3  -2  -2    1.98    2.27
  -3  -2  -2    2.05    2.49
   3  -2   2    3.26    1.94
  -3   2   2    3.64    1.84
  -3   2   2    1.13    2.24
  -3   1   2   81.43    4.34
  -3  -1  -2   79.94    4.92
  -3  -1  -2   78.69    5.71
  -3   1   2   80.89    5.23
   3  -1   2   80.52    3.36
   3  -1   2   74.47    4.57
   3   1  -2   78.35    5.39
   3   0   2    0.24    1.78
   3   0  -2    2.07    2.10
  -3   0  -2    0.87    2.05
  -3   0   2    0.97    1.52
  -3   0   2    2.02    2.48
   3   0   2    0.85    0.94
  -3   0  -2    0.27    1.83
  -3   1  -2   78.53    4.92
  -3   1  -2   73.29    5.19
  -3  -1   2   72.45    5.13
   3  -1  -2   71.71    5.17
   3   1   2   82.78    4.81
  -3  -1   2   75.83    4.13
   3  -2  -2    2.15    2.35
  -3   2  -2    2.41    2.01
  -3  -2   2    2.25    1.41
  -3   2  -2    1.19    1.78
  -3  -2   2    5.90    2.77
   3   2   2    2.23    1.79
   3  -2  -2    5.27    2.34
  -3  -3   2  110.48    2.22
  -3  -3   2  183.71    7.37
  -3  -3   2  165.65    5.68
   3   3   2  172.49    6.82
   3  -3  -2  179.00    6.18
  -3   3  -2  180.53    7.22
   3  -3  -2  171.07    7.46
  -3  -3   2  165.72    5.75
  -3   4  -2 1248.14   18.05
  -3  -4   2 1160.01   14.41
  -3  -4   2 1246.15   17.43
  -3  -4   2 1096.63   14.54
   3  -4  -2 1184.17   14.63
   3   4   2 1193.37   17.18
   3  -4  -2 1174.56   18.04
  -3  -5   2  284.58    8.73
  -3   5  -2  298.02    9.33
   3  -5  -2  276.98    7.52
   3  -5  -2  268.75    9.01
  -3  -5   2  260.26    7.75
   3   5   2  266.16    8.85
  -3  -5   2  280.83    7.45
  -3   6  -2   47.85    4.28
   3   6   2   44.72    4.34
  -3  -6   2   53.36    4.62
   3  -6  -2   47.79    4.50
  -3  -6   2   45.66    3.41
   3  -6  -2   51.48    2.09
   3  -6  -2   49.71    3.73
  -3  -6   2   49.19    3.97
  -3  -7   2  284.61    7.68
   3  -7  -2  285.18    4.61
  -3   7  -2  271.71    9.33
  -3  -7   2  241.79    8.23
   3   7   2  293.53   10.30
  -3  -7   2  263.91    8.48
   3  -7  -2  260.48    9.04
   3  -7  -2  282.32    7.97
  -3   8  -2  762.93   15.20
   3  -8  -2  803.38    8.02
  -3  -8   2  754.38   12.83
  -3  -8   2  684.73   13.86
   3  -8  -2  715.60   12.47
  -3  -8   2  730.03   12.25
   3  -8  -2  774.34   14.74
   3   8   2  794.69   17.56
  -3   9  -2  143.98    7.08
  -3  -9   2  153.21    7.29
   3  -9  -2  146.66    6.96
  -3  -9   2  153.60    6.27
   3   9   2  133.31    8.50
   3  -9  -2  152.37    6.36
  -3  -9   2  156.47    6.11
  -3  10  -2    9.72    3.03
   3 -10  -2   10.45    2.88
   3 -10  -2   13.61    2.99
  -3 -10   2   11.45    2.51
  -3 -10   2    8.57    2.27
  -3 -10   2    8.61    3.03
  -3  11  -2   56.79    5.12
   3 -11  -2   52.93    4.50
  -3 -11   2   48.14    4.94
   3 -11  -2   45.72    4.34
  -3 -11   2   48.21    3.86
  -3 -12   2   11.55    2.57
   3 -12  -2    9.61    2.75
  -3 -12   2    9.49    3.38
  -3  12  -2   10.60    3.30
   3 -12  -2    9.82    3.05
   3 -13  -2   16.44    3.34
  -3 -13   2   22.53    3.32
   3 -13  -2   18.49    3.52
  -3 -13   2   22.77    4.15
  -3 -14   2   58.92    5.75
  -3 -14   2   59.19    4.63
   3 -14  -2   57.38    5.09
  -3 -15   2   34.08    4.92
   3 -15  -2   29.44    4.40
  -3 -15   2   30.91    3.88
   3 -16  -2  239.09    9.87
  -3 -16   2  238.33   10.67
  -3 -16   2  223.21    8.71
   3 -17  -2   41.82    5.25
  -3 -17   2   45.13    4.77
  -3 -17   2   41.42    5.32
   3 -18  -2  106.23    7.56
  -3 -18   2  120.63    8.35
  -3 -18   2   81.35    5.75
   3 -19  -2   56.56    6.38
  -3 -19   2   54.89    6.54
  -3 -20   2   51.84    6.60
   3 -20  -2   43.46    6.16
   4 -20   2   34.98    5.62
  -4 -19  -2   48.09    7.29
   4 -19   2   46.47    6.28
  -4 -18  -2    3.75    4.76
   4 -18   2    2.59    3.76
   4 -17   2   -0.52    3.78
  -4 -17  -2   -1.16    4.34
  -4 -16  -2   88.68    8.65
   4 -16   2   82.59    7.00
  -4 -15  -2  103.70    9.02
   4 -15   2   92.65    7.06
   4 -14   2   57.20    5.66
  -4 -14  -2   68.78    7.48
   4 -13   2   14.87    3.37
   4 -13   2   18.81    3.73
  -4 -13  -2   21.79    5.15
  -4  13   2   19.74    3.73
   4 -12   2    0.94    2.71
  -4 -12  -2    0.42    3.73
  -4  12   2    0.59    2.89
   4 -12   2    1.90    2.58
  -4 -11  -2  531.63   17.40
   4 -11   2  478.92   12.54
  -4  11   2  463.35   13.03
   4 -11   2  479.71   12.25
  -4 -10  -2   26.19    3.81
  -4 -10  -2  184.44   10.57
   4 -10   2  187.96    7.81
  -4  10   2  173.05    8.23
   4 -10   2  179.25    7.62
   4   9  -2   65.98    4.71
  -4  -9  -2   57.70    6.39
  -4  -9  -2   62.92    5.61
   4  -9   2   60.16    4.59
  -4   9   2   64.71    5.29
   4  -9   2   58.94    4.77
  -4  -9  -2    0.01    0.55
  -4  -8  -2  197.85    8.81
  -4  -8  -2  177.99   10.20
   4  -8   2  186.30    7.61
   4  -8   2  191.93    7.12
  -4   8   2  196.23    8.50
  -4  -8  -2  201.28    4.52
   4   8  -2  211.90    7.91
  -4  -7  -2   58.16    5.20
   4  -7   2   63.72    4.23
  -4   7   2   59.68    5.03
   4  -7   2   57.40    4.56
  -4  -7  -2   62.34    2.51
  -4  -7  -2   53.65    6.07
   4   7  -2   62.30    4.77
   4   6  -2   16.96    3.19
  -4  -6  -2   16.50    3.66
   4  -6   2   20.05    2.60
  -4  -6  -2   14.25    3.97
  -4   6   2   16.52    3.24
   4  -6   2    3.23    0.56
  -4  -6  -2   20.84    1.59
   4  -6   2   19.29    3.33
   4   5  -2   -0.22    2.33
  -4  -5  -2    0.48    3.28
  -4  -5  -2    0.80    3.25
  -4   5   2    0.31    2.57
   4  -5   2    0.97    1.55
  -4   5   2    1.03    1.80
   4  -5   2   -0.06    2.46
  -4  -5  -2   -0.12    1.05
  -4  -4  -2  243.04    8.45
  -4  -4  -2  240.54   10.72
  -4  -4  -2  250.28    4.25
  -4   4   2  236.40    8.85
   4  -4   2  222.48    6.43
   4  -4   2  250.71    8.46
   4   4  -2  241.84    8.86
  -4   4   2  223.37    7.37
  -4   3   2  274.85    7.95
  -4  -3  -2  289.60    9.16
  -4  -3  -2  306.66    5.02
  -4  -3  -2  284.43   11.50
  -4   3   2  280.08    9.50
   4  -3   2  273.86    6.84
   4  -3   2  270.35    8.76
   4   3  -2  274.82    9.48
  -4   2   2  181.59    6.47
  -4  -2  -2  197.82    7.64
  -4  -2  -2  203.92    9.70
  -4   2   2  203.13    8.12
   4  -2   2  204.46    5.75
   4  -2   2  199.67    7.53
   4   2  -2  199.20    8.24
  -4  -1  -2  399.35   10.66
  -4  -1  -2  399.27   12.90
  -4   1   2  393.34   10.92
   4  -1   2  404.98   10.37
   4  -1   2  387.84    7.57
  -4   1   2  373.63    8.95
   4   1  -2  408.12   11.48
   4   0  -2    1.54    2.47
   4   0   2    1.86    1.92
  -4   0  -2    1.63    2.24
  -4   0   2    1.06    1.58
  -4   0  -2    0.27    2.39
  -4   0   2    1.07    2.56
  -4   1  -2  426.86   11.11
  -4   1  -2  378.33   12.05
   4   1   2  401.61   10.32
  -4  -1   2  414.57   11.08
   4  -1  -2  394.32    9.44
   4  -1  -2  409.53   11.54
  -4  -1   2  375.41    8.84
  -4   2  -2  202.33    8.84
  -4  -2   2  214.79    8.15
   4   2   2  205.54    7.61
   4  -2  -2  193.48    6.69
   4  -2  -2  209.66    8.47
  -4   2  -2  210.22    8.11
  -4  -2   2  197.07    6.55
  -4   3  -2  282.48    9.50
  -4  -3   2  311.45    5.82
  -4  -3   2  302.90    9.43
   4  -3  -2  283.83    7.86
   4  -3  -2  283.58    9.83
  -4  -3   2  274.64    7.66
   4   3   2  265.63    8.56
  -4   4  -2  233.94    8.76
  -4  -4   2  261.67    4.87
   4  -4  -2  247.51    9.14
  -4  -4   2  265.12    8.81
  -4  -4   2  240.20    7.26
   4   4   2  239.19    8.31
   4  -4  -2  241.90    7.29
   4  -5  -2   -0.83    2.67
  -4  -5   2   -0.17    1.63
  -4   5  -2    0.39    2.27
   4   5   2    0.16    2.19
  -4  -5   2    0.58    3.50
  -4  -5   2   -0.07    0.74
   4  -5  -2    0.91    2.08
  -4  -6   2   14.20    1.12
   4  -6  -2   16.18    3.47
   4   6   2   23.17    3.40
  -4  -6   2   24.03    2.85
  -4   6  -2   14.32    3.32
  -4  -6   2   20.51    3.67
  -4  -6   2   19.51    3.09
   4  -6  -2   20.76    3.01
  -4   7  -2   60.49    5.06
  -4  -7   2   63.32    4.25
  -4  -7   2   59.47    4.76
  -4  -7   2   58.20    4.64
   4  -7  -2   59.81    4.28
   4   7   2   55.52    4.77
   4  -7  -2   59.80    2.81
   4  -7  -2   57.91    5.15
  -4   8  -2  209.46    8.80
  -4  -8   2  205.69    7.45
   4  -8  -2  205.13    4.95
   4   8   2  197.73    8.71
   4  -8  -2  188.33    8.26
  -4  -8   2  178.38    7.69
   4  -8  -2  188.14    7.06
  -4  -8   2  191.22    6.96
  -4   9  -2   58.81    5.25
   4   9   2   69.04    5.99
  -4  -9   2   65.71    4.48
   4  -9  -2   65.36    5.28
  -4  -9   2   61.02    5.08
   4  -9  -2   68.65    4.77
  -4  -9   2   58.44    4.26
  -4  10  -2  188.37    8.65
   4 -10  -2  196.32    8.44
  -4 -10   2  170.18    8.06
   4 -10  -2  187.31    7.50
  -4 -10   2  200.74    7.41
   4 -11  -2  499.22   12.01
  -4 -11   2  484.75   13.43
  -4  11  -2  471.30   13.44
  -4 -11   2  492.65   11.52
   4 -11  -2  465.90   12.74
   4 -12  -2    0.81    2.52
  -4 -12   2    0.49    3.34
  -4 -12   2    0.74    2.25
  -4  12  -2    0.55    2.70
   4 -12  -2    0.78    2.84
   4 -13  -2   15.40    3.58
   4 -13  -2   20.78    3.81
  -4 -13   2   17.19    3.27
  -4  13  -2   17.14    3.96
  -4 -13   2   18.78    4.25
  -4 -14   2   65.65    6.14
   4 -14  -2   53.79    5.21
  -4 -14   2   58.41    4.97
  -4 -15   2   91.68    6.12
  -4 -15   2   94.51    7.31
   4 -15  -2   96.79    6.66
  -4 -16   2   79.28    6.94
   4 -16  -2   80.62    6.53
  -4 -16   2   74.39    5.88
  -4 -17   2    1.30    3.16
  -4 -17   2    1.33    4.00
   4 -17  -2    1.56    3.78
  -4 -18   2    7.65    4.38
  -4 -18   2    2.65    3.31
   4 -18  -2    9.62    4.04
  -4 -19   2   55.10    6.66
   4 -19  -2   48.01    6.23
  -4 -19   2   47.18    5.48
  -5 -19  -2   14.03    5.90
   5 -19   2   13.48    4.91
  -5 -18  -2   44.82    7.11
   5 -18   2   44.75    6.33
  -5 -17  -2   25.52    6.03
   5 -17   2   18.55    4.69
   5 -16   2   93.06    7.71
  -5 -16  -2   82.84    8.52
  -5 -15  -2  373.94   16.08
   5 -15   2  371.71   13.25
   5 -14   2    0.23    2.86
  -5 -14  -2    3.14    4.52
   5 -14   2    0.00    1.79
   5 -13   2   32.60    4.56
  -5 -13  -2   27.12    5.67
  -5  13   2   29.03    4.82
   5 -13   2   31.10    4.29
   5 -13   2   27.25    4.01
   5 -12   2   14.04    3.40
  -5  12   2   10.48    3.73
  -5 -12  -2   11.15    4.37
   5 -12   2   14.48    3.45
  -5 -11  -2   61.97    7.08
   5 -11   2   60.96    5.09
  -5  11   2   70.14    6.11
   5 -11   2   55.82    5.10
  -5 -10  -2   23.95    5.34
   5 -10   2   28.76    3.84
   5 -10   2   19.89    3.77
  -5  10   2   22.62    4.28
  -5   9   2  243.48    8.65
  -5  -9  -2  246.74    9.65
   5  -9   2  247.99    8.65
  -5   9   2  240.51   10.13
   5  -9   2  247.72    9.36
  -5  -9  -2  243.20   12.31
   5  -8   2  113.63    5.85
  -5  -8  -2  116.17    6.61
  -5  -8  -2  110.04    8.56
   5  -8   2  115.14    6.61
  -5   8   2  110.14    5.90
  -5   8   2  108.58    7.07
   5   8  -2  111.19    6.36
   5   7  -2   55.01    4.77
  -5  -7  -2   54.99    4.88
  -5   7   2   52.49    4.25
  -5  -7  -2   56.06    6.57
  -5   7   2   61.18    5.61
   5  -7   2   55.71    4.18
   5  -7   2   46.00    4.63
   5   6  -2   23.08    3.58
  -5  -6  -2   23.85    3.73
  -5  -6  -2   26.10    5.19
  -5   6   2   18.54    2.87
  -5   6   2   27.95    3.99
   5  -6   2   26.95    3.10
   5  -6   2   25.54    3.67
   5   5  -2    0.31    2.43
  -5  -5  -2    0.01    2.68
  -5  -5  -2    0.11    3.25
  -5   5   2    0.70    1.98
  -5   5   2    0.51    2.90
   5  -5   2    1.02    1.86
   5  -5   2   -0.11    2.63
  -5  -4  -2  307.11    9.96
  -5  -4  -2  288.33   12.58
   5  -4   2  323.51    8.16
  -5   4   2  301.98   10.54
   5  -4   2  305.73    9.88
   5   4  -2  311.47   10.52
  -5   4   2  290.20    8.49
  -5  -3  -2  653.38   14.12
  -5  -3  -2  647.75   18.11
  -5   3   2  647.69   14.95
   5  -3   2  680.04   14.24
   5   3  -2  645.69   14.89
   5  -3   2  645.49   11.04
  -5   3   2  605.18   11.82
   5   2  -2   16.97    3.61
  -5  -2  -2   20.67    3.68
  -5   2   2   17.49    2.60
  -5  -2  -2   16.48    4.09
  -5   2   2   20.37    3.66
   5  -2   2   16.66    2.32
  -5  -2  -2   14.86    1.26
   5  -2   2   18.89    3.05
  -5  -1  -2  111.18    7.76
  -5  -1  -2  113.27    6.41
  -5   1   2  100.42    6.36
   5  -1   2  105.13    6.02
   5   1  -2   99.59    5.60
   5   1  -2   98.73    6.47
  -5   1   2   98.85    5.05
   5   0   2    0.79    2.36
  -5   0  -2    0.07    2.52
  -5   0   2    1.47    1.70
  -5   0   2    0.10    2.36
  -5   0  -2    0.34    2.87
   5   0  -2    0.03    2.66
   5   0  -2    1.05    2.42
  -5   1  -2  108.08    7.44
   5   1   2  111.09    6.14
  -5   1  -2  124.40    6.78
  -5  -1   2  102.17    6.27
   5  -1  -2  120.91    5.68
   5  -1  -2  116.40    6.93
  -5  -1   2  104.39    5.17
   5  -2  -2   17.38    3.71
  -5  -2   2   18.22    2.43
  -5   2  -2   16.92    3.27
  -5  -2   2   21.33    3.79
  -5   2  -2   15.41    3.70
   5   2   2   16.28    3.22
  -5  -2   2   18.21    2.74
   5  -2  -2   19.83    3.09
  -5   3  -2  659.73   14.97
   5  -3  -2  667.23   15.33
  -5  -3   2  713.55   10.76
  -5   3  -2  656.76   16.66
   5   3   2  661.12   13.91
  -5  -3   2  653.23   14.24
   5  -3  -2  670.97   11.95
  -5  -3   2  647.48   12.11
   5  -4  -2  300.60    8.29
  -5   4  -2  303.88   10.60
  -5  -4   2  332.94    7.15
  -5  -4   2  322.89   10.18
   5  -4  -2  313.64   10.88
   5   4   2  308.60    9.82
  -5  -4   2  311.07    8.64
   5  -5  -2    1.28    2.91
   5  -5  -2    0.43    2.06
  -5  -5   2    0.00    1.92
  -5   5  -2    1.64    2.78
  -5  -5   2    0.00    0.81
   5   5   2    1.40    2.29
  -5  -5   2    1.97    2.75
   5  -6  -2   23.73    3.87
  -5   6  -2   29.89    4.14
  -5  -6   2   23.22    3.05
  -5  -6   2   25.61    3.75
   5  -6  -2   22.92    3.17
   5   6   2   29.82    3.75
   5  -7  -2   54.59    5.26
  -5   7  -2   51.63    5.18
  -5  -7   2   58.70    4.67
   5   7   2   53.84    4.80
  -5  -7   2   56.56    4.26
   5  -7  -2   58.92    4.39
  -5   8  -2  120.51    7.33
  -5  -8   2  119.46    6.12
   5  -8  -2  108.46    4.28
   5   8   2  113.74    6.89
  -5  -8   2  115.85    5.98
   5  -8  -2  118.88    7.29
   5  -8  -2  130.56    6.23
  -5   9  -2  256.52   10.46
  -5  -9   2  247.83    8.28
   5  -9  -2  248.31    8.60
  -5  -9   2  232.67    8.27
   5  -9  -2  232.80    9.85
   5 -10  -2   28.04    4.28
  -5  10  -2   22.33    4.24
   5 -10  -2   26.70    3.73
  -5 -10   2   30.68    3.78
  -5  11  -2   61.68    6.04
  -5 -11   2   59.38    4.85
   5 -11  -2   64.51    5.17
   5 -11  -2   61.64    5.76
   5 -12  -2   10.63    3.60
  -5 -12   2   17.24    3.37
  -5  12  -2   11.92    3.88
   5 -12  -2   15.80    3.55
   5 -13  -2   29.52    4.65
  -5  13  -2   34.78    4.95
  -5 -13   2   34.23    4.39
   5 -13  -2   27.89    4.16
   5 -14  -2    0.34    2.97
  -5 -14   2    2.60    2.60
   5 -14  -2    3.63    3.13
  -5 -15   2  372.49   11.98
   5 -15  -2  383.88   12.55
  -5 -16   2   81.16    6.32
   5 -16  -2  101.25    7.33
  -5 -17   2   20.69    4.36
   5 -17  -2   25.76    5.20
  -5 -18   2   42.22    5.57
   5 -18  -2   38.70    5.91
  -5 -19   2   13.59    4.33
  -6 -18  -2    4.52    5.91
   6 -18   2    2.43    4.67
   6 -17   2   16.17    4.01
  -6 -17  -2   14.59    5.50
  -6 -16  -2  100.52    9.51
   6 -16   2   98.51    7.86
   6 -15   2    6.75    3.86
  -6 -15  -2   10.35    4.65
   6 -14   2    0.83    3.21
   6 -14   2    0.34    3.27
  -6 -14  -2    0.05    4.56
   6 -13   2    2.70    3.35
  -6 -13  -2    1.98    4.26
   6 -13   2    0.99    3.07
  -6  13   2    1.51    3.62
   6 -12   2  102.20    7.12
   6 -12   2  122.99    7.46
  -6 -12  -2  118.81    9.64
  -6  12   2  118.76    8.34
  -6 -11  -2   14.54    4.95
  -6  11   2   19.86    4.69
   6 -11   2   22.46    3.84
   6 -11   2   17.18    4.09
  -6 -10  -2  246.19   12.96
   6 -10   2  244.05    9.28
  -6  10   2  237.14   10.82
   6 -10   2  243.31    9.98
  -6  -9  -2   13.18    2.95
   6  -9   2   31.59    3.77
  -6  -9  -2   28.13    5.55
   6  -9   2   32.99    4.47
  -6   9   2   31.38    5.10
   6   8  -2  433.58   12.73
  -6  -8  -2  415.76   12.26
   6  -8   2  428.94   12.76
  -6   8   2  427.98   13.87
   6  -8   2  448.43   11.40
  -6  -8  -2  452.12   17.04
  -6  -7  -2    2.09    2.65
  -6  -7  -2    3.24    4.18
  -6   7   2    1.69    1.90
   6  -7   2    3.88    3.20
  -6   7   2    1.14    3.22
   6  -7   2    2.52    2.13
   6   7  -2    4.50    2.74
  -6  -6  -2   44.26    4.56
  -6   6   2   44.50    5.40
   6  -6   2   48.75    4.94
  -6  -6  -2   39.49    6.10
   6  -6   2   43.52    3.88
   6   6  -2   50.56    5.13
  -6   6   2   41.53    3.76
   6   5  -2   29.93    4.17
  -6  -5  -2   21.24    3.84
  -6  -5  -2   22.60    5.30
  -6   5   2   30.93    4.74
   6  -5   2   26.40    3.18
  -6   5   2   25.04    3.10
   6  -5   2   26.50    4.23
  -6  -4  -2  523.53   13.40
  -6  -4  -2  484.37   17.19
   6   4  -2  505.69   14.09
  -6   4   2  497.00   14.27
   6  -4   2  497.12   10.80
   6  -4   2  512.21   13.42
  -6   4   2  497.68   10.99
  -6  -3  -2   64.95    5.44
  -6  -3  -2   59.61    6.93
  -6   3   2   64.71    5.86
   6  -3   2   69.93    4.37
   6  -3   2   59.67    5.29
   6   3  -2   65.45    5.76
  -6   3   2   68.26    4.49
  -6  -2  -2   87.79    6.22
  -6  -2  -2   72.79    7.24
   6  -2   2   86.19    4.68
  -6   2   2   84.64    6.45
   6  -2   2   87.88    6.03
   6   2  -2   78.54    5.34
   6   2  -2   90.33    6.54
  -6   2   2   85.15    4.87
   6   1  -2   12.04    3.53
  -6   1   2    8.36    2.26
  -6  -1  -2   12.54    3.35
  -6  -1  -2    6.65    3.76
  -6   1   2   11.41    3.59
   6  -1   2   12.79    3.37
   6   1  -2    9.97    3.21
  -6   0  -2  404.98   12.29
  -6   0  -2  394.52   14.82
  -6   0   2  424.12   12.73
  -6   0   2  395.55    9.89
   6   0  -2  427.81   10.19
   6   0   2  430.50   12.12
   6   0  -2  434.14   13.37
   6  -1  -2    9.75    3.64
  -6  -1   2   11.23    2.58
  -6   1  -2   11.04    3.38
   6   1   2    9.68    3.07
  -6  -1   2   10.66    3.40
  -6   1  -2    8.84    3.73
   6  -1  -2   11.84    2.77
   6  -2  -2   86.94    4.94
  -6   2  -2   91.62    6.52
  -6   2  -2   85.04    7.38
   6  -2  -2   89.85    6.71
  -6  -2   2   85.60    4.99
  -6  -2   2   90.22    6.34
   6   2   2   86.72    6.03
  -6  -2   2   86.93    5.22
  -6   3  -2   67.43    5.88
  -6  -3   2   66.90    4.35
  -6   3  -2   72.56    6.82
   6  -3  -2   64.06    4.34
   6  -3  -2   66.44    6.10
  -6  -3   2   62.49    5.52
  -6  -3   2   61.65    4.49
   6   3   2   67.56    5.37
  -6   4  -2  509.43   14.39
   6  -4  -2  497.79   10.90
  -6  -4   2  513.13   13.39
   6  -4  -2  514.36   14.73
   6   4   2  512.86   13.22
  -6  -4   2  497.85   11.40
   6  -5  -2   29.40    4.58
  -6  -5   2   33.87    4.28
   6  -5  -2   29.48    3.43
   6   5   2   27.71    4.05
  -6   5  -2   29.89    4.80
  -6  -5   2   27.46    3.45
  -6   6  -2   45.50    5.38
   6  -6  -2   44.09    3.98
  -6  -6   2   46.41    4.64
   6   6   2   51.15    4.94
  -6  -6   2   47.43    4.23
   6  -6  -2   45.71    5.06
   6  -7  -2    2.09    3.18
  -6  -7   2    1.71    2.42
   6   7   2    3.93    2.85
  -6   7  -2    1.11    3.12
  -6  -7   2    0.39    2.85
   6  -7  -2    2.87    2.53
  -6   8  -2  477.24   14.62
  -6  -8   2  449.11   11.99
   6  -8  -2    0.00    0.67
   6  -8  -2  462.58   11.58
   6   8   2  461.75   13.26
  -6  -8   2  443.39   11.57
   6  -8  -2  441.95   14.01
   6  -9  -2   31.66    5.14
  -6   9  -2   36.38    5.23
  -6  -9   2    0.00    1.29
   6  -9  -2   32.47    4.03
  -6  -9   2   31.61    4.08
  -6  10  -2  249.37   11.20
   6 -10  -2  236.55    8.99
  -6 -10   2  231.71    8.91
   6 -10  -2  222.30   10.61
   6 -11  -2   14.27    4.35
  -6 -11   2   19.42    3.64
   6 -11  -2   17.86    3.52
  -6  11  -2   20.14    4.46
  -6  12  -2  119.67    8.46
  -6 -12   2  113.41    6.91
   6 -12  -2  114.99    8.14
   6 -12  -2  116.33    7.05
   6 -13  -2    0.87    3.65
  -6 -13   2    1.69    3.17
  -6  13  -2    0.64    3.69
   6 -13  -2    0.93    3.01
  -6 -14   2    0.99    3.02
   6 -14  -2    2.33    3.32
   6 -14  -2    0.60    4.03
  -6 -15   2   10.44    3.86
   6 -15  -2   10.30    4.20
  -6 -16   2   83.75    6.71
   6 -16  -2   91.31    7.29
  -6 -17   2   14.44    4.32
   6 -17  -2   10.19    4.32
  -6 -18   2    6.40    4.23
   7 -16   2    3.11    4.21
  -7 -16  -2    3.00    5.58
  -7 -15  -2  308.56   15.44
   7 -15   2  311.02   12.95
  -7 -14  -2   26.25    6.40
   7 -14   2   17.21    4.51
   7 -14   2   20.93    4.46
  -7 -13  -2   86.10    8.97
   7 -13   2   75.69    6.50
  -7  13   2   76.41    7.69
   7 -13   2   67.34    6.59
  -7  12   2   -0.40    4.40
   7 -12   2    2.72    3.03
  -7 -12  -2    2.28    4.35
   7 -12   2    3.05    3.68
  -7 -11  -2   74.10    8.28
  -7  11   2   70.91    7.25
   7 -11   2   74.07    5.90
   7 -11   2   59.40    6.21
   7 -10   2   32.32    4.19
  -7 -10  -2   26.09    5.91
  -7  10   2   22.01    5.32
   7 -10   2   27.04    4.95
  -7  -9  -2   86.10    8.69
  -7   9   2   89.80    7.63
   7  -9   2   97.55    6.23
   7  -9   2   90.85    7.09
  -7  -8  -2   14.45    3.87
  -7   8   2   16.84    4.67
  -7  -8  -2   17.89    5.59
   7  -8   2   19.06    3.31
   7  -8   2   20.73    4.20
  -7  -7  -2   87.58    6.58
  -7  -7  -2   90.17    8.82
  -7   7   2   96.50    7.67
   7  -7   2   99.40    5.96
   7   7  -2  110.36    7.55
   7  -7   2  108.11    7.41
  -7  -6  -2    0.72    3.04
  -7  -6  -2    1.05    4.52
  -7   6   2   -1.65    3.42
   7  -6   2    1.51    3.11
   7   6  -2    0.26    3.30
   7  -6   2    1.20    2.52
   7   5  -2   11.68    4.08
  -7  -5  -2   15.77    3.79
  -7   5   2   14.26    2.78
  -7  -5  -2   12.26    4.52
  -7   5   2   15.27    4.16
   7  -5   2   13.94    3.02
   7  -5   2   13.03    4.15
   7   4  -2   15.78    4.19
   7  -4   2   17.26    3.05
  -7  -4  -2    8.00    4.64
  -7   4   2   18.06    3.01
  -7  -4  -2   17.06    3.67
  -7   4   2   16.40    4.12
   7  -4   2   21.55    4.35
  -7  -3  -2  338.48   11.94
  -7  -3  -2  358.06   15.72
  -7   3   2  352.51   12.97
   7  -3   2  376.10   12.50
   7   3  -2  377.90   13.24
   7  -3   2  369.71   10.02
  -7   3   2  364.49    9.75
  -7   2   2   51.13    5.73
  -7  -2  -2   43.42    6.57
   7  -2   2   47.16    5.20
  -7  -2  -2   45.98    5.11
   7   2  -2   49.85    4.38
   7   2  -2   49.38    5.81
  -7   2   2   46.07    3.95
   7   1  -2  167.77    9.26
  -7  -1  -2  164.77    8.70
  -7  -1  -2  144.21   10.34
  -7   1   2  176.28    9.34
   7   1  -2  176.39    6.89
   7  -1   2  170.93    8.54
  -7   1   2  163.57    6.75
   7   0  -2   -0.19    3.45
  -7   0   2    0.30    2.13
   7   0  -2   -0.56    2.37
  -7   0  -2    1.52    3.05
  -7   0   2    0.34    3.53
  -7   0  -2    0.33    3.95
   7   0   2    1.84    2.92
  -7   1  -2  163.44    8.93
  -7   1  -2  156.18   10.48
   7  -1  -2  164.56    9.31
   7   1   2  159.89    8.30
  -7  -1   2  169.53    9.12
   7  -1  -2  172.11    6.68
  -7  -1   2  163.94    6.98
  -7   2  -2   44.47    5.49
  -7   2  -2   52.74    6.76
  -7  -2   2   44.50    5.44
  -7  -2   2   50.65    4.28
   7  -2  -2   50.74    4.12
   7  -2  -2   48.00    5.76
  -7  -2   2    8.35    2.20
   7   2   2   51.57    5.22
  -7   3  -2  363.86   15.26
  -7  -3   2  374.80   12.59
   7   3   2  381.05   12.30
  -7  -3   2  367.31   10.30
   7  -3  -2  379.75   13.71
   7  -3  -2  367.36    9.59
  -7   3  -2  356.55   12.99
  -7   4  -2   17.55    4.42
  -7  -4   2   14.76    2.97
   7  -4  -2   19.93    4.39
  -7  -4   2   22.56    4.29
   7  -4  -2   16.74    2.98
  -7   4  -2   13.83    4.41
   7   4   2   16.10    3.64
   7  -5  -2   13.23    4.02
  -7  -5   2   15.53    3.15
  -7   5  -2   16.17    4.49
  -7  -5   2   19.06    4.16
   7   5   2   19.29    4.06
   7  -5  -2   13.78    2.90
  -7  -6   2    0.41    2.42
   7  -6  -2   -0.41    3.42
  -7   6  -2    0.42    3.45
  -7  -6   2    1.16    3.06
   7   6   2    2.17    2.97
   7  -6  -2    0.34    2.41
  -7   7  -2   97.10    7.76
  -7  -7   2   88.17    6.54
   7  -7  -2  103.75    5.92
   7   7   2   98.53    6.89
  -7  -7   2   96.35    6.01
   7  -7  -2   94.41    7.63
   7  -8  -2   21.01    5.28
   7  -8  -2   18.52    3.42
  -7  -8   2   18.22    3.57
  -7   8  -2   15.84    4.63
  -7  -8   2   15.85    3.84
  -7   9  -2   96.56    8.01
  -7  -9   2   95.35    6.35
   7  -9  -2   93.62    6.06
   7  -9  -2   87.30    7.63
   7 -10  -2   30.05    5.59
  -7 -10   2   26.17    4.32
  -7  10  -2   22.95    5.31
   7 -10  -2   28.71    4.14
  -7  11  -2   66.09    7.15
  -7 -11   2   65.83    5.91
   7 -11  -2   67.96    5.73
   7 -11  -2   66.45    7.19
   7 -12  -2    5.46    4.54
  -7 -12   2    1.67    3.35
  -7  12  -2    3.50    3.90
   7 -12  -2    2.13    3.17
  -7  13  -2   79.32    7.68
   7 -13  -2   70.05    7.48
   7 -13  -2   79.16    6.40
  -7 -13   2   76.08    6.47
  -7 -14   2   18.90    4.19
   7 -14  -2   23.61    4.59
   7 -14  -2   16.48    4.91
   7 -15  -2  317.60   12.48
  -7 -15   2  292.68   12.00
  -7 -16   2    3.92    4.03
   7 -16  -2    1.39    3.87
  -8 -15  -2   10.97    5.85
  -8 -14  -2    2.34    5.59
  -8  14   2    5.79    5.68
   8 -14   2   -2.25    3.87
   8 -14   2    2.02    5.54
   8 -13   2   15.37    4.19
  -8 -13  -2    5.42    5.36
  -8  13   2   16.94    5.56
   8 -13   2   15.56    5.01
   8 -12   2   14.82    3.88
  -8 -12  -2   12.81    5.43
  -8  12   2   11.34    4.91
   8 -12   2   12.69    4.98
   8 -11   2   87.20    7.61
  -8 -11  -2  132.55   10.94
  -8  11   2  109.43    9.27
   8 -11   2  110.46    7.38
  -8 -10  -2   70.69    8.59
  -8  10   2   75.53    7.96
   8 -10   2   69.76    5.89
   8 -10   2   66.74    6.87
   8  -9   2   -0.63    2.85
  -8  -9  -2    8.43    4.87
  -8   9   2   -2.89    4.64
   8  -9   2   -2.82    3.98
  -8  -8  -2  214.03   13.47
  -8   8   2  228.84   11.95
   8  -8   2  221.49    9.16
   8  -8   2  217.10   10.88
  -8  -7  -2   42.69    5.48
  -8   7   2   51.08    6.67
  -8  -7  -2   41.95    7.13
   8   7  -2   55.13    6.24
   8  -7   2   52.60    4.96
   8  -7   2   46.80    5.90
  -8  -6  -2  111.12    7.70
  -8  -6  -2  113.62   10.13
  -8   6   2  136.52    9.44
   8  -6   2  120.93    6.81
   8  -6   2  112.03    8.13
   8   6  -2  134.37    9.07
  -8  -5  -2   27.26    4.54
  -8  -5  -2   25.45    6.02
  -8   5   2   36.99    5.90
   8  -5   2   28.55    3.90
   8   5  -2   31.29    5.56
   8  -5   2   25.47    4.80
  -8  -4  -2  135.83    8.38
  -8  -4  -2  136.69   11.06
  -8   4   2  131.75    9.10
   8  -4   2  140.39    7.08
   8  -4   2  141.02    8.71
  -8   4   2  143.74    6.53
   8   4  -2  153.62    9.55
   8   3  -2   22.77    4.91
  -8   3   2   16.50    3.09
  -8  -3  -2   12.58    4.05
  -8  -3  -2   12.39    4.84
  -8   3   2   13.21    4.88
   8  -3   2   17.68    3.26
   8  -3   2   17.69    4.10
   8   2  -2    4.83    4.05
  -8   2   2    6.64    2.62
  -8  -2  -2    8.79    3.86
  -8   2   2    5.34    4.06
  -8  -2  -2    8.29    4.86
   8  -2   2    5.62    3.68
  -8  -1  -2   94.84    7.52
  -8   1   2   94.00    5.68
  -8  -1  -2   85.59    9.00
  -8   1   2  105.84    8.05
   8  -1   2  102.51    7.54
   8   1  -2   97.73    8.13
  -8   0  -2   65.80    6.71
  -8   0  -2   52.42    7.50
  -8   0   2   57.21    6.35
   8   0  -2   74.59    7.22
   8   0   2   55.73    5.91
  -8   0   2   66.74    4.98
  -8   1  -2   97.68    7.73
  -8   1  -2   96.42    9.31
  -8  -1   2  106.21    6.10
  -8  -1   2  102.76    7.86
   8   1   2  103.39    7.47
   8  -1  -2  111.54    8.40
   8  -2  -2    5.49    4.35
  -8  -2   2    8.31    2.87
  -8   2  -2    8.45    4.34
  -8  -2   2    3.44    3.78
  -8   2  -2    2.87    4.50
   8   2   2   11.07    4.15
   8  -3  -2   10.64    4.81
  -8  -3   2   21.99    3.62
  -8   3  -2   12.26    4.12
  -8  -3   2   18.81    4.62
  -8   3  -2   13.95    5.23
   8   3   2   14.67    4.29
  -8   4  -2  139.26    9.23
  -8   4  -2  133.06   10.45
  -8  -4   2  131.26    8.43
   8   4   2  148.35    8.69
   8  -4  -2  145.40    6.65
  -8  -4   2  136.36    7.11
   8  -4  -2  144.47    9.73
   8  -5  -2   37.36    5.98
   8  -5  -2   31.29    3.87
  -8   5  -2   32.57    5.59
  -8  -5   2   30.11    5.10
  -8   5  -2   31.42    5.94
  -8  -5   2   36.53    4.41
   8   5   2   30.09    4.94
  -8   6  -2  144.15    9.80
  -8  -6   2  137.54    8.38
   8   6   2  131.55    8.32
   8  -6  -2  131.34    6.65
  -8  -6   2  131.52    7.23
   8  -6  -2  134.31    9.52
   8   7   2   43.67    5.57
  -8   7  -2   55.41    6.88
   8  -7  -2   57.22    7.00
  -8  -7   2   51.35    5.59
   8  -7  -2   51.79    4.82
  -8  -7   2   61.15    5.30
  -8   8  -2  229.87   12.12
   8  -8  -2  234.65    9.04
   8  -8  -2  219.16   11.91
  -8  -8   2  221.87    9.50
   8  -9  -2    0.21    4.82
  -8  -9   2   -0.39    3.12
  -8   9  -2   -1.28    4.33
   8  -9  -2    0.20    2.90
  -8  10  -2   67.28    7.64
  -8 -10   2   65.87    5.93
   8 -10  -2   69.98    7.33
   8 -10  -2   69.72    5.78
  -8  11  -2  102.13    8.63
  -8 -11   2  125.90    7.88
   8 -11  -2   86.58    8.61
   8 -11  -2  113.31    7.27
   8 -12  -2   18.88    4.30
  -8 -12   2   11.95    4.17
  -8  12  -2   12.82    4.80
   8 -12  -2    9.33    4.70
  -8 -13   2   11.98    4.54
  -8  13  -2   24.80    5.60
   8 -13  -2   12.29    4.23
   8 -13  -2   12.12    5.49
  -8 -14   2    1.74    4.12
   8 -14  -2    1.10    3.87
   8 -14  -2    0.48    5.49
   8 -15  -2   16.97    4.86
   9 -14   2   18.79    5.93
  -9 -13  -2   93.24   10.21
  -9  13   2   89.14    9.58
   9 -13   2   83.11    8.70
  -9 -12  -2    2.33    6.00
  -9  12   2    2.92    6.28
   9 -12   2    1.20    5.33
   9 -12   2   -0.81    3.63
   9 -11   2   62.32    7.32
   9 -11   2   68.16    6.52
  -9 -11  -2   54.69    8.16
  -9  11   2   59.36    7.95
   9 -10   2   -0.56    3.33
  -9 -10  -2    2.34    5.68
  -9  10   2    2.14    5.22
   9 -10   2    1.93    4.48
   9  -9   2    5.02    4.75
  -9  -9  -2    6.14    5.16
   9  -9   2    3.99    3.03
  -9   9   2    5.38    5.09
  -9  -8  -2  135.11   11.66
  -9   8   2  146.36   10.74
   9  -8   2  141.08    8.17
   9  -8   2  133.55    9.71
  -9  -7  -2    0.44    3.62
  -9  -7  -2   -1.58    5.11
  -9   7   2   -4.49    4.83
   9  -7   2   -0.11    3.91
   9  -7   2    0.85    2.85
   9   6  -2   11.24    4.82
   9  -6   2    9.49    3.35
  -9  -6  -2    5.90    4.37
  -9  -6  -2    6.60    5.45
  -9   6   2    6.84    4.95
   9  -6   2   11.91    4.85
  -9  -5  -2    1.79    4.13
  -9  -5  -2   -0.22    5.57
  -9   5   2    0.53    5.17
   9  -5   2    0.93    2.60
   9   5  -2   -0.17    4.27
   9  -5   2    2.60    4.32
  -9  -4  -2  222.46   11.20
  -9  -4  -2  206.81   14.07
   9   4  -2  235.26   12.45
  -9   4   2  230.34   12.38
   9  -4   2  216.27   11.31
   9  -4   2  225.47    9.41
   9   3  -2   44.32    6.62
  -9  -3  -2   40.69    5.87
  -9  -3  -2   44.04    7.64
  -9   3   2   39.59    6.65
   9  -3   2   47.88    6.43
   9  -3   2   45.94    4.85
   9   2  -2    7.85    5.17
  -9   2   2    5.56    2.62
  -9  -2  -2    6.45    4.11
  -9   2   2    8.85    4.70
  -9  -2  -2   10.81    5.12
   9  -2   2    5.29    4.44
  -9  -1  -2  175.21   10.47
  -9  -1  -2  177.46   12.93
  -9   1   2  178.82   10.86
   9  -1   2  174.88   10.10
  -9   1   2  185.89    8.01
   9   1  -2  183.68   11.36
   9   0  -2    1.08    4.14
  -9   0   2    0.38    2.56
  -9   0  -2    0.10    4.43
  -9   0   2    1.69    4.27
  -9   0  -2    1.63    4.97
   9   0   2    2.76    4.33
  -9   1  -2  167.86   10.35
  -9   1  -2  171.87   12.76
  -9  -1   2  178.60   10.72
   9   1   2  156.17    9.62
  -9  -1   2  184.28    8.18
   9  -1  -2  190.37   11.65
   9  -2  -2    2.89    4.66
  -9  -2   2    7.95    3.12
  -9   2  -2    5.85    4.84
  -9  -2   2    6.20    4.60
  -9   2  -2    6.92    5.52
   9   2   2    9.71    4.14
   9  -3  -2   35.24    6.65
  -9   3  -2   34.10    6.36
  -9  -3   2   38.98    5.87
  -9   3  -2   33.88    6.86
   9   3   2   46.65    6.29
  -9  -3   2   48.66    4.91
  -9   4  -2  222.67   12.25
  -9   4  -2  242.41   14.76
  -9  -4   2  222.67   11.40
   9   4   2  238.52   11.58
  -9  -4   2  232.79    9.49
   9  -4  -2  229.41   12.86
   9  -5  -2   29.82    6.41
  -9  -5   2    0.44    2.78
  -9   5  -2   -2.63    5.07
  -9  -5   2   -0.27    3.80
  -9   5  -2   -0.65    5.03
   9   5   2    0.14    4.26
   9  -6  -2    6.00    5.02
  -9  -6   2    8.76    3.45
  -9   6  -2    7.46    5.31
  -9  -6   2    8.56    4.23
  -9   6  -2    3.68    5.13
   9   6   2    7.29    4.14
  -9  -7   2    1.21    3.30
   9  -7  -2    7.74    5.40
  -9   7  -2   -0.37    4.50
  -9  -7   2   -1.12    3.06
  -9   8  -2  156.73   11.29
  -9  -8   2  142.34    8.41
   9  -8  -2  144.75   10.61
  -9  -9   2    4.68    3.77
  -9   9  -2    1.40    4.84
   9  -9  -2    7.74    5.75
  -9 -10   2   -0.14    3.17
  -9  10  -2    2.13    4.64
   9 -10  -2   -1.25    5.14
  -9  11  -2   55.54    7.85
  -9 -11   2   61.12    6.48
   9 -11  -2   59.35    8.35
  -9 -12   2    1.49    3.84
  -9  12  -2   -2.57    5.71
   9 -12  -2   -1.05    3.91
   9 -12  -2    1.10    5.70
  -9  13  -2  101.72    9.89
   9 -13  -2   88.89    7.40
   9 -13  -2   72.00    8.99
 -10  -9  -2   19.46    6.97
  10  -9   2    9.87    4.07
 -10   9   2   14.98    6.51
  10  -9   2   14.65    5.75
 -10  -8  -2   22.39    7.01
 -10   8   2   27.72    6.79
  10  -8   2   25.85    4.73
  10  -8   2   26.21    6.47
 -10  -7  -2   11.82    6.31
 -10   7   2    8.21    6.22
  10  -7   2   11.09    3.99
  10  -7   2   13.15    5.53
  10  -6   2  135.46   10.51
 -10  -6  -2  117.46    8.98
 -10  -6  -2  131.06   12.04
 -10   6   2  131.46   11.16
  10  -6   2  133.73    8.21
 -10  -5  -2    0.73    4.69
 -10  -5  -2   -1.42    6.07
 -10   5   2    1.13    4.86
  10  -5   2    1.22    3.23
  10  -5   2    0.23    4.73
  10   5  -2   -3.24    5.78
  10  -4   2    7.01    3.57
 -10  -4  -2    4.69    4.88
 -10  -4  -2    5.19    6.18
 -10   4   2    7.27    5.59
  10  -4   2    8.80    4.59
  10   4  -2   10.23    5.33
  10  -3   2   51.42    5.52
 -10  -3  -2   63.68    7.18
 -10  -3  -2   55.44    9.24
 -10   3   2   40.72    6.89
  10  -3   2   54.22    7.12
  10   3  -2   52.22    7.58
 -10  -2  -2   -0.18    4.04
 -10   2   2    0.19    5.28
 -10  -2  -2    1.72    5.36
  10  -2   2    0.08    3.31
  10  -2   2    0.39    5.19
  10   2  -2    2.33    5.41
 -10  -1  -2   71.68    8.02
 -10   1   2   92.32    9.03
 -10  -1  -2   71.28   10.03
  10  -1   2   69.83    7.89
  10   1  -2   75.49    8.64
 -10   0  -2   38.47    6.96
 -10   0   2   54.50    7.34
 -10   0  -2   33.25    7.66
  10   0   2   39.53    6.35
  10   0  -2   40.74    7.13
 -10   1  -2   66.00    7.76
 -10   1  -2   71.09    9.63
 -10  -1   2   79.74    5.99
 -10  -1   2   72.56    8.19
  10   1   2   76.95    7.43
  10  -1  -2   80.65    9.17
  10   2   2    1.63    3.89
 -10  -2   2    0.84    3.06
 -10   2  -2   -2.48    5.22
 -10  -2   2   -0.70    5.11
 -10   2  -2   -0.02    6.17
  10  -2  -2   -0.04    5.47
 -10   3  -2   53.84    7.52
 -10  -3   2   44.84    6.57
 -10   3  -2   46.63    8.31
 -10  -3   2   60.38    5.57
  10  -3  -2   56.96    7.80
  10   3   2   49.59    6.65
 -10  -4   2    8.75    3.41
 -10   4  -2    9.14    5.15
 -10  -4   2    6.87    4.76
 -10   4  -2    3.55    6.14
  10   4   2    8.04    4.88
  10  -4  -2    7.17    5.58
 -10  -5   2    2.15    3.34
 -10   5  -2    4.94    4.96
 -10  -5   2    0.35    4.72
 -10   5  -2   -0.54    5.87
  10   5   2   -0.77    4.80
  10  -5  -2   -1.59    5.12
 -10   6  -2  135.43   11.00
 -10   6  -2  121.77   12.14
 -10  -6   2  131.53    9.68
  10  -6  -2  127.67   11.16
 -10  -6   2  137.44    8.27
 -10  -7   2   10.45    3.93
 -10   7  -2   11.71    6.28
 -10   7  -2   14.21    6.60
  10  -7  -2    8.31    5.63
 -10  -8   2   20.58    4.53
 -10   8  -2   24.69    6.51
 -10   8  -2   24.59    7.00
  10  -8  -2   28.57    7.22
 -10  -9   2   18.93    4.48
 -10   9  -2   12.07    6.28
  10  -9  -2   13.79    6.55
 -11  -5  -2   28.97    6.19
 -11  -4  -2   70.05    8.81
  11   4  -2   62.43    9.04
 -11  -3  -2    6.37    6.06
 -11  -3  -2    2.78    7.39
  11   3  -2   10.00    7.02
  11  -2   2   11.93    4.19
 -11  -2  -2    7.87    5.54
 -11   2   2   11.33    6.62
 -11  -2  -2    9.38    7.34
  11  -2   2   10.50    6.08
  11   2  -2    7.67    6.09
 -11  -1  -2   53.10    7.44
 -11   1   2   57.97    8.71
 -11  -1  -2   47.10    9.13
  11  -1   2   52.63    7.42
  11   1  -2   50.92    8.50
 -11   0  -2    0.22    5.85
 -11   0   2   -0.35    6.25
 -11   0  -2    3.43    7.46
  11   0   2    2.20    5.68
  11   0  -2    1.17    6.53
  11  -1  -2   60.36    8.92
 -11   1  -2   48.31    7.36
 -11  -1   2   55.71    8.32
 -11   1  -2   48.07    9.55
  11   1   2   46.43    7.33
 -11   2  -2    9.19    6.07
 -11  -2   2    8.03    5.97
 -11   2  -2    8.60    7.11
  11   2   2    8.44    5.15
  11  -2  -2   10.43    6.88
 -11  -3   2    3.90    4.08
 -11  -3   2    2.82    5.87
  11   3   2    3.11    5.46
 -11  -4   2   52.88    8.38
  11   4   2   81.32    8.69
 -11  -4   2   67.59    6.29
 -11  -5   2   39.54    5.57
 -11  -5   2   30.79    7.14
   0   0  -3  145.91    5.84
   0   0   3  139.14    8.77
   0   0   3  142.69    4.72
   0   0  -3  152.13    9.70
   0  -1  -3   -0.21    3.82
   0   1  -3   -0.66    3.67
   0  -1  -3    0.05    1.65
   0   1  -3    0.14    1.28
   0   1   3    0.33    1.05
   0  -1   3    0.40    1.33
   0   1   3    0.41    3.59
   0  -1   3   -1.04    3.39
   0  -2  -3   36.65    3.73
   0   2  -3   38.27    2.85
   0  -2  -3   41.59    5.89
   0   2  -3   36.47    5.55
   0  -2   3   42.28    5.52
   0   2   3   44.27    5.69
   0   2   3   45.71    2.44
   0  -2   3   37.29    3.02
   0  -3  -3    0.24    3.89
   0   3  -3    0.51    3.67
   0   3   3    0.16    0.74
   0  -3  -3   -1.13    1.88
   0   3  -3   -0.31    1.18
   0  -3   3   -0.01    1.47
   0   3   3    1.06    3.49
   0  -3   3    0.19    3.19
   0   4  -3   53.09    6.41
   0  -4   3   50.70    3.86
   0  -4  -3   45.50    4.47
   0   4  -3   46.60    2.80
   0   4   3   42.27    5.85
   0  -4   3   48.76    5.85
   0  -4  -3   48.08    4.35
   0  -4   3   43.93    3.48
   0  -4  -3   48.26    6.65
   0  -5  -3   -1.84    4.78
   0   5  -3    0.33    3.48
   0  -5  -3    0.11    2.24
   0   5  -3    1.36    1.12
   0  -5   3    1.21    3.03
   0  -5   3   -1.35    1.78
   0   5   3    0.35    3.28
   0  -5   3   -0.79    4.14
   0  -5  -3    0.59    2.93
   0   6  -3 2161.10   32.75
   0  -6  -3 1988.13   27.64
   0   6   3 2047.66   31.23
   0  -6  -3 2072.11   20.96
   0  -6   3 2257.43   29.87
   0  -6   3 2068.64   21.86
   0  -6  -3 2589.07   34.34
   0  -6   3 2172.33   20.04
   0  -7  -3   -0.65    4.16
   0   7  -3    0.43    3.78
   0  -7  -3    2.07    2.56
   0  -7   3    0.75    2.12
   0  -7   3    0.04    2.07
   0   7   3    1.81    3.21
   0  -7   3   -0.12    3.65
   0  -7  -3   -0.18    2.60
   0   8  -3  260.69   12.30
   0  -8  -3  262.54   11.32
   0  -8  -3  263.01   11.58
   0   8   3  223.14   10.61
   0  -8   3  259.07   10.86
   0  -8  -3  258.30    8.10
   0  -8   3  264.08    8.81
   0  -8   3  266.11    7.38
   0  -9  -3    0.70    3.44
   0   9  -3   -1.27    3.68
   0  -9  -3   -0.56    3.19
   0  -9   3    1.82    1.61
   0  -9   3    0.14    2.46
   0   9   3    0.40    2.95
   0  -9   3   -0.14    3.11
   0  -9  -3    2.82    2.57
   0 -10  -3    1.48    3.09
   0  10  -3   -0.70    3.58
   0 -10  -3    1.48    3.42
   0 -10   3    0.51    1.67
   0 -10   3    0.29    2.42
   0  10   3    0.35    2.84
   0 -10  -3   -0.33    2.60
   0 -10   3   -2.01    2.88
   0 -11  -3   -0.06    2.86
   0  11  -3   -0.12    3.90
   0 -11  -3   -2.56    3.40
   0 -11   3    0.16    1.80
   0 -11   3   -1.86    3.12
   0 -11   3   -0.28    2.57
   0  11   3   -4.12    2.78
   0 -11  -3   -0.28    2.44
   0 -12  -3    6.88    2.01
   0 -12  -3   77.02    7.95
   0 -12   3   86.64    6.09
   0 -12  -3   93.42    5.71
   0 -12   3   85.51    4.59
   0 -13  -3    0.76    4.22
   0 -13   3    0.60    3.17
   0 -13  -3    0.29    2.57
   0 -14  -3   13.45    4.87
   0 -14   3   15.33    3.89
   0 -14  -3   16.18    3.56
   0 -15  -3   -2.38    4.91
   0 -15   3   -0.38    3.40
   0 -15  -3    0.35    3.06
   0 -16   3   16.19    4.30
   0 -16  -3   21.89    6.08
   0 -16  -3   13.85    3.92
   0 -17  -3   -0.76    3.49
   0 -17   3   -0.09    3.81
   0 -17  -3    3.53    5.60
   0 -18  -3  338.02   12.18
   0 -18   3  356.00   13.24
   0 -18  -3  327.06   17.76
   0 -19   3   -0.04    4.01
   0 -19  -3    1.31    3.79
   0 -19  -3    3.50    6.44
   0 -20  -3  120.73    8.51
   1 -19   3   25.06    5.43
  -1 -19  -3   21.23    6.80
  -1 -19  -3   19.53    4.41
  -1 -18  -3    1.69    6.07
   1 -18   3    2.23    4.20
  -1 -18  -3    0.01    3.29
  -1 -17  -3   30.10    6.67
   1 -17   3   40.20    5.52
  -1 -17  -3   33.85    4.78
  -1 -16  -3    0.50    3.32
  -1 -16  -3    2.20    4.53
   1 -16   3   -1.43    3.13
  -1 -15  -3   33.39    6.40
   1 -15   3   39.08    5.08
  -1 -15  -3   28.50    4.05
  -1 -14  -3   36.99    6.57
  -1 -14  -3   42.68    4.43
   1 -14   3   35.59    4.82
  -1 -13  -3  657.85   20.93
  -1 -13  -3  681.28   13.75
   1 -13   3  665.20   15.81
  -1 -12  -3    6.67    4.17
  -1 -12  -3   13.76    3.09
   1 -12   3   14.16    3.54
   1 -12   3   10.45    3.66
  -1 -11  -3  232.94   12.23
   1 -11   3  220.06    9.98
  -1  11   3  215.14    9.59
  -1 -11  -3  230.30    7.95
   1 -11   3  246.06    9.43
  -1 -11  -3  239.96   10.06
  -1 -10  -3   85.84    7.68
   1 -10   3   77.81    6.34
  -1  10   3   73.25    6.21
  -1 -10  -3   90.89    5.17
   1 -10   3   92.04    4.19
   1 -10   3   83.47    5.73
  -1 -10  -3  112.35    7.62
   1  10  -3   91.54    7.52
  -1  -9  -3   80.29    7.18
  -1   9   3   68.94    5.90
   1  -9   3   74.54    5.20
   1  -9   3   78.79    6.37
  -1  -9  -3   83.06    4.91
   1  -9   3   84.94    4.14
  -1  -9  -3   83.56    7.08
   1   9  -3   72.69    7.09
  -1  -8  -3   11.68    4.70
   1   8  -3   10.80    4.10
  -1  -8  -3    6.87    3.27
   1  -8   3   13.25    2.55
  -1   8   3    9.26    3.36
   1  -8   3   11.85    2.82
   1  -8   3   11.05    3.61
  -1  -8  -3   15.26    2.94
   1  -7   3   26.65    3.24
  -1   7   3   23.08    4.24
   1   7  -3   23.52    4.75
  -1  -7  -3   24.86    5.74
  -1  -7  -3   28.93    4.51
  -1  -7  -3   24.99    3.31
   1  -7   3   21.51    4.35
   1  -7   3   26.82    2.97
   1   6  -3    2.56    3.52
  -1  -6  -3    5.10    4.82
  -1  -6  -3    2.57    2.80
   1  -6   3    7.75    2.45
  -1   6   3    2.04    3.20
   1  -6   3    1.41    3.44
   1  -6   3    2.23    1.99
  -1  -6  -3    2.87    2.63
   1  -5   3   36.56    3.54
   1  -5   3   36.40    5.10
   1   5  -3   37.31    5.63
  -1  -5  -3   38.52    6.90
   1  -5   3   33.34    3.18
  -1  -5  -3   27.73    4.03
  -1   5   3   25.17    4.79
  -1  -5  -3   34.19    3.89
   1  -4   3   -0.20    1.59
   1   4  -3    0.63    3.69
  -1  -4  -3   -0.58    4.09
  -1  -4  -3    0.44    2.01
  -1   4   3   -0.30    3.40
   1  -4   3   -0.38    3.04
  -1  -4  -3   -0.12    2.78
   1  -3   3    1.30    1.48
  -1   3   3    1.05    3.28
   1   3  -3    0.59    3.82
  -1  -3  -3   -0.01    4.21
  -1  -3  -3   -0.06    2.07
   1  -3   3    2.08    2.90
  -1  -2  -3  165.00    9.80
   1  -2   3  181.86    5.61
  -1  -2  -3  172.42    7.61
   1   2  -3  166.31    4.31
  -1   2   3  193.95   10.23
  -1   2   3  162.40    3.93
   1  -2   3  169.43    8.91
   1   2  -3  190.76   10.75
  -1  -1  -3  949.31   21.56
  -1  -1  -3 1023.53   16.89
   1  -1   3 1020.64   11.91
   1  -1   3 1000.05   20.31
  -1   1   3 1141.37   22.97
   1   1  -3 1024.04   11.80
  -1   1   3 1022.34   10.71
   1   1  -3 1160.29   24.64
  -1   0   3    0.90    1.48
   1   0  -3   -2.03    4.15
   1   0   3    0.74    1.06
  -1   0  -3    0.52    3.25
   1   0  -3    1.96    1.31
  -1   0  -3   -0.24    2.01
  -1   0   3   -0.27    3.52
   1   0   3   -1.07    2.80
  -1   1  -3 1011.68   21.79
   1  -1  -3  968.64   14.24
  -1   1  -3 1030.73   15.64
   1   1   3  995.65   10.41
  -1  -1   3 1139.52   22.69
   1   1   3  966.77   20.75
  -1  -1   3 1092.38   13.12
   1  -1  -3 1112.70   23.90
  -1   2  -3  156.60    9.18
   1  -2  -3  177.80    6.87
  -1   2  -3  175.92    6.55
   1   2   3  177.72    4.24
  -1  -2   3  207.05   10.32
   1   2   3  191.16   10.04
  -1  -2   3  192.17    6.06
   1  -2  -3  188.23   10.60
   1  -3  -3    0.81    3.96
  -1  -3   3    1.50    3.61
  -1   3  -3    1.65    3.10
  -1  -3   3    0.51    1.70
   1  -3  -3    0.09    1.73
   1   3   3    1.26    0.82
  -1   3  -3    0.79    1.71
  -1  -3   3    0.66    1.97
   1   3   3    0.11    3.58
   1  -3  -3    4.81    3.31
   1  -4  -3   -0.72    4.15
  -1   4  -3    0.54    3.18
   1  -4  -3    1.16    2.02
  -1  -4   3   -0.31    1.86
   1   4   3   -0.01    0.67
   1  -4  -3   -0.24    2.93
  -1   4  -3    0.88    1.53
  -1  -4   3    1.85    2.03
  -1  -4   3    0.29    3.63
   1   4   3   -0.26    3.67
   1  -5  -3   33.57    4.00
   1  -5  -3   35.32    5.78
  -1   5  -3   36.55    3.10
  -1   5  -3   31.01    4.85
   1  -5  -3   30.47    3.87
  -1  -5   3   30.86    5.78
   1   5   3   39.01    5.82
  -1  -5   3   35.62    3.51
  -1  -5   3   34.09    3.63
   1  -6  -3    3.98    4.14
  -1   6  -3    1.00    3.26
   1  -6  -3    4.24    2.50
  -1  -6   3    2.66    2.09
  -1  -6   3    3.83    2.16
  -1   6  -3    2.46    1.45
  -1  -6   3    0.55    3.91
   1   6   3    2.43    3.52
   1  -6  -3    3.88    2.92
   1  -7  -3   25.56    4.88
  -1   7  -3   20.45    4.76
   1  -7  -3   18.11    3.66
   1  -7  -3   28.95    3.65
  -1  -7   3   29.31    5.02
   1   7   3   22.16    4.92
  -1  -7   3   22.94    3.19
  -1  -7   3   28.67    3.15
   1  -8  -3   14.84    3.95
  -1   8  -3    9.44    4.05
   1  -8  -3    5.40    3.07
  -1  -8   3   13.96    2.97
  -1  -8   3   12.44    2.42
   1   8   3    7.60    3.38
  -1  -8   3   17.11    4.26
   1  -8  -3    9.09    2.78
   1  -9  -3   82.92    7.22
  -1   9  -3   81.03    7.23
   1  -9  -3   82.76    6.48
   1   9   3   64.92    6.50
  -1  -9   3   88.05    6.46
  -1  -9   3   85.36    5.64
   1  -9  -3   75.25    5.04
  -1  -9   3   83.66    4.66
   1 -10  -3   88.61    7.67
  -1  10  -3   84.49    7.69
   1  10   3   61.25    6.25
   1 -10  -3   89.08    5.56
  -1 -10   3   85.05    6.17
  -1 -10   3   99.96    6.16
  -1 -10   3   82.45    4.72
   1 -10  -3   96.27    6.73
   1 -11  -3  190.79   11.33
  -1  11  -3  216.99   11.49
  -1 -11   3  262.38    9.98
   1 -11  -3  242.56    8.70
  -1 -11   3  245.25    9.35
  -1 -11   3  251.52    7.85
   1 -11  -3  243.65    9.84
   1 -12  -3   14.74    3.60
  -1 -12   3   13.35    3.32
   1 -12  -3   10.22    4.30
  -1 -12   3   11.98    2.71
   1 -12  -3   12.49    3.31
   1 -13  -3  656.20   14.46
  -1 -13   3  635.42   12.45
  -1 -13   3  667.19   15.59
   1 -13  -3  546.81   19.78
  -1 -14   3    0.00    1.19
   1 -14  -3   32.03    6.28
   1 -14  -3   35.70    4.45
  -1 -14   3   41.90    5.09
   1 -15  -3   20.62    5.95
  -1 -15   3   36.16    5.06
   1 -15  -3   30.39    4.68
  -1 -16   3    3.77    3.60
   1 -16  -3    0.86    3.26
   1 -16  -3    2.83    4.95
  -1 -17   3   43.28    5.65
   1 -17  -3   34.67    4.97
  -1 -18   3    2.36    4.16
   1 -18  -3    0.84    3.83
  -1 -19   3   29.94    5.63
   1 -19  -3   11.24    4.75
  -2 -19  -3    0.41    6.07
   2 -19   3    0.30    4.20
  -2 -18  -3  169.67   12.97
   2 -18   3  151.86    9.24
  -2 -17  -3  251.39   15.09
   2 -17   3  240.03   11.22
  -2 -16  -3    1.51    5.40
   2 -16   3    2.27    3.52
  -2 -16  -3    0.07    1.64
  -2 -15  -3    2.38    2.81
  -2 -15  -3    3.94    4.45
   2 -15   3    1.74    3.47
  -2 -14  -3    0.61    2.72
  -2 -14  -3    0.94    4.44
   2 -14   3   -0.78    3.10
  -2 -13  -3   46.61    7.03
  -2 -13  -3   47.75    4.25
   2 -13   3   50.85    5.46
  -2 -12  -3   42.52    6.37
  -2  12   3   46.61    5.18
  -2 -12  -3   52.09    4.23
   2 -12   3   40.69    5.18
   2 -12   3   44.81    4.90
  -2 -11  -3    0.03    2.70
  -2 -11  -3    3.13    3.99
  -2  11   3    1.86    3.09
   2 -11   3    1.36    2.49
   2 -11   3    3.56    3.20
  -2 -11  -3    1.99    2.43
   2 -10   3   27.65    3.77
   2 -10   3   25.38    4.44
   2  10  -3   20.79    4.44
  -2 -10  -3   23.87    3.22
  -2 -10  -3   28.89    5.07
  -2 -10  -3   27.93    5.18
  -2  10   3   23.21    4.23
   2  -9   3  112.22    6.27
  -2   9   3   93.19    6.90
   2  -9   3  111.12    7.25
  -2  -9  -3  111.62    5.27
   2   9  -3   96.28    7.49
  -2  -9  -3  103.41    8.09
  -2  -9  -3  133.17    9.11
  -2  -8  -3  180.47   10.20
   2  -8   3  196.16    7.62
  -2  -8  -3  217.46   11.36
  -2   8   3  163.23    8.79
   2  -8   3  177.22    8.73
  -2  -8  -3  194.25    6.58
   2   8  -3  163.59    9.31
   2  -8   3  192.99    5.59
  -2  -7  -3  132.37    9.38
  -2  -7  -3  124.44    8.35
   2  -7   3  115.67    5.75
  -2   7   3  112.94    7.81
   2  -7   3  101.17    6.77
  -2  -7  -3  125.99    5.43
   2   7  -3  102.92    8.04
   2  -7   3  119.14    4.90
  -2  -6  -3  708.58   19.52
   2  -6   3  719.19   10.90
  -2  -6  -3  622.25   16.94
   2  -6   3  664.65   12.37
  -2   6   3  618.52   16.42
   2  -6   3  690.50   15.98
  -2  -6  -3  701.65   11.62
   2   6  -3  616.39   17.78
  -2  -5  -3  556.06   17.08
  -2  -5  -3  527.66   15.14
   2  -5   3  536.34   10.73
  -2   5   3  515.15   15.20
   2  -5   3  503.44   13.85
  -2  -5  -3  541.71   10.41
   2   5  -3  496.05   15.99
  -2  -4  -3   82.67    7.58
  -2  -4  -3   80.13    6.28
   2  -4   3   74.47    4.13
  -2   4   3   68.33    6.25
   2  -4   3   87.20    6.39
  -2  -4  -3   76.20    4.83
   2   4  -3   68.40    6.78
  -2  -3  -3   94.57    7.49
  -2  -3  -3   90.58    6.33
   2  -3   3   95.02    4.37
  -2   3   3   98.02    7.35
   2  -3   3   87.55    6.35
   2   3  -3   77.29    7.25
   2   2  -3    1.91    3.61
  -2  -2  -3    2.16    3.34
  -2  -2  -3    1.04    2.51
   2  -2   3    1.42    1.33
  -2   2   3    1.90    3.46
   2  -2   3    3.35    2.91
  -2  -1  -3   39.01    4.31
   2   1  -3   28.53    5.24
  -2   1   3   34.80    4.91
  -2  -1  -3   31.54    4.95
   2  -1   3   36.40    2.59
  -2   1   3   30.32    2.26
   2  -1   3   36.20    4.68
  -2   0  -3   52.68    5.49
  -2   0  -3   55.94    4.77
   2   0   3   60.56    3.00
  -2   0   3   51.78    3.11
  -2   0   3   51.64    5.90
   2   0   3   58.61    5.54
   2   0  -3   64.75    6.82
  -2   1  -3   42.00    4.98
  -2  -1   3   39.15    3.80
  -2   1  -3   31.05    3.83
   2  -1  -3   28.18    5.06
   2   1   3   36.35    2.34
  -2  -1   3   31.79    4.87
  -2  -1   3   32.81    2.84
   2   1   3   36.47    4.83
  -2  -2   3    2.41    3.24
   2  -2  -3    1.44    3.86
   2   2   3    2.10    1.08
   2  -2  -3    1.86    1.52
  -2   2  -3    3.05    2.70
  -2   2  -3    2.42    2.06
  -2  -2   3    3.18    2.03
   2   2   3    1.45    2.84
  -2  -2   3    1.64    1.85
  -2  -3   3   94.13    5.22
  -2   3  -3   82.11    6.49
  -2   3  -3  105.92    5.82
  -2  -3   3   93.89    4.86
   2   3   3   99.75    3.22
  -2  -3   3   99.19    7.40
   2   3   3   83.54    6.90
   2  -3  -3   97.24    6.02
   2  -3  -3   98.08    7.72
   2  -3  -3   80.32    5.15
  -2   4  -3   77.75    6.46
  -2   4  -3   78.61    5.10
   2   4   3   79.72    6.95
   2   4   3   86.18    2.86
  -2  -4   3   83.76    6.98
  -2  -4   3   76.88    4.64
   2  -4  -3   85.12    5.63
   2  -4  -3   85.03    7.21
  -2  -4   3   84.27    4.96
   2  -4  -3   64.25    5.08
  -2   5  -3  547.19   15.56
  -2   5  -3  545.05   12.16
   2   5   3  586.80    6.61
  -2  -5   3  565.21   15.35
   2   5   3  560.02   17.03
   2  -5  -3  554.23   12.22
  -2  -5   3  566.03   11.76
   2  -5  -3  566.99   16.32
  -2  -5   3  548.07   11.45
   2  -5  -3  434.99   12.77
  -2   6  -3  693.64   17.58
  -2   6  -3  697.97   13.45
   2   6   3  669.44   19.16
  -2  -6   3  738.85   17.13
  -2  -6   3  696.03   13.48
  -2  -6   3  675.51   12.59
   2  -6  -3  686.87   17.60
   2  -6  -3  685.30   13.35
   2  -6  -3  578.31   15.35
  -2   7  -3  107.17    7.56
  -2  -7   3  121.84    7.60
   2  -7  -3  120.55    6.14
   2   7   3  117.45    9.10
  -2  -7   3  120.51    6.22
  -2  -7   3  121.44    5.70
   2  -7  -3  113.47    7.63
   2  -7  -3   82.20    6.68
  -2   8  -3  187.66    9.87
  -2  -8   3  206.74    9.18
   2   8   3  211.08   11.68
   2  -8  -3  183.28    7.44
  -2  -8   3  184.71    7.75
  -2  -8   3  190.04    7.04
   2  -8  -3  195.64    9.52
   2  -8  -3  142.32    8.88
  -2   9  -3  107.95    7.92
  -2  -9   3  122.74    7.18
   2   9   3   97.24    8.59
   2  -9  -3  116.59    6.31
  -2  -9   3  122.70    6.70
  -2  -9   3  119.86    5.80
   2  -9  -3  110.38    7.42
   2  -9  -3   78.31    7.32
   2 -10  -3   31.51    4.56
   2 -10  -3   16.75    4.35
  -2  10  -3   26.96    4.93
   2 -10  -3   29.27    3.96
  -2 -10   3   29.84    4.15
   2  10   3   22.92    5.30
  -2 -10   3   33.44    4.20
  -2 -10   3   23.91    3.16
  -2 -11   3    4.05    2.89
   2 -11  -3    4.20    3.08
  -2  11  -3    2.28    3.63
  -2 -11   3    2.96    2.19
   2 -11  -3    3.15    2.90
   2 -11  -3    0.53    3.82
  -2  12  -3   40.22    5.85
   2 -12  -3   42.83    4.80
  -2 -12   3   56.71    5.32
  -2 -12   3   51.59    4.32
   2 -12  -3   52.14    5.21
   2 -13  -3    0.00    1.30
   2 -13  -3   50.23    4.95
  -2 -13   3   47.00    5.22
  -2 -13   3   47.30    4.32
  -2 -14   3    0.60    3.55
  -2 -14   3   -0.73    2.20
   2 -14  -3   -0.36    3.24
  -2 -15   3    1.72    2.46
   2 -15  -3    1.70    3.50
  -2 -15   3    4.07    3.59
   2 -16  -3    4.44    3.63
  -2 -16   3    0.97    3.78
   2 -17  -3  229.24   10.43
  -2 -17   3  234.69   11.13
   2 -18  -3  134.14    8.74
  -2 -18   3  155.01    9.56
   2 -19  -3   -0.38    4.19
  -2 -19   3    0.41    4.63
  -3 -18  -3    3.11    5.68
   3 -18   3    4.82    4.12
  -3 -17  -3   26.36    6.21
   3 -17   3   25.95    5.15
  -3 -16  -3    2.56    4.78
   3 -16   3    3.85    3.80
  -3 -15  -3   54.05    7.77
   3 -15   3   69.52    6.54
  -3 -14  -3  203.42   12.86
   3 -14   3  185.02    9.48
   3 -13   3   99.48    7.09
  -3 -13  -3  115.43    9.70
   3 -13   3   42.86    5.00
   3 -12   3   97.12    6.70
  -3 -12  -3   82.24    8.31
   3 -12   3   80.87    6.55
  -3  12   3   90.17    6.80
  -3 -11  -3   84.09    8.20
   3 -11   3   94.27    6.38
  -3  11   3   84.53    6.75
  -3 -11  -3   88.19    4.73
   3 -11   3   86.36    6.78
  -3 -10  -3  478.92   17.29
   3 -10   3  498.18   12.82
  -3  10   3  474.33   14.46
  -3 -10  -3  497.10    9.95
   3 -10   3  479.06   14.03
  -3 -10  -3  579.12   17.95
  -3  -9  -3   64.39    7.29
  -3  -9  -3   48.07    6.29
   3  -9   3   52.44    4.62
   3  -9   3   59.40    5.62
  -3   9   3   56.50    5.96
  -3  -9  -3   63.87    4.01
   3   8  -3   16.42    4.20
   3  -8   3   25.97    3.38
  -3  -8  -3   29.88    5.58
  -3  -8  -3   19.56    4.50
  -3   8   3   15.30    4.02
   3  -8   3   15.17    3.84
  -3  -8  -3   21.07    2.87
   3   7  -3   32.90    4.95
   3  -7   3   34.01    3.56
  -3  -7  -3   27.70    5.25
  -3  -7  -3   32.38    5.20
   3  -7   3    0.01    0.74
  -3   7   3   24.72    4.58
  -3  -7  -3   28.21    3.02
   3  -7   3   28.14    4.24
   3   6  -3    2.02    3.62
  -3  -6  -3    3.46    3.46
  -3  -6  -3    3.51    3.05
   3  -6   3    1.69    1.89
   3  -6   3    2.39    1.53
  -3   6   3    2.86    3.59
   3  -6   3    3.95    3.15
  -3  -6  -3    3.54    2.67
  -3  -5  -3   48.94    5.91
  -3  -5  -3   50.56    5.58
   3  -5   3   48.84    3.67
  -3   5   3   53.17    5.79
   3  -5   3   47.73    5.15
  -3  -5  -3   46.18    3.76
   3   5  -3   46.81    5.74
   3   4  -3    4.85    3.44
  -3  -4  -3    0.82    3.36
  -3  -4  -3    2.06    2.97
  -3   4   3   -0.14    3.51
   3  -4   3    1.47    1.66
   3  -4   3    2.34    2.80
  -3  -4  -3    1.78    2.83
  -3  -3  -3  129.01    8.01
  -3  -3  -3  149.97    8.63
   3  -3   3  140.27    5.29
  -3   3   3  140.67    8.52
   3  -3   3  141.37    7.74
   3   3  -3  131.69    8.88
  -3  -2  -3  934.72   19.45
  -3  -2  -3  931.50   19.63
   3  -2   3  874.68   11.99
   3  -2   3  878.35   17.87
   3   2  -3  822.28   20.38
  -3  -1  -3  236.28   10.25
  -3   1   3  238.72    8.41
  -3  -1  -3  247.60   10.27
   3  -1   3  242.38    6.24
  -3   1   3  234.74   10.71
   3  -1   3  242.37    9.93
   3   1  -3  218.67   11.15
  -3   0   3   37.33    3.71
   3   0  -3    0.33    3.62
  -3   0  -3   -0.23    3.11
  -3   0  -3    0.86    2.71
   3   0   3    0.01    1.19
  -3   0   3    1.59    3.27
   3   0   3   -0.32    2.91
  -3  -1   3  244.26    8.38
  -3   1  -3  239.96   10.32
  -3   1  -3  242.85    9.88
   3   1   3  247.31    5.85
  -3  -1   3  227.61   10.40
   3   1   3  249.11   10.10
   3  -1  -3  225.47   11.25
  -3  -2   3  875.35   15.07
  -3   2  -3  888.24   18.98
  -3  -2   3  886.69   19.38
  -3   2  -3  910.83   18.01
   3   2   3  910.18   10.32
  -3  -2   3  787.98   12.70
   3   2   3  934.27   19.02
   3  -2  -3  836.39   16.13
  -3   3  -3  146.20    8.36
  -3   3  -3  144.07    7.51
   3   3   3  147.85    4.35
  -3  -3   3  130.35    5.79
  -3  -3   3  157.70    8.73
   3   3   3  125.66    7.85
   3  -3  -3  140.17    7.07
   3  -3  -3  133.52    8.62
  -3  -3   3  147.92    6.60
   3  -4  -3    3.22    3.62
  -3   4  -3    5.03    3.41
   3   4   3    1.82    1.14
  -3  -4   3    4.05    3.30
  -3  -4   3    1.87    2.01
  -3   4  -3    1.79    2.26
   3   4   3    0.49    3.23
  -3  -4   3    1.81    2.12
   3  -4  -3    0.92    2.84
  -3   5  -3   49.35    5.52
  -3   5  -3   46.84    4.55
  -3  -5   3   52.78    4.24
  -3  -5   3   46.67    5.27
  -3  -5   3   50.48    4.30
   3   5   3   39.35    5.35
   3  -5  -3   52.62    4.75
   3   5   3   52.80    2.64
   3  -5  -3   52.11    5.97
   3  -6  -3    3.97    3.61
  -3   6  -3    2.02    3.28
  -3  -6   3    3.02    2.03
  -3   6  -3    4.11    2.45
  -3  -6   3    2.87    2.96
   3   6   3    2.93    3.44
  -3  -6   3    1.75    2.55
   3  -6  -3    2.59    2.92
   3  -7  -3   30.68    5.02
  -3   7  -3   25.59    4.67
  -3  -7   3   30.22    4.37
  -3  -7   3   29.79    3.88
   3  -7  -3   28.35    3.90
   3   7   3   25.84    5.15
  -3  -7   3   30.90    3.45
   3  -8  -3   21.22    4.27
  -3   8  -3   17.39    4.27
  -3  -8   3   18.40    3.03
  -3  -8   3   29.16    4.07
   3   8   3   17.45    4.84
   3  -8  -3   22.37    3.80
  -3  -8   3   25.04    3.93
  -3   9  -3   66.01    6.50
  -3  -9   3   62.44    4.70
  -3  -9   3   62.77    5.47
   3  -9  -3   58.92    4.96
   3   9   3   51.47    7.00
   3  -9  -3   63.51    6.18
  -3  10  -3  522.64   16.19
  -3 -10   3  473.76   11.65
   3 -10  -3  483.19   12.39
  -3 -10   3  503.48   13.11
  -3 -10   3  506.66   13.64
   3 -10  -3  494.88   14.50
  -3  11  -3   83.27    7.31
   3 -11  -3   82.52    6.05
  -3 -11   3   88.18    5.64
   3 -11  -3   89.66    6.74
  -3 -11   3   98.18    6.79
  -3  12  -3   78.63    7.43
  -3 -12   3   90.53    6.77
   3 -12  -3   91.30    6.27
  -3 -12   3   81.37    5.53
   3 -12  -3   80.95    6.46
   3 -13  -3   97.94    6.64
  -3 -13   3   96.80    7.27
  -3 -13   3   90.04    5.89
   3 -13  -3  101.17    7.12
   3 -14  -3  190.23    9.05
  -3 -14   3  203.76    9.90
  -3 -14   3  179.65    8.03
   3 -15  -3   61.34    6.00
  -3 -15   3   68.83    6.64
  -3 -15   3   74.45    5.65
  -3 -16   3    5.07    3.07
  -3 -16   3    5.12    3.98
   3 -16  -3    4.42    3.84
   3 -17  -3   25.46    5.18
  -3 -17   3   26.24    5.59
   3 -18  -3    5.22    4.06
  -3 -18   3    2.15    4.65
   4 -18   3    2.33    4.13
  -4 -17  -3  212.97   14.21
   4 -17   3  208.45   11.25
  -4 -16  -3  110.81   10.52
   4 -16   3   97.60    7.88
   4 -15   3    5.14    3.65
  -4 -15  -3    7.28    5.02
   4 -14   3   79.55    6.83
  -4 -14  -3   77.51    8.70
   4 -13   3   59.99    5.82
  -4 -13  -3   48.05    7.16
  -4  13   3   42.21    5.48
   4 -13   3   46.40    5.44
   4 -12   3   15.33    3.67
  -4 -12  -3    5.46    4.42
  -4  12   3   10.49    4.16
   4 -12   3    6.00    3.69
   4 -11   3    2.48    2.77
  -4 -11  -3   -1.95    3.88
  -4  11   3    0.42    3.44
   4 -11   3    1.62    3.37
  -4 -10  -3   65.80    6.92
  -4 -10  -3  122.31    9.66
   4 -10   3  127.02    7.08
  -4  10   3  119.37    8.19
   4 -10   3  107.52    7.33
  -4  -9  -3  157.34   10.05
  -4  -9  -3  142.76   10.15
   4  -9   3  169.25    7.66
  -4   9   3  172.10    9.47
   4  -9   3  158.82    8.40
   4   9  -3  138.45    8.47
  -4  -8  -3   92.17    7.59
  -4  -8  -3   86.99    8.08
   4  -8   3   89.05    5.58
  -4   8   3   86.07    7.06
   4  -8   3   83.83    6.52
   4   8  -3   69.36    6.57
  -4  -7  -3  104.01    7.95
  -4  -7  -3   94.76    8.18
   4  -7   3  108.97    5.76
  -4   7   3   91.86    7.41
   4  -7   3   97.54    6.97
   4   7  -3   85.71    7.20
   4   6  -3    0.98    3.55
  -4  -6  -3    0.23    3.26
  -4  -6  -3    1.00    3.72
  -4  -6  -3    0.01    1.09
  -4   6   3    1.43    3.42
   4  -6   3   10.94    2.53
   4  -6   3    1.29    2.96
  -4  -5  -3  461.02   14.43
  -4  -5  -3  436.11   15.75
   4  -5   3  445.57   13.28
   4  -5   3  422.00    9.90
  -4   5   3  440.64   14.35
  -4  -5  -3  450.37    8.31
   4   5  -3  377.96   14.01
  -4  -4  -3  152.99    8.74
  -4   4   3  151.69    7.26
  -4  -4  -3  157.21    9.57
   4  -4   3  161.97    6.08
  -4   4   3  143.46    8.86
   4  -4   3  167.62    8.51
  -4  -4  -3  159.43    5.46
   4   4  -3  129.85    8.77
  -4   3   3  138.19    6.95
  -4  -3  -3  124.27    7.89
  -4  -3  -3  146.47    9.19
   4  -3   3  138.63    5.46
  -4   3   3  146.05    8.78
   4  -3   3  154.46    8.23
  -4  -3  -3  136.44    5.58
   4   3  -3  121.89    8.61
  -4   2   3  186.93    7.77
  -4  -2  -3  163.10    8.82
  -4  -2  -3  184.17   10.00
  -4   2   3  185.91    9.67
   4  -2   3  187.39    6.05
   4  -2   3  198.07    9.10
   4   2  -3  161.39    9.70
   4   1  -3   13.09    4.17
  -4  -1  -3   12.31    3.73
  -4  -1  -3   11.58    3.64
  -4   1   3   14.11    2.92
  -4   1   3   12.04    3.92
   4  -1   3   12.12    2.07
   4  -1   3   15.63    3.65
   4   0  -3   13.85    4.48
  -4   0  -3   17.10    4.10
  -4   0   3   15.34    2.90
  -4   0  -3   14.37    3.91
  -4   0   3   17.27    4.44
   4   0   3   14.59    2.04
   4   0   3   11.20    3.46
   4  -1  -3   14.52    4.36
  -4   1  -3   10.07    3.68
  -4  -1   3   17.18    3.09
  -4   1  -3   12.12    3.47
  -4  -1   3    9.58    3.88
   4   1   3   13.59    1.92
   4   1   3   13.90    3.43
   4  -1  -3   13.51    3.97
  -4   2  -3  207.68    9.81
  -4   2  -3  198.75    9.65
  -4  -2   3  182.27    9.54
   4   2   3  184.89    5.44
   4   2   3  187.38    9.13
   4  -2  -3  172.42    8.11
   4  -2  -3  189.81   10.31
  -4  -2   3  178.57    7.46
  -4   3  -3  143.67    8.44
  -4   3  -3  120.50    7.57
  -4  -3   3  135.90    8.35
   4   3   3  137.17    7.98
   4   3   3  127.82    4.55
   4  -3  -3  131.29    7.10
   4  -3  -3  151.33    9.35
  -4  -3   3  144.12    6.72
  -4   4  -3  173.33    9.21
  -4   4  -3  141.30    8.07
  -4  -4   3  161.35    8.87
   4  -4  -3  162.94    7.58
   4   4   3  152.98    8.61
   4  -4  -3  151.63    9.34
  -4  -4   3  166.13    7.18
  -4   5  -3  482.43   14.81
  -4   5  -3  428.69   13.28
  -4  -5   3  451.16   13.73
  -4  -5   3  411.83   11.10
   4   5   3  457.40   14.47
   4  -5  -3  435.24   11.58
  -4  -5   3  435.53   11.09
   4  -5  -3  452.72   14.93
   4  -6  -3    1.91    3.58
  -4   6  -3   -0.40    3.23
  -4  -6   3    0.82    2.33
  -4  -6   3    0.81    3.36
  -4   6  -3    0.76    2.51
  -4  -6   3    2.34    2.45
   4   6   3    0.83    3.69
   4  -6  -3    1.45    2.58
  -4   7  -3  113.73    8.06
  -4  -7   3  112.28    7.32
  -4  -7   3   96.68    6.22
   4   7   3  112.60    8.33
   4  -7  -3  107.69    6.34
  -4  -7   3  107.48    5.96
   4  -7  -3  113.60    7.95
  -4   8  -3   89.99    7.40
  -4  -8   3   88.23    6.42
  -4  -8   3   85.26    6.16
   4   8   3   85.85    7.94
   4  -8  -3   93.66    6.02
  -4  -8   3   85.20    5.54
   4  -8  -3   88.42    7.15
  -4   9  -3  162.08    9.61
  -4  -9   3  160.08    8.07
  -4  -9   3  163.80    8.30
   4   9   3  165.28   10.75
   4  -9  -3  149.85    7.46
  -4  -9   3  163.57    7.38
   4  -9  -3  172.21    9.57
  -4  10  -3  110.00    8.30
  -4 -10   3  119.70    7.51
   4 -10  -3  125.75    7.13
  -4 -10   3  111.54    6.41
   4 -10  -3  112.65    7.87
   4 -11  -3    1.57    3.65
  -4 -11   3    1.87    2.66
  -4  11  -3   -0.06    4.07
   4 -11  -3   -0.15    3.03
  -4 -11   3    1.68    3.48
   4 -12  -3   12.46    4.15
  -4 -12   3    8.02    3.02
  -4  12  -3   14.56    5.05
   4 -12  -3    8.23    3.81
  -4 -12   3   10.68    3.95
  -4 -13   3   57.79    6.25
   4 -13  -3   53.11    5.55
  -4 -13   3   53.07    5.02
   4 -13  -3   50.85    5.87
   4 -14  -3   75.72    6.43
  -4 -14   3   71.45    5.84
  -4 -14   3   95.34    7.46
  -4 -15   3    6.10    3.19
  -4 -15   3    8.74    4.23
   4 -15  -3    3.09    3.75
  -4 -16   3   95.75    6.77
  -4 -16   3  102.25    8.10
   4 -16  -3  104.51    7.61
  -4 -17   3  201.06   11.11
   4 -17  -3  202.18   10.54
  -4 -17   3  205.39    9.71
  -5 -17  -3   24.88    6.98
   5 -17   3   21.14    5.38
  -5 -16  -3    8.76    5.93
   5 -16   3    7.91    4.09
  -5 -15  -3   81.38    9.52
   5 -15   3   83.87    7.36
   5 -14   3   32.89    5.33
  -5 -14  -3   34.00    6.80
   5 -13   3   36.85    4.97
   5 -13   3   25.80    5.01
  -5 -13  -3   32.14    6.61
  -5  13   3   24.49    4.98
   5 -12   3   49.29    5.32
  -5 -12  -3   38.57    6.72
  -5  12   3   34.12    5.77
   5 -12   3   34.83    5.18
   5 -11   3    6.15    3.46
   5 -11   3    5.36    3.10
  -5 -11  -3    3.38    4.04
  -5  11   3    5.68    4.02
  -5 -10  -3  151.16   11.06
   5 -10   3  169.71    8.18
  -5  10   3  167.33    9.90
   5 -10   3  150.62    8.85
  -5  -9  -3  444.31   15.90
  -5   9   3  467.07   13.60
  -5  -9  -3  425.24   17.31
   5  -9   3  437.17   13.99
   5  -9   3  438.70   12.18
  -5   9   3  451.84   15.40
   5   8  -3    1.22    3.52
  -5  -8  -3    0.32    3.86
  -5  -8  -3    2.27    4.05
  -5   8   3    1.50    3.62
  -5   8   3    2.73    2.84
   5  -8   3    1.80    2.31
   5  -8   3    0.86    3.03
  -5  -7  -3   47.59    5.83
  -5   7   3   56.43    5.24
   5   7  -3   41.22    5.64
  -5  -7  -3   53.74    6.96
   5  -7   3   52.78    4.37
  -5   7   3   51.67    6.10
   5  -7   3   49.59    5.63
   5  -6   3    5.35    2.12
   5   6  -3    1.81    3.53
  -5  -6  -3    3.45    3.56
   5  -6   3    5.10    3.11
  -5  -6  -3    3.10    4.09
  -5   6   3    7.31    2.86
  -5   6   3    4.12    3.89
  -5   5   3   69.88    5.48
  -5  -5  -3   61.96    6.24
  -5  -5  -3   75.46    7.77
   5  -5   3   77.95    4.82
  -5   5   3   77.30    7.00
   5  -5   3   72.05    6.23
   5   5  -3   61.10    6.62
   5   4  -3   17.53    4.81
   5  -4   3   25.25    4.22
  -5  -4  -3   21.66    4.61
  -5  -4  -3   27.57    5.30
   5  -4   3   26.62    3.06
  -5   4   3   23.24    3.69
  -5   4   3   19.29    4.45
  -5   3   3  360.11   11.00
  -5  -3  -3  353.85   12.74
  -5  -3  -3  364.30   14.94
  -5   3   3  382.39   13.89
   5  -3   3  359.05    8.89
   5  -3   3  376.69   12.64
   5   3  -3  359.78   14.10
  -5  -2  -3  181.55    9.28
  -5  -2  -3  201.66   11.24
  -5   2   3  200.78   10.35
   5  -2   3  175.16    6.27
   5  -2   3  177.75    9.00
   5   2  -3  199.60   10.83
  -5   2   3  191.99    8.16
   5   1  -3   17.02    4.44
  -5  -1  -3   17.33    4.24
   5  -1   3   15.88    3.94
  -5  -1  -3   16.54    4.39
  -5   1   3   17.55    4.31
   5  -1   3   17.61    2.44
  -5   1   3   26.88    3.75
   5   0  -3   -0.36    4.19
  -5   0  -3   -0.01    3.42
  -5   0   3    0.65    2.15
  -5   0  -3    0.43    3.48
  -5   0   3    0.22    3.80
   5   0   3   -0.04    1.63
   5   0   3    1.08    3.12
   5   0  -3    1.70    3.61
   5  -1  -3   20.53    4.75
  -5   1  -3   18.15    4.51
  -5  -1   3   14.81    3.07
  -5   1  -3   10.08    3.62
  -5  -1   3   16.52    4.35
   5   1   3   16.77    2.24
   5   1   3   20.49    4.21
   5  -1  -3   14.53    4.01
  -5   2  -3  190.25    9.83
  -5   2  -3  165.64    9.70
   5   2   3  199.46    9.48
  -5  -2   3  193.24    9.94
   5   2   3  177.36    5.89
   5  -2  -3  186.48    8.57
   5  -2  -3  198.13   10.80
  -5  -2   3  172.26    7.54
  -5   3  -3  397.92   13.72
  -5   3  -3  359.94   13.63
  -5  -3   3  384.65   13.39
   5   3   3  361.29   12.69
   5  -3  -3  377.87   11.35
   5  -3  -3  384.10   14.44
  -5  -3   3  355.26   10.48
   5  -4  -3   23.54    4.91
  -5   4  -3   26.39    4.71
  -5  -4   3   21.04    3.33
  -5  -4   3   30.04    4.80
  -5   4  -3   22.66    4.41
   5   4   3   23.04    4.41
   5  -4  -3   25.58    4.12
  -5   5  -3   69.25    6.54
  -5   5  -3   65.10    6.31
  -5  -5   3   73.65    6.46
   5   5   3   63.36    6.33
   5  -5  -3   74.74    5.61
  -5  -5   3   69.94    5.18
   5  -5  -3   81.94    7.36
   5  -6  -3    3.15    4.06
  -5   6  -3    4.29    3.38
  -5  -6   3    3.11    2.34
  -5  -6   3    3.77    3.63
  -5   6  -3    3.32    3.09
   5   6   3    2.54    3.48
   5  -6  -3    4.20    2.95
  -5   7  -3   54.82    6.23
  -5  -7   3   51.91    5.49
   5   7   3   56.41    6.40
   5  -7  -3   53.49    5.07
   5  -7  -3   54.91    6.30
  -5  -7   3   55.33    4.79
   5  -8  -3    0.49    3.69
  -5  -8   3    1.11    2.38
  -5   8  -3    0.57    3.61
  -5  -8   3    1.56    3.40
   5   8   3    2.45    3.96
   5  -8  -3    1.10    3.04
  -5   9  -3  442.87   15.52
  -5  -9   3  466.23   13.53
   5  -9  -3  426.45   12.37
  -5  -9   3  434.53   12.26
   5  -9  -3  434.19   15.05
  -5  10  -3  166.44   10.13
   5 -10  -3  171.87    8.31
  -5 -10   3  170.60    8.08
   5 -10  -3  187.69   10.37
   5 -11  -3    8.06    4.41
  -5 -11   3    5.50    2.82
  -5  11  -3    5.43    3.87
   5 -11  -3    5.85    3.40
   5 -12  -3   37.51    5.70
  -5  12  -3   39.20    6.36
   5 -12  -3   39.16    5.10
  -5 -12   3   37.16    4.61
  -5 -13   3   27.94    4.28
  -5  13  -3   31.60    5.89
  -5 -13   3   32.36    5.23
   5 -13  -3   35.53    4.89
   5 -13  -3   30.13    5.49
   5 -14  -3    0.00    1.99
  -5 -14   3   29.29    4.35
  -5 -14   3   24.49    5.17
   5 -14  -3   25.84    4.68
  -5 -15   3   72.82    6.38
   5 -15  -3   77.54    6.94
  -5 -16   3   11.19    4.05
   5 -16  -3   11.76    4.28
  -5 -17   3   22.03    4.82
  -5 -18   3   10.50    4.50
   6 -15   3    8.17    4.03
  -6 -15  -3    6.02    5.42
  -6 -14  -3  170.87   12.57
   6 -14   3  200.96   10.53
   6 -14   3    0.00    2.21
   6 -13   3   -0.75    3.62
  -6 -13  -3   -3.25    4.93
  -6  13   3    0.54    4.92
   6 -13   3    0.31    4.29
  -6 -12  -3    8.29    5.15
   6 -12   3    9.44    3.85
  -6  12   3   13.51    5.01
   6 -12   3   11.99    4.62
  -6 -11  -3   21.76    5.91
  -6  11   3   18.42    5.12
   6 -11   3   21.87    4.10
   6 -11   3   15.92    4.62
  -6 -10  -3  214.38   13.29
   6 -10   3  205.70    9.15
  -6  10   3  185.51   10.96
   6 -10   3  182.28   10.02
  -6  -9  -3    0.10    2.66
  -6  -9  -3   36.91    5.76
  -6   9   3   26.65    5.46
   6  -9   3   24.85    4.02
   6  -9   3   22.14    4.97
   6   8  -3    8.89    4.15
  -6  -8  -3    8.46    4.32
   6  -8   3    7.30    3.66
  -6  -8  -3   12.07    5.13
  -6   8   3   11.31    3.61
  -6   8   3    9.84    4.36
   6  -8   3    8.92    2.95
   6  -7   3    0.79    2.29
   6   7  -3   -1.28    3.77
  -6  -7  -3    2.31    4.01
  -6  -7  -3    0.71    4.12
  -6   7   3    0.53    2.97
  -6   7   3    1.55    4.01
   6  -7   3    0.24    3.70
  -6   6   3  225.91    9.45
  -6  -6  -3  215.72   10.68
  -6  -6  -3  241.61   13.64
  -6   6   3  210.41   11.28
   6  -6   3  225.12    8.33
   6  -6   3  219.67   10.44
   6   6  -3  235.60   11.74
   6   5  -3    7.04    4.15
  -6  -5  -3   10.84    4.13
   6  -5   3   15.80    2.91
  -6  -5  -3   13.51    5.33
  -6   5   3   13.84    3.31
  -6   5   3   15.80    5.05
   6  -5   3   13.95    3.98
  -6  -4  -3  131.63    8.49
  -6  -4  -3  151.02   10.89
  -6   4   3  148.03    9.70
   6  -4   3  147.28    6.46
   6  -4   3  132.21    8.28
   6   4  -3  138.40    9.46
  -6   4   3  130.11    7.22
  -6  -3  -3   46.95    5.61
  -6   3   3   51.82    6.45
  -6  -3  -3   41.72    6.64
   6  -3   3   49.98    4.08
   6  -3   3   42.10    5.37
   6   3  -3   44.55    6.24
  -6   3   3   37.23    4.36
  -6  -2  -3  445.93   14.72
  -6  -2  -3  461.15   17.62
  -6   2   3  444.82   15.48
   6  -2   3  449.65   10.41
   6  -2   3  474.70   14.70
   6   2  -3  417.60   13.68
   6   2  -3  433.28   15.87
  -6   2   3  431.55   12.14
   6   1  -3   10.57    4.86
  -6  -1  -3    8.02    3.65
  -6   1   3    9.94    2.94
  -6  -1  -3   11.51    4.46
  -6   1   3    8.67    4.63
   6  -1   3    8.99    2.40
   6  -1   3   13.07    4.07
   6   1  -3   10.56    4.07
  -6   0  -3   45.41    5.70
  -6   0  -3   62.75    7.09
   6   0  -3   47.90    6.38
  -6   0   3   58.10    6.62
   6   0   3   48.38    3.79
   6   0   3   47.97    5.53
   6   0  -3   45.78    5.36
  -6   0   3   39.49    4.26
   6  -1  -3    8.41    3.96
  -6   1  -3    9.79    4.27
  -6  -1   3   11.23    3.22
   6   1   3   13.19    2.46
  -6   1  -3    7.59    4.06
  -6  -1   3   10.64    4.59
   6   1   3   12.58    3.89
   6  -1  -3    8.25    3.83
  -6   2  -3  460.96   15.25
  -6   2  -3  452.56   16.58
  -6  -2   3  471.71   15.52
   6   2   3  467.00   14.66
   6  -2  -3  464.67   12.98
   6  -2  -3  478.37   16.74
  -6  -2   3  423.76   11.86
   6  -3  -3   46.14    6.61
  -6   3  -3   44.34    5.76
  -6   3  -3   56.18    6.73
  -6  -3   3   45.73    6.20
   6   3   3   49.26    5.58
   6  -3  -3   43.25    5.06
  -6  -3   3   43.51    4.53
  -6   4  -3  142.57    9.13
  -6   4  -3  140.43    9.51
  -6  -4   3  155.50    9.20
  -6  -4   3  124.15    6.92
   6   4   3  128.85    8.38
   6  -4  -3  141.91    7.50
   6  -4  -3  147.26    9.99
   6  -5  -3   15.18    5.05
  -6  -5   3   13.17    3.20
  -6   5  -3   16.84    4.34
  -6  -5   3   16.02    4.54
  -6   5  -3    9.11    3.82
   6   5   3   12.87    3.82
   6  -5  -3   16.62    3.77
  -6   6  -3  216.70   11.20
  -6   6  -3  243.85   12.15
  -6  -6   3  251.71   11.19
   6   6   3  233.36   11.18
   6  -6  -3  219.82    9.12
  -6  -6   3  203.14    8.73
   6  -6  -3  233.18   11.99
   6  -7  -3    0.42    4.17
  -6  -7   3    1.35    2.72
  -6   7  -3    2.21    3.95
  -6  -7   3    1.44    3.73
  -6   7  -3   -0.42    3.63
   6   7   3    1.89    3.75
   6  -7  -3    1.08    3.21
   6  -8  -3   15.03    5.02
  -6  -8   3    8.26    3.52
  -6   8  -3   16.06    4.82
  -6  -8   3   14.20    4.10
   6   8   3   15.59    4.52
   6  -8  -3   11.70    3.56
   6  -9  -3   25.79    5.84
  -6  -9   3   25.11    4.32
  -6   9  -3   20.46    5.58
   6  -9  -3   30.23    4.41
  -6  10  -3  215.51   11.64
   6 -10  -3  206.48    9.38
  -6 -10   3  195.32    9.06
   6 -10  -3  200.03   11.11
   6 -11  -3   19.75    5.38
  -6 -11   3   14.26    3.90
  -6  11  -3   18.07    5.18
   6 -11  -3   22.05    4.54
   6 -12  -3    6.12    4.59
  -6 -12   3    7.96    3.31
  -6  12  -3    9.39    4.90
   6 -12  -3   14.10    4.17
   6 -13  -3    0.66    4.51
  -6 -13   3   -2.55    3.27
  -6  13  -3    1.14    4.86
   6 -13  -3   -0.96    3.88
   6 -14  -3  178.85    9.72
  -6 -14   3  165.43    9.01
   6 -14  -3  156.02   10.11
  -6 -15   3    7.53    3.72
   6 -15  -3    6.20    4.50
  -6 -16   3  160.09    9.62
   7 -14   3    7.91    4.34
  -7 -14  -3   13.11    6.04
   7 -14   3    2.01    4.02
   7 -13   3   51.97    6.12
  -7 -13  -3   46.69    7.96
  -7  13   3   45.13    6.84
   7 -13   3   40.37    6.17
   7 -12   3   -1.47    4.54
  -7 -12  -3    0.32    5.58
  -7  12   3    1.31    5.04
   7 -12   3   -0.62    3.66
  -7 -11  -3   -0.09    5.35
  -7  11   3    1.61    5.06
   7 -11   3    2.38    3.05
   7 -11   3   -2.29    4.33
  -7 -10  -3    7.06    5.06
  -7  10   3    5.38    4.71
   7 -10   3    4.67    3.30
   7 -10   3    4.95    4.60
  -7  -9  -3  322.98   16.75
   7  -9   3  313.87   11.14
  -7   9   3  313.04   14.62
   7  -9   3  306.75   13.12
   7  -8   3   26.45    4.05
  -7  -8  -3   22.46    5.49
   7  -8   3   25.53    5.02
  -7  -8  -3   32.91    6.66
  -7   8   3   21.97    5.51
  -7  -7  -3  105.23    8.40
  -7  -7  -3   93.66    9.83
  -7   7   3  112.90    9.35
   7  -7   3  115.30    6.64
   7  -7   3  105.32    8.33
   7   7  -3  105.69    8.22
  -7   7   3  102.83    6.85
   7   6  -3    0.72    4.10
  -7  -6  -3    2.63    3.92
   7  -6   3    1.04    2.59
  -7   6   3   -0.65    2.76
  -7  -6  -3    3.53    5.23
  -7   6   3    0.86    4.97
   7  -6   3    0.51    4.06
  -7  -5  -3   84.93    7.51
  -7  -5  -3   91.66    9.47
  -7   5   3   98.47    8.76
   7  -5   3   94.09    5.85
   7  -5   3   90.41    7.54
   7   5  -3   95.55    8.59
  -7   5   3   93.04    6.43
   7   4  -3   33.66    5.84
  -7  -4  -3   32.25    5.48
  -7   4   3   29.92    4.46
  -7  -4  -3   34.75    6.65
  -7   4   3   30.71    6.14
   7  -4   3   35.43    3.92
   7  -4   3   43.61    5.64
   7   4  -3   29.80    5.78
  -7  -3  -3  165.34    9.88
  -7  -3  -3  163.55   11.95
  -7   3   3  176.60   10.92
   7  -3   3  176.78    7.44
   7  -3   3  178.33   10.00
   7   3  -3  160.82    9.37
   7   3  -3  174.16   11.09
  -7   3   3  171.22    8.19
   7   2  -3   17.13    4.89
  -7  -2  -3   10.07    4.21
  -7   2   3   16.89    3.67
  -7  -2  -3   14.95    5.30
  -7   2   3   17.11    4.93
   7  -2   3   13.43    2.88
   7  -2   3   16.58    4.49
   7   2  -3   18.73    4.80
  -7  -1  -3   57.57    6.27
  -7  -1  -3   59.91    7.88
  -7   1   3   49.39    6.70
   7  -1   3   58.20    4.58
   7  -1   3   54.94    6.29
   7   1  -3   54.45    5.93
   7   1  -3   55.60    6.92
  -7   1   3   54.65    5.18
   7   0  -3    0.83    4.36
  -7   0  -3    1.18    3.81
  -7   0   3    0.31    2.79
  -7   0  -3    0.14    4.38
  -7   0   3   -0.79    4.52
   7   0   3   -0.01    1.98
   7   0   3    0.04    3.47
   7   0  -3    1.91    3.66
  -7   1  -3   53.59    6.57
  -7  -1   3   64.80    7.05
  -7   1  -3   48.83    7.02
   7   1   3   58.94    6.29
   7  -1  -3   62.08    5.74
   7   1   3   54.39    4.30
  -7  -1   3   57.89    5.19
   7  -1  -3   53.95    7.33
   7  -2  -3   20.28    5.14
  -7  -2   3   15.28    3.47
  -7   2  -3   13.30    4.55
  -7   2  -3   20.75    5.39
  -7  -2   3   15.52    5.44
   7   2   3   22.84    4.64
   7  -2  -3   17.64    4.31
  -7   3  -3  164.19   10.17
  -7   3  -3  168.58   11.46
  -7  -3   3  170.70   10.35
   7   3   3  174.78    9.96
   7  -3  -3  180.95    8.48
  -7  -3   3  170.28    8.19
   7  -3  -3  186.55   11.58
   7  -4  -3   33.45    6.43
  -7   4  -3   43.04    6.11
  -7  -4   3   29.46    4.19
   7  -4  -3   40.72    4.83
  -7  -4   3   34.74    5.65
  -7   4  -3   27.15    5.70
   7   4   3   30.24    5.07
  -7   5  -3   95.66    8.15
  -7   5  -3   93.76    8.72
  -7  -5   3  100.99    8.10
   7   5   3  106.16    8.20
   7  -5  -3  100.00    6.65
  -7  -5   3   99.34    6.62
   7  -5  -3   90.78    8.62
   7  -6  -3   -0.88    4.43
  -7  -6   3    2.21    2.96
  -7   6  -3    2.25    4.02
  -7  -6   3    0.34    4.08
  -7   6  -3   -1.56    3.87
   7   6   3    1.87    3.99
   7  -6  -3    0.72    3.23
  -7   7  -3  108.48    9.05
  -7   7  -3   99.36    8.96
  -7  -7   3  101.62    7.88
   7   7   3  103.85    8.62
   7  -7  -3  105.11    7.03
  -7  -7   3   97.86    6.83
   7  -7  -3  107.85    9.18
   7  -8  -3   30.03    6.00
  -7  -8   3   23.97    4.44
  -7   8  -3   33.17    5.93
  -7  -8   3   28.98    4.92
  -7   8  -3   28.56    5.22
   7  -8  -3   27.61    4.60
  -7   9  -3  296.62   14.08
   7  -9  -3  314.50   11.49
  -7  -9   3  315.48   11.43
   7  -9  -3  317.43   14.64
   7 -10  -3    5.42    4.66
  -7 -10   3    1.49    3.30
  -7  10  -3    4.60    4.53
   7 -10  -3    5.76    3.74
   7 -11  -3    0.78    4.68
  -7 -11   3    0.62    3.55
   7 -11  -3    2.05    3.64
  -7  11  -3   -2.29    4.65
   7 -12  -3    0.71    4.71
  -7 -12   3   -2.68    3.60
  -7  12  -3   -0.90    5.47
   7 -12  -3    0.36    3.66
   7 -13  -3   42.00    7.02
  -7  13  -3   46.43    7.21
  -7 -13   3   47.00    5.93
   7 -13  -3   47.66    6.11
   7 -14  -3    5.84    5.75
  -7 -14   3    9.38    4.13
   7 -14  -3   10.32    4.41
   8 -14   3   82.23    8.21
  -8  13   3   16.85    6.28
   8 -13   3   15.62    6.06
   8 -12   3   52.70    6.06
  -8 -12  -3   41.98    7.77
  -8  12   3   49.49    7.40
   8 -12   3   59.49    7.58
  -8 -11  -3   17.01    6.84
  -8  11   3   18.69    6.38
   8 -11   3   14.73    3.97
   8 -11   3    9.27    5.31
   8 -10   3   41.24    5.38
  -8 -10  -3   44.62    7.92
  -8  10   3   36.85    6.90
   8 -10   3   41.98    6.36
   8  -9   3   12.80    3.57
  -8  -9  -3   14.76    5.88
  -8   9   3   23.34    6.32
   8  -9   3   13.15    5.39
   8  -8   3    0.68    3.03
  -8  -8  -3   -1.83    5.32
  -8   8   3   -0.78    5.14
   8  -8   3    1.11    4.28
  -8  -7  -3   38.44    6.16
  -8  -7  -3   40.01    7.78
   8  -7   3   37.58    4.58
  -8   7   3   46.18    7.34
   8  -7   3   33.89    6.11
   8   6  -3   32.47    5.93
  -8  -6  -3   27.04    5.50
  -8  -6  -3   33.37    7.07
   8  -6   3   32.94    4.21
  -8   6   3   23.57    6.59
   8  -6   3   42.68    6.18
  -8  -5  -3  101.08    8.30
  -8  -5  -3  115.41   11.06
  -8   5   3   99.07    9.47
   8  -5   3   94.87    6.28
   8  -5   3   88.54    7.84
   8   5  -3  123.24    9.96
  -8   5   3   87.98    6.41
   8   4  -3   34.46    6.32
  -8  -4  -3   24.47    5.54
  -8   4   3   24.87    4.13
  -8  -4  -3   31.57    6.89
  -8   4   3   39.53    6.39
   8  -4   3   32.64    4.18
   8  -4   3   30.89    5.37
   8   3  -3    4.22    4.65
   8  -3   3    1.10    2.58
  -8  -3  -3    1.53    3.72
  -8   3   3    1.22    2.67
  -8  -3  -3    2.27    5.97
  -8   3   3    2.01    5.27
   8  -3   3    1.37    3.84
  -8  -2  -3  167.48   10.54
  -8  -2  -3  178.64   13.20
  -8   2   3  184.77   11.54
   8  -2   3  188.67    8.17
   8  -2   3  161.75   10.17
   8   2  -3  170.35   11.61
  -8   2   3  170.41    8.49
   8   1  -3   45.83    7.12
  -8  -1  -3   32.52    5.83
  -8  -1  -3   42.98    7.48
  -8   1   3   32.05    6.61
   8  -1   3   44.23    4.47
   8  -1   3   36.70    5.80
  -8   1   3   34.97    4.39
  -8   0  -3  119.30    9.12
  -8   0  -3  132.20   11.26
  -8   0   3  121.69    9.64
   8   0   3  122.84    9.01
   8   0   3  125.61    6.72
  -8   0   3  130.55    7.58
   8   0  -3  134.20   10.49
   8  -1  -3   43.36    7.29
  -8   1  -3   40.65    6.01
  -8   1  -3   41.66    7.23
  -8  -1   3   37.63    6.55
   8   1   3   41.02    4.28
  -8  -1   3   33.64    4.52
   8   1   3   31.96    5.72
  -8   2  -3  157.50   10.52
  -8   2  -3  169.25   12.54
  -8  -2   3  172.35    8.57
  -8  -2   3  168.05   11.02
   8  -2  -3  183.82   11.91
   8   2   3  148.03    9.78
   8  -2  -3  187.22    8.86
   8  -3  -3    4.96    4.98
  -8  -3   3    3.82    3.23
  -8   3  -3    3.86    4.10
  -8  -3   3    3.12    4.29
  -8   3  -3    2.91    4.87
   8   3   3    4.02    4.25
   8  -3  -3    1.77    3.36
   8  -4  -3   29.86    6.08
  -8  -4   3   29.35    4.18
  -8   4  -3   36.53    5.88
  -8  -4   3   26.24    5.85
  -8   4  -3   30.85    6.43
   8  -4  -3   37.29    4.89
   8   4   3   31.17    5.93
  -8   5  -3  105.57    9.14
  -8   5  -3   97.06    9.85
  -8  -5   3  103.89    8.75
   8   5   3   93.50    8.14
   8  -5  -3  100.17    6.93
  -8  -5   3  101.17    7.03
   8  -5  -3  106.39    9.78
   8  -6  -3   27.82    6.53
  -8  -6   3   31.42    4.78
  -8   6  -3   26.52    5.60
  -8  -6   3   35.39    5.96
  -8   6  -3   29.41    6.36
   8   6   3   37.12    6.09
   8  -6  -3   33.67    4.83
   8  -7  -3   37.58    6.88
  -8  -7   3   31.36    4.87
  -8   7  -3   34.70    6.31
  -8  -7   3   44.30    6.52
  -8   7  -3   44.11    7.49
   8   7   3   38.71    6.15
   8  -7  -3   37.46    5.23
   8  -8  -3    0.11    4.68
  -8  -8   3   -0.29    3.56
  -8   8  -3   -2.07    4.62
  -8   8  -3    2.47    4.86
   8  -8  -3    0.74    3.35
   8  -9  -3   20.08    6.46
  -8  -9   3   19.28    4.24
  -8   9  -3   18.79    5.57
  -8   9  -3   16.31    5.30
   8  -9  -3   17.63    4.76
   8 -10  -3   47.97    7.75
  -8  10  -3   29.59    6.20
   8 -10  -3   44.94    5.47
  -8 -10   3   43.91    5.39
   8 -11  -3   11.11    6.20
  -8 -11   3    7.96    3.93
  -8  11  -3   10.64    5.46
   8 -11  -3   11.19    3.94
  -8  12  -3   51.07    7.79
   8 -12  -3   42.66    8.02
  -8 -12   3   55.22    6.43
   8 -12  -3   44.23    6.17
   8 -13  -3   22.89    6.93
   8 -13  -3   18.99    5.00
  -8  13  -3   19.80    6.86
   8 -14  -3  102.83   10.28
  -9  10   3   93.37   10.12
   9 -10   3  101.01    9.56
   9  -9   3   48.10    5.72
  -9  -9  -3   40.67    8.45
  -9   9   3   40.96    7.56
   9  -9   3   45.50    6.90
   9  -8   3   15.91    3.92
  -9  -8  -3   10.72    6.45
  -9   8   3   15.00    7.06
   9  -8   3   16.21    5.71
  -9  -7  -3  124.84   12.36
  -9   7   3  113.44   10.79
   9  -7   3  130.88    8.05
   9  -7   3  136.35   10.18
   9   6  -3   -2.18    5.79
  -9  -6  -3    1.26    5.35
  -9  -6  -3    2.18    6.28
  -9   6   3   -0.56    6.09
   9  -6   3    0.25    3.06
   9  -6   3    3.81    5.34
  -9  -5  -3   83.46    8.44
  -9  -5  -3  100.40   10.93
  -9   5   3  111.14   10.46
   9  -5   3  109.37    7.16
   9  -5   3   82.67    8.50
   9   5  -3  105.80   10.20
   9   4  -3    1.45    5.19
  -9  -4  -3   -0.45    5.06
  -9  -4  -3    3.46    5.82
  -9   4   3    2.84    5.23
   9  -4   3    0.02    4.91
   9  -4   3    1.41    3.01
   9   3  -3   14.71    6.03
  -9   3   3    9.74    3.52
  -9  -3  -3   10.91    5.40
   9  -3   3   14.96    3.63
  -9  -3  -3   15.98    6.11
  -9   3   3   14.37    6.43
   9  -3   3   18.35    5.84
  -9  -2  -3  162.42   10.84
  -9  -2  -3  179.41   14.00
  -9   2   3  184.96   12.34
   9  -2   3  178.63    8.55
   9  -2   3  149.86   10.30
  -9   2   3  165.68    8.63
   9   2  -3  185.21   12.81
   9   1  -3   -2.80    5.12
   9  -1   3    0.63    2.95
  -9   1   3   -2.34    3.22
  -9  -1  -3   -0.48    4.23
  -9  -1  -3    2.50    5.62
  -9   1   3    0.09    5.05
   9  -1   3    2.19    4.94
   9   0   3   -0.37    2.77
   9   0  -3   -0.33    5.97
  -9   0   3    0.76    3.09
  -9   0  -3    1.33    4.47
  -9   0  -3    2.42    5.50
  -9   0   3    2.73    4.98
   9   0   3    1.84    4.26
   9  -1  -3   -0.07    5.42
  -9  -1   3   -0.64    3.20
  -9   1  -3   -0.29    5.13
  -9  -1   3    0.45    5.07
  -9   1  -3    0.48    5.57
   9   1   3    0.92    2.68
   9   1   3   -0.23    4.12
  -9   2  -3  168.97   11.19
  -9   2  -3  190.45   13.96
  -9  -2   3  191.80   12.20
   9   2   3  177.75   11.03
  -9  -2   3  186.21    9.37
   9  -2  -3  186.46   13.01
   9  -3  -3   14.03    6.73
  -9  -3   3   16.50    3.86
  -9   3  -3   18.43    5.46
  -9  -3   3   19.77    6.00
  -9   3  -3   10.14    5.68
   9   3   3   16.15    5.10
   9  -4  -3    0.52    5.81
  -9  -4   3   -0.32    3.38
  -9   4  -3    2.03    5.05
  -9  -4   3    1.97    4.95
  -9   4  -3    2.67    5.65
   9   4   3    2.78    5.01
  -9   5  -3   90.26    9.32
  -9   5  -3  104.38   10.53
  -9  -5   3   94.44    8.91
   9   5   3  106.06    9.14
  -9  -5   3   89.08    7.22
   9  -5  -3  105.28   10.44
   9  -6  -3    1.62    6.63
  -9  -6   3   -0.03    3.20
  -9   6  -3    0.10    5.60
  -9  -6   3    2.26    5.16
  -9   6  -3    0.97    5.69
   9   6   3    1.64    5.26
  -9   7  -3  120.22   10.26
  -9   7  -3  118.27   11.45
  -9  -7   3  121.25    8.23
   9  -7  -3  131.43   11.86
   9  -8  -3   12.58    7.07
  -9  -8   3   10.23    4.06
  -9   8  -3   17.10    6.13
  -9   8  -3   12.35    6.32
   9  -9  -3   39.97    7.69
  -9   9  -3   39.10    7.38
  -9   9  -3   43.07    8.18
  -9  -9   3   48.61    6.15
   9  -9  -3   37.16    5.48
  -9  10  -3  104.21   10.57
  -9  10  -3   89.51   10.70
   9 -10  -3  103.14    7.91
   9 -10  -3  107.90   11.03
   9 -11  -3    2.30    4.67
 -10  -6  -3    7.99    4.44
 -10  -5  -3   82.38    9.08
  10   5  -3   84.69   10.10
  10   4  -3    2.40    7.77
 -10  -4  -3   -0.06    6.24
 -10  -4  -3   -0.59    6.81
 -10   4   3    3.84    5.94
  10  -4   3    4.16    5.84
  10  -4   3    0.90    3.52
  10   3  -3   41.17    7.63
  10  -3   3   31.60    4.86
 -10  -3  -3   27.79    6.04
 -10  -3  -3   36.40    8.40
 -10   3   3   31.38    7.93
  10  -3   3   34.26    6.94
  10   2  -3   19.39    7.65
 -10  -2  -3   11.93    5.56
 -10  -2  -3   14.58    7.01
 -10   2   3   16.37    6.90
  10  -2   3   12.80    3.90
  10  -2   3   13.41    5.59
  10  -1   3    2.26    3.15
  10   1  -3   -0.76    6.75
 -10  -1  -3    4.75    5.12
 -10  -1  -3    1.80    6.67
 -10   1   3    1.56    5.80
  10  -1   3    4.45    5.80
 -10   0  -3  104.59    9.83
 -10   0  -3  111.80   12.05
 -10   0   3  127.03   11.19
  10   0   3  138.84    8.17
  10   0   3  130.84   10.40
 -10   0   3  123.37    8.08
  10   0  -3  116.61   11.40
  10  -1  -3    0.71    6.60
  10   1   3    3.92    3.05
 -10  -1   3    1.18    3.71
 -10   1  -3    4.98    5.88
 -10  -1   3    4.14    6.06
 -10   1  -3    6.20    6.51
  10   1   3    2.67    5.12
  10  -2  -3   11.02    6.67
 -10  -2   3   11.25    4.28
 -10   2  -3   16.02    5.73
 -10  -2   3   12.92    6.26
 -10   2  -3   12.53    6.51
  10   2   3   16.18    4.13
  10   2   3   11.61    5.26
  10  -3  -3   31.97    8.59
 -10  -3   3   28.98    5.38
 -10   3  -3   24.17    6.37
 -10  -3   3   31.38    7.08
 -10   3  -3   36.17    8.60
  10   3   3   37.99    6.83
  10  -4  -3    0.62    5.86
 -10  -4   3   -0.38    3.92
 -10   4  -3    4.43    6.18
 -10  -4   3    0.57    6.28
 -10   4  -3    0.67    6.80
  10   4   3    0.41    6.02
 -10   5  -3   89.99   11.04
 -10  -5   3   93.19    9.78
  10   5   3   96.16    9.41
 -10  -5   3   78.42    7.25
   0   0   4 1930.26   32.50
   0   0   4 1845.76   16.86
   0   0  -4 1979.25   34.98
   0  -1  -4   -0.27    4.67
   0   1  -4   -0.13    4.54
   0  -1  -4    0.95    1.94
   0  -1   4    1.38    1.50
   0   1   4   -0.22    4.51
   0  -1   4   -0.34    3.70
   0  -2  -4  110.21    6.26
   0   2   4  126.63    9.43
   0  -2   4  123.26    9.03
   0  -2   4  121.11    5.25
   0  -2  -4  124.07    9.86
   0   2  -4  118.10    9.50
   0  -3  -4   -4.03    4.45
   0   3  -4    0.67    4.40
   0  -3  -4   -0.62    2.18
   0  -3   4    1.02    1.87
   0   3   4    0.12    4.19
   0  -3   4   -1.03    4.01
   0  -3  -4   -1.18    3.67
   0  -4  -4   12.86    5.44
   0   4  -4   14.07    4.83
   0  -4  -4    8.42    3.02
   0  -4   4   10.15    2.46
   0  -4   4   12.26    2.82
   0   4   4   12.88    5.10
   0  -4   4    9.97    3.93
   0  -4  -4   12.28    4.00
   0  -5  -4   -0.63    4.86
   0   5  -4   -0.21    4.42
   0   5   4    1.10    4.35
   0  -5  -4    0.71    2.68
   0  -5   4    0.96    1.88
   0  -5   4    0.77    2.36
   0  -5   4   -0.68    3.88
   0  -5  -4   -0.22    3.36
   0  -6   4   82.08    5.23
   0  -6  -4   67.07    6.17
   0   6   4   77.73    7.91
   0  -6   4   70.10    7.13
   0  -6  -4   74.33    5.76
   0  -6   4   73.81    4.93
   0  -6  -4   90.94    8.83
   0   6  -4   72.07    7.99
   0  -7  -4    0.64    4.86
   0   7  -4    0.95    4.76
   0  -7  -4   -0.08    3.08
   0  -7   4    0.30    2.30
   0  -7   4    0.88    1.94
   0   7   4    0.29    4.73
   0  -7   4    1.60    4.12
   0  -7  -4   -0.15    3.22
   0  -8  -4   18.65    5.98
   0   8  -4   24.33    5.63
   0  -8  -4   20.51    4.56
   0  -8   4   24.05    3.59
   0  -8   4   24.03    3.25
   0   8   4   20.54    5.27
   0  -8   4   31.98    5.42
   0  -8  -4   23.39    3.99
   0  -9  -4    0.55    4.38
   0   9  -4   -0.58    4.91
   0  -9  -4    1.75    3.42
   0  -9   4    1.10    2.48
   0  -9   4    0.14    1.98
   0   9   4    0.98    4.24
   0  -9   4    1.45    3.92
   0  -9  -4   -0.85    3.31
   0 -10  -4    0.20    4.53
   0  10  -4    1.57    4.72
   0 -10  -4    1.27    3.90
   0 -10   4   -0.09    2.04
   0 -10   4    1.26    2.69
   0  10   4    0.45    4.31
   0 -10   4    1.42    3.92
   0 -10  -4    0.46    3.02
   0 -11  -4   -0.82    4.53
   0 -11  -4    3.86    3.72
   0 -11   4   -0.02    2.84
   0  11   4   -2.60    4.42
   0 -11   4    0.98    3.82
   0 -11  -4   -0.67    3.16
   0 -12  -4  777.40   23.15
   0 -12  -4  664.59   15.41
   0 -12   4  698.30   16.15
   0 -13  -4    1.69    4.87
   0 -13   4   -0.12    3.25
   0 -13  -4   -1.39    3.50
   0 -14  -4  166.62   12.34
   0 -14  -4  169.24    8.61
   0 -14   4  158.80    8.66
   0 -15   4   -2.15    3.79
   0 -15  -4    1.66    5.38
   0 -15  -4    0.14    3.57
   0 -16   4    5.02    4.00
   0 -16  -4    8.75    6.00
   0 -16  -4   -0.35    3.60
   0 -17   4    0.46    3.96
   0 -17  -4   -2.08    6.56
   0 -17  -4   -0.50    3.81
   0 -18  -4   40.98    6.34
  -1 -17  -4   48.27    8.07
   1 -17   4   49.75    6.29
  -1 -16  -4   28.34    6.81
   1 -16   4   20.74    4.79
  -1 -16  -4   18.82    4.59
  -1 -15  -4   36.98    7.29
   1 -15   4   37.77    5.26
  -1 -15  -4   35.62    4.86
  -1 -14  -4   12.77    5.09
   1 -14   4   17.33    4.14
  -1 -14  -4   10.25    3.87
  -1 -13  -4   20.49    5.93
   1 -13   4   16.82    4.16
  -1 -13  -4   20.06    4.28
  -1 -12  -4    4.63    4.50
   1 -12   4    1.55    3.22
   1 -12   4    0.23    2.77
  -1 -12  -4    0.49    3.13
  -1 -11  -4   28.47    5.72
  -1 -11  -4   26.16    5.53
   1 -11   4   28.16    4.19
  -1  11   4   20.76    5.18
   1 -11   4   27.98    5.57
  -1 -11  -4   26.86    4.27
  -1 -10  -4    0.46    4.85
   1  10  -4   -0.32    4.82
  -1 -10  -4    0.73    3.70
   1 -10   4   -0.13    2.67
  -1  10   4   -3.93    4.21
   1 -10   4    0.61    4.03
  -1 -10  -4    0.78    3.06
  -1  -9  -4    4.74    4.73
   1   9  -4    4.47    4.68
  -1  -9  -4    6.29    3.24
   1  -9   4    7.11    2.31
   1  -9   4    6.92    2.82
  -1   9   4    1.50    3.97
   1  -9   4    6.09    4.14
  -1  -9  -4    6.07    3.31
  -1  -8  -4   68.37    6.90
   1  -8   4   63.24    7.10
  -1  -8  -4   66.67    5.25
  -1   8   4   54.36    6.72
   1  -8   4   69.09    5.28
   1  -8   4   71.74    4.70
  -1  -8  -4   78.33    8.51
   1   8  -4   72.02    8.04
  -1  -7  -4  679.91   18.34
  -1   7   4  640.54   20.07
   1  -7   4  666.66   19.10
  -1  -7  -4  666.09   14.22
   1  -7   4  685.91   14.16
   1   7  -4  767.21   22.12
  -1  -7  -4  861.63   23.53
   1  -7   4  713.11   13.18
   1   6  -4    6.01    4.32
  -1  -6  -4    3.89    4.81
  -1  -6  -4    2.72    2.80
   1  -6   4    2.24    2.11
   1  -6   4    3.41    2.15
  -1   6   4    4.53    4.47
   1  -6   4    3.21    4.30
  -1  -6  -4    2.20    3.11
   1  -5   4  435.21   10.77
  -1  -5  -4  426.78   13.63
  -1   5   4  446.43   16.93
   1  -5   4  379.15   14.79
  -1  -5  -4  421.12   11.79
   1  -5   4  390.66   10.21
   1   5  -4  473.50   17.71
  -1  -5  -4  481.25   17.97
  -1  -4  -4  101.20    6.80
  -1   4   4  119.79    9.35
   1  -4   4   78.69    7.77
  -1  -4  -4  103.28    6.63
   1  -4   4   94.45    5.17
   1   4  -4  109.28    9.39
  -1  -4  -4  115.51    9.56
   1   3  -4   31.82    6.18
  -1  -3  -4   19.39    5.59
  -1  -3  -4   20.05    3.65
  -1   3   4   23.96    5.32
   1  -3   4   23.27    5.18
   1  -3   4   25.27    2.93
   1   2  -4    0.45    4.25
  -1  -2  -4    3.18    4.81
  -1  -2  -4    2.16    2.28
  -1   2   4    1.81    4.22
   1  -2   4    1.71    1.85
   1  -2   4    1.30    4.05
   1   1  -4   16.81    5.51
  -1  -1  -4   14.27    5.39
  -1  -1  -4   14.99    2.97
   1  -1   4   18.66    4.81
  -1   1   4   20.07    5.25
   1  -1   4   14.22    2.25
   1   0  -4    1.99    4.83
  -1   0  -4   -0.44    4.29
  -1   0  -4    1.17    2.11
  -1   0   4    0.42    4.19
   1   0   4    0.05    3.90
   1   0   4   -1.18    1.51
  -1  -1   4   14.66    2.47
   1  -1  -4   21.91    5.98
  -1   1  -4   16.32    4.76
  -1   1  -4   14.56    2.83
  -1  -1   4   17.21    4.99
   1   1   4   13.85    4.75
  -1  -2   4    1.52    1.81
   1  -2  -4    0.24    4.59
  -1   2  -4    1.58    4.97
  -1  -2   4    2.27    2.35
  -1  -2   4    5.54    3.71
   1   2   4    1.63    4.35
   1  -3  -4   29.91    3.90
  -1  -3   4   33.93    3.95
   1  -3  -4   36.25    6.81
  -1   3  -4   34.55    6.30
  -1  -3   4   31.36    5.78
   1   3   4   25.92    5.44
  -1  -3   4   27.98    3.18
   1  -3  -4   29.04    5.10
  -1   4  -4  102.51    9.18
   1  -4  -4   99.03    6.41
  -1  -4   4  107.66    6.22
  -1  -4   4   98.24    8.16
   1   4   4  109.70    9.12
   1  -4  -4   90.00    6.92
  -1  -4   4  107.02    5.44
   1  -4  -4  122.01    9.85
  -1   5  -4  409.52   16.89
  -1  -5   4  431.99   11.43
   1  -5  -4  435.79   13.27
  -1  -5   4  467.36   15.84
   1   5   4  461.23   17.48
   1  -5  -4  418.58   12.53
  -1  -5   4  425.44   10.45
   1  -5  -4  486.75   18.14
   1  -6  -4    3.27    4.81
  -1  -6   4    2.17    2.22
  -1   6  -4    2.25    4.78
   1  -6  -4    6.50    2.71
  -1  -6   4    3.33    2.51
  -1  -6   4    4.00    4.13
   1   6   4    2.81    4.20
   1  -6  -4    1.64    3.42
  -1   7  -4  686.68   21.78
   1  -7  -4  725.51   18.54
  -1  -7   4  785.01   19.78
   1   7   4  763.31   22.40
   1  -7  -4  658.54   15.07
  -1  -7   4  685.80   13.90
  -1  -7   4  714.12   14.22
   1  -7  -4  795.39   22.56
  -1   8  -4   61.56    7.61
   1  -8  -4   74.71    6.92
   1   8   4   81.56    8.39
  -1  -8   4   74.92    7.17
   1  -8  -4   64.73    5.55
  -1  -8   4   74.00    5.33
  -1  -8   4   66.39    4.93
   1  -8  -4   68.30    8.02
   1  -9  -4    7.31    4.53
  -1  -9   4    9.49    3.09
  -1   9  -4    8.39    4.86
   1  -9  -4    5.83    3.57
  -1  -9   4    8.80    2.64
   1   9   4   11.38    5.21
  -1  -9   4    8.46    3.86
   1  -9  -4    5.99    3.58
   1 -10  -4    2.90    4.54
  -1 -10   4    0.65    2.87
  -1  10  -4    0.66    4.94
   1 -10  -4   -1.93    3.69
  -1 -10   4    0.12    2.46
   1  10   4    0.34    4.52
  -1 -10   4    0.25    3.68
   1 -10  -4    0.86    3.44
   1 -11  -4   26.95    5.51
  -1  11  -4   30.35    6.20
   1 -11  -4   25.63    5.44
  -1 -11   4   21.67    3.52
  -1 -11   4   22.21    4.28
  -1 -11   4   30.60    4.40
   1 -11  -4   28.12    4.75
   1 -12  -4   -0.76    4.35
  -1 -12   4    1.55    3.19
   1 -12  -4    0.02    4.47
  -1 -12   4    3.75    2.47
   1 -12  -4    1.42    3.86
  -1 -13   4   13.90    3.83
   1 -13  -4   15.17    5.62
   1 -13  -4   20.94    4.28
  -1 -14   4   12.75    4.20
   1 -14  -4    7.38    5.18
   1 -14  -4   11.08    4.30
   1 -15  -4   38.51    5.18
   1 -15  -4   35.29    7.25
  -1 -15   4   48.46    5.84
  -1 -16   4   30.58    5.17
   1 -16  -4   18.49    4.69
   1 -16  -4   19.09    6.29
  -1 -17   4   48.52    6.26
   1 -17  -4   37.64    6.06
  -2 -16  -4   23.23    6.68
   2 -16   4   16.51    4.70
  -2 -15  -4   48.81    7.96
   2 -15   4   42.30    5.64
  -2 -14  -4   97.12    9.90
   2 -14   4  114.38    7.83
  -2 -13  -4   12.47    4.97
   2 -13   4   13.72    3.72
  -2 -13  -4    4.97    2.44
  -2 -12  -4  264.27   14.32
  -2  12   4  207.65   11.63
   2 -12   4  234.78   12.16
  -2 -12  -4  268.85    9.60
   2 -12   4  246.00   10.38
  -2 -11  -4  319.11   15.20
  -2 -11  -4    1.75    2.39
  -2  11   4  260.62   13.17
   2 -11   4  271.53   12.89
  -2 -11  -4  319.31   10.17
   2 -11   4  310.50   11.24
  -2 -10  -4   12.36    5.63
  -2 -10  -4   10.14    4.02
  -2  10   4    8.95    4.82
   2 -10   4    7.98    3.13
   2 -10   4    8.95    4.51
  -2 -10  -4   11.42    3.41
   2   9  -4   21.03    5.73
  -2  -9  -4   20.40    5.91
  -2  -9  -4   21.13    5.10
  -2   9   4   14.66    5.38
   2  -9   4   17.11    3.47
   2  -9   4    9.99    4.61
  -2  -9  -4   23.09    3.87
   2   8  -4   -1.66    3.99
  -2  -8  -4    2.07    4.69
  -2  -8  -4    0.75    3.87
   2  -8   4   -0.67    4.07
   2  -8   4    0.80    2.69
  -2  -8  -4   -0.89    2.76
   2  -7   4   35.40    3.49
   2  -7   4   32.76    3.89
   2   7  -4   37.92    6.64
  -2  -7  -4   46.39    6.91
  -2  -7  -4   33.40    5.25
  -2   7   4   24.22    5.25
  -2  -7  -4   43.63    4.35
   2  -7   4   39.75    5.97
   2  -6   4   35.18    3.77
   2  -6   4   37.64    3.61
   2   6  -4   44.10    6.93
  -2  -6  -4   28.77    6.37
  -2  -6  -4   32.37    5.01
  -2   6   4   28.58    5.45
  -2  -6  -4   36.61    4.34
   2  -6   4   32.50    5.86
   2   5  -4    7.80    4.78
  -2  -5  -4   10.37    4.87
  -2  -5  -4    8.05    3.53
   2  -5   4    6.25    2.35
  -2   5   4    7.41    4.01
   2  -5   4   11.99    5.12
  -2  -5  -4    7.44    3.40
   2  -5   4    8.36    2.44
   2  -4   4    6.35    2.18
   2   4  -4    9.29    4.82
  -2  -4  -4    6.27    4.66
  -2  -4  -4    5.14    2.97
  -2   4   4    6.82    4.76
   2  -4   4    5.82    4.07
  -2  -4  -4    5.55    3.31
  -2  -3  -4   79.97    8.45
   2  -3   4   87.09    4.88
  -2  -3  -4  105.58    7.20
  -2   3   4   84.79    8.23
   2  -3   4   89.61    7.82
   2   3  -4  101.61    9.19
  -2  -2  -4   98.01    8.93
  -2  -2  -4   94.65    6.65
   2  -2   4  109.17    5.11
  -2   2   4  101.24    8.81
   2  -2   4   91.86    8.14
   2   2  -4  111.83    9.58
  -2  -1  -4  212.89   12.38
  -2  -1  -4  239.50    9.77
   2  -1   4  225.59    6.83
  -2   1   4  260.36   13.09
   2  -1   4  215.40   11.65
   2   1  -4  253.27   13.70
  -2   0  -4  510.28   18.27
  -2   0  -4  538.82   14.04
   2   0   4  565.38   10.03
  -2   0   4  616.74   19.03
   2   0   4  556.47   17.91
   2   0  -4  627.09   20.74
  -2   1  -4  227.26   12.72
  -2  -1   4  244.23    9.25
  -2   1  -4  228.16    9.10
   2   1   4  223.36    6.27
  -2  -1   4  244.36   12.30
  -2  -1   4  246.30    7.29
   2   1   4  235.68   12.42
   2  -1  -4  233.43   13.45
  -2   2  -4   99.80    8.95
  -2  -2   4  115.92    6.64
  -2   2  -4  104.56    6.27
  -2  -2   4  117.72    8.94
   2   2   4  108.46    9.04
  -2  -2   4  111.55    5.41
   2  -2  -4  109.05    9.90
  -2   3  -4   90.07    8.65
  -2  -3   4  102.83    6.23
  -2   3  -4   89.88    5.83
  -2  -3   4   97.92    8.16
   2   3   4   86.90    8.26
  -2  -3   4   84.27    5.04
   2  -3  -4   91.02    7.27
   2  -3  -4  103.33    9.39
   2  -4  -4    7.11    5.27
   2  -4  -4    8.10    2.73
  -2   4  -4    6.77    4.95
  -2  -4   4    8.08    2.96
  -2  -4   4   10.40    4.55
   2   4   4    5.32    4.58
   2  -4  -4    5.20    3.74
  -2  -4   4    9.22    2.73
  -2  -5   4    9.15    2.80
   2  -5  -4    5.45    4.90
   2  -5  -4    7.45    2.97
  -2   5  -4    7.20    4.78
  -2  -5   4   10.21    3.10
  -2  -5   4   14.60    4.71
   2   5   4    7.30    4.19
   2  -5  -4   12.06    4.41
   2  -6  -4   41.54    6.71
   2  -6  -4   29.95    4.50
  -2   6  -4   33.61    5.91
  -2  -6   4   38.28    5.60
   2  -6  -4   37.06    5.09
  -2  -6   4   32.47    3.82
   2   6   4   36.27    6.85
  -2  -6   4   40.56    4.40
   2  -7  -4   43.70    6.79
   2  -7  -4   33.13    4.92
  -2   7  -4   31.73    6.33
   2  -7  -4   41.47    4.95
  -2  -7   4   38.80    5.77
  -2  -7   4   41.26    4.43
   2   7   4   31.33    6.28
  -2  -7   4   31.38    4.02
  -2  -8   4    1.41    2.71
   2  -8  -4   -0.14    4.78
   2  -8  -4   -0.14    3.43
  -2   8  -4    1.52    4.76
  -2  -8   4    0.00    2.52
  -2  -8   4   -0.71    3.84
   2   8   4    0.52    4.90
   2  -8  -4    3.75    3.28
  -2  -9   4   23.20    3.78
   2  -9  -4   26.15    6.28
   2  -9  -4    8.53    3.76
  -2   9  -4   19.30    5.82
  -2  -9   4   20.19    3.47
  -2  -9   4   21.48    4.54
   2   9   4   20.60    5.78
   2  -9  -4   23.50    4.43
  -2 -10   4   17.52    3.78
   2 -10  -4   12.36    5.35
   2 -10  -4   10.98    4.27
  -2  10  -4    6.79    5.04
  -2 -10   4   12.30    3.39
  -2 -10   4   10.92    4.13
   2  10   4   12.90    5.00
   2 -10  -4    7.91    3.71
  -2  11  -4  286.26   15.14
   2 -11  -4  282.88   10.90
  -2 -11   4  303.95   10.97
  -2 -11   4  306.04   10.08
   2 -11  -4  319.13   14.00
   2 -11  -4  268.44   13.86
   2 -12  -4  257.37   10.65
  -2 -12   4  270.30   10.70
  -2 -12   4  247.47    9.32
   2 -12  -4  285.44   13.17
  -2 -13   4   10.78    4.04
  -2 -13   4    9.94    3.08
   2 -13  -4   13.22    4.23
   2 -14  -4   97.29    7.42
  -2 -14   4  107.00    7.70
   2 -15  -4   41.79    5.68
  -2 -15   4   40.68    5.78
   2 -16  -4   14.75    4.95
  -2 -16   4   25.09    5.24
   2 -17  -4    0.81    4.20
  -3 -16  -4  143.29   12.22
   3 -16   4  133.72    9.03
  -3 -15  -4   17.25    6.00
   3 -15   4   16.87    4.66
  -3 -14  -4   31.79    6.62
   3 -14   4   28.79    5.03
  -3 -13  -4   12.66    5.09
   3 -13   4   10.94    3.81
  -3 -12  -4    2.04    4.76
  -3  12   4    3.88    5.02
   3 -12   4    3.44    3.43
   3 -12   4    0.93    4.71
  -3 -11  -4   26.74    5.63
  -3  11   4   19.95    5.41
   3 -11   4   26.28    5.41
   3 -11   4   20.88    4.21
  -3 -10  -4    7.37    5.34
  -3 -10  -4    6.77    4.68
  -3  10   4    4.68    5.05
   3 -10   4    4.79    3.88
   3 -10   4    4.88    3.18
   3  -9   4   72.77    5.70
  -3  -9  -4   69.60    7.60
  -3   9   4   63.59    7.56
   3  -9   4   77.25    7.73
   3   9  -4   68.40    7.99
  -3  -9  -4   99.01    9.44
  -3  -8  -4  375.91   15.46
   3  -8   4  358.41   11.03
  -3   8   4  312.68   14.86
   3  -8   4  352.08   14.54
  -3  -8  -4  382.16   10.18
   3   8  -4  315.39   14.85
  -3  -8  -4  361.62   16.42
  -3  -7  -4  139.05   10.63
  -3  -7  -4  135.41    9.47
   3  -7   4  121.64    6.55
  -3   7   4  102.77    9.22
   3  -7   4  113.40    8.80
  -3  -7  -4  129.85    6.27
   3   7  -4  116.05    9.80
   3  -6   4   22.45    3.37
   3   6  -4   17.77    5.75
  -3  -6  -4   24.97    6.04
  -3  -6  -4   24.19    4.85
  -3   6   4   16.93    5.17
   3  -6   4   25.12    5.75
  -3  -6  -4   26.89    3.81
  -3  -5  -4  105.14    9.35
  -3  -5  -4  123.39    8.59
   3  -5   4  116.87    6.03
  -3   5   4  102.29    9.25
  -3  -5  -4  128.53    6.53
   3  -5   4  123.56    9.26
   3   5  -4  102.64    9.45
  -3  -4  -4  531.79   18.80
  -3  -4  -4  575.63   17.12
   3  -4   4  556.39   11.91
   3  -4   4  566.32   17.80
  -3  -4  -4  559.31   12.71
   3   4  -4  568.65   19.96
  -3  -3  -4   71.37    8.03
  -3  -3  -4   76.91    6.73
   3  -3   4   69.99    4.50
  -3   3   4   65.63    7.60
   3  -3   4   72.99    7.32
  -3  -3  -4   67.21    5.48
   3   3  -4   70.31    8.45
   3   2  -4    3.16    5.14
  -3  -2  -4    0.10    4.75
  -3  -2  -4   -0.14    3.02
   3  -2   4    2.28    1.72
  -3   2   4    2.03    2.76
  -3   2   4    1.85    4.50
   3  -2   4    2.41    3.99
   3   1  -4   37.46    5.86
   3  -1   4   26.46    2.90
  -3  -1  -4   31.48    5.93
  -3  -1  -4   23.95    4.42
  -3   1   4   28.32    4.09
  -3   1   4   30.64    5.75
   3  -1   4   24.53    5.30
   3   0  -4    1.30    5.49
  -3   0  -4   -0.06    4.24
  -3   0  -4   -0.04    3.14
  -3   0   4   -0.35    2.90
   3   0   4   -0.83    1.33
  -3   0   4    1.41    4.60
   3   0   4    1.59    3.87
  -3  -1   4   35.12    4.30
   3  -1  -4   33.73    6.49
   3   1   4   31.81    2.83
  -3   1  -4   25.09    5.42
  -3   1  -4   29.86    4.40
  -3  -1   4   32.16    5.73
   3   1   4   26.17    5.52
   3  -2  -4    2.33    5.10
  -3   2  -4    1.78    4.63
  -3   2  -4    2.10    2.92
  -3  -2   4    0.54    2.78
  -3  -2   4    1.82    4.53
  -3  -2   4   -1.26    2.06
   3   2   4    0.97    4.08
   3  -2  -4    0.77    4.35
  -3   3  -4   67.90    7.57
  -3   3  -4   81.17    6.31
  -3  -3   4   77.16    5.02
  -3  -3   4   77.50    7.57
   3   3   4   69.74    7.47
   3  -3  -4   79.12    7.04
   3  -3  -4   71.88    8.53
  -3  -3   4   84.29    6.02
  -3   4  -4  583.21   19.53
  -3   4  -4  563.89   15.04
  -3  -4   4  584.83   12.73
  -3  -4   4  602.24   18.38
   3   4   4  595.67   19.44
   3  -4  -4  579.36   15.64
  -3  -4   4  612.19   14.36
  -3   5  -4  116.04    9.60
  -3  -5   4  124.61    8.98
  -3  -5   4  127.22    6.62
   3   5   4  129.89   10.05
   3  -5  -4  113.75    7.58
   3  -5  -4  139.41   10.90
  -3  -5   4  131.78    7.18
   3  -6  -4   25.92    6.03
  -3   6  -4   21.29    5.88
  -3  -6   4   22.45    3.58
  -3  -6   4   21.23    5.14
   3   6   4   28.48    6.23
  -3  -6   4   25.42    3.75
   3  -6  -4   24.24    4.59
  -3   7  -4  140.80   10.66
  -3  -7   4  117.38    8.57
   3   7   4  127.38   10.55
  -3  -7   4  129.91    7.05
   3  -7  -4  131.43    7.86
  -3  -7   4  127.27    7.04
   3  -7  -4  133.04   10.40
  -3   8  -4  373.79   16.57
  -3  -8   4  379.79   14.01
   3   8   4  374.70   17.10
  -3  -8   4  367.44   11.56
   3  -8  -4  369.19   12.26
  -3  -8   4  366.37   11.25
   3  -8  -4  351.95   15.66
  -3   9  -4   81.45    8.89
  -3  -9   4   83.26    7.22
   3   9   4   76.95    9.03
  -3  -9   4   73.64    5.91
   3  -9  -4   71.21    6.42
  -3  -9   4   76.88    5.70
   3  -9  -4   85.14    8.59
   3 -10  -4    2.07    5.41
  -3  10  -4    6.50    5.23
  -3 -10   4    4.31    2.91
  -3 -10   4    3.10    3.11
   3 -10  -4    3.68    3.69
  -3 -10   4    4.93    3.30
   3 -11  -4   28.87    6.15
  -3  11  -4   20.30    6.35
  -3 -11   4   24.54    3.99
   3 -11  -4   23.37    4.83
  -3 -11   4   24.85    4.50
   3 -12  -4    6.32    4.89
  -3  12  -4    6.17    6.01
  -3 -12   4    1.67    2.78
   3 -12  -4    3.76    3.67
  -3 -12   4    1.30    3.50
   3 -13  -4    2.45    3.37
  -3 -13   4   11.45    3.26
   3 -13  -4   13.96    4.63
  -3 -13   4   13.31    4.36
  -3 -14   4   31.02    4.66
   3 -14  -4   29.23    5.38
  -3 -14   4   32.81    5.27
  -3 -15   4   12.04    3.23
   3 -15  -4   16.25    5.04
  -3 -15   4   15.18    4.83
   3 -16  -4  115.21    8.59
  -3 -16   4  136.64    9.11
  -4 -15  -4   57.65    7.89
   4 -15   4   51.51    6.35
  -4 -14  -4   33.01    6.93
   4 -14   4   31.43    5.36
  -4 -13  -4   10.67    5.14
   4 -13   4    0.00    3.57
   4 -13   4   11.38    4.04
  -4 -12  -4   -0.69    5.17
  -4  12   4    0.66    4.91
   4 -12   4    0.52    4.66
   4 -12   4    4.74    3.48
  -4 -11  -4  266.77   14.85
   4 -11   4  241.89   10.43
  -4  11   4  221.18   12.93
   4 -11   4  245.72   12.65
  -4 -10  -4   95.47    9.25
   4 -10   4   96.41    6.81
  -4  10   4   94.56    9.15
   4 -10   4   92.76    8.44
   4  -9   4   32.62    4.28
  -4  -9  -4   31.79    6.64
  -4  -9  -4   31.31    6.03
  -4   9   4   30.05    6.08
   4  -9   4   26.93    5.65
  -4  -8  -4  103.32    9.82
  -4  -8  -4   86.88    8.59
   4  -8   4   90.81    6.14
  -4   8   4   85.27    8.67
   4  -8   4   97.12    8.56
   4   8  -4   84.19    8.65
   4   7  -4   24.14    6.26
   4  -7   4   33.60    4.08
  -4  -7  -4   24.97    6.28
  -4  -7  -4   29.68    5.62
  -4   7   4   20.02    5.86
   4  -7   4   30.87    5.64
   4   6  -4    7.68    4.79
  -4  -6  -4    4.78    4.98
   4  -6   4    9.03    2.81
  -4  -6  -4    2.97    3.98
  -4   6   4    7.60    5.33
   4  -6   4   13.34    5.14
   4   5  -4   -0.12    4.55
  -4  -5  -4    0.44    4.64
  -4  -5  -4    5.11    3.25
   4  -5   4    1.23    2.08
  -4   5   4   -0.13    4.86
  -4   5   4    0.39    3.15
   4  -5   4    0.46    4.39
  -4  -4  -4  110.13    9.49
  -4   4   4  123.41    7.50
  -4  -4  -4  124.03    9.11
   4  -4   4  119.02    6.06
  -4   4   4  109.78    9.48
   4  -4   4  125.21    9.24
   4   4  -4  111.51   10.00
  -4  -3  -4  129.17    9.95
  -4   3   4  142.07    7.95
  -4  -3  -4  138.67    9.43
   4  -3   4  136.29    6.15
  -4   3   4  116.09   10.02
   4  -3   4  132.32    9.30
  -4  -3  -4  116.79    6.23
   4   3  -4  115.82   10.50
  -4  -2  -4   81.55    8.25
  -4   2   4   96.40    6.72
  -4  -2  -4   84.99    7.45
   4  -2   4   84.05    4.81
  -4   2   4   68.28    8.07
   4  -2   4   98.59    8.50
   4   2  -4   87.41    9.23
  -4   1   4  198.36    8.99
  -4  -1  -4  208.83   12.05
  -4  -1  -4  186.61   10.39
   4  -1   4  199.04    6.73
  -4   1   4  176.72   11.54
   4  -1   4  177.70   10.73
   4   1  -4  160.28   11.84
   4   0  -4    1.66    4.32
  -4   0  -4    1.11    3.98
  -4   0  -4    1.70    3.35
  -4   0   4    2.11    2.87
  -4   0   4    1.08    4.52
   4   0   4    3.31    4.04
   4   0   4    1.50    1.70
  -4   1  -4  200.39   11.80
  -4   1  -4  208.03   10.57
   4   1   4  207.50    6.48
  -4  -1   4  176.63   11.23
   4   1   4  196.95   11.32
   4  -1  -4  210.27   10.94
   4  -1  -4  195.92   12.87
  -4  -1   4  217.11    9.35
  -4   2  -4   90.56    8.66
  -4   2  -4   87.93    7.43
  -4  -2   4   76.28    8.00
   4   2   4   87.93    8.41
   4  -2  -4   91.60    7.60
   4  -2  -4   87.72    9.45
  -4  -2   4  101.68    6.70
  -4   3  -4  157.08   10.65
  -4   3  -4  120.29    8.22
  -4  -3   4  144.72   10.14
   4   3   4  138.85    9.84
   4  -3  -4  129.85    8.63
   4  -3  -4  117.68   10.59
  -4  -3   4  145.86    7.69
  -4   4  -4  122.99    9.86
  -4   4  -4  101.77    7.59
  -4  -4   4  134.30    9.56
   4   4   4  114.93    9.43
   4  -4  -4  122.59    8.36
   4  -4  -4  103.33    9.81
  -4  -4   4  108.68    6.81
   4  -5  -4   -0.56    5.46
  -4   5  -4    0.88    4.94
  -4  -5   4    1.05    2.66
  -4   5  -4    0.66    3.06
  -4  -5   4   -0.70    4.49
  -4  -5   4   -1.14    2.71
   4   5   4    1.14    4.72
   4  -5  -4    0.53    4.17
   4  -6  -4   12.92    5.90
  -4   6  -4    6.68    4.93
  -4  -6   4    9.65    3.30
  -4   6  -4   10.91    3.53
  -4  -6   4   13.19    4.61
  -4  -6   4    7.47    3.21
   4   6   4    8.87    4.96
   4  -6  -4   10.26    4.03
   4  -7  -4   35.85    6.98
  -4   7  -4   33.04    6.46
  -4  -7   4   33.12    5.89
  -4  -7   4   29.18    4.32
   4   7   4   30.88    6.58
  -4  -7   4   31.68    4.34
   4  -7  -4   29.13    5.05
  -4   8  -4  100.71    9.41
  -4  -8   4   98.73    8.20
  -4  -8   4   97.26    6.81
   4   8   4   93.24    9.87
   4  -8  -4   90.75    6.99
  -4  -8   4   95.56    6.54
   4  -8  -4   94.95    9.18
   4  -9  -4   35.54    6.84
  -4   9  -4   38.16    6.47
  -4  -9   4   30.26    4.35
  -4  -9   4   38.59    6.05
   4   9   4   23.69    6.62
  -4  -9   4   33.22    4.77
   4  -9  -4   30.29    5.08
  -4  10  -4  101.40    9.64
  -4 -10   4  115.14    7.69
   4 -10  -4  104.42    7.56
  -4 -10   4  104.39    6.81
   4 -10  -4  111.67    9.73
  -4  11  -4  252.62   14.56
  -4 -11   4  279.29   11.42
   4 -11  -4  244.15   10.86
  -4 -11   4  246.17   10.13
   4 -11  -4  262.84   13.74
   4 -12  -4    0.13    4.90
  -4  12  -4    5.57    6.24
  -4 -12   4    1.04    3.08
  -4 -12   4    0.36    4.01
   4 -12  -4    1.74    4.25
   4 -13  -4    9.64    5.23
  -4 -13   4    6.69    3.46
  -4 -13   4   10.31    4.31
   4 -13  -4    5.99    4.36
  -4 -14   4   24.35    4.62
  -4 -14   4   29.54    5.31
   4 -14  -4   26.62    5.40
  -4 -15   4   58.80    6.54
   4 -15  -4   51.10    6.55
  -4 -15   4   46.47    5.19
  -4 -16   4   41.23    5.48
  -5 -14  -4   -0.16    6.07
   5 -14   4    1.01    3.71
   5 -13   4   16.93    4.39
  -5 -13  -4   19.38    5.80
   5 -13   4   17.19    5.44
   5 -12   4    2.79    3.26
  -5 -12  -4    5.71    5.30
  -5  12   4    7.83    5.30
   5 -12   4    6.03    4.99
   5 -11   4   31.41    4.78
  -5 -11  -4   35.72    6.98
  -5  11   4   33.99    6.80
   5 -11   4   22.95    5.91
   5 -10   4   11.34    3.70
  -5 -10  -4   13.05    5.68
  -5  10   4   14.75    5.41
  -5  10   4   10.74    4.21
   5 -10   4   12.41    5.02
  -5  -9  -4  120.99   10.72
  -5   9   4  161.27    9.25
  -5  -9  -4  151.31   11.66
   5  -9   4  138.92    7.86
  -5   9   4  137.48   10.91
   5  -9   4  132.01    9.83
  -5  -8  -4   75.67    8.99
  -5   8   4   76.59    6.74
  -5  -8  -4   73.46    8.38
   5   8  -4   53.76    7.12
   5  -8   4   65.87    5.54
  -5   8   4   61.62    7.86
   5  -8   4   62.27    7.52
   5   7  -4   27.62    6.47
  -5  -7  -4   18.12    5.99
  -5  -7  -4   24.48    5.62
   5  -7   4   23.69    3.64
  -5   7   4   35.71    7.14
  -5   7   4   29.29    4.66
   5  -7   4   21.85    5.14
   5   6  -4    4.31    5.39
  -5  -6  -4    9.82    4.88
  -5  -6  -4   12.95    5.19
  -5   6   4   10.86    3.73
  -5   6   4   12.20    5.23
   5  -6   4    8.76    2.84
   5  -6   4   13.38    5.29
   5   5  -4    2.28    5.12
  -5  -5  -4   -1.61    4.78
  -5  -5  -4    0.30    4.00
  -5   5   4    2.72    3.00
  -5   5   4    1.05    5.35
   5  -5   4   -1.41    2.23
   5  -5   4    0.85    4.60
  -5   4   4  156.27    8.60
  -5  -4  -4  147.27   10.56
  -5  -4  -4  154.62   10.70
   5  -4   4  155.08    6.91
  -5   4   4  156.21   11.51
   5  -4   4  167.35   10.59
   5   4  -4  144.35   11.45
  -5   3   4  360.47   12.40
  -5  -3  -4  321.49   14.77
  -5  -3  -4  348.03   15.24
   5  -3   4  338.31    9.57
  -5   3   4  328.41   15.65
   5  -3   4  336.11   14.33
   5   3  -4  300.48   15.73
   5  -2   4    6.67    2.26
   5   2  -4    2.48    5.50
  -5  -2  -4   12.89    5.00
  -5  -2  -4   10.08    4.10
  -5   2   4   10.76    3.53
  -5   2   4    9.11    5.60
   5  -2   4    3.97    4.80
   5   1  -4   51.26    7.93
  -5  -1  -4   45.04    6.74
   5  -1   4   43.01    3.67
  -5  -1  -4   46.86    6.44
  -5   1   4   43.81    6.89
   5  -1   4   42.63    6.39
  -5   1   4   49.01    5.37
   5   0  -4    0.89    5.53
   5   0   4    0.26    1.91
  -5   0  -4   -0.34    4.47
  -5   0   4    0.14    3.01
  -5   0  -4   -0.08    4.05
  -5   0   4   -0.21    5.09
   5   0   4   -0.05    4.21
   5   0  -4   -0.98    4.86
   5  -1  -4   48.61    7.91
  -5   1  -4   53.07    6.66
  -5   1  -4   42.01    6.76
  -5  -1   4   54.27    7.21
   5   1   4   56.14    3.86
   5   1   4   52.22    6.77
   5  -1  -4   55.81    6.93
  -5  -1   4   50.17    5.25
   5  -2  -4    3.07    6.44
  -5   2  -4    5.33    5.03
  -5  -2   4    9.21    3.29
  -5   2  -4    5.26    4.17
  -5  -2   4    7.29    5.17
   5   2   4    4.89    2.04
   5   2   4    7.43    4.75
   5  -2  -4    5.17    4.61
  -5   3  -4  334.06   15.22
  -5   3  -4  331.25   13.95
  -5  -3   4  342.94   15.29
   5   3   4  364.84   15.48
   5  -3  -4  338.89   13.14
   5  -3  -4  364.99   17.32
  -5  -3   4  327.83   11.56
  -5   4  -4  165.66   11.41
  -5   4  -4  167.97   10.19
  -5  -4   4  166.76   10.96
   5   4   4  158.13   11.00
   5  -4  -4  147.32    9.17
   5  -4  -4  146.13   11.88
  -5  -4   4  157.36    8.24
   5  -5  -4    2.63    5.56
  -5   5  -4    3.44    5.41
  -5  -5   4    0.75    3.25
  -5   5  -4    1.85    3.46
  -5  -5   4    2.11    4.35
   5   5   4    0.56    4.54
   5  -5  -4   -0.14    3.95
   5  -6  -4   15.11    5.57
  -5   6  -4   11.72    5.81
  -5  -6   4   10.65    3.53
  -5   6  -4    9.49    4.00
  -5  -6   4   11.75    5.17
   5   6   4    9.63    5.00
   5  -6  -4    7.93    4.43
   5  -7  -4   27.04    6.69
  -5   7  -4   26.77    5.97
  -5  -7   4   24.94    4.39
  -5   7  -4   24.89    4.85
  -5  -7   4   34.79    6.42
   5   7   4   17.72    6.32
   5  -7  -4   29.07    4.93
  -5   8  -4   59.33    8.03
  -5  -8   4   57.33    7.44
   5  -8  -4   72.00    6.47
   5   8   4   63.36    8.25
  -5  -8   4   64.55    5.75
   5  -8  -4   60.70    8.08
  -5   9  -4  141.96   11.27
  -5  -9   4   44.11    5.63
   5  -9  -4  127.21    8.46
  -5  -9   4  140.02    8.06
   5  -9  -4  120.44   10.37
   5 -10  -4   14.05    5.79
  -5  10  -4   13.90    5.60
  -5 -10   4   12.64    3.95
   5 -10  -4   14.78    4.84
   5 -11  -4   33.14    6.41
  -5 -11   4   24.90    4.46
  -5  11  -4   32.49    7.10
   5 -11  -4   33.36    5.69
   5 -12  -4    6.85    5.30
  -5 -12   4    3.35    3.26
  -5  12  -4    3.03    6.72
   5 -12  -4    6.67    4.76
   5 -13  -4   17.30    6.26
  -5 -13   4   12.36    3.93
  -5 -13   4   13.94    4.81
   5 -13  -4   16.37    5.30
  -5 -14   4    2.39    3.63
  -5 -14   4   -0.95    4.22
   5 -14  -4    1.26    4.35
  -5 -15   4  181.63    9.66
   6 -13   4    0.87    3.89
  -6  13   4   -0.09    6.53
   6 -13   4   -0.84    6.16
   6 -12   4   60.49    6.35
  -6 -12  -4   64.91    8.94
  -6  12   4   58.46    8.12
   6 -12   4   43.45    6.91
   6 -11   4    7.60    3.82
  -6 -11  -4    5.82    5.87
  -6  11   4    9.59    5.71
   6 -11   4    3.02    5.52
  -6 -10  -4  130.50   11.10
   6 -10   4  117.40    7.70
  -6  10   4  143.62   11.22
   6 -10   4  114.23    9.70
  -6  -9  -4   17.39    5.86
   6  -9   4   17.72    4.05
  -6   9   4   16.56    4.56
  -6   9   4   14.29    6.21
   6  -9   4   21.11    5.68
  -6   8   4  252.74   11.52
  -6  -8  -4  214.25   13.61
  -6  -8  -4  268.30   15.18
   6  -8   4  239.30    9.88
  -6   8   4  229.99   14.00
   6  -8   4  213.81   12.27
   6   7  -4   -3.38    5.50
  -6  -7  -4    2.68    5.38
  -6  -7  -4    1.40    5.28
  -6   7   4    2.10    3.39
  -6   7   4    3.26    5.54
   6  -7   4    0.91    2.84
   6  -7   4    3.00    4.30
   6   6  -4   22.02    6.21
  -6  -6  -4   22.64    5.73
  -6  -6  -4   21.66    6.14
  -6   6   4   20.73    4.46
  -6   6   4   16.76    5.67
   6  -6   4   21.72    3.69
   6  -6   4   21.16    5.83
   6   5  -4    9.27    5.36
  -6  -5  -4   14.13    5.81
  -6  -5  -4   15.50    5.67
  -6   5   4   14.21    4.15
  -6   5   4   13.07    6.20
   6  -5   4   12.56    5.35
   6  -5   4   14.48    3.11
  -6  -4  -4  245.47   13.39
  -6  -4  -4  264.49   14.53
   6  -4   4  259.88    9.12
  -6   4   4  258.11   14.61
   6  -4   4  264.30   13.23
   6   4  -4  203.70   13.36
  -6   4   4  265.71   11.19
   6   3  -4   28.29    7.27
  -6  -3  -4   31.46    6.35
   6  -3   4   29.98    3.66
  -6  -3  -4   38.19    6.58
  -6   3   4   30.04    4.37
  -6   3   4   33.74    6.35
   6  -3   4   32.62    6.01
   6   2  -4   39.34    7.64
  -6  -2  -4   44.31    6.83
   6  -2   4   41.74    3.90
  -6  -2  -4   38.40    6.61
  -6   2   4   49.28    7.49
   6  -2   4   38.23    6.59
  -6   2   4   39.46    5.14
   6   2  -4   46.51    7.06
   6   1  -4    9.29    5.61
  -6  -1  -4    4.59    4.97
   6  -1   4    1.48    1.99
  -6   1   4    1.57    3.54
  -6  -1  -4    3.56    4.49
  -6   1   4    6.05    5.74
   6  -1   4    6.34    4.49
   6   1  -4   12.26    5.87
  -6   0  -4  213.80   12.58
  -6   0  -4  204.30   12.46
  -6   0   4  205.10   12.74
   6   0   4  207.27    7.48
   6   0   4  215.20   12.08
   6   0  -4  204.10   11.45
   6   0  -4  207.50   13.76
  -6   0   4  216.79    9.89
   6  -1  -4    3.50    5.99
  -6   1  -4    1.16    4.76
  -6  -1   4    3.30    2.36
  -6   1  -4   -0.86    4.58
  -6  -1   4    3.01    5.76
   6   1   4    4.03    2.28
   6   1   4    6.39    4.93
   6  -1  -4    7.98    4.61
   6  -2  -4   47.43    7.86
  -6   2  -4   43.76    7.10
  -6   2  -4   42.39    6.91
  -6  -2   4   32.85    6.80
   6   2   4   44.29    3.79
   6  -2  -4   48.99    6.53
   6   2   4   39.83    6.50
  -6  -2   4   47.87    5.34
   6  -3  -4   33.38    7.26
  -6   3  -4   27.70    6.23
  -6  -3   4   28.65    4.44
  -6   3  -4   25.77    5.56
  -6  -3   4   25.78    6.48
   6   3   4   26.81    6.16
   6  -3  -4   36.74    6.09
  -6   4  -4  258.17   14.09
  -6   4  -4  258.24   13.37
  -6  -4   4  245.36   13.25
   6   4   4  283.45   14.20
   6  -4  -4  270.52   12.00
  -6  -4   4  253.78   10.65
   6  -4  -4  286.80   16.04
   6  -5  -4   19.55    6.35
  -6   5  -4   12.22    5.96
  -6  -5   4   15.68    4.22
  -6   5  -4   14.97    5.00
  -6  -5   4   12.76    5.74
   6   5   4    8.69    5.40
   6  -5  -4   14.99    4.94
   6  -6  -4   18.30    6.17
  -6   6  -4   31.67    6.37
  -6  -6   4   25.65    4.56
  -6   6  -4   18.84    5.01
  -6  -6   4   24.13    5.79
   6   6   4   17.24    5.93
   6  -6  -4   25.54    5.20
   6  -7  -4    0.24    5.87
  -6   7  -4    6.16    5.17
  -6  -7   4    1.46    3.09
  -6   7  -4    1.77    4.33
  -6  -7   4    1.14    4.80
   6   7   4    0.59    5.54
   6  -7  -4    0.27    4.29
  -6   8  -4  232.25   13.85
  -6   8  -4  243.00   12.82
  -6  -8   4  239.73   12.35
   6   8   4  224.12   14.04
   6  -8  -4  237.28   11.17
  -6  -8   4  239.57   10.58
   6  -8  -4  236.86   14.40
   6  -9  -4   15.66    6.75
  -6  -9   4   20.77    4.62
  -6   9  -4   12.77    5.78
  -6   9  -4    8.91    4.37
   6  -9  -4   16.31    5.16
  -6  10  -4  127.96   11.25
   6 -10  -4  136.99    9.26
  -6 -10   4  130.40    8.25
   6 -10  -4  148.91   11.59
   6 -11  -4    8.33    5.71
  -6 -11   4    4.81    3.89
  -6  11  -4    5.54    6.28
   6 -11  -4    6.30    4.57
   6 -12  -4   63.65    7.95
  -6  12  -4   56.71    9.13
   6 -12  -4   65.34    7.18
  -6 -12   4   58.50    6.09
   6 -13  -4    1.86    6.98
  -6 -13   4   -0.39    3.90
   6 -13  -4    0.67    4.41
   7 -13   4   34.29    7.45
  -7  12   4   -0.86    7.80
   7 -12   4    0.39    6.55
   7 -11   4   44.52    5.50
  -7 -11  -4   26.29    6.51
  -7  11   4   30.81    7.31
   7 -11   4   29.41    6.24
  -7 -10  -4   10.51    6.16
   7 -10   4   18.00    4.32
  -7  10   4   13.95    6.24
   7 -10   4   20.61    6.39
   7  -9   4   53.49    5.85
  -7  -9  -4   62.60    8.98
  -7   9   4   53.35    8.69
   7  -9   4   47.65    7.76
  -7  -8  -4    0.74    4.58
  -7  -8  -4   15.52    5.42
  -7   8   4   10.21    5.61
   7  -8   4    7.53    3.12
   7  -8   4   15.29    5.40
   7   7  -4   40.64    7.24
  -7  -7  -4   49.77    7.67
   7  -7   4   46.81    5.15
  -7  -7  -4   52.65    7.98
  -7   7   4   47.80    6.25
  -7   7   4   46.02    8.15
   7  -7   4   54.52    7.59
   7   6  -4   -3.14    5.93
  -7  -6  -4    3.53    5.57
  -7  -6  -4   -0.21    5.48
  -7   6   4    0.57    3.74
  -7   6   4    0.78    5.79
   7  -6   4   -1.19    5.28
   7  -6   4    0.70    2.93
   7  -5   4    8.88    3.09
   7   5  -4    1.31    5.77
  -7  -5  -4    6.77    5.09
  -7  -5  -4    2.80    5.27
  -7   5   4    4.01    3.88
  -7   5   4    5.51    6.03
   7  -5   4    5.57    5.21
   7   4  -4    6.81    6.12
   7  -4   4    7.77    2.88
  -7  -4  -4   15.51    5.83
  -7   4   4    8.31    3.46
  -7  -4  -4   16.01    6.05
  -7   4   4    9.41    6.74
   7  -4   4    7.36    5.62
   7   4  -4   12.29    6.09
  -7  -3  -4  200.61   12.56
  -7  -3  -4  222.58   14.14
  -7   3   4  202.08   13.54
   7  -3   4  199.89    8.30
   7  -3   4  205.96   12.33
   7   3  -4  216.72   12.83
   7   3  -4  195.05   13.73
  -7   3   4  209.40   10.36
   7   2  -4   15.25    6.40
  -7  -2  -4   25.22    6.23
   7  -2   4   25.79    3.60
  -7   2   4   24.65    4.50
  -7  -2  -4   17.72    5.66
  -7   2   4   26.77    6.60
   7  -2   4   26.09    5.96
   7   2  -4   28.93    6.63
  -7  -1  -4   81.00    8.90
  -7  -1  -4   95.59    9.77
  -7   1   4  101.81   10.25
   7  -1   4   80.18    5.28
   7  -1   4   88.15    8.84
   7   1  -4   98.50    8.90
   7   1  -4   89.71   10.01
  -7   1   4   88.32    6.93
   7   0  -4    1.42    6.54
  -7   0  -4   -0.91    5.30
  -7   0   4    0.24    3.61
  -7   0  -4    1.23    5.15
  -7   0   4    2.10    6.17
   7   0   4    1.00    2.39
   7   0   4   -1.54    5.25
   7   0  -4    0.30    4.89
  -7   1  -4   91.73    9.54
  -7   1  -4   97.48    9.77
  -7  -1   4   91.98    9.61
   7   1   4   84.16    5.31
   7   1   4   82.66    8.82
   7  -1  -4   88.25    8.15
   7  -1  -4   90.74   10.39
  -7  -1   4   84.60    6.85
   7  -2  -4   21.91    6.86
  -7   2  -4   25.42    6.34
  -7  -2   4   24.61    4.64
  -7   2  -4   18.89    5.63
  -7  -2   4   30.82    7.04
   7   2   4   24.35    3.43
   7   2   4   24.37    6.33
   7  -2  -4   22.56    5.68
  -7   3  -4  211.67   13.22
  -7   3  -4  232.90   13.75
  -7  -3   4  213.65   13.25
   7   3   4  201.68   12.60
   7  -3  -4  210.43   11.25
  -7  -3   4  202.03    9.90
   7  -3  -4  206.57   14.31
   7  -4  -4   10.98    6.80
  -7   4  -4    5.88    5.59
  -7  -4   4   11.25    4.24
  -7   4  -4    6.22    4.61
  -7  -4   4    7.20    5.97
   7   4   4   12.43    5.16
   7  -4  -4    6.74    4.56
   7  -5  -4   11.11    6.46
  -7   5  -4    7.60    5.65
  -7  -5   4    9.96    4.09
  -7   5  -4   10.53    5.20
  -7  -5   4    7.21    5.44
   7   5   4    5.18    5.25
   7  -5  -4    7.19    4.56
   7  -6  -4   -0.20    6.45
  -7   6  -4   -3.15    5.57
  -7  -6   4    0.93    3.60
  -7   6  -4   -0.30    4.76
  -7  -6   4    2.24    4.99
   7   6   4   -1.78    5.71
   7  -6  -4    1.34    4.07
   7  -7  -4   56.45    8.69
  -7   7  -4   51.89    8.48
  -7  -7   4   49.79    7.39
  -7   7  -4   34.92    7.01
   7  -7  -4   53.20    6.46
   7   7   4   58.66    8.29
  -7  -7   4   48.27    6.00
   7  -8  -4   14.59    6.67
  -7  -8   4   10.55    4.64
  -7   8  -4    8.72    5.46
  -7   8  -4    8.05    5.36
   7  -8  -4   10.74    5.03
   7  -9  -4   55.41    9.15
  -7   9  -4   50.37    8.73
  -7   9  -4   45.90    7.26
   7  -9  -4   63.95    7.16
  -7  -9   4   49.59    6.14
   7 -10  -4    7.24    6.24
  -7 -10   4   15.68    4.43
  -7  10  -4   12.73    6.55
   7 -10  -4   10.17    5.02
   7 -11  -4   41.62    8.17
  -7 -11   4   31.81    5.24
  -7  11  -4   39.18    7.81
   7 -11  -4   39.53    6.57
   7 -12  -4   -1.03    7.51
  -7  12  -4    1.48    7.36
   7 -13  -4   45.40    8.66
   8  -9   4   -1.28    5.47
  -8  -8  -4  161.92   12.83
   8  -8   4  118.74    7.95
  -8   8   4  127.29   12.01
   8  -8   4  106.67   10.41
  -8  -7  -4   15.67    6.72
  -8  -7  -4   20.19    6.48
  -8   7   4   43.10    8.29
   8  -7   4   29.07    6.90
   8  -7   4   24.67    4.36
   8   6  -4   63.02    9.09
  -8  -6  -4   59.74    8.62
   8  -6   4   68.72    6.03
  -8  -6  -4   73.66   10.24
  -8   6   4   60.61    9.35
   8  -6   4   68.99    8.39
   8   5  -4   20.02    7.34
   8  -5   4   17.74    3.67
  -8  -5  -4   13.23    5.78
  -8   5   4   14.41    4.47
  -8  -5  -4   23.69    6.64
  -8   5   4   17.44    6.79
   8  -5   4   17.41    5.94
  -8  -4  -4   94.95   10.78
  -8  -4  -4   66.11    8.76
  -8   4   4   77.27    9.79
   8  -4   4   79.31    6.07
   8  -4   4   78.63    8.71
   8   4  -4   75.33    9.79
  -8   4   4   81.49    7.08
   8   3  -4    4.01    7.03
  -8  -3  -4    7.36    5.04
   8  -3   4    6.71    3.07
  -8   3   4    5.74    3.67
  -8  -3  -4    8.40    5.55
  -8   3   4   10.34    6.91
   8  -3   4    7.59    5.45
   8   2  -4   -0.16    6.75
  -8  -2  -4    4.02    5.62
  -8   2   4    4.30    3.86
  -8  -2  -4    1.86    5.66
  -8   2   4    5.80    6.37
   8  -2   4    4.53    2.72
   8  -2   4    6.80    5.51
   8   1  -4   62.73    9.39
  -8  -1  -4   49.05    8.53
  -8  -1  -4   49.13    8.54
   8  -1   4   57.15    4.97
  -8   1   4   46.09    8.68
   8  -1   4   61.77    7.90
  -8   1   4   53.64    6.09
   8   0  -4   32.20    7.88
  -8   0  -4   27.66    6.73
  -8   0   4   34.64    5.05
  -8   0  -4   26.39    7.09
  -8   0   4   37.04    8.23
   8   0   4   31.65    4.04
   8   0   4   32.95    7.06
   8   0  -4   28.03    6.53
   8  -1  -4   57.62    9.57
  -8   1  -4   45.36    7.55
  -8   1  -4   59.96    8.96
  -8  -1   4   51.48    8.66
   8   1   4   57.58    5.07
   8   1   4   63.43    8.58
   8  -1  -4   59.13    7.64
  -8  -1   4   56.06    6.17
   8  -2  -4    4.59    6.28
  -8   2  -4    0.14    5.69
   8   2   4    3.13    2.58
  -8  -2   4    5.51    4.02
  -8   2  -4    0.22    5.58
  -8  -2   4    2.67    6.49
   8   2   4    7.70    5.48
   8  -2  -4    3.33    5.00
   8  -3  -4    4.53    7.40
  -8   3  -4    9.74    5.86
  -8  -3   4    8.85    3.60
  -8   3  -4    5.36    5.81
  -8  -3   4    3.30    5.86
   8   3   4   10.85    5.44
   8  -3  -4   11.41    4.97
  -8   4  -4   81.22    9.13
  -8   4  -4   84.71    9.48
  -8  -4   4   84.95    9.34
   8   4   4   78.67    9.11
   8  -4  -4   80.22    7.66
  -8  -4   4   73.23    6.97
   8  -4  -4   84.39   10.40
   8  -5  -4   18.63    6.43
  -8  -5   4   18.52    4.46
  -8   5  -4   11.94    6.31
  -8   5  -4   19.81    5.85
  -8  -5   4   16.85    7.26
   8   5   4   15.78    6.25
   8  -5  -4   16.26    5.50
  -8   6  -4   69.92    9.07
  -8   6  -4   73.76    9.22
  -8  -6   4   66.54    8.73
   8  -6  -4   66.91    7.09
   8   6   4   59.35    8.86
  -8  -6   4   74.96    7.21
   8  -6  -4   79.47    9.99
   8  -7  -4   33.75    7.88
  -8  -7   4   30.46    5.56
  -8   7  -4   29.27    6.94
  -8  -7   4    4.56    4.14
  -8   7  -4   27.98    6.68
   8  -7  -4   21.73    5.68
  -8   8  -4  124.99   11.52
  -8   8  -4  111.02   10.74
   8  -8  -4  117.90    9.09
  -8  -8   4  119.08    8.79
   8  -8  -4  148.90   12.98
   8  -9  -4   -1.07    7.73
  -8   9  -4   -3.78    6.37
  -8   9  -4    3.56    7.02
   8  -9  -4    0.07    4.81
  -8  10  -4   37.13    7.36
  -9  -6  -4    6.73    8.43
   9   5  -4   -6.58    9.23
  -9  -5  -4   -4.38    7.51
  -9  -4  -4  110.81   10.47
   9  -4   4  128.53    7.89
   9   4  -4  124.76   12.11
   9   3  -4   22.76    8.37
  -9  -3  -4   33.17    7.09
  -9   3   4   18.78    4.95
  -9  -3  -4   22.45    7.26
   9  -3   4   22.89    4.40
  -9   3   4   29.50    7.91
   9  -3   4   31.01    7.55
   9   2  -4    2.98    7.63
  -9  -2  -4    1.74    6.65
  -9   2   4    0.11    4.53
  -9  -2  -4    7.41    6.68
  -9   2   4    4.72    7.39
   9  -2   4    4.21    3.33
   9  -2   4    1.41    6.38
  -9  -1  -4   88.53   10.03
  -9  -1  -4  120.69   12.38
  -9   1   4   93.18   10.94
   9  -1   4   96.63    6.77
   9  -1   4   99.03    9.96
  -9   1   4   92.78    7.60
   9   1  -4   99.96   11.19
   9   0  -4    2.23    7.13
  -9   0  -4    1.44    5.89
  -9   0   4   -0.90    4.02
  -9   0  -4    2.26    6.94
  -9   0   4    0.50    6.37
   9   0   4   -0.58    6.04
   9   0   4    1.13    3.15
  -9   1  -4   91.09    9.91
  -9   1  -4  103.07   11.65
  -9  -1   4   92.86   10.27
   9   1   4   98.27    6.80
   9   1   4   97.08   10.37
  -9  -1   4   99.09    7.98
   9  -1  -4  107.75   12.07
   9  -2  -4    5.10    8.21
  -9  -2   4    2.56    3.95
  -9   2  -4    3.75    6.51
   9   2   4    3.04    3.19
  -9   2  -4    1.45    6.71
  -9  -2   4    2.46    6.85
   9   2   4    3.50    6.63
   9  -3  -4   27.67    7.84
  -9  -3   4   18.69    5.12
  -9   3  -4   22.33    7.42
  -9   3  -4   27.95    7.78
  -9  -3   4   25.82    7.39
   9   3   4   19.08    6.45
  -9   4  -4  112.68   11.66
  -9  -4   4  141.57   12.23
   9   4   4  125.16   10.98
  -9  -4   4  115.99    8.73
  -9  -5   4    2.79    7.42
  -9   5  -4    5.52    7.20
   9   5   4    1.28    7.90
  -9  -6   4    9.94    6.78
   0   0  -5   55.61    8.16
   0   0   5   52.80    7.48
   0  -1  -5    0.02    5.84
   0   1  -5   -0.90    6.06
   0   1   5    0.16    5.01
   0  -1   5   -0.61    4.83
   0  -2  -5   17.67    6.44
   0   2  -5   22.20    6.28
   0   2   5   17.64    5.88
   0  -2   5   13.30    4.99
   0  -3  -5    1.81    5.52
   0   3  -5    3.60    5.48
   0  -3   5    0.57    3.10
   0   3   5   -1.90    4.60
   0  -3   5   -0.38    4.87
   0  -3  -5   -0.38    4.63
   0  -4  -5   21.73    6.03
   0   4  -5   21.59    6.62
   0  -4   5   16.41    3.80
   0   4   5   16.98    5.43
   0  -4   5   15.43    5.66
   0  -4  -5   18.77    5.18
   0  -5  -5   -0.42    5.93
   0   5  -5    0.68    5.58
   0  -5   5    1.85    2.14
   0  -5   5   -0.40    3.08
   0   5   5   -0.10    5.57
   0  -5   5    1.27    4.97
   0  -5  -5    0.02    4.58
   0  -6   5  933.19   17.85
   0   6   5  943.25   26.22
   0  -6   5  839.92   22.83
   0  -6  -5  878.38   19.74
   0  -6   5  890.66   15.84
   0  -6  -5 1023.70   28.02
   0   6  -5  924.31   26.68
   0  -7  -5    1.48    6.54
   0   7  -5    0.63    5.18
   0  -7   5    0.25    2.72
   0  -7   5    0.25    3.07
   0   7   5    0.62    5.07
   0  -7   5    0.12    4.26
   0  -7  -5    1.70    4.12
   0  -8  -5  112.91    8.42
   0   8   5  100.64   10.22
   0  -8   5  116.68    9.60
   0  -8  -5  108.93    7.87
   0  -8   5   98.61    6.30
   0  -8   5  115.40    6.84
   0  -8  -5  115.60   11.28
   0   8  -5  129.56   11.24
   0  -9  -5   -1.92    6.01
   0   9  -5   -1.39    5.55
   0  -9   5    1.78    2.79
   0  -9  -5   -0.87    4.07
   0  -9   5    0.61    2.17
   0   9   5    0.01    5.96
   0  -9   5    0.86    4.37
   0  -9  -5   -0.88    4.33
   0 -10  -5    0.03    6.25
   0  10  -5   -2.51    6.21
   0 -10   5   -0.64    3.16
   0 -10  -5    1.60    4.46
   0  10   5    1.53    5.78
   0 -10   5    2.60    4.79
   0 -10  -5   -0.10    4.14
   0 -11  -5    3.45    6.54
   0 -11   5   -0.32    3.47
   0 -11  -5    1.09    4.71
   0 -11   5    1.05    3.70
   0 -11  -5    1.30    4.33
   0 -12  -5   43.43    6.91
   0 -12   5   41.49    5.10
   0 -12  -5   35.55    5.64
   0 -13   5   -1.32    3.70
   0 -13  -5   -2.05    5.70
   0 -13  -5   -1.00    4.31
   0 -14   5    4.15    4.14
   0 -14  -5    4.93    6.06
   0 -14  -5    1.32    4.32
   0 -15  -5    1.27    4.98
  -1 -14  -5   15.54    6.17
   1 -14   5   20.06    4.61
  -1 -13  -5  352.91   16.92
  -1 -13  -5  290.96   12.00
   1 -13   5  318.75   12.15
  -1 -12  -5    9.17    5.34
   1 -12   5    1.88    3.47
  -1 -12  -5    5.94    4.11
  -1 -11  -5  102.43    9.17
  -1 -11  -5   19.66    4.89
  -1  11   5   89.96    9.79
   1 -11   5  105.37    9.35
  -1 -11  -5  100.62    7.42
   1 -11   5  113.21    7.39
  -1 -10  -5   41.44    8.18
   1  10  -5   46.09    8.07
  -1 -10  -5   41.12    6.28
  -1  10   5   41.08    7.54
   1 -10   5   38.02    6.67
   1 -10   5   41.28    4.85
  -1 -10  -5   36.07    5.56
  -1  -9  -5   39.68    7.74
   1   9  -5   26.36    6.76
  -1  -9  -5   34.49    5.63
   1  -9   5   29.02    4.21
  -1   9   5   29.64    6.85
   1  -9   5   25.67    6.07
  -1  -9  -5   30.04    5.21
  -1  -8  -5    7.96    5.84
   1   8  -5    5.74    5.51
  -1  -8  -5    3.76    3.70
   1  -8   5    4.47    3.14
  -1   8   5    8.33    5.14
   1  -8   5    7.45    4.83
  -1  -8  -5    6.50    4.02
   1   7  -5    7.43    5.78
  -1  -7  -5    8.65    6.18
  -1  -7  -5   11.58    4.18
   1  -7   5    9.69    3.10
   1  -7   5    7.66    3.19
  -1   7   5    7.92    5.39
   1  -7   5    8.27    5.14
  -1  -7  -5   10.57    4.33
   1   6  -5   -0.47    5.65
  -1  -6  -5    3.76    5.76
  -1  -6  -5    0.18    3.31
   1  -6   5    1.18    2.35
   1  -6   5   -0.08    2.71
  -1   6   5    0.40    5.63
   1  -6   5    4.77    5.18
  -1  -6  -5    0.86    4.31
   1   5  -5   10.64    5.47
  -1  -5  -5   17.80    5.86
   1  -5   5    8.57    2.83
   1  -5   5   14.16    3.60
  -1   5   5   14.28    5.86
   1  -5   5   14.95    5.69
  -1  -5  -5   15.30    4.94
   1   4  -5   -0.66    5.05
  -1  -4  -5   -0.45    6.17
   1  -4   5   -1.05    3.02
  -1   4   5    0.49    4.75
   1  -4   5   -1.27    5.05
  -1  -4  -5    0.53    4.21
   1   3  -5   -0.06    5.28
  -1  -3  -5    4.32    5.68
  -1   3   5    0.04    5.36
   1  -3   5    1.76    5.27
  -1  -3  -5    3.62    4.58
  -1   2   5   65.49    8.01
   1  -2   5   63.76    7.98
   1   2  -5   83.78    9.54
  -1  -2  -5   65.51    8.81
  -1   1   5  449.00   17.86
   1  -1   5  424.78   17.32
   1   1  -5  458.93   19.07
  -1  -1  -5  427.35   18.59
   1   0  -5   -1.06    5.81
  -1   0  -5    0.44    5.85
  -1   0   5   -0.04    4.71
   1   0   5    3.15    5.37
  -1  -1   5  443.24   13.40
  -1  -1   5  442.67   17.37
   1   1   5  476.69   18.33
   1  -1  -5  470.83   19.57
  -1   1  -5  438.32   18.92
  -1  -2   5   70.42    5.93
  -1  -2   5   78.56    8.66
   1   2   5   72.63    8.79
   1  -2  -5   69.33    7.54
   1  -2  -5   82.07    9.79
  -1   2  -5   69.28    8.73
   1  -3  -5    1.84    5.63
  -1   3  -5    8.40    5.80
  -1  -3   5    1.52    3.16
  -1  -3   5    1.89    4.67
   1   3   5   -0.36    5.44
   1  -3  -5    0.41    5.18
   1  -4  -5   -2.25    5.96
  -1   4  -5    1.18    5.66
  -1  -4   5    0.70    3.05
  -1  -4   5    0.48    4.41
   1   4   5    1.90    5.09
   1  -4  -5    1.00    4.93
   1  -5  -5   18.04    6.98
  -1   5  -5   20.68    6.37
  -1  -5   5   13.97    3.82
  -1  -5   5   16.73    5.23
   1   5   5   15.00    5.53
   1  -5  -5   15.15    5.43
  -1  -6   5    0.07    2.49
   1  -6  -5    0.79    6.37
  -1   6  -5    2.54    5.54
  -1  -6   5   -0.82    3.30
  -1  -6   5   -0.15    4.84
   1   6   5    2.42    5.17
   1  -6  -5    0.18    4.31
  -1  -7   5   10.38    3.36
   1  -7  -5   19.05    6.99
  -1   7  -5   10.75    6.12
  -1  -7   5    8.19    3.46
  -1  -7   5   11.33    5.36
   1   7   5    8.92    5.51
   1  -7  -5    9.91    4.56
  -1  -8   5    4.74    3.00
   1  -8  -5    5.79    6.24
  -1   8  -5    7.51    5.68
  -1  -8   5    3.33    3.00
   1   8   5    8.92    5.75
  -1  -8   5    5.99    4.90
   1  -8  -5    1.56    4.39
  -1  -9   5   28.24    4.30
   1  -9  -5   23.08    7.55
  -1   9  -5   38.88    7.82
  -1  -9   5   30.73    4.41
   1   9   5   38.30    6.98
  -1  -9   5   30.90    5.86
   1  -9  -5   26.20    5.38
   1 -10  -5   34.37    7.78
  -1  10  -5   51.69    8.49
   1 -10  -5   37.09    6.04
   1  10   5   37.31    7.27
  -1 -10   5   41.34    6.41
  -1 -10   5   40.51    4.90
  -1 -10   5   38.47    4.65
   1 -10  -5   36.98    5.67
   1 -11  -5  104.06    8.04
  -1 -11   5  108.16    7.14
   1 -11  -5  117.18   11.31
   1 -11  -5  125.07    9.58
  -1 -12   5    4.40    3.51
   1 -12  -5    4.25    5.40
   1 -12  -5    3.21    4.70
   1 -13  -5  293.96   12.49
  -1 -13   5  328.01   12.17
   1 -13  -5  306.99   15.83
  -1 -14   5   19.39    4.94
   1 -14  -5   16.93    6.73
   1 -14  -5   18.84    5.52
  -2 -14  -5    1.95    6.21
  -2 -13  -5   22.41    5.85
   2 -13   5   27.24    4.46
  -2 -12  -5   21.56    5.89
   2 -12   5   18.66    4.40
  -2 -11  -5   -0.72    4.68
   2 -11   5    1.80    3.45
  -2  11   5    1.89    6.72
   2 -11   5   -0.06    5.84
  -2 -10  -5    7.99    6.68
  -2 -10  -5    7.70    4.68
   2 -10   5   10.65    3.71
  -2  10   5    3.07    6.08
   2 -10   5    9.04    5.47
  -2 -10  -5    0.32    1.68
   2   9  -5   41.08    7.63
  -2  -9  -5   52.77    8.17
  -2  -9  -5   50.04    6.84
  -2   9   5   42.38    7.50
  -2  -9  -5   53.70    5.66
   2  -9   5   34.88    6.87
   2  -9   5   46.04    5.09
  -2  -8  -5   87.22    8.00
   2  -8   5   70.15    8.71
  -2  -8  -5   77.93    6.51
   2  -8   5   82.48    6.11
   2   8  -5   90.24    9.66
  -2  -8  -5   92.53   10.09
   2   7  -5   64.67    8.74
  -2  -7  -5   48.95    8.46
  -2  -7  -5   45.55    6.08
  -2   7   5   53.51    8.10
  -2  -7  -5   54.96    5.81
   2  -7   5   46.97    7.30
   2  -7   5   52.22    4.90
  -2  -6  -5  274.04   12.33
  -2   6   5  318.54   16.41
   2  -6   5  261.04   14.49
  -2  -6  -5  291.17   11.28
   2  -6   5  275.10    9.81
   2   6  -5  344.08   16.94
  -2  -6  -5  298.43   15.91
   2  -5   5  227.49    8.95
  -2  -5  -5  210.24   10.64
  -2   5   5  245.56   14.43
   2  -5   5  197.39   12.80
  -2  -5  -5  231.01   10.40
   2  -5   5  199.85    8.19
   2   5  -5  263.53   15.18
  -2  -5  -5  233.50   14.30
   2   4  -5   42.00    7.58
  -2  -4  -5   36.61    7.27
  -2  -4  -5   27.14    4.68
   2  -4   5   23.88    3.49
  -2   4   5   32.53    6.99
   2  -4   5   25.41    6.34
  -2  -4  -5   29.90    5.35
   2   3  -5   46.53    7.77
  -2  -3  -5   48.67    7.88
  -2   3   5   43.30    7.05
  -2  -3  -5   45.95    6.35
   2  -3   5   41.13    7.19
   2   2  -5    2.46    5.69
  -2  -2  -5   -1.17    5.33
  -2   2   5    1.16    4.80
   2  -2   5   -1.15    5.34
   2   1  -5   26.08    7.09
  -2  -1  -5   23.65    6.52
  -2   1   5   17.38    3.98
  -2   1   5   14.46    5.50
   2  -1   5   22.71    6.12
   2   0  -5   30.45    7.57
  -2   0  -5   19.10    6.17
  -2   0   5   24.95    4.58
  -2   0   5   26.53    6.31
   2   0   5   23.02    5.87
   2  -1  -5   15.72    4.82
  -2   1  -5   13.11    5.96
  -2  -1   5   14.80    3.98
  -2  -1   5   19.85    6.12
   2   1   5   16.61    5.78
   2  -2  -5    0.66    5.93
  -2   2  -5    1.59    5.89
  -2  -2   5    2.24    3.47
  -2  -2   5    2.96    4.69
   2   2   5    2.03    5.20
   2  -2  -5    0.64    5.23
  -2  -3   5   45.01    5.39
   2  -3  -5   43.31    7.74
  -2   3  -5   42.28    7.59
  -2  -3   5   41.81    6.75
   2   3   5   44.76    7.55
   2  -3  -5   42.87    6.78
   2  -4  -5   33.48    7.44
  -2   4  -5   30.09    7.97
  -2  -4   5   30.44    4.76
  -2  -4   5   30.32    5.71
   2   4   5   29.11    6.99
   2  -4  -5   33.51    6.54
  -2   5  -5  230.47   15.01
  -2  -5   5  242.75   13.03
   2   5   5  233.54   14.09
   2  -5  -5  241.34   11.93
   2  -5  -5  248.97   15.35
  -2  -5   5  237.03   10.15
  -2   6  -5  287.48   16.84
  -2  -6   5  296.15   14.04
   2   6   5  332.60   16.60
  -2  -6   5  312.48   10.10
   2  -6  -5  307.79   13.08
   2  -6  -5  335.28   17.54
  -2  -6   5  310.38   11.32
   2  -7  -5   67.48    9.34
  -2   7  -5   54.40    9.01
  -2  -7   5   51.04    5.04
  -2  -7   5   54.53    7.18
   2  -7  -5   47.68    6.39
   2   7   5   64.24    8.67
  -2  -7   5   53.21    5.51
  -2   8  -5   79.60   10.13
  -2  -8   5   81.95    8.21
   2   8   5   84.44    9.85
  -2  -8   5   75.38    5.86
   2  -8  -5   80.67    7.46
  -2  -8   5   76.17    6.21
   2  -9  -5   51.70    8.51
  -2   9  -5   53.97    8.92
  -2  -9   5   56.81    5.39
  -2  -9   5   49.48    6.52
   2   9   5   58.48    8.48
  -2  -9   5   46.09    5.19
   2  -9  -5   40.89    5.98
   2 -10  -5    6.90    6.86
  -2  10  -5    5.92    7.19
  -2 -10   5   10.57    3.88
  -2 -10   5   10.28    4.30
   2 -10  -5    6.68    4.68
  -2 -10   5    9.55    3.76
   2 -11  -5    2.02    6.89
  -2  11  -5   -0.84    8.02
  -2 -11   5    1.48    3.33
   2 -11  -5    0.06    4.05
  -2 -11   5    1.46    3.36
   2 -12  -5   24.16    7.28
  -2 -12   5    2.70    2.06
   2 -12  -5   22.92    5.86
  -2 -12   5   23.07    4.81
   2 -13  -5   17.14    5.61
  -2 -13   5   22.16    4.91
  -2 -14   5   -2.76    3.91
  -3 -13  -5   48.45    6.86
   3 -13   5   38.06    5.58
  -3 -12  -5   40.69    7.28
   3 -12   5   38.80    5.27
   3 -12   5   27.94    7.26
  -3 -11  -5   35.70    6.34
  -3  11   5   26.75    7.07
   3 -11   5   36.49    5.13
   3 -11   5   27.66    6.92
  -3 -10  -5  227.70   13.38
  -3  10   5  159.54   13.12
   3 -10   5  184.26   12.87
   3 -10   5  203.95    9.75
  -3 -10  -5   51.86    7.39
   3   9  -5   20.44    6.67
  -3  -9  -5   33.30    7.55
  -3  -9  -5   27.74    5.31
  -3   9   5   25.67    8.04
   3  -9   5   21.24    4.08
   3  -9   5   22.34    6.30
   3   8  -5   15.38    6.50
  -3  -8  -5   22.79    6.85
  -3  -8  -5    9.66    4.22
  -3   8   5    4.67    6.19
   3  -8   5    5.94    6.03
   3  -8   5    6.22    3.28
   3   7  -5   11.95    6.79
  -3  -7  -5   18.46    6.42
  -3  -7  -5   14.18    4.82
  -3   7   5   15.75    5.64
   3  -7   5    8.73    5.27
   3  -7   5   11.53    3.48
   3   6  -5   -0.55    5.92
  -3  -6  -5    9.21    5.76
  -3  -6  -5   -3.00    3.77
  -3   6   5    5.18    5.91
   3  -6   5    1.02    5.85
   3  -6   5    1.84    2.63
   3   5  -5   18.51    6.88
  -3  -5  -5   13.85    6.42
  -3  -5  -5   12.82    4.35
  -3   5   5   13.28    5.72
   3  -5   5   15.12    6.54
   3  -5   5   18.88    3.60
  -3  -5  -5   11.87    3.30
   3   4  -5    0.39    6.00
  -3  -4  -5   -0.14    5.85
  -3  -4  -5    0.10    3.39
   3  -4   5   -0.70    5.36
  -3  -4  -5    0.80    3.28
   3  -4   5    3.21    2.51
  -3   3   5   64.33    6.21
  -3  -3  -5   48.30    5.99
   3   3  -5   59.90    9.11
  -3  -3  -5   54.77    8.62
  -3   3   5   53.89    8.34
  -3  -3  -5   62.36    6.31
   3  -3   5   48.15    7.67
  -3  -2  -5  357.84   17.85
  -3   2   5  370.60   13.09
  -3  -2  -5  367.24   13.60
  -3   2   5  369.56   17.33
   3  -2   5  339.26   16.66
   3   2  -5  364.64   18.17
  -3  -1  -5   75.95    9.25
  -3   1   5  101.82    7.49
  -3   1   5   99.02    9.96
   3  -1   5   91.08    9.58
   3   1  -5   92.17   10.43
   3   0  -5   -0.56    6.25
  -3   0  -5    1.50    5.64
  -3   0   5    0.72    3.67
  -3   0   5   -1.87    4.87
   3   0   5    0.07    5.34
  -3   1  -5   85.14   10.10
  -3  -1   5  104.22    7.40
  -3  -1   5   95.23    9.54
   3   1   5   74.26    8.87
   3  -1  -5   97.48    9.24
   3  -1  -5   95.77   10.82
  -3  -2   5  390.42   13.17
  -3   2  -5  311.31   17.39
  -3  -2   5  403.81   17.14
   3   2   5  333.46   16.45
   3  -2  -5  387.55   15.76
   3  -2  -5  376.85   19.05
   3  -3  -5   61.28    9.76
  -3   3  -5   51.15    8.29
  -3  -3   5   65.86    8.00
   3   3   5   53.68    8.26
   3  -3  -5   54.08    7.69
  -3  -3   5   63.34    5.99
  -3   4  -5   -0.11    6.36
  -3  -4   5    1.76    3.50
  -3  -4   5    3.23    5.06
   3   4   5    0.67    5.77
   3  -4  -5    1.20    4.87
   3  -5  -5   23.93    7.07
  -3   5  -5   15.70    7.08
  -3  -5   5   22.56    4.39
  -3  -5   5   26.68    6.07
   3   5   5   19.33    7.03
   3  -5  -5   29.16    6.25
   3  -6  -5   -1.27    7.23
  -3   6  -5    0.56    6.82
  -3  -6   5   -1.43    3.45
  -3  -6   5    2.19    5.04
   3   6   5    2.85    5.41
   3  -6  -5    1.50    5.20
   3  -7  -5   10.22    7.09
  -3   7  -5   12.73    6.38
  -3  -7   5   13.40    3.94
  -3  -7   5   13.06    5.03
   3   7   5   12.86    6.04
  -3  -7   5   12.22    3.85
   3  -7  -5   12.47    4.87
   3  -8  -5   16.71    7.11
  -3   8  -5   10.71    6.64
  -3  -8   5   10.69    3.43
  -3  -8   5   10.18    5.17
   3   8   5   13.69    6.56
  -3  -8   5    8.91    3.57
   3  -8  -5    8.08    4.97
   3  -9  -5   35.00    7.94
  -3   9  -5   32.23    7.82
  -3  -9   5   21.35    4.37
  -3  -9   5   20.69    5.76
   3   9   5   15.09    6.72
  -3  -9   5   29.62    4.65
   3  -9  -5   24.94    5.84
  -3  10  -5  209.19   15.61
  -3 -10   5  212.50    9.82
   3 -10  -5  197.49   10.87
  -3 -10   5  216.26    9.99
   3 -10  -5  225.21   15.02
   3 -11  -5   43.67    8.07
  -3  11  -5   31.77    8.40
  -3 -11   5   35.58    5.10
  -3 -11   5   41.61    5.56
   3 -11  -5   45.20    6.28
   3 -12  -5   46.78    9.34
  -3 -12   5   36.46    5.13
  -3 -12   5   41.79    5.38
   3 -12  -5   35.93    6.38
  -3 -13   5   42.12    5.39
  -3 -13   5   53.44    6.43
  -4 -12  -5    2.76    5.96
  -4  12   5    1.64    8.01
   4 -12   5    1.82    4.05
   4 -12   5    3.81    7.73
  -4 -11  -5    5.50    5.58
  -4  11   5    0.28    7.14
   4 -11   5   -1.48    6.71
   4 -11   5   -2.13    3.51
   4 -10   5   56.89    5.96
  -4 -10  -5   53.83    7.79
  -4  10   5   49.40    8.74
   4 -10   5   44.05    8.24
   4  -9   5   62.66    6.02
  -4  -9  -5   62.51    8.22
  -4  -9  -5   79.29    9.54
  -4   9   5   48.41    8.79
   4  -9   5   54.07    8.75
   4  -8   5   37.22    4.82
   4   8  -5   33.32    8.05
  -4  -8  -5   37.14    8.47
  -4  -8  -5   41.92    6.79
  -4   8   5   25.23    8.15
   4  -8   5   33.58    7.23
   4  -7   5   51.89    5.36
   4   7  -5   49.85    8.80
  -4  -7  -5   35.36    7.83
  -4  -7  -5   52.66    7.05
  -4   7   5   34.55    8.58
   4  -7   5   46.66    8.25
   4  -6   5    1.02    2.82
   4   6  -5   -0.20    5.87
  -4  -6  -5   -0.57    5.92
  -4  -6  -5    3.23    4.41
  -4   6   5   -0.54    6.74
  -4   6   5    1.99    4.05
   4  -6   5   -0.52    6.19
  -4  -5  -5  169.70   13.02
  -4   5   5  205.51   10.48
  -4  -5  -5  194.51   11.62
   4  -5   5  185.58    8.34
  -4   5   5  174.64   13.19
   4  -5   5  165.90   12.31
   4   5  -5  196.17   14.20
  -4   4   5   72.87    6.86
  -4  -4  -5   75.15    7.59
   4  -4   5   64.74    5.26
   4   4  -5   71.48    9.76
  -4  -4  -5   63.66    9.29
  -4   4   5   67.15    9.45
   4  -4   5   67.37    8.98
  -4   3   5   71.07    6.60
   4   3  -5   55.95    9.53
  -4  -3  -5   58.46    8.89
  -4  -3  -5   51.29    6.45
  -4   3   5   58.61    8.83
   4  -3   5   64.07    8.64
  -4  -2  -5   74.43   10.15
  -4   2   5   84.29    7.17
  -4  -2  -5   86.81    7.85
  -4   2   5   87.67    9.96
   4  -2   5   82.75    9.53
   4   2  -5   86.33   11.27
   4   1  -5    5.90    6.38
  -4  -1  -5    6.07    6.53
  -4  -1  -5    5.88    4.05
  -4   1   5    5.48    3.97
  -4   1   5    6.52    5.71
   4  -1   5    2.67    6.05
   4   0  -5    7.06    7.11
  -4   0  -5    0.99    6.62
  -4   0   5    5.52    3.75
  -4   0   5    3.59    6.25
   4   0   5    6.11    6.21
   4   0  -5    4.13    5.85
   4  -1  -5    3.58    6.27
  -4   1  -5    8.81    5.77
  -4  -1   5    6.93    4.07
  -4  -1   5    8.29    5.33
   4   1   5    6.25    6.57
   4  -1  -5    4.05    5.93
  -4   2  -5   73.80    9.55
  -4  -2   5   84.98    9.44
   4   2   5   78.54    9.89
   4  -2  -5   92.32    9.04
   4  -2  -5   84.52   10.63
  -4  -2   5   86.27    7.19
   4  -3  -5   59.70    9.90
  -4   3  -5   68.71    9.87
  -4  -3   5   66.17    8.65
   4  -3  -5   70.59    8.20
   4   3   5   44.58    7.73
  -4  -3   5   55.15    6.09
   4  -4  -5   67.61    9.70
  -4   4  -5   64.73   10.10
  -4  -4   5   69.47    8.45
   4  -4  -5   70.19    8.02
   4   4   5   63.89    8.83
  -4  -4   5   78.77    6.76
  -4   5  -5  181.76   14.07
  -4  -5   5  204.87   12.87
   4   5   5  181.76   13.26
   4  -5  -5  207.53   11.80
   4  -5  -5  182.49   14.14
  -4  -5   5  192.62    9.76
  -4   6  -5   -1.11    6.64
  -4  -6   5   -0.12    3.51
  -4  -6   5    1.74    5.49
   4   6   5    2.77    6.08
   4  -6  -5   -2.15    5.28
   4  -7  -5   52.48    9.10
  -4   7  -5   41.00    9.15
  -4  -7   5   46.26    7.22
   4   7   5   38.81    8.20
  -4  -7   5   43.93    5.41
   4  -7  -5   46.53    6.97
   4  -8  -5   43.32    9.21
  -4   8  -5   45.81    8.57
  -4  -8   5   38.07    7.00
  -4  -8   5   36.09    4.88
   4   8   5   32.04    8.05
  -4  -8   5   41.65    5.32
   4  -8  -5   34.72    6.34
   4  -9  -5   60.16    9.70
  -4   9  -5   71.73   10.89
  -4  -9   5   46.33    6.64
  -4  -9   5   79.49    6.62
   4  -9  -5   69.04    7.80
  -4  -9   5   71.88    6.45
   4 -10  -5   50.05    9.10
  -4  10  -5   59.77    9.41
  -4 -10   5   58.47    6.23
   4 -10  -5   57.87    7.38
  -4 -10   5   63.11    6.21
   4 -11  -5    1.59    7.44
  -4  11  -5    1.15    8.25
  -4 -11   5   -0.74    3.71
  -4 -11   5   -2.69    4.19
   4 -11  -5   -0.56    5.13
   4 -12  -5   -0.50    8.73
  -4 -12   5    2.23    4.21
  -4 -12   5    1.23    4.46
  -4 -13   5   22.94    5.05
  -5  12   5   26.39    8.55
   5 -12   5    7.03    8.72
  -5  11   5    2.80    7.67
  -5  11   5    5.33    5.25
   5 -11   5    1.18    7.78
   5 -11   5    2.86    3.78
   5 -10   5   63.10    6.49
  -5  10   5   71.41    7.46
  -5 -10  -5   71.24    8.77
  -5  10   5   65.71    9.53
   5 -10   5   73.02    9.39
  -5   9   5  234.48   11.71
  -5  -9  -5  211.51   13.79
   5  -9   5  206.50    9.98
  -5   9   5  203.23   14.99
   5  -9   5  201.36   13.56
   5  -8   5    0.82    3.04
  -5  -8  -5   -2.56    7.82
  -5  -8  -5   -0.10    5.53
  -5   8   5    0.72    3.98
  -5   8   5    0.81    6.52
   5  -8   5    1.32    6.52
   5   7  -5   18.16    7.73
   5  -7   5   22.12    4.17
  -5  -7  -5   19.06    7.08
  -5  -7  -5   17.59    5.96
  -5   7   5   25.71    5.38
  -5   7   5   18.25    7.54
   5  -7   5   30.06    6.84
   5   6  -5    6.14    6.69
   5  -6   5    4.81    2.93
  -5  -6  -5    2.90    6.47
  -5  -6  -5   -2.02    4.67
  -5   6   5    4.49    4.03
  -5   6   5    2.67    6.10
   5  -6   5   -0.88    5.83
   5   5  -5   29.79    7.75
  -5  -5  -5   27.62    7.51
   5  -5   5   28.58    4.14
  -5  -5  -5   28.63    6.08
  -5   5   5   36.01    5.43
  -5   5   5   25.36    7.95
   5  -5   5   33.14    7.55
   5   4  -5   11.08    6.65
  -5  -4  -5    5.28    6.63
   5  -4   5    7.19    2.98
  -5  -4  -5    5.38    4.57
  -5   4   5    7.83    3.90
  -5   4   5    3.42    7.04
   5  -4   5   10.31    5.62
  -5   3   5  190.41   10.31
  -5  -3  -5  157.75   12.88
  -5  -3  -5  159.86   11.06
  -5   3   5  165.20   13.17
   5  -3   5  155.10   12.05
   5   3  -5  149.29   13.07
  -5   2   5   95.87    7.80
  -5  -2  -5   78.78    9.85
  -5  -2  -5   79.16    7.96
  -5   2   5   76.14    9.63
   5  -2   5   75.76    9.39
   5   2  -5   81.78   10.63
   5   1  -5    6.33    7.03
  -5  -1  -5    8.45    5.72
  -5  -1  -5    6.18    4.52
  -5   1   5    9.86    4.01
  -5   1   5   10.17    6.48
   5  -1   5    9.89    6.16
   5   1  -5    7.07    6.20
   5   0  -5    0.26    7.08
  -5   0  -5   -0.21    5.92
  -5   0  -5    0.39    4.21
  -5   0   5   -0.20    3.80
  -5   0   5    0.08    6.27
   5   0   5   -0.70    5.40
   5   0  -5   -0.58    6.34
   5  -1  -5    7.64    7.14
  -5   1  -5    0.37    6.41
  -5   1  -5    6.54    4.23
  -5  -1   5    6.81    4.20
  -5  -1   5    3.91    6.19
   5   1   5    7.40    5.40
   5  -1  -5    7.25    5.85
  -5   2  -5   80.84   10.43
   5  -2  -5   77.97   10.56
  -5  -2   5   73.83    9.39
   5   2   5   83.29    9.70
   5  -2  -5   90.79    9.62
  -5  -2   5   75.72    7.00
  -5   3  -5  164.21   13.39
  -5  -3   5  188.50   12.89
   5   3   5  195.35   13.70
   5  -3  -5  176.53   11.88
   5  -3  -5  181.27   14.69
  -5  -3   5  178.99    9.70
   5  -4  -5    9.16    7.42
  -5   4  -5    8.79    6.77
  -5  -4   5    9.32    4.57
  -5  -4   5    9.50    6.51
   5   4   5    9.08    6.45
   5  -4  -5    5.08    5.19
   5  -5  -5   38.81    8.93
  -5   5  -5   26.34    6.82
  -5  -5   5   26.86    4.92
  -5  -5   5   28.14    7.20
   5   5   5   23.06    6.37
   5  -5  -5   37.28    7.21
   5  -6  -5    3.94    6.86
  -5   6  -5    3.84    7.01
  -5  -6   5    0.85    3.93
  -5  -6   5    6.02    5.82
   5   6   5    1.65    6.66
   5  -6  -5    0.72    5.63
   5  -7  -5   22.43    8.60
  -5   7  -5   16.81    7.23
  -5  -7   5   21.36    4.71
  -5  -7   5   31.69    6.96
   5   7   5   17.85    7.04
   5  -7  -5   19.38    6.04
   5  -8  -5   -2.08    6.93
  -5   8  -5    6.67    7.43
  -5  -8   5    0.82    4.17
  -5  -8   5   -1.77    6.23
   5   8   5    2.75    7.57
   5  -8  -5    0.70    5.43
  -5   9  -5  206.51   15.78
   5  -9  -5  207.42   12.00
  -5  -9   5  210.02   10.62
   5  -9  -5  206.07   15.84
   5 -10  -5   82.70   11.11
  -5  10  -5   69.12   10.70
   5 -10  -5   76.44    7.95
  -5 -10   5   69.51    6.86
   5 -11  -5    3.63    8.64
  -5  11  -5    4.62    9.38
  -5 -11   5    2.33    4.33
   5 -12  -5   12.17    9.35
  -5  12  -5   21.85   10.28
   6  -9   5    9.53    3.60
  -6   9   5    9.15    5.21
  -6   9   5   13.24    8.44
   6  -9   5   10.06    6.69
   6  -8   5    4.21    3.67
  -6  -8  -5    6.17    7.56
  -6  -8  -5   -1.44    5.96
  -6   8   5    4.54    4.74
  -6   8   5    3.38    7.41
   6  -8   5    2.78    7.05
   6   7  -5   -1.83    8.55
  -6  -7  -5   -1.91    8.43
   6  -7   5   -1.15    3.44
  -6  -7  -5   -3.47    6.04
  -6   7   5   -0.22    4.84
  -6   7   5   -0.60    7.59
   6  -7   5   -1.94    6.33
  -6   6   5   97.74    8.13
   6   6  -5   87.63   11.23
  -6  -6  -5   97.93   10.04
   6  -6   5   79.51    6.33
  -6  -6  -5   78.73   10.54
  -6   6   5   76.02   11.18
   6  -6   5   94.05   10.37
   6   5  -5    5.10    7.42
  -6  -5  -5    9.21    6.67
   6  -5   5    2.39    2.88
  -6  -5  -5   11.05    5.40
  -6   5   5    6.82    4.43
  -6   5   5    5.85    7.17
   6  -5   5    5.07    6.40
   6   4  -5   57.29    9.59
  -6  -4  -5   66.48    8.40
   6  -4   5   53.70    5.11
  -6  -4  -5   64.78    9.96
  -6   4   5   57.15    9.86
   6  -4   5   67.78    9.31
  -6   4   5   68.57    7.02
   6   3  -5    7.62    7.86
  -6  -3  -5   19.25    6.98
  -6  -3  -5   16.98    5.19
  -6   3   5   20.46    5.15
  -6   3   5   14.25    7.98
   6  -3   5   15.90    3.37
   6  -3   5   17.34    6.82
   6   3  -5   21.75    7.23
  -6  -2  -5  193.12   14.31
  -6  -2  -5  185.64   12.29
  -6   2   5  187.51   14.23
   6  -2   5  188.85   13.77
   6   2  -5  250.07   14.75
   6   2  -5  156.69   13.90
  -6   2   5  204.78   10.92
   6   1  -5    6.02    8.02
  -6  -1  -5    4.68    6.52
  -6  -1  -5    4.29    5.12
  -6   1   5    3.48    3.88
  -6   1   5    1.38    7.68
   6  -1   5    6.47    6.17
   6   1  -5    5.75    6.73
   6   0  -5   20.94    7.29
  -6   0  -5   18.59    7.11
  -6   0   5   20.43    5.16
  -6   0  -5   20.68    5.74
  -6   0   5   18.81    6.70
   6   0   5   15.69    6.61
   6   0  -5   20.99    7.36
   6  -1  -5    0.98    7.78
  -6   1  -5    2.38    6.57
  -6  -1   5    9.39    3.94
  -6   1  -5    8.85    5.08
  -6  -1   5    1.37    6.80
   6   1   5    7.30    6.64
   6  -1  -5    6.79    6.29
  -6   2  -5  214.40   15.62
  -6   2  -5  193.37   12.23
  -6  -2   5  202.33   14.55
   6   2   5  187.66   13.74
   6  -2  -5  238.07   13.79
   6  -2  -5  191.22   15.45
  -6  -2   5  193.52   10.47
   6  -3  -5   18.79    8.45
  -6   3  -5   15.81    6.55
  -6  -3   5   23.21    5.09
  -6  -3   5   13.34    7.08
   6   3   5   13.45    5.95
   6  -3  -5   21.50    6.34
  -6   4  -5   77.27   10.22
   6  -4  -5   64.07   10.89
  -6  -4   5   62.81    8.84
   6  -4  -5   82.11    9.19
   6   4   5   64.35    9.97
  -6  -4   5   67.26    6.79
   6  -5  -5   22.04    9.04
  -6   5  -5    8.49    7.02
  -6  -5   5    5.25    4.19
  -6  -5   5    8.56    6.44
   6   5   5    6.22    6.63
   6  -5  -5    4.15    6.26
  -6   6  -5   94.44   10.94
   6  -6  -5   89.54   12.18
  -6  -6   5   97.74   10.09
   6  -6  -5   99.24    9.05
   6   6   5   84.15   10.74
  -6  -6   5   98.28    7.94
   6  -7  -5    2.90    7.61
  -6   7  -5   -4.46    6.83
  -6  -7   5   -1.66    4.02
  -6  -7   5    2.23    7.07
   6   7   5    5.23    8.81
   6  -7  -5    0.06    4.99
   6  -8  -5    2.53    8.23
  -6   8  -5    1.86    8.26
  -6  -8   5    6.13    3.86
   6  -8  -5    1.44    5.92
   6  -9  -5    8.84    8.79
  -6   9  -5   11.33    8.46
  -7   8   5   13.76    5.83
   7  -7   5   46.27    5.51
  -7  -7  -5   43.66    9.41
  -7   7   5   46.37    7.11
   7   6  -5   -0.78    9.22
  -7  -6  -5    3.77    9.51
  -7  -6  -5    8.52    6.47
  -7   6   5    0.13    5.09
   7  -6   5   -0.77    3.62
   7   5  -5   33.54    9.58
  -7  -5  -5   39.25    8.42
  -7  -5  -5   44.25    7.90
  -7   5   5   50.01    6.67
   7  -5   5   35.88    4.82
   7   5  -5   52.51    8.59
   7   4  -5    9.65    8.34
  -7  -4  -5    6.26    7.37
  -7  -4  -5   11.89    6.38
  -7   4   5   13.69    5.18
  -7   4   5   16.90    7.61
   7  -4   5   15.32    4.06
   7  -4   5   12.48    6.71
   7   4  -5   19.02    7.42
   7   3  -5   83.29   11.34
  -7  -3  -5   77.73    9.40
   7  -3   5   71.00    5.88
  -7  -3  -5   69.00   10.28
  -7   3   5   72.30   10.94
   7  -3   5   84.52   10.09
   7   3  -5  100.94   10.53
  -7   3   5   91.98    8.08
   7   2  -5    8.13    8.70
  -7  -2  -5    2.42    7.91
  -7   2   5    7.91    4.26
  -7  -2  -5   11.23    6.59
  -7   2   5    7.54    7.72
   7  -2   5    3.00    7.24
   7   2  -5   11.76    6.75
   7   1  -5   23.63    8.74
  -7  -1  -5   18.93    7.55
  -7   1   5   26.68    5.16
  -7  -1  -5   13.32    6.49
  -7   1   5   20.05    8.04
   7  -1   5   26.90    7.48
   7   1  -5   30.78    8.21
   7   0  -5   -3.89    7.73
  -7   0  -5    1.76    7.33
  -7   0   5    0.01    4.39
  -7   0  -5   -0.11    6.39
  -7   0   5   -2.60    7.11
   7   0   5    9.71    6.93
   7   0  -5    1.29    6.60
   7  -1  -5   17.84    8.21
  -7   1  -5   26.88    7.14
  -7  -1   5   27.19    5.66
  -7   1  -5   19.87    6.15
  -7  -1   5   25.80    8.18
   7   1   5   16.79    7.70
   7  -1  -5   24.92    7.24
   7  -2  -5    1.33    8.65
  -7   2  -5    9.50    7.41
  -7  -2   5    8.57    4.56
  -7   2  -5    9.34    6.38
  -7  -2   5    7.25    7.12
   7   2   5    6.28    7.41
   7  -2  -5    5.48    6.25
  -7   3  -5   80.71   10.23
   7  -3  -5   61.36   10.44
  -7   3  -5   83.44    8.93
  -7  -3   5   90.65   10.66
   7  -3  -5   95.50    9.68
   7   3   5   74.55   10.14
  -7  -3   5   88.31    7.83
   7  -4  -5    9.47    7.98
  -7   4  -5   16.79    7.83
  -7  -4   5   20.95    5.16
  -7  -4   5   15.93    6.99
   7   4   5   15.34    7.02
   7  -4  -5   20.16    6.88
  -7  -5   5   40.34    8.54
   7   5   5   45.94    9.42
   7  -5  -5   48.68    7.89
  -7  -6   5   -1.88    7.51
   7   6   5   -1.05    8.61
  -7  -7   5   35.05    7.28
   8   1  -5   22.32    7.88
   8   0  -5   58.68    8.90
  -8   1  -5   14.68    7.36
   8  -1  -5   16.14    7.38
  -8   2  -5   63.44    9.29
   8  -2  -5   81.10    9.63
  -8   3  -5    0.81    8.13
   0   0   6  653.19   22.68
   0   0  -6  677.72   24.71
   0  -1  -6    1.68    6.81
   0   1  -6   -2.89    6.34
   0  -1   6    1.74    3.83
   0   1   6   -0.67    5.98
   0  -1   6    3.39    5.03
   0  -1  -6   -1.19    6.46
   0  -2   6   47.68    5.58
   0  -2  -6   41.07    8.18
   0   2  -6   43.12    8.99
   0   2   6   37.54    7.24
   0  -2   6   44.87    8.01
   0  -2  -6   52.07    8.20
   0  -3  -6   -0.34    6.69
   0   3  -6    0.79    5.69
   0  -3   6    2.12    3.73
   0   3   6   -3.62    6.04
   0  -3   6    4.87    5.12
   0  -3  -6   -0.39    5.53
   0  -4  -6    3.30    6.80
   0   4  -6    4.48    6.39
   0  -4   6    1.82    3.88
   0   4   6    6.88    6.50
   0  -4   6    4.00    5.34
   0  -4  -6    6.06    5.88
   0  -5  -6    0.49    6.85
   0   5  -6   -0.58    6.51
   0  -5   6   -0.81    3.73
   0   5   6    3.95    6.49
   0  -5   6   -0.07    5.50
   0  -5  -6    0.25    5.69
   0  -6  -6   41.05    9.04
   0   6  -6   41.74    8.84
   0  -6   6   25.53    4.93
   0   6   6   32.56    7.55
   0  -6   6   26.62    6.75
   0  -6  -6   33.66    6.72
   0  -7  -6    1.50    6.95
   0   7  -6    1.07    7.43
   0  -7   6   -1.26    2.43
   0   7   6    2.63    6.89
   0  -7   6    0.48    6.36
   0  -7  -6    0.39    5.59
   0  -8  -6    8.40    8.10
   0   8  -6    5.21    7.98
   0   8   6    5.06    7.86
   0  -8   6    4.36    6.05
   0  -8  -6    7.64    4.98
   0  -9  -6    2.47    8.69
   0   9  -6   -3.12    8.86
   0   9   6   -1.85    8.78
   0  -9   6    0.67    7.01
   0  -9  -6   -1.10    5.40
   0 -10  -6    3.22    9.00
   0  10   6    1.83    9.33
   0 -10   6    1.68    7.40
   0 -10  -6    0.04    5.23
  -1 -10  -6   -1.12    9.55
  -1  10   6   -4.52    9.61
   1 -10   6    0.62    7.13
  -1 -10  -6   -0.18    3.21
  -1  -9  -6   -2.81    7.97
   1   9  -6   -2.46    7.99
  -1   9   6   -1.33    8.75
   1  -9   6    1.64    6.95
  -1  -9  -6    2.52    5.20
  -1  -8  -6   35.61    8.23
   1   8  -6   30.64    8.65
  -1   8   6   20.89    7.80
   1  -8   6   22.36    6.73
  -1  -8  -6   21.08    5.78
  -1   7   6  275.59   16.55
   1  -7   6  247.99   14.59
  -1  -7  -6  281.96   12.89
   1   7  -6  299.44   17.19
  -1  -7  -6  319.11   17.74
   1   6  -6    1.03    7.45
  -1  -6  -6    1.04    7.40
  -1   6   6    1.75    6.39
   1  -6   6    1.85    5.55
  -1  -6  -6    0.92    4.82
   1  -5   6  159.59    8.76
  -1   5   6  171.36   13.27
   1  -5   6  161.22   12.19
  -1  -5  -6  174.89   11.24
   1   5  -6  174.62   13.76
  -1  -5  -6  176.63   13.66
   1   4  -6   41.93    9.17
  -1  -4  -6   31.98    8.48
   1  -4   6   39.91    5.21
  -1   4   6   36.32    7.75
   1  -4   6   32.12    6.78
  -1  -4  -6   40.53    7.14
   1   3  -6    8.87    6.82
  -1  -3  -6   15.31    7.25
   1  -3   6    8.12    3.84
  -1   3   6    9.66    6.80
   1  -3   6    5.68    5.30
  -1  -3  -6   10.03    6.40
   1   2  -6   -2.06    6.42
  -1  -2  -6    4.37    6.56
   1  -2   6    1.45    3.61
  -1   2   6   -3.86    6.13
   1  -2   6    0.75    5.86
  -1  -2  -6   -0.18    6.13
   1   1  -6    9.03    6.74
  -1  -1  -6    5.63    6.81
  -1   1   6    6.19    4.17
  -1   1   6    7.78    6.24
   1  -1   6    8.79    5.49
   1   0  -6   -0.14    7.02
  -1   0  -6   -4.45    7.69
  -1   0   6    0.95    3.83
  -1   0   6    1.72    5.82
   1   0   6    0.50    5.78
   1  -1  -6    0.07    7.63
  -1   1  -6    6.56    7.09
  -1  -1   6    8.24    4.32
  -1  -1   6    9.55    5.55
   1   1   6   10.28    5.64
   1  -1  -6   13.26    6.67
   1  -2  -6   -2.18    7.12
  -1   2  -6    0.42    7.45
  -1  -2   6    0.40    4.00
  -1  -2   6    0.52    5.60
   1   2   6    4.99    5.86
   1  -2  -6    2.67    6.19
   1  -3  -6    9.68    7.17
  -1   3  -6   10.35    6.22
  -1  -3   6    6.04    3.87
  -1  -3   6   13.18    5.99
   1   3   6   14.84    6.46
   1  -3  -6    6.67    5.70
   1  -4  -6   35.88    8.69
  -1   4  -6   36.77    8.63
  -1  -4   6   43.22    5.53
  -1  -4   6   37.53    7.37
   1   4   6   39.08    8.34
   1  -4  -6   44.26    7.34
  -1  -5   6  151.88   11.77
   1   5   6  184.39   13.38
   1  -5  -6  196.97   12.32
   1  -5  -6  200.49   15.04
  -1  -5   6  186.79    9.79
  -1   5  -6  168.90   14.28
   1  -6  -6   -0.05    7.67
  -1   6  -6    1.60    7.65
  -1  -6   6   -0.17    3.74
  -1  -6   6    0.98    5.85
   1   6   6    1.55    7.02
   1  -6  -6    0.78    6.02
  -1  -7   6  276.15   14.65
   1   7   6  275.42   16.11
   1  -7  -6  261.62   13.33
  -1  -7   6  263.41   11.15
   1  -7  -6  308.72   18.22
  -1   7  -6  318.48   18.45
   1  -8  -6   27.75    9.36
  -1   8  -6   29.72    8.33
  -1  -8   6   19.97    4.61
   1   8   6   25.77    7.69
  -1  -8   6   23.57    7.03
   1  -8  -6   25.40    6.17
   1  -9  -6    2.53    9.05
  -1   9  -6    0.05    8.30
   1   9   6   -1.41    7.86
  -1  -9   6    0.40    6.86
   1  -9  -6    2.90    5.57
   1 -10  -6   -3.03    9.99
  -1  10  -6   -5.52    9.14
  -2  -9  -6   13.36    8.91
  -2   9   6    8.40    8.55
   2  -9   6   21.03    7.53
   2   8  -6   -2.34    8.76
  -2  -8  -6    1.87    8.48
  -2   8   6   -0.67    8.51
   2  -8   6    0.27    7.40
   2   7  -6   19.75    7.92
  -2  -7  -6   11.99    7.95
   2  -7   6   16.83    7.29
   2   6  -6   10.47    7.74
  -2  -6  -6   14.34    7.00
  -2   6   6   13.42    7.16
   2  -6   6   13.06    6.28
  -2  -6  -6    0.00    2.29
   2   5  -6    3.98    7.50
  -2  -5  -6    1.68    7.84
  -2   5   6    6.76    6.30
   2  -5   6    0.52    5.80
  -2  -5  -6    4.32    5.28
   2   4  -6    2.01    6.64
  -2  -4  -6    3.49    6.64
  -2   4   6    3.57    6.28
   2  -4   6    5.59    5.75
  -2  -4  -6    2.40    5.41
   2   3  -6   33.22    8.31
  -2  -3  -6   28.68    8.14
   2  -3   6   35.22    4.99
  -2   3   6   34.27    5.86
  -2   3   6   40.02    8.47
   2  -3   6   37.06    8.02
  -2  -3  -6   29.40    6.84
   2   2  -6   39.62    8.05
  -2  -2  -6   39.59    8.99
  -2   2   6   45.96    6.06
  -2   2   6   34.91    7.77
   2  -2   6   33.46    8.05
  -2  -2  -6   35.98    7.14
  -2   1   6   90.75    7.95
   2   1  -6   84.84   10.97
  -2  -1  -6   83.33   11.07
  -2   1   6   82.67    9.68
   2  -1   6   84.79    9.90
  -2   0   6  241.69   11.58
  -2   0   6  222.65   14.26
   2   0   6  223.58   14.55
   2   0  -6  211.12   13.86
   2   0  -6  235.49   16.07
  -2   0  -6  233.33   15.99
  -2  -1   6   87.12    7.49
  -2  -1   6   99.89   10.18
   2   1   6   85.61   10.33
   2  -1  -6  103.02   10.22
   2  -1  -6   97.77   11.50
  -2   1  -6   97.54   11.10
   2  -2  -6   39.06    8.64
  -2   2  -6   41.25    9.28
  -2  -2   6   33.29    5.54
  -2  -2   6   44.94    8.03
   2   2   6   29.98    8.21
   2  -2  -6   49.05    8.34
   2  -3  -6   23.53    8.97
  -2   3  -6   45.30    9.06
  -2  -3   6   33.24    5.43
  -2  -3   6   32.13    7.08
   2   3   6   24.65    7.34
   2  -3  -6   30.03    7.97
   2  -4  -6    2.40    7.06
  -2  -4   6    3.14    4.01
  -2  -4   6    6.93    5.86
   2   4   6   -0.91    5.82
   2  -4  -6    2.38    6.39
   2  -5  -6    3.02    8.00
  -2   5  -6    8.61    7.01
  -2  -5   6    1.85    3.84
  -2  -5   6    5.26    5.85
   2   5   6    4.67    6.92
   2  -5  -6    4.19    6.22
   2  -6  -6   16.43    8.50
  -2   6  -6   23.32    7.57
  -2  -6   6   15.71    4.71
  -2  -6   6   12.87    6.29
   2   6   6   13.03    6.46
   2  -6  -6   13.31    6.29
  -2   7  -6   20.56    8.40
  -2  -7   6   18.50    4.62
  -2  -7   6   17.27    5.89
   2   7   6   18.61    7.68
   2  -7  -6   20.35    6.87
   2  -8  -6    2.04    9.19
  -2   8  -6    5.11    9.33
  -2  -8   6    1.69    4.07
  -2  -8   6    3.21    6.99
   2   8   6   -4.31    8.60
   2  -9  -6   11.51    9.58
  -2   9  -6    9.44    9.30
  -2  -9   6   10.07    4.42
  -2  -9   6    4.71    7.21
   2   9   6    9.66    9.32
  -3  -9  -6   19.62    9.51
   3   8  -6  140.67   12.90
  -3  -8  -6  151.58   14.09
   3   7  -6   61.23    9.78
  -3  -7  -6   50.80    9.98
  -3   7   6   54.74    9.13
   3  -7   6   37.68    8.00
   3   6  -6    8.52    8.26
  -3  -6  -6   13.84    7.70
  -3   6   6   16.42    8.41
  -3   6   6   16.07    4.78
   3  -6   6    7.63    7.09
  -3   5   6   49.12    6.51
   3   5  -6   57.22    9.85
  -3  -5  -6   55.99    9.26
  -3   5   6   46.94    8.82
   3  -5   6   36.08    8.21
  -3   4   6  212.26   11.24
  -3   4   6  232.33   15.51
   3  -4   6  201.74   14.74
   3   4  -6  250.76   16.59
  -3  -4  -6  217.70   15.52
   3   3  -6   21.99    7.71
  -3  -3  -6   24.75    7.99
  -3   3   6   30.50    5.65
  -3   3   6   44.91    8.24
   3  -3   6   17.82    6.98
   3   2  -6   -0.45    6.78
  -3  -2  -6    2.08    7.67
  -3   2   6    7.14    4.50
   3  -2   6   -0.95    7.64
   3   1  -6   15.54    7.75
  -3  -1  -6   11.51    7.69
  -3   1   6   11.92    4.55
  -3   1   6    3.30    7.26
   3  -1   6   11.63    6.48
   3   0  -6   -0.69    6.33
  -3   0  -6    2.33    7.90
  -3   0   6    2.98    4.37
  -3   0   6   -0.58    5.92
   3   0   6   -1.20    7.32
   3   0  -6   -0.54    7.02
   3  -1  -6    9.61    8.21
  -3   1  -6    9.41    6.72
  -3  -1   6   10.59    4.68
  -3  -1   6   16.80    6.63
   3   1   6   12.83    7.25
   3  -1  -6   19.81    7.90
   3  -2  -6   -0.86    8.48
  -3   2  -6   -0.78    8.03
  -3  -2   6    0.04    4.46
  -3  -2   6    0.47    6.22
   3   2   6   -3.09    6.96
   3  -2  -6    1.55    7.01
   3  -3  -6   32.59    8.47
  -3   3  -6   20.98    7.41
  -3  -3   6   31.06    5.81
  -3  -3   6   34.11    7.33
   3   3   6   34.61    8.31
   3  -3  -6   31.95    7.60
  -3   4  -6  206.86   16.42
  -3  -4   6  200.91   13.34
   3   4   6  217.14   14.98
   3  -4  -6  256.09   14.50
   3  -4  -6  239.91   17.00
  -3  -4   6  226.82   11.28
   3  -5  -6   47.52   10.21
  -3   5  -6   36.37    9.17
  -3  -5   6   47.94    7.94
   3   5   6   44.58    8.11
   3  -5  -6   47.47    8.44
  -3  -5   6   50.12    6.31
   3  -6  -6   11.82    9.56
  -3   6  -6    0.76    8.77
  -3  -6   6    9.88    4.22
  -3  -6   6   13.49    6.68
   3   6   6   10.90    7.58
   3  -6  -6   10.99    7.05
   3  -7  -6   58.04   10.63
  -3   7  -6   42.93    9.37
  -3  -7   6   45.91    7.61
   3   7   6   49.12    9.39
  -3  -7   6   55.52    6.67
  -3  -8   6  126.21   10.89
   3   8   6  140.52   12.92
  -3  -8   6  117.08    8.33
   4   7  -6   19.27    8.88
  -4  -7  -6   24.92    8.75
   4   6  -6   -0.65    9.60
  -4  -6  -6    9.59    8.33
   4   5  -6   -1.13    8.04
  -4  -5  -6    7.44    9.31
   4   4  -6   48.70    9.65
  -4  -4  -6   46.53    9.10
  -4   3   6   60.43    6.88
   4   3  -6   56.80   10.43
  -4  -3  -6   41.80    9.24
  -4   3   6   56.39    9.97
   4  -3   6   38.59    9.86
   4   2  -6   39.86    8.99
  -4  -2  -6   32.26    9.12
  -4   2   6   35.05    6.21
  -4   2   6   34.11    8.32
   4  -2   6   35.67    9.52
  -4   1   6   81.56    7.97
   4   1  -6   94.77   12.11
  -4  -1  -6   72.01   11.36
  -4   1   6   88.28   10.63
   4   1  -6  102.78   10.71
   4  -1   6   72.49   10.59
   4   0  -6    2.01    9.47
  -4   0  -6    2.31    7.53
  -4   0   6    1.08    4.45
  -4   0   6   -2.05    6.91
   4   0   6    1.57    7.47
   4   0  -6    2.11    7.50
   4  -1  -6   83.46   11.43
  -4   1  -6   76.68   11.14
  -4  -1   6   83.17   10.73
   4  -1  -6   92.10   10.46
   4   1   6   68.16   10.60
  -4  -1   6   84.94    7.85
   4  -2  -6   39.49   10.20
  -4   2  -6   33.07    9.87
  -4  -2   6   28.82    5.80
  -4  -2   6   31.97    7.68
   4   2   6   26.15    8.64
   4  -2  -6   46.85    9.06
   4  -3  -6   62.63   11.17
  -4   3  -6   52.75   10.35
  -4  -3   6   50.89    8.14
   4   3   6   51.65    9.63
   4  -3  -6   67.71    9.13
  -4  -3   6   51.70    6.78
  -4  -4   6   49.28    8.52
   4   4   6   33.89    8.29
  -4  -4   6   53.03    6.64
  -4  -5   6    0.12    6.87
   4   5   6   -1.28    8.61
  -4  -6   6    2.66    7.65
   4   6   6    4.34    8.15
  -4  -7   6   11.70    7.25
  -4  -8   6   31.81    7.63
   0   0   0    0.00    0.00
;
_shelx_hkl_checksum              67882
loop_
_space_group_symop_operation_xyz
'x, y, z'
'-x, -y, z'
'-x+1/2, y+1/2, -z'
'x+1/2, -y+1/2, -z'
'-x, -y, -z'
'x, y, -z'
'x-1/2, -y-1/2, z'
'-x-1/2, y-1/2, z'
loop_
_atom_site_label
_atom_site_type_symbol
_atom_site_fract_x
_atom_site_fract_y
_atom_site_fract_z
_atom_site_U_iso_or_equiv
_atom_site_adp_type
_atom_site_occupancy
_atom_site_site_symmetry_order
_atom_site_calc_flag
_atom_site_refinement_flags_posn
_atom_site_refinement_flags_adp
_atom_site_refinement_flags_occupancy
Ag1 Ag 0.0000 0.0000 0.0000 0.01433(13) Uani 1 4 d S T P
Ge1 Ge 0.08487(5) 0.16264(3) 0.0000 0.00967(12) Uani 1 2 d S T P
Ge2 Ge 0.06898(5) 0.42522(3) 0.5000 0.00999(12) Uani 1 2 d S T P
Li1 Li 0.1555(11) 0.5208(6) 0.0000 0.0224(17) Uani 1 2 d S T P
Li2 Li 0.7398(11) 0.1558(6) 0.0000 0.0225(17) Uani 1 2 d S T P
Li3 Li 0.9094(10) 0.3126(7) 0.0000 0.033(2) Uani 1 2 d S T P
Li4 Li 0.7370(10) 0.4134(6) 0.5000 0.0240(19) Uani 1 2 d S T P
Li5 Li 0.4067(8) 0.3999(6) 0.5000 0.0160(15) Uani 1 2 d S T P
Li6A Li 0.069(4) 0.2524(9) 0.5000 0.013(5) Uiso 0.58(7) 2 d S . P
Li6B Li 0.130(5) 0.2505(11) 0.5000 0.013(6) Uiso 0.42(7) 2 d S . P
loop_
_atom_site_aniso_label
_atom_site_aniso_U_11
_atom_site_aniso_U_22
_atom_site_aniso_U_33
_atom_site_aniso_U_23
_atom_site_aniso_U_13
_atom_site_aniso_U_12
Ag1 0.0180(2) 0.0108(2) 0.0142(2) 0.000 0.000 -0.00077(15)
Ge1 0.0110(2) 0.0097(2) 0.0083(2) 0.000 0.000 0.00035(14)
Ge2 0.0104(2) 0.0101(2) 0.0095(2) 0.000 0.000 0.00140(14)
Li1 0.024(4) 0.029(4) 0.015(3) 0.000 0.000 -0.001(3)
Li2 0.019(4) 0.028(4) 0.021(4) 0.000 0.000 -0.002(3)
Li3 0.013(4) 0.028(5) 0.058(7) 0.000 0.000 0.004(3)
Li4 0.011(3) 0.041(5) 0.020(4) 0.000 0.000 -0.011(3)
Li5 0.009(3) 0.025(4) 0.014(3) 0.000 0.000 0.002(3)
loop_
_atom_type_symbol
_atom_type_description
_atom_type_scat_dispersion_real
_atom_type_scat_dispersion_imag
_atom_type_scat_source
Li Li -0.0003 0.0001 'International Tables Vol C Tables 4.2.6.8 and 6.1.1.4'
Ge Ge 0.1547 1.8001 'International Tables Vol C Tables 4.2.6.8 and 6.1.1.4'
Ag Ag -0.8971 1.1015 'International Tables Vol C Tables 4.2.6.8 and 6.1.1.4'
loop_
_geom_angle_atom_site_label_1
_geom_angle_atom_site_label_2
_geom_angle_atom_site_label_3
_geom_angle
_geom_angle_site_symmetry_1
_geom_angle_site_symmetry_3
Ge1 Ag1 Ge1 180.0 5 .
Ge1 Ag1 Li1 68.01(19) 5 7_565
Ge1 Ag1 Li1 111.99(19) . 7_565
Ge1 Ag1 Li1 111.99(19) 5 3_545
Ge1 Ag1 Li1 68.01(19) . 3_545
Li1 Ag1 Li1 180.0 7_565 3_545
Ge1 Ag1 Li5 116.57(15) 5 7_565
Ge1 Ag1 Li5 63.43(15) . 7_565
Li1 Ag1 Li5 78.18(18) 7_565 7_565
Li1 Ag1 Li5 101.82(18) 3_545 7_565
Ge1 Ag1 Li5 63.43(15) 5 3_545
Ge1 Ag1 Li5 116.57(15) . 3_545
Li1 Ag1 Li5 101.82(18) 7_565 3_545
Li1 Ag1 Li5 78.18(18) 3_545 3_545
Li5 Ag1 Li5 180.0(3) 7_565 3_545
Ge1 Ag1 Li5 116.57(15) 5 7_564
Ge1 Ag1 Li5 63.43(15) . 7_564
Li1 Ag1 Li5 78.18(18) 7_565 7_564
Li1 Ag1 Li5 101.82(18) 3_545 7_564
Li5 Ag1 Li5 106.1(3) 7_565 7_564
Li5 Ag1 Li5 73.9(3) 3_545 7_564
Ge1 Ag1 Li5 63.43(15) 5 3_546
Ge1 Ag1 Li5 116.57(15) . 3_546
Li1 Ag1 Li5 101.82(18) 7_565 3_546
Li1 Ag1 Li5 78.18(18) 3_545 3_546
Li5 Ag1 Li5 73.9(3) 7_565 3_546
Li5 Ag1 Li5 106.1(3) 3_545 3_546
Li5 Ag1 Li5 180.0(3) 7_564 3_546
Ge1 Ag1 Li2 122.84(16) 5 1_455
Ge1 Ag1 Li2 57.16(16) . 1_455
Li1 Ag1 Li2 54.8(2) 7_565 1_455
Li1 Ag1 Li2 125.2(2) 3_545 1_455
Li5 Ag1 Li2 54.55(13) 7_565 1_455
Li5 Ag1 Li2 125.45(13) 3_545 1_455
Li5 Ag1 Li2 54.55(13) 7_564 1_455
Li5 Ag1 Li2 125.45(13) 3_546 1_455
Ge1 Ag1 Li2 57.16(16) 5 5_655
Ge1 Ag1 Li2 122.84(16) . 5_655
Li1 Ag1 Li2 125.2(2) 7_565 5_655
Li1 Ag1 Li2 54.8(2) 3_545 5_655
Li5 Ag1 Li2 125.45(13) 7_565 5_655
Li5 Ag1 Li2 54.55(13) 3_545 5_655
Li5 Ag1 Li2 125.45(13) 7_564 5_655
Li5 Ag1 Li2 54.55(13) 3_546 5_655
Li2 Ag1 Li2 180.0(2) 1_455 5_655
Ge1 Ag1 Li4 56.65(14) 5 3_545
Ge1 Ag1 Li4 123.35(14) . 3_545
Li1 Ag1 Li4 50.68(14) 7_565 3_545
Li1 Ag1 Li4 129.32(14) 3_545 3_545
Li5 Ag1 Li4 128.11(18) 7_565 3_545
Li5 Ag1 Li4 51.89(18) 3_545 3_545
Li5 Ag1 Li4 60.3(2) 7_564 3_545
Li5 Ag1 Li4 119.7(2) 3_546 3_545
Li2 Ag1 Li4 84.87(17) 1_455 3_545
Li2 Ag1 Li4 95.13(17) 5_655 3_545
Ge1 Ag1 Li4 123.35(14) 5 7_565
Ge1 Ag1 Li4 56.65(14) . 7_565
Li1 Ag1 Li4 129.32(14) 7_565 7_565
Li1 Ag1 Li4 50.68(14) 3_545 7_565
Li5 Ag1 Li4 51.89(18) 7_565 7_565
Li5 Ag1 Li4 128.11(18) 3_545 7_565
Li5 Ag1 Li4 119.7(2) 7_564 7_565
Li5 Ag1 Li4 60.3(2) 3_546 7_565
Li2 Ag1 Li4 95.13(17) 1_455 7_565
Li2 Ag1 Li4 84.87(17) 5_655 7_565
Li4 Ag1 Li4 180.0 3_545 7_565
Ag1 Ge1 Li6B 121.5(3) . 1_554
Ag1 Ge1 Li6B 121.5(3) . .
Li6B Ge1 Li6B 117.0(7) 1_554 .
Ag1 Ge1 Li6A 119.0(3) . 1_554
Li6B Ge1 Li6A 10.7(5) 1_554 1_554
Li6B Ge1 Li6A 118.3(3) . 1_554
Ag1 Ge1 Li6A 119.0(3) . .
Li6B Ge1 Li6A 118.3(3) 1_554 .
Li6B Ge1 Li6A 10.7(5) . .
Li6A Ge1 Li6A 117.5(5) 1_554 .
Ag1 Ge1 Li3 113.7(2) . 7_565
Li6B Ge1 Li3 78.0(8) 1_554 7_565
Li6B Ge1 Li3 78.0(8) . 7_565
Li6A Ge1 Li3 88.5(6) 1_554 7_565
Li6A Ge1 Li3 88.5(6) . 7_565
Ag1 Ge1 Li3 132.6(2) . 1_455
Li6B Ge1 Li3 69.2(6) 1_554 1_455
Li6B Ge1 Li3 69.2(6) . 1_455
Li6A Ge1 Li3 62.4(4) 1_554 1_455
Li6A Ge1 Li3 62.4(4) . 1_455
Li3 Ge1 Li3 113.76(16) 7_565 1_455
Ag1 Ge1 Li2 72.36(18) . 1_455
Li6B Ge1 Li2 99.0(8) 1_554 1_455
Li6B Ge1 Li2 99.0(8) . 1_455
Li6A Ge1 Li2 88.3(6) 1_554 1_455
Li6A Ge1 Li2 88.3(6) . 1_455
Li3 Ge1 Li2 174.0(3) 7_565 1_455
Li3 Ge1 Li2 60.2(3) 1_455 1_455
Ag1 Ge1 Li4 73.86(18) . 7_565
Li6B Ge1 Li4 146.0(9) 1_554 7_565
Li6B Ge1 Li4 57.6(5) . 7_565
Li6A Ge1 Li4 156.5(6) 1_554 7_565
Li6A Ge1 Li4 63.1(4) . 7_565
Li3 Ge1 Li4 68.02(19) 7_565 7_565
Li3 Ge1 Li4 125.36(14) 1_455 7_565
Li2 Ge1 Li4 114.92(18) 1_455 7_565
Ag1 Ge1 Li4 73.86(18) . 7_564
Li6B Ge1 Li4 57.6(5) 1_554 7_564
Li6B Ge1 Li4 146.0(9) . 7_564
Li6A Ge1 Li4 63.1(4) 1_554 7_564
Li6A Ge1 Li4 156.5(6) . 7_564
Li3 Ge1 Li4 68.02(19) 7_565 7_564
Li3 Ge1 Li4 125.36(14) 1_455 7_564
Li2 Ge1 Li4 114.92(18) 1_455 7_564
Li4 Ge1 Li4 106.4(3) 7_565 7_564
Ag1 Ge1 Li5 62.73(16) . 7_564
Li6B Ge1 Li5 64.0(6) 1_554 7_564
Li6B Ge1 Li5 156.3(8) . 7_564
Li6A Ge1 Li5 58.0(4) 1_554 7_564
Li6A Ge1 Li5 145.8(6) . 7_564
Li3 Ge1 Li5 123.33(14) 7_565 7_564
Li3 Ge1 Li5 90.9(2) 1_455 7_564
Li2 Ge1 Li5 58.72(14) 1_455 7_564
Li4 Ge1 Li5 136.1(2) 7_565 7_564
Li4 Ge1 Li5 56.52(19) 7_564 7_564
Ag1 Ge1 Li5 62.73(16) . 7_565
Li6B Ge1 Li5 156.3(8) 1_554 7_565
Li6B Ge1 Li5 64.0(6) . 7_565
Li6A Ge1 Li5 145.8(6) 1_554 7_565
Li6A Ge1 Li5 58.0(4) . 7_565
Li3 Ge1 Li5 123.33(14) 7_565 7_565
Li3 Ge1 Li5 90.9(2) 1_455 7_565
Li2 Ge1 Li5 58.72(14) 1_455 7_565
Li4 Ge1 Li5 56.52(19) 7_565 7_565
Li4 Ge1 Li5 136.1(2) 7_564 7_565
Li5 Ge1 Li5 105.2(2) 7_564 7_565
Ge2 Ge2 Li6A 153.9(6) 5_566 .
Ge2 Ge2 Li6B 164.3(8) 5_566 .
Li6A Ge2 Li6B 10.5(4) . .
Ge2 Ge2 Li4 67.68(19) 5_566 1_455
Li6A Ge2 Li4 86.2(6) . 1_455
Li6B Ge2 Li4 96.7(8) . 1_455
Ge2 Ge2 Li5 124.16(18) 5_566 .
Li6A Ge2 Li5 81.9(6) . .
Li6B Ge2 Li5 71.5(8) . .
Li4 Ge2 Li5 168.2(3) 1_455 .
Ge2 Ge2 Li1 68.97(18) 5_566 1_556
Li6A Ge2 Li1 121.6(3) . 1_556
Li6B Ge2 Li1 118.0(4) . 1_556
Li4 Ge2 Li1 106.7(2) 1_455 1_556
Li5 Ge2 Li1 79.8(2) . 1_556
Ge2 Ge2 Li1 68.97(18) 5_566 .
Li6A Ge2 Li1 121.6(3) . .
Li6B Ge2 Li1 118.0(4) . .
Li4 Ge2 Li1 106.7(2) 1_455 .
Li5 Ge2 Li1 79.8(2) . .
Li1 Ge2 Li1 108.9(3) 1_556 .
Ge2 Ge2 Li4 58.77(17) 5_566 5_666
Li6A Ge2 Li4 147.3(6) . 5_666
Li6B Ge2 Li4 136.9(8) . 5_666
Li4 Ge2 Li4 126.45(14) 1_455 5_666
Li5 Ge2 Li4 65.4(2) . 5_666
Li1 Ge2 Li4 54.76(15) 1_556 5_666
Li1 Ge2 Li4 54.76(15) . 5_666
Ge2 Ge2 Li2 125.98(14) 5_566 7_566
Li6A Ge2 Li2 65.0(4) . 7_566
Li6B Ge2 Li2 59.9(4) . 7_566
Li4 Ge2 Li2 116.37(18) 1_455 7_566
Li5 Ge2 Li2 58.16(17) . 7_566
Li1 Ge2 Li2 58.2(2) 1_556 7_566
Li1 Ge2 Li2 136.9(3) . 7_566
Li4 Ge2 Li2 95.8(2) 5_666 7_566
Ge2 Ge2 Li2 125.98(14) 5_566 7_565
Li6A Ge2 Li2 65.0(4) . 7_565
Li6B Ge2 Li2 59.9(4) . 7_565
Li4 Ge2 Li2 116.37(18) 1_455 7_565
Li5 Ge2 Li2 58.16(17) . 7_565
Li1 Ge2 Li2 136.9(3) 1_556 7_565
Li1 Ge2 Li2 58.2(2) . 7_565
Li4 Ge2 Li2 95.8(2) 5_666 7_565
Li2 Ge2 Li2 101.3(3) 7_566 7_565
Ge2 Ge2 Li1 59.30(16) 5_566 5_565
Li6A Ge2 Li1 105.8(4) . 5_565
Li6B Ge2 Li1 112.2(5) . 5_565
Li4 Ge2 Li1 54.30(16) 1_455 5_565
Li5 Ge2 Li1 129.44(14) . 5_565
Li1 Ge2 Li1 128.28(8) 1_556 5_565
Li1 Ge2 Li1 53.1(3) . 5_565
Li4 Ge2 Li1 95.5(2) 5_666 5_565
Li2 Ge2 Li1 168.6(2) 7_566 5_565
Li2 Ge2 Li1 79.7(2) 7_565 5_565
Ge2 Ge2 Li1 59.30(16) 5_566 5_566
Li6A Ge2 Li1 105.8(4) . 5_566
Li6B Ge2 Li1 112.2(5) . 5_566
Li4 Ge2 Li1 54.30(16) 1_455 5_566
Li5 Ge2 Li1 129.44(14) . 5_566
Li1 Ge2 Li1 53.1(3) 1_556 5_566
Li1 Ge2 Li1 128.28(8) . 5_566
Li4 Ge2 Li1 95.5(2) 5_666 5_566
Li2 Ge2 Li1 79.7(2) 7_566 5_566
Li2 Ge2 Li1 168.6(2) 7_565 5_566
Li1 Ge2 Li1 97.1(3) 5_565 5_566
Li3 Li1 Li1 92.4(5) 5_665 5_565
Li3 Li1 Li4 72.1(3) 5_665 5_666
Li1 Li1 Li4 114.5(3) 5_565 5_666
Li3 Li1 Li4 72.1(3) 5_665 5_665
Li1 Li1 Li4 114.5(3) 5_565 5_665
Li4 Li1 Li4 119.1(5) 5_666 5_665
Li3 Li1 Li2 177.5(4) 5_665 7_565
Li1 Li1 Li2 90.2(5) 5_565 7_565
Li4 Li1 Li2 106.8(3) 5_666 7_565
Li4 Li1 Li2 106.8(3) 5_665 7_565
Li3 Li1 Ge2 117.5(2) 5_665 1_554
Li1 Li1 Ge2 68.1(2) 5_565 1_554
Li4 Li1 Ge2 170.3(4) 5_666 1_554
Li4 Li1 Ge2 65.32(16) 5_665 1_554
Li2 Li1 Ge2 63.55(19) 7_565 1_554
Li3 Li1 Ge2 117.5(2) 5_665 .
Li1 Li1 Ge2 68.1(2) 5_565 .
Li4 Li1 Ge2 65.32(16) 5_666 .
Li4 Li1 Ge2 170.3(4) 5_665 .
Li2 Li1 Ge2 63.55(19) 7_565 .
Ge2 Li1 Ge2 108.9(3) 1_554 .
Li3 Li1 Ag1 108.2(4) 5_665 3
Li1 Li1 Ag1 159.4(6) 5_565 3
Li4 Li1 Ag1 73.3(3) 5_666 3
Li4 Li1 Ag1 73.3(3) 5_665 3
Li2 Li1 Ag1 69.3(3) 7_565 3
Ge2 Li1 Ag1 101.1(2) 1_554 3
Ge2 Li1 Ag1 101.1(2) . 3
Li3 Li1 Ge2 67.1(2) 5_665 5_565
Li1 Li1 Ge2 58.8(2) 5_565 5_565
Li4 Li1 Ge2 137.9(4) 5_666 5_565
Li4 Li1 Ge2 56.62(18) 5_665 5_565
Li2 Li1 Ge2 114.4(2) 7_565 5_565
Ge2 Li1 Ge2 51.72(8) 1_554 5_565
Ge2 Li1 Ge2 126.9(3) . 5_565
Ag1 Li1 Ge2 129.05(15) 3 5_565
Li3 Li1 Ge2 67.1(2) 5_665 5_566
Li1 Li1 Ge2 58.8(2) 5_565 5_566
Li4 Li1 Ge2 56.62(18) 5_666 5_566
Li4 Li1 Ge2 137.9(4) 5_665 5_566
Li2 Li1 Ge2 114.4(2) 7_565 5_566
Ge2 Li1 Ge2 126.9(3) 1_554 5_566
Ge2 Li1 Ge2 51.72(8) . 5_566
Ag1 Li1 Ge2 129.05(15) 3 5_566
Ge2 Li1 Ge2 97.1(3) 5_565 5_566
Li3 Li1 Ge1 56.0(3) 5_665 3
Li1 Li1 Ge1 148.4(6) 5_565 3
Li4 Li1 Ge1 59.6(2) 5_666 3
Li4 Li1 Ge1 59.6(2) 5_665 3
Li2 Li1 Ge1 121.5(3) 7_565 3
Ge2 Li1 Ge1 123.44(16) 1_554 3
Ge2 Li1 Ge1 123.44(16) . 3
Ag1 Li1 Ge1 52.21(15) 3 3
Ge2 Li1 Ge1 103.0(2) 5_565 3
Ge2 Li1 Ge1 103.0(2) 5_566 3
Li3 Li1 Li5 128.5(3) 5_665 .
Li1 Li1 Li5 115.4(4) 5_565 .
Li4 Li1 Li5 57.3(2) 5_666 .
Li4 Li1 Li5 123.8(4) 5_665 .
Li2 Li1 Li5 50.0(2) 7_565 .
Ge2 Li1 Li5 113.0(3) 1_554 .
Ge2 Li1 Li5 49.92(14) . .
Ag1 Li1 Li5 51.15(16) 3 .
Ge2 Li1 Li5 164.4(3) 5_565 .
Ge2 Li1 Li5 90.56(9) 5_566 .
Ge1 Li1 Li5 88.3(2) 3 .
Li3 Li2 Li3 109.8(4) 7_565 .
Li3 Li2 Li5 122.4(2) 7_565 7_665
Li3 Li2 Li5 91.3(3) . 7_665
Li3 Li2 Li5 122.4(2) 7_565 7_664
Li3 Li2 Li5 91.3(3) . 7_664
Li5 Li2 Li5 109.5(4) 7_665 7_664
Li3 Li2 Li1 85.9(4) 7_565 7_665
Li3 Li2 Li1 164.3(4) . 7_665
Li5 Li2 Li1 79.8(3) 7_665 7_665
Li5 Li2 Li1 79.8(3) 7_664 7_665
Li3 Li2 Ge1 167.7(4) 7_565 1_655
Li3 Li2 Ge1 57.9(3) . 1_655
Li5 Li2 Ge1 61.5(2) 7_665 1_655
Li5 Li2 Ge1 61.5(2) 7_664 1_655
Li1 Li2 Ge1 106.4(3) 7_665 1_655
Li3 Li2 Li6B 66.4(8) 7_565 7_665
Li3 Li2 Li6B 73.7(6) . 7_665
Li5 Li2 Li6B 69.8(5) 7_665 7_665
Li5 Li2 Li6B 164.8(7) 7_664 7_665
Li1 Li2 Li6B 114.4(5) 7_665 7_665
Ge1 Li2 Li6B 107.3(8) 1_655 7_665
Li3 Li2 Li6B 66.4(8) 7_565 7_664
Li3 Li2 Li6B 73.7(6) . 7_664
Li5 Li2 Li6B 164.8(7) 7_665 7_664
Li5 Li2 Li6B 69.8(5) 7_664 7_664
Li1 Li2 Li6B 114.4(5) 7_665 7_664
Ge1 Li2 Li6B 107.3(8) 1_655 7_664
Li6B Li2 Li6B 106.7(8) 7_665 7_664
Li3 Li2 Ge2 67.0(2) 7_565 7_664
Li3 Li2 Ge2 127.01(16) . 7_664
Li5 Li2 Ge2 137.2(4) 7_665 7_664
Li5 Li2 Ge2 58.03(15) 7_664 7_664
Li1 Li2 Ge2 58.29(16) 7_665 7_664
Ge1 Li2 Ge2 119.3(2) 1_655 7_664
Li6B Li2 Ge2 133.2(8) 7_665 7_664
Li6B Li2 Ge2 56.2(4) 7_664 7_664
Li3 Li2 Ge2 67.0(2) 7_565 7_665
Li3 Li2 Ge2 127.01(16) . 7_665
Li5 Li2 Ge2 58.03(15) 7_665 7_665
Li5 Li2 Ge2 137.2(4) 7_664 7_665
Li1 Li2 Ge2 58.29(16) 7_665 7_665
Ge1 Li2 Ge2 119.3(2) 1_655 7_665
Li6B Li2 Ge2 56.2(4) 7_665 7_665
Li6B Li2 Ge2 133.2(8) 7_664 7_665
Ge2 Li2 Ge2 101.3(3) 7_664 7_665
Li3 Li2 Li6A 57.6(5) 7_565 7_664
Li3 Li2 Li6A 80.0(5) . 7_664
Li5 Li2 Li6A 170.1(4) 7_665 7_664
Li5 Li2 Li6A 75.7(4) 7_664 7_664
Li1 Li2 Li6A 109.8(4) 7_665 7_664
Ge1 Li2 Li6A 116.4(5) 1_655 7_664
Li6B Li2 Li6A 102.9(7) 7_665 7_664
Li6B Li2 Li6A 9.1(4) 7_664 7_664
Ge2 Li2 Li6A 52.8(3) 7_664 7_664
Ge2 Li2 Li6A 124.2(6) 7_665 7_664
Li3 Li2 Li6A 57.6(5) 7_565 7_665
Li3 Li2 Li6A 80.0(5) . 7_665
Li5 Li2 Li6A 75.7(4) 7_665 7_665
Li5 Li2 Li6A 170.1(4) 7_664 7_665
Li1 Li2 Li6A 109.8(4) 7_665 7_665
Ge1 Li2 Li6A 116.4(5) 1_655 7_665
Li6B Li2 Li6A 9.1(4) 7_665 7_665
Li6B Li2 Li6A 102.9(7) 7_664 7_665
Ge2 Li2 Li6A 124.2(6) 7_664 7_665
Ge2 Li2 Li6A 52.8(3) 7_665 7_665
Li6A Li2 Li6A 98.0(7) 7_664 7_665
Li1 Li3 Ge1 70.1(3) 5_665 7_665
Li1 Li3 Ge1 159.8(4) 5_665 1_655
Ge1 Li3 Ge1 130.1(4) 7_665 1_655
Li1 Li3 Li2 91.6(4) 5_665 7_665
Ge1 Li3 Li2 161.7(5) 7_665 7_665
Ge1 Li3 Li2 68.3(3) 1_655 7_665
Li1 Li3 Li6A 114.8(4) 5_665 1_655
Ge1 Li3 Li6A 120.7(6) 7_665 1_655
Ge1 Li3 Li6A 58.0(3) 1_655 1_655
Li2 Li3 Li6A 66.2(6) 7_665 1_655
Li1 Li3 Li6A 114.8(4) 5_665 1_654
Ge1 Li3 Li6A 120.7(6) 7_665 1_654
Ge1 Li3 Li6A 58.0(3) 1_655 1_654
Li2 Li3 Li6A 66.2(6) 7_665 1_654
Li6A Li3 Li6A 109.9(9) 1_655 1_654
Li1 Li3 Li2 138.3(4) 5_665 .
Ge1 Li3 Li2 68.2(3) 7_665 .
Ge1 Li3 Li2 61.9(3) 1_655 .
Li2 Li3 Li2 130.1(4) 7_665 .
Li6A Li3 Li2 86.9(5) 1_655 .
Li6A Li3 Li2 86.9(5) 1_654 .
Li1 Li3 Li6B 115.1(4) 5_665 1_655
Ge1 Li3 Li6B 128.9(6) 7_665 1_655
Ge1 Li3 Li6B 54.8(4) 1_655 1_655
Li2 Li3 Li6B 58.3(6) 7_665 1_655
Li6A Li3 Li6B 8.1(3) 1_655 1_655
Li6A Li3 Li6B 103.3(9) 1_654 1_655
Li2 Li3 Li6B 91.4(5) . 1_655
Li1 Li3 Li6B 115.1(4) 5_665 1_654
Ge1 Li3 Li6B 128.8(6) 7_665 1_654
Ge1 Li3 Li6B 54.8(4) 1_655 1_654
Li2 Li3 Li6B 58.3(6) 7_665 1_654
Li6A Li3 Li6B 103.3(9) 1_655 1_654
Li6A Li3 Li6B 8.1(3) 1_654 1_654
Li2 Li3 Li6B 91.4(5) . 1_654
Li6B Li3 Li6B 96.4(11) 1_655 1_654
Li1 Li3 Li4 54.4(2) 5_665 .
Ge1 Li3 Li4 58.56(19) 7_665 .
Ge1 Li3 Li4 131.7(2) 1_655 .
Li2 Li3 Li4 111.1(3) 7_665 .
Li6A Li3 Li4 77.1(4) 1_655 .
Li6A Li3 Li4 169.3(5) 1_654 .
Li2 Li3 Li4 101.9(3) . .
Li6B Li3 Li4 82.8(5) 1_655 .
Li6B Li3 Li4 166.7(6) 1_654 .
Li1 Li3 Li4 54.4(2) 5_665 1_554
Ge1 Li3 Li4 58.56(19) 7_665 1_554
Ge1 Li3 Li4 131.7(2) 1_655 1_554
Li2 Li3 Li4 111.1(3) 7_665 1_554
Li6A Li3 Li4 169.3(5) 1_655 1_554
Li6A Li3 Li4 77.1(4) 1_654 1_554
Li2 Li3 Li4 101.9(3) . 1_554
Li6B Li3 Li4 166.7(6) 1_655 1_554
Li6B Li3 Li4 82.8(5) 1_654 1_554
Li4 Li3 Li4 94.9(3) . 1_554
Li1 Li3 Ge2 63.0(2) 5_665 1_655
Ge1 Li3 Ge2 109.4(2) 7_665 1_655
Ge1 Li3 Ge2 104.3(2) 1_655 1_655
Li2 Li3 Ge2 59.65(19) 7_665 1_655
Li6A Li3 Ge2 52.7(3) 1_655 1_655
Li6A Li3 Ge2 125.6(6) 1_654 1_655
Li2 Li3 Ge2 133.11(15) . 1_655
Li6B Li3 Ge2 52.2(3) 1_655 1_655
Li6B Li3 Ge2 117.9(6) 1_654 1_655
Li4 Li3 Ge2 51.67(16) . 1_655
Li4 Li3 Ge2 116.6(4) 1_554 1_655
Li1 Li4 Li1 119.1(5) 5_666 5_665
Li1 Li4 Li6B 118.1(3) 5_666 7_665
Li1 Li4 Li6B 118.1(3) 5_665 7_665
Li1 Li4 Li5 111.1(3) 5_666 .
Li1 Li4 Li5 111.1(3) 5_665 .
Li6B Li4 Li5 66.4(8) 7_665 .
Li1 Li4 Ge2 69.1(3) 5_666 1_655
Li1 Li4 Ge2 69.1(3) 5_665 1_655
Li6B Li4 Ge2 113.0(8) 7_665 1_655
Li5 Li4 Ge2 179.5(4) . 1_655
Li1 Li4 Ge1 172.9(3) 5_666 7_665
Li1 Li4 Ge1 67.13(17) 5_665 7_665
Li6B Li4 Ge1 57.9(3) 7_665 7_665
Li5 Li4 Ge1 62.18(16) . 7_665
Ge2 Li4 Ge1 117.60(19) 1_655 7_665
Li1 Li4 Ge1 67.13(17) 5_666 7_666
Li1 Li4 Ge1 172.9(3) 5_665 7_666
Li6B Li4 Ge1 57.9(3) 7_665 7_666
Li5 Li4 Ge1 62.18(16) . 7_666
Ge2 Li4 Ge1 117.60(19) 1_655 7_666
Ge1 Li4 Ge1 106.4(3) 7_665 7_666
Li1 Li4 Li6A 119.6(2) 5_666 7_665
Li1 Li4 Li6A 119.6(2) 5_665 7_665
Li6B Li4 Li6A 9.1(5) 7_665 7_665
Li5 Li4 Li6A 57.3(6) . 7_665
Ge2 Li4 Li6A 122.2(6) 1_655 7_665
Ge1 Li4 Li6A 55.39(18) 7_665 7_665
Ge1 Li4 Li6A 55.39(18) 7_666 7_665
Li1 Li4 Ge2 59.9(2) 5_666 5_666
Li1 Li4 Ge2 59.9(2) 5_665 5_666
Li6B Li4 Ge2 166.6(8) 7_665 5_666
Li5 Li4 Ge2 127.0(4) . 5_666
Ge2 Li4 Ge2 53.55(14) 1_655 5_666
Ge1 Li4 Ge2 125.49(15) 7_665 5_666
Ge1 Li4 Ge2 125.49(15) 7_666 5_666
Li6A Li4 Ge2 175.7(6) 7_665 5_666
Li1 Li4 Li3 53.5(3) 5_666 1_556
Li1 Li4 Li3 132.5(4) 5_665 1_556
Li6B Li4 Li3 71.2(5) 7_665 1_556
Li5 Li4 Li3 114.6(3) . 1_556
Ge2 Li4 Li3 65.1(2) 1_655 1_556
Ge1 Li4 Li3 125.7(4) 7_665 1_556
Ge1 Li4 Li3 53.42(16) 7_666 1_556
Li6A Li4 Li3 77.1(4) 7_665 1_556
Ge2 Li4 Li3 100.1(3) 5_666 1_556
Li1 Li4 Li3 132.5(4) 5_666 .
Li1 Li4 Li3 53.5(3) 5_665 .
Li6B Li4 Li3 71.2(5) 7_665 .
Li5 Li4 Li3 114.6(3) . .
Ge2 Li4 Li3 65.1(2) 1_655 .
Ge1 Li4 Li3 53.42(16) 7_665 .
Ge1 Li4 Li3 125.7(4) 7_666 .
Li6A Li4 Li3 77.1(4) 7_665 .
Ge2 Li4 Li3 100.1(3) 5_666 .
Li3 Li4 Li3 94.9(3) 1_556 .
Li1 Li4 Li5 76.8(3) 5_666 5_666
Li1 Li4 Li5 76.8(3) 5_665 5_666
Li6B Li4 Li5 138.5(8) 7_665 5_666
Li5 Li4 Li5 72.1(3) . 5_666
Ge2 Li4 Li5 108.5(3) 1_655 5_666
Ge1 Li4 Li5 102.3(2) 7_665 5_666
Ge1 Li4 Li5 102.3(2) 7_666 5_666
Li6A Li4 Li5 129.4(6) 7_665 5_666
Ge2 Li4 Li5 54.9(2) 5_666 5_666
Li3 Li4 Li5 129.4(2) 1_556 5_666
Li3 Li4 Li5 129.4(2) . 5_666
Li6A Li5 Li4 64.8(6) 7_665 .
Li6A Li5 Ge2 127.6(6) 7_665 .
Li4 Li5 Ge2 167.6(4) . .
Li6A Li5 Li2 88.5(4) 7_665 7_565
Li4 Li5 Li2 120.7(2) . 7_565
Ge2 Li5 Li2 63.8(2) . 7_565
Li6A Li5 Li2 88.5(4) 7_665 7_566
Li4 Li5 Li2 120.7(2) . 7_566
Ge2 Li5 Li2 63.8(2) . 7_566
Li2 Li5 Li2 109.5(4) 7_565 7_566
Li6A Li5 Ag1 109.7(3) 7_665 3_556
Li4 Li5 Ag1 72.10(19) . 3_556
Ge2 Li5 Ag1 100.93(18) . 3_556
Li2 Li5 Ag1 161.5(4) 7_565 3_556
Li2 Li5 Ag1 69.09(16) 7_566 3_556
Li6A Li5 Ag1 109.7(3) 7_665 3
Li4 Li5 Ag1 72.10(19) . 3
Ge2 Li5 Ag1 100.93(18) . 3
Li2 Li5 Ag1 69.09(16) 7_565 3
Li2 Li5 Ag1 161.5(4) 7_566 3
Ag1 Li5 Ag1 106.1(3) 3_556 3
Li6A Li5 Ge1 57.2(2) 7_665 7_666
Li4 Li5 Ge1 61.30(15) . 7_666
Ge2 Li5 Ge1 123.29(14) . 7_666
Li2 Li5 Ge1 142.6(4) 7_565 7_666
Li2 Li5 Ge1 59.77(17) 7_566 7_666
Ag1 Li5 Ge1 53.84(6) 3_556 7_666
Ag1 Li5 Ge1 132.8(3) 3 7_666
Li6A Li5 Ge1 57.2(2) 7_665 7_665
Li4 Li5 Ge1 61.30(15) . 7_665
Ge2 Li5 Ge1 123.29(14) . 7_665
Li2 Li5 Ge1 59.77(17) 7_565 7_665
Li2 Li5 Ge1 142.6(4) 7_566 7_665
Ag1 Li5 Ge1 132.8(3) 3_556 7_665
Ag1 Li5 Ge1 53.84(6) 3 7_665
Ge1 Li5 Ge1 105.2(2) 7_666 7_665
Li6A Li5 Li6B 8.7(4) 7_665 7_665
Li4 Li5 Li6B 56.1(7) . 7_665
Ge2 Li5 Li6B 136.3(7) . 7_665
Li2 Li5 Li6B 93.6(5) 7_565 7_665
Li2 Li5 Li6B 93.6(5) 7_566 7_665
Ag1 Li5 Li6B 104.9(4) 3_556 7_665
Ag1 Li5 Li6B 104.9(4) 3 7_665
Ge1 Li5 Li6B 54.8(2) 7_666 7_665
Ge1 Li5 Li6B 54.8(2) 7_665 7_665
Li6A Li5 Li4 172.7(6) 7_665 5_666
Li4 Li5 Li4 107.9(3) . 5_666
Ge2 Li5 Li4 59.7(2) . 5_666
Li2 Li5 Li4 95.7(3) 7_565 5_666
Li2 Li5 Li4 95.7(3) 7_566 5_666
Ag1 Li5 Li4 66.62(18) 3_556 5_666
Ag1 Li5 Li4 66.62(18) 3 5_666
Ge1 Li5 Li4 120.13(19) 7_666 5_666
Ge1 Li5 Li4 120.13(19) 7_665 5_666
Li6B Li5 Li4 164.0(7) 7_665 5_666
Li6A Li5 Li6B 74.2(5) 7_665 .
Li4 Li5 Li6B 139.0(7) . .
Ge2 Li5 Li6B 53.4(6) . .
Li2 Li5 Li6B 55.8(2) 7_565 .
Li2 Li5 Li6B 55.8(2) 7_566 .
Ag1 Li5 Li6B 124.82(18) 3_556 .
Ag1 Li5 Li6B 124.82(18) 3 .
Ge1 Li5 Li6B 96.8(4) 7_666 .
Ge1 Li5 Li6B 96.8(4) 7_665 .
Li6B Li5 Li6B 82.9(2) 7_665 .
Li4 Li5 Li6B 113.1(6) 5_666 .
Ge2 Li6A Li5 150.4(12) . 7_565
Ge2 Li6A Ge1 121.1(2) . .
Li5 Li6A Ge1 64.8(3) 7_565 .
Ge2 Li6A Ge1 121.1(2) . 1_556
Li5 Li6A Ge1 64.8(3) 7_565 1_556
Ge1 Li6A Ge1 117.5(5) . 1_556
Ge2 Li6A Li3 70.6(4) . 1_455
Li5 Li6A Li3 93.3(7) 7_565 1_455
Ge1 Li6A Li3 59.6(2) . 1_455
Ge1 Li6A Li3 153.3(11) 1_556 1_455
Ge2 Li6A Li3 70.6(4) . 1_456
Li5 Li6A Li3 93.3(7) 7_565 1_456
Ge1 Li6A Li3 153.3(11) . 1_456
Ge1 Li6A Li3 59.6(2) 1_556 1_456
Li3 Li6A Li3 109.9(9) 1_455 1_456
Ge2 Li6A Li4 151.7(11) . 7_565
Li5 Li6A Li4 57.9(3) 7_565 7_565
Ge1 Li6A Li4 61.5(3) . 7_565
Ge1 Li6A Li4 61.5(3) 1_556 7_565
Li3 Li6A Li4 121.0(3) 1_455 7_565
Li3 Li6A Li4 121.0(3) 1_456 7_565
Ge2 Li6A Li2 62.2(3) . 7_566
Li5 Li6A Li2 129.3(3) 7_565 7_566
Ge1 Li6A Li2 149.8(11) . 7_566
Ge1 Li6A Li2 64.8(3) 1_556 7_566
Li3 Li6A Li2 132.8(5) 1_455 7_566
Li3 Li6A Li2 56.2(3) 1_456 7_566
Li4 Li6A Li2 101.0(7) 7_565 7_566
Ge2 Li6A Li2 62.2(3) . 7_565
Li5 Li6A Li2 129.3(3) 7_565 7_565
Ge1 Li6A Li2 64.8(3) . 7_565
Ge1 Li6A Li2 149.8(11) 1_556 7_565
Li3 Li6A Li2 56.2(3) 1_455 7_565
Li3 Li6A Li2 132.8(5) 1_456 7_565
Li4 Li6A Li2 101.0(7) 7_565 7_565
Li2 Li6A Li2 98.0(7) 7_566 7_565
Ge2 Li6A Li6B 90.7(7) . 7_565
Li5 Li6A Li6B 59.7(6) 7_565 7_565
Ge1 Li6A Li6B 92.4(6) . 7_565
Ge1 Li6A Li6B 92.4(6) 1_556 7_565
Li3 Li6A Li6B 62.3(6) 1_455 7_565
Li3 Li6A Li6B 62.3(6) 1_456 7_565
Li4 Li6A Li6B 117.6(6) 7_565 7_565
Li2 Li6A Li6B 117.9(6) 7_566 7_565
Li2 Li6A Li6B 117.9(6) 7_565 7_565
Ge1 Li6B Ge1 117.0(7) . 1_556
Ge1 Li6B Li4 64.5(4) . 7_565
Ge1 Li6B Li4 64.5(4) 1_556 7_565
Ge1 Li6B Ge2 118.1(6) . .
Ge1 Li6B Ge2 118.1(6) 1_556 .
Li4 Li6B Ge2 171.3(16) 7_565 .
Ge1 Li6B Li2 169.3(16) . 7_566
Ge1 Li6B Li2 67.33(19) 1_556 7_566
Li4 Li6B Li2 111.9(9) 7_565 7_566
Ge2 Li6B Li2 63.9(4) . 7_566
Ge1 Li6B Li2 67.33(19) . 7_565
Ge1 Li6B Li2 169.3(16) 1_556 7_565
Li4 Li6B Li2 111.9(9) 7_565 7_565
Ge2 Li6B Li2 63.9(4) . 7_565
Li2 Li6B Li2 106.7(8) 7_566 7_565
Ge1 Li6B Li5 61.2(5) . 7_565
Ge1 Li6B Li5 61.2(5) 1_556 7_565
Li4 Li6B Li5 57.5(4) 7_565 7_565
Ge2 Li6B Li5 131.2(14) . 7_565
Li2 Li6B Li5 126.4(5) 7_566 7_565
Li2 Li6B Li5 126.4(5) 7_565 7_565
Ge1 Li6B Li3 56.0(4) . 1_455
Ge1 Li6B Li3 135.4(14) 1_556 1_455
Li4 Li6B Li3 119.2(5) 7_565 1_455
Ge2 Li6B Li3 65.5(6) . 1_455
Li2 Li6B Li3 128.8(8) 7_566 1_455
Li2 Li6B Li3 55.3(3) 7_565 1_455
Li5 Li6B Li3 83.1(8) 7_565 1_455
Ge1 Li6B Li3 135.4(14) . 1_456
Ge1 Li6B Li3 56.0(4) 1_556 1_456
Li4 Li6B Li3 119.2(5) 7_565 1_456
Ge2 Li6B Li3 65.5(6) . 1_456
Li2 Li6B Li3 55.3(3) 7_566 1_456
Li2 Li6B Li3 128.8(8) 7_565 1_456
Li5 Li6B Li3 83.1(8) 7_565 1_456
Li3 Li6B Li3 96.4(11) 1_455 1_456
Ge1 Li6B Li5 117.1(7) . .
Ge1 Li6B Li5 117.1(7) 1_556 .
Li4 Li6B Li5 116.2(13) 7_565 .
Ge2 Li6B Li5 55.1(4) . .
Li2 Li6B Li5 54.4(5) 7_566 .
Li2 Li6B Li5 54.4(5) 7_565 .
Li5 Li6B Li5 173.7(12) 7_565 .
Li3 Li6B Li5 101.1(5) 1_455 .
Li3 Li6B Li5 101.1(5) 1_456 .
Ge1 Li6B Li3 121.6(10) . 7_566
Ge1 Li6B Li3 51.1(4) 1_556 7_566
Li4 Li6B Li3 60.4(6) 7_565 7_566
Ge2 Li6B Li3 114.0(7) . 7_566
Li2 Li6B Li3 52.3(5) 7_566 7_566
Li2 Li6B Li3 118.3(12) 7_565 7_566
Li5 Li6B Li3 101.2(5) 7_565 7_566
Li3 Li6B Li3 173.4(11) 1_455 7_566
Li3 Li6B Li3 89.13(16) 1_456 7_566
Li5 Li6B Li3 74.2(7) . 7_566
Ge1 Li6B Li3 51.1(4) . 7_565
Ge1 Li6B Li3 121.6(10) 1_556 7_565
Li4 Li6B Li3 60.4(6) 7_565 7_565
Ge2 Li6B Li3 114.0(7) . 7_565
Li2 Li6B Li3 118.3(12) 7_566 7_565
Li2 Li6B Li3 52.3(5) 7_565 7_565
Li5 Li6B Li3 101.2(5) 7_565 7_565
Li3 Li6B Li3 89.13(16) 1_455 7_565
Li3 Li6B Li3 173.4(11) 1_456 7_565
Li5 Li6B Li3 74.2(7) . 7_565
Li3 Li6B Li3 85.1(9) 7_566 7_565
loop_
_geom_bond_atom_site_label_1
_geom_bond_atom_site_label_2
_geom_bond_distance
_geom_bond_site_symmetry_2
Ag1 Ge1 2.5498(4) 5
Ag1 Ge1 2.5499(4) .
Ag1 Li1 2.788(9) 7_565
Ag1 Li1 2.788(9) 3_545
Ag1 Li5 2.807(5) 7_565
Ag1 Li5 2.807(5) 3_545
Ag1 Li5 2.807(5) 7_564
Ag1 Li5 2.807(5) 3_546
Ag1 Li2 3.150(9) 1_455
Ag1 Li2 3.150(9) 5_655
Ag1 Li4 3.222(6) 3_545
Ag1 Li4 3.222(6) 7_565
Ge1 Li6B 2.632(10) 1_554
Ge1 Li6B 2.632(10) .
Ge1 Li6A 2.624(7) 1_554
Ge1 Li6A 2.624(7) .
Ge1 Li3 2.637(8) 7_565
Ge1 Li3 2.669(9) 1_455
Ge1 Li2 2.777(9) 1_455
Ge1 Li4 2.801(5) 7_565
Ge1 Li4 2.801(5) 7_564
Ge1 Li5 2.825(4) 7_564
Ge1 Li5 2.825(4) 7_565
Ge2 Ge2 2.5169(8) 5_566
Ge2 Li6A 2.610(13) .
Ge2 Li6B 2.684(19) .
Ge2 Li4 2.675(8) 1_455
Ge2 Li5 2.743(7) .
Ge2 Li1 2.757(5) 1_556
Ge2 Li1 2.757(5) .
Ge2 Li4 2.895(8) 5_666
Ge2 Li2 2.902(5) 7_566
Ge2 Li2 2.902(5) 7_565
Ge2 Li1 2.993(6) 5_565
Ge2 Li1 2.993(6) 5_566
Li1 Li3 2.570(13) 5_665
Li1 Li1 2.578(18) 5_565
Li1 Li4 2.602(6) 5_666
Li1 Li4 2.602(6) 5_665
Li1 Li2 2.753(13) 7_565
Li1 Ge2 2.757(5) 1_554
Li1 Ag1 2.788(9) 3
Li1 Ge2 2.993(6) 5_565
Li1 Ge2 2.993(6) 5_566
Li1 Ge1 2.992(9) 3
Li1 Li5 3.528(10) .
Li2 Li3 2.699(13) 7_565
Li2 Li3 2.733(13) .
Li2 Li5 2.747(7) 7_665
Li2 Li5 2.747(7) 7_664
Li2 Li1 2.753(13) 7_665
Li2 Ge1 2.777(9) 1_655
Li2 Li6B 2.796(15) 7_665
Li2 Li6B 2.796(15) 7_664
Li2 Ge2 2.902(5) 7_664
Li2 Ge2 2.902(5) 7_665
Li2 Li6A 2.972(15) 7_664
Li2 Li6A 2.972(15) 7_665
Li3 Li1 2.570(13) 5_665
Li3 Ge1 2.637(8) 7_665
Li3 Ge1 2.669(9) 1_655
Li3 Li2 2.699(13) 7_665
Li3 Li6A 2.741(15) 1_655
Li3 Li6A 2.741(15) 1_654
Li3 Li6B 3.01(2) 1_655
Li3 Li6B 3.01(2) 1_654
Li3 Li4 3.045(8) .
Li3 Li4 3.045(8) 1_554
Li3 Ge2 3.094(7) 1_655
Li4 Li1 2.602(6) 5_666
Li4 Li1 2.602(6) 5_665
Li4 Li6B 2.62(2) 7_665
Li4 Li5 2.664(10) .
Li4 Ge2 2.675(8) 1_655
Li4 Ge1 2.801(5) 7_665
Li4 Ge1 2.801(5) 7_666
Li4 Li6A 2.84(2) 7_665
Li4 Ge2 2.895(8) 5_666
Li4 Li3 3.045(8) 1_556
Li4 Li5 3.048(12) 5_666
Li5 Li6A 2.647(19) 7_665
Li5 Li2 2.747(7) 7_565
Li5 Li2 2.747(7) 7_566
Li5 Ag1 2.807(5) 3_556
Li5 Ag1 2.807(5) 3
Li5 Ge1 2.825(4) 7_666
Li5 Ge1 2.825(4) 7_665
Li5 Li6B 2.90(3) 7_665
Li5 Li4 3.048(12) 5_666
Li5 Li6B 3.17(3) .
Li6A Li5 2.647(19) 7_565
Li6A Ge1 2.624(7) 1_556
Li6A Li3 2.741(15) 1_455
Li6A Li3 2.741(15) 1_456
Li6A Li4 2.84(2) 7_565
Li6A Li2 2.972(15) 7_566
Li6A Li2 2.972(15) 7_565
Li6A Li6B 3.53(2) 7_565
Li6B Ge1 2.632(10) 1_556
Li6B Li4 2.62(2) 7_565
Li6B Li2 2.796(15) 7_566
Li6B Li2 2.796(15) 7_565
Li6B Li5 2.90(3) 7_565
Li6B Li3 3.01(2) 1_455
Li6B Li3 3.01(2) 1_456
Li6B Li3 3.32(3) 7_566
Li6B Li3 3.32(3) 7_565
