#------------------------------------------------------------------------------
#$Date: 2016-02-04 01:10:35 +0200 (Thu, 04 Feb 2016) $
#$Revision: 175495 $
#$URL: svn://www.crystallography.net/cod/cif/4/34/45/4344558.cif $
#------------------------------------------------------------------------------
#
# This file is available in the Crystallography Open Database (COD),
# http://www.crystallography.net/
#
# All data on this site have been placed in the public domain by the
# contributors.
#
data_4344558
loop_
_publ_author_name
'Marchuk, Alexey'
'Schultz, Peter'
'Hoch, Constantin'
'Oeckler, Oliver'
'Schnick, Wolfgang'
_publ_section_title
;
 M2PO3N (M = Ca, Sr): ortho-Oxonitridophosphates with \b-K2SO4 Structure
 Type.
;
_journal_issue                   2
_journal_name_full               'Inorganic chemistry'
_journal_page_first              974
_journal_page_last               982
_journal_paper_doi               10.1021/acs.inorgchem.5b02647
_journal_volume                  55
_journal_year                    2016
_chemical_formula_sum            'N O3 P Sr2'
_chemical_formula_weight         268.22
_chemical_name_systematic
;
 ?
;
_space_group_crystal_system      orthorhombic
_space_group_IT_number           62
_space_group_name_Hall           '-P 2ac 2n'
_space_group_name_H-M_alt        'P n m a'
_symmetry_space_group_name_Hall  '-P 2ac 2n'
_symmetry_space_group_name_H-M   'P n m a'
_audit_creation_method           SHELXL-2014
_cell_angle_alpha                90
_cell_angle_beta                 90
_cell_angle_gamma                90
_cell_formula_units_Z            4
_cell_length_a                   7.1482(5)
_cell_length_b                   5.5745(3)
_cell_length_c                   9.8061(6)
_cell_measurement_temperature    250
_cell_volume                     390.75(4)
_computing_structure_refinement  'SHELXL-2014 (Sheldrick, 2014)'
_diffrn_ambient_temperature      250
_diffrn_measured_fraction_theta_full 1.000
_diffrn_measured_fraction_theta_max 1.000
_diffrn_measurement_device_type  'Bruker CCD'
_diffrn_radiation_type           MoK\a
_diffrn_radiation_wavelength     0.71073
_diffrn_reflns_av_R_equivalents  0.0866
_diffrn_reflns_av_unetI/netI     0.0316
_diffrn_reflns_laue_measured_fraction_full 1.000
_diffrn_reflns_laue_measured_fraction_max 1.000
_diffrn_reflns_limit_h_max       9
_diffrn_reflns_limit_h_min       -9
_diffrn_reflns_limit_k_max       6
_diffrn_reflns_limit_k_min       -7
_diffrn_reflns_limit_l_max       12
_diffrn_reflns_limit_l_min       -13
_diffrn_reflns_number            6648
_diffrn_reflns_point_group_measured_fraction_full 1.000
_diffrn_reflns_point_group_measured_fraction_max 1.000
_diffrn_reflns_theta_full        25.242
_diffrn_reflns_theta_max         28.283
_diffrn_reflns_theta_min         3.527
_exptl_absorpt_coefficient_mu    27.565
_exptl_absorpt_correction_T_max  0.7457
_exptl_absorpt_correction_T_min  0.5429
_exptl_absorpt_correction_type   multi-scan
_exptl_absorpt_process_details   Platon
_exptl_crystal_colour            colorless
_exptl_crystal_density_diffrn    4.559
_exptl_crystal_description       block
_exptl_crystal_F_000             488
_exptl_crystal_size_max          0.73
_exptl_crystal_size_mid          0.36
_exptl_crystal_size_min          0.27
_refine_diff_density_max         0.751
_refine_diff_density_min         -0.959
_refine_diff_density_rms         0.323
_refine_ls_extinction_method     none
_refine_ls_goodness_of_fit_ref   1.191
_refine_ls_hydrogen_treatment    undef
_refine_ls_matrix_type           full
_refine_ls_number_parameters     40
_refine_ls_number_reflns         533
_refine_ls_number_restraints     0
_refine_ls_restrained_S_all      1.191
_refine_ls_R_factor_all          0.0221
_refine_ls_R_factor_gt           0.0196
_refine_ls_shift/su_max          0.000
_refine_ls_shift/su_mean         0.000
_refine_ls_structure_factor_coef Fsqd
_refine_ls_weighting_details
'w=1/[\s^2^(Fo^2^)+(0.0135P)^2^+0.6089P] where P=(Fo^2^+2Fc^2^)/3'
_refine_ls_weighting_scheme      calc
_refine_ls_wR_factor_gt          0.0437
_refine_ls_wR_factor_ref         0.0442
_reflns_Friedel_coverage         0.000
_reflns_number_gt                491
_reflns_number_total             533
_reflns_threshold_expression     'I > 2\s(I)'
_cod_data_source_file            ic5b02647_si_007.cif
_cod_data_source_block           Sr2PO3N
_cod_database_code               4344558
_shelx_space_group_comment
;
The symmetry employed for this shelxl refinement is uniquely defined
by the following loop, which should always be used as a source of
symmetry information in preference to the above space-group names.
They are only intended as comments.
;
_shelxl_version_number           2014-3
_shelx_res_file
;
TITL Pnma in Pnma
CELL 0.71073   7.1482   5.5745   9.8061  90.000  90.000  90.000
ZERR    4.00   0.0005   0.0003   0.0006   0.000   0.000   0.000

LATT  1
SYMM 0.5-X, -Y, 0.5+Z
SYMM -X, 0.5+Y, -Z
SYMM 0.5+X, 0.5-Y, 0.5-Z
SFAC N O P SR
UNIT 4 12 4 8
MERG 4
ACTA
L.S. 20
BOND
FMAP 2
PLAN 20
OMIT 0 60

WGHT    0.013500    0.608900
FVAR       1.64166
O1    2    0.216072    0.023455    0.333863    11.00000    0.02435    0.01794 =
         0.02420   -0.00793   -0.00771    0.00136
O2    2   -0.005394    0.250000    0.072913    10.50000    0.01036    0.03124 =
         0.01851    0.00000    0.00024    0.00000
N1    1    0.178492    0.250000    0.563195    10.50000    0.00724    0.02138 =
         0.00713    0.00000    0.00276    0.00000
P1    3    0.275238    0.250000    0.418911    10.50000    0.00716    0.00928 =
         0.00701    0.00000   -0.00013    0.00000
SR1   4    0.340940    0.250000    0.078158    10.50000    0.00884    0.01276 =
         0.01553    0.00000   -0.00174    0.00000
SR2   4    0.493590    0.250000    0.698016    10.50000    0.00620    0.01164 =
         0.00653    0.00000    0.00012    0.00000
HKLF 4 1 0 1 0 1 0 0 0 0 -1

REM  Pnma in Pnma
REM R1 =  0.0196 for     491 Fo > 4sig(Fo)  and  0.0221 for all     533 data
REM     40 parameters refined using      0 restraints

END

WGHT      0.0135      0.6089

REM Highest difference peak  0.751,  deepest hole -0.959,  1-sigma level  0.323
Q1    1   0.3526  0.0316  0.0888  11.00000  0.05    0.75
Q2    1   0.2550  0.0018  0.3133  11.00000  0.05    0.68
Q3    1   0.2833  0.0633  0.4037  11.00000  0.05    0.66
Q4    1   0.4981  0.0136  0.6958  11.00000  0.05    0.60
Q5    1   0.2250  0.0638  0.6653  11.00000  0.05    0.58
Q6    1  -0.0338  0.0140  0.0702  11.00000  0.05    0.57
Q7    1   0.0737  0.0433  0.0482  11.00000  0.05    0.55
Q8    1   0.0793 -0.0082  0.4182  11.00000  0.05    0.55
Q9    1   0.2574 -0.0080  0.1951  11.00000  0.05    0.55
Q10   1   0.1587  0.0427  0.2930  11.00000  0.05    0.54
Q11   1   0.0642  0.0287  0.5249  11.00000  0.05    0.53
Q12   1   0.2577 -0.0643  0.2516  11.00000  0.05    0.52
Q13   1   0.2202  0.0014  0.5262  11.00000  0.05    0.50
Q14   1   0.1512 -0.0733  0.2549  11.00000  0.05    0.49
Q15   1   0.2154  0.0456  0.1031  11.00000  0.05    0.48
Q16   1   0.3623 -0.0583  0.3114  11.00000  0.05    0.48
Q17   1   0.1440  0.0023  0.1677  11.00000  0.05    0.46
Q18   1   0.0817  0.0169  0.3239  11.00000  0.05    0.45
Q19   1   0.3188 -0.0935  0.3589  11.00000  0.05    0.42
Q20   1   0.3738 -0.0159  0.2171  11.00000  0.05    0.38
;
_shelx_res_checksum              43374
_shelx_hkl_file
;
   0   0  -2  30.441  20.057   1-0.54433 0.54433-0.83573 0.83573-0.07249-0.07249  0 330.24 277.99  118.43 330.25 277.96  118.10
   0   0  -2  30.873  19.695   2 0.03082-0.03082-0.99690 0.99690-0.07243-0.07243  0 325.24 282.77  114.58 325.30 283.04  114.91
   0   0  -2  32.520  20.751   2-0.11416 0.11416 0.99081-0.99081-0.07249-0.07249  0 284.54 226.63  287.52 284.38 226.96  287.31
   0   0   2  41.775  18.858   1-0.45924 0.45924-0.88535 0.88535 0.07249 0.07249  0 270.94 238.82  128.19 271.22 238.84  128.16
   0   0   2   6.415  19.485   2 0.00549-0.00549-0.99736 0.99736 0.07243 0.07243  0 275.26 233.86  106.72 274.72 233.93  106.47
   0   0   2  25.494  20.408   2-0.13922 0.13922 0.98760-0.98760 0.07249 0.07249  0 315.40 290.04  295.66 315.15 290.02  295.76
   0   0  -3   5.397  25.728   1-0.56295 0.56295-0.81931 0.81931-0.10874-0.10874  0 346.19 288.74  115.40 346.33 288.76  115.59
   0   0  -3  -4.209  28.601   2 0.03672-0.03672-0.99340 0.99340-0.10865-0.10865  0 339.13 296.36  116.95 338.93 296.48  117.02
   0   0  -3   2.650  29.134   2-0.10760 0.10760 0.98823-0.98823-0.10873-0.10873  0 276.55 211.42  285.56 276.58 211.30  285.19
   0   0   3   6.657  26.611   1-0.43552 0.43552-0.89359 0.89359 0.10874 0.10874  0 257.09 229.20  130.35 256.97 229.25  130.69
   0   0   3  15.820  30.963   2-0.00109 0.00109-0.99408 0.99408 0.10865 0.10865  0 262.26 221.78  104.43 262.20 222.05  104.36
   0   0   3 -11.741  27.252   2-0.14531 0.14531 0.98339-0.98339 0.10873 0.10873  0 323.32 306.70  298.07 323.14 306.87  297.88
   0   0  -4  9516.2   160.0   1-0.58057 0.58057-0.80120 0.80120-0.14498-0.14498  0 363.50 300.45  113.00 363.36 300.40  113.05
   0   0  -4  9245.3   171.9   2 0.04253-0.04253-0.98854 0.98854-0.14487-0.14487  0 353.37 310.81  119.00 353.33 310.74  119.14
   0   0  -4  8250.2   164.5   2-0.10096 0.10096 0.98427-0.98427-0.14498-0.14497  0 268.40 195.21  282.92 268.57 195.28  283.08
   0   0   4  9345.3   153.6   1-0.41093 0.41093-0.90006 0.90006 0.14498 0.14498  0 242.75 219.33  133.11 242.63 219.42  133.22
   0   0   4  9499.1   170.4   2-0.00780 0.00780-0.98942 0.98942 0.14487 0.14487  0 249.54 210.00  101.95 249.41 210.08  102.23
   0   0   4  8460.6   165.3   2-0.15105 0.15105 0.97783-0.97783 0.14505 0.14505  0 331.42 324.68  300.00 331.43 324.62  300.01
   0   0  -5  31.060  47.935   1-0.59741 0.59741-0.78119 0.78119-0.18123-0.18123  0 381.87 312.75  110.47 381.63 313.14  110.49
   0   0  -5  11.146  55.080   2 0.04835-0.04835-0.98228 0.98228-0.18109-0.18109  0 368.86 326.24  121.44 368.81 326.09  121.27
   0   0  -5 -46.031  51.186   2-0.09428 0.09428 0.97891-0.97891-0.18122-0.18122  0 260.18 178.56  280.98 260.24 178.69  280.93
   0   0   5 -24.824  34.591   1-0.38530 0.38530-0.90482 0.90482 0.18123 0.18123  0 228.43 209.07  135.26 228.05 209.18  135.79
   0   0   5  21.480  40.697   2-0.01464 0.01464-0.98336 0.98336 0.18109 0.18109  0 236.39 197.79  100.44 236.18 197.85  100.08
   0   0   5  -6.903  51.871   2-0.15683 0.15683 0.97084-0.97084 0.18131 0.18131  0 339.93 343.33  301.87 340.13 343.58  302.15
   0   0  -6 14126.2   245.0   1-0.61311 0.61311-0.75947 0.75947-0.21747-0.21747  0 401.24 327.43  108.15 401.47 327.33  107.91
   0   0  -6 14638.5   263.8   2-0.08747 0.08747 0.97214-0.97214-0.21746-0.21746  0 251.61 161.20  278.97 251.47 161.26  278.78
   0   0   6 16053.9   250.2   1-0.35861 0.35861-0.90780 0.90780 0.21747 0.21747  0 213.07 198.22  138.27 213.03 198.35  138.37
   0   0   6 16856.0   281.5   2-0.02171 0.02171-0.97584 0.97584 0.21741 0.21741  0 222.40 185.13   98.06 222.27 185.21   97.88
   0   0   6 14122.3   267.7   2-0.16248 0.16248 0.96243-0.96243 0.21757 0.21757  0 349.41 364.23  304.26 349.40 364.12  304.33
   0   0  -7  10.114  77.704   1-0.62784 0.62784-0.73583 0.73583-0.25372-0.25372  0 423.26 343.66  105.42 423.37 343.45  105.29
   0   0  -7  52.357  96.737   2 0.05956-0.05956-0.96549 0.96549-0.25352-0.25352  0 404.70 361.30  125.43 404.47 361.49  125.57
   0   0  -7   9.447  62.126   2-0.08067 0.08067 0.96391-0.96391-0.25371-0.25371  0 242.02 142.64  276.53 242.16 142.71  276.63
   0   0   7  18.268  57.590   1-0.33077 0.33077-0.90897 0.90897 0.25372 0.25372  0 197.62 186.73  140.54 197.41 186.69  140.99
   0   0   7 -31.799  62.735   2-0.02858 0.02858-0.96688 0.96688 0.25364 0.25364  0 207.60 172.11   95.44 207.56 172.05   95.71
   0   0   7 -26.101  88.531   2-0.16819 0.16819 0.95251-0.95251 0.25383 0.25383  0 359.48 386.76  306.52 359.38 386.72  306.52
   0   0  -8 55895.4   545.5   1-0.64130 0.64130-0.71039 0.71039-0.28996-0.28996  0 447.80 362.35  102.69 447.97 362.16  102.64
   0   0  -8 65312.8   652.3   2 0.06500-0.06500-0.95490 0.95490-0.28974-0.28974  0 425.53 382.73  127.78 425.75 382.58  127.76
   0   0  -8 60264.3   616.3   2-0.07363 0.07363 0.95421-0.95421-0.28995-0.28995  0 232.21 122.54  274.42 232.10 122.65  274.44
   0   0   8 65671.5   582.4   1-0.30210 0.30210-0.90811 0.90811 0.28996 0.28996  0 180.89 173.74  143.63 180.98 173.92  143.64
   0   0   8 68148.7   653.0   2-0.03569 0.03569-0.95640 0.95640 0.28988 0.28988  0 191.77 157.95   93.53 191.68 158.09   93.51
   0   0   8 61786.6   634.3   2-0.17372 0.17372 0.94110-0.94110 0.29010 0.29010  0 370.39 412.20  308.78 370.37 412.07  308.73
   0   0  -9 100.690 140.431   1-0.65361 0.65361-0.68292 0.68292-0.32621-0.32621  0 476.46 384.46   99.66 476.27 384.45   99.94
   0   0  -9 170.420 153.344   2 0.07031-0.07031-0.94277 0.94277-0.32596-0.32596  0 450.40 407.31  129.60 450.40 406.99  129.96
   0   0  -9  33.742  93.285   2-0.06647 0.06647 0.94296-0.94296-0.32619-0.32619  0 221.10 100.80  271.97 221.07 100.58  272.22
   0   0   9  -1.197  81.949   1-0.27200 0.27200-0.90532 0.90532 0.32621 0.32621  0 163.54 159.59  146.44 163.38 159.65  146.35
   0   0   9 102.076  93.307   2-0.04295 0.04295-0.94436 0.94436 0.32611 0.32611  0 174.21 143.16   91.34 174.29 143.06   91.28
   0   0   9  20.633 143.304   2-0.17913 0.17913 0.92812-0.92812 0.32636 0.32636  0 382.63 441.17  310.58 382.63 441.02  310.97
   0   0 -10 14647.6   460.7   2 0.07560-0.07560-0.92904 0.92904-0.36217-0.36217  0 479.67 436.07  132.26 479.71 435.90  132.20
   0   0 -10 13212.3   371.3   2-0.05922 0.05922 0.93012-0.93012-0.36244-0.36244  0 208.86  75.71  270.02 208.77  75.83  269.98
   0   0  10 14730.6   346.6   1-0.24083 0.24083-0.90035 0.90035 0.36245 0.36245  0 144.07 143.23  148.99 144.24 143.41  149.10
   0   0  10 14920.3   386.0   2-0.05029 0.05029-0.93069 0.93069 0.36235 0.36235  0 155.01 126.49   89.19 154.92 126.64   89.02
   0   0  10 12772.0   427.9   2-0.18432 0.18432 0.91353-0.91353 0.36262 0.36262  0 396.37 474.94  313.11 396.65 474.89  313.23
   0   0 -11 -40.576 145.794   2-0.05181 0.05181 0.91563-0.91563-0.39868-0.39868  0 194.73  47.03  267.55 194.76  47.46  267.70
   0   0  11  24.536 121.058   1-0.20810 0.20810-0.89316 0.89316 0.39871 0.39871  0 123.19 124.47  151.68 122.96 124.35  151.92
   0   0  11-138.287 128.944   2-0.05769 0.05769-0.91532 0.91532 0.39858 0.39858  0 133.34 108.69   86.45 132.90 108.36   86.72
   0   0 -12  2658.2   322.7   2-0.04425 0.04425 0.89938-0.89938-0.43493-0.43493  0 178.44  14.09  265.42 178.42  14.08  265.39
   0   0  12  2684.3   268.5   1-0.17418 0.17418-0.88344 0.88344 0.43496 0.43496  0  99.12 101.46  154.78  98.99 101.70  154.82
   0   0  12  2736.1   307.1   2-0.06529 0.06529-0.89815 0.89815 0.43481 0.43481  0 107.56  87.34   84.37 107.31  87.53   84.39
   0   0  13 278.764 199.544   1-0.13903 0.13903-0.87100 0.87100 0.47120 0.47120  0  70.84  73.41  157.49  71.11  73.85  157.79
   0   0  13-195.849 200.015   2-0.07296 0.07296-0.87908 0.87908 0.47105 0.47105  0  76.90  63.23   82.47  76.78  63.18   82.00
   0  -1   0   3.398  10.600   1-0.63392 0.63392-0.04967-0.04967-0.77180 0.77180  0 278.28 267.82   54.75 278.35 267.77   54.38
   0  -1   0   6.378  10.575   2-0.22042 0.22042-0.04971-0.04971 0.97414-0.97414  0 315.29 276.65   23.45 315.32 276.59   23.23
   0  -1   0  -3.719  10.141   2 0.12141-0.12141-0.04973-0.04973-0.99136 0.99136  0 287.07 237.72  197.68 287.03 237.75  197.75
   0   1   0   1.407  10.027   1-0.59820 0.59820 0.04964 0.04964-0.79981 0.79981  0 322.42 247.64   48.53 322.43 247.69   48.13
   0   1   0  -0.887  10.075   2-0.22739 0.22739 0.04971 0.04971 0.97253-0.97253  0 284.70 239.94   17.36 284.34 239.77   17.50
   0   1   0   1.319  11.636   2 0.11439-0.11439 0.04975 0.04975-0.99219 0.99219  0 312.30 278.26  203.57 312.38 278.53  203.46
   0  -1  -1  50.131  15.291   1-0.32909 0.32909 0.50650-0.60578-0.79697 0.72438  0 278.03 277.47   17.40 278.09 277.43   17.39
   0  -1  -1  50.798  19.109   2-0.14152 0.14152-0.63157 0.53211 0.76230-0.83477  0 321.22 279.40   59.56 321.12 279.44   59.62
   0  -1  -1  48.786  18.120   2 0.05323-0.05323 0.53712-0.63662-0.84183 0.76934  0 286.41 231.78  233.44 286.32 231.73  233.24
   0  -1   1  48.597  19.840   1-0.69787 0.69787-0.47060 0.37126-0.53991 0.61248  0 270.48 257.89   82.10 270.56 258.19   82.43
   0  -1   1  30.666  18.110   2 0.12432-0.12432-0.63299 0.53353-0.76411 0.83660  0 281.21 235.08  161.44 281.28 234.94  161.24
   0  -1   1  43.927  18.651   2-0.23530 0.23530 0.52170-0.62117 0.82004-0.74751  0 316.22 283.24  348.53 316.25 283.23  348.51
   0   1  -1  55.633  20.810   1-0.69744 0.69744-0.37151 0.47085-0.61282 0.54026  0 330.82 257.58   75.25 330.90 257.62   75.38
   0   1  -1  40.206  19.269   2 0.12959-0.12959-0.53313 0.63260-0.83605 0.76356  0 318.17 281.43  168.32 318.33 281.64  168.31
   0   1  -1  41.369  18.360   2-0.23005 0.23005 0.62191-0.52244 0.74853-0.82106  0 283.23 233.30  341.47 283.39 233.55  341.44
   0   1   1  59.791  16.541   1-0.22328 0.22328 0.62379-0.52451-0.74902 0.82160  0 322.70 237.47    8.00 322.74 237.66    7.93
   0   1   1  46.015  18.997   2-0.16095 0.16095-0.53035 0.62981 0.83236-0.75989  0 278.73 237.11   52.47 278.77 237.27   52.47
   0   1   1  67.612  19.285   2 0.03361-0.03361 0.63712-0.53762-0.77003 0.84252  0 313.11 284.91  240.44 313.07 284.80  240.40
   0  -1  -2  1291.6    50.3   1-0.12347 0.12347-0.86492 0.76550 0.48649-0.63148  0 331.80 288.44  159.00 331.80 288.41  159.09
   0  -1  -2  1278.3    58.0   2-0.07691 0.07691-0.86862 0.76916 0.48947-0.63441  0 331.42 288.39   80.97 331.42 288.37   80.77
   0  -1  -2  1115.1    56.2   2 0.00031-0.00031 0.77151-0.87103-0.63621 0.49124  0 281.33 220.04  251.44 281.45 220.07  251.46
   0  -1   2 908.672  52.924   1-0.66071 0.66071-0.66485 0.56551-0.34848 0.49362  0 258.98 248.58   98.29 259.12 248.70   98.25
   0  -1   2  1062.2    55.5   2 0.09338-0.09338-0.86717 0.76764-0.48918 0.63405  0 271.41 226.77  140.02 271.56 226.76  140.32
   0  -1   2 962.635  52.685   2-0.21773 0.21773 0.75190-0.85138 0.62228-0.47724  0 321.24 295.79  331.01 321.37 295.76  330.97
   0   1  -2 944.560  53.694   1-0.69112 0.69112-0.54232 0.64166-0.47774 0.33261  0 343.73 267.81   87.96 343.73 267.81   87.88
   0   1  -2 975.551  54.963   2 0.11112-0.11112-0.76653 0.86599-0.63252 0.48755  0 328.61 290.82  150.36 328.68 290.75  150.48
   0   1  -2 965.391  53.372   2-0.20032 0.20032 0.85446-0.75498 0.47935-0.62440  0 278.28 221.73  320.98 278.43 221.79  320.80
   0   1   2  1287.8    49.8   1 0.04805-0.04805-0.77088 0.87030 0.63517-0.49018  0 269.74 228.83  172.99 269.88 228.89  173.20
   0   1   2  1168.8    57.0   2-0.10926 0.10926-0.76666 0.86612 0.63269-0.48775  0 268.95 229.19   70.52 269.10 229.19   70.54
   0   1   2  1164.8    56.2   2-0.03227 0.03227 0.87060-0.77108-0.49094 0.63592  0 318.01 297.27  261.98 318.02 297.21  261.72
   0  -1  -3 26941.7   216.6   1-0.30720 0.30720-0.90838 0.80900 0.28367-0.50114  0 344.94 299.53  142.84 344.92 299.51  143.17
   0  -1  -3 25389.6   245.1   2-0.03846 0.03846-0.95189 0.85243 0.30401-0.52142  0 343.85 300.10   92.78 343.84 300.07   92.64
   0  -1  -3 23737.2   238.1   2-0.02561 0.02561 0.85274-0.95225-0.52171 0.30425  0 274.82 206.07  259.69 274.95 206.12  259.65
   0  -1   3 22107.1   225.1   1-0.61251 0.61251-0.76037 0.66099-0.21603 0.43350  0 246.52 239.09  107.98 246.41 239.17  108.01
   0  -1   3 24026.1   241.4   2 0.06712-0.06712-0.95035 0.85082-0.30386 0.52116  0 260.08 216.53  128.56 260.26 216.57  128.62
   0  -1   3 22766.5   234.1   2-0.20469 0.20469 0.83379-0.93326 0.51273-0.29516  0 328.10 311.02  323.00 328.18 310.95  323.07
   0   1  -3 20410.3   216.1   1-0.67745 0.67745-0.61062 0.70996-0.41013 0.19243  0 358.81 278.52   93.39 358.81 278.52   93.45
   0   1  -3 24205.7   241.2   2 0.09741-0.09741-0.84853 0.94806-0.52011 0.30281  0 341.03 302.55  142.19 341.06 302.51  142.40
   0   1  -3 21426.8   227.9   2-0.17484 0.17484 0.93855-0.83908 0.29758-0.51515  0 271.71 207.82  309.03 271.85 207.83  309.19
   0   1   3 28120.6   222.7   1-0.08841 0.08841-0.84966 0.94908 0.51987-0.30239  0 258.03 219.08  161.75 258.26 219.16  162.00
   0   1   3 27108.4   254.2   2-0.08375 0.08375-0.84989 0.94935 0.52026-0.30285  0 257.60 219.04   78.71 257.84 219.07   78.67
   0   1   3 23076.0   234.4   2-0.07101 0.07101 0.95024-0.85072-0.30333 0.52079  0 324.70 312.45  273.65 324.70 312.36  273.62
   0  -1  -4 24853.1   240.2   1-0.40984 0.40984-0.90031 0.80093 0.14656-0.43652  0 360.28 311.53  133.22 360.23 311.46  133.33
   0  -1  -4 25329.2   281.0   2-0.01371 0.01371-0.98427 0.88473 0.17616-0.46590  0 357.70 313.46  100.33 357.64 313.34  100.37
   0  -1  -4 22564.0   267.3   2-0.03769 0.03769 0.88423-0.98374-0.46552 0.17557  0 267.49 190.94  263.34 267.63 190.99  263.41
   0  -1   4 21894.8   252.4   1-0.56712 0.56712-0.81522 0.71584-0.11739 0.40736  0 232.93 229.34  115.01 232.84 229.41  114.99
   0  -1   4 24428.3   275.2   2 0.04751-0.04751-0.98327 0.88374-0.17582 0.46556  0 248.25 205.45  121.06 248.10 205.49  120.96
   0  -1   4 20657.2   256.5   2-0.19762 0.19762 0.86613-0.96560 0.45910-0.16900  0 335.80 327.91  319.46 335.85 327.83  319.46
   0   1  -4 20538.1   245.1   1-0.66974 0.66974-0.63777 0.73710-0.38039 0.09011  0 375.50 289.97   95.99 375.50 289.99   95.80
   0   1  -4 23520.4   272.4   2 0.09006-0.09006-0.88093 0.98047-0.46460 0.17486  0 354.80 315.96  138.76 354.81 315.90  138.70
   0   1  -4 19876.7   253.1   2-0.15527 0.15527 0.97287-0.87340 0.17149-0.46159  0 264.35 192.70  301.65 264.47 192.75  301.57
   0   1   4 26352.9   247.4   1-0.14802 0.14802-0.87452 0.97393 0.46185-0.17188  0 245.37 209.06  156.84 245.26 209.17  157.03
   0   1   4 24829.6   276.3   2-0.07163 0.07163-0.88251 0.98197 0.46480-0.17492  0 245.84 208.03   82.33 245.69 208.06   82.42
   0   1   4 22111.0   263.5   2-0.09556 0.09556 0.98004-0.88053-0.17430 0.46425  0 332.28 329.31  281.26 332.24 329.23  281.34
   0  -1  -5 43695.4   355.1   1-0.47599 0.47599-0.87825 0.77887 0.04596-0.40841  0 377.31 324.71  126.22 377.23 324.60  126.31
   0  -1  -5 43996.0   410.4   2 0.00428-0.00428-0.99685 0.89731 0.07920-0.44137  0 372.92 328.28  105.95 372.83 328.16  106.08
   0  -1  -5 40653.3   397.7   2-0.04297 0.04297 0.89647-0.99598-0.44102 0.07858  0 259.57 174.84  265.08 259.72 174.90  264.99
   0  -1   5 38168.0   364.9   1-0.52551 0.52551-0.84993 0.75055-0.03819 0.40064  0 218.76 219.22  120.47 218.70 219.30  120.48
   0  -1   5 43335.8   408.4   2 0.03193-0.03193-0.99636 0.89682-0.07906 0.44124  0 235.37 193.72  115.07 235.24 193.79  115.30
   0  -1   5 38632.0   387.5   2-0.19452 0.19452 0.87868-0.97815 0.43599-0.07337  0 344.20 346.41  318.04 344.24 346.31  317.94
   0   1  -5 34387.0   348.4   1-0.66736 0.66736-0.64535 0.74469-0.37170 0.00886  0 393.51 302.49   96.44 393.87 302.48   96.47
   0   1  -5 43578.3   410.5   2 0.08663-0.08663-0.89363 0.99317-0.44036 0.07818  0 369.89 330.86  136.99 369.87 330.78  137.13
   0   1  -5 35240.2   371.0   2-0.13984 0.13984 0.98724-0.88773 0.07618-0.43862  0 256.49 176.70  296.00 256.57 176.74  295.97
   0   1   5 45352.4   362.8   1-0.17221 0.17221-0.88282 0.98224 0.43700-0.07454  0 231.58 198.56  155.11 231.52 198.69  154.98
   0   1   5 44515.3   410.9   2-0.06649 0.06649-0.89526 0.99472 0.44056-0.07821  0 232.96 196.40   84.00 232.84 196.44   84.01
   0   1   5 40423.9   394.3   2-0.11334 0.11334 0.99056-0.89105-0.07709 0.43953  0 340.52 347.78  287.01 340.46 347.67  287.04
   0  -1  -6  1347.5   114.8   1-0.52333 0.52333-0.85144 0.75206-0.03428-0.40066  0 395.81 339.41  120.81 396.02 339.32  120.75
   0  -1  -6  1404.3   136.0   2 0.01827-0.01827-0.99983 0.90030 0.00028-0.43489  0 389.35 344.62  110.90 389.61 344.59  110.67
   0  -1  -6  1363.6   109.3   2-0.04430 0.04430 0.89951-0.99902-0.43466-0.00027  0 251.44 157.67  265.39 251.26 157.76  265.40
   0  -1   6  1219.3    99.2   1-0.48631 0.48631-0.87329 0.77391 0.02929 0.40566  0 203.92 208.60  125.08 203.90 208.66  125.16
   0  -1   6  1319.4   111.5   2 0.01837-0.01837-0.99983 0.90030-0.00028 0.43489  0 221.79 181.48  110.72 221.63 181.48  110.70
   0  -1   6  1138.3   129.9   2-0.19377 0.19377 0.88156-0.98104 0.43047 0.00468  0 353.31 366.69  317.58 353.35 366.60  317.58
   0   1  -6  1161.4   121.1   1-0.66842 0.66842-0.64204 0.74137-0.37551-0.05990  0 413.75 316.32   96.09 414.15 316.37   96.18
   0   1  -6  1334.3   135.3   2 0.08577-0.08577-0.89678 0.99631-0.43408-0.00052  0 386.21 347.33  136.74 386.49 347.31  136.72
   0   1  -6  1184.3   107.6   2-0.12660 0.12660 0.99195-0.89244-0.00189-0.43304  0 248.22 159.62  291.43 248.04 159.68  291.42
   0   1   6  1334.2    92.0   1-0.17795 0.17795-0.88462 0.98403 0.43103 0.00392  0 217.18 187.41  154.47 217.11 187.53  154.50
   0   1   6  1422.1   112.1   2-0.06518 0.06518-0.89841 0.99787 0.43428 0.00053  0 219.31 184.17   84.39 219.20 184.22   84.42
   0   1   6  1294.1   132.8   2-0.12725 0.12725 0.99187-0.89236 0.00191 0.43302  0 349.41 368.06  291.66 349.39 367.92  291.65
   0  -1  -7  3687.6   174.4   1-0.55973 0.55973-0.82232 0.72294-0.10240-0.40504  0 416.73 356.25  116.01 416.89 356.08  116.03
   0  -1  -7  3831.7   199.4   2 0.02999-0.02999-0.99727 0.89773-0.06752-0.43952  0 408.27 363.18  114.64 408.40 363.03  114.63
   0  -1  -7  3584.5   170.1   2-0.04331 0.04331 0.89723-0.99675-0.43943-0.06799  0 242.24 139.28  265.26 242.14 139.36  265.09
   0  -1   7  3735.3   156.2   1-0.44840 0.44840-0.88936 0.78998 0.08927 0.41817  0 188.35 197.15  129.25 188.32 197.27  129.33
   0  -1   7  4159.6   175.6   2 0.00650-0.00650-0.99770 0.89817 0.06744 0.43961  0 207.12 168.39  106.78 207.06 168.48  106.78
   0  -1   7  3644.3   198.3   2-0.19449 0.19449 0.87879-0.97827 0.43577 0.07190  0 363.41 389.17  318.02 363.32 389.10  317.92
   0   1  -7  3193.3   172.9   1-0.67160 0.67160-0.63168 0.73101-0.38723-0.12075  0 436.40 332.13   95.24 436.86 332.13   95.26
   0   1  -7  4135.3   205.2   2 0.08643-0.08643-0.89439 0.99392-0.43886-0.06818  0 404.80 365.90  137.00 405.09 365.86  137.03
   0   1  -7  3356.6   163.2   2-0.11477 0.11477 0.99098-0.89147-0.06912-0.43830  0 238.93 141.30  287.49 238.85 141.40  287.51
   0   1   7  3769.5   151.4   1-0.17274 0.17274-0.88299 0.98240 0.43645 0.07100  0 201.93 175.30  155.00 201.97 175.44  154.94
   0   1   7  3899.4   176.1   2-0.06618 0.06618-0.89601 0.99547 0.43907 0.06822  0 204.64 171.27   84.25 204.59 171.32   84.11
   0   1   7  3511.3   195.4   2-0.13876 0.13876 0.98787-0.88836 0.06973 0.43768  0 359.16 390.50  295.64 359.12 390.39  295.60
   0  -1  -8  2632.1   192.0   1-0.58897 0.58897-0.79158 0.69220-0.16283-0.41710  0 440.24 375.76  112.00 440.41 375.61  111.80
   0  -1  -8  3331.0   229.8   2 0.03992-0.03992-0.99096 0.89143-0.12807-0.45141  0 429.67 384.16  118.08 429.84 384.05  118.16
   0  -1  -8  2993.3   179.1   2-0.04078 0.04078 0.89137-0.99088-0.45145-0.12845  0 232.38 119.28  264.13 232.24 119.33  264.31
   0  -1   8  3045.5   162.2   1-0.41144 0.41144-0.89995 0.80057 0.14426 0.43567  0 171.69 184.68  133.27 171.77 184.84  133.17
   0  -1   8  3162.1   184.6   2-0.00461 0.00461-0.99177 0.89224 0.12793 0.45154  0 191.30 154.40  103.01 191.28 154.60  103.23
   0  -1   8  2968.9   219.0   2-0.19616 0.19616 0.87217-0.97164 0.44816 0.13204  0 374.40 414.52  318.91 374.34 414.43  318.74
   0   1  -8  2622.2   212.8   1-0.67591 0.67591-0.61624 0.71558-0.40422-0.17633  0 462.17 350.37   93.72 462.59 350.40   93.92
   0   1  -8  3017.8   225.6   2 0.08821-0.08821-0.88823 0.98776-0.45086-0.12862  0 425.99 387.12  137.70 426.26 387.00  137.80
   0   1  -8  2993.6   179.8   2-0.10387 0.10387 0.98616-0.88664-0.12926-0.45064  0 228.86 121.43  283.72 228.85 121.51  283.99
   0   1   8  3227.0   162.8   1-0.16055 0.16055-0.87891 0.97833 0.44916 0.13078  0 185.88 161.95  156.02 185.93 162.12  155.98
   0   1   8  3228.5   185.7   2-0.06870 0.06870-0.88984 0.98930 0.45106 0.12869  0 188.81 157.49   83.17 188.76 157.56   83.32
   0   1   8  2843.8   222.7   2-0.14867 0.14867 0.98027-0.88076 0.13027 0.44963  0 369.88 415.83  299.22 369.87 415.71  299.14
   0  -1  -9  1699.9   179.3   1-0.61340 0.61340-0.75905 0.65967-0.21815-0.43426  0 467.21 398.84  107.73 467.31 398.82  107.86
   0  -1  -9  1646.0   196.7   2 0.04876-0.04876-0.98178 0.88225-0.18366-0.46826  0 454.78 408.55  121.38 454.80 408.46  121.42
   0  -1  -9  1731.7   185.5   2-0.03708 0.03708 0.88272-0.98223-0.46843-0.18396  0 221.31  97.12  263.00 221.35  97.22  263.21
   0  -1   9  1532.5   151.2   1-0.37473 0.37473-0.90624 0.80686 0.19573 0.45668  0 153.92 170.87  136.78 153.93 171.00  136.82
   0  -1   9  1556.6   178.8   2-0.01508 0.01508-0.98291 0.88337 0.18348 0.46843  0 173.98 139.51  100.02 173.92 139.57   99.94
   0  -1   9  1459.0   192.0   2-0.19848 0.19848 0.86256-0.96204 0.46539 0.18732  0 386.47 443.68  319.64 386.75 443.50  319.87
   0   1  -9  1380.5   177.7   1-0.68083 0.68083-0.59663 0.69597-0.42486-0.22826  0 491.84 372.09   92.23 492.34 372.15   92.27
   0   1  -9  1604.0   199.9   2 0.09049-0.09049-0.87919 0.97873-0.46779-0.18412  0 450.90 411.69  139.01 450.87 411.57  138.91
   0   1  -9  1560.1   182.1   2-0.09365 0.09365 0.97835-0.87884-0.18455-0.46784  0 217.80  99.37  280.71 217.82  99.55  280.74
   0   1   9  1909.2   151.8   1-0.14311 0.14311-0.87272 0.97214 0.46677 0.18566  0 168.58 146.91  157.39 168.76 147.16  157.44
   0   1   9  1528.6   176.3   2-0.07232 0.07232-0.88076 0.98022 0.46800 0.18422  0 171.28 142.50   81.94 171.37 142.70   82.20
   0   1   9  1282.7   189.7   2-0.15759 0.15759 0.96980-0.87033 0.18614 0.46657  0 382.09 444.92  302.43 382.01 444.77  302.44
   0  -1 -10 847.957 201.730   1-0.63405 0.63405-0.72466 0.62528-0.26992-0.45499  0 498.83 427.56  103.98 498.89 427.21  104.11
   0  -1 -10 812.175 227.661   2 0.05680-0.05680-0.97016 0.87063-0.23570-0.48865  0 484.41 437.49  124.48 484.62 437.50  124.50
   0  -1 -10 720.650 153.584   2-0.03270 0.03270 0.87171-0.97122-0.48894-0.23594  0 209.12  72.32  262.04 209.14  72.32  261.86
   0  -1  10 944.058 136.023   1-0.33782 0.33782-0.90886 0.80948 0.24467 0.48024  0 134.38 155.39  140.35 134.42 155.32  140.33
   0  -1  10 871.428 156.647   2-0.02517 0.02517-0.97146 0.87201 0.23584 0.48885  0 154.68 123.05   96.96 154.50 123.07   96.78
   0  -1  10 943.160 217.918   2-0.20120 0.20120 0.85043-0.94991 0.48609 0.23915  0 400.80 477.41  320.99 401.03 477.62  321.25
   0   1 -10 730.737 222.272   2 0.09326-0.09326-0.86771 0.96724-0.48825-0.23610  0 479.87 440.68  140.02 480.24 440.84  140.26
   0   1 -10 676.778 152.856   2-0.08388 0.08388 0.96803-0.86852-0.23638-0.48850  0 205.19  74.35  277.67 205.41  74.84  277.65
   0   1  10 923.524 137.069   1-0.12211 0.12211-0.86436 0.96378 0.48782 0.23711  0 149.97 130.14  159.38 150.08 130.02  159.21
   0   1  10 860.178 152.140   2-0.07669 0.07669-0.86921 0.96867 0.48846 0.23623  0 152.02 126.42   80.65 151.92 126.41   80.83
   0   1  10 672.568 208.398   2-0.16579 0.16579 0.95697-0.85749 0.23818 0.48705  0 395.88 478.88  305.52 395.85 478.83  305.58
   0  -1 -11 348.983 175.368   2-0.02771 0.02771 0.85852-0.95803-0.51203-0.28533  0 195.20  43.73  260.39 195.19  43.67  260.31
   0  -1  11 622.693 139.629   1-0.30066 0.30066-0.90802 0.80864 0.29172 0.50567  0 112.65 136.93  143.76 112.72 137.14  143.77
   0  -1  11 597.028 164.281   2-0.03479 0.03479-0.95781 0.85835 0.28528 0.51188  0 132.53 104.66   94.02 132.42 104.62   93.79
   0   1 -11 290.334 162.378   2-0.07447 0.07447 0.95544-0.85592-0.28565-0.51171  0 191.41  46.16  274.47 191.23  46.43  274.70
   0   1  11 540.368 145.017   1-0.09752 0.09752-0.85382 0.95323 0.51135 0.28607  0 129.25 110.10  160.98 129.39 109.94  161.25
   0   1  11 730.978 168.386   2-0.08184 0.08184-0.85537 0.95483 0.51151 0.28565  0 129.65 108.22   79.39 129.77 108.22   79.27
   0  -1 -12 479.939 214.853   2-0.02221 0.02221 0.84324-0.94275-0.53708-0.33277  2 178.76   9.74  258.61 178.85   9.83  258.59
   0  -1  12 559.957 175.290   1-0.26253 0.26253-0.90404 0.80466 0.33734 0.53255  0  88.15 116.02  146.93  88.01 115.47  147.19
   0  -1  12 449.662 184.724   2-0.04427 0.04427-0.94197 0.84251 0.33277 0.53686  0 106.94  83.64   90.59 106.69  83.51   90.86
   0   1 -12 374.166 197.661   2-0.06511 0.06511 0.94067-0.84116-0.33300-0.53685  0 174.64  12.90  271.47 174.63  12.97  271.80
   0   1  12 454.096 160.289   1-0.06990 0.06990-0.84085 0.94027 0.53673 0.33318  0 105.99  85.73  163.62 106.06  85.92  163.52
   0   1  12 153.208 180.343   2-0.08732 0.08732-0.83937 0.93883 0.53650 0.33313  0 103.95  87.38   77.57 103.96  87.46   77.54
   0  -1  13  8475.6   381.4   1-0.22346 0.22346-0.89681 0.79739 0.38184 0.56056  0  59.04  88.79  150.55  59.00  88.86  150.59
   0  -1  13  8362.9   453.3   2-0.05362 0.05362-0.92394 0.82448 0.37876 0.56334  0  76.19  58.58   87.68  75.94  58.78   87.98
   0   1  13  9658.0   409.1   1-0.03964 0.03964-0.82517 0.92458 0.56349 0.37891  0  78.96  55.91  165.98  78.94  56.07  166.01
   0   1  13  8667.2   445.9   2-0.09311 0.09311-0.82120 0.92066 0.56299 0.37910  0  73.50  63.14   75.60  73.05  63.14   75.69
   0  -2   0 204.037  34.265   1-0.64898 0.64898-0.09934-0.09934-0.75429 0.75429  0 256.69 277.61   57.53 257.00 277.59   57.51
   0  -2   0 285.021  38.532   2-0.21629 0.21629-0.09942-0.09942 0.97125-0.97125  0 331.72 296.25   26.38 331.62 296.27   26.09
   0  -2   0 361.689  41.772   2 0.12424-0.12424-0.09947-0.09947-0.98725 0.98725  0 274.23 217.52  195.01 274.33 217.65  194.90
   0   2   0 247.670  37.521   1-0.57758 0.57758 0.09928 0.09928-0.81027 0.81027  0 346.29 236.81   45.03 346.20 236.76   45.00
   0   2   0 285.317  39.757   2-0.23002 0.23003 0.09942 0.09942 0.96809-0.96809  0 268.86 221.70   14.91 268.93 221.78   14.64
   0   2   0 246.525  38.363   2 0.11039-0.11039 0.09950 0.09950-0.98890 0.98890  0 325.47 300.04  206.13 325.53 300.13  206.32
   0  -2  -1  3741.5    86.5   1-0.53543 0.53543 0.18841-0.38698-0.82330 0.75071  0 258.90 287.34   39.21 259.14 287.26   39.30
   0  -2  -1  4546.9   106.1   2-0.17660 0.17660-0.43484 0.23600 0.88302-0.95557  0 336.02 297.08   46.00 336.09 297.08   46.18
   0  -2  -1  4154.3   102.1   2 0.09642-0.09642 0.23922-0.43823-0.96617 0.89368  0 274.94 213.58  214.49 275.06 213.61  214.49
   0  -2   1  3120.5    86.8   1-0.69547 0.69547-0.34319 0.14451-0.63131 0.70388  0 250.83 268.04   73.37 250.71 267.98   73.44
   0  -2   1  4080.1   101.6   2-0.23547 0.23547 0.23173-0.43056 0.94385-0.87130  0 330.99 300.94    7.00 331.00 300.89    6.91
   0  -2   1  3915.2   100.0   2 0.13173-0.13173-0.43690 0.23797-0.88981 0.96230  0 269.89 216.87  174.73 270.05 216.89  174.65
   0   2  -1  3502.8    90.9   1-0.66376 0.66376-0.15470 0.35338-0.73178 0.65921  0 353.57 246.91   61.04 353.54 246.95   61.04
   0   2  -1  4188.4   102.5   2 0.12989-0.12989-0.23805 0.43698-0.96253 0.89004  0 330.16 301.38  186.99 330.16 301.30  186.81
   0   2  -1  3430.3    94.4   2-0.23744 0.23744 0.43043-0.23159 0.87084-0.94339  0 269.27 217.45  354.52 269.43 217.50  354.48
   0   2   1  3755.7    86.3   1-0.40136 0.40136 0.41165-0.21309-0.81820 0.89079  0 343.80 226.42   24.20 343.81 226.46   24.33
   0   2   1  4508.7   104.8   2-0.20296 0.20296-0.23425 0.43308 0.95075-0.87821  0 264.68 221.30   33.98 264.86 221.32   33.94
   0   2   1  4365.0   104.3   2 0.06958-0.06958 0.43900-0.23999-0.89579 0.96828  0 324.65 304.48  227.00 324.68 304.37  226.75
   0  -2  -2 26556.0   221.0   1-0.37938 0.37938 0.44195-0.64051-0.81287 0.66769  0 256.36 297.18   21.83 256.39 297.11   22.16
   0  -2  -2 41310.5   316.6   2-0.13125 0.13125-0.67874 0.47982 0.72255-0.86749  0 343.99 302.63   62.96 344.01 302.62   63.21
   0  -2  -2 37711.5   303.7   2 0.06248-0.06248 0.48368-0.68269-0.87301 0.72804  0 272.60 205.27  229.73 272.71 205.30  229.65
   0  -2   2 28914.1   268.7   1-0.69426 0.69426-0.51765 0.31897-0.50004 0.64518  0 241.67 258.50   85.96 241.52 258.46   85.96
   0  -2   2 37332.5   305.0   2 0.12071-0.12071-0.67960 0.48067-0.72358 0.86855  0 262.55 212.01  157.82 262.72 212.05  157.69
   0  -2   2 34286.5   290.1   2-0.23668 0.23668 0.46873-0.66756 0.85105-0.70593  0 333.62 310.25  352.04 333.65 310.19  352.00
   0   2  -2 21463.5   233.3   1-0.69304 0.69304-0.31968 0.51835-0.64614 0.50101  0 364.54 257.27   72.05 364.56 257.29   71.84
   0   2  -2 36999.0   301.5   2 0.13102-0.13102-0.47990 0.67883-0.86749 0.72252  0 338.16 307.18  172.04 338.17 307.11  171.87
   0   2  -2 33297.4   287.4   2-0.22638 0.22638 0.66870-0.46976 0.70823-0.85328  0 266.68 208.98  337.99 266.81 209.03  337.87
   0   2   2 36930.9   258.7   1-0.16719 0.16719 0.67663-0.47806-0.71709 0.86227  0 346.93 215.68    2.78 346.96 215.69    3.15
   0   2   2 43159.1   324.3   2-0.17007 0.17007-0.47692 0.67575 0.86234-0.71724  0 257.45 216.72   49.00 257.72 216.76   48.89
   0   2   2 38851.7   306.7   2 0.02306-0.02306 0.68369-0.48468-0.72941 0.87439  0 327.02 313.46  244.00 327.03 313.36  244.01
   0  -2  -3 46200.2   312.0   1-0.23653 0.23653 0.61037-0.80894-0.75598 0.53822  0 249.66 307.34    8.71 249.53 307.19    9.08
   0  -2  -3 50204.9   323.9   1-0.04601 0.04601-0.82861 0.62978 0.55793-0.77541  0 355.42 311.37  165.47 355.34 311.28  165.48
   0  -2  -3 51924.6   388.8   2-0.09156 0.09156-0.82606 0.62714 0.55610-0.77351  0 354.60 311.62   75.92 354.61 311.59   76.18
   0  -2  -3 47621.5   374.2   2 0.03519-0.03519 0.62970-0.82871-0.77604 0.55858  0 268.09 193.98  240.01 268.21 194.02  239.84
   0  -2   3 37870.5   334.2   1-0.67006 0.67006-0.63673 0.43806-0.38156 0.59927  0 230.65 248.92   95.74 230.51 248.93   95.71
   0  -2   3 47179.3   372.9   2 0.10196-0.10196-0.82497 0.62590-0.55591 0.77321  0 253.47 204.47  144.98 253.30 204.50  144.87
   0  -2   3 43251.4   358.1   2-0.23087 0.23087 0.61029-0.80924 0.75779-0.54022  0 338.53 322.92  342.14 338.60 322.85  342.27
   0   2  -3 36132.9   327.1   1-0.69894 0.69894-0.41760 0.61628-0.58060 0.36289  0 378.34 268.04   78.60 378.28 268.06   78.60
   0   2  -3 45828.4   368.2   2 0.12488-0.12488-0.62448 0.82341-0.77099 0.55354  0 348.73 316.38  162.00 348.72 316.33  161.86
   0   2  -3 41102.1   350.9   2-0.20853 0.20853 0.81299-0.61405 0.54365-0.76122  0 262.02 197.65  325.04 262.17 197.70  325.22
   0   2   3 51742.4   387.6   2-0.14338 0.14338-0.62256 0.82148 0.76932-0.55191  0 248.51 209.41   59.00 248.39 209.45   58.96
   0   2   3 47407.0   372.1   2-0.01733 0.01733 0.82903-0.63001-0.55893 0.77639  0 331.65 325.95  257.04 331.65 325.84  257.08
   0  -2  -4 16103.0   209.7   1-0.20764 0.20764-0.89304 0.69421 0.39920-0.68917  0 367.07 323.81  152.15 367.00 323.71  151.96
   0  -2  -4 15398.1   242.3   2-0.06033 0.06033-0.90963 0.71071 0.41101-0.70089  0 367.26 323.13   85.94 367.27 323.10   85.92
   0  -2  -4 14370.5   236.0   2 0.01619-0.01619 0.71203-0.91103-0.70196 0.41201  0 262.14 180.65  246.15 262.30 180.72  246.30
   0  -2   4 11294.3   205.0   1-0.63739 0.63739-0.71818 0.51942-0.27919 0.56915  0 218.37 239.18  103.40 218.32 239.24  103.44
   0  -2   4 13794.0   227.6   2 0.08249-0.08249-0.90806 0.70899-0.41064 0.70038  0 242.55 195.17  135.02 242.45 195.21  135.22
   0  -2   4 12501.7   221.8   2-0.22437 0.22437 0.69100-0.88995 0.68715-0.39706  0 344.94 338.15  336.00 345.01 338.07  336.10
   0   2  -4 11321.6   210.0   1-0.69777 0.69777-0.47370 0.67237-0.53734 0.24707  0 393.98 279.50   82.71 394.27 279.51   82.66
   0   2  -4 13406.8   229.3   2 0.11809-0.11809-0.70641 0.90534-0.69788 0.40794  0 361.25 328.09  155.53 361.22 328.02  155.56
   0   2  -4  8099.9   183.3   2-0.18972 0.18972 0.89609-0.69715 0.40127-0.69137  0 256.21 184.36  315.74 256.11 184.43  315.69
   0   2   4 14459.9   230.6   2-0.12494 0.12494-0.70568 0.90459 0.69743-0.40756  0 237.69 200.34   65.21 237.57 200.37   65.34
   0   2   4 13380.7   227.4   2-0.04918 0.04918 0.91011-0.71109-0.41143 0.70138  0 337.81 341.08  267.02 337.77 340.94  266.89
   0  -2  -5 18882.2   245.9   1-0.32391 0.32391-0.90889 0.71013 0.26269-0.62514  0 381.57 337.62  141.70 381.46 337.49  141.64
   0  -2  -5 18464.5   290.7   2-0.03559 0.03559-0.95656 0.75764 0.28935-0.65170  0 381.86 336.82   93.57 381.78 336.75   93.54
   0  -2  -5 11114.3   229.0   2 0.00406-0.00406 0.75808-0.95711-0.65214 0.28971  0 255.28 165.69  250.06 255.36 165.80  250.24
   0  -2   5 15352.5   258.1   1-0.60127 0.60127-0.77615 0.57739-0.18990 0.55235  0 205.05 229.13  110.00 205.02 229.20  109.88
   0  -2   5 17292.0   277.8   2 0.06491-0.06491-0.95508 0.75601-0.28916 0.65134  0 230.55 184.69  127.68 230.44 184.73  127.72
   0  -2   5 15446.2   270.0   2-0.21953 0.21953 0.73642-0.93537 0.63991-0.27729  0 352.55 355.60  332.27 352.59 355.50  332.32
   0   2  -5 14851.1   259.2   1-0.69562 0.69562-0.50412 0.70279-0.51184 0.14900  0 412.15 291.94   84.96 412.45 291.94   84.93
   0   2  -5 17712.6   287.4   2 0.11289-0.11289-0.75250 0.95143-0.64884 0.28641  0 375.55 341.92  151.70 375.47 341.85  151.70
   0   2  -5 15496.3   263.5   2-0.17245 0.17245 0.94381-0.74486 0.28192-0.64454  0 249.20 169.55  308.20 249.02 169.60  308.23
   0   2   5 19135.6   289.7   2-0.11305 0.11305-0.75247 0.95138 0.64886-0.28651  0 225.69 190.02   69.18 225.56 190.07   69.27
   0   2   5 15752.9   271.2   2-0.07394 0.07394 0.95466-0.75564-0.28836 0.65080  0 345.06 358.44  274.53 345.01 358.29  274.53
   0  -2  -6 12817.1   230.3   1-0.40835 0.40835-0.90063 0.70187 0.14869-0.58363  0 398.11 353.10  133.48 398.35 352.95  133.48
   0  -2  -6 13393.1   280.0   2-0.01575 0.01575-0.98223 0.78316 0.18701-0.62162  0 398.01 352.55   99.75 398.23 352.38   99.73
   0  -2  -6 12353.9   259.8   2-0.00301 0.00301 0.78341-0.98244-0.62149 0.18657  0 247.70 149.30  252.56 247.55 149.39  252.56
   0  -2   6 11740.2   246.6   1-0.56395 0.56395-0.81831 0.61955-0.11106 0.54601  0 190.79 218.59  115.39 190.74 218.66  115.43
   0  -2   6 12132.9   257.9   2 0.04916-0.04916-0.98122 0.78215-0.18654 0.62115  0 217.45 173.15  121.54 217.35 173.22  121.58
   0  -2   6 12041.0   271.0   2-0.21647 0.21647 0.76135-0.96029 0.61114-0.17599  0 361.18 375.30  330.00 361.22 375.19  330.13
   0   2  -6 10220.5   248.0   1-0.69420 0.69420-0.51825 0.71693-0.49950 0.06409  0 432.78 305.67   86.13 433.04 305.72   86.01
   0   2  -6 12173.7   273.2   2 0.10937-0.10937-0.77766 0.97673-0.61910 0.18449  0 391.36 357.85  149.34 391.68 357.80  149.42
   0   2  -6 11025.7   248.8   2-0.15676 0.15676 0.97094-0.77199 0.18086-0.61600  0 241.24 153.30  302.16 241.05 153.36  302.13
   0   2   6 13245.7   226.5   1 0.02990-0.02990-0.78326 0.98209 0.62098-0.18602  0 215.46 175.87  171.79 215.45 176.03  171.71
   0   2   6 13143.6   265.8   2-0.10591 0.10591-0.77826 0.97718 0.61894-0.18413  0 212.58 178.70   71.57 212.48 178.76   71.59
   0   2   6 11991.4   268.0   2-0.09363 0.09363 0.97833-0.77930-0.18469 0.61961  0 353.34 378.05  280.80 353.24 377.93  280.73
   0  -2  -7  2235.3   157.2   1-0.47221 0.47221-0.87995 0.68119 0.05203-0.55947  0 417.58 370.84  126.81 417.68 370.65  126.73
   0  -2  -7  2988.3   199.8   2 0.00087-0.00087-0.99517 0.79610 0.09811-0.60516  0 416.92 370.61  104.75 417.03 370.46  104.97
   0  -2  -7  2327.9   158.3   2-0.00687 0.00687 0.79618-0.99520-0.60502 0.09761  0 239.09 131.36  253.97 238.90 131.39  253.77
   0  -2   7  2329.2   143.7   1-0.52652 0.52652-0.84922 0.65046-0.03999 0.54743  0 175.41 207.36  120.30 175.43 207.41  120.36
   0  -2   7  2547.2   160.2   2 0.03493-0.03493-0.99458 0.79551-0.09788 0.60493  0 203.09 160.57  116.01 203.11 160.71  116.40
   0  -2   7  2353.1   193.9   2-0.21475 0.21475 0.77372-0.97266 0.59602-0.08836  0 370.90 397.60  329.29 370.97 397.47  329.01
   0   2  -7  2202.8   177.2   1-0.69385 0.69385-0.52136 0.72003-0.49675-0.01123  0 456.32 321.26   86.27 456.48 321.33   86.25
   0   2  -7  2506.6   194.3   2 0.10749-0.10749-0.79050 0.98957-0.60296 0.09591  0 409.87 376.20  148.27 410.08 376.11  148.23
   0   2  -7  2330.3   156.6   2-0.14276 0.14276 0.98531-0.78629 0.09373-0.60114  0 232.28 135.52  297.25 232.27 135.57  297.00
   0   2   7  2617.6   137.8   1 0.00952-0.00952-0.79638 0.99521 0.60472-0.09727  0 201.45 163.15  170.14 201.51 163.36  170.04
   0   2   7  2583.6   158.7   2-0.10219 0.10219-0.79124 0.99016 0.60291-0.09562  0 198.27 166.48   72.72 198.18 166.50   72.79
   0   2   7  2590.0   194.8   2-0.11007 0.11007 0.98934-0.79032-0.09531 0.60273  0 362.67 400.25  285.74 362.49 400.12  285.98
   0  -2  -8  1882.3   186.1   1-0.52198 0.52198-0.85236 0.65360-0.03189-0.54803  0 439.72 391.54  120.84 439.86 391.36  120.92
   0  -2  -8  1646.4   181.0   2 0.01505-0.01505-0.99970 0.80063 0.01950-0.59898  0 438.65 391.52  109.56 438.74 391.40  109.56
   0  -2  -8  1788.0   171.4   2-0.00826 0.00826 0.80076-0.99978-0.59893 0.01903  0 229.32 111.38  253.99 229.30 111.52  254.22
   0  -2   8  1814.1   150.5   1-0.48882 0.48882-0.87202 0.67326 0.02515 0.55477  0 158.89 195.18  124.81 158.89 195.19  124.87
   0  -2   8  1832.3   169.4   2 0.02170-0.02170-0.99958 0.80050-0.01945 0.59893  0 187.68 147.15  111.67 187.49 147.10  111.81
   0  -2   8  1505.3   176.5   2-0.21416 0.21416 0.77779-0.97674 0.59091-0.01072  0 381.94 422.82  328.62 382.00 422.91  328.63
   0   2  -8  1508.8   169.0   1-0.69438 0.69438-0.51653 0.71520-0.50103-0.07952  0 483.51 339.57   85.69 483.52 339.44   85.88
   0   2  -8  1829.0   184.9   2 0.10680-0.10680-0.79505 0.99413-0.59706 0.01758  0 431.11 397.29  148.02 431.27 397.34  147.81
   0   2  -8  1549.9   159.9   2-0.12970 0.12970 0.99142-0.79240 0.01616-0.59606  0 222.42 115.78  292.47 222.44 115.96  292.48
   0   2   8  1761.7   132.4   1 0.00226-0.00226-0.80099 0.99982 0.59867-0.01873  0 186.28 149.00  169.37 186.39 149.29  169.43
   0   2   8  2048.0   169.2   2-0.10085 0.10085-0.79583 0.99475 0.59706-0.01731  0 182.49 153.01   72.97 182.48 153.18   73.23
   0   2   8  1836.6   220.5   2-0.12408 0.12408 0.99214-0.79311-0.01640 0.59630  0 373.03 425.49  290.59 372.93 425.46  290.57
   0  -2  -9  7964.0   289.4   1-0.56185 0.56185-0.82035 0.62159-0.10656-0.54585  0 465.37 416.31  115.84 465.54 416.07  115.74
   0  -2  -9  8668.7   353.6   2 0.02729-0.02729-0.99830 0.79923-0.05151-0.60041  0 464.30 416.28  114.00 464.32 416.05  113.69
   0  -2  -9  8555.8   299.5   2-0.00791 0.00791 0.79960-0.99862-0.60048-0.05190  0 218.62  89.16  254.00 218.57  89.31  254.11
   0  -2   9  8425.6   277.2   1-0.45067 0.45067-0.88856 0.68980 0.08578 0.56663  0 140.77 181.54  128.99 140.85 181.65  129.08
   0  -2   9  8792.9   295.9   2 0.00935-0.00935-0.99863 0.79956 0.05141 0.60051  0 170.21 132.05  107.67 170.17 132.18  107.71
   0  -2   9  8029.8   350.9   2-0.21442 0.21442 0.77598-0.97493 0.59319 0.05952  0 394.33 452.56  328.79 394.62 452.41  328.80
   0   2  -9  8461.1   358.2   2 0.10700-0.10700-0.79377 0.99284-0.59874-0.05318  0 455.95 422.41  147.71 456.16 422.35  147.93
   0   2  -9  7427.5   279.6   2-0.11744 0.11744 0.99161-0.79259-0.05404-0.59834  0 211.52  93.94  288.35 211.43  94.10  288.38
   0   2   9  9135.8   249.7   1 0.00402-0.00402-0.79980 0.99863 0.60026 0.05218  0 169.81 133.10  169.56 169.96 133.39  169.58
   0   2   9  8954.6   299.2   2-0.10124 0.10124-0.79451 0.99342 0.59876 0.05347  0 165.04 138.50   72.99 165.05 138.60   73.10
   0   2   9  7214.7   335.0   2-0.13624 0.13624 0.98916-0.79014 0.05479 0.59760  0 384.69 455.00  294.75 384.81 454.85  294.73
   0  -2 -10  7604.6   352.8   1-0.59434 0.59434-0.78506 0.58630-0.17445-0.55046  0 495.88 446.73  110.80 495.85 446.41  110.97
   0  -2 -10  8165.6   411.6   2 0.03806-0.03806-0.99243 0.79336-0.11678-0.60757  0 495.30 446.05  117.49 495.22 445.79  117.49
   0  -2 -10  7416.7   320.0   2-0.00623 0.00623 0.79408-0.99310-0.60778-0.11709  0 206.49  63.98  253.57 206.42  64.09  253.57
   0  -2  10  8062.4   300.2   1-0.41231 0.41231-0.89975 0.70099 0.14300 0.58191  0 121.12 166.24  133.20 120.93 166.34  133.08
   0  -2  10  8378.6   328.1   2-0.00254 0.00254-0.99318 0.79411 0.11658 0.60777  0 150.68 115.45  104.00 150.67 115.60  103.89
   0  -2  10  7286.0   403.9   2-0.21533 0.21533 0.76966-0.96861 0.60104 0.12420  0 409.01 487.32  329.38 409.34 487.34  329.38
   0   2 -10  7875.4   416.7   2 0.10786-0.10786-0.78804 0.98711-0.60610-0.11825  0 486.10 452.59  148.43 486.12 452.48  148.46
   0   2 -10  7364.7   310.4   2-0.10579 0.10579 0.98728-0.78826-0.11869-0.60618  0 198.99  69.27  284.59 198.95  69.31  284.61
   0   2  10  8915.4   277.5   1 0.01303-0.01303-0.79417 0.99300 0.60756 0.11737  0 151.79 114.88  170.29 151.93 115.06  170.32
   0   2  10  7600.7   309.7   2-0.10293 0.10293-0.78868 0.98760 0.60613 0.11856  0 145.44 122.35   72.52 145.41 122.46   72.55
   0   2  10  7060.0   391.6   2-0.14702 0.14702 0.98180-0.78278 0.12019 0.60468  0 398.45 489.76  298.57 398.59 489.65  298.55
   0  -2 -11  4522.7   326.0   2-0.00349 0.00349 0.78502-0.98404-0.61946-0.17790  0 192.49  34.99  252.69 192.41  34.85  252.71
   0  -2  11  4556.8   280.8   1-0.37340 0.37340-0.90639 0.70763 0.19754 0.59986  0  98.55 148.44  136.79  98.52 148.59  136.95
   0  -2  11  4106.6   297.7   2-0.01395 0.01395-0.98404 0.78497 0.17740 0.61938  0 128.47  96.73  100.23 128.30  96.88  100.30
   0   2 -11  3897.4   311.1   2-0.09467 0.09467 0.97927-0.78024-0.17909-0.61827  0 184.67  40.56  281.33 184.52  40.63  281.06
   0   2  11  4749.4   240.2   1 0.02760-0.02760-0.78477 0.98360 0.61918 0.17824  0 131.63  93.20  171.46 131.81  93.40  171.52
   0   2  11  4776.4   298.6   2-0.10565 0.10565-0.77918 0.97810 0.61783 0.17933  0 123.17 104.20   71.65 122.88 104.27   71.68
   0  -2  12 14131.3   418.0   1-0.33370 0.33370-0.90894 0.71017 0.24997 0.61992  0  72.95 127.47  140.71  72.79 127.52  140.72
   0  -2  12 15333.6   493.2   2-0.02507 0.02507-0.97159 0.77268 0.23532 0.63431  0 102.38  75.13   96.97 102.07  75.31   96.81
   0   2  12 16168.8   423.2   1 0.04665-0.04665-0.77185 0.97068 0.63410 0.23582  0 109.09  67.05  173.14 108.99  67.21  173.09
   0   2  12 14897.6   474.9   2-0.10931 0.10931-0.76649 0.96540 0.63289 0.23674  0  96.73  83.18   70.50  96.48  83.41   70.52
   0  -3   0   5.798  30.563   1-0.66235 0.66235-0.14900-0.14900-0.73423 0.73423  0 235.33 287.22   60.61 235.52 287.61   60.68
   0  -3   0  -8.231  40.098   2-0.21174 0.21174-0.14913-0.14913 0.96588-0.96588  0 348.90 317.50   28.45 349.06 317.51   28.97
   0  -3   0  -4.420  40.867   2 0.12660-0.12660-0.14920-0.14920-0.98067 0.98067  0 261.19 197.03  191.80 261.24 197.10  192.02
   0   3   0   9.913  38.448   1-0.55495 0.55495 0.14892 0.14892-0.81845 0.81845  0 371.59 224.64   41.64 371.94 224.73   41.84
   0   3   0  -1.996  33.883   2-0.23248 0.23248 0.14913 0.14913 0.96110-0.96110  0 252.65 203.86   11.44 253.10 203.53   11.76
   0   3   0 -10.652  43.234   2 0.10590-0.10590 0.14925 0.14925-0.98311 0.98311  0 339.54 323.61  209.56 339.50 323.35  209.21
   0  -3  -1 61962.3   400.1   1-0.60341 0.60341 0.03637-0.33422-0.79660 0.72402  0 238.44 297.57   49.11 238.40 297.46   48.97
   0  -3  -1 76127.3   481.4   2-0.18492 0.18492-0.37855 0.08030 0.90692-0.97947  0 353.13 317.61   42.70 353.17 317.57   42.64
   0  -3  -1 76466.3   484.8   2 0.11190-0.11190 0.08242-0.38093-0.99030 0.91781  0 262.37 193.68  205.24 262.50 193.72  205.33
   0  -3   1 53506.8   398.5   1-0.69261 0.69261-0.31576 0.01775-0.64852 0.72109  0 229.86 278.02   71.59 229.79 277.94   71.57
   0  -3   1 75632.8   480.9   2-0.22893 0.22893 0.07807-0.37633 0.97031-0.89776  0 347.81 321.50   16.02 347.82 321.45   15.87
   0  -3   1 77781.5   490.5   2 0.13208-0.13208-0.38036 0.08196-0.91536 0.98785  0 257.19 197.10  178.03 257.47 197.14  178.21
   0   3  -1 59027.6   416.7   1-0.62790 0.62790-0.03153 0.32954-0.77765 0.70509  0 379.28 235.23   53.00 379.20 235.31   53.23
   0   3  -1 72781.4   472.3   2 0.12329-0.12329-0.08223 0.38063-0.98896 0.91647  0 343.77 323.89  195.98 343.72 323.77  195.89
   0   3  -1 73269.7   474.2   2-0.23785 0.23785 0.37583-0.07758 0.89564-0.96820  0 254.32 199.86  358.03 254.12 199.92  357.91
   0   3   1 67143.7   415.6   1-0.43744 0.43744 0.35873-0.06088-0.82460 0.89718  0 368.48 213.90   28.00 368.42 213.98   28.02
   0   3   1 83246.8   503.7   2-0.21806 0.21806-0.07867 0.37692 0.97276-0.90021  0 249.72 203.85   25.03 249.58 203.87   24.89
   0   3   1 75356.3   479.2   2 0.07829-0.07829 0.38170-0.08319-0.92097 0.99345  0 337.95 326.97  223.02 337.96 326.86  223.13
   0  -3  -2 12133.1   181.7   1-0.52011 0.52011 0.21818-0.51603-0.82576 0.68059  0 238.03 307.68   37.38 238.02 307.54   37.38
   0  -3  -2 13985.3   225.0   2-0.15288 0.15288-0.57486 0.27649 0.80384-0.94878  0 360.04 321.44   55.52 360.03 321.41   55.54
   0  -3  -2 13963.9   227.0   2 0.09163-0.09163 0.27970-0.57820-0.95571 0.81073  0 261.28 187.02  216.98 261.41 187.07  216.90
   0  -3   2 10610.5   193.9   1-0.69854 0.69854-0.45380 0.15579-0.55327 0.69840  0 221.83 268.42   81.02 221.75 268.36   81.20
   0  -3   2 13591.3   223.1   2-0.23651 0.23651 0.26969-0.56795 0.93345-0.78835  0 349.19 329.18    4.86 349.14 329.09    4.65
   0  -3   2 13114.0   215.9   2 0.12758-0.12758-0.57652 0.27812-0.80706 0.95204  0 251.47 194.01  165.22 251.35 194.03  165.31
   0   3  -2 11119.9   199.0   1-0.66716 0.66716-0.16898 0.46699-0.72549 0.58035  0 389.32 245.88   61.96 389.57 245.94   61.96
   0   3  -2 12947.7   219.0   2 0.13085-0.13085-0.27793 0.57633-0.95165 0.80668  0 350.73 328.10  184.38 350.67 328.02  184.44
   0   3  -2 12473.7   209.9   2-0.23333 0.23333 0.56806-0.26964 0.78922-0.93426  0 252.87 192.99  345.08 252.70 193.04  345.31
   0   3   2 13305.4   194.6   1-0.28063 0.28063 0.56314-0.26529-0.77725 0.92242  0 368.96 202.66   13.00 368.91 202.73   12.97
   0   3   2 15546.2   231.7   2-0.19842 0.19842-0.27346 0.57171 0.94120-0.79610  0 243.78 201.08   35.99 243.65 201.11   36.27
   0   3   2 14015.4   224.3   2 0.04531-0.04531 0.57961-0.28111-0.81363 0.95861  0 338.94 334.31  236.01 338.95 334.18  236.20
   0  -3  -3 19378.0   235.7   1-0.42780 0.42780 0.37331-0.67116-0.82318 0.60542  0 234.40 318.14   27.00 234.36 317.97   27.01
   0  -3  -3 23382.7   302.8   2-0.12057 0.12057-0.72359 0.42521 0.67962-0.89703  0 369.49 328.55   66.98 369.47 328.51   66.82
   0  -3  -3 21821.9   295.0   2 0.07130-0.07130 0.42792-0.72642-0.90100 0.68354  0 258.19 177.56  226.01 258.37 177.62  226.04
   0  -3   3 15140.7   244.5   1-0.68771 0.68771-0.56319 0.26518-0.45811 0.67582  0 211.99 258.78   89.50 211.90 258.75   89.53
   0  -3   3 20297.7   281.4   2 0.11626-0.11626-0.72397 0.42557-0.67997 0.89743  0 243.36 188.34  154.03 243.24 188.40  154.12
   0  -3   3 18412.6   273.4   2-0.23763 0.23763 0.41305-0.71131 0.87916-0.66149  0 352.69 340.19  355.66 352.66 340.08  355.58
   0   3  -3 17121.0   262.6   1-0.68616 0.68616-0.26608 0.56409-0.67704 0.45934  0 402.50 256.87   67.97 402.73 256.93   68.27
   0   3  -3 19297.7   278.9   2 0.13186-0.13186-0.42440 0.72280-0.89582 0.67836  0 360.07 335.57  175.43 360.01 335.50  175.45
   0   3  -3 18967.5   271.7   2-0.22211 0.22211 0.71323-0.41481 0.66481-0.88238  0 249.56 183.50  334.14 249.38 183.55  334.28
   0   3   3 23825.4   302.8   2-0.17876 0.17876-0.42055 0.71880 0.88948-0.67184  0 235.80 195.75   45.05 235.69 195.79   45.27
   0   3   3 20607.8   285.1   2 0.01225-0.01225 0.72790-0.42940-0.68557 0.90303  0 342.07 345.00  247.63 342.05 344.86  247.62
   0  -3  -4  30.178  36.729   1-0.34189 0.34189 0.49078-0.78863-0.80140 0.51105  0 227.95 328.78   18.66 227.85 328.89   18.58
   0  -3  -4  30.209  56.520   1-0.04885 0.04885-0.83012 0.53187 0.55545-0.84542  0 382.76 337.68  165.09 382.31 337.86  165.25
   0  -3  -4  47.312  66.236   2-0.09100 0.09100-0.82781 0.52943 0.55358-0.84346  0 381.22 338.44   76.63 381.21 338.47   76.36
   0  -3  -4  34.792  50.191   2 0.05430-0.05430 0.53120-0.82970-0.84551 0.55556  0 253.72 165.76  233.05 253.70 165.87  232.84
   0  -3   4  56.846  54.984   1-0.66637 0.66637-0.64861 0.35060-0.36778 0.65805  0 200.46 249.18   96.71 200.59 249.02   96.77
   0  -3   4  56.484  53.521   2 0.10163-0.10163-0.82675 0.52815-0.55331 0.84305  0 233.45 180.34  144.66 233.49 180.75  144.69
   0  -3   4  91.891  68.275   2-0.23562 0.23562 0.51249-0.81091 0.82573-0.53564  0 357.72 353.93  349.02 357.98 353.93  349.13
   0   3  -4  17.841  69.963   1-0.69443 0.69443-0.33164 0.62964-0.63858 0.34831  0 418.54 268.54   72.44 418.48 268.52   72.65
   0   3  -4  66.468  69.166   2 0.12983-0.12983-0.52640 0.82480-0.84027 0.55032  0 371.29 345.86  168.49 371.52 345.75  168.77
   0   3  -4  70.350  49.351   2-0.20810 0.20810 0.81538-0.51696 0.54023-0.83033  0 244.67 171.63  325.10 244.51 171.84  324.98
   0   3   4   4.433  47.050   2-0.16225 0.16225-0.52295 0.82132 0.83678-0.54690  0 225.92 188.28   51.88 226.03 188.51   51.97
   0   3   4  21.291  67.736   2-0.01786 0.01786 0.83062-0.53209-0.55655 0.84650  0 346.70 358.55  257.57 346.86 358.46  257.25
   0  -3  -5  2197.1   108.7   1-0.27232 0.27232 0.57240-0.87025-0.77343 0.41050  0 219.10 340.61   12.14 219.05 340.48   12.23
   0  -3  -5  2626.0   136.7   1-0.18335 0.18335-0.88627 0.58803 0.42532-0.78779  0 393.70 352.58  153.86 393.88 352.43  154.04
   0  -3  -5  2470.5   160.5   2-0.06540 0.06540-0.89788 0.59951 0.43535-0.79769  0 394.93 351.03   84.04 395.18 350.97   84.35
   0  -3  -5  2655.0   140.9   2 0.04122-0.04122 0.60040-0.89891-0.79864 0.43620  0 247.92 152.06  237.79 247.79 152.16  237.68
   0  -3   5  1941.2   124.7   1-0.63916 0.63916-0.71470 0.41656-0.28404 0.64649  0 188.10 238.96  103.13 188.12 239.02  103.08
   0  -3   5  2409.7   138.1   2 0.08588-0.08588-0.89639 0.59778-0.43487 0.79704  0 222.42 171.47  136.94 222.36 171.52  136.77
   0  -3   5  1586.0   148.6   2-0.23261 0.23261 0.57954-0.87796 0.78104-0.41842  0 364.69 370.49  344.52 364.76 370.40  344.49
   0   3  -5  2033.9   152.6   1-0.69759 0.69759-0.37412 0.67213-0.61107 0.24823  0 436.66 281.04   75.55 436.85 281.07   75.56
   0   3  -5  2644.5   165.5   2 0.12661-0.12661-0.59485 0.89324-0.79380 0.43138  0 384.96 358.65  164.00 385.15 358.57  164.01
   0   3  -5  2257.5   134.1   2-0.19289 0.19289 0.88484-0.58642 0.42408-0.78670  0 238.45 158.17  317.34 238.34 158.25  317.16
   0   3   5  2533.3   137.9   2-0.14947 0.14947-0.59228 0.89066 0.79174-0.42940  0 214.99 179.56   56.96 214.90 179.61   56.77
   0   3   5  2397.5   159.8   2-0.04399 0.04399 0.89880-0.60026-0.43616 0.79859  0 353.12 374.88  265.08 353.07 374.77  265.31
   0  -3  -6 439.765  71.892   1-0.22097 0.22097 0.62609-0.92394-0.74778 0.31226  0 208.55 353.04    7.61 208.34 352.97    7.73
   0  -3  -6 557.932  92.981   1-0.29198 0.29198-0.90738 0.60924 0.30233-0.73727  0 408.35 369.11  144.55 408.43 368.96  144.56
   0  -3  -6 467.549 112.920   2-0.04329 0.04329-0.94374 0.64537 0.32783-0.76264  0 411.47 366.09   90.98 411.50 366.03   91.17
   0  -3  -6 489.461  88.484   2 0.03172-0.03172 0.64561-0.94412-0.76301 0.32808  0 240.80 136.42  241.00 240.73 136.56  241.03
   0  -3   6 470.424  90.462   1-0.60818 0.60818-0.76665 0.46850-0.20586 0.64080  0 174.21 228.62  108.75 174.32 228.52  108.74
   0  -3   6 476.387  89.827   2 0.07054-0.07054-0.94222 0.64361-0.32748 0.76209  0 209.90 160.99  129.92 209.85 160.93  130.05
   0  -3   6 364.857 110.462   2-0.22996 0.22996 0.62333-0.92175 0.74738-0.31224  0 372.75 389.60  341.35 372.89 389.62  341.33
   0   3  -6 403.495 112.785   1-0.69862 0.69862-0.39984 0.69784-0.59335 0.15794  0 457.84 294.73   77.30 458.10 294.93   77.35
   0   3  -6 450.281 116.883   2 0.12386-0.12386-0.63961 0.93800-0.75866 0.32374  0 400.85 374.09  160.71 400.98 373.99  160.75
   0   3  -6 361.800  84.922   2-0.17795 0.17795 0.93104-0.63262 0.31860-0.75374  0 230.84 143.00  310.52 231.00 142.86  310.48
   0   3   6 554.103  93.931   2-0.14023 0.14023-0.63772 0.93610 0.75740-0.32258  0 202.33 169.34   60.24 202.39 169.38   60.08
   0   3   6 364.773 109.048   2-0.06628 0.06628 0.94265-0.64412-0.32712 0.76205  0 360.66 393.89  272.49 360.55 393.83  272.17
   0  -3  -7 39049.1   421.8   1-0.18570 0.18570 0.65981-0.95766-0.72813 0.22001  0 196.12 366.83    4.79 196.04 366.67    4.72
   0  -3  -7 42953.7   447.4   1-0.37828 0.37828-0.90580 0.60766 0.19089-0.69833  0 425.77 388.19  136.46 425.95 387.95  136.47
   0  -3  -7 43321.3   545.3   2-0.02419 0.02419-0.97271 0.67434 0.23074-0.73803  0 430.28 383.94   97.00 430.56 383.91   97.09
   0  -3  -7 43222.5   531.5   2 0.02527-0.02527 0.67419-0.97269-0.73813 0.23072  0 232.76 118.87  243.20 232.61 119.01  243.24
   0  -3   7 35681.5   477.3   1-0.57484 0.57484-0.80737 0.50923-0.13307 0.64050  0 159.17 217.27  113.97 159.19 217.33  113.89
   0  -3   7 40345.6   515.5   2 0.05608-0.05608-0.97142 0.67282-0.23064 0.73768  0 196.02 148.96  124.01 195.95 149.03  124.20
   0  -3   7 36390.7   505.8   2-0.22787 0.22787 0.65090-0.94932 0.72416-0.21649  0 382.31 411.88  339.19 382.44 411.84  339.24
   0   3  -7 33351.1   477.7   1-0.69891 0.69891-0.41317 0.71118-0.58379 0.07581  0 482.58 310.56   78.21 482.80 310.62   78.29
   0   3  -7 39441.9   527.3   2 0.12171-0.12171-0.66790 0.96630-0.73423 0.22683  0 419.11 392.31  158.58 419.33 392.20  158.60
   0   3  -7 36440.5   493.2   2-0.16349 0.16349 0.96094-0.66252 0.22332-0.73099  0 222.70 125.49  304.73 222.54 125.59  304.69
   0   3   7 44911.7   541.2   2-0.13404 0.13404-0.66646 0.96484 0.73339-0.22611  0 188.47 157.79   62.07 188.42 157.90   62.25
   0   3   7 38868.6   519.5   2-0.08529 0.08529 0.96969-0.67115-0.22898 0.73640  0 369.43 416.11  278.01 369.30 415.91  278.10
   0  -3  -8 711.100 105.033   1-0.16409 0.16409 0.67938-0.97723-0.71520 0.13450  0 182.28 382.26    2.97 182.22 381.99    2.89
   0  -3  -8 778.465 136.773   1-0.44740 0.44740-0.88971 0.59157 0.09080-0.67073  0 446.56 410.83  129.39 446.67 410.35  129.43
   0  -3  -8 974.901 177.494   2-0.00751 0.00751-0.98965 0.69105 0.14329-0.72277  0 452.96 405.14  102.28 452.78 404.88  102.32
   0  -3  -8 800.841 130.732   2 0.02132-0.02132 0.69104-0.98955-0.72250 0.14260  0 223.26  99.08  244.54 223.36  99.25  244.59
   0  -3   8 715.282 119.378   1-0.54019 0.54019-0.83905 0.54091-0.06476 0.64468  0 142.79 205.20  118.61 142.60 205.19  118.64
   0  -3   8 682.307 126.781   2 0.04221-0.04221-0.98884 0.69023-0.14287 0.72235  0 180.60 135.77  119.00 180.46 135.75  119.02
   0  -3   8 734.478 164.019   2-0.22653 0.22653 0.66691-0.96533 0.70987-0.12967  0 393.27 437.83  338.34 393.52 437.65  338.01
   0   3  -8 964.417 182.512   2 0.12017-0.12017-0.68457 0.98296-0.71898 0.13909  0 440.91 413.83  157.30 440.83 413.80  157.30
   0   3  -8 745.032 130.577   2-0.14972 0.14972 0.97922-0.68080 0.13682-0.71701  0 213.00 106.21  299.64 212.89 106.22  299.52
   0   3   8 875.212 133.571   2-0.13019 0.13019-0.68338 0.98175 0.71836-0.13861  0 172.81 145.03   63.57 172.81 145.09   63.57
   0   3   8 642.875 170.562   2-0.10183 0.10183 0.98487-0.68633-0.14022 0.72012  0 379.40 441.75  282.98 379.43 441.59  283.35
   0  -3  -9 876.871 123.082   1-0.15301 0.15301 0.68883-0.98668-0.70859 0.05531  0 166.89 399.53    1.73 166.78 399.41    1.98
   0  -3  -9 744.135 172.326   1-0.50350 0.50350-0.86400 0.56585 0.00050-0.65291  0 471.22 437.59  122.93 471.14 437.30  123.16
   0  -3  -9 769.397 202.595   2 0.00733-0.00733-0.99800 0.69939 0.06278-0.71470  0 479.60 430.23  107.43 479.54 430.25  107.05
   0  -3  -9  1044.1   154.7   2 0.01933-0.01933 0.69937-0.99788-0.71449 0.06210  0 212.79  77.09  245.45 212.79  76.82  245.27
   0  -3   9 884.009 137.184   1-0.50401 0.50401-0.86370 0.56556-0.00036 0.65278  0 124.25 191.74  123.37 124.25 191.80  123.10
   0  -3   9 981.334 155.758   2 0.02916-0.02916-0.99761 0.69901-0.06261 0.71452  0 163.06 120.70  114.24 163.04 120.87  114.34
   0  -3   9 762.700 207.042   2-0.22591 0.22591 0.67443-0.97285 0.70293-0.05021  0 406.34 468.21  337.44 406.54 468.07  337.42
   0   3  -9 924.258 221.196   2 0.11942-0.11942-0.69270 0.99109-0.71127 0.05890  0 466.63 439.81  156.66 466.45 439.72  156.66
   0   3  -9 827.936 155.359   2-0.13679 0.13679 0.98890-0.69036 0.05802-0.71041  0 201.99  84.20  295.03 201.93  84.28  294.91
   0   3   9  1041.9   153.4   2-0.12828 0.12828-0.69163 0.99001 0.71077-0.05854  0 155.08 130.87   64.03 155.24 130.81   64.22
   0   3   9 577.978 195.581   2-0.11653 0.11653 0.99142-0.69289-0.05918 0.71157  0 391.26 471.78  288.00 391.22 471.80  288.09
   0  -3 -10  2511.8   204.2   1-0.15108 0.15108 0.69050-0.98835-0.70738-0.01849  0 149.59 419.74    1.99 149.53 419.66    1.81
   0  -3 -10  2276.0   238.6   1-0.54898 0.54898-0.83184 0.53370-0.08164-0.64326  0 500.40 471.08  117.53 500.45 470.46  117.48
   0  -3 -10  2839.1   267.9   2 0.01888-0.01888 0.70124-0.99975-0.71268-0.01220  0 200.64  50.89  245.45 200.61  50.99  245.42
   0  -3  10  2155.4   212.8   1-0.46665 0.46666-0.88234 0.58420 0.06087 0.66403  0 103.83 176.65  127.15 103.71 176.64  127.35
   0  -3  10  3094.0   265.7   2 0.01643-0.01643-0.99980 0.70119 0.01157 0.71278  0 143.30 104.11  110.35 143.22 104.08  110.02
   0  -3  10  2259.7   328.4   2-0.22581 0.22581 0.67547-0.97389 0.70196 0.02328  2 421.46 503.96  337.38 422.02 504.61  337.34
   0   3 -10  2145.1   305.8   2 0.11927-0.11927-0.69435 0.99275-0.70968-0.01517  0 497.74 471.49  156.46 497.70 471.47  156.52
   0   3 -10  2039.4   250.5   2-0.12427 0.12427 0.99213-0.69360-0.01531-0.70956  0 189.17  59.17  290.59 189.19  59.12  290.64
   0   3  10  2735.5   248.4   2-0.12789 0.12789-0.69329 0.99167 0.70922 0.01547  0 135.29 114.67   64.13 135.20 114.74   64.35
   0  -3 -11  5256.8   272.5   1-0.15632 0.15632 0.68595-0.98380-0.71066-0.08780  0 130.09 443.68    2.17 130.02 443.78    2.26
   0  -3 -11  6126.1   367.5   2 0.01967-0.01967 0.69797-0.99648-0.71586-0.08151  0 186.40  20.34  245.35 186.37  20.69  245.15
   0  -3  11  5272.8   291.4   1-0.42827 0.42827-0.89571 0.59757 0.11954 0.67786  0  80.55 159.02  131.40  80.33 159.15  131.44
   0  -3  11  5586.2   342.7   2 0.00399-0.00399-0.99672 0.69812 0.08081 0.71597  0 120.57  84.83  105.75 120.29  84.90  105.98
   0   3 -11  5076.8   341.1   2-0.11213 0.11213 0.99015-0.69161-0.08385-0.71351  0 174.15  29.57  286.61 174.28  29.73  286.65
   0   3  11  6036.7   348.6   2-0.12873 0.12873-0.68969 0.98807 0.71257 0.08459  0 112.24  96.36   64.27 111.97  96.40   64.07
   0  -3 -12-143.140 158.402   1-0.16798 0.16798 0.67592-0.97377-0.71757-0.15347  0 107.91 473.01    3.02 107.63 473.29    3.22
   0  -3  12  45.648 169.833   1-0.38891 0.38891-0.90429 0.60615 0.17610 0.69378  0  52.85 137.98  135.53  53.19 138.31  135.42
   0  -3  12  32.885 198.043   2-0.00802 0.00802-0.98924 0.69064 0.14606 0.72316  0  92.96  62.38  102.67  93.15  62.47  102.16
   0   3  12  38.562 203.236   2-0.13058 0.13058-0.68169 0.98007 0.71989 0.14973  0  84.42  75.22   63.57  84.48  75.08   63.44
   0  -4   0 20808.4   281.5   1-0.67382 0.67382-0.19867-0.19867-0.71169 0.71169  0 213.43 298.35   64.02 213.42 298.22   63.87
   0  -4   0 27702.9   343.8   2-0.20674 0.20674-0.19883-0.19883 0.95798-0.95798  0 368.23 341.07   31.99 368.21 340.99   31.87
   0  -4   0 25997.9   329.5   2 0.12887-0.12887-0.19893-0.19893-0.97150 0.97150  0 247.57 175.61  188.98 247.43 175.66  189.12
   0   4   0 21459.1   288.8   1-0.53025 0.53025 0.19857 0.19857-0.82426 0.82426  0 400.43 210.90   38.62 400.61 211.03   38.64
   0   4   0 27856.9   341.2   2-0.23442 0.23442 0.19883 0.19884 0.95158-0.95158  0 236.56 184.56    8.93 236.44 184.60    8.85
   0   4   0 27228.4   342.2   2 0.10084-0.10084 0.19901 0.19901-0.97480 0.97480  0 354.64 349.01  212.00 354.62 348.90  212.11
   0  -4  -1  4391.4   137.6   1-0.63890 0.63890-0.06531-0.33204-0.76651 0.69395  0 216.72 308.47   55.34 216.68 308.32   55.36
   0  -4  -1  5770.3   178.8   2-0.18592 0.18592-0.37141-0.02626 0.90967-0.98221  0 372.30 340.75   42.10 372.31 340.70   42.20
   0  -4  -1  5448.7   163.8   2 0.11979-0.11979-0.02471-0.37315-0.99249 0.92001  0 249.13 172.44  199.08 248.98 172.48  199.19
   0  -4   1  4274.8   143.2   1-0.69338 0.69338-0.32294-0.07440-0.64415 0.71672  0 207.94 288.48   72.06 207.93 288.36   72.06
   0  -4   1  5810.1   180.5   2-0.22215 0.22215-0.02765-0.37002 0.97462-0.90207  0 366.55 344.71   21.90 366.56 344.66   21.95
   0  -4   1  5146.5   161.2   2 0.13195-0.13195-0.37287-0.02500-0.91846 0.99094  0 243.98 176.05  178.73 243.87 176.09  178.68
   0   4  -1  4372.9   156.8   1-0.59458 0.59458 0.05863 0.33850-0.80190 0.72931  0 408.00 221.99   47.50 408.13 222.13   47.57
   0   4  -1  5242.8   173.9   2 0.11632-0.11632 0.02477 0.37324-0.99290 0.92042  0 358.88 349.17  202.00 358.87 349.05  202.02
   0   4  -1  5245.0   162.5   2-0.23785 0.23785 0.36936 0.02832 0.89833-0.97089  0 237.79 181.16  358.26 237.73 181.25  358.32
   0   4   1  4806.7   153.3   1-0.43925 0.43925 0.35596 0.04117-0.82483 0.89742  0 396.05 199.56   28.17 396.25 199.66   28.21
   0   4   1  5531.7   166.5   2-0.22600 0.22600 0.02781 0.36986 0.97373-0.90118  0 233.30 185.33   19.02 233.16 185.38   18.76
   0   4   1  5102.8   173.9   2 0.07939-0.07939 0.37390 0.02411-0.92406 0.99655  0 352.67 352.23  222.65 352.66 352.10  222.64
   0  -4  -2 23705.3   293.4   1-0.59032 0.59032 0.06889-0.46602-0.80423 0.65905  0 217.45 318.91   47.07 217.46 318.77   46.92
   0  -4  -2 28260.6   360.1   2-0.16121 0.16121-0.52888 0.13105 0.83324-0.97818  0 378.81 343.72   52.28 378.80 343.70   52.37
   0  -4  -2 28610.1   357.9   2 0.10735-0.10735 0.13346-0.53147-0.98522 0.84025  0 248.76 166.56  208.21 248.57 166.63  208.29
   0  -4   2 20700.6   303.9   1-0.69896 0.69896-0.43306 0.03572-0.56913 0.71426  0 200.48 278.70   79.76 200.45 278.64   79.70
   0  -4   2 29034.1   366.2   2-0.23145 0.23145 0.12663-0.52430 0.96457-0.81947  0 367.18 351.67   13.00 367.16 351.59   13.07
   0  -4   2 24859.4   335.3   2 0.12968-0.12968-0.53057 0.13271-0.83766 0.98263  0 238.49 173.92  168.53 238.35 173.95  168.49
   0   4  -2 21587.9   314.1   1-0.63595 0.63595-0.05597 0.45331-0.76970 0.62456  0 418.45 233.09   54.94 418.66 233.23   54.77
   0   4  -2 26044.2   348.7   2 0.12584-0.12584-0.13288 0.53074-0.98311 0.83814  0 365.46 352.61  192.97 365.31 352.43  192.97
   0   4  -2 23398.2   325.6   2-0.23525 0.23525 0.52383-0.12594 0.81869-0.96374  0 237.09 175.11  348.34 236.95 175.19  348.36
   0   4   2 24409.4   298.7   1-0.32172 0.32172 0.51544-0.11831-0.79424 0.93941  0 394.99 187.58   17.03 395.27 187.71   16.71
   0   4   2 29181.8   361.1   2-0.21363 0.21363-0.12806 0.52573 0.96849-0.82339  0 227.95 183.60   27.90 227.86 183.64   27.75
   0   4   2 27477.1   354.9   2 0.05398-0.05398 0.53298-0.13497-0.84440 0.98938  0 352.86 358.79  233.00 352.86 358.63  232.96
   0  -4  -3 18201.4   262.3   1-0.53287 0.53287 0.19344-0.59058-0.82379 0.60603  0 215.65 329.83   39.10 215.68 329.66   38.97
   0  -4  -3 21166.5   329.3   2-0.13515 0.13515-0.66146 0.26362 0.73770-0.95511  0 387.41 349.77   62.02 387.72 349.75   61.87
   0  -4  -3 21048.9   322.2   2 0.09329-0.09329 0.26583-0.66384-0.95950 0.74203  0 246.60 158.13  215.97 246.41 158.24  216.07
   0  -4   3 15156.1   275.0   1-0.69309 0.69309-0.52749 0.13015-0.49129 0.70900  0 191.30 268.97   86.99 191.25 268.90   86.72
   0  -4   3 19136.8   317.3   2-0.23609 0.23609 0.25482-0.65249 0.93772-0.72008  0 369.92 361.74    5.56 369.81 361.64    5.54
   0  -4   3 20583.4   320.1   2 0.12217-0.12217-0.66236 0.26450-0.73916 0.95662  0 231.13 169.46  159.10 231.02 169.51  159.03
   0   4  -3 15879.5   290.7   1-0.66131 0.66131-0.14493 0.54227-0.73598 0.51827  0 431.78 244.46   60.30 431.96 244.58   60.41
   0   4  -3 20023.5   325.1   2 0.13053-0.13053-0.26397 0.66183-0.95566 0.73820  0 374.24 359.10  185.06 374.12 359.00  185.28
   0   4  -3 18042.0   299.4   2-0.22768 0.22768 0.65327-0.25538 0.72208-0.93965  0 234.63 166.68  338.98 234.44 166.73  339.05
   0   4   3 20077.5   280.9   1-0.18753 0.18753 0.65811-0.26098-0.72919 0.94695  0 397.38 174.74    5.09 397.65 174.80    4.87
   0   4   3 21416.5   323.7   2-0.20014 0.20014-0.25879 0.65646 0.94497-0.72733  0 220.76 179.56   35.28 220.68 179.60   35.40
   0   4   3 19738.4   320.1   2 0.02718-0.02718 0.66581-0.26780-0.74563 0.96309  0 355.02 368.51  242.58 354.97 368.33  242.59
   0  -4  -4  1131.0    98.5   1-0.47387 0.47387 0.30047-0.69761-0.82775 0.53740  0 211.37 341.32   31.96 211.36 341.17   31.96
   0  -4  -4  1345.8   121.0   1 0.05060-0.05060-0.76912 0.37145 0.63710-0.92707  0 404.26 354.73  173.38 404.28 354.60  173.41
   0  -4  -4  1325.7   153.5   2-0.10942 0.10942-0.76605 0.36821 0.63341-0.92328  0 398.75 358.77   70.45 399.05 358.70   70.48
   0  -4  -4  1331.8   123.6   2 0.08004-0.08004 0.36974-0.76775-0.92568 0.63573  0 242.77 147.33  222.35 242.70 147.53  222.38
   0  -4   4  1067.1   109.5   1-0.67834 0.67834-0.60707 0.20973-0.41391 0.70418  0 180.54 259.04   93.25 180.54 259.06   93.15
   0  -4   4  1070.7   120.8   2 0.11123-0.11123-0.76599 0.36813-0.63315 0.92310  0 222.09 163.04  150.49 222.04 163.06  150.51
   0   4  -4  1016.1   123.5   1-0.67636 0.67636-0.21087 0.60821-0.70574 0.41547  0 447.91 256.40   64.68 448.10 256.49   64.66
   0   4  -4  1289.1   154.8   2 0.13194-0.13194-0.36659 0.76445-0.92098 0.63104  0 384.99 368.51  179.02 385.13 368.45  179.07
   0   4  -4  1088.4   115.3   2-0.21727 0.21727 0.75541-0.35751 0.61819-0.90828  0 230.57 156.06  330.90 230.37 156.08  330.66
   0   4   4  1414.8   125.1   2-0.18726 0.18726-0.36174 0.75941 0.91328-0.62309  0 211.86 173.48   41.59 211.78 173.59   41.61
   0   4   4  1194.6   128.6   2 0.00083-0.00083 0.76968-0.37163-0.63843 0.92838  0 358.81 381.38  251.15 358.80 381.07  251.29
   0  -4  -5 11063.2   225.8   1-0.41889 0.41889 0.38651-0.78364-0.82167 0.45873  0 204.76 353.66   25.96 204.77 353.47   26.10
   0  -4  -5 12622.3   251.9   1-0.07931 0.07931-0.84543 0.44777 0.52816-0.89063  0 413.41 370.58  162.83 413.52 370.36  162.75
   0  -4  -5 12477.0   301.8   2-0.08546 0.08546-0.84489 0.44706 0.52807-0.89041  0 412.59 370.54   77.99 412.89 370.54   78.13
   0  -4  -5 13060.5   289.2   2 0.06820-0.06820 0.44781-0.84582-0.89152 0.52908  0 237.74 134.51  227.21 237.57 134.62  227.31
   0  -4   5  9689.3   247.3   1-0.65762 0.65762-0.67317 0.27583-0.33820 0.70104  0 168.42 248.97   99.03 168.39 248.95   99.03
   0  -4   5 11861.1   278.9   2 0.09837-0.09837-0.84376 0.44562-0.52763 0.88980  0 211.57 154.77  142.94 211.48 154.83  142.92
   0  -4   5  9930.1   280.4   2-0.23744 0.23744 0.43021-0.82788 0.87094-0.50816  0 380.48 390.83  354.53 380.45 390.66  354.49
   0   4  -5  9216.3   269.4   1-0.68488 0.68488-0.25795 0.65530-0.68146 0.31862  0 467.08 269.21   68.08 467.30 269.30   67.73
   0   4  -5 11278.0   292.6   2 0.13165-0.13165-0.44356 0.84142-0.88652 0.52409  0 398.22 380.83  174.02 398.44 380.73  174.22
   0   4  -5 10557.2   264.8   2-0.20488 0.20488 0.83282-0.43493 0.51423-0.87685  0 225.07 143.24  323.00 224.89 143.36  323.18
   0   4   5 12187.1   281.3   2-0.17591 0.17591-0.43930 0.83697 0.88095-0.51821  0 201.35 165.79   46.44 201.26 165.82   46.46
   0   4   5  9826.0   274.9   2-0.02361 0.02361 0.84724-0.44919-0.53068 0.89312  0 364.24 396.97  259.02 364.22 396.82  259.03
   0  -4  -6  8044.8   204.6   1-0.37199 0.37199 0.45185-0.84898-0.81084 0.37532  0 196.09 367.08   21.49 196.09 366.86   21.45
   0  -4  -6  9199.3   245.1   1-0.19416 0.19416-0.88939 0.49173 0.41387-0.84883  0 425.89 388.57  152.76 425.99 388.32  153.12
   0  -4  -6  8939.0   295.1   2-0.06349 0.06349-0.90238 0.50455 0.42623-0.86105  0 429.20 385.27   85.05 429.43 385.28   84.94
   0  -4  -6  9130.6   267.7   2 0.05897-0.05897 0.50459-0.90260-0.86134 0.42641  0 231.32 119.47  231.24 231.17 119.58  231.03
   0  -4   6  7126.3   237.3   1-0.63249 0.63249-0.72753 0.33001-0.26580 0.70075  0 154.86 238.43  104.38 154.93 238.44  104.41
   0  -4   6  8214.4   258.1   2 0.08458-0.08458-0.90092 0.50278-0.42566 0.86027  0 199.45 144.91  135.99 199.42 144.99  136.18
   0  -4   6  7952.2   285.7   2-0.23628 0.23628 0.48476-0.88243 0.84213-0.40679  0 388.03 409.94  350.97 388.23 409.75  350.95
   0   4  -6  6847.9   261.8   1-0.68957 0.68957-0.28998 0.68732-0.66363 0.22822  0 489.80 283.33   69.88 489.95 283.44   69.85
   0   4  -6  8268.9   293.7   2 0.13052-0.13052-0.49953 0.89739-0.85641 0.42149  0 414.09 396.07  170.57 414.26 395.97  170.58
   0   4  -6  6954.8   241.8   2-0.19151 0.19151 0.88983-0.49193 0.41417-0.84931  0 218.19 128.45  316.55 218.07 128.61  316.52
   0   4   6  9545.4   272.7   2-0.16709 0.16709-0.49525 0.89308 0.85253-0.41772  0 189.21 156.49   49.96 189.16 156.56   50.12
   0   4   6  8460.8   289.7   2-0.04591 0.04591 0.90312-0.50507-0.42693 0.86185  0 371.18 415.84  266.00 371.09 415.69  265.90
   0  -4  -7  1060.1   116.4   1-0.33528 0.33528 0.49890-0.89603-0.79918 0.29107  0 185.47 381.89   18.05 185.50 381.70   17.97
   0  -4  -7  1091.6   139.0   1-0.29270 0.29270-0.90744 0.50992 0.30146-0.80889  0 441.66 409.38  144.48 441.75 409.21  144.50
   0  -4  -7  1162.4   174.9   2-0.04370 0.04370-0.94300 0.54517 0.32990-0.83719  0 448.94 403.25   91.02 449.13 403.28   91.04
   0  -4  -7  1242.6   148.8   2 0.05193-0.05193 0.54467-0.94268-0.83704 0.32963  0 223.69 102.21  233.67 223.49 102.24  233.76
   0  -4   7 817.856 124.820   1-0.60385 0.60385-0.77266 0.37514-0.19587 0.70331  0 139.91 227.27  109.42 139.80 227.25  109.45
   0  -4   7  1089.2   140.8   2 0.07083-0.07083-0.94151 0.54337-0.32946 0.83650  0 185.62 133.41  129.98 185.68 133.57  130.18
   0  -4   7 946.376 174.688   2-0.23529 0.23529 0.52268-0.92057 0.81942-0.31175  0 397.75 432.48  348.48 397.83 432.43  348.44
   0   4  -7  1048.7   178.2   2 0.12937-0.12937-0.53899 0.93685-0.83232 0.32492  0 432.85 414.62  168.02 432.97 414.52  167.92
   0   4  -7 989.034 134.802   2-0.17814 0.17814 0.93064-0.53275 0.31964-0.82731  0 209.96 111.52  310.58 209.91 111.68  310.55
   0   4   7 987.474 137.336   2-0.16007 0.16007-0.53524 0.93307 0.82940-0.32211  0 175.34 145.61   53.02 175.35 145.75   52.81
   0   4   7  1031.5   169.0   2-0.06589 0.06589 0.94199-0.54394-0.32912 0.83653  0 379.64 438.26  272.41 379.43 438.06  272.04
   0  -4  -8  6117.8   214.3   1-0.30874 0.30874 0.53088-0.92801-0.78921 0.20851  0 173.11 398.57   15.56 173.10 398.37   15.52
   0  -4  -8  6760.2   283.1   1-0.37531 0.37531-0.90617 0.50865 0.19494-0.77487  0 461.05 434.14  136.86 461.13 433.92  136.76
   0  -4  -8  7102.8   351.2   2-0.02589 0.02589-0.97052 0.57269 0.23961-0.81936  0 472.57 425.20   96.56 472.81 425.22   96.56
   0  -4  -8  6870.0   285.5   2 0.04681-0.04681 0.57185-0.96986-0.81902 0.23912  0 214.60  82.18  235.66 214.47  82.33  235.65
   0  -4   8  5900.3   251.7   1-0.57273 0.57273-0.80957 0.41205-0.12873 0.70866  0 123.16 215.04  114.27 122.92 215.11  114.19
   0  -4   8  6874.8   282.2   2 0.05738-0.05738-0.96922 0.57108-0.23941 0.81889  0 170.18 120.41  124.64 170.14 120.49  124.73
   0  -4   8  6047.6   343.5   2-0.23425 0.23425 0.54848-0.94638 0.80268-0.22249  0 408.95 459.22  346.67 409.24 459.24  346.67
   0   4  -8  6683.0   359.4   2 0.12819-0.12819-0.56572 0.96358-0.81457 0.23469  0 455.18 437.20  166.00 455.31 437.07  166.07
   0   4  -8  5814.3   269.9   2-0.16469 0.16469 0.95890-0.56100 0.23107-0.81127  0 200.47  92.20  305.29 200.31  92.31  305.15
   0   4   8  6835.8   280.9   2-0.15524 0.15524-0.56230 0.96013 0.81223-0.23248  0 159.73 133.31   54.67 159.65 133.38   54.66
   0   4   8  6104.6   339.6   2-0.08362 0.08362 0.96773-0.56969-0.23770 0.81760  0 389.28 464.89  277.57 389.44 464.64  277.57
   0  -4  -9 10492.1   286.4   1-0.29157 0.29157 0.55070-0.94783-0.78212 0.12884  0 158.82 417.77   14.00 158.83 417.53   13.96
   0  -4  -9 11016.0   365.8   1-0.44433 0.44433-0.89077 0.49325 0.09544-0.74785  0 484.62 464.22  129.77 484.70 463.99  129.76
   0  -4  -9 10814.0   448.3   2-0.00981 0.00981-0.98775 0.58961 0.15571-0.80763  0 501.36 452.05  101.59 501.35 451.83  101.59
   0  -4  -9 11065.1   376.1   2 0.04348-0.04348 0.58902-0.98703-0.80695 0.15456  0 204.06  59.20  236.94 203.95  59.34  236.87
   0  -4   9 10035.6   327.5   1-0.53983 0.53983-0.83933 0.44181-0.06409 0.71651  0 104.20 201.66  118.74 103.98 201.69  118.68
   0  -4   9 10924.2   365.0   2 0.04421-0.04421-0.98690 0.58875-0.15519 0.80710  0 152.51 105.46  119.68 152.43 105.52  119.75
   0  -4   9 10175.0   447.5   2-0.23351 0.23351 0.56447-0.96237 0.79174-0.13902  0 422.73 491.55  345.55 422.98 491.39  345.56
   0   4  -9 10294.5   462.3   2 0.12728-0.12728-0.58254 0.98040-0.80278 0.15041  0 482.31 464.85  165.02 482.37 464.70  164.89
   0   4  -9 10056.7   357.7   2-0.15155 0.15155 0.97729-0.57940 0.14812-0.80083  0 189.17  69.86  299.90 189.08  70.03  300.19
   0   4   9 11822.8   376.5   2-0.15203 0.15203-0.57931 0.97714 0.80080-0.14858  0 141.73 119.21   56.01 141.69 119.27   55.85
   0   4   9 10035.5   441.8   2-0.09961 0.09961 0.98330-0.58525-0.15232 0.80471  0 401.24 496.66  282.64 401.36 496.47  282.64
   0  -4 -10  8224.6   289.1   1-0.28294 0.28294 0.56057-0.95771-0.77827 0.05240  0 142.46 440.17   13.10 142.48 440.06   13.18
   0  -4 -10  8317.0   377.1   2 0.04164-0.04164 0.59828-0.99629-0.80021 0.07533  0 191.70  32.27  237.55 191.55  32.43  237.53
   0  -4  10  7782.3   337.7   1-0.50490 0.50490-0.86317 0.46565-0.00190 0.72680  0  82.71 186.58  123.01  82.47 186.57  123.00
   0  -4  10  8099.7   368.0   2 0.03145-0.03145-0.99660 0.59846-0.07619 0.80054  0 131.95  88.14  115.01 131.96  88.26  115.13
   0   4 -10  7625.4   365.2   2-0.13892 0.13892 0.98778-0.58973 0.07069-0.79556  0 176.01  44.12  295.64 175.95  44.06  295.65
   0   4  10  8900.8   361.6   2-0.15029 0.15029-0.58834 0.98617 0.79453-0.06983  0 121.24 103.01   56.50 120.93 103.09   56.49
   0  -4 -11  1181.9   183.1   1-0.28147 0.28147 0.56221-0.95934-0.77762-0.02084  0 123.89 467.25   13.30 123.63 467.19   13.05
   0  -4  11  1152.7   197.1   1-0.46830 0.46830-0.88165 0.48413 0.05826 0.73913  0  57.46 169.16  127.28  57.65 169.02  127.17
   0  -4  11  1618.4   239.1   2 0.01862-0.01862-0.99983 0.60168-0.00173 0.79852  0 108.12  68.15  110.58 107.98  68.18  110.79
   0   4 -11 729.160 228.947   2-0.12643 0.12643 0.99197-0.59393-0.00284-0.79452  0 160.36  13.57  291.36 160.14  13.26  291.36
   0   4  11  1568.3   240.2   2-0.14974 0.14974-0.59088 0.98872 0.79274 0.00442  0  97.07  84.50   56.56  96.55  84.31   56.67
   0  -5   0  41.966  56.328   1-0.68330 0.68330-0.24834-0.24834-0.68660 0.68660  0 189.84 309.49   67.43 190.16 309.79   67.10
   0  -5   0  56.065  87.520   2-0.20132 0.20132-0.24854-0.24854 0.94747-0.94747  0 389.82 367.52   34.58 389.91 367.76   34.79
   0  -5   0 -17.750  57.599   2 0.13019-0.13019-0.24866-0.24866-0.95980 0.95980  0 232.25 152.36  186.16 232.53 152.62  186.18
   0   5   0  32.045  81.583   1-0.50397 0.50397 0.24821 0.24821-0.82729 0.82729  0 433.39 194.85   35.50 433.47 194.83   35.42
   0   5   0  65.117  61.853   2-0.23593 0.23593 0.24854 0.24854 0.93945-0.93945  0 218.78 164.34    5.61 218.49 164.50    5.91
   0   5   0 -34.448  84.636   2 0.09528-0.09528 0.24876 0.24876-0.96387 0.96387  0 371.30 377.86  215.05 371.52 377.87  215.05
   0  -5  -1 943.905 102.129   1-0.66165 0.66165-0.14619-0.35049-0.73543 0.66286  0 193.71 320.33   60.53 193.70 320.27   60.50
   0  -5  -1 987.669 124.372   2-0.18389 0.18389-0.38578-0.11130 0.90408-0.97662  0 394.00 367.29   42.95 394.16 367.26   43.09
   0  -5  -1  1049.2   119.7   2 0.12476-0.12476-0.11023-0.38710-0.98604 0.91356  0 234.44 149.40  194.37 234.26 149.48  194.28
   0  -5   1 721.623  94.848   1-0.69567 0.69567-0.34565-0.15103-0.62974 0.70230  0 184.62 299.73   73.62 184.72 299.62   73.60
   0  -5   1  1173.6   128.3   2-0.21506 0.21506-0.11225-0.38484 0.97013-0.89758  0 387.70 371.42   26.91 387.92 371.34   26.83
   0  -5   1 983.199 114.969   2 0.13207-0.13207-0.38696-0.11037-0.91259 0.98508  0 229.01 153.19  177.90 229.04 153.34  177.80
   0   5  -1 867.938 114.501   1-0.56187 0.56187 0.13416 0.36226-0.81628 0.74369  0 441.56 206.53   42.91 441.59 206.66   42.78
   0   5  -1  1063.2   126.0   2 0.10950-0.10950 0.11010 0.38741-0.98787 0.91538  0 375.90 377.98  206.61 375.90 377.89  206.94
   0   5  -1 960.114 117.122   2-0.23783 0.23783 0.38406 0.11303 0.89215-0.96471  0 219.99 161.09  357.43 219.93 161.21  357.40
   0   5   1  1017.5   118.0   1-0.42742 0.42742 0.37387 0.12254-0.82312 0.89571  0 428.19 182.62   27.06 428.26 182.64   26.97
   0   5   1  1159.3   125.3   2-0.23072 0.23072 0.11279 0.38430 0.96646-0.89391  0 215.42 165.69   13.67 215.29 165.59   13.86
   0   5   1 838.745 118.535   2 0.07741-0.07741 0.38786 0.10966-0.91846 0.99095  0 369.17 381.09  223.47 369.18 380.95  223.51
   0  -5  -2 18533.8   298.9   1-0.63187 0.63187-0.04341-0.45327-0.77385 0.62872  0 195.10 331.37   54.06 195.17 331.19   53.98
   0  -5  -2 22239.5   359.3   2 0.11671-0.11671 0.01947-0.51699-0.99297 0.84800  0 234.42 143.90  201.78 234.24 143.97  201.71
   0  -5   2 17754.3   320.2   1-0.69895 0.69895-0.43535-0.06133-0.56740 0.71254  0 177.45 289.72   79.99 177.47 289.64   79.87
   0  -5   2 19687.3   354.3   2-0.22514 0.22514 0.01465-0.51174 0.97422-0.82912  0 387.77 378.12   19.53 388.07 378.04   19.52
   0  -5   2 20330.4   345.3   2 0.13017-0.13017-0.51650 0.01918-0.84634 0.99131  0 223.87 151.73  169.46 223.79 151.78  169.44
   0   5  -2 17561.3   326.3   1-0.60337 0.60337 0.03646 0.45995-0.79663 0.65145  0 452.68 218.18   49.01 452.74 218.37   48.96
   0   5  -2 19612.7   353.0   2 0.11945-0.11945-0.01938 0.51689-0.99265 0.84768  0 382.40 381.06  199.43 382.43 380.99  199.48
   0   5  -2 20554.2   347.1   2-0.23568 0.23568 0.51092-0.01356 0.82669-0.97174  0 219.65 155.40  349.17 219.51 155.52  349.24
   0   5   2 19497.8   312.7   1-0.33210 0.33210 0.50282-0.00641-0.79805 0.94322  0 425.99 169.53   17.69 426.19 169.71   17.67
   0   5   2 22631.0   363.1   2-0.22310 0.22310-0.01478 0.51187 0.97468-0.82959  0 210.35 164.40   20.93 210.28 164.47   21.21
   0   5   2 21053.0   362.8   2 0.05655-0.05655 0.51850-0.02099-0.85320 0.99818  0 368.85 387.34  232.00 368.85 387.19  231.97
   0  -5  -3  6388.4   189.7   1-0.59585 0.59585 0.05548-0.55190-0.80117 0.58341  0 194.43 342.89   47.89 194.49 342.73   47.76
   0  -5  -3  7130.6   250.4   2-0.14185 0.14185-0.62998 0.13269 0.76355-0.98096  0 409.39 375.48   59.48 409.67 375.45   59.50
   0  -5  -3  7625.6   233.6   2 0.10727-0.10727 0.13431-0.63182-0.98512 0.76765  0 232.80 136.01  208.28 232.65 136.09  208.34
   0  -5   3  5522.9   197.9   1-0.69445 0.69445-0.51590 0.01922-0.50158 0.71928  0 168.53 279.78   85.97 168.54 279.68   85.83
   0  -5   3  7442.5   259.4   2-0.23142 0.23142 0.12617-0.62325 0.96464-0.74699  0 390.00 387.84   13.03 390.21 387.79   13.09
   0  -5   3  6516.9   220.2   2 0.12446-0.12446-0.63102 0.13369-0.76572 0.98318  0 216.94 148.03  161.35 216.84 148.08  161.39
   0   5  -3  6319.2   232.8   1-0.63180 0.63180-0.04318 0.53986-0.77393 0.55623  0 466.93 230.07   53.96 466.95 230.26   53.97
   0   5  -3  6931.4   252.0   2 0.12588-0.12588-0.13362 0.63094-0.98301 0.76555  0 390.90 387.24  193.09 391.03 387.10  192.93
   0   5  -3  6404.5   216.8   2-0.22996 0.22996 0.62324-0.12588 0.74745-0.96502  0 217.64 147.50  341.28 217.49 147.60  341.34
   0   5   3  6744.0   218.9   1-0.22267 0.22267 0.62440-0.12798-0.74869 0.96646  0 427.00 155.55    8.11 427.14 155.67    7.88
   0   5   3  7699.8   234.5   2-0.21364 0.21364-0.12786 0.62495 0.96851-0.75086  0 203.58 161.21   27.92 203.50 161.25   27.74
   0   5   3  7053.1   249.7   2 0.03428-0.03428 0.63398-0.13647-0.77259 0.99005  0 370.40 396.69  239.99 370.31 396.51  240.16
   0  -5  -4 24173.1   344.5   1-0.55667 0.55667 0.14528-0.64170-0.81793 0.52758  0 191.55 355.20   42.00 191.61 355.01   42.07
   0  -5  -4 28578.6   448.7   2-0.11968 0.11968-0.72716 0.22986 0.67596-0.96584  0 420.88 384.09   67.02 421.16 384.04   67.11
   0  -5  -4 28436.0   431.6   2 0.09735-0.09735 0.23095-0.72846-0.96808 0.67813  0 229.68 125.77  213.94 229.50 125.87  214.00
   0  -5   4 20815.1   371.5   1-0.68297 0.68297-0.58713 0.09045-0.43455 0.72483  0 158.08 269.73   91.44 158.07 269.67   91.48
   0  -5   4 26415.4   434.4   2-0.23511 0.23511 0.21951-0.71660 0.94686-0.65666  0 394.07 400.79    7.67 394.28 400.67    7.63
   0  -5   4 25122.6   409.3   2 0.11587-0.11587-0.72746 0.23014-0.67629 0.96624  0 208.32 142.32  153.91 208.24 142.39  153.83
   0   5  -4 20807.8   390.4   1-0.65092 0.65092-0.10615 0.60283-0.75169 0.46142  0 484.15 242.51   57.98 484.28 242.66   57.94
   0   5  -4 26537.2   436.6   2 0.12963-0.12963-0.22924 0.72657-0.96470 0.67476  0 401.92 396.48  187.24 402.08 396.36  187.33
   0   5  -4 24540.8   404.6   2-0.22158 0.22158 0.71809-0.22072 0.65974-0.94983  0 214.06 137.35  333.99 213.89 137.48  333.88
   0   5   4 29246.4   437.2   2-0.20412 0.20412-0.22319 0.72028 0.95316-0.66297  0 195.05 156.03   33.11 194.97 156.10   33.31
   0   5   4 26438.3   432.7   2 0.01147-0.01147 0.73093-0.23341-0.68236 0.97231  0 373.61 409.23  248.02 373.53 409.03  247.88
   0  -5  -5 10614.0   247.6   1-0.51749 0.51749 0.22309-0.71950-0.82609 0.46316  0 186.53 368.49   37.01 186.61 368.30   37.06
   0  -5  -5 11723.2   284.2   1-0.01123 0.01123-0.80912 0.31204 0.58754-0.95000  0 439.99 392.77  168.24 440.07 392.47  168.33
   0  -5  -5 12323.6   343.7   2-0.09782 0.09782-0.80601 0.30871 0.58377-0.94611  0 435.17 395.80   74.24 435.42 395.76   74.20
   0  -5  -5 11050.5   297.2   2 0.08811-0.08811 0.30908-0.80659-0.94695 0.58451  0 225.08 113.21  218.69 224.94 113.35  218.67
   0  -5   5  8909.9   269.5   1-0.66620 0.66620-0.64912 0.15244-0.36719 0.73003  0 145.99 259.43   96.97 146.02 259.41   96.81
   0  -5   5 11228.8   334.4   2-0.23685 0.23685 0.29468-0.79176 0.92578-0.56304  0 399.97 416.90    3.06 400.19 416.77    3.16
   0  -5   5 11262.6   302.4   2 0.10532-0.10532-0.80525 0.30758-0.58350 0.94568  0 198.07 134.75  146.93 197.96 134.79  146.83
   0   5  -5  9113.5   288.9   1-0.66357 0.66357-0.15395 0.65063-0.73210 0.36926  2 504.92 255.76   60.99 505.15 255.90   60.99
   0   5  -5 11085.2   334.7   2 0.13133-0.13133-0.30636 0.80368-0.94281 0.58039  0 415.44 408.82  182.73 415.58 408.68  182.75
   0   5  -5 10524.0   295.0   2-0.21151 0.21151 0.79519-0.29782 0.56828-0.93089  0 208.93 125.03  326.75 208.80 125.21  326.98
   0   5   5 12302.8   311.8   2-0.19520 0.19520-0.30040 0.79749 0.93362-0.57088  0 184.82 149.09   37.92 184.75 149.15   37.88
   0   5   5 10996.1   336.0   2-0.01080 0.01080 0.80895-0.31139-0.58778 0.95022  0 378.47 425.01  254.98 378.39 424.80  255.02
   0  -5  -6  76.828  80.170   1-0.48170 0.48170 0.28714-0.78356-0.82796 0.39243  0 179.44 383.36   32.25 179.51 382.90   32.85
   0  -5  -6  23.203 130.273   1-0.12316 0.12316-0.86479 0.36771 0.48679-0.92175  0 451.09 412.55  159.54 450.95 412.56  159.12
   0  -5  -6  93.501 152.000   2-0.07719 0.07719-0.86786 0.37056 0.49078-0.92559  0 452.62 410.67   80.51 452.79 410.83   80.68
   0  -5  -6  54.356 105.128   2 0.07997-0.07997 0.37021-0.86772-0.92550 0.49057  0 219.11  98.44  222.39 218.95  98.43  222.41
   0  -5   6  66.688  88.293   1-0.64516 0.64516-0.70226 0.20536-0.30099 0.73593  0 132.32 248.68  101.51 132.45 248.77  101.83
   0  -5   6 175.242 106.078   2 0.09351-0.09351-0.86662 0.36895-0.49013 0.92474  0 185.97 125.62  140.51 186.04 125.43  140.39
   0   5  -6  92.416 149.670   2 0.13194-0.13194-0.36658 0.86390-0.92099 0.48607  0 431.97 424.40  179.50 431.91 424.45  179.07
   0   5  -6 256.549 107.139   2-0.19996 0.19996 0.85605-0.35868 0.47665-0.91179  0 202.40 110.71  320.57 202.24 110.70  320.62
   0   5   6  53.371  98.878   2-0.18737 0.18737-0.36089 0.85797 0.91359-0.47830  0 172.78 140.26   41.44 172.72 140.49   41.55
   0   5   6  51.607 155.179   2-0.03188 0.03188 0.86959-0.37203-0.49275 0.92767  0 384.90 444.08  261.56 384.91 444.15  261.60
   0  -5  -7  8243.3   244.1   1-0.45122 0.45122 0.33739-0.83381-0.82618 0.31806  0 170.33 399.42   29.50 170.42 399.23   29.48
   0  -5  -7  9380.6   306.0   1-0.22387 0.22387-0.89690 0.39982 0.38139-0.88883  0 465.53 436.26  150.58 465.52 435.99  150.56
   0  -5  -7  9273.2   383.7   2-0.05788 0.05788-0.91491 0.41761 0.39950-0.90678  0 473.73 429.69   86.65 473.91 429.70   86.66
   0  -5  -7  9333.3   317.0   2 0.07300-0.07300 0.41665-0.91416-0.90613 0.39872  0 211.68  80.75  225.29 211.52  80.88  225.32
   0  -5   7  7427.1   277.6   1-0.62053 0.62053-0.74800 0.25109-0.23546 0.74289  0 117.14 237.42  106.65 117.01 237.44  106.61
   0  -5   7  8480.9   307.7   2 0.08083-0.08083-0.91346 0.41578-0.39882 0.90586  0 172.33 114.17  134.45 172.25 114.22  134.47
   0  -5   7  6679.1   357.0   2-0.23778 0.23778 0.39750-0.89459 0.88626-0.37837  0 417.65 460.13  356.62 417.78 460.14  356.56
   0   5  -7  9115.1   387.5   2 0.13206-0.13206-0.41222 0.90955-0.90146 0.39406  0 451.46 444.13  176.32 451.60 444.10  176.22
   0   5  -7  7948.4   304.0   2-0.18773 0.18773 0.90277-0.40541 0.38699-0.89465  0 194.32  93.61  314.73 194.15  93.75  314.78
   0   5   7  9857.2   325.2   2-0.18085 0.18085-0.40683 0.90392 0.89542-0.38758  0 158.86 130.08   44.38 158.78 130.10   44.40
   0   5   7  8485.7   372.9   2-0.05159 0.05159 0.91517-0.41762-0.39975 0.90716  0 392.94 467.74  267.63 393.14 467.56  267.63
   0  -5  -8  3972.9   212.8   1-0.42674 0.42674 0.37489-0.87131-0.82301 0.24231  0 159.21 418.08   27.02 159.31 417.81   26.90
   0  -5  -8  4073.8   300.3   1-0.31361 0.31361-0.90864 0.41174 0.27572-0.85564  0 483.89 464.30  142.66 483.96 464.19  142.59
   0  -5  -8  4048.2   382.9   2-0.03989 0.03989-0.94948 0.45219 0.31128-0.89103  0 499.62 453.21   92.26 499.75 453.24   92.19
   0  -5  -8  4188.9   279.5   2 0.06774-0.06774 0.45075-0.94826-0.89008 0.31017  0 202.58  60.29  227.52 202.52  60.35  227.50
   0  -5   8  3494.9   234.6   1-0.59292 0.59292-0.78682 0.28992-0.17133 0.75126  0  99.70 225.13  111.09  99.51 225.19  111.19
   0  -5   8  4367.0   279.3   2 0.06815-0.06815-0.94804 0.45037-0.31076 0.89024  0 156.44 101.04  128.97 156.32 101.04  129.04
   0  -5   8  3615.4   379.9   2-0.23745 0.23745 0.42979-0.92688 0.87115-0.29070  0 429.86 489.02  354.55 429.96 488.85  354.52
   0   5  -8  4178.0   399.5   2 0.13162-0.13162-0.44570 0.94303-0.88545 0.30557  0 475.46 468.60  173.97 475.53 468.53  174.08
   0   5  -8  3727.1   268.0   2-0.17526 0.17526 0.93756-0.44019 0.30044-0.88063  0 184.54  73.82  309.43 184.37  74.00  309.36
   0   5   8  4747.4   284.9   2-0.17580 0.17580-0.44052 0.93761 0.88036-0.29997  0 142.71 117.90   46.53 142.65 117.91   46.54
   0   5   8  3912.9   376.8   2-0.06965 0.06965 0.94815-0.45059-0.31011 0.89001  0 403.24 495.93  273.01 403.28 495.89  273.21
   0  -5  -9  1069.5   155.2   1-0.40906 0.40906 0.40077-0.89719-0.81979 0.16650  0 146.01 439.49   25.20 146.10 439.37   25.10
   0  -5  -9  1162.5   203.5   2 0.06396-0.06396 0.47464-0.97215-0.87786 0.22547  0 191.72  35.86  228.95 191.75  36.21  229.06
   0  -5   9 910.096 164.199   1-0.56289 0.56289-0.81936 0.32246-0.10862 0.76103  0  79.63 211.84  115.53  79.56 211.65  115.59
   0  -5   9  1445.1   206.7   2 0.05543-0.05543-0.97244 0.47477-0.22645 0.87836  0 137.80  85.33  123.62 137.91  85.62  123.95
   0   5  -9  1169.0   340.4   2 0.13122-0.13122-0.46908 0.96641-0.87335 0.22098  2 503.59 498.48  172.53 505.12 499.21  172.57
   0   5  -9 720.366 189.029   2-0.16247 0.16247 0.96244-0.46507 0.21752-0.87024  0 172.95  50.85  304.44 172.63  50.83  304.32
   0   5   9  1318.7   198.5   2-0.17210 0.17210-0.46402 0.96110 0.86895-0.21601  0 124.17 103.70   48.33 123.89 103.68   48.05
   0  -5 -10  8984.9   322.0   1-0.39799 0.39799 0.41639-0.91281-0.81745 0.09157  0 130.44 465.19   23.87 130.53 465.03   23.99
   0  -5 -10  9480.2   464.6   2 0.06141-0.06141 0.49006-0.98758-0.86952 0.14464  2 178.93   7.43  229.96 178.82   7.48  230.07
   0  -5  10  8151.0   344.9   1-0.53060 0.53060-0.84630 0.34940-0.04736 0.77226  0  56.77 196.34  119.94  56.54 196.34  119.85
   0  -5  10  9229.6   416.2   2 0.04271-0.04271-0.98837 0.49070-0.14594 0.87028  0 116.67  67.45  119.01 116.35  67.52  119.20
   0   5 -10  8405.6   406.0   2-0.14995 0.14995 0.97899-0.48162 0.13822-0.86346  0 158.68  23.41  299.63 158.50  23.44  299.60
   0   5  10 10022.3   422.1   2-0.16973 0.16973-0.47901 0.97609 0.86125-0.13576  0 102.18  87.05   48.99 101.86  87.03   49.03
   0  -5 -11  1350.3   204.3   1-0.39342 0.39342 0.42277-0.91918-0.81639 0.01792  0 112.14 496.53   23.55 112.14 496.45   23.54
   0  -5  11  1235.6   224.1   1-0.49635 0.49635-0.86803 0.37113 0.01260 0.78479  0  29.65 178.47  124.38  29.59 178.56  124.00
   0  -5  11  1494.0   270.6   2 0.03024-0.03024-0.99716 0.49948-0.06901 0.86580  0  91.35  46.27  114.97  90.62  45.92  114.71
   0   5  11  1450.7   261.0   2-0.16853 0.16853-0.48657 0.98386 0.85723-0.06007  0  75.97  67.54   49.64  75.71  67.49   49.55
   0  -6   0 43398.8   511.6   1-0.69061 0.69061-0.29801-0.29801-0.65898 0.65898  0 165.02 322.93   70.38 165.09 322.79   70.38
   0  -6   0 58918.2   634.6   2-0.19547 0.19547-0.29825-0.29825 0.93426-0.93426  0 415.08 399.37   37.82 415.38 399.29   37.75
   0  -6   0 58410.0   623.8   2 0.13119-0.13119-0.29840-0.29840-0.94538 0.94538  0 216.06 127.12  183.19 215.99 127.19  183.23
   0   6   0 49867.5   554.2   1-0.47544 0.47544 0.29785 0.29785-0.82779 0.82779  0 472.40 174.69   31.95 472.41 174.98   32.14
   0   6   0 59868.3   631.0   2-0.23691 0.23691 0.29825 0.29825 0.92462-0.92462  0 198.68 142.50    3.02 198.59 142.58    2.94
   0   6   0 57328.0   629.5   2 0.08933-0.08933 0.29851 0.29851-0.95022 0.95022  0 390.66 411.92  218.00 391.00 411.82  218.03
   0  -6  -1  1607.5   146.9   1-0.67754 0.67754-0.21686-0.37916-0.70279 0.63022  0 168.80 333.93   65.21 168.87 333.82   65.05
   0  -6  -1  2006.4   218.7   2-0.18013 0.18013-0.41133-0.18517 0.89351-0.96606  0 419.67 398.73   44.86 419.94 398.69   44.69
   0  -6  -1  1740.8   166.6   2 0.12819-0.12819-0.18444-0.41235-0.97445 0.90196  0 217.97 124.02  189.98 217.88 124.01  189.97
   0  -6   1  1482.4   143.8   1-0.69772 0.69772-0.37662-0.21939-0.60938 0.68195  0 159.40 312.25   75.74 159.54 312.18   75.73
   0  -6   1  1921.6   183.4   2-0.20811 0.20811-0.18587-0.41063 0.96028-0.88773  0 412.85 402.98   31.01 413.04 402.96   31.12
   0  -6   1  1840.6   165.5   2 0.13206-0.13206-0.41228-0.18451-0.90143 0.97392  0 212.46 128.22  176.10 212.47 128.18  176.21
   0   6  -1  1822.4   199.8   1-0.52858 0.52858 0.20180 0.39390-0.82455 0.75196  0 481.59 187.60   38.33 481.59 187.74   38.43
   0   6  -1  1904.7   217.6   2 0.10238-0.10238 0.18422 0.41280-0.97754 0.90505  0 395.51 411.80  211.15 395.68 411.81  211.25
   0   6  -1  1763.6   164.0   2-0.23766 0.23766 0.40979 0.18672 0.88068-0.95323  0 200.19 139.14  356.07 200.16 139.23  355.79
   0   6   1  1772.6   204.4   1-0.40811 0.40811 0.40214 0.19356-0.81959 0.89218  0 466.19 161.37   24.98 466.29 161.61   25.00
   0   6   1  2141.8   173.5   2-0.23398 0.23398 0.18662 0.40989 0.95416-0.88161  0 195.42 143.94    9.57 195.40 143.93    9.57
   0   6   1  1926.8   217.0   2 0.07353-0.07353 0.41312 0.18390-0.90770 0.98019  0 388.05 414.96  224.95 388.28 414.91  225.10
   0  -6  -2 467.321  93.022   1-0.65890 0.65890-0.13550-0.46052-0.73992 0.59479  0 170.76 345.47   59.64 170.81 345.43   59.81
   0  -6  -2 749.218 150.750   2-0.16282 0.16282-0.51968-0.07707 0.83870-0.98364  0 426.89 401.27   51.64 426.90 401.22   51.75
   0  -6  -2 829.310 126.478   2 0.12291-0.12291-0.07563-0.52116-0.98953 0.84456  0 218.10 118.60  196.41 218.15 118.52  196.27
   0  -6   2 695.168 115.617   1-0.69862 0.69862-0.45095-0.14507-0.55549 0.70063  0 152.13 301.82   81.04 152.26 301.82   80.99
   0  -6   2 797.805 152.012   2-0.21801 0.21801-0.07929-0.51721 0.97272-0.82762  0 412.89 409.70   24.64 412.87 409.73   24.93
   0  -6   2 590.890 115.212   2 0.13002-0.13002-0.52094-0.07585-0.84363 0.98861  0 207.25 126.97  168.97 207.28 126.97  169.14
   0   6  -2 590.376 144.489   1-0.56958 0.56958 0.11728 0.47842-0.81352 0.66835  0 493.85 200.22   43.73 493.98 200.28   43.85
   0   6  -2 536.638 145.717   2 0.11248-0.11248 0.07552 0.52150-0.99078 0.84580  0 402.54 414.83  205.07 402.52 414.91  204.93
   0   6  -2 588.563 113.527   2-0.23550 0.23550 0.51617 0.08067 0.82347-0.96852  0 199.95 133.62  348.75 199.92 133.60  348.88
   0   6   2 487.169 132.369   1-0.32660 0.32660 0.50954 0.08616-0.79605 0.94123  0 463.17 147.15   17.39 463.21 147.36   17.16
   0   6   2 656.350 115.824   2-0.22903 0.22903 0.07992 0.51659 0.97013-0.82504  0 190.56 143.18   15.67 190.45 143.21   15.76
   0   6   2 769.756 154.364   2 0.05582-0.05582 0.52269 0.07433-0.85070 0.99567  0 387.47 421.22  232.23 387.55 421.19  232.26
   0  -6  -3 646.457 105.192   1-0.63618 0.63618-0.05671-0.53930-0.76945 0.55175  0 170.71 358.11   54.81 170.82 357.75   54.82
   0  -6  -3 724.077 159.744   2-0.14407 0.14407-0.61920 0.02245 0.77191-0.98931  0 435.97 406.63   58.61 436.39 406.84   58.71
   0  -6  -3 970.495 129.495   2 0.11641-0.11641 0.02356-0.62057-0.99292 0.77546  0 216.88 110.53  201.69 216.80 110.69  201.95
   0  -6   3 547.845 110.977   1-0.69403 0.69403-0.51974-0.07628-0.49819 0.71589  0 143.13 291.74   86.22 143.31 291.54   86.13
   0  -6   3 651.500 160.535   2-0.22532 0.22532 0.01747-0.61397 0.97413-0.75648  0 414.86 419.80   19.19 414.81 419.79   19.35
   0  -6   3 832.854 127.971   2 0.12516-0.12516-0.62019 0.02340-0.77440 0.99186  0 200.32 123.68  161.97 200.43 123.69  162.18
   0   6  -3 691.915 161.515   2 0.11972-0.11972-0.02364 0.62043-0.99253 0.77507  0 411.31 421.32  199.27 411.48 421.17  199.25
   0   6  -3 729.827 120.535   2-0.23067 0.23067 0.61342-0.01658 0.75532-0.97289  0 198.12 125.67  341.88 198.14 125.82  342.04
   0   6   3 626.950 144.852   1-0.23352 0.23352 0.61344-0.01774-0.75443 0.97219  0 463.22 131.83    9.01 463.12 131.75    8.82
   0   6   3 691.930 123.071   2-0.22289 0.22289-0.01767 0.61418 0.97468-0.75704  0 183.66 140.55   21.35 183.76 140.51   21.38
   0   6   3 785.896 161.432   2 0.03664-0.03664 0.62279-0.02577-0.78153 0.99900  0 388.57 430.92  239.34 388.60 430.68  239.33
   0  -6  -4  54.287  80.751   1-0.61074 0.61074 0.01686-0.61288-0.79165 0.50138  0 169.12 371.11   50.67 168.86 371.08   50.19
   0  -6  -4   3.559 155.120   2-0.12463 0.12463-0.70696 0.11021 0.69619-0.98606  0 448.55 415.43   65.52 448.66 415.68   65.45
   0  -6  -4 -51.849  94.509   2 0.10943-0.10943 0.11082-0.70784-0.98780 0.69785  0 214.03 100.55  207.17 214.01 100.52  206.98
   0  -6   4 -55.656  78.491   1-0.68392 0.68392-0.58257-0.01344-0.43916 0.72943  0 132.41 281.15   91.51 132.73 281.24   91.11
   0  -6   4 -98.008 152.560   2-0.23016 0.23016 0.10198-0.69849 0.96779-0.67760  0 418.38 432.96   14.45 418.76 433.11   14.49
   0  -6   4 -46.646 102.021   2 0.11799-0.11799-0.70740 0.11061-0.69689 0.98683  0 192.04 118.13  155.55 191.89 118.38  155.48
   0   6  -4 113.835 159.092   2 0.12476-0.12476-0.11023 0.70702-0.98604 0.69610  0 422.95 430.91  194.46 423.04 430.77  194.28
   0   6  -4  28.848  99.183   2-0.22359 0.22359 0.69905-0.10222 0.67921-0.96931  0 194.92 116.08  335.49 194.73 115.82  335.44
   0   6   4 -36.700  96.762   2-0.21593 0.21593-0.10350 0.70000 0.97091-0.68071  0 175.39 135.81   26.43 175.30 135.89   26.33
   0   6   4  53.448 152.089   2 0.01655-0.01655 0.71056-0.11354-0.70344 0.99340  0 391.44 443.51  246.08 391.44 443.57  246.18
   0  -6  -5 518.824 110.766   1-0.58421 0.58421 0.08345-0.67915-0.80730 0.44437  0 164.82 386.02   46.12 164.92 385.70   45.99
   0  -6  -5 565.856 152.606   1 0.02773-0.02773-0.78468 0.18819 0.61928-0.98174  0 474.07 420.51  171.56 474.33 420.71  171.53
   0  -6  -5 621.235 190.328   2-0.10494 0.10494-0.78168 0.18493 0.61479-0.97713  0 464.04 427.96   71.58 464.06 428.02   71.91
   0  -6  -5 544.624 130.503   2 0.10232-0.10232 0.18486-0.78187-0.97743 0.61499  0 209.74  88.07  211.43 209.69  87.84  211.28
   0  -6   5 460.863 114.647   1-0.66933 0.66933-0.63910 0.04309-0.37887 0.74171  0 120.76 270.86   95.54 120.43 270.73   95.92
   0  -6   5 412.645 188.865   2-0.23347 0.23347 0.17329-0.76980 0.95680-0.59406  0 425.02 450.40   10.41 424.85 450.13   10.35
   0  -6   5 624.540 135.898   2 0.10886-0.10886-0.78121 0.18400-0.61471 0.97688  0 181.40 110.76  149.43 181.56 111.07  149.09
   0   6  -5 478.251 180.421   2 0.12815-0.12815-0.18345 0.78024-0.97464 0.61221  0 437.49 444.01  190.43 437.38 443.96  190.03
   0   6  -5 434.007 131.407   2-0.21500 0.21500 0.77200-0.17516 0.59816-0.96078  0 189.89 103.45  329.03 189.75 103.54  329.16
   0   6   5 495.388 128.806   2-0.20907 0.20907-0.17637 0.77288 0.96186-0.59912  0 164.94 129.31   30.56 164.99 129.40   30.56
   0   6   5 438.347 190.315   2-0.00341 0.00341 0.78477-0.18770-0.61978 0.98222  0 395.78 459.84  252.66 396.10 460.13  252.68
   0  -6  -6  2278.2   177.4   1-0.55896 0.55896 0.14042-0.73612-0.81722 0.38169  0 158.78 401.92   42.39 158.93 401.92   42.38
   0  -6  -6  2927.1   278.1   1-0.07628 0.07628-0.84398 0.24748 0.53093-0.96589  0 484.57 444.04  162.79 484.49 443.80  163.00
   0  -6  -6  3368.6   350.7   2-0.08600 0.08600-0.84332 0.24657 0.53049-0.96530  0 483.12 444.41   77.62 483.18 444.30   77.96
   0  -6  -6  3135.3   251.3   2 0.09562-0.09562 0.24578-0.84280-0.96460 0.52967  0 203.93  72.55  214.70 203.82  72.52  214.88
   0  -6   6  2535.9   203.1   1-0.65108 0.65108-0.68900 0.09272-0.31838 0.75332  0 106.47 259.84  100.55 106.38 259.86  100.53
   0  -6   6  2817.7   276.2   2-0.23547 0.23547 0.23169-0.82820 0.94386-0.50857  0 433.04 471.23    6.70 433.15 471.26    6.91
   0  -6   6  2541.2   234.2   2 0.09865-0.09865-0.84233 0.24512-0.52985 0.96446  0 169.32 101.75  143.14 169.37 101.78  143.07
   0   6  -6  2362.9   266.9   2 0.13005-0.13005-0.24356 0.84035-0.96113 0.52621  0 455.07 461.26  186.44 454.98 461.12  186.49
   0   6  -6  2308.7   229.5   2-0.20496 0.20496 0.83242-0.23558 0.51485-0.95000  0 183.22  88.57  323.34 183.13  88.81  323.22
   0   6   6  3034.4   244.6   2-0.20272 0.20272-0.23638 0.83288 0.95028-0.51499  0 152.86 121.00   34.24 152.71 121.06   34.07
   0   6   6  2721.7   332.9   2-0.02301 0.02301 0.84552-0.24845-0.53345 0.96837  0 402.44 481.12  258.67 402.61 480.85  258.84
   0  -6  -7  1157.6   144.9   1-0.53583 0.53583 0.18763-0.78332-0.82322 0.31510  0 151.03 419.86   39.19 150.87 420.29   39.35
   0  -6  -7  1248.5   225.0   1-0.17475 0.17475-0.88362 0.28712 0.43437-0.94182  0 498.49 470.86  155.04 498.49 471.14  154.77
   0  -6  -7  1393.5   193.4   2 0.08983-0.08983 0.29449-0.89151-0.95142 0.44401  0 196.42  54.44  217.64 196.35  54.18  217.79
   0  -6   7  1252.4   164.1   1-0.62933 0.62933-0.73322 0.13694-0.25755 0.76498  0  90.30 248.29  105.22  90.18 248.30  105.01
   0  -6   7  1577.5   276.9   2-0.23668 0.23668 0.27812-0.87463 0.93093-0.42309  0 443.76 497.14    4.31 443.94 497.31    4.15
   0  -6   7  1327.3   187.6   2 0.08723-0.08723-0.89142 0.29421-0.44471 0.95175  0 155.36  90.42  137.44 155.12  90.40  137.41
   0   6  -7  1352.6   282.6   2 0.13112-0.13112-0.29151 0.88831-0.94754 0.44014  0 476.59 482.84  183.55 476.56 482.99  183.63
   0   6  -7  1175.9   182.0   2-0.19387 0.19387 0.88115-0.28431 0.43126-0.93892  0 174.69  71.04  317.62 174.77  71.29  317.63
   0   6   7  1537.0   191.0   2-0.19717 0.19717-0.28434 0.88084 0.93823-0.43039  0 138.03 110.63   36.59 138.24 110.81   36.92
   0  -6  -8 16491.6   370.5   1-0.51674 0.51674 0.22449-0.82019-0.82618 0.24549  0 140.55 441.67   37.38 140.69 441.46   36.97
   0  -6  -8 18824.1   500.3   2 0.08511-0.08511 0.33226-0.92928-0.93934 0.35944  0 187.20  32.12  220.18 187.09  32.35  220.08
   0  -6   8 14966.2   421.3   1-0.60441 0.60441-0.77190 0.17561-0.19716 0.77708  0  71.71 235.83  109.35  71.54 235.83  109.36
   0  -6   8 17442.5   477.6   2 0.07538-0.07538-0.92966 0.33245-0.36063 0.94010  0 138.46  76.67  132.01 138.38  76.69  132.11
   0   6  -8 15341.5   459.4   2-0.18237 0.18237 0.91934-0.32250 0.34864-0.92884  0 164.54  50.43  312.41 164.41  50.56  312.35
   0   6   8 19450.8   490.4   2-0.19263 0.19263-0.32146 0.91797 0.92712-0.34673  0 121.53  98.39   38.97 121.21  98.45   39.15
   0  -6  -9  31.101 148.430   1-0.50223 0.50223 0.25133-0.84702-0.82741 0.17412  0 127.90 466.09   34.94 128.21 466.43   35.21
   0  -6   9 265.846 154.096   1-0.57687 0.57687-0.80522 0.20894-0.13724 0.78966  0  50.46 222.12  113.43  49.95 222.01  113.60
   0  -6   9 205.549 186.329   2 0.06329-0.06329-0.95837 0.36115-0.27844 0.93036  0 118.54  60.35  126.95 118.71  60.30  127.07
   0   6  -9 244.127 200.015   2-0.17033 0.17033 0.94828-0.35144 0.26787-0.92059  0 151.86  26.11  307.53 151.70  25.81  307.37
   0   6   9 178.498 184.275   2-0.18894 0.18894-0.34908 0.94558 0.91785-0.26491  0 101.19  83.75   40.82 101.07  83.70   40.83
   0  -6 -10  5461.6   314.8   1-0.49243 0.49243 0.26866-0.86436-0.82785 0.10198  0 113.14 496.93   34.02 113.03 496.66   34.07
   0   6  10  6497.4   431.9   2-0.18635 0.18635-0.36834 0.96484 0.91082-0.18534  0  77.32  66.02   41.98  76.97  66.04   42.01
   0  -7   0  97.187  94.330   1-0.69584 0.69584-0.34768-0.34768-0.62844 0.62844  0 137.57 337.79   73.44 137.27 337.95   73.74
   0  -7   0   8.050 165.371   2-0.18909 0.18909-0.34796-0.34796 0.91824-0.91824  0 446.37 437.83   40.41 446.49 437.98   40.76
   0  -7   0 133.869 113.385   2 0.13183-0.13183-0.34813-0.34813-0.92813 0.92813  0 197.15  97.98  180.15 197.08  98.29  180.20
   0   7   0  21.406 162.900   2 0.08298-0.08298 0.34826 0.34826-0.93372 0.93372  0 414.19 452.93  220.90 414.32 453.14  221.05
   0  -7  -1  1616.6   163.9   1-0.68844 0.68844-0.28171-0.41364-0.66835 0.59578  0 141.15 349.85   69.26 141.32 349.73   69.30
   0  -7  -1  2046.2   228.2   2-0.17536 0.17536-0.44338-0.25254 0.87901-0.95156  0 451.36 437.41   46.85 451.67 437.42   46.72
   0  -7  -1  2086.5   211.9   2 0.13028-0.13028-0.25207-0.44418-0.95890 0.88641  0 199.14  94.79  185.71 199.12  94.89  185.98
   0  -7   1  1852.0   179.7   1-0.69890 0.69890-0.41244-0.28291-0.58432 0.65689  0 131.41 326.84   78.26 131.46 326.69   78.24
   0  -7   1  2175.0   230.9   2-0.20080 0.20080-0.25309-0.44284 0.94638-0.87383  0 443.72 441.76   34.94 443.78 441.88   35.06
   0  -7   1  2268.7   211.7   2 0.13164-0.13164-0.44416-0.25209-0.88622 0.95871  0 193.55  99.34  174.01 193.45  99.49  174.18
   0   7  -1  2194.7   236.0   2 0.09493-0.09493 0.25180 0.44472-0.96311 0.89062  0 419.24 453.16  215.34 419.55 453.25  215.23
   0   7  -1  2220.7   203.9   2-0.23724 0.23724 0.44194 0.25399 0.86510-0.93766  0 177.53 114.33  353.70 177.55 114.45  353.74
   0   7   1  2349.1   213.7   2-0.23607 0.23607 0.25396 0.44196 0.93796-0.86541  0 172.63 119.49    5.58 172.61 119.57    5.59
   0   7   1  2140.8   230.5   2 0.06865-0.06865 0.44496 0.25156-0.89292 0.96540  0 411.04 456.27  227.28 411.17 456.37  227.13
   0  -7  -2  8506.6   279.0   1-0.67738 0.67738-0.21605-0.47930-0.70319 0.55806  0 143.46 362.44   64.79 143.60 362.26   64.99
   0  -7  -2 10069.5   393.0   2-0.15997 0.15997-0.53579-0.16042 0.82906-0.97400  0 459.20 440.21   52.73 459.38 440.14   52.84
   0  -7  -2  9186.1   317.1   2 0.12711-0.12711-0.15938-0.53688-0.97900 0.83403  0 199.64  89.03  191.42 199.55  89.16  191.43
   0  -7   2  7943.6   283.4   1-0.69771 0.69771-0.47479-0.22056-0.53645 0.68159  0 124.15 315.93   82.95 123.92 315.77   82.74
   0  -7   2  9544.0   390.1   2-0.21048 0.21048-0.16208-0.53384 0.96407-0.81897  0 443.28 449.23   29.84 443.43 449.16   29.72
   0  -7   2 10022.6   331.4   2 0.12945-0.12945-0.53681-0.15944-0.83371 0.97868  0 188.11  98.42  168.21 188.13  98.49  168.06
   0   7  -2  9022.2   386.1   2 0.10494-0.10494 0.15902 0.53750-0.98168 0.83671  0 426.84 456.90  209.74 427.05 456.75  209.78
   0   7  -2  9311.8   322.5   2-0.23491 0.23491 0.53264 0.16368 0.81309-0.95814  0 177.49 108.47  347.99 177.37 108.64  347.76
   0   7   2 10430.9   333.6   2-0.23306 0.23306 0.16321 0.53271 0.95867-0.81357  0 167.56 118.99   10.75 167.55 119.11   10.94
   0   7   2  9182.3   383.8   2 0.05300-0.05300 0.53840 0.15812-0.84102 0.98600  0 409.90 463.25  233.28 410.13 463.06  233.33
   0  -7  -3 10697.9   306.1   1-0.66317 0.66317-0.15233-0.54303-0.73280 0.51510  0 143.89 376.02   61.01 144.06 375.74   60.89
   0  -7  -3 13034.2   444.7   2-0.14343 0.14343-0.62234-0.07387 0.76949-0.98690  0 469.87 446.40   58.75 470.01 446.33   58.94
   0  -7  -3 13032.5   372.7   2 0.12275-0.12275-0.07296-0.62329-0.98975 0.77229  0 198.47  80.90  196.41 198.39  81.07  196.42
   0  -7   3 10473.7   325.9   1-0.69230 0.69230-0.53379-0.16156-0.48559 0.70330  0 114.86 305.22   87.03 114.68 305.05   87.21
   0  -7   3 12828.1   438.0   2-0.21814 0.21814-0.07775-0.61817 0.97282-0.75517  0 445.25 460.12   25.06 445.39 459.97   24.84
   0  -7   3 12291.6   369.3   2 0.12497-0.12497-0.62320-0.07305-0.77201 0.98947  0 181.21  95.37  161.83 181.10  95.37  161.96
   0   7  -3 12402.7   434.0   2 0.11271-0.11271 0.07282 0.62370-0.99096 0.77349  0 436.79 463.92  205.02 437.00 463.72  204.78
   0   7  -3 12073.9   361.7   2-0.23042 0.23042 0.61721 0.07910 0.75230-0.96987  0 175.70 100.47  341.74 175.62 100.64  341.77
   0   7   3 13917.1   382.9   2-0.22895 0.22895 0.07855 0.61737 0.97026-0.75262  0 160.71 116.59   16.11 160.68 116.70   15.84
   0   7   3 12056.2   424.9   2 0.03607-0.03607 0.62554 0.07098-0.77936 0.99683  0 410.68 473.43  239.50 410.95 473.26  239.53
   0  -7  -4  2124.5   198.0   1-0.64703 0.64703-0.09231-0.60304-0.75686 0.46659  0 142.55 390.64   57.22 142.66 390.47   57.07
   0  -7  -4  2677.6   280.6   2-0.12610 0.12610-0.70079 0.00458 0.70213-0.99201  0 483.90 456.34   65.05 483.86 456.19   64.95
   0  -7  -4  2800.9   254.6   2 0.11772-0.11772 0.00478-0.70129-0.99304 0.70308  0 195.75  70.41  200.67 195.56  70.39  200.87
   0  -7   4  2108.6   203.5   1-0.68254 0.68254-0.58893-0.10642-0.43278 0.72305  0 103.70 294.52   91.63 103.65 294.34   91.63
   0  -7   4  2578.2   282.1   2-0.22399 0.22399-0.00207-0.69385 0.97459-0.68440  0 449.75 474.68   20.50 449.69 474.66   20.48
   0  -7   4  2383.3   248.9   2 0.11860-0.11861-0.70124 0.00499-0.70299 0.99293  0 172.25  90.12  156.04 172.28  90.13  155.97
   0   7  -4  2394.9   279.6   2 0.11845-0.11845-0.00474 0.70126-0.99295 0.70300  0 449.73 474.57  200.20 449.77 474.52  200.33
   0   7  -4  2392.4   237.9   2-0.22410 0.22410 0.69375 0.00257 0.68447-0.97456  0 172.25  90.25  335.67 172.14  90.32  335.88
   0   7   4  2965.4   249.6   2-0.22428 0.22428 0.00210 0.69382 0.97452-0.68433  0 151.92 112.22   20.02 151.90 112.29   20.24
   0   7   4  2331.0   274.6   2 0.01813-0.01813 0.70411-0.00760-0.70986 0.99981  0 413.55 487.43  245.63 413.71 487.32  245.65
   0  -7  -5 27422.0   451.1   1-0.62993 0.62993-0.03755-0.65780-0.77574 0.41290  0 139.12 407.13   53.65 139.31 406.79   53.61
   0  -7  -5 31265.7   650.4   2-0.10841 0.10841-0.76978 0.07357 0.62903-0.99138  0 501.28 470.18   70.99 501.51 470.21   70.82
   0  -7  -5 33541.6   591.7   2 0.11268-0.11268 0.07308-0.76960-0.99094 0.62850  0 191.41  56.88  204.76 191.23  57.01  204.79
   0  -7   5 28750.5   539.6   1-0.66915 0.66915-0.63969-0.05566-0.37820 0.74104  0  90.88 283.56   95.81  90.65 283.47   95.97
   0  -7   5 31429.9   644.1   2-0.22811 0.22811 0.06390-0.75983 0.97154-0.60879  0 456.33 493.72   16.73 456.53 493.65   16.69
   0  -7   5 31262.8   575.5   2 0.11069-0.11069-0.76972 0.07347-0.62871 0.99114  0 161.61  82.66  150.18 161.57  82.71  150.19
   0   7  -5 29193.3   630.5   2 0.12274-0.12274-0.07276 0.76901-0.98977 0.62734  0 465.51 489.54  196.39 465.59 489.43  196.44
   0   7  -5 29787.3   563.0   2-0.21652 0.21652 0.76103-0.06472 0.61151-0.97413  0 167.09  77.34  330.27 166.92  77.51  330.16
   0   7   5 33918.8   588.3   2-0.21920 0.21920-0.06494 0.76086 0.97352-0.61078  0 141.20 105.87   24.08 141.15 105.96   24.10
   0  -7  -6  1835.9   206.1   1-0.61304 0.61304 0.01067-0.70602-0.78998 0.35457  0 133.80 425.83   50.60 133.96 425.22   50.58
   0  -7  -6  2035.2   226.7   2 0.10756-0.10756 0.13132-0.82784-0.98549 0.55056  0 185.22  40.41  208.38 185.19  40.61  208.17
   0  -7   6  1494.0   188.6   1-0.65249 0.65249-0.68561-0.01005-0.32279 0.75773  0  75.74 272.16  100.21  75.62 272.26  100.20
   0  -7   6  1556.2   213.3   2 0.10142-0.10142-0.82796 0.13121-0.55154 0.98615  0 148.76  73.12  144.59 148.66  73.03  144.57
   0   7  -6  1561.6   213.2   2-0.20751 0.20751 0.81871-0.12240 0.53540-0.97055  0 159.95  61.81  324.69 159.90  61.96  324.65
   0   7   6  1446.3   212.2   2-0.21417 0.21417-0.12209 0.81801 0.96914-0.53385  0 128.13  97.54   27.37 128.14  97.55   27.40
   0  -7  -7 437.346 156.720   1-0.59729 0.59729 0.05191-0.74689-0.80034 0.29223  0 126.40 446.42   47.58 126.52 446.48   47.99
   0  -7  -7 294.520 186.172   2 0.10285-0.10285 0.17964-0.87616-0.97834 0.47093  0 177.25  20.70  210.59 177.25  20.61  210.98
   0  -7   7 204.244 146.942   1-0.63269 0.63269-0.72717 0.03150-0.26633 0.77376  0  58.37 260.35  104.41  58.09 260.37  104.37
   0  -7   7 460.707 188.903   2 0.09111-0.09111-0.87666 0.17991-0.47241 0.97945  0 133.08  60.70  139.34 133.40  60.93  139.22
   0   7  -7 388.065 199.686   2-0.19744 0.19744 0.86691-0.17060 0.45769-0.96536  0 150.87  43.16  319.56 150.77  43.18  319.36
   0   7   7 329.014 189.362   2-0.20976 0.20976-0.16945 0.86537 0.96296-0.45512  0 112.06  86.75   30.37 112.53  86.95   30.15
   0  -7  -8  3033.8   268.5   1-0.58369 0.58369 0.08466-0.77964-0.80755 0.22685  0 116.82 471.49   45.89 116.72 471.34   45.92
   0  -7   8  3136.4   267.9   1-0.60980 0.60980-0.76432 0.06866-0.20965 0.78958  0  37.59 247.55  108.45  37.59 247.53  108.47
   0  -7   8  3670.7   364.4   2 0.08006-0.08006-0.91610 0.21935-0.39288 0.97235  0 115.47  46.01  134.26 115.20  46.03  134.12
   0   7  -8  3225.4   360.7   2-0.18668 0.18668 0.90614-0.20982 0.37956-0.95975  0 139.34  20.71  314.32 139.26  20.57  314.31
   0  -8   0  7122.9   297.0   1-0.69855 0.69855-0.39734-0.39734-0.59511 0.59511  0 105.31 356.56   77.26 105.33 356.27   77.17
   0  -8   0  9062.8   486.4   2-0.18219 0.18219-0.39767-0.39767 0.89926-0.89926  0 486.61 488.15   43.95 486.60 487.94   43.83
   0  -8   0  9031.2   363.1   2 0.13213-0.13213-0.39786-0.39786-0.90788 0.90788  0 174.70  64.05  177.04 174.71  64.14  177.12
   0   8   0  8607.4   353.5   2-0.23778 0.23778 0.39768 0.39768 0.88618-0.88618  0 149.14  89.36  356.58 149.11  89.49  356.55
   0  -8  -1 100.281 123.153   1-0.69545 0.69545-0.34300-0.45169-0.63143 0.55886  0 109.69 369.30   73.49 109.71 369.14   73.42
   0  -8  -1 234.148 258.331   2-0.16965 0.16965-0.47951-0.31583 0.86098-0.93353  0 492.74 487.52   49.50 492.71 487.55   49.06
   0  -8  -1  21.852 147.572   2 0.13147-0.13147-0.31556-0.48017-0.93976 0.86727  0 176.92  60.31  182.44 176.86  60.36  182.19
   0  -8   1  87.436 136.682   1-0.69861 0.69861-0.45135-0.34333-0.55518 0.62775  0  99.41 344.11   80.93  99.12 344.12   81.02
   0  -8   1 285.342 246.241   2-0.19330 0.19330-0.31626-0.47908 0.92877-0.85622  0 483.69 492.41   38.25 483.44 492.34   38.83
   0  -8   1 166.303 148.462   2 0.13101-0.13101-0.48017-0.31555-0.86734 0.93982  0 170.77  65.58  171.42 170.83  65.55  171.85
   0   8  -1 113.247 151.304   2-0.23645 0.23645 0.47815 0.31720 0.84585-0.91841  0 150.68  85.61  351.54 150.80  85.50  351.38
   0   8   1 235.907 149.913   2-0.23723 0.23723 0.31722 0.47812 0.91820-0.84565  0 146.14  91.48    1.64 145.58  91.20    1.79
   0  -8  -2  4750.0   267.1   1-0.68948 0.68948-0.28933-0.50536-0.66401 0.51887  0 112.36 383.22   69.79 112.29 382.94   69.80
   0  -8  -2  5532.8   468.6   2-0.15570 0.15570-0.55935-0.23632 0.81418-0.95912  2 501.46 490.78   54.42 501.82 490.95   54.46
   0  -8  -2  5535.8   330.2   2 0.12982-0.12982-0.23559-0.56013-0.96314 0.81817  0 177.46  54.26  187.00 177.36  54.14  186.96
   0  -8   2  4176.7   275.9   1-0.69562 0.69562-0.50408-0.29061-0.51187 0.65701  0  91.18 332.54   85.00  91.09 332.45   84.93
   0  -8   2  5664.2   465.3   2-0.20259 0.20259-0.23759-0.55775 0.95000-0.80491  2 482.90 500.47   34.26 483.02 500.58   34.14
   0  -8   2  5367.0   322.4   2 0.12845-0.12845-0.56016-0.23556-0.81836 0.96333  0 165.19  64.67  166.50 165.18  64.65  166.46
   0   8  -2  4796.8   317.0   2-0.23389 0.23389 0.55643 0.23935 0.79729-0.94234  0 150.58  79.05  346.00 150.54  79.25  346.12
   0   8   2  5182.7   309.1   2-0.23568 0.23568 0.23906 0.55628 0.94197-0.79687  0 140.28  90.90    6.47 140.22  90.95    6.48
   0  -8  -3  5303.6   263.7   1-0.68138 0.68138-0.23750-0.55719-0.69232 0.47462  0 113.06 398.29   66.41 113.00 398.03   66.39
   0  -8  -3  6159.0   339.6   2 0.12714-0.12714-0.16006-0.63566-0.97888 0.76143  0 176.21  45.35  191.37 176.17  45.27  191.39
   0  -8   3  5273.5   287.6   1-0.68912 0.68912-0.55485-0.23983-0.46611 0.68381  0  81.29 321.16   88.74  81.18 321.09   88.86
   0  -8   3  6328.3   355.5   2 0.12413-0.12413-0.63577-0.15995-0.76183 0.97929  0 157.60  61.22  160.92 157.69  61.45  161.03
   0   8  -3  5749.0   336.5   2-0.22946 0.22946 0.63039 0.16540 0.74159-0.95916  0 148.67  70.47  341.13 148.62  70.70  340.81
   0   8   3  6772.6   346.5   2-0.23314 0.23314 0.16521 0.63013 0.95831-0.74066  0 133.01  88.55   10.67 132.88  88.58   10.82
   0  -8  -4 491.810 152.893   1-0.67168 0.67168-0.18868-0.60601-0.71641 0.42614  0 112.00 414.63   63.48 111.86 414.73   63.23
   0  -8  -4 455.509 192.007   2 0.12376-0.12376-0.09062-0.70510-0.98817 0.69822  0 173.46  33.41  195.49 173.23  33.61  195.41
   0  -8   4 698.091 158.853   1-0.67931 0.67931-0.60308-0.19160-0.41812 0.70839  0  69.56 309.68   92.69  69.27 309.81   92.81
   0  -8   4 537.008 192.014   2 0.11820-0.11820-0.70536-0.09036-0.69893 0.98887  0 148.30  55.85  155.65 148.22  55.91  155.64
   0   8  -4 761.827 195.345   2-0.22364 0.22364 0.69855 0.09723 0.67972-0.96981  0 144.75  59.46  335.50 144.73  59.53  335.48
   0   8   4 709.175 185.975   2-0.22991 0.22991 0.09730 0.69804 0.96834-0.67814  0 123.62  84.29   14.58 123.42  84.10   14.76
   0  -8  -5 932.447 172.400   1-0.66107 0.66107-0.14395-0.65073-0.73639 0.37355  0 108.93 433.42   60.43 108.72 433.57   60.35
   0  -8  -5 937.604 217.727   2 0.12004-0.12004-0.02841-0.76732-0.99236 0.62993  0 168.46  19.00  198.67 168.51  18.77  198.98
   0  -8   5 975.298 188.212   1-0.66648 0.66648-0.64828-0.14641-0.36817 0.73101  0  55.47 298.47   96.70  55.08 298.45   96.74
   0  -8   5  1046.2   226.2   2 0.11095-0.11095-0.76780-0.02792-0.63101 0.99343  0 136.62  48.01  150.41 136.59  47.89  150.36
   0   8  -5 775.469 213.897   2-0.21668 0.21668 0.75982 0.03596 0.61296-0.97558  0 138.39  45.18  330.49 138.88  45.55  330.27
   0   8   5 869.266 210.227   2-0.22656 0.22656 0.03648 0.75886 0.97331-0.61057  0 111.47  77.36   17.97 111.67  77.52   18.26
   0  -8  -6 764.084 181.709   1-0.65042 0.65042-0.10440-0.69028-0.75236 0.31695  0 103.47 455.62   57.66 103.48 455.13   57.83
   0  -8   6 740.174 179.707   1-0.65066 0.65066-0.68998-0.10506-0.31712 0.75206  0  38.65 286.79  100.65  38.40 286.78  100.62
   0  -8   6 884.888 233.626   2 0.10244-0.10244-0.82228 0.02600-0.55979 0.99440  0 122.27  37.13  145.47 122.34  37.18  145.14
   0   8  -6 771.685 235.986   2-0.20841 0.20841 0.81364-0.01785 0.54273-0.97788  0 130.85  28.27  325.44 130.88  28.38  325.16
   0   8   6 666.711 218.767   2-0.22296 0.22296-0.01666 0.81200 0.97469-0.53939  0  96.82  68.42   21.04  97.25  68.57   21.32
   0  -8  -7 488.953 184.162   1-0.64062 0.64062-0.07097-0.72372-0.76458 0.25660  0  95.70 481.12   55.46  95.94 480.46   55.72
   0  -8   7 216.787 167.357   1-0.63204 0.63204-0.72835-0.06669-0.26462 0.77206  0  19.06 274.34  104.45  18.65 274.42  104.50
   0  -8   7 295.868 231.459   2 0.09296-0.09296-0.86902 0.07274-0.48597 0.99301  0 105.07  23.26  140.54 105.30  23.57  140.11
   0   8  -7 269.837 260.830   2-0.19912 0.19912 0.85980-0.06401 0.47022-0.97788  2 120.38   7.85  320.13 120.29   7.28  320.19
   0   8   7 206.301 214.493   2-0.21944 0.21944-0.06190 0.85724 0.97366-0.46582  0  79.98  57.22   24.07  79.74  57.05   23.93
   0  -9   0  62.571 151.720   1-0.69872 0.69872-0.44701-0.44701-0.55855 0.55855  0  67.67 378.87   80.47  67.13 379.42   80.71
   0  -9   0-181.840 188.307   2 0.13160-0.13160-0.44759-0.44759-0.88450 0.88450  0 147.03  22.04  173.23 146.99  21.96  173.96
   0   9   0 -76.700 190.349   2-0.23715 0.23715 0.44738 0.44739 0.86233-0.86233  0 116.13  54.70  353.59 116.03  54.81  353.38
   0  -9  -1 13705.2   426.7   1-0.69868 0.69868-0.40191-0.49211-0.59187 0.51930  0  71.86 394.07   77.51  71.96 393.79   77.50
   0  -9  -1 16253.7   517.3   2 0.13207-0.13207-0.37627-0.51891-0.91705 0.84456  0 149.22  17.52  178.48 149.31  17.59  178.46
   0  -9   1 13363.1   441.8   1-0.69656 0.69656-0.49232-0.40170-0.52194 0.59451  0  60.43 366.16   83.98  60.34 365.99   84.04
   0  -9   1 16759.1   529.6   2 0.13009-0.13009-0.51894-0.37625-0.84486 0.91734  0 142.70  23.50  169.21 142.75  23.61  169.27
   0   9  -1 15576.8   511.6   2-0.23546 0.23546 0.51722 0.37804 0.82282-0.89535  0 118.08  50.24  349.00 117.62  50.27  348.81
   0   9   1 16305.0   509.8   2-0.23785 0.23785 0.37777 0.51700 0.89483-0.82227  0 112.55  56.87  357.76 112.21  56.93  357.79
   0  -9  -2  1764.7   226.6   1-0.69660 0.69660-0.35784-0.53618-0.62185 0.47671  0  74.84 409.61   74.43  74.77 409.50   74.44
   0  -9  -2  1588.8   264.6   2 0.13133-0.13133-0.30666-0.58852-0.94271 0.79774  0 150.02  10.95  183.03 149.72  10.41  182.73
   0  -9   2  1291.7   212.5   1-0.69185 0.69185-0.53713-0.35690-0.48253 0.62767  0  51.54 353.50   87.43  51.54 353.28   87.47
   0  -9   2  1605.0   260.2   2 0.12696-0.12696-0.58863-0.30656-0.79838 0.94335  0 136.74  22.56  164.49 136.52  22.67  164.46
   0   9  -2  1592.8   254.8   2-0.23230 0.23230 0.58525 0.31001 0.77687-0.92192  0 117.49  43.18  344.33 117.29  43.25  344.09
   0   9   2  1524.3   245.4   2-0.23714 0.23714 0.30983 0.58492 0.92074-0.77565  0 105.88  56.28    2.29 106.25  56.61    2.24
   0  -9  -3  1435.8   216.1   1-0.69259 0.69259-0.31557-0.57846-0.64864 0.43093  0  75.77 426.95   71.61  75.57 426.89   71.56
   0  -9   3  1741.6   249.4   1-0.68427 0.68427-0.58087-0.31315-0.44086 0.65857  0  40.73 341.28   91.04  40.50 341.04   90.97
   0  -9   3  2344.7   300.3   2 0.12270-0.12270-0.65510-0.24008-0.74551 0.96297  0 128.08  19.13  159.54 128.18  19.07  159.58
   0   9  -3  1745.4   269.0   2-0.22793 0.22793 0.65020 0.24505 0.72476-0.94234  0 114.66  33.18  338.99 114.81  33.54  339.29
   0   9   3  2167.4   271.4   2-0.23584 0.23584 0.24511 0.64965 0.94037-0.72273  0  98.12  54.14    6.37  98.06  54.13    6.12
   0  -9  -4 -79.495 173.594   1-0.68764 0.68764-0.27611-0.61791-0.67150 0.38123  0  74.31 446.16   68.94  74.35 446.50   68.93
   0  -9   4 396.942 179.742   1-0.67408 0.67408-0.62299-0.27103-0.39686 0.68714  0  26.58 329.07   94.58  27.04 329.02   94.51
   0  -9   4-208.287 234.521   2 0.11699-0.11699-0.71709-0.17810-0.68709 0.97703  0 117.94  13.25  154.60 117.53  12.70  154.69
   0   9  -4 -18.524 228.406   2-0.22236 0.22236 0.71085 0.18441 0.66727-0.95736  0 110.24  20.87  334.46 110.14  20.86  334.48
   0   9   4 238.988 219.214   2-0.23391 0.23391 0.18486 0.70990 0.95452-0.66433  0  87.85  49.52    9.50  87.35  49.19    9.67
  -1   0   0 -15.723  13.968   1-0.06385-0.06385-0.83783 0.83783 0.54219-0.54219  0 322.26 235.36  164.20 322.19 235.47  164.02
  -1   0   0 1.87770  5.1579   2-0.06374-0.06374-0.90179 0.90179 0.42745-0.42745  0 321.67 235.48   85.67 321.66 235.38   84.86
  -1   0   0 6.63119  5.2635   2-0.06373-0.06373 0.93828-0.93828-0.33994 0.33994  0 328.59 244.97  271.67 328.69 244.86  271.37
  -1   0  -1  2348.3    63.3   1-0.27059 0.14292-0.90514 0.90514 0.32788-0.40037  0 334.73 245.20  146.48 334.77 245.30  146.47
  -1   0  -1  2162.4    35.5   2 0.05951-0.18703-0.96558 0.96558-0.25322 0.18078  0 335.29 248.27  125.53 335.36 248.29  125.55
  -1   0  -1  2002.6    33.9   2-0.14496 0.01749 0.98368-0.98368 0.10659-0.17908  0 320.28 228.34  297.78 320.38 228.37  297.76
  -1   0   1  2084.8    39.3   1-0.55098 0.42347 0.15722-0.15722-0.81957 0.89216  0 284.35 226.47   41.05 284.46 226.47   41.31
  -1   0   1  2260.7    49.8   2-0.00633-0.12118-0.99051 0.99051 0.13731-0.06487  0 308.80 223.44  102.71 308.89 223.48  102.68
  -1   0   1  2000.0    47.5   2-0.11688-0.01058 0.99150-0.99150-0.05722 0.12970  0 336.67 260.73  288.06 336.68 260.76  288.20
   1   0  -1  2176.4    40.4   1-0.37814 0.50565 0.44361-0.44361-0.81254 0.73995  0 315.88 290.20   22.00 315.95 290.13   22.05
   1   0  -1  2449.0    51.5   2 0.03353 0.09399-0.99543 0.99543-0.08944 0.01700  0 289.93 291.71  116.00 290.00 291.67  115.91
   1   0  -1  2127.7    48.7   2-0.07539 0.20286 0.95677-0.95677-0.28089 0.20840  0 264.60 255.88  275.01 264.74 255.86  274.99
   1   0   1  2320.2    63.4   1-0.16680 0.29451-0.88107 0.88107 0.44259-0.37010  0 267.00 269.88  155.43 267.15 269.90  155.44
   1   0   1  2357.0    35.5   2-0.01257 0.14008-0.98526 0.98526 0.17058-0.09815  0 265.89 267.74  100.81 266.03 267.74  100.71
   1   0   1  2035.0    33.2   2-0.20391 0.33135 0.83774-0.83774 0.50656-0.43404  0 278.90 286.32  322.64 279.05 286.25  322.65
  -1   0  -2 -16.619  21.627   1-0.37226 0.24459-0.90652 0.90652 0.19909-0.34408  0 349.20 255.62  137.06 349.59 255.27  137.06
  -1   0  -2  -6.085  16.960   2 0.04650-0.17401-0.98444 0.98444-0.16948 0.02461  0 349.01 260.92  120.65 349.09 260.91  120.58
  -1   0  -2   1.856  17.478   2-0.12346-0.00401 0.99215-0.99215-0.01997-0.12500  0 312.74 212.61  290.51 312.58 212.47  290.37
  -1   0   2   9.305  14.995   1-0.69129 0.56376-0.54114 0.54114-0.47884 0.62398  0 278.96 216.70   87.35 279.12 216.66   87.79
  -1   0   2  15.706  22.476   2-0.00407-0.12344-0.99215 0.99215 0.12497 0.01990  0 296.07 211.43  103.50 296.13 211.36  103.40
  -1   0   2  -7.011  22.850   2-0.12945 0.00198 0.99148-0.99148 0.01471 0.13027  0 345.36 277.39  292.53 345.11 277.25  292.39
   1   0  -2   9.015  15.083   1-0.67088 0.79842-0.18502 0.18502-0.71811 0.57297  0 321.70 300.78   63.19 321.59 300.63   62.99
   1   0  -2   7.396  22.650   2-0.08942 0.21689 0.97422-0.97422-0.20714 0.06217  0 257.40 240.94  279.63 257.14 240.61  279.40
   1   0   2   6.535  23.214   1-0.25147 0.37913-0.90232 0.90232 0.35013-0.20515  0 254.04 260.43  148.53 254.20 260.40  148.16
   1   0   2   1.826  13.436   2-0.00564 0.13315-0.99103 0.99103 0.13351 0.01136  0 253.73 255.52  102.88 253.73 255.83  102.90
   1   0   2 -11.277  16.155   2-0.17212 0.29957 0.94452-0.94452 0.27975-0.13470  0 286.37 302.54  308.55 286.35 302.45  308.09
  -1   0  -3 144010.    861.   1-0.43517 0.30751-0.89369 0.89369 0.10926-0.32673  0 365.80 265.72  130.96 365.83 265.73  130.72
  -1   0  -3 145796.    975.   2 0.04718-0.17469-0.98366 0.98366-0.17375-0.04355  0 363.74 274.12  121.13 363.63 274.11  120.84
  -1   0  -3 116587.    788.   2-0.11283-0.01464 0.99039-0.99039-0.07996-0.13751  0 304.65 196.16  287.17 304.75 196.26  286.88
  -1   0   3 106185.    691.   1-0.61100 0.48334-0.76258 0.76258-0.21247 0.42994  0 267.67 206.68  108.05 267.83 206.80  108.27
  -1   0   3 127098.    816.   2-0.00724-0.12028-0.98987 0.98987 0.14182 0.07549  0 283.20 199.01  102.33 283.36 199.12  102.41
  -1   0   3 111177.    648.   2-0.13799 0.01053 0.98828-0.98828 0.06520 0.15226  0 354.01 294.39  295.26 353.98 294.38  295.33
   1   0  -3 89322.6   650.7   1-0.69862 0.82615-0.45099 0.45099-0.55546 0.33776  0 334.01 312.00   81.42 334.09 311.95   81.00
   1   0  -3 128757.    809.   2 0.03911 0.08841-0.99162 0.99162-0.12312-0.09419  0 315.35 318.54  118.06 315.37 318.47  117.87
   1   0  -3 117848.    673.   2-0.09088 0.21835 0.97570-0.97570-0.19936-0.01811  0 249.47 225.36  280.03 249.33 225.34  279.86
   1   0   3 126841.   1057.   1-0.28345 0.41111-0.90661 0.90661 0.31260-0.09513  0 240.70 250.84  145.14 240.61 250.90  145.33
   1   0   3 130186.    952.   2-0.00900 0.13651-0.98844 0.98844 0.15134 0.06596  0 241.44 244.19  102.11 241.31 244.21  101.85
  -1   0  -4  -1.302  46.367   1-0.48058 0.35292-0.87610 0.87610 0.03851-0.32847  0 383.24 276.91  125.57 383.46 276.85  125.80
  -1   0  -4   9.551  40.369   2 0.05053-0.17805-0.97947 0.97947-0.19517-0.09457  0 378.96 287.99  122.05 379.21 288.02  122.09
  -1   0  -4   3.928  38.927   2-0.10425-0.02321 0.98639-0.98639-0.12716-0.16279  0 296.82 179.75  284.17 296.87 179.58  284.12
  -1   0   4  21.546  25.768   1-0.54019 0.41252-0.83905 0.83905-0.06475 0.35471  0 254.66 196.50  118.46 254.71 196.55  118.64
  -1   0   4   5.121  43.780   2-0.01202-0.11549-0.98578 0.98578 0.16764 0.12210  0 270.44 186.65  100.45 270.41 186.64  100.89
  -1   0   4  25.522  42.510   2-0.14537 0.01790 0.98335-0.98335 0.10909 0.18086  0 363.39 312.57  297.31 363.38 312.40  297.90
   1   0  -4  -1.725  32.503   1-0.69096 0.81850-0.54341 0.54341-0.47673 0.18646  0 349.04 324.16   87.84 349.06 324.26   87.97
   1   0  -4  -9.502  43.710   2 0.04395 0.08357-0.98716 0.98716-0.15359-0.13615  0 328.90 333.15  119.61 328.84 333.16  119.65
   1   0  -4 -15.125  29.760   2-0.08852 0.21599 0.97327-0.97327-0.21191-0.07804  0 241.00 209.76  279.39 241.13 209.78  279.11
   1   0   4  16.390  37.369   1-0.29240 0.42006-0.90742 0.90742 0.30182-0.01186  0 226.69 241.39  144.52 226.59 241.26  144.52
   1   0   4  14.044  29.506   2-0.01428 0.14180-0.98371 0.98371 0.17922 0.11052  0 228.63 232.65  100.21 228.54 232.63  100.19
  -1   0  -5 16913.7   261.9   1-0.51641 0.38874-0.85607 0.85607-0.02182-0.34063  0 402.51 288.98  121.71 402.70 288.93  121.62
  -1   0  -5 17231.3   251.8   2 0.05487-0.18238-0.97331 0.97331-0.22285-0.13932  0 395.84 302.96  123.95 396.10 302.90  123.74
  -1   0  -5 14750.4   235.0   2-0.09639-0.03107 0.98076-0.98076-0.16973-0.19270  0 288.68 162.07  281.62 288.85 162.21  281.62
  -1   0   5 16032.0   202.6   1-0.48388 0.35622-0.87450 0.87450 0.03327 0.32918  0 240.96 185.66  125.39 240.87 185.78  125.43
  -1   0   5 19786.4   287.7   2-0.01791-0.10958-0.98018 0.98018 0.19730 0.16505  0 256.86 173.62   99.00 257.07 173.72   99.08
  -1   0   5 15604.8   257.9   2-0.15190 0.02445 0.97690-0.97690 0.15032 0.21230  0 373.53 331.66  300.26 373.46 331.61  300.32
   1   0  -5 14229.3   195.4   1-0.68502 0.81255-0.57713 0.57713-0.44461 0.08176  0 365.58 337.94   90.74 365.73 337.88   90.66
   1   0  -5 16516.9   265.0   2 0.04911 0.07840-0.98128 0.98128-0.18624-0.17593  0 343.23 349.24  121.55 343.20 349.09  121.56
   1   0  -5 15789.3   253.4   2-0.08446 0.21192 0.96872-0.96872-0.23334-0.12910  0 232.60 193.75  278.03 232.49 193.77  277.84
   1   0   5 17208.8   259.9   1-0.28928 0.41694-0.90715 0.90715 0.30560 0.05685  0 212.11 231.24  144.95 212.08 231.35  144.80
   1   0   5 17446.2   248.2   2-0.02046 0.14794-0.97732 0.97732 0.21080 0.15155  0 215.33 220.92   98.17 215.20 220.92   98.27
   1   0   5 10105.1   197.8   2-0.16964 0.29709 0.94967-0.94967 0.26333 0.09929  0 308.35 355.82  307.00 308.39 355.79  307.10
  -1   0  -6   9.191  69.558   1-0.54614 0.41848-0.83425 0.83425-0.07590-0.35904  0 424.14 302.14  117.45 423.92 302.31  117.86
  -1   0  -6  16.937  70.142   2 0.05955-0.18707-0.96550 0.96550-0.25348-0.18113  0 414.84 319.08  125.46 414.74 319.05  125.57
  -1   0  -6 -30.263  64.191   2-0.08886-0.03860 0.97363-0.97363-0.21010-0.22483  0 280.25 143.90  279.04 280.54 143.82  279.22
  -1   0   6  -6.256  40.068   1-0.43582 0.30816-0.89349 0.89349 0.10829 0.32666  0 226.31 174.30  130.76 226.48 174.25  130.66
  -1   0   6 -27.283  52.315   2-0.02388-0.10361-0.97311 0.97311 0.22910 0.20572  0 243.34 160.24   97.40 243.26 160.28   97.19
  -1   0   6  22.718  82.402   2-0.15815 0.03070 0.96898-0.96898 0.18992 0.24523  0 384.34 352.18  302.42 384.46 352.43  302.68
   1   0  -6  -3.001  60.806   1-0.68339 0.81092-0.58516 0.58516-0.43655 0.00114  0 384.03 353.42   91.63 383.92 353.16   91.32
   1   0  -6  30.929  79.957   2 0.05443 0.07309-0.97397 0.97397-0.22004-0.21457  0 358.62 366.44  123.41 358.69 366.61  123.57
   1   0  -6  26.050  55.358   2-0.07956 0.20703 0.96247-0.96247-0.25946-0.17547  0 223.14 177.34  276.56 223.26 177.04  276.29
   1   0   6   4.326  52.783   1-0.27888 0.40654-0.90613 0.90613 0.31806 0.11688  0 197.12 221.10  145.58 196.97 220.97  145.74
   1   0   6 -59.731  44.823   2-0.02672 0.15420-0.96942 0.96942 0.24393 0.19088  0 200.91 209.12   95.88 201.16 209.04   96.30
   1   0   6 -18.467  64.725   2-0.17321 0.30065 0.94215-0.94215 0.28696 0.14818  0 316.26 376.13  308.43 316.14 376.29  308.53
  -1   0  -7 20512.0   345.2   1-0.57140 0.44373-0.81094 0.81094-0.12602-0.38141  0 447.53 317.54  114.34 447.68 317.40  114.38
  -1   0  -7 20813.2   345.7   2 0.06440-0.19191-0.95614 0.95614-0.28575-0.22129  0 435.48 336.98  127.48 435.69 336.89  127.52
  -1   0  -7 19504.4   337.8   2-0.08153-0.04594 0.96500-0.96501-0.24924-0.25818  0 271.72 123.95  277.02 271.88 124.13  276.90
  -1   0   7 22864.0   300.6   1-0.39256 0.26490-0.90369 0.90369 0.17101 0.33642  0 211.48 161.48  134.78 211.49 161.65  135.06
  -1   0   7 22723.0   365.9   2-0.03028-0.09721-0.96458 0.96458 0.26205 0.24523  0 228.79 145.88   95.05 228.66 146.04   95.20
  -1   0   7 20423.7   362.3   2-0.16431 0.03686 0.95956-0.95956 0.22858 0.27908  0 396.30 375.42  305.00 396.58 375.36  305.00
   1   0  -7 17485.7   277.4   1-0.68447 0.81200-0.57990 0.57990-0.44184-0.06614  0 403.48 370.66   91.00 403.97 370.64   90.89
   1   0  -7 21697.5   372.8   2 0.05971 0.06780-0.96522 0.96522-0.25454-0.25251  0 375.80 386.35  125.63 375.71 386.18  125.63
   1   0  -7 20255.3   346.1   2-0.07395 0.20142 0.95468-0.95468-0.28829-0.21912  0 213.37 159.30  274.53 213.27 159.34  274.54
   1   0   7 23172.8   357.5   1-0.26359 0.39126-0.90419 0.90419 0.33609 0.17134  0 181.00 209.78  146.94 181.06 209.92  147.09
   1   0   7 22744.4   347.5   2-0.03338 0.16087-0.95999 0.95999 0.27805 0.22923  0 186.21 196.68   94.15 186.14 196.76   94.23
   1   0   7 20363.8   341.9   2-0.17732 0.30477 0.93260-0.93260 0.31435 0.19332  0 324.23 399.03  310.13 324.28 398.88  310.22
  -1   0  -8  66.475 125.136   1-0.59382 0.46615-0.78572 0.78572-0.17329-0.40663  0 474.74 334.90  111.26 474.70 334.90  111.05
  -1   0  -8  -8.818 117.531   2 0.06928-0.19680-0.94521 0.94521-0.31901-0.26046  0 459.89 357.11  129.60 459.69 357.01  129.53
  -1   0  -8  42.203 109.169   2-0.07407-0.05339 0.95486-0.95486-0.28768-0.29222  0 262.49 102.68  274.60 262.69 102.68  274.58
  -1   0   8  16.044  68.083   1-0.35172 0.22406-0.90827 0.90827 0.22659 0.35334  0 195.87 147.55  139.14 195.68 147.70  139.03
  -1   0   8   6.763  74.973   2-0.03684-0.09064-0.95454 0.95454 0.29579 0.28396  0 213.06 130.30   93.52 213.01 130.74   93.14
  -1   0   8 -12.557 116.500   2-0.17016 0.04271 0.94864-0.94864 0.26672 0.31347  0 410.22 401.17  307.39 410.23 401.11  307.30
   1   0  -8  33.155  99.057   1-0.68719 0.81472-0.56615 0.56615-0.45524-0.12531  0 426.16 390.67   89.64 426.28 391.00   89.77
   1   0  -8  18.590 125.441   2 0.06496 0.06255-0.95498 0.95498-0.28947-0.29000  0 394.91 408.33  127.25 394.83 408.47  127.74
   1   0  -8  42.969  83.163   2-0.06792 0.19538 0.94536-0.94536-0.31889-0.26101  0 202.30 140.34  272.44 202.34 140.29  272.67
   1   0   8-121.259  71.205   1-0.24483 0.37249-0.90109 0.90109 0.35791 0.22201  0 163.87 197.96  148.49 164.11 197.95  148.75
   1   0   8   3.188  70.770   2-0.04018 0.16767-0.94899 0.94899 0.31273 0.26702  0 169.79 183.96   92.46 169.83 183.89   92.10
   1   0   8 -32.246 106.829   2-0.18169 0.30914 0.92122-0.92122 0.34400 0.23619  0 332.96 424.20  312.53 332.94 424.17  312.06
  -1   0  -9 829.378 181.402   1-0.61360 0.48593-0.75875 0.75875-0.21863-0.43379  2 504.99 355.36  107.76 506.10 355.62  107.83
  -1   0  -9 765.831 176.912   2 0.07426-0.20178-0.93269 0.93269-0.35295-0.29896  0 487.88 380.30  131.66 487.81 380.18  131.63
  -1   0  -9 829.841 130.050   2-0.06658-0.06089 0.94315-0.94315-0.32564-0.32675  0 252.89  78.65  271.94 252.79  78.89  272.26
  -1   0   9  1141.5   136.2   1-0.31207 0.18441-0.90859 0.90859 0.27763 0.37478  0 178.82 131.80  142.68 178.91 131.97  142.73
  -1   0   9 978.215 142.599   2-0.04372-0.08376-0.94296 0.94296 0.33002 0.32220  0 195.90 113.91   90.99 195.95 114.08   91.03
  -1   0   9 618.903 174.305   2-0.17586 0.04842 0.93615-0.93615 0.30446 0.34825  0 425.88 430.59  309.67 425.86 430.63  309.61
   1   0  -9 724.440 146.756   1-0.69051 0.81804-0.54651 0.54651-0.47384-0.17927  0 451.52 415.50   87.98 451.65 415.28   88.21
   1   0  -9 952.705 188.467   2 0.07013 0.05739-0.94321 0.94321-0.32471-0.32720  0 416.64 434.41  129.75 416.75 434.37  129.88
   1   0  -9 766.992 133.613   2-0.06158 0.18905 0.93447-0.93447-0.35068-0.30171  0 190.24 119.30  271.11 190.18 119.47  270.71
   1   0   9 873.495 128.839   1-0.22299 0.35070-0.89670 0.89670 0.38236 0.27007  0 145.62 184.55  150.83 145.75 184.66  150.63
   1   0   9 893.295 128.630   2-0.04728 0.17477-0.93637 0.93637 0.34781 0.30441  0 151.91 170.20   89.76 151.87 170.25   89.93
   1   0   9 769.611 161.517   2-0.18605 0.31350 0.90811-0.90811 0.37513 0.27759  0 342.29 453.15  314.41 342.31 453.08  314.03
  -1   0 -10 -16.092 114.342   2-0.05905-0.06841 0.92981-0.92981-0.36326-0.36161  0 241.88  52.07  270.13 241.92  51.97  269.92
  -1   0  10-111.742  88.805   1-0.27242 0.14475-0.90537 0.90537 0.32572 0.39919  0 160.49 114.28  145.94 160.75 113.82  146.31
  -1   0  10 -21.952 119.941   2-0.05075-0.07674-0.92977 0.92977 0.36463 0.36006  0 177.24  95.74   88.95 177.03  95.63   88.87
  -1   0  10 -27.756 196.126   2-0.18140 0.05395 0.92205-0.92205 0.34194 0.38330  0 444.06 465.29  311.97 444.19 465.30  311.93
   1   0 -10 206.122 166.875   1-0.69375 0.82128-0.52224 0.52224-0.49597-0.22972  0 481.08 445.64   86.30 481.20 445.00   86.32
   1   0 -10 133.939 211.804   2 0.07531 0.05221-0.92985 0.92985-0.36014-0.36421  0 442.46 465.10  132.64 442.54 465.17  132.08
   1   0 -10-214.765 110.579   2-0.05499 0.18245 0.92198-0.92198-0.38331-0.34156  0 176.59  95.93  268.49 176.43  96.25  268.67
   1   0  10-134.395  98.980   1-0.19893 0.32664-0.89070 0.89070 0.40876 0.31617  0 126.17 169.92  152.64 125.71 169.70  152.71
   1   0  10 -24.762 104.948   2-0.05452 0.18200-0.92208 0.92208 0.38315 0.34154  0 131.88 155.63   87.95 131.76 155.55   87.70
   1   0  10  -7.993 176.257   2-0.19056 0.31801 0.89319-0.89319 0.40730 0.31793  0 352.72 486.62  316.02 352.67 486.81  316.08
  -1   0 -11 25200.4   524.5   2-0.05140-0.07606 0.91479-0.91479-0.40065-0.39671  0 229.85  20.66  267.56 229.73  20.82  267.58
  -1   0  11 29394.2   470.5   1-0.23249 0.10478-0.89877 0.89877 0.37170 0.42572  0 140.49  92.13  149.84 140.68  92.32  149.81
  -1   0  11 28600.6   566.7   2-0.05788-0.06960-0.91490 0.91490 0.39952 0.39764  0 155.59  74.57   86.64 155.58  74.78   86.66
   1   0 -11 25763.8   660.8   2 0.08047 0.04705-0.91484 0.91484-0.39572-0.40107  2 473.92 503.27  134.18 474.00 503.05  134.30
   1   0 -11 24542.3   531.3   2-0.04812 0.17559 0.90783-0.90783-0.41656-0.38080  0 160.62  69.72  266.55 160.58  69.82  266.56
   1   0  11 28368.3   522.9   1-0.17262 0.30033-0.88295 0.88295 0.43658 0.36084  0 103.52 152.32  154.89 103.31 152.45  154.95
   1   0  11 27907.5   528.3   2-0.06192 0.18941-0.90602 0.90602 0.41868 0.37848  0 109.13 139.29   85.43 108.78 139.38   85.43
  -1   0  12 -51.803 140.844   1-0.19203 0.06432-0.88879 0.88879 0.41614 0.45377  0 118.46  66.71  153.06 118.19  66.40  153.30
  -1   0  12-163.873 188.030   2-0.06524-0.06225-0.89826 0.89826 0.43460 0.43503  0 130.86  50.67   84.48 130.68  50.65   84.40
   1   0 -12  94.309 190.053   2-0.04103 0.16850 0.89195-0.89195-0.45028-0.41957  0 141.86  39.21  264.52 141.89  38.93  264.39
   1   0  12  96.393 152.902   1-0.14436 0.27207-0.87318 0.87318 0.46552 0.40439  0  77.73 131.94  157.41  77.77 132.00  157.34
   1   0  12 -12.896 161.368   2-0.06939 0.19688-0.88813 0.88813 0.45433 0.41530  0  81.84 121.46   83.12  82.00 121.28   83.11
  -1  -1   0   1.592  22.463   1-0.41161 0.28410 0.39711-0.49639-0.82030 0.82030  0 263.05 246.21   25.59 263.27 246.32   25.36
  -1  -1   0  11.124  14.155   2-0.23324 0.10578 0.16762-0.26703 0.95786-0.95786  0 340.79 257.77   10.73 340.80 257.71   10.68
  -1  -1   0   1.234  14.529   2 0.13122-0.25874-0.29971 0.20024-0.94496 0.94496  0 312.80 220.82  183.18 312.99 220.70  183.15
  -1   1   0   0.210  14.692   1-0.64666 0.51900-0.69901 0.79839-0.30531 0.30531  0 322.44 225.42  101.31 322.90 225.12  101.51
  -1   1   0  -0.349  15.343   2-0.21242 0.08496-0.14093 0.24035 0.96696-0.96696  0 307.88 219.49   28.56 307.63 219.41   28.49
  -1   1   0   0.721  16.049   2 0.09480-0.22230 0.25291-0.15341-0.96283 0.96283  0 340.52 262.96  215.39 340.35 263.30  215.30
   1  -1   0  17.487  16.007   1-0.54661 0.67427-0.83386 0.73448-0.07678 0.07678  0 277.81 289.45  117.40 277.95 289.57  117.80
   1  -1   0  -3.804  15.455   2-0.18611 0.31358-0.37003 0.27062 0.91019-0.91019  0 291.12 296.10   42.73 291.34 295.83   42.12
   1  -1   0   8.580  16.651   2 0.11680 0.01070 0.01823-0.11773-0.99299 0.99299  0 261.81 253.05  201.61 261.37 253.36  201.64
   1   1   0  -2.686  21.684   1-0.30990 0.43740 0.52952-0.43023-0.78967 0.78967  0 339.26 270.30   15.58 339.09 270.22   15.62
   1   1   0   2.981  13.549   2 0.11960 0.00792-0.02186 0.12132-0.99258 0.99258  0 285.94 294.17  199.45 285.94 294.08  199.36
   1   1   0  31.360  15.125   2-0.23734 0.36479 0.43568-0.33626 0.86825-0.86825  0 261.03 258.82  354.23 261.15 258.81  354.14
  -1  -1  -1  1709.7    65.2   1-0.20349 0.07598 0.64306-0.74234-0.73829 0.66570  0 257.68 255.97    6.03 257.86 255.91    6.23
  -1  -1  -1  1915.3    49.8   2-0.15687 0.02938-0.55300 0.45354 0.81828-0.89075  0 344.90 257.72   53.66 344.93 257.78   54.02
  -1  -1  -1  1797.3    49.1   2 0.07405-0.20155 0.40965-0.50916-0.90923 0.83674  0 314.18 216.99  225.18 314.22 217.01  224.88
  -1  -1   1  1452.4    58.1   1-0.60384 0.47633 0.03525-0.13453-0.79632 0.86891  0 263.38 236.72   48.99 263.51 236.71   49.04
  -1  -1   1  1655.7    53.9   2 0.11149-0.23901-0.76398 0.66452-0.63553 0.70802  0 304.92 215.11  150.70 305.03 215.18  150.69
  -1  -1   1  1601.4    53.0   2-0.22735 0.09991 0.65732-0.75679 0.71850-0.64598  0 343.91 267.27  339.04 343.98 267.26  338.74
  -1   1  -1  1645.9    60.6   1-0.60666 0.47899-0.76878 0.86816-0.20234 0.12985  0 338.33 234.71  109.01 338.38 234.78  108.99
  -1   1  -1  1748.9    52.9   2 0.13184-0.25936-0.34917 0.44864-0.92774 0.85525  0 344.49 263.42  179.96 344.50 263.43  180.14
  -1   1  -1  1572.2    50.0   2-0.23656 0.10910 0.47371-0.37429 0.84831-0.92087  0 308.68 215.71  351.80 308.80 215.78  351.67
  -1   1   1  1456.0    24.9   1-0.66686 0.53933-0.16770 0.26703-0.72607 0.79863  0 308.06 215.46   61.98 308.10 215.50   61.87
  -1   1   1  1815.5    57.9   2-0.14743 0.01995-0.60261 0.70207 0.78430-0.71183  0 300.40 214.94   57.49 300.48 215.03   57.51
  -1   1   1  1667.5    56.1   2 0.01888-0.14638 0.70123-0.60173-0.71269 0.78517  0 342.64 271.70  245.35 342.62 271.68  245.42
   1  -1  -1  1532.0    25.3   1-0.58406 0.71172-0.79729 0.69791-0.15233 0.07984  0 291.84 299.83  112.50 291.96 299.80  112.54
   1  -1  -1  1824.9    58.8   2 0.05468 0.07282 0.52911-0.62861-0.84679 0.77430  0 259.13 245.64  233.17 259.30 245.58  232.69
   1  -1   1  1555.1    57.5   1-0.52212 0.64978-0.85227 0.75289-0.03212 0.10462  0 263.78 279.74  120.88 263.90 279.74  120.90
   1  -1   1  1681.4    51.9   2-0.23540 0.36287 0.22947-0.32889 0.94442-0.87187  0 290.00 299.53    6.99 290.08 299.45    7.05
   1  -1   1  1740.9    52.6   2 0.12738 0.00015-0.58062 0.48115-0.80415 0.87664  0 257.49 253.32  164.80 257.67 253.29  165.02
   1   1  -1  1492.7    56.5   1-0.51885 0.64635 0.22055-0.12127-0.82593 0.75334  0 338.78 280.43   36.98 338.83 280.42   37.22
   1   1  -1  1477.0    51.7   2-0.20787 0.33532 0.81666-0.71719 0.53838-0.61090  0 258.11 249.94  325.21 258.28 249.91  324.85
   1   1   1  1959.1    49.1   2-0.19829 0.32575-0.27450 0.37392 0.94092-0.86837  0 257.19 258.75   36.06 257.46 258.72   36.34
   1   1   1  1726.5    47.0   2 0.02711 0.10039 0.66610-0.56660-0.74537 0.81785  0 284.63 297.78  242.74 284.71 297.69  242.61
  -1  -1  -2 28640.2   248.7   1-0.09884-0.02887-0.85441 0.75499 0.51011-0.65509  0 355.82 265.82  160.98 355.78 265.82  161.14
  -1  -1  -2 27746.4   203.2   2-0.07897-0.04852-0.86300 0.76354 0.49900-0.64394  0 355.30 265.79   79.79 355.32 265.81   80.12
  -1  -1  -2 25710.7   196.1   2 0.01014-0.13763 0.73608-0.83559-0.67682 0.53184  0 309.80 205.60  248.22 309.86 205.67  248.32
  -1  -1   2 20026.1   188.1   1-0.69149 0.56396-0.30593 0.20659-0.65441 0.79955  0 258.35 227.01   71.06 258.49 227.02   70.92
  -1  -1   2 25327.2   219.2   2 0.08039-0.20791-0.91507 0.81553-0.39521 0.54007  0 294.00 205.48  134.00 294.16 205.55  134.26
  -1  -1   2 23294.4   210.0   2-0.20800 0.08056 0.81594-0.91541 0.53943-0.39438  0 350.54 281.32  325.00 350.58 281.29  324.93
  -1   1  -2 24581.3   230.4   1-0.59513 0.46746-0.78408 0.88346-0.17618 0.03120  0 354.61 244.58  111.05 354.60 244.63  110.85
  -1   1  -2 25249.4   202.9   2 0.12137-0.24889-0.67201 0.77148-0.73052 0.58555  0 354.27 270.71  157.78 354.29 270.73  158.28
  -1   1  -2 23763.2   197.7   2-0.21153 0.08409 0.79504-0.69557 0.56848-0.71352  0 304.90 205.12  327.19 304.97 205.18  326.99
  -1   1   2 28407.2   236.1   2-0.10388-0.02360-0.78538 0.88484 0.61023-0.46529  0 290.08 206.19   71.94 290.21 206.26   72.25
  -1   1   2 25859.5   225.0   2-0.03606-0.09140 0.88021-0.78070-0.47321 0.61819  0 348.54 284.89  263.07 348.50 284.84  262.90
   1  -1  -2 15803.5    67.1   1-0.33222 0.45973 0.50267-0.60196-0.79809 0.65292  0 292.83 310.13   17.95 293.06 310.06   17.68
   1  -1  -2 22898.4   109.2   1-0.53682 0.66449-0.84166 0.74228-0.05853-0.08645  0 307.33 310.70  119.32 307.37 310.64  119.07
   1  -1  -2 27725.3   232.5   2-0.05998 0.18747-0.91042 0.81096 0.40932-0.55426  0 308.42 310.51   85.90 308.48 310.43   86.03
   1  -1  -2 27496.5   230.9   2 0.00781 0.11969 0.74492-0.84443-0.66710 0.52213  0 254.34 233.69  248.92 254.06 233.68  249.09
   1  -1   2 23016.8   220.8   1-0.49899 0.62666-0.86657 0.76719 0.00815 0.13683  0 250.00 270.14  123.83 249.86 270.14  123.69
   1  -1   2 24291.2   197.4   2 0.09603 0.03149-0.85519 0.75565-0.50935 0.65422  0 249.34 246.84  141.69 249.19 246.84  141.67
   1   1  -2 19247.3   182.5   1-0.63837 0.76591-0.06363 0.16297-0.76709 0.62195  0 344.50 291.06   54.83 344.51 291.05   55.26
   1   1  -2 20727.2   196.8   2-0.17808 0.30553 0.93079-0.83132 0.31924-0.46429  0 252.58 237.19  310.57 252.44 237.15  310.53
   1   1   2 27835.6   244.4   1 0.05468 0.07303-0.76632 0.86574 0.64013-0.49514  0 249.09 250.57  173.96 248.96 250.61  173.74
   1   1   2 28086.6   202.7   2-0.13478 0.26227-0.66313 0.76259 0.73627-0.59133  0 248.55 251.51   62.29 248.41 251.51   62.00
   1   1   2 22824.8   183.5   2-0.04776 0.17523 0.90718-0.80767-0.41802 0.56300  0 288.65 309.40  266.39 288.72 309.28  266.47
  -1  -1  -3 329.345  52.056   1-0.22876 0.10105-0.89799 0.79857 0.37587-0.59335  0 369.17 276.71  150.30 369.14 276.65  150.13
  -1  -1  -3 274.498  40.537   2-0.03564-0.09184-0.95647 0.85702 0.28963-0.50704  0 368.72 277.18   93.61 368.54 277.14   93.52
  -1  -1  -3 308.511  42.875   2-0.02133-0.10614 0.84071-0.94022-0.54107 0.32360  0 303.37 191.21  258.18 303.49 191.28  258.31
  -1  -1   3 204.858  35.114   1-0.69174 0.56421-0.53793 0.43859-0.48180 0.69951  0 249.66 217.14   87.49 249.72 217.18   87.53
  -1  -1   3 290.417  49.405   2 0.05764-0.18515-0.96879 0.86926-0.24107 0.45837  0 282.10 194.46  125.03 282.22 194.46  124.83
  -1  -1   3 321.420  48.361   2-0.19662 0.06918 0.87030-0.96977 0.45158-0.23401  0 358.80 297.42  319.03 358.59 297.28  318.96
  -1   1  -3 330.784  53.005   1-0.59563 0.46796-0.78345 0.88283-0.17728-0.04019  0 371.71 254.82  110.88 371.80 254.89  110.77
  -1   1  -3 303.617  45.199   2 0.10667-0.23419-0.79587 0.89540-0.59600 0.37869  0 367.01 281.53  148.01 367.04 281.52  147.73
  -1   1  -3 231.384  43.773   2-0.18357 0.05612 0.91575-0.81628 0.35735-0.57493  0 298.88 191.28  312.93 298.98 191.43  312.90
  -1   1   3 308.661  31.393   1-0.11395-0.01376-0.86102 0.96043 0.49565-0.27817  0 278.56 195.70  160.02 278.76 195.88  159.89
  -1   1   3 265.293  47.984   2-0.08194-0.04555-0.85509 0.95455 0.51197-0.29456  0 278.71 195.62   79.13 278.67 195.70   79.24
  -1   1   3 252.179  46.738   2-0.07032-0.05715 0.94920-0.84969-0.30672 0.52418  0 356.04 300.24  273.34 356.07 300.35  273.42
   1  -1  -3 273.371  31.517   1-0.57918 0.70684-0.80272 0.70334-0.14209-0.07538  0 322.12 322.20  113.33 322.16 322.23  113.26
   1  -1  -3 236.983  47.137   2-0.02906 0.15655-0.96620 0.86674 0.25614-0.47355  0 320.24 322.48   95.57 320.28 322.57   95.56
   1  -1  -3 265.146  42.673   2-0.01742 0.14488 0.82929-0.92880-0.55855 0.34109  0 247.51 220.05  257.02 247.41 219.98  257.11
   1  -1   3 271.571  44.495   1-0.47556 0.60322-0.87845 0.77907 0.04665 0.17082  0 235.89 260.67  126.34 235.72 260.63  126.36
   1  -1   3 262.935  37.375   2 0.06740 0.06012-0.94974 0.85020-0.30571 0.52302  0 238.75 237.58  129.03 238.46 237.63  128.73
   1   1  -3 223.772  39.483   1-0.68394 0.81147-0.25215 0.35149-0.68458 0.46687  0 354.87 302.28   67.32 354.74 302.28   67.35
   1   1  -3 248.226  46.774   2 0.09553 0.03199-0.85748 0.95702-0.50557 0.28827  0 316.30 323.31  141.37 316.47 323.38  141.42
   1   1  -3 252.784  40.715   2-0.15707 0.28452 0.97051-0.87104 0.18286-0.40043  0 245.52 223.01  302.33 245.39 223.04  302.24
   1   1   3 298.599  45.990   1-0.03614 0.16385-0.82325 0.92267 0.56652-0.34904  0 238.08 240.94  166.16 237.92 241.07  166.29
   1   1   3 267.868  36.128   2-0.09991 0.22740-0.79902 0.89847 0.59295-0.37554  0 237.34 241.75   73.48 237.27 241.74   73.53
  -1  -1  -4 20869.0   261.7   1-0.32314 0.19548-0.90888 0.80950 0.26366-0.55362  0 384.57 288.24  141.99 384.82 288.22  141.71
  -1  -1  -4 14465.9   207.9   2-0.00941-0.11811-0.98809 0.88856 0.15356-0.44330  0 383.37 290.11  101.87 383.47 290.06  101.72
  -1  -1  -4 18148.9   232.0   2-0.03546-0.09201 0.87870-0.97821-0.47605 0.18610  0 296.22 175.40  262.75 296.34 175.49  262.71
  -1  -1   4 16323.0   207.1   1-0.65518 0.52752-0.67906 0.57968-0.33108 0.62105  0 238.89 207.00   99.59 238.80 207.08   99.57
  -1  -1   4 19076.4   257.0   2 0.04061-0.16813-0.99037 0.89084-0.13233 0.42207  0 269.57 182.52  118.26 269.73 182.60  118.41
  -1  -1   4 16762.8   241.1   2-0.19116 0.06372 0.89106-0.99054 0.41166-0.12156  0 367.56 314.74  316.31 367.58 314.70  316.36
  -1   1  -4 17677.0   249.7   1-0.60175 0.47409-0.77552 0.87490-0.19097-0.09899  0 389.99 265.78  110.07 390.24 265.77  109.80
  -1   1  -4 18959.4   239.0   2 0.09788-0.22540-0.84620 0.94573-0.52380 0.23406  0 381.65 294.23  142.67 381.62 294.21  142.66
  -1   1  -4 17348.8   231.3   2-0.16152 0.03407 0.96396-0.86449 0.21140-0.50150  0 291.95 175.96  304.00 292.03 176.05  303.96
  -1   1   4 19589.7   172.3   1-0.20010 0.07239-0.89101 0.99043 0.40750-0.11753  0 264.27 185.34  152.63 264.50 185.50  152.61
  -1   1   4 19689.4   261.8   2-0.07104-0.05645-0.88398 0.98344 0.46209-0.17222  0 266.22 184.11   82.57 266.39 184.18   82.59
  -1   1   4 13309.4   218.7   2-0.09327-0.03419 0.97800-0.87849-0.18659 0.47654  0 364.84 317.54  280.66 364.71 317.48  280.62
   1  -1  -4 17012.8   160.9   1-0.60049 0.72815-0.77719 0.67781-0.18813-0.10183  0 337.85 334.96  110.00 337.87 334.86  110.00
   1  -1  -4 20035.2   263.2   2-0.00806 0.13557-0.98921 0.88968 0.14626-0.43600  0 333.18 336.44  101.95 333.18 336.31  102.15
   1  -1  -4 19113.6   253.9   2-0.03025 0.15771 0.86530-0.96481-0.50034 0.21039  0 240.01 205.33  260.98 239.89 205.32  261.10
   1  -1   4 18379.8   252.8   1-0.45152 0.57919-0.88825 0.78887 0.08448 0.20549  0 221.40 251.03  128.99 221.31 251.07  128.99
   1  -1   4 17011.8   223.7   2 0.04636 0.08116-0.98459 0.88506-0.16862 0.45836  0 226.68 227.29  120.47 226.55 227.30  120.53
   1  -1   4 17190.4   229.6   2-0.21025 0.33769 0.80292-0.90239 0.55778-0.26769  2 305.59 341.27  326.03 305.67 341.15  326.23
   1   1  -4 14483.0   198.4   1-0.69678 0.82432-0.36099 0.46033-0.61982 0.32955  0 368.08 314.49   74.73 368.10 314.45   74.65
   1   1  -4 18311.2   250.7   2 0.08881 0.03871-0.88591 0.98544-0.45528 0.16554  0 329.46 337.60  138.02 329.49 337.50  138.09
   1   1  -4 15983.8   231.9   2-0.14151 0.26897 0.98618-0.88667 0.08618-0.37613  0 237.79 208.13  296.59 237.67 208.14  296.56
   1   1   4 21492.6   266.0   1-0.08806 0.21577-0.84950 0.94892 0.52019-0.23022  0 225.63 231.21  162.00 225.55 231.27  162.03
   1   1   4 20476.2   241.2   2-0.08340 0.21089-0.85090 0.95036 0.51867-0.22879  0 225.25 231.09   79.06 225.12 231.10   78.78
  -1  -1  -5  3146.0   137.8   1-0.39391 0.26625-0.90345 0.80407 0.16913-0.53158  0 402.38 300.80  134.96 402.56 300.77  134.93
  -1  -1  -5  2897.1   126.5   2 0.00888-0.13639-0.99850 0.89896 0.05408-0.41625  0 399.87 304.44  107.56 400.10 304.40  107.56
  -1  -1  -5  2656.1   124.6   2-0.04153-0.08594 0.89312-0.99263-0.44790 0.08547  0 288.64 158.46  264.54 288.73 158.57  264.54
  -1  -1   5  2430.4   100.8   1-0.60869 0.48103-0.76591 0.66653-0.20707 0.56952  0 226.42 196.31  108.78 226.41 196.45  108.65
  -1  -1   5  2975.0   139.5   2 0.02656-0.15407-0.99850 0.89897-0.04785 0.41003  0 256.59 169.95  113.43 256.72 170.07  113.47
  -1  -1   5  2828.3   139.4   2-0.18916 0.06171 0.89802-0.99749 0.39721-0.03459  0 377.56 333.65  315.44 377.48 333.60  315.43
  -1   1  -5  2687.9   134.2   1-0.61060 0.48293-0.76317 0.86255-0.21152-0.15093  0 410.10 277.50  108.25 410.28 277.53  108.34
  -1   1  -5  2988.3   133.2   2 0.09329-0.22081-0.86757 0.96710-0.48849 0.12632  0 397.65 308.42  140.00 397.97 308.41  140.28
  -1   1  -5  2377.3   121.0   2-0.14448 0.01702 0.98406-0.88455 0.10370-0.46614  0 284.46 159.33  297.59 284.61 159.45  297.59
  -1   1   5  3160.7    90.6   1-0.22008 0.09237-0.89604 0.99546 0.38559-0.02312  0 250.21 174.30  151.29 250.12 174.48  150.89
  -1   1   5  3386.0   136.4   2-0.06632-0.06116-0.89566 0.99512 0.43976-0.07742  0 253.75 171.87   84.14 253.51 171.91   84.06
  -1   1   5  2881.8   142.1   2-0.11045-0.01702 0.98950-0.88999-0.09323 0.45567  0 374.44 336.29  286.00 374.30 336.17  286.10
   1  -1  -5  2651.9    92.4   1-0.61774 0.74540-0.75242 0.65304-0.22861-0.13384  0 354.52 348.97  107.04 354.51 348.86  107.11
   1  -1  -5  3059.9   141.9   2 0.00785 0.11967-0.99818 0.89864 0.05988-0.42205  0 347.28 351.83  107.04 347.21 351.70  107.22
   1  -1  -5  3002.7   128.6   2-0.03633 0.16380 0.88089-0.98040-0.47193 0.10949  0 231.75 189.77  263.02 231.67 189.82  262.98
   1  -1   5  2863.8   125.3   1-0.42674 0.55440-0.89612 0.79674 0.12194 0.24052  0 206.57 241.20  131.61 206.51 241.28  131.60
   1  -1   5  2804.6   115.9   2 0.02997 0.09754-0.99727 0.89774-0.06742 0.42959  0 213.88 216.34  114.58 213.74 216.36  114.62
   1  -1   5  2579.5   125.2   2-0.20528 0.33273 0.83076-0.93024 0.51739-0.15477  0 312.58 359.49  323.39 312.70 359.38  323.39
   1   1  -5  1651.9   108.8   1-0.69896 0.82650-0.42075 0.52008-0.57829 0.21545  0 383.69 327.90   79.08 383.83 327.85   78.82
   1   1  -5  2922.2   142.8   2 0.08570 0.04181-0.89704 0.99657-0.43357 0.07139  0 343.56 353.26  136.74 343.53 353.12  136.69
   1   1  -5  2549.3   120.3   2-0.12860 0.25606 0.99165-0.89214 0.00975-0.37219  0 229.33 192.51  291.99 229.27 192.52  292.10
   1   1   5  3208.6   126.8   1-0.11533 0.24304-0.86160 0.96101 0.49432-0.13185  0 212.25 221.05  159.97 212.20 221.14  159.77
   1   1   5  3117.6   120.6   2-0.07557 0.20306-0.87221 0.97167 0.48325-0.12091  0 212.28 219.97   81.00 212.15 220.00   81.18
   1   1   5  1386.8   102.1   2-0.12500 0.25246 0.99209-0.89258-0.01114 0.37358  0 308.26 359.54  291.00 308.24 359.44  290.88
  -1  -1  -6 19545.2   305.3   1-0.44955 0.32189-0.88896 0.78958 0.08751-0.52245  0 422.34 314.85  128.88 422.53 314.74  129.20
  -1  -1  -6 20083.2   309.1   2 0.02269-0.15020-0.99943 0.89989-0.02517-0.40944  0 418.50 320.33  112.00 418.66 320.20  112.15
  -1  -1  -6 17648.8   293.4   2-0.04317-0.08430 0.89692-0.99643-0.44009 0.00516  0 280.60 140.33  264.98 280.73 140.46  265.05
  -1  -1   6 17908.5   264.4   1-0.56091 0.43325-0.82122 0.72184-0.10472 0.53966  0 212.93 184.99  115.99 212.89 185.10  115.87
  -1  -1   6 19581.9   314.8   2 0.01448-0.14199-0.99964 0.90010 0.02272 0.41189  0 243.17 156.67  109.27 243.07 156.81  109.37
  -1  -1   6 16581.7   302.1   2-0.18919 0.06175 0.89791-0.99738 0.39745 0.03769  0 388.08 354.33  315.44 388.41 354.25  315.45
  -1   1  -6 16839.6   296.4   1-0.62081 0.49315-0.74755 0.84693-0.23615-0.19880  0 432.18 290.54  106.60 432.37 290.51  106.56
  -1   1  -6 18896.6   303.3   2 0.09142-0.21893-0.87538 0.97492-0.47471 0.04010  0 415.97 324.23  139.30 416.27 324.19  139.37
  -1   1  -6 16088.4   283.1   2-0.12991 0.00244 0.99137-0.89186 0.01737-0.45230  0 276.49 141.47  292.55 276.65 141.59  292.55
  -1   1   6 20768.3   240.7   1-0.21754 0.08983-0.89545 0.99487 0.38839 0.04657  0 235.52 162.38  150.76 235.50 162.58  151.11
  -1   1   6 19352.3   314.3   2-0.06510-0.06239-0.89859 0.99805 0.43393 0.00089  0 240.09 158.78   84.40 239.93 158.86   84.44
  -1   1   6 17438.2   309.9   2-0.12417-0.00329 0.99213-0.89262-0.01587 0.45079  0 384.73 356.78  290.66 384.93 356.69  290.60
   1  -1  -6 16053.1   220.2   1-0.63310 0.76076-0.72641 0.62703-0.26741-0.16753  0 372.38 364.76  104.13 372.35 364.58  104.29
   1  -1  -6 18664.4   317.7   2 0.02047 0.10704-0.99971 0.90018-0.01245-0.42216  0 362.71 369.07  111.39 362.57 368.87  111.41
   1  -1  -6 17706.1   301.6   2-0.03864 0.16610 0.88624-0.98575-0.46162 0.02670  0 222.81 173.38  263.66 222.70 173.40  263.65
   1  -1   6 18548.0   303.4   1-0.40100 0.52867-0.90215 0.80277 0.15913 0.27581  0 191.11 231.02  134.03 191.11 231.07  134.22
   1  -1   6 19040.3   296.1   2 0.01605 0.11146-0.99978 0.90024 0.01373 0.42088  0 200.10 204.86  109.93 200.02 204.90  109.89
   1  -1   6 17082.7   290.7   2-0.20301 0.33046 0.84215-0.94162 0.49958-0.06443  0 320.09 379.68  321.97 320.20 379.51  322.18
   1   1  -6 14361.8   250.0   1-0.69861 0.82615-0.45122 0.55056-0.55528 0.11987  0 401.41 342.90   80.80 401.81 342.88   81.01
   1   1  -6 17489.8   309.4   2 0.08497 0.04254-0.89954 0.99908-0.42849-0.00612  0 358.85 370.65  136.26 358.79 370.50  136.36
   1   1  -6 16336.0   288.9   2-0.11727 0.24473 0.99157-0.89206-0.05502-0.37991  0 220.24 176.03  288.21 220.17 176.07  288.33
   1   1   6 20199.7   304.9   1-0.12712 0.25483-0.86638 0.96580 0.48294-0.04798  0 197.95 210.39  159.09 197.94 210.49  158.79
   1   1   6 19795.0   298.7   2-0.07274 0.20023-0.87966 0.97912 0.47001-0.03520  0 198.40 208.45   81.91 198.29 208.46   82.07
   1   1   6 17397.5   289.8   2-0.13739 0.26486 0.98860-0.88909 0.06160 0.37333  0 315.68 379.84  294.96 315.66 379.67  295.12
  -1  -1  -7  1568.2   155.5   1-0.49483 0.36717-0.86886 0.76948 0.01515-0.52258  0 445.07 330.66  124.19 445.11 330.61  124.18
  -1  -1  -7  1710.9   164.3   2 0.03404-0.16156-0.99513 0.89559-0.09254-0.41451  0 439.51 337.93  115.99 439.68 337.86  116.09
  -1  -1  -7  1346.9   155.4   2-0.04228-0.08519 0.89486-0.99437-0.44435-0.06306  0 272.22 120.82  264.99 272.28 120.87  264.78
  -1  -1   7  1364.3   115.2   1-0.51410 0.38643-0.85755 0.75817-0.01778 0.52522  0 198.41 172.74  121.75 198.36 172.82  121.90
  -1  -1   7  1591.5   136.4   2 0.00332-0.13083-0.99641 0.89688 0.08456 0.42249  0 228.58 142.50  105.89 228.59 142.67  105.76
  -1  -1   7  1428.0   174.5   2-0.19049 0.06305 0.89343-0.99290 0.40681 0.10085  0 400.33 377.12  316.36 400.59 377.14  316.05
  -1   1  -7  1297.1   160.6   1-0.63158 0.50392-0.72919 0.82857-0.26342-0.24401  0 457.01 305.19  104.65 457.12 305.12  104.59
  -1   1  -7  1560.3   162.7   2 0.09135-0.21886-0.87567 0.97520-0.47420-0.03285  0 436.82 341.94  139.27 437.00 341.87  139.33
  -1   1  -7  1349.8   157.5   2-0.11717-0.01029 0.99156-0.89204-0.05558-0.45183  0 267.98 122.22  288.34 268.17 122.24  288.30
  -1   1   7  1557.9   101.0   1-0.20421 0.07650-0.89216 0.99158 0.40293 0.10452  0 220.49 149.41  152.01 220.45 149.52  152.25
  -1   1   7  1628.3   141.8   2-0.06607-0.06142-0.89628 0.99574 0.43853 0.06875  0 225.54 144.88   83.99 225.47 144.92   84.14
  -1   1   7  1250.1   142.3   2-0.13567 0.00820 0.98942-0.88991 0.05135 0.45606  0 396.64 379.45  294.56 396.80 379.48  294.53
   1  -1  -7  1283.2   125.4   1-0.64666 0.77432-0.69902 0.59964-0.30530-0.20214  0 391.53 382.65  101.54 391.75 382.59  101.51
   1  -1  -7  1451.0   175.8   2 0.03138 0.09613-0.99663 0.89709-0.07579-0.43125  0 379.72 388.29  114.95 379.61 388.26  115.11
   1  -1  -7  1322.1   133.4   2-0.03839 0.16585 0.88563-0.98514-0.46280-0.04461  0 213.03 155.73  263.55 212.91 155.86  263.57
   1  -1   7  1491.9   126.1   1-0.37438 0.50205-0.90628 0.80690 0.19620 0.31123  0 174.89 220.24  136.92 174.91 220.27  136.85
   1  -1   7  1178.2   122.3   2 0.00363 0.12388-0.99656 0.89703 0.08278 0.42426  0 185.33 192.91  106.03 185.20 192.89  105.87
   1  -1   7  1309.1   161.2   2-0.20254 0.32998 0.84444-0.94391 0.49588 0.01179  0 328.17 402.02  322.00 328.22 401.91  321.92
   1   1  -7  1240.9   150.9   1-0.69820 0.82573-0.46347 0.56281-0.54563 0.03765  0 421.89 360.04   82.04 422.17 360.05   81.91
   1   1  -7  1565.7   177.2   2 0.08574 0.04178-0.89691 0.99644-0.43383-0.07321  0 375.68 390.12  136.91 375.71 390.07  136.71
   1   1  -7  1340.7   130.8   2-0.10690 0.23436 0.98787-0.88836-0.11259-0.39482  0 210.31 158.55  284.67 210.26 158.54  284.97
   1   1   7  1575.2   127.4   1-0.12840 0.25611-0.86689 0.96630 0.48168 0.02577  0 182.74 198.96  158.70 182.71 199.07  158.68
   1   1   7  1633.2   131.4   2-0.07277 0.20026-0.87958 0.97904 0.47015 0.03713  0 183.34 196.39   82.00 183.36 196.44   82.06
   1   1   7  1369.6   156.4   2-0.14767 0.27513 0.98122-0.88170 0.12414 0.38328  0 323.54 402.30  299.02 323.53 402.12  298.78
  -1  -1  -8  7892.1   264.5   1-0.53234 0.40468-0.84502 0.74564-0.05053-0.52939  0 470.97 349.16  119.67 471.04 348.99  119.63
  -1  -1  -8  7376.2   269.1   2 0.04375-0.17126-0.98736 0.88782-0.15235-0.42713  0 463.84 357.99  119.57 463.91 357.88  119.58
  -1  -1  -8  7400.4   274.3   2-0.03976-0.08770 0.88894-0.98845-0.45630-0.12360  0 263.09  99.27  264.00 263.25  99.42  264.00
  -1  -1   8  7604.3   221.4   1-0.46824 0.34057-0.88167 0.78229 0.05836 0.52156  0 182.72 159.13  126.98 182.79 159.25  127.17
  -1  -1   8  8061.6   260.9   2-0.00703-0.12048-0.99002 0.89049 0.14072 0.43876  0 213.03 127.18  102.43 213.01 127.40  102.47
  -1  -1   8  7064.2   285.9   2-0.19263 0.06519 0.88581-0.98528 0.42218 0.15801  0 414.14 403.03  317.00 414.36 402.94  317.04
  -1   1  -8  7007.7   270.3   1-0.64220 0.51454-0.70850 0.80789-0.29257-0.28735  0 485.27 322.07  102.44 485.42 321.96  102.45
  -1   1  -8  8070.8   284.1   2 0.09248-0.21999-0.87111 0.97065-0.48230-0.09718  0 460.66 362.04  139.95 460.88 361.98  139.87
  -1   1  -8  6619.7   259.6   2-0.10557-0.02189 0.98716-0.88765-0.11989-0.46001  0 258.93 100.80  284.54 259.09 101.02  284.54
  -1   1   8  8522.0   202.8   1-0.18473 0.05702-0.88668 0.98610 0.42387 0.15607  0 204.72 134.74  154.35 204.79 134.95  153.92
  -1   1   8  8013.7   260.0   2-0.06850-0.05899-0.89035 0.98980 0.45010 0.12965  0 209.98 129.72   83.31 209.89 129.85   83.38
  -1   1   8  7421.8   288.8   2-0.14581 0.01835 0.98298-0.88347 0.11177 0.46813  0 410.09 405.29  298.29 410.22 405.21  298.06
   1  -1  -8  6666.7   208.6   1-0.65913 0.78666-0.66922 0.56988-0.34307-0.23748  0 412.88 403.80   98.78 413.42 403.79   98.66
   1  -1  -8  7355.4   284.6   2 0.04077 0.08675-0.99024 0.89071-0.13326-0.44622  0 398.69 410.71  118.44 398.85 410.49  118.46
   1  -1  -8  7808.1   256.8   2-0.03639 0.16385 0.88102-0.98053-0.47168-0.10822  0 202.20 136.77  263.01 202.14 136.88  263.00
   1  -1   8  7449.9   239.0   1-0.34671 0.47437-0.90853 0.80915 0.23316 0.34676  0 157.59 208.51  139.46 157.62 208.61  139.50
   1  -1   8  8297.5   250.4   2-0.00764 0.13516-0.98954 0.89001 0.14403 0.43545  0 169.04 180.08  102.22 169.02 180.18  102.28
   1  -1   8  7648.5   275.5   2-0.20325 0.33070 0.84097-0.94045 0.50145 0.07874  0 336.80 427.32  322.29 336.87 427.17  322.30
   1   1  -8  6171.7   241.9   1-0.69819 0.82572-0.46365 0.56299-0.54549-0.03506  0 444.99 380.06   82.00 445.39 380.06   81.92
   1   1  -8  7917.6   294.0   2 0.08755 0.03996-0.89072 0.99025-0.44605-0.13343  0 394.45 412.57  137.46 394.72 412.44  137.49
   1   1  -8  7264.7   249.9   2-0.09719 0.22465 0.98142-0.88191-0.16545-0.41445  0 199.37 139.59  282.00 199.34 139.62  281.87
   1   1   8  8494.3   244.4   1-0.12227 0.24998-0.86443 0.96384 0.48766 0.09228  0 166.27 186.46  159.24 166.34 186.60  159.19
   1   1   8  8216.2   244.9   2-0.07464 0.20213-0.87469 0.97415 0.47890 0.10086  0 167.09 183.72   81.45 167.09 183.78   81.48
   1   1   8  7113.1   266.5   2-0.15671 0.28415 0.97100-0.87153 0.18057 0.39963  0 332.02 427.58  302.00 332.03 427.43  302.11
  -1  -1  -9 125.921 149.771   1-0.56405 0.43638-0.81821 0.71883-0.11126-0.54116  0 500.98 370.90  115.51 501.28 370.84  115.42
  -1  -1  -9  -6.760 149.014   2 0.05242-0.17994-0.97691 0.87737-0.20712-0.44479  0 492.59 381.04  122.48 492.45 381.02  122.80
  -1  -1  -9  55.255 105.164   2-0.03601-0.09145 0.88009-0.97960-0.47344-0.17894  0 253.57  75.57  263.13 253.51  75.55  262.88
  -1  -1   9  -2.185  87.993   1-0.42346 0.29579-0.89700 0.79762 0.12677 0.52565  0 165.95 144.29  132.10 165.94 144.03  131.94
  -1  -1   9-105.388  99.177   2-0.01714-0.11035-0.98101 0.88155 0.19321 0.45901  0 196.19 110.51   99.49 195.91 110.66   99.32
  -1  -1   9 160.327 164.777   2-0.19529 0.06784 0.87565-0.97512 0.44170 0.21102  0 429.77 432.45  318.42 430.23 432.60  318.31
  -1   1  -9  50.489 156.114   2 0.09431-0.22183-0.86305 0.96258-0.49624-0.15567  0 489.52 385.61  140.50 489.03 385.32  140.80
  -1   1  -9 148.375  98.831   2-0.09482-0.03265 0.97939-0.87988-0.17832-0.47407  0 249.35  77.44  280.94 249.22  77.37  281.10
  -1   1   9  55.134  77.281   1-0.16097 0.03326-0.87905 0.97847 0.44873 0.20370  0 188.41 118.42  155.46 188.22 118.41  155.94
  -1   1   9  69.208 110.472   2-0.07200-0.05549-0.88158 0.98104 0.46651 0.18571  0 193.10 113.04   82.47 192.84 113.35   82.30
  -1   1   9-117.234 159.228   2-0.15468 0.02723 0.97361-0.87414 0.16780 0.48491  0 425.84 435.17  301.58 425.75 434.85  301.35
   1  -1  -9   1.892 121.857   1-0.66973 0.79726-0.63782 0.53848-0.38033-0.27278  0 437.41 428.53   95.45 437.57 428.99   95.80
   1  -1  -9  14.175 162.428   2 0.04917 0.07834-0.98121 0.88167-0.18660-0.46532  0 420.97 436.23  121.49 421.05 436.41  121.58
   1  -1  -9  73.399  99.571   2-0.03334 0.16080 0.87334-0.97285-0.48596-0.16642  0 190.01 116.03  261.99 190.09 116.03  262.05
   1  -1   9 113.419  88.271   1-0.31805 0.44572-0.90879 0.80941 0.27007 0.38234  0 139.02 195.95  142.43 138.98 195.80  142.18
   1  -1   9 -98.561  87.088   2-0.01849 0.14598-0.97954 0.88008 0.20040 0.45183  0 151.41 166.55   98.56 151.08 166.56   98.89
   1  -1   9  47.001 142.316   2-0.20477 0.33222 0.83338-0.93285 0.51337 0.13935  0 346.54 456.25  323.07 346.34 456.17  323.12
   1   1  -9  87.939 143.230   1-0.69850 0.82603-0.45518 0.55451-0.55219-0.10093  0 472.19 404.11   81.59 472.24 403.95   81.30
   1   1  -9  31.285 161.300   2 0.08986 0.03766-0.88175 0.98129-0.46308-0.18884  0 416.51 438.30  138.55 416.60 438.53  138.60
   1   1  -9 113.696 100.782   2-0.08793 0.21539 0.97264-0.87312-0.21505-0.43733  0 186.94 118.92  278.86 187.11 118.86  278.93
   1   1   9  74.834  87.774   1-0.11054 0.23825-0.85958 0.95899 0.49891 0.15353  0 148.29 172.41  160.37 148.55 172.74  160.17
   1   1   9  36.165  89.215   2-0.07777 0.20526-0.86629 0.96574 0.49346 0.15876  0 149.16 170.38   80.46 149.10 170.30   80.50
   1   1   9  72.090 137.600   2-0.16491 0.29236 0.95851-0.85904 0.23250 0.42021  0 341.43 456.33  305.59 341.20 456.39  305.24
  -1  -1 -10  1405.9   176.8   2-0.03157-0.09589 0.86878-0.96829-0.49419-0.23068  0 242.88  48.40  261.47 242.76  48.43  261.51
  -1  -1  10  1554.0   166.1   1-0.37925 0.25159-0.90567 0.80629 0.18955 0.53535  0 147.40 126.46  136.24 147.48 126.51  136.38
  -1  -1  10  1386.5   182.6   2-0.02647-0.10102-0.96976 0.87030 0.24264 0.48206  0 177.03  91.91   96.33 176.98  92.09   96.37
  -1  -1  10  1489.6   250.3   2-0.19832 0.07088 0.86325-0.96272 0.46419 0.26105  0 449.01 467.93  319.60 448.91 467.56  319.79
  -1   1 -10  1397.9   173.7   2-0.08460-0.04287 0.96889-0.86938-0.23259-0.49229  0 238.40  50.40  277.68 238.27  50.49  277.88
  -1   1  10  1837.8   170.7   1-0.13408 0.00637-0.86911 0.96853 0.47610 0.24883  0 170.41  99.17  158.17 170.46  99.21  158.21
  -1   1  10  1616.9   185.5   2-0.07626-0.05123-0.87039 0.96985 0.48642 0.23827  0 173.92  94.90   80.63 173.85  95.01   80.97
  -1   1  10  1288.4   242.4   2-0.16287 0.03543 0.96178-0.86231 0.22010 0.50514  0 443.83 469.71  304.46 443.96 469.77  304.48
   1  -1 -10  1165.6   186.1   1-0.67919 0.80672-0.60359 0.50426-0.41759-0.30810  0 464.98 459.59   93.00 465.37 459.78   92.85
   1  -1 -10  1463.9   258.2   2 0.05699 0.07052-0.96985 0.87032-0.23693-0.48742  0 447.24 467.62  124.57 447.30 467.42  124.58
   1  -1 -10  1757.1   198.2   2-0.02943 0.15689 0.86312-0.96263-0.50414-0.22074  0 176.54  92.72  260.74 176.41  92.68  260.84
   1  -1  10  1645.8   193.1   1-0.28819 0.41586-0.90706 0.80768 0.30691 0.41800  0 118.80 181.50  144.84 118.50 181.42  144.90
   1  -1  10  1573.5   171.1   2-0.02839 0.15588-0.96714 0.86768 0.25265 0.47205  0 130.99 151.89   95.63 130.97 151.84   95.77
   1  -1  10  1494.4   227.8   2-0.20681 0.33425 0.82252-0.92200 0.52980 0.19544  0 356.91 489.97  324.03 356.88 490.20  324.25
   1   1 -10  1077.9   209.0   1-0.69889 0.82643-0.43997 0.53930-0.56390-0.16179  2 503.15 433.20   80.00 503.86 433.18   80.20
   1   1 -10  1470.8   247.2   2 0.09264 0.03487-0.87041 0.96994-0.48353-0.24081  0 442.40 469.77  139.96 442.41 469.70  139.95
   1   1 -10  1567.1   183.3   2-0.07901 0.20647 0.96174-0.86222-0.26234-0.46254  0 173.06  95.64  276.34 173.25  95.67  276.11
   1   1  10  1453.3   163.5   1-0.09459 0.22230-0.85250 0.95191 0.51410 0.21082  0 129.00 157.01  161.43 128.98 157.02  161.49
   1   1  10  1720.6   197.5   2-0.08198 0.20947-0.85498 0.95444 0.51215 0.21255  0 128.83 155.73   79.02 128.90 155.73   79.23
   1   1  10  1441.8   216.6   2-0.17238 0.29983 0.94396-0.84449 0.28146 0.44378  0 351.25 489.86  308.32 351.36 490.33  308.20
  -1  -1 -11 196.733 160.363   2-0.02651-0.10096 0.85523-0.95474-0.51757-0.27979  0 230.68  17.08  259.87 230.67  16.93  259.93
  -1  -1  11 125.315 117.508   1-0.33508 0.20742-0.90891 0.80953 0.24818 0.54921  0 127.21 106.11  140.25 126.93 105.99  140.59
  -1  -1  11  91.036 159.142   2-0.03570-0.09178-0.95638 0.85692 0.28995 0.50721  0 155.39  71.25   93.50 155.47  71.01   93.50
  -1   1 -11  53.948 157.797   2-0.07482-0.05264 0.95596-0.85644-0.28381-0.51355  0 225.73  19.62  274.82 225.93  19.27  274.81
  -1   1  11 364.323 129.941   1-0.10395-0.02376-0.85667 0.95608 0.50529 0.29213  0 150.88  76.26  160.37 151.02  76.45  160.72
  -1   1  11 150.460 159.989   2-0.08127-0.04622-0.85698 0.95644 0.50890 0.28826  0 152.64  74.61   79.57 152.26  74.23   79.45
   1  -1 -11 226.325 216.171   1-0.68710 0.81463-0.56665 0.46732-0.45475-0.34350  0 498.07 498.02   90.04 498.11 498.49   89.81
   1  -1 -11 278.282 168.049   2-0.02481 0.15228 0.85061-0.95013-0.52520-0.27216  0 160.62  65.98  259.40 160.57  65.98  259.41
   1  -1  11 211.341 136.109   1-0.25705 0.38471-0.90322 0.80384 0.34370 0.45370  0  95.77 165.06  147.30  95.53 164.85  147.67
   1  -1  11 252.410 131.219   2-0.03811 0.16560-0.95247 0.85301 0.30224 0.49492  0 108.29 135.72   92.56 107.92 135.56   92.75
   1   1 -11  18.812 158.305   2-0.07009 0.19755 0.94884-0.84933-0.30787-0.48950  0 157.17  69.13  273.59 157.21  69.22  273.35
   1   1  11  99.877 135.611   1-0.07483 0.20254-0.84327 0.94269 0.53225 0.26517  0 107.17 138.78  163.55 107.10 138.84  163.12
   1   1  11 -30.868 123.367   2-0.08673 0.21421-0.84115 0.94061 0.53380 0.26336  0 106.49 139.74   77.44 105.78 139.69   77.73
  -1  -1  12  2855.0   274.0   1-0.29090 0.16323-0.90729 0.80791 0.30364 0.56624  0 103.44  80.81  144.59 103.65  81.32  144.66
  -1  -1  12  3153.2   340.9   2-0.04485-0.08264-0.94091 0.84146 0.33566 0.53397  0 130.33  46.24   90.61 130.43  46.52   90.68
  -1   1  12  3020.0   267.6   1-0.07099-0.05672-0.84139 0.94081 0.53575 0.33417  0 129.28  48.42  163.41 129.37  48.88  163.43
  -1   1  12  2724.3   282.2   2-0.08663-0.04085-0.84143 0.94089 0.53338 0.33625  0 127.53  50.20   78.03 127.14  50.15   77.76
   1  -1 -12  2900.2   291.7   2-0.01969 0.14716 0.83594-0.93545-0.54847-0.32138  0 142.04  34.99  258.00 141.84  34.73  257.80
   1  -1  12  2858.5   270.6   1-0.22469 0.35240-0.89708 0.79766 0.38048 0.48944  0  69.34 145.33  150.41  69.13 145.28  150.49
   1  -1  12  3325.2   306.4   2-0.04769 0.17518-0.93560 0.83614 0.34983 0.51979  0  81.43 117.14   89.68  80.98 117.23   89.80
   1   1 -12  2938.0   333.3   2-0.06130 0.18876 0.93396-0.83444-0.35209-0.51776  0 138.07  38.18  270.61 138.25  38.30  270.62
   1   1  12  3394.6   305.7   1-0.05197 0.17968-0.83176 0.93118 0.55270 0.31722  0  82.21 116.99  164.85  82.05 117.09  164.99
   1   1  12  3254.7   300.4   2-0.09192 0.21940-0.82496 0.92442 0.55767 0.31196  0  79.02 121.62   75.93  78.72 121.67   76.07
  -1  -2   0 30593.1   268.4   1-0.52959 0.40208 0.19985-0.39841-0.82438 0.82438  0 244.04 256.18   38.58 243.98 256.13   38.56
  -1  -2   0 37366.8   266.0   2-0.22438 0.09692 0.00357-0.20240 0.97449-0.97449  0 358.07 277.07   19.79 358.10 277.09   20.15
  -1  -2   0 34457.2   256.2   2 0.12970-0.25722-0.22348 0.02455-0.96604 0.96604  0 300.14 200.16  187.68 300.25 200.23  187.68
  -1   2   0 27464.9   208.3   1-0.69119 0.56366-0.30342 0.50209-0.65589 0.65589  0 340.47 213.49   70.84 340.45 213.55   70.75
  -1   2   0 34499.5   268.2   2-0.22392 0.09646-0.00327 0.20211 0.97460-0.97460  0 291.86 201.00   20.55 292.02 201.08   20.55
  -1   2   0 34092.8   265.8   2 0.10025-0.22775 0.20457-0.00557-0.97370 0.97370  0 354.52 284.98  212.42 354.51 284.95  212.44
   1  -2   0 25006.8   200.0   1-0.68451 0.81204-0.57967 0.38100-0.44206 0.44206  0 261.82 299.63   90.99 262.00 299.57   90.87
   1  -2   0 38099.3   280.2   2-0.19908 0.32654-0.26789 0.06905 0.94266-0.94266  0 306.52 315.64   36.09 306.59 315.57   35.94
   1  -2   0 35641.2   271.1   2 0.12217 0.00535-0.06202-0.13691-0.99057 0.99057  0 249.03 233.83  196.87 248.87 233.79  197.05
   1   2   0 33646.8   283.4   1-0.40804 0.53555 0.40224-0.20368-0.81958 0.81958  0 361.74 259.83   24.99 361.68 259.83   24.99
   1   2   0 34397.8   253.8   2-0.23681 0.36427 0.29208-0.09324 0.92661-0.92661  0 246.18 241.28    3.01 246.01 241.25    3.31
  -1  -2  -1 54245.3   362.8   1-0.40529 0.27779 0.40616-0.60473-0.81900 0.74642  0 241.95 265.76   24.93 241.88 265.70   24.72
  -1  -2  -1 65774.7   355.0   2-0.18661 0.05914-0.36647 0.16764 0.91153-0.98407  0 361.65 276.16   42.17 361.69 276.19   41.90
  -1  -2  -1 57085.9   331.9   2 0.10706-0.23456 0.13658-0.33559-0.98483 0.91234  0 302.09 197.35  208.45 302.15 197.41  208.47
  -1  -2   1 46927.3   336.1   1-0.62866 0.50112-0.03377-0.16491-0.77695 0.84952  0 242.53 246.61   53.25 242.42 246.59   53.38
  -1  -2   1 59550.5   354.2   2 0.12934-0.25687-0.53959 0.34066-0.83193 0.90442  0 294.55 197.82  168.16 294.65 197.89  167.87
  -1   2  -1 44561.7   302.2   1-0.69699 0.56946-0.48636 0.68504-0.52693 0.45436  0 353.82 223.33   83.59 353.76 223.41   83.60
  -1   2  -1 54741.8   340.0   2 0.12544-0.25296-0.12468 0.32361-0.98424 0.91175  0 358.26 284.39  193.40 358.22 284.33  193.45
  -1   2   1 49824.2   241.6   1-0.59062 0.46311 0.06816 0.13041-0.80407 0.87665  0 330.17 203.47   47.45 330.16 203.54   46.96
  -1   2   1 58017.9   361.2   2-0.19404 0.06658-0.31042 0.50926 0.93058-0.85804  0 286.75 199.31   38.46 286.91 199.38   38.48
  -1   2   1 61620.1   371.0   2 0.05891-0.18641 0.50496-0.30595-0.86113 0.93362  0 354.73 290.70  230.90 354.71 290.65  231.06
   1  -2  -1 40305.7   218.5   1-0.69788 0.82541-0.37968 0.18101-0.60730 0.53473  0 271.02 309.86   76.00 271.21 309.76   75.94
   1  -2  -1 63379.7   375.6   2-0.15698 0.28447-0.55238 0.35346 0.81868-0.89115  0 311.73 317.89   54.06 311.81 317.86   53.98
   1  -2  -1 60335.1   367.0   2 0.09431 0.03319 0.25719-0.45619-0.96175 0.88926  0 248.82 228.64  215.58 248.65 228.63  215.55
   1  -2   1 42326.7   295.2   1-0.65132 0.77899-0.68838 0.48962-0.31924 0.39174  0 250.63 289.74  100.44 250.51 289.72  100.46
   1  -2   1 55982.9   357.2   2-0.22759 0.35506 0.05531-0.25415 0.97218-0.89964  2 304.84 318.57   16.84 304.78 318.51   17.18
   1  -2   1 56594.5   345.1   2 0.13212-0.00460-0.39941 0.20048-0.90720 0.97969  0 245.86 234.55  176.86 245.71 234.53  177.02
   1   2  -1 54512.8   363.3   1-0.53247 0.65997 0.19424 0.00433-0.82386 0.75128  0 363.67 270.37   39.00 363.54 270.39   38.92
   1   2  -1 53487.7   333.6   2-0.23229 0.35973 0.58546-0.38651 0.77671-0.84924  0 245.50 235.54  343.88 245.36 235.53  344.07
   1   2   1 49148.9   345.3   1-0.25191 0.37942 0.59442-0.39586-0.76368 0.83626  0 364.19 249.29   10.41 364.19 249.27   10.43
   1   2   1 62269.9   344.6   2-0.21951 0.34698-0.06104 0.25988 0.97370-0.90115  0 243.18 242.25   24.14 243.05 242.22   23.88
  -1  -2  -2  5913.7   131.5   1-0.28446 0.15695 0.55887-0.75743-0.77894 0.63376  0 236.58 275.44   13.22 236.49 275.35   13.32
  -1  -2  -2  7081.3   133.8   2-0.13772 0.01024-0.64963 0.45071 0.74767-0.89261  0 369.38 280.51   61.03 369.41 280.54   60.97
  -1  -2  -2  5986.7   124.1   2 0.07257-0.20007 0.41953-0.61853-0.90484 0.75986  0 300.55 189.64  225.50 300.62 189.68  225.50
  -1  -2   2  4639.2   116.9   1-0.68418 0.55665-0.25362 0.05495-0.68379 0.82893  0 237.62 236.97   67.39 237.49 236.94   67.45
  -1  -2   2  5797.0   131.2   2 0.11380-0.24132-0.74506 0.54613-0.65722 0.80219  0 286.15 191.61  152.08 286.29 191.68  152.34
  -1  -2   2  5974.4   133.4   2-0.23443 0.10699 0.54427-0.74322 0.80549-0.66044  0 362.92 294.25  347.00 362.85 294.24  346.96
  -1   2  -2  5232.1   127.8   1-0.68575 0.55822-0.57392 0.77259-0.44762 0.30248  0 369.04 233.26   90.28 368.99 233.36   90.40
  -1   2  -2  6632.9   135.5   2 0.13207-0.25960-0.38716 0.58609-0.91250 0.76753  0 365.79 288.68  177.97 365.81 288.67  177.78
  -1   2  -2  5531.3   125.8   2-0.23139 0.10394 0.60208-0.40314 0.76417-0.90922  0 292.07 190.52  343.02 292.15 190.57  342.87
  -1   2   2  5987.4    82.3   1-0.25789 0.13039 0.58812-0.38956-0.76655 0.91173  0 325.64 192.94   11.00 325.65 193.00   10.95
  -1   2   2  6706.6   143.2   2-0.16252 0.03503-0.52141 0.72033 0.83769-0.69275  0 278.89 193.85   51.99 279.03 193.94   51.87
  -1   2   2  6113.0   136.9   2 0.01581-0.14331 0.71355-0.51454-0.70043 0.84540  0 358.13 300.71  246.36 358.08 300.64  246.43
   1  -2  -2  5015.1    76.3   1-0.62589 0.75342-0.02561-0.17306-0.77949 0.63435  0 275.18 320.38   52.97 275.33 320.27   52.86
   1  -2  -2  6303.8   139.0   2-0.11493 0.24242-0.74530 0.54639 0.65674-0.80168  0 319.83 324.45   68.66 319.88 324.40   68.65
   1  -2  -2  6092.5   132.8   2 0.06257 0.06493 0.48314-0.68214-0.87331 0.72833  0 245.83 219.83  229.67 245.66 219.80  229.61
   1  -2   2  5235.3   123.1   1-0.61664 0.74430-0.75413 0.55537-0.22594 0.37092  0 238.04 280.07  107.15 237.96 280.07  107.30
   1  -2   2  5704.9   126.0   2-0.23730 0.36477 0.32317-0.52201 0.91610-0.77101  0 306.03 326.43    1.40 306.06 326.33    1.43
   1  -2   2  5824.3   123.8   2 0.12261 0.00491-0.65679 0.45786-0.74404 0.88901  0 239.47 231.12  159.42 239.34 231.11  159.45
   1   2  -2  4706.8   122.2   1-0.61329 0.74082 0.01000 0.18867-0.78979 0.64466  0 369.59 281.21   50.63 369.54 281.25   50.62
   1   2  -2  6422.1   137.4   2 0.13028-0.00276-0.50998 0.70891-0.85026 0.70529  0 312.06 325.84  170.00 312.08 325.73  169.88
   1   2  -2  5031.2   118.2   2-0.21535 0.34280 0.76949-0.57054 0.60126-0.74630  0 241.98 226.10  329.42 241.87 226.13  329.39
   1   2   2  6726.0   127.0   2-0.18821 0.31567-0.35451 0.55335 0.91591-0.77082  0 236.71 238.73   41.00 236.59 238.71   41.16
  -1  -2  -3 318.329  51.992   1-0.18646 0.05895 0.65911-0.85767-0.72857 0.51081  0 228.59 285.23    4.85 228.51 285.15    4.78
  -1  -2  -3 394.107  60.646   1-0.05138-0.07633-0.83145 0.63262 0.55321-0.77069  0 381.21 288.27  165.30 381.13 288.24  165.04
  -1  -2  -3 312.091  52.148   2-0.09399-0.03350-0.81843 0.61952 0.56686-0.78427  0 380.41 288.71   75.29 380.48 288.72   75.42
  -1  -2  -3 362.979  53.922   2 0.04280-0.17030 0.59248-0.79148-0.80445 0.58698  0 296.67 178.23  237.30 296.61 178.37  237.11
  -1  -2   3 399.986  52.897   1-0.69896 0.57143-0.43386 0.23519-0.56852 0.78623  0 229.97 227.14   79.61 229.86 227.16   79.76
  -1  -2   3 322.683  58.187   2 0.09446-0.22197-0.86239 0.66332-0.49735 0.71466  0 276.12 182.98  140.75 276.16 183.00  140.87
  -1  -2   3 353.582  58.708   2-0.22673 0.09928 0.66460-0.86355 0.71197-0.49440  0 369.12 307.89  338.30 369.14 307.93  338.19
  -1   2  -3 279.195  52.830   1-0.67579 0.54826-0.61668 0.81535-0.40374 0.18604  0 385.74 243.58   93.96 385.84 243.61   93.96
  -1   2  -3 329.386  57.101   2 0.12863-0.25615-0.55600 0.75493-0.82117 0.60371  0 376.47 296.69  167.00 376.50 296.65  166.74
  -1   2  -3 273.547  50.954   2-0.21476 0.08732 0.77363-0.57468 0.59613-0.81370  0 288.13 179.68  329.35 288.30 179.66  329.01
  -1   2   3 344.558  59.166   2-0.13807 0.01058-0.64801 0.84693 0.74901-0.53161  0 269.19 185.93   61.03 269.31 185.89   60.85
  -1   2   3 409.161  60.274   2-0.02085-0.10661 0.83933-0.64031-0.54322 0.76068  0 363.74 313.73  257.97 363.74 313.75  258.17
   1  -2  -3 264.098  31.359   1-0.43254 0.56005 0.36617-0.56474-0.82391 0.60615  0 271.79 330.98   27.53 271.94 330.96   27.50
   1  -2  -3 301.392  33.679   1-0.13058 0.25829-0.86775 0.66892 0.47954-0.69702  0 330.01 334.46  158.53 329.90 334.32  158.50
   1  -2  -3 349.697  60.457   2-0.07990 0.20739-0.86041 0.66149 0.50330-0.72071  0 330.06 334.29   79.72 330.10 334.14   79.83
   1  -2  -3 352.992  52.868   2 0.03711 0.09039 0.62055-0.81956-0.78329 0.56582  0 240.78 208.44  239.29 240.72 208.51  239.16
   1  -2   3 324.619  53.138   1-0.58311 0.71077-0.79836 0.59960-0.15033 0.36780  0 224.62 270.42  112.60 224.67 270.52  112.68
   1  -2   3 295.162  47.260   2 0.10371 0.02380-0.81495 0.61588-0.57018 0.78748  0 230.66 224.78  145.75 230.58 224.73  145.88
   1  -2   3 314.783  54.313   2-0.23586 0.36331 0.50097-0.69981 0.83271-0.61504  0 309.74 338.18  349.67 309.63 338.05  349.86
   1   2  -3 187.591  52.639   1-0.65774 0.78527-0.13105 0.32972-0.74176 0.52405  0 379.04 292.39   59.47 379.16 292.64   59.53
   1   2  -3 292.760  58.118   2 0.12349 0.00403-0.64466 0.84359-0.75443 0.53697  0 322.67 336.21  160.20 322.54 336.10  160.37
   1   2  -3 310.347  49.947   2-0.19594 0.32338 0.87307-0.67413 0.44649-0.66406  0 236.56 214.48  318.59 236.51 214.36  318.63
   1   2   3 331.542  47.123   2-0.15898 0.28646-0.54136 0.74028 0.82562-0.60822  0 227.63 232.23   52.97 227.58 232.14   53.22
  -1  -2  -4  3779.1   135.7   1-0.17050 0.04279-0.88227 0.68344 0.43878-0.72875  0 393.92 300.43  154.88 394.17 300.35  155.13
  -1  -2  -4  3971.1   135.6   2-0.06008-0.06741-0.91020 0.71128 0.40979-0.69967  0 393.80 299.61   86.00 394.09 299.60   86.00
  -1  -2  -4  3217.7   124.5   2 0.02171-0.14921 0.68943-0.88843-0.72403 0.43408  0 291.03 164.52  244.44 291.11 164.62  244.46
  -1  -2   4  2926.8   113.4   1-0.68638 0.55885-0.57056 0.37189-0.45093 0.74121  0 220.29 216.99   90.02 220.12 217.05   90.13
  -1  -2   4  3420.8   140.5   2 0.07577-0.20328-0.92857 0.72950-0.36333 0.65307  0 264.65 172.67  132.02 264.84 172.70  132.27
  -1  -2   4  3266.2   136.0   2-0.22018 0.09273 0.73102-0.92996 0.64586-0.35577  0 377.03 323.94  332.74 377.02 323.88  332.78
  -1   2  -4  3092.3   138.5   1-0.67022 0.54268-0.63623 0.83490-0.38213 0.09186  0 404.04 254.36   95.95 404.33 254.43   95.66
  -1   2  -4  3208.2   130.3   2 0.12266-0.25018-0.65564 0.85457-0.74504 0.45510  0 389.39 307.40  159.52 389.68 307.37  159.54
  -1   2  -4  2982.9   125.1   2-0.19563 0.06819 0.87428-0.67533 0.44426-0.73436  0 282.80 166.27  318.49 282.91 166.35  318.48
  -1   2   4  3790.8   146.4   2-0.12127-0.00622-0.72077 0.91968 0.68249-0.39261  0 258.13 176.05   66.58 258.30 176.13   66.58
  -1   2   4  3326.0   139.4   2-0.05013-0.07733 0.91213-0.71310-0.40683 0.69678  0 371.14 329.32  267.27 371.04 329.27  267.18
   1  -2  -4  3322.4    84.8   1-0.24482 0.37233 0.60183-0.80040-0.76017 0.46982  0 262.80 342.23    9.98 262.93 342.03    9.81
   1  -2  -4  3729.9    88.8   1-0.35179 0.47945-0.90826 0.70950 0.22650-0.51646  0 340.09 347.36  139.00 340.02 347.23  139.02
   1  -2  -4  3634.9   142.0   2-0.05221 0.17970-0.92683 0.72792 0.37182-0.66170  0 342.01 346.39   88.38 342.02 346.33   88.42
   1  -2  -4  3394.2   127.9   2 0.01910 0.10840 0.70033-0.89933-0.71356 0.42361  0 234.51 195.42  245.29 234.42 195.49  245.34
   1  -2   4  2967.4   121.6   1-0.55091 0.67857-0.83019 0.63143-0.08531 0.37528  0 210.89 260.93  117.27 210.81 260.95  117.22
   1  -2   4  3405.1   121.8   2 0.08340 0.04411-0.90499 0.70592-0.41718 0.70692  0 220.16 216.47  135.62 220.08 216.44  135.64
   1  -2   4  3214.7   129.1   2-0.23102 0.35847 0.60791-0.80685 0.75966-0.46956  0 314.61 352.69  342.46 314.73 352.60  342.45
   1   2  -4  2704.1   119.7   1-0.67986 0.80739-0.22910 0.42777-0.69664 0.40637  0 391.49 304.89   65.95 391.80 304.87   65.84
   1   2  -4  3232.6   137.4   2 0.11668 0.01085-0.72009 0.91902-0.68400 0.39406  0 334.53 348.84  154.38 334.49 348.78  154.44
   1   2  -4  2831.0   118.4   2-0.17800 0.30545 0.93091-0.73196 0.31895-0.60905  0 229.92 201.01  310.54 229.84 201.02  310.50
   1   2   4  3910.4   125.9   2-0.13771 0.26520-0.64970 0.84861 0.74762-0.45774  0 216.93 223.64   61.05 216.87 223.66   60.97
   1   2   4  3088.7   121.7   2-0.05772 0.18519 0.92730-0.72828-0.36983 0.65978  2 306.03 352.98  269.51 306.02 352.81  269.51
  -1  -2  -5 660.125  91.060   1-0.26711 0.13945-0.90468 0.70592 0.33198-0.69443  0 409.93 313.66  146.71 409.91 313.64  146.78
  -1  -2  -5 466.167  80.560   2-0.03383-0.09366-0.95931 0.76039 0.28033-0.64268  0 409.88 312.48   94.01 409.95 312.62   94.09
  -1  -2  -5 486.637  79.596   2 0.00831-0.13581 0.74305-0.94205-0.66919 0.30675  0 284.56 148.97  249.04 284.62 149.01  248.92
  -1  -2   5 412.198  65.660   1-0.65839 0.53086-0.67116 0.47249-0.34068 0.70352  0 208.92 206.64   98.82 208.77 206.52   98.84
  -1  -2   5 524.504  76.909   2 0.05930-0.18681-0.96596 0.76689-0.25182 0.61399  0 252.78 161.09  125.45 252.59 161.21  125.47
  -1  -2   5 354.535  84.135   2-0.21562 0.08817 0.76757-0.96651 0.60361-0.24100  0 386.28 342.02  329.56 386.24 341.89  329.57
  -1   2  -5 507.151  92.818   1-0.66830 0.54076-0.64241 0.84109-0.37508 0.01224  0 424.70 266.02   96.22 424.80 266.04   96.21
  -1   2  -5 548.078  84.678   2 0.11740-0.24492-0.71323 0.91216-0.69103 0.32860  0 404.88 320.33  154.91 405.07 320.31  155.00
  -1   2  -5 409.630  81.186   2-0.17750 0.05005 0.93217-0.73322 0.31552-0.67814  0 276.45 150.84  310.02 276.47 151.12  310.29
  -1   2   5 491.101  76.738   2-0.11045-0.01704-0.76225 0.96117 0.63779-0.27545  0 246.34 164.99   69.88 246.23 165.09   70.14
  -1   2   5 451.574  87.330   2-0.07337-0.05410 0.95382-0.75479-0.29129 0.65373  0 379.92 347.06  274.43 379.73 346.97  274.36
   1  -2  -5 515.072  57.135   1-0.46624 0.59391-0.88251 0.68375 0.06152-0.42397  0 353.65 361.88  127.40 353.56 361.70  127.39
   1  -2  -5 612.589  95.007   2-0.03006 0.15755-0.96489 0.76597 0.26092-0.62327  0 355.65 360.83   95.38 355.46 360.70   95.27
   1  -2  -5 420.867  72.279   2 0.00742 0.12008 0.74638-0.94538-0.66548 0.30304  0 227.15 181.20  249.16 227.02 181.09  249.21
   1  -2   5 377.744  69.594   1-0.51936 0.64702-0.85412 0.65536-0.02724 0.38969  0 196.42 251.07  121.35 196.28 251.20  121.24
   1  -2   5 393.546  65.458   2 0.06497 0.06255-0.95496 0.75589-0.28953 0.65170  0 208.43 206.86  128.10 208.21 206.90  127.74
   1  -2   5 398.236  78.335   2-0.22616 0.35361 0.67115-0.87009 0.70598-0.34336  0 320.75 369.82  337.73 320.80 369.62  337.68
   1   2  -5 411.410  83.252   1-0.69005 0.81758-0.29362 0.49229-0.66153 0.29869  0 407.20 318.41   69.93 407.14 318.29   70.09
   1   2  -5 520.218  89.505   2 0.11170 0.01582-0.76239 0.96132-0.63740 0.27497  0 347.70 363.52  151.01 347.87 363.55  150.83
   1   2  -5 487.805  72.933   2-0.16184 0.28928 0.96346-0.76451 0.21343-0.57605  0 222.07 186.49  304.30 222.13 186.45  304.08
   1   2   5 561.537  72.468   2-0.12363 0.25112-0.71114 0.91006 0.69209-0.32975  0 204.90 213.97   66.07 204.80 214.00   65.79
   1   2   5 457.272  82.032   2-0.08266 0.21012 0.96641-0.76739-0.24333 0.60577  0 312.10 370.01  277.34 311.98 370.00  277.25
  -1  -2  -6 15908.0   289.6   1-0.34531 0.21765-0.90860 0.70984 0.23495-0.66989  0 428.14 328.57  139.68 428.31 328.44  139.63
  -1  -2  -6 15082.6   285.9   2-0.01308-0.11443-0.98478 0.78571 0.17331-0.60792  0 427.97 327.64  100.58 428.14 327.54  100.55
  -1  -2  -6 14293.3   280.4   2 0.00010-0.12757 0.77239-0.97141-0.63515 0.20023  0 277.27 131.50  251.53 277.38 131.67  251.53
  -1  -2   6 13648.0   255.2   1-0.62288 0.49522-0.74418 0.54542-0.24128 0.67622  0 196.19 195.25  106.08 196.19 195.35  106.19
  -1  -2   6 15418.4   295.6   2 0.04453-0.17205-0.98656 0.78749-0.15722 0.59183  0 239.53 148.50  119.94 239.42 148.61  119.87
  -1  -2   6 13830.3   295.5   2-0.21278 0.08534 0.78694-0.98589 0.57918-0.14404  0 396.51 362.16  327.78 396.83 362.08  327.77
  -1   2  -6 13873.7   284.0   1-0.66904 0.54151-0.64005 0.83872-0.37779-0.05762  0 447.39 278.77   96.00 447.66 278.81   96.00
  -1   2  -6 14923.9   291.3   2 0.11369-0.24121-0.74598 0.94491-0.65619 0.22128  0 422.63 335.40  152.14 422.84 335.35  152.27
  -1   2  -6 13222.5   276.6   2-0.16077 0.03333 0.96512-0.76617 0.20662-0.64177  0 269.09 134.02  303.75 269.22 134.16  303.67
  -1   2   6 16800.6   307.0   2-0.10392-0.02357-0.78527 0.98419 0.61037-0.17556  0 233.31 152.79   72.00 233.20 152.89   72.24
  -1   2   6 14253.3   299.0   2-0.09218-0.03528 0.97698-0.77795-0.19241 0.62733  0 389.51 367.02  280.26 389.74 366.95  280.27
   1  -2  -6 13987.8   203.8   1-0.53334 0.66100-0.84428 0.64552-0.05235-0.38260  0 369.41 378.28  119.61 369.34 378.11  119.50
   1  -2  -6 15375.9   308.1   2-0.01182 0.13933-0.98596 0.78689 0.16655-0.60115  0 370.58 377.36  100.93 370.50 377.20  100.95
   1  -2  -6 13979.3   283.1   2 0.00009 0.12737 0.77242-0.97144-0.63511 0.20019  0 218.76 165.28  251.54 218.66 165.33  251.54
   1  -2   6 13815.1   280.6   1-0.48815 0.61582-0.87236 0.67360 0.02625 0.40869  0 181.00 241.07  124.98 180.98 241.09  124.95
   1  -2   6 14429.5   272.9   2 0.04857 0.07894-0.98201 0.78294-0.18245 0.61706  0 195.15 196.34  121.20 195.08 196.39  121.35
   1  -2   6 13481.2   276.8   2-0.22270 0.35014 0.70770-0.90665 0.67050-0.23535  0 327.62 389.17  334.84 327.71 389.03  334.74
   1   2  -6 11377.5   247.5   1-0.69461 0.82214-0.33358 0.53225-0.63737 0.20196  0 424.87 333.32   72.98 425.19 333.30   72.78
   1   2  -6 15351.8   307.0   2 0.10827 0.01925-0.78532 0.98439-0.60955 0.17494  0 362.88 380.63  148.74 362.75 380.48  148.71
   1   2  -6 13594.2   277.7   2-0.14765 0.27512 0.98123-0.78220 0.12406-0.55899  0 213.58 170.64  298.99 213.52 170.68  298.78
   1   2   6 15669.0   277.0   1 0.03714 0.09057-0.77844 0.97727 0.62662-0.19166  0 193.99 199.41  172.24 194.01 199.55  172.30
   1   2   6 16342.5   285.9   2-0.11484 0.24233-0.74564 0.94455 0.65638-0.22157  0 191.57 203.43   68.71 191.49 203.47   68.68
   1   2   6 12932.9   268.1   2-0.10203 0.22949 0.98500-0.78598-0.13916 0.57408  0 318.71 389.73  283.42 318.66 389.54  283.42
  -1  -2  -7  2763.6   187.4   1-0.40953 0.28186-0.90038 0.70162 0.14700-0.65444  0 449.54 345.50  133.28 449.68 345.33  133.36
  -1  -2  -7  3020.9   195.6   2 0.00383-0.13134-0.99665 0.79758 0.08170-0.58874  0 449.14 344.86  105.73 449.21 344.72  105.93
  -1  -2  -7  2775.0   195.2   2-0.00417-0.12330 0.78733-0.98635-0.61652 0.10910  0 269.33 112.38  253.04 269.47 112.49  252.93
  -1  -2   7  2551.5   145.8   1-0.58328 0.45561-0.79817 0.59941-0.15069 0.65812  0 182.14 183.19  112.69 182.15 183.23  112.65
  -1  -2   7  2750.0   173.3   2 0.03122-0.15873-0.99671 0.79764-0.07483 0.58188  0 225.38 134.75  115.03 225.22 134.84  115.05
  -1  -2   7  2786.0   216.5   2-0.21142 0.08398 0.79572-0.99467 0.56757-0.05990  0 408.61 384.84  326.93 408.94 384.84  326.93
  -1   2  -7  2254.5   189.6   1-0.67161 0.54408-0.63164 0.83031-0.38727-0.12071  0 473.45 293.11   95.29 473.63 293.15   95.26
  -1   2  -7  2646.3   196.8   2 0.11156-0.23908-0.76350 0.96243-0.63610 0.12870  0 443.27 352.76  150.84 443.37 352.71  150.73
  -1   2  -7  2548.8   192.5   2-0.14608 0.01862 0.98275-0.78373 0.11341-0.62083  0 261.18 115.26  298.26 261.29 115.39  298.16
  -1   2   7  3073.7   120.6   1 0.03268-0.16039-0.78142 0.98025 0.62315-0.11570  0 224.00 135.93  171.93 224.04 136.24  171.94
  -1   2   7  2667.2   167.3   2-0.10056-0.02692-0.79679 0.99571 0.59583-0.08854  0 219.21 139.47   73.07 219.05 139.53   73.32
  -1   2   7  2621.9   206.0   2-0.10807-0.01939 0.98846-0.78944-0.10611 0.61352  0 401.03 389.57  285.34 401.20 389.53  285.35
   1  -2  -7  2441.9   140.1   1-0.57769 0.70535-0.80434 0.60558-0.13898-0.36845  0 386.82 397.21  113.50 387.12 396.98  113.48
   1  -2  -7  2918.5   209.5   2 0.00351 0.12401-0.99650 0.79743 0.08348-0.59053  0 387.34 396.52  106.04 387.53 396.30  105.83
   1  -2  -7  2701.2   168.9   2-0.00381 0.13128 0.78613-0.98515-0.61805 0.11064  0 209.35 148.12  252.69 209.25 148.18  252.81
   1  -2   7  2448.1   154.9   1-0.45671 0.58438-0.88632 0.68756 0.07644 0.43100  0 164.71 230.42  128.38 164.73 230.45  128.43
   1  -2   7  3091.7   167.4   2 0.03372 0.09379-0.99531 0.79624-0.09062 0.59766  0 180.71 184.98  116.00 180.62 184.98  115.97
   1  -2   7  2745.3   196.5   2-0.22055 0.34800 0.72778-0.92672 0.64938-0.14172  0 335.37 411.21  333.33 335.39 411.10  333.06
   1   2  -7  2135.7   174.0   1-0.69648 0.82401-0.35611 0.55478-0.62298 0.11500  0 445.91 350.43   74.23 446.15 350.45   74.32
   1   2  -7  2877.6   210.2   2 0.10652 0.02099-0.79686 0.99593-0.59470 0.08766  0 379.52 400.05  147.59 379.46 399.92  147.63
   1   2  -7  2541.4   164.1   2-0.13470 0.26217 0.98983-0.79081 0.04566-0.55307  0 203.93 153.50  294.19 203.85 153.58  294.19
   1   2   7  2902.3   161.0   1 0.02002 0.10769-0.78972 0.98855 0.61314-0.10569  0 179.72 187.42  170.75 179.86 187.62  170.90
   1   2   7  3091.0   162.4   2-0.10999 0.23748-0.76393 0.96285 0.63586-0.12857  0 176.91 192.07   70.02 176.87 192.14   70.29
   1   2   7  2633.6   186.6   2-0.11805 0.24552 0.99172-0.79270-0.05058 0.55799  0 326.06 411.89  288.59 325.99 411.66  288.59
  -1  -2  -8  5185.9   244.8   1-0.46289 0.33523-0.88390 0.68514 0.06677-0.64669  0 474.47 365.26  127.78 474.54 365.01  127.76
  -1  -2  -8  5140.7   259.2   2 0.01805-0.14557-0.99984 0.80077 0.00154-0.58102  0 473.79 364.74  110.65 473.81 364.58  110.60
  -1  -2  -8  5149.4   256.0   2-0.00590-0.12157 0.79313-0.99216-0.60902 0.02912  0 260.65  91.02  253.48 260.82  91.16  253.48
  -1  -2   8  5061.2   197.4   1-0.54210 0.41444-0.83753 0.63877-0.06831 0.64824  0 166.74 169.80  118.36 166.77 169.90  118.39
  -1  -2   8  5746.4   243.0   2 0.01857-0.14608-0.99983 0.80076-0.00143 0.58090  0 209.84 119.57  110.74 209.79 119.74  110.77
  -1  -2   8  4953.2   279.3   2-0.21115 0.08370 0.79743-0.99638 0.56526 0.01493  0 422.56 410.81  326.93 422.88 410.81  326.76
  -1   2  -8  4795.1   256.0   1-0.67527 0.54774-0.61862 0.81729-0.40164-0.17891  2 503.04 309.69   94.07 503.55 309.70   94.13
  -1   2  -8  5467.6   276.9   2 0.11049-0.23801-0.77119 0.97012-0.62694 0.04706  0 467.20 372.84  149.98 467.37 372.83  150.06
  -1   2  -8  4582.5   212.3   2-0.13223 0.00476 0.99074-0.79171 0.03098-0.61088  0 252.60  94.39  293.33 252.46  94.48  293.34
  -1   2   8  5595.1   168.9   1 0.02020-0.14791-0.78961 0.98844 0.61328-0.03334  0 209.16 120.52  171.27 209.26 120.80  170.91
  -1   2   8  5824.7   240.5   2-0.09943-0.02806-0.80063 0.99954 0.59085-0.01110  0 203.64 124.72   73.63 203.61 124.84   73.68
  -1   2   8  4980.9   278.9   2-0.12186-0.00561 0.99212-0.79310-0.02917 0.60907  0 414.31 415.49  290.01 414.41 415.33  289.83
   1  -2  -8  4495.2   190.8   1-0.61023 0.73790-0.76370 0.56494-0.21066-0.36926  0 406.85 419.35  108.39 407.02 419.09  108.40
   1  -2  -8  5684.4   285.7   2 0.01684 0.11067-0.99982 0.80075 0.00921-0.58869  0 406.82 418.70  110.02 406.99 418.53  110.16
   1  -2  -8  5259.6   231.3   2-0.00544 0.13291 0.79162-0.99064-0.61099 0.03109  0 198.76 129.26  253.04 198.69 129.36  253.33
   1  -2   8  5303.9   219.4   1-0.42509 0.55275-0.89657 0.69781 0.12437 0.45556  0 147.23 218.96  131.82 147.27 219.01  131.77
   1  -2   8  5270.4   221.0   2 0.02003 0.10748-0.99975 0.80068-0.00989 0.58937  0 164.67 172.60  111.22 164.62 172.66  111.26
   1  -2   8  4734.0   255.0   2-0.21945 0.34690 0.73710-0.93605 0.63916-0.05897  0 343.82 436.53  332.25 343.90 436.40  332.26
   1   2  -8  3899.4   248.6   1-0.69710 0.82463-0.36585 0.56452-0.61661 0.03606  0 470.29 370.36   75.03 470.56 370.45   74.99
   1   2  -8  5594.4   282.2   2 0.10606 0.02145-0.80065 0.99972-0.58967 0.01019  0 398.25 422.57  146.89 398.49 422.47  147.27
   1   2  -8  4878.2   224.6   2-0.12266 0.25012 0.99214-0.79312-0.02457-0.55533  0 193.13 134.89  289.97 193.01 134.90  290.10
   1   2   8  5783.7   212.9   1 0.01301 0.11470-0.79419 0.99302 0.60754-0.02759  0 164.25 174.32  170.25 164.32 174.50  170.32
   1   2   8  5826.9   224.4   2-0.10783 0.23532-0.77187 0.97079 0.62657-0.04681  0 160.78 179.90   70.83 160.73 179.98   71.01
   1   2   8  5130.5   260.0   2-0.13154 0.25900 0.99095-0.79192 0.02693 0.55297  0 334.10 437.14  292.99 334.00 436.93  293.10
  -1  -2  -9 28532.1   488.2   1-0.50797 0.38031-0.86134 0.66258-0.00716-0.64525  2 503.75 388.77  122.69 503.86 388.57  122.63
  -1  -2  -9 28856.9   520.0   2 0.03046-0.15798-0.99706 0.79799-0.07031-0.58160  2 503.12 388.11  114.78 503.14 387.92  114.79
  -1  -2  -9 27635.4   471.6   2-0.00574-0.12172 0.79262-0.99165-0.60969-0.04270  0 251.45  66.93  253.42 251.31  67.14  253.43
  -1  -2   9 28309.1   442.4   1-0.49949 0.37182-0.86629 0.66753 0.00732 0.64510  0 149.75 154.83  123.64 149.84 154.98  123.63
  -1  -2   9 29659.7   505.0   2 0.00685-0.13436-0.99783 0.79876 0.06546 0.58645  0 192.84 102.84  106.91 192.79 103.03  106.89
  -1  -2   9 26457.4   528.7   2-0.21169 0.08425 0.79404-0.99299 0.56981 0.08291  0 438.87 441.06  327.22 439.16 440.98  327.09
  -1   2  -9 28270.7   525.0   2 0.11038-0.23790-0.77200 0.97093-0.62596-0.02641  0 495.79 396.59  149.97 495.92 396.56  149.99
  -1   2  -9 27333.3   475.2   2-0.11937-0.00809 0.99191-0.79289-0.04308-0.60931  0 242.79  70.76  289.00 242.68  70.92  289.02
  -1   2   9 31970.0   386.8   1 0.02060-0.14831-0.78935 0.98818 0.61360 0.03883  0 193.32 102.83  170.94 193.48 103.12  170.94
  -1   2   9 30547.9   511.5   2-0.09993-0.02756-0.79895 0.99787 0.59304 0.05918  0 186.58 108.41   73.47 186.53 108.56   73.52
  -1   2   9 28187.1   539.5   2-0.13388 0.00641 0.99016-0.79114 0.04078 0.61161  0 429.75 445.58  293.82 429.81 445.38  293.91
   1  -2  -9 26402.3   380.7   1-0.63528 0.76295-0.72233 0.52357-0.27323-0.37919  0 429.38 445.92  104.46 429.56 445.58  103.87
   1  -2  -9 30752.8   554.0   2 0.02848 0.09904-0.99788 0.79881-0.05854-0.59338  0 429.59 445.13  113.99 429.69 444.81  114.10
   1  -2  -9 29425.4   504.5   2-0.00534 0.13280 0.79127-0.99030-0.61144-0.04095  0 186.79 108.34  253.15 186.75 108.45  253.30
   1  -2   9 26928.8   471.4   1-0.39289 0.52055-0.90363 0.70487 0.17056 0.48186  0 128.33 206.45  135.19 128.25 206.46  135.03
   1  -2   9 29806.1   487.1   2 0.00736 0.12016-0.99801 0.79894 0.06263 0.58929  0 146.76 159.16  106.93 146.76 159.27  107.06
   1  -2   9 27408.0   503.5   2-0.21923 0.34668 0.73891-0.93786 0.63714 0.01557  0 353.33 465.96  332.12 353.42 465.77  332.11
   1   2  -9 22006.2   450.2   1-0.69710 0.82463-0.36582 0.56449-0.61663-0.03649  0 499.03 394.33   75.00 499.37 394.40   74.99
   1   2  -9 28255.1   531.6   2 0.10634 0.02118-0.79891 0.99798-0.59198-0.05993  0 420.32 449.24  147.40 420.55 449.07  147.44
   1   2  -9 26332.5   476.6   2-0.11125 0.23871 0.98982-0.79080-0.08878-0.56361  0 180.76 114.14  286.32 180.78 114.25  286.36
   1   2   9 31299.7   468.5   1 0.01382 0.11389-0.79368 0.99251 0.60818 0.04425  0 147.06 159.61  170.36 147.20 159.82  170.39
   1   2   9 30334.0   484.5   2-0.10760 0.23509-0.77269 0.97161 0.62560 0.02663  0 142.71 166.75   70.98 142.69 166.84   71.08
   1   2   9 27389.2   497.1   2-0.14322 0.27068 0.98498-0.78595 0.09650 0.55589  0 342.99 466.48  297.00 342.86 466.20  297.16
  -1  -2 -10 909.998 168.804   2-0.00419-0.12328 0.78741-0.98643-0.61642-0.10845  0 240.79  39.34  252.57 240.71  39.60  252.93
  -1  -2  10  1043.5   142.8   1-0.45600 0.32834-0.88659 0.68783 0.07754 0.64736  0 130.76 137.85  128.47 131.00 137.88  128.51
  -1  -2  10 944.546 170.194   2-0.00451-0.12300-0.99184 0.79277 0.12737 0.59697  0 173.98  84.24  103.42 173.73  84.23  103.26
  -1  -2  10  1249.3   260.2   2-0.21282 0.08538 0.78669-0.98563 0.57951 0.14573  0 458.78 477.30  327.65 458.54 476.84  327.80
  -1   2 -10  1008.6   166.6   2-0.10722-0.02025 0.98804-0.78902-0.11084-0.61404  0 231.89  43.66  285.33 231.73  43.95  285.07
  -1   2  10  1090.6   130.9   1 0.03003-0.15774-0.78317 0.98201 0.62108 0.10385  0 176.43  82.41  171.65 176.45  82.46  171.72
  -1   2  10  1131.9   174.7   2-0.10167-0.02582-0.79302 0.99194 0.60065 0.12404  0 167.28  90.37   72.73 167.34  90.30   72.96
  -1   2  10 903.442 244.596   2-0.14476 0.01730 0.98384-0.78482 0.10539 0.61949  0 447.97 480.95  297.68 448.15 481.17  297.69
   1  -2 -10 962.115 179.839   1-0.65476 0.78243-0.68010 0.48134-0.32978-0.39513  0 455.46 478.23   99.64 455.65 478.16   99.67
   1  -2 -10  1193.6   256.7   2 0.03881 0.08870-0.99185 0.79278-0.12133-0.60302  0 457.02 477.03  118.04 456.84 476.61  117.76
   1  -2 -10 978.507 174.472   2-0.00392 0.13138 0.78649-0.98551-0.61759-0.10728  0 173.04  84.87  252.63 173.05  84.84  252.85
   1  -2  10  1018.4   156.7   1-0.36011 0.48777-0.90768 0.70892 0.21549 0.50942  0 107.51 192.18  138.25 107.20 192.42  138.23
   1  -2  10 941.586 158.616   2-0.00482 0.13234-0.99162 0.79255 0.12908 0.59527  0 126.48 144.32  103.36 126.51 144.55  103.16
   1  -2  10  1020.7   228.5   2-0.21969 0.34714 0.73511-0.93406 0.64136 0.08387  0 364.20 500.35  332.43 364.20 500.53  332.43
   1   2 -10  1073.2   246.8   2 0.10712 0.02039-0.79294 0.99201-0.59981-0.12453  0 446.79 481.13  148.42 446.76 481.18  148.01
   1   2 -10 919.541 167.342   2-0.10032 0.22778 0.98381-0.78479-0.14849-0.57639  0 167.03  91.03  282.73 166.76  90.99  282.87
   1   2  10  1206.4   164.5   1 0.02082 0.10689-0.78921 0.98804 0.61378 0.11115  0 128.13 142.84  170.67 128.16 143.04  170.96
   1   2  10  1248.6   161.6   2-0.10884 0.23633-0.76822 0.96713 0.63087 0.09382  0 122.69 152.57   70.60 122.27 152.48   70.68
   1   2  10  1082.5   224.0   2-0.15353 0.28097 0.97500-0.77606 0.16062 0.56462  0 352.82 501.00  300.65 352.92 500.87  300.93
  -1  -2 -11  2184.1   251.3   2-0.00163-0.12584 0.77842-0.97744-0.62774-0.16962  2 228.84   7.55  252.06 228.65   7.41  252.09
  -1  -2  11  2717.5   247.6   1-0.41201 0.28434-0.89982 0.70106 0.14344 0.65396  0 110.12 117.88  133.35 109.77 117.87  133.11
  -1  -2  11  2368.1   293.7   2-0.01547-0.11205-0.98252 0.78345 0.18551 0.61127  0 152.07  62.88  100.04 151.93  62.73   99.82
  -1   2 -11  2443.0   283.8   2-0.09566-0.03180 0.98013-0.78111-0.17377-0.62359  0 219.29  12.25  281.33 219.19  12.38  281.37
  -1   2  11  2930.9   212.5   1 0.04607-0.17378-0.77224 0.97107 0.63366 0.16376  0 157.62  57.60  173.11 157.84  57.80  173.04
  -1   2  11  2879.4   297.4   2-0.10439-0.02309-0.78360 0.98252 0.61243 0.18473  0 145.35  69.32   72.24 145.39  69.42   72.08
   1  -2 -11  2791.6   300.5   2-0.00153 0.12900 0.77808-0.97710-0.62816-0.16920  0 157.14  57.68  252.16 157.09  57.69  252.06
   1  -2  11  2479.4   230.0   1-0.32633 0.45400-0.90898 0.71021 0.25936 0.53803  0  83.59 176.27  141.40  83.49 176.32  141.40
   1  -2  11  2412.7   256.0   2-0.01680 0.14429-0.98137 0.78245 0.19140 0.60576  0 103.39 128.11   99.46 103.13 128.12   99.43
   1   2 -11  2248.5   238.5   2-0.08986 0.21732 0.97467-0.77565-0.20479-0.59257  0 150.27  64.18  279.56 150.38  64.30  279.54
   1   2  11  2622.8   252.6   1 0.03284 0.09486-0.78131 0.98014 0.62328 0.17414  0 106.63 123.27  172.14 106.63 123.38  171.95
   1   2  11  3108.7   271.8   2-0.11118 0.23867-0.75953 0.95845 0.64090 0.15626  0  99.01 136.57   69.75  98.74 136.54   69.90
  -1  -2  12  3228.5   270.7   1-0.36729 0.23962-0.90704 0.70828 0.20587 0.66402  0  85.48  93.79  137.48  85.33  93.80  137.54
  -1  -2  12  2791.2   295.3   2-0.02619-0.10130-0.97013 0.77121 0.24116 0.62846  0 126.46  37.26   96.47 126.40  37.63   96.46
  -1   2  12  3560.2   366.0   2-0.10804-0.01945-0.77112 0.97004 0.62746 0.24217  0 119.90  45.02   70.64 119.66  45.09   70.94
   1  -2 -12  3115.7   370.9   2 0.00171 0.12576 0.76656-0.96558-0.64217-0.22768  0 138.08  25.55  251.35 138.05  25.62  251.00
   1  -2  12  3226.8   291.2   1-0.29182 0.41949-0.90737 0.70861 0.30252 0.56737  0  56.24 157.45  144.53  56.24 157.39  144.58
   1  -2  12  3257.6   333.5   2-0.02780 0.15529-0.96796 0.76904 0.24958 0.62005  0  75.92 109.30   95.98  75.68 109.42   95.96
   1   2 -12  2667.9   284.4   2-0.07976 0.20722 0.96273-0.76370-0.25845-0.61140  0 131.00  33.04  276.35 130.81  32.84  276.35
   1   2  12  3951.8   307.7   1 0.04902 0.07869-0.77021 0.96904 0.63590 0.23401  0  82.08  99.85  173.34  81.87  99.82  173.28
   1   2  12  3414.3   312.8   2-0.11442 0.24191-0.74726 0.94617 0.65461 0.21502  0  71.56 118.44   69.07  71.06 118.50   68.82
  -1  -3   0  -8.951  38.560   1-0.58763 0.46012 0.07534-0.37319-0.80562 0.80562  0 223.09 266.22   46.46 223.31 266.00   46.51
  -1  -3   0  16.050  41.445   2-0.21767 0.09021-0.08334-0.21491 0.97246-0.97246  0 377.29 297.78   25.52 377.06 298.02   25.16
  -1  -3   0  29.977  42.422   2 0.12971-0.25723-0.23188-0.06652-0.96406 0.96406  0 287.08 178.84  187.45 287.24 178.91  187.18
  -1   3   0  19.818  37.964   1-0.64966 0.52213-0.10173 0.39974-0.75338 0.75338  0 363.49 200.32   57.60 363.69 200.53   57.66
  -1   3   0  49.056  46.137   2-0.22895 0.10149 0.07852 0.21974 0.97027-0.97027  0 276.18 181.87   15.57 276.10 182.13   15.84
  -1   3   0   4.766  43.949   2 0.09871-0.22620 0.21864 0.07987-0.97080 0.97080  0 369.90 308.35  213.50 369.96 308.23  213.27
   1  -3   0   7.522  30.734   1-0.69770 0.82523-0.47487 0.17687-0.53638 0.53638  0 242.36 309.98   83.10 242.21 309.97   82.74
   1  -3   0 -30.158  43.118   2-0.19980 0.32726-0.26175-0.03650 0.94423-0.94423  0 322.79 336.96   35.43 322.69 337.12   35.58
   1  -3   0  16.096  36.510   2 0.12541 0.00212-0.12285-0.17554-0.98447 0.98447  0 235.85 214.08  193.68 235.69 213.92  193.55
   1   3   0  37.398  49.448   1-0.43501 0.56251 0.36244-0.06459-0.82426 0.82426  0 387.29 248.84   27.63 387.59 248.65   27.76
   1   3   0  -6.987  30.766   2-0.23667 0.36413 0.27751 0.02074 0.93112-0.93112  0 230.53 223.51    4.56 230.21 223.62    4.18
   1   3   0   0.500  41.641   2 0.10763 0.01987 0.13051 0.16800-0.98559 0.98559  0 310.60 338.82  208.59 310.68 338.75  208.12
  -1  -3  -1  4632.2   133.7   1-0.51111 0.38360 0.23521-0.53306-0.82671 0.75412  0 222.95 275.73   36.21 222.96 275.65   36.27
  -1  -3  -1  4757.2   132.6   2-0.19176 0.06430-0.32822 0.02997 0.92493-0.99748  0 380.58 296.81   39.56 380.61 296.83   39.56
  -1  -3  -1  4824.4   136.1   2 0.11766-0.24516 0.00560-0.30411-0.99304 0.92055  0 289.27 176.27  201.00 289.37 176.31  200.92
  -1  -3   1  4389.1   132.1   1-0.64708 0.51955-0.09250-0.20551-0.75679 0.82936  0 220.98 256.46   57.02 220.95 256.39   57.08
  -1  -3   1  5281.9   142.8   2-0.23243 0.10497 0.14798-0.44623 0.96129-0.88874  0 376.76 303.26   12.00 376.74 303.27   11.83
  -1  -3   1  4437.7   132.9   2 0.13147-0.25900-0.45534 0.15694-0.88056 0.95304  0 282.40 177.77  173.48 282.56 177.88  173.46
  -1   3  -1  4121.2   122.5   1-0.68717 0.55964-0.27290 0.57091-0.67329 0.60072  0 375.69 210.61   68.75 375.60 210.70   68.72
  -1   3  -1  5042.9   141.7   2-0.23711 0.10965 0.30797-0.00972 0.92137-0.99392  0 277.79 179.20    2.14 277.94 179.26    2.35
  -1   3  -1  5001.7   141.9   2 0.11848-0.24598-0.00523 0.30374-0.99294 0.92045  0 373.71 307.46  200.11 373.69 307.40  200.30
  -1   3   1  4474.5   109.6   1-0.55618 0.42867 0.14634 0.15151-0.81808 0.89067  0 354.69 189.92   42.00 354.64 190.03   42.00
  -1   3   1  5184.6   146.4   2-0.21243 0.08497-0.14081 0.43907 0.96698-0.89443  0 271.61 181.52   28.45 271.78 181.59   28.49
  -1   3   1  4871.2   143.2   2 0.07044-0.19794 0.43353-0.13502-0.89838 0.97087  0 369.25 312.95  226.33 369.22 312.89  226.40
   1  -3  -1  3517.5    94.1   1-0.69364 0.82117-0.32550 0.02749-0.64258 0.57002  0 249.82 320.44   71.98 249.72 320.31   72.23
   1  -3  -1  4874.1   135.4   2 0.11018 0.01732 0.10186-0.40037-0.98868 0.91619  0 236.37 209.74  206.46 236.21 209.74  206.46
   1  -3   1  3678.3   111.2   1-0.68358 0.81112-0.58421 0.28620-0.43751 0.51008  0 232.68 300.06   90.95 232.59 300.00   91.24
   1  -3   1  4999.7   141.3   2-0.22097 0.34843-0.04262-0.25564 0.97435-0.90180  0 320.54 339.92   22.77 320.58 339.81   22.82
   1  -3   1  5062.7   135.5   2 0.13187-0.00435-0.35383 0.05543-0.92597 0.99845  0 232.81 214.98  180.00 232.69 214.96  179.85
   1   3  -1  4355.2   133.5   1-0.52498 0.65249 0.20872 0.08913-0.82513 0.75254  0 390.43 259.63   37.99 390.69 259.64   37.99
   1   3  -1  4754.0   137.0   2 0.12462 0.00290-0.10761 0.40601-0.98635 0.91387  0 315.52 340.63  194.33 315.49 340.45  194.43
   1   3  -1  4361.7   124.3   2-0.23614 0.36359 0.49020-0.19194 0.83901-0.91157  0 230.51 219.09  350.66 230.43 219.09  350.59
   1   3   1  4547.4   139.2   1-0.32119 0.44870 0.51608-0.21823-0.79404 0.86663  0 387.85 237.57   16.93 388.12 237.62   16.66
   1   3   1  5326.2   133.4   2-0.22714 0.35460 0.04563 0.25262 0.97279-0.90025  0 227.55 225.00   18.00 227.45 224.97   17.73
   1   3   1  4979.4   137.0   2 0.07914 0.04836 0.37570-0.07720-0.92335 0.99584  0 308.23 341.25  222.86 308.31 341.08  222.76
  -1  -3  -2 352.100  56.446   1-0.42807 0.30056 0.37291-0.67075-0.82322 0.67805  0 219.71 285.57   27.15 219.84 285.48   27.04
  -1  -3  -2 513.069  65.290   2-0.15848 0.03099-0.54413 0.24575 0.82390-0.96884  0 387.31 299.50   53.37 387.33 299.55   53.41
  -1  -3  -2 373.204  62.644   2 0.09881-0.22631 0.21769-0.51620-0.97100 0.82603  0 289.01 170.26  212.96 289.05 170.12  213.22
  -1  -3   2 240.096  54.559   1-0.68396 0.55643-0.25230-0.04571-0.68450 0.82964  0 216.14 246.68   67.21 216.02 246.71   67.36
  -1  -3   2 386.241  65.347   2 0.12418-0.25170-0.63512 0.33672-0.76237 0.90734  0 275.53 173.49  161.04 275.61 173.66  161.08
  -1   3  -2 386.634  65.827   1-0.69799 0.57046-0.38205 0.68006-0.60568 0.46054  0 389.94 220.93   76.39 389.88 220.89   76.11
  -1   3  -2 417.389  67.765   2 0.12907-0.25659-0.20459 0.50298-0.97030 0.82533  0 380.50 310.38  188.94 380.38 310.39  188.79
  -1   3  -2 369.140  63.041   2-0.23563 0.10818 0.51242-0.21400 0.82578-0.97083  0 277.34 173.08  348.89 277.42 173.13  349.14
  -1   3   2 399.875  48.520   1-0.37610 0.24859 0.44636-0.14851-0.81198 0.95716  0 349.51 178.90   22.50 349.55 178.96   21.85
  -1   3   2 415.675  68.774   2-0.19261 0.06515-0.32166 0.61991 0.92706-0.78196  0 265.21 177.99   38.90 265.27 177.98   39.16
  -1   3   2 351.103  66.787   2 0.03889-0.16638 0.61195-0.31344-0.78994 0.93492  0 371.07 321.08  238.51 371.14 321.13  238.53
   1  -3  -2 390.781  48.243   1-0.65805 0.78558-0.13223-0.16578-0.74127 0.59613  0 254.20 331.19   59.69 254.09 331.06   59.60
   1  -3  -2 474.285  69.122   2-0.13998 0.26747-0.63889 0.34051 0.75646-0.90139  0 334.34 343.31   60.02 334.35 343.19   60.16
   1  -3  -2 396.017  59.425   2 0.09042 0.03708 0.28969-0.58820-0.95284 0.80786  0 234.56 202.49  217.52 234.48 202.62  217.50
   1  -3   2 309.879  54.662   1-0.66087 0.78840-0.66442 0.36641-0.34900 0.49413  0 221.45 290.31   98.09 221.48 290.26   98.21
   1  -3   2 445.331  66.093   2-0.23275 0.36021 0.15589-0.45414 0.95996-0.81487  0 320.86 346.46   11.35 320.83 346.42   11.36
   1  -3   2 411.594  58.660   2 0.12864-0.00112-0.55573 0.25733-0.82135 0.96632  0 227.36 213.03  166.81 227.27 212.96  166.76
   1   3  -2 325.760  68.222   1-0.58921 0.71672 0.07156 0.22629-0.80481 0.65963  0 397.25 270.87   46.76 397.19 270.86   46.75
   1   3  -2 419.975  67.738   2 0.13127-0.00375-0.30302 0.60141-0.94390 0.79893  0 322.99 345.97  182.65 322.72 345.94  182.95
   1   3  -2 388.865  56.991   2-0.22731 0.35476 0.65778-0.35936 0.71809-0.86314  0 228.33 211.49  338.74 228.22 211.51  338.71
   1   3   2 382.644  65.674   1-0.19411 0.32162 0.65196-0.35411-0.73299 0.87816  0 392.21 226.11    5.45 392.18 226.16    5.43
   1   3   2 422.952  56.868   2-0.20998 0.33744-0.16724 0.46549 0.96330-0.81820  0 222.18 223.10   29.94 222.09 223.14   30.02
   1   3   2 393.692  61.713   2 0.04410 0.08339 0.58586-0.28735-0.80921 0.95419  0 308.27 347.68  236.66 308.35 347.47  236.64
  -1  -3  -3 276.717  57.269   1-0.34930 0.22179 0.48144-0.77928-0.80387 0.58611  0 214.13 295.52   19.37 214.25 295.56   19.28
  -1  -3  -3 277.734  65.083   2-0.12424-0.00325-0.70863 0.41025 0.69456-0.91197  0 396.77 305.61   65.55 397.15 305.72   65.59
  -1  -3  -3 309.987  66.564   2 0.07828-0.20578 0.38177-0.68028-0.92093 0.70347  0 286.64 160.69  223.02 286.66 160.74  223.13
  -1  -3   3 190.738  54.328   1-0.69842 0.57089-0.39359 0.09559-0.59774 0.81544  0 208.82 236.96   76.76 208.89 236.90   76.91
  -1  -3   3 220.657  69.664   2 0.11132-0.23884-0.76528 0.46689-0.63400 0.85145  0 266.59 166.97  150.73 266.89 166.93  150.57
  -1  -3   3 215.779  65.866   2-0.23671 0.10926 0.46711-0.76536 0.85193-0.63426  0 384.20 324.23  351.96 384.07 324.11  352.10
  -1   3  -3 260.304  68.584   1-0.69865 0.57112-0.44970 0.74770-0.55647 0.33876  0 406.17 231.28   80.74 406.25 231.29   80.90
  -1   3  -3 284.327  67.834   2 0.13191-0.25943-0.36078 0.65918-0.92327 0.70582  0 389.54 316.69  179.19 389.92 316.70  179.43
  -1   3  -3 163.213  63.231   2-0.22602 0.09857 0.67281-0.37439 0.70445-0.92202  0 274.80 163.85  337.64 274.91 163.93  337.55
  -1   3   3 225.940  69.929   2-0.17345 0.04599-0.45553 0.75378 0.87316-0.65551  0 256.74 171.79   47.45 256.90 171.86   47.50
  -1   3   3 247.718  69.581   2 0.00780-0.13530 0.74497-0.44646-0.66705 0.88451  0 375.41 332.52  249.37 375.34 332.54  249.09
   1  -3  -3 218.007  36.432   1-0.58366 0.71117 0.08474-0.38259-0.80756 0.58980  0 254.51 342.30   45.69 254.41 342.26   45.91
   1  -3  -3 273.039  73.089   2-0.10971 0.23720-0.76495 0.46658 0.63467-0.85208  0 343.45 351.06   70.23 343.46 351.17   70.38
   1  -3  -3 317.591  61.498   2 0.07095 0.05655 0.43021-0.72872-0.89993 0.68247  0 230.84 193.18  226.28 230.86 193.06  226.18
   1  -3   3 280.907  58.108   1-0.63418 0.76184-0.72441 0.42627-0.27027 0.48774  0 209.41 280.72  104.24 209.37 280.68  104.08
   1  -3   3 245.529  65.862   2-0.23719 0.36465 0.31377-0.61203 0.91939-0.70175  0 323.17 356.48    1.98 323.08 356.45    2.00
   1  -3   3 276.888  56.811   2 0.11765 0.00987-0.71079 0.41240-0.69349 0.91095  0 219.75 208.34  154.94 219.70 208.40  155.20
   1   3  -3 181.653  66.761   1-0.63084 0.75837-0.04028 0.33829-0.77487 0.55716  0 406.79 282.44   53.78 406.90 282.58   53.78
   1   3  -3 285.543  70.336   2 0.13162-0.00410-0.44581 0.74420-0.88540 0.66794  0 331.86 354.48  173.87 331.97 354.58  174.08
   1   3  -3 248.692  55.227   2-0.21414 0.34159 0.77791-0.47949 0.59077-0.80834  0 224.10 201.49  328.75 224.18 201.61  328.62
   1   3   3 352.426  58.766   2-0.19077 0.31823-0.33581 0.63406 0.92241-0.70476  0 214.54 218.39   39.94 214.48 218.62   40.02
   1   3   3 228.687  63.145   2 0.00884 0.11866 0.74104-0.44253-0.67140 0.88887  0 310.27 357.67  248.67 310.42 357.49  248.75
  -1  -3  -4 67138.4   522.2   1-0.28218 0.15468 0.56141-0.85926-0.77794 0.48759  0 206.49 306.15   12.87 206.46 306.02   13.11
  -1  -3  -4 75283.2   550.8   1-0.05239-0.07532-0.83198 0.53374 0.55232-0.84229  0 410.55 314.09  165.02 410.73 313.98  164.96
  -1  -3  -4 77105.2   556.5   2-0.09265-0.03483-0.82263 0.52426 0.56097-0.85085  0 409.46 314.83   75.98 409.76 314.85   75.84
  -1  -3  -4 69005.3   529.4   2 0.06018-0.18768 0.49754-0.79605-0.86535 0.57540  0 282.53 148.58  230.59 282.61 148.69  230.56
  -1  -3   4 52292.0   476.0   1-0.69485 0.56732-0.51211 0.21410-0.50491 0.79518  0 199.94 226.79   85.50 199.84 226.79   85.54
  -1  -3   4 66537.9   545.0   2 0.09625-0.22377-0.85412 0.55551-0.51109 0.80083  0 256.55 158.14  141.94 256.69 158.20  141.79
  -1  -3   4 64806.5   536.7   2-0.23386 0.10642 0.55708-0.85550 0.79685-0.50676  0 390.59 338.78  345.90 390.96 338.75  346.07
  -1   3  -4 56882.4   511.0   1-0.69670 0.56917-0.49043 0.78844-0.52353 0.23326  0 424.55 242.06   84.00 424.78 242.15   83.90
  -1   3  -4 68312.2   537.9   2 0.13117-0.25869-0.47313 0.77153-0.87117 0.58123  0 401.84 325.93  172.18 402.11 325.91  172.31
  -1   3  -4 59603.4   506.0   2-0.21260 0.08515 0.78814-0.48972 0.57762-0.86771  0 270.71 152.09  327.72 270.81 152.22  327.66
  -1   3   4 76973.6   588.8   2-0.15775 0.03026-0.54814 0.84652 0.82137-0.53150  0 247.13 163.71   53.73 247.00 163.80   53.69
  -1   3   4 70710.7   564.7   2-0.02042-0.10705 0.83807-0.53954-0.54518 0.83513  0 381.55 346.81  257.96 381.42 346.71  258.03
   1  -3  -4 62023.9   356.2   1-0.48481 0.61232 0.28184-0.57968-0.82797 0.53762  0 250.58 354.18   33.11 250.51 354.00   33.20
   1  -3  -4 75107.7   392.4   1-0.10023 0.22794-0.85503 0.55678 0.50880-0.79877  0 354.67 362.30  161.01 354.54 362.12  161.03
   1  -3  -4 75314.7   581.2   2-0.08265 0.21013-0.85307 0.55470 0.51520-0.80508  0 354.57 362.07   78.99 354.55 361.98   79.02
   1  -3  -4 71208.6   564.9   2 0.05473 0.07277 0.52878-0.82729-0.84699 0.55704  0 225.82 181.47  232.74 225.66 181.49  232.67
   1  -3   4 56554.0   505.4   1-0.60538 0.73305-0.77056 0.47241-0.19939 0.48936  0 196.25 271.06  109.00 196.24 271.09  109.20
   1  -3   4 66258.7   527.7   2 0.10287 0.02464-0.81979 0.52118-0.56335 0.85309  0 210.40 201.80  145.28 210.29 201.80  145.39
   1  -3   4 59794.9   503.0   2-0.23746 0.36491 0.42902-0.72727 0.87153-0.58130  0 326.91 369.77  354.63 326.97 369.60  354.57
   1   3  -4 52134.2   475.4   1-0.65639 0.78393-0.12596 0.42397-0.74383 0.45356  0 419.35 295.03   58.94 419.61 295.07   59.20
   1   3  -4 68327.8   549.4   2 0.12918-0.00166-0.54369 0.84209-0.82928 0.53934  0 343.04 366.07  167.63 343.00 365.92  167.59
   1   3  -4 58650.5   508.1   2-0.19914 0.32658 0.85971-0.56129 0.47036-0.76046  0 218.69 189.75  320.05 218.59 189.79  320.20
   1   3   4 71606.4   534.5   2-0.17319 0.30065-0.45721 0.75546 0.87233-0.58214  0 205.04 212.07   47.62 204.94 212.05   47.61
   1   3   4 66974.1   518.5   2-0.02296 0.15043 0.84539-0.54686-0.53365 0.82360  0 314.02 370.86  258.96 314.05 370.66  258.83
  -1  -3  -5  3993.1   152.8   1-0.22948 0.10198 0.61758-0.91543-0.75228 0.38935  0 196.84 317.19    8.49 196.80 317.04    8.47
  -1  -3  -5  4631.5   179.6   1-0.15802 0.03032-0.87805 0.57980 0.45173-0.81420  0 424.32 328.30  156.04 424.44 328.17  156.19
  -1  -3  -5  4576.3   182.9   2-0.06549-0.06200-0.89767 0.59929 0.43578-0.79813  0 424.79 326.54   84.27 425.04 326.53   84.32
  -1  -3  -5  4580.9   184.7   2 0.04614-0.17364 0.57531-0.87382-0.81663 0.45419  0 277.19 134.24  236.10 277.30 134.36  235.89
  -1  -3   5  3577.5   152.1   1-0.67791 0.55037-0.60880 0.31079-0.41208 0.77492  0 189.24 216.25   93.04 189.14 216.26   93.29
  -1  -3   5  4217.5   170.3   2 0.08082-0.20834-0.91371 0.61510-0.39825 0.76042  0 245.41 147.75  134.36 245.29 147.87  134.46
  -1  -3   5  3884.7   186.9   2-0.23047 0.10302 0.61651-0.91493 0.75286-0.39024  0 399.25 355.93  342.00 399.51 355.90  341.82
  -1   3  -5  3709.0   182.1   1-0.69471 0.56718-0.51345 0.81145-0.50374 0.14089  0 445.49 253.70   85.63 445.72 253.77   85.64
  -1   3  -5  4328.8   190.6   2 0.12887-0.25640-0.55034 0.84873-0.82494 0.46251  0 416.64 337.78  167.00 416.84 337.73  167.13
  -1   3  -5  3921.0   180.6   2-0.19731 0.06986 0.86745-0.56903 0.45672-0.81934  0 265.31 138.16  319.04 265.41 138.30  319.30
  -1   3   5  4828.5   180.3   2-0.14578 0.01829-0.61088 0.90925 0.77819-0.41584  0 235.88 153.93   57.98 235.79 154.04   58.11
  -1   3   5  4105.9   191.8   2-0.04498-0.08248 0.90104-0.60250-0.43141 0.79384  0 388.97 363.58  265.64 389.20 363.48  265.61
   1  -3  -5  3926.5   109.4   1-0.38842 0.51593 0.42968-0.72753-0.81517 0.45223  0 243.27 366.71   23.02 243.16 366.49   23.05
   1  -3  -5  4914.6   133.9   1-0.27594 0.40360-0.90579 0.60765 0.32155-0.68400  0 363.64 377.42  145.99 363.47 377.26  146.00
   1  -3  -5  4834.4   197.8   2-0.05896 0.18645-0.91269 0.61432 0.40437-0.76672  0 367.53 375.47   86.16 367.49 375.38   86.35
   1  -3  -5  4317.4   171.7   2 0.04219 0.08531 0.59554-0.89404-0.80222 0.43978  0 219.24 168.12  237.02 219.15 168.18  237.33
   1  -3   5  3540.0   157.8   1-0.57553 0.70319-0.80665 0.50851-0.13448 0.49693  0 182.19 261.31  113.96 182.17 261.32  113.79
   1  -3   5  4627.0   168.7   2 0.08666 0.04085-0.89352 0.59492-0.44057 0.80275  0 199.38 193.63  137.26 199.30 193.61  137.14
   1  -3   5  3656.4   175.4   2-0.23575 0.36319 0.50873-0.80715 0.82802-0.46540  0 332.09 385.72  349.34 332.15 385.61  349.38
   1   3  -5  3333.2   165.6   1-0.67155 0.79908-0.18805 0.48606-0.71670 0.35386  0 435.04 308.67   63.24 435.21 308.71   63.18
   1   3  -5  4129.3   190.0   2 0.12588 0.00164-0.60870 0.90710-0.78335 0.42092  0 355.80 379.93  163.25 355.74 379.83  163.02
   1   3  -5  4055.1   165.9   2-0.18411 0.31155 0.91417-0.61575 0.36112-0.72373  0 211.74 176.33  313.30 211.67 176.35  313.13
   1   3   5  4473.3   165.1   2-0.15931 0.28679-0.53951 0.83789 0.82677-0.46442  0 193.84 203.98   53.01 193.78 204.00   53.10
   1   3   5  4132.4   178.6   2-0.05009 0.17756 0.91204-0.61350-0.40703 0.76947  0 318.87 386.86  267.24 318.87 386.70  267.17
  -1  -3  -6 11041.9   250.3   1-0.19035 0.06284 0.65549-0.95334-0.73082 0.29530  0 185.50 328.96    5.00 185.46 328.83    5.11
  -1  -3  -6 11879.5   273.6   1-0.24902 0.12136-0.90190 0.60376 0.35293-0.78787  0 441.18 344.29  148.32 441.27 344.13  148.38
  -1  -3  -6 11035.1   274.3   2-0.04228-0.08521-0.94553 0.64716 0.32276-0.75758  0 442.92 340.73   91.50 443.15 340.71   91.48
  -1  -3  -6 10826.6   271.4   2 0.03594-0.16344 0.62615-0.92466-0.77888 0.34395  0 270.88 117.68  239.58 270.99 117.88  239.58
  -1  -3   6  9603.8   241.1   1-0.65256 0.52490-0.68545 0.38730-0.32300 0.75794  0 177.01 205.05  100.08 177.01 205.14  100.18
  -1  -3   6 11199.9   273.7   2 0.06603-0.19355-0.95271 0.65411-0.29661 0.73122  0 232.75 135.93  127.99 232.67 136.04  128.17
  -1  -3   6 10247.1   283.3   2-0.22757 0.10013 0.65465-0.95307 0.72087-0.28572  0 409.39 375.74  338.83 409.76 375.69  338.95
  -1   3  -6  8771.2   267.6   1-0.69350 0.56597-0.52433 0.82233-0.49410 0.05869  0 469.39 266.39   86.46 469.54 266.48   86.48
  -1   3  -6 10416.1   276.6   2 0.12621-0.25373-0.60193 0.90033-0.78851 0.35360  0 434.10 352.15  163.50 434.31 352.11  163.51
  -1   3  -6  9610.6   268.3   2-0.18198 0.05453 0.92043-0.62201 0.34596-0.78111  0 258.80 122.11  312.17 258.90 122.25  312.18
  -1   3   6 12413.2   286.7   2-0.13720 0.00972-0.65203 0.95041 0.74568-0.31086  0 223.38 142.68   61.00 223.31 142.80   61.15
  -1   3   6 10707.3   289.6   2-0.06617-0.06130 0.94246-0.64393-0.32770 0.76263  0 398.38 383.07  272.28 398.57 382.98  272.13
   1  -3  -6 10440.0   179.5   1-0.31151 0.43902 0.52762-0.82547-0.79030 0.35478  0 233.41 380.33   15.94 233.31 380.07   15.77
   1  -3  -6 11526.5   201.4   1-0.39780 0.52546-0.90276 0.60462 0.16366-0.59860  0 375.82 394.76  134.61 375.73 394.55  134.54
   1  -3  -6 11291.6   293.8   2-0.03837 0.16586-0.95203 0.65366 0.30358-0.73839  0 382.38 391.51   92.73 382.39 391.43   92.66
   1  -3  -6 11141.7   273.8   2 0.03301 0.09449 0.63967-0.93817-0.76794 0.33302  0 211.52 153.15  240.59 211.40 153.20  240.58
   1  -3   6 10401.8   257.6   1-0.54514 0.67281-0.83507 0.53693-0.07402 0.50896  0 167.12 251.23  118.00 167.09 251.24  118.00
   1  -3   6 10640.1   259.1   2 0.07078 0.05673-0.94163 0.64302-0.32914 0.76374  0 186.83 184.10  130.00 186.76 184.13  130.16
   1  -3   6 10662.0   276.1   2-0.23359 0.36104 0.56277-0.86119 0.79292-0.35778  0 338.35 404.59  345.72 338.41 404.44  345.68
   1   3  -6  8327.6   255.9   1-0.68020 0.80774-0.23097 0.52898-0.69568 0.26027  0 453.74 323.97   65.92 453.97 323.98   65.97
   1   3  -6 10598.2   291.4   2 0.12302 0.00450-0.65096 0.94936-0.74907 0.31416  0 370.32 396.49  160.00 370.27 396.34  159.89
   1   3  -6 10494.8   264.6   2-0.16961 0.29705 0.94974-0.65132 0.26309-0.69824  0 203.62 161.34  307.18 203.53 161.36  307.08
   1   3   6 12417.5   270.6   2-0.14903 0.27652-0.59453 0.89291 0.79014-0.35533  0 181.17 194.61   57.01 181.09 194.65   56.93
   1   3   6 10610.2   270.5   2-0.07280 0.20026 0.95297-0.65444-0.29419 0.72911  0 324.71 405.76  274.24 324.66 405.55  274.18
  -1  -3  -7  1289.8   138.6   1-0.16353 0.03602 0.67988-0.97773-0.71486 0.20674  0 172.60 341.76    2.98 172.53 341.66    2.85
  -1  -3  -7  1842.6   189.0   1-0.32670 0.19904-0.90898 0.61084 0.25890-0.76633  0 461.20 362.63  141.27 461.44 362.43  141.37
  -1  -3  -7  1820.2   195.7   2-0.02251-0.10498-0.97487 0.67649 0.22165-0.72893  0 464.46 357.67   97.69 464.56 357.56   97.63
  -1  -3  -7  1722.2   200.6   2 0.02891-0.15641 0.65839-0.95690-0.75212 0.24471  0 263.58  99.00  242.28 263.72  99.15  242.01
  -1  -3   7  1402.4   136.7   1-0.62141 0.49375-0.74658 0.44844-0.23763 0.74506  0 163.28 193.08  106.42 163.28 193.09  106.46
  -1  -3   7  1807.8   167.6   2 0.05209-0.17960-0.97737 0.67877-0.20501 0.71205  0 218.94 122.57  122.62 218.81 122.76  122.68
  -1  -3   7  1543.1   169.4   2-0.22558 0.09813 0.67809-0.97651 0.69951-0.19184  0 421.72 398.53  337.34 421.83 398.46  337.13
  -1   3  -7  1352.8   163.9   1-0.69322 0.56569-0.52646 0.82447-0.49222-0.01575  0 496.86 280.74   86.60 496.96 280.74   86.64
  -1   3  -7  1813.3   215.2   2 0.12417-0.25169-0.63525 0.93365-0.76226 0.25486  0 454.80 369.28  161.01 454.91 369.28  161.07
  -1   3  -7  1334.6   151.4   2-0.16694 0.03949 0.95487-0.65645 0.24567-0.75333  0 251.62 104.03  305.99 251.39 104.02  306.03
  -1   3   7  1642.5   165.5   2-0.13141 0.00392-0.67803 0.97641 0.72319-0.21591  0 209.52 129.97   63.25 209.48 130.11   63.15
  -1   3   7  1618.3   173.6   2-0.08441-0.04306 0.96867-0.67013-0.23358 0.74099  0 409.84 405.77  277.75 409.70 405.55  277.82
   1  -3  -7  1725.9   104.5   1-0.25821 0.38572 0.58779-0.88564-0.76670 0.25859  0 221.79 395.29   10.81 221.71 395.11   10.98
   1  -3  -7  1615.4   140.0   1-0.48243 0.61010-0.87521 0.57707 0.03549-0.54293  0 390.55 414.82  125.70 390.76 414.63  125.59
   1  -3  -7  1888.5   213.6   2-0.02070 0.14818-0.97704 0.67866 0.21206-0.71935  0 399.38 410.54   98.36 399.58 410.48   98.20
   1  -3  -7  1643.3   162.2   2 0.02670 0.10080 0.66792-0.96643-0.74375 0.23634  0 202.54 136.41  242.90 202.42 136.49  242.75
   1  -3   7  1523.7   145.1   1-0.51383 0.64149-0.85772 0.55958-0.01731 0.52475  0 150.86 240.80  122.00 150.83 240.65  121.93
   1  -3   7  1655.1   156.2   2 0.05581 0.07170-0.97185 0.67325-0.22889 0.73593  0 172.64 173.44  124.36 172.65 173.46  124.10
   1  -3   7  1540.6   161.3   2-0.23163 0.35907 0.59807-0.89648 0.76725-0.25958  0 345.77 426.54  342.93 345.75 426.41  343.16
   1   3  -7  1334.5   159.4   1-0.68499 0.81252-0.25862 0.55663-0.68111 0.17313  0 476.12 341.50   67.79 476.17 341.39   67.78
   1   3  -7  1674.4   178.6   2 0.12090 0.00662-0.67751 0.97590-0.72551 0.21811  0 386.66 416.03  157.96 386.88 415.79  157.85
   1   3  -7  1541.2   159.4   2-0.15580 0.28324 0.97219-0.67377 0.17483-0.68250  0 194.17 144.72  301.68 194.15 144.77  301.77
   1   3   7  1642.1   146.6   2-0.14186 0.26935-0.62994 0.92831 0.76358-0.25630  0 166.84 184.29   59.49 166.80 184.20   59.50
   1   3   7  1495.4   157.4   2-0.09188 0.21935 0.97669-0.67815-0.19401 0.70142  0 331.35 427.48  279.96 331.33 427.48  280.18
  -1  -3  -8  64.018  82.743   1-0.14670 0.01919 0.69426-0.99211-0.70462 0.12392  0 157.92 355.75    1.57 157.92 355.86    1.45
  -1  -3  -8 -68.328 155.097   1-0.39299 0.26533-0.90361 0.60547 0.17041-0.75034  0 485.51 383.71  135.60 485.47 383.92  135.02
  -1  -3  -8  37.704 138.045   2-0.00523-0.12229-0.99133 0.69273 0.13128-0.71076  0 489.85 377.38  102.97 489.86 377.36  103.03
  -1  -3  -8 -25.529 111.600   2 0.02446-0.15196 0.67763-0.97614-0.73499 0.15509  0 255.49  78.57  243.51 255.55  77.89  243.53
  -1  -3   8  46.633  81.762   1-0.58625 0.45859-0.79477 0.49663-0.15700 0.73692  0 147.64 179.76  112.56 147.90 179.86  112.21
  -1  -3   8-111.413  97.348   2 0.03889-0.16640-0.99179 0.69319-0.12181 0.70129  0 203.42 107.89  117.51 203.50 107.85  117.79
  -1  -3   8  40.299 152.712   2-0.22436 0.09691 0.69112-0.98954 0.68703-0.10684  0 436.13 425.02  336.50 436.08 424.92  336.09
  -1   3  -8-168.492 147.858   2 0.12266-0.25018-0.65561 0.95400-0.74507 0.16519  0 479.41 389.86  159.50 479.40 389.71  159.54
  -1   3  -8 -23.005  98.420   2-0.15259 0.02514 0.97610-0.67768 0.15473-0.73492  0 243.01  83.13  300.51 242.85  83.31  300.58
  -1   3   8 -28.841 102.425   2-0.12791 0.00042-0.69320 0.99157 0.70931-0.12956  0 194.18 115.79   64.42 194.12 115.83   64.35
  -1   3   8  -7.483 154.758   2-0.10044-0.02702 0.98390-0.68537-0.14779 0.72769  0 422.98 431.93  282.67 422.80 431.82  282.91
   1  -3  -8  35.013  63.166   1-0.22413 0.35163 0.62295-0.92080-0.74947 0.16877  0 208.58 412.18    8.39 208.68 412.08    8.01
   1  -3  -8  53.198 101.230   1-0.54299 0.67065-0.83682 0.53868-0.06997-0.50995  0 408.62 438.05  118.54 408.40 438.31  118.28
   1  -3  -8 -79.341 149.912   2-0.00484 0.13236-0.99161 0.69300 0.12920-0.70868  0 419.10 432.60  102.90 419.50 432.92  103.15
   1  -3  -8 118.041 103.755   2 0.02278 0.10472 0.68486-0.98336-0.72832 0.14842  0 191.88 117.85  244.12 192.10 117.80  244.10
   1  -3   8 -46.044  82.089   1-0.48176 0.60943-0.87554 0.57740 0.03659 0.54334  0 133.29 229.39  125.51 133.15 229.31  125.66
   1  -3   8-204.136  80.706   2 0.04147 0.08604-0.98952 0.69091-0.13832 0.71780  0 157.25 161.95  118.51 156.78 161.58  118.75
   1  -3   8   5.868 139.079   2-0.23025 0.35769 0.61981-0.91823 0.75021-0.17002  0 354.44 452.16  341.55 354.13 452.05  341.58
   1   3  -8  -7.480 137.154   1-0.68737 0.81490-0.27424 0.57225-0.67254 0.09200  2 502.83 362.05   68.55 502.55 361.77   68.80
   1   3  -8   5.323 156.511   2 0.11940 0.00812-0.69293 0.99133-0.71105 0.13116  0 406.21 438.85  156.36 406.08 438.83  156.64
   1   3  -8   1.364  90.445   2-0.14296 0.27042 0.98516-0.68663 0.09494-0.67484  0 183.34 126.28  296.86 183.44 126.32  297.07
   1   3   8  62.296  93.833   2-0.13733 0.26482-0.65146 0.94983 0.74615-0.16640  0 150.65 172.80   60.92 150.73 172.66   61.11
   1   3   8 -33.776 138.118   2-0.10839 0.23586 0.98862-0.69009-0.10432 0.68422  0 338.70 453.32  285.50 338.88 453.01  285.45
  -1  -3  -9 364.477 130.484   2 0.02216-0.14966 0.68750-0.98600-0.72585 0.07346  0 246.38  53.70  244.50 246.32  53.54  244.31
  -1  -3   9 254.928 109.858   1-0.54873 0.42107-0.83208 0.53394-0.08080 0.73322  0 130.91 165.18  117.50 130.67 165.05  117.52
  -1  -3   9 282.391 136.614   2 0.02615-0.15367-0.99862 0.70002-0.04548 0.69740  0 186.53  91.44  113.41 186.40  91.03  113.33
  -1  -3   9 326.642 208.611   2-0.22383 0.09638 0.69650-0.99492 0.68175-0.02904  0 452.58 456.16  335.63 453.08 456.13  335.66
  -1   3  -9 335.271 130.351   2-0.13917 0.01171 0.98763-0.68910 0.07218-0.72457  0 233.32  59.82  296.10 233.25  59.64  295.74
  -1   3   9 356.385 135.192   2-0.12621-0.00128-0.70036 0.99873 0.70255-0.05033  0 176.81  99.67   64.57 176.90  99.72   64.92
  -1   3   9 318.563 203.628   2-0.11480-0.01267 0.99099-0.69246-0.06896 0.72135  0 438.50 462.85  287.67 438.39 462.83  287.52
   1  -3  -9 207.628  85.450   1-0.20549 0.33299 0.64114-0.93899-0.73940 0.08612  0 194.40 431.90    6.61 194.32 431.62    6.41
   1  -3  -9 236.066 133.867   1-0.58720 0.71487-0.79366 0.49552-0.15904-0.49338  0 428.99 466.97  111.90 429.01 466.79  112.06
   1  -3  -9 343.316 202.878   2 0.00918 0.11834-0.99859 0.69998 0.05238-0.70429  0 443.06 459.97  107.62 443.16 460.06  107.65
   1  -3  -9 420.638 127.655   2 0.02075 0.10675 0.69346-0.99197-0.72019 0.06780  0 180.28  96.61  244.59 180.20  96.71  244.79
   1  -3   9 186.805 107.617   1-0.44900 0.57666-0.88915 0.59101 0.08835 0.56406  0 113.75 216.81  129.54 113.67 216.94  129.26
   1  -3   9 384.401 124.716   2 0.02802 0.09950-0.99805 0.69944-0.05582 0.70773  0 138.94 148.45  113.64 138.78 148.35  113.94
   1  -3   9  70.130 183.219   2-0.22937 0.35682 0.63161-0.93003 0.74058-0.08786  0 363.49 482.71  340.38 363.75 482.32  340.72
   1   3  -9 251.029 201.604   2 0.11870 0.00882-0.70023 0.99863-0.70398 0.05161  0 428.61 466.46  155.92 428.67 466.46  156.05
   1   3  -9 190.313 123.586   2-0.13055 0.25801 0.99122-0.69268 0.02113-0.67351  0 171.40 105.56  292.97 171.06 105.62  292.76
   1   3   9 280.818 111.445   2-0.13483 0.26232-0.66292 0.96130 0.73645-0.08422  0 132.32 159.70   61.40 132.52 159.93   61.98
   1   3   9 212.466 175.637   2-0.12293 0.25039 0.99215-0.69361-0.02304 0.67543  0 347.39 482.93  290.49 347.44 483.01  290.19
  -1  -3 -10  3178.0   267.3   2 0.02149-0.14899 0.69033-0.98884-0.72318-0.00170  0 235.97  25.24  244.53 235.83  25.25  244.54
  -1  -3  10  2558.5   218.4   1-0.50883 0.38117-0.86082 0.56268-0.00865 0.73355  0 111.49 148.03  122.54 111.24 148.14  122.53
  -1  -3  10  2946.5   273.6   2 0.01402-0.14153-0.99958 0.70097 0.02535 0.69900  0 166.98  71.67  109.35 167.05  71.84  109.22
  -1  -3  10  2674.9   314.5   2-0.22388 0.09643 0.69599-0.99441 0.68226 0.04298  0 473.27 493.51  335.67 473.71 493.76  335.70
  -1   3 -10  2208.3   254.8   2-0.12616-0.00130 0.99200-0.69347-0.00439-0.72049  0 222.31  32.08  291.36 222.13  32.15  291.27
  -1   3  10  3118.1   281.3   2-0.12597-0.00152-0.70136 0.99973 0.70159 0.02310  0 157.20  81.23   64.72 157.32  81.37   65.00
  -1   3  10  2757.8   318.5   2-0.12764 0.00018 0.99181-0.69328 0.00420 0.72067  2 457.21 500.40  291.60 457.21 500.23  291.78
   1  -3 -10  2660.2   182.0   1-0.19908 0.32658 0.64727-0.94512-0.73581 0.00994  0 178.66 454.60    5.83 178.53 454.60    5.86
   1  -3 -10  2214.9   271.4   1-0.62126 0.74893-0.74682 0.44868-0.23726-0.48764  2 452.77 501.86  106.57 452.96 501.92  106.48
   1  -3 -10  2894.9   323.0   2 0.02164 0.10588-0.99958 0.70098-0.01907-0.70528  0 471.90 493.74  111.98 471.83 493.34  111.79
   1  -3 -10  3229.4   279.9   2 0.02022 0.10728 0.69570-0.99421-0.71805-0.00683  0 166.41  72.61  244.67 166.35  72.60  244.97
   1  -3  10  2719.8   227.2   1-0.41547 0.54314-0.89901 0.60087 0.13843 0.58648  0  92.22 202.98  132.86  91.94 203.11  132.76
   1  -3  10  2842.8   242.3   2 0.01492 0.11259-0.99968 0.70108 0.02021 0.70414  0 118.38 133.49  109.48 118.18 133.57  109.52
   1   3 -10  2894.2   317.0   2 0.11860 0.00892-0.70132 0.99972-0.70291-0.02195  2 455.85 500.42  155.62 455.90 500.30  155.97
   1   3 -10  2219.7   258.2   2-0.11860 0.24606 0.99181-0.69327-0.04751-0.67737  0 156.90  82.09  289.03 156.68  82.09  288.77
   1   3  10  3069.1   246.7   2-0.13397 0.26145-0.66680 0.96518 0.73309-0.00840  0 111.86 145.76   62.01 111.67 145.77   62.28
  -1  -3  11 583.085 164.587   1-0.46718 0.33952-0.88212 0.58398 0.06004 0.73736  0  89.12 127.94  127.33  88.99 128.31  127.29
  -1  -3  11 367.911 194.939   2 0.00203-0.12954-0.99579 0.69718 0.09169 0.70509  0 144.74  49.61  105.37 144.70  49.66  105.35
  -1   3  11 710.577 203.654   2-0.12691-0.00058-0.69740 0.99578 0.70536 0.09180  0 134.48  59.83   64.55 134.67  60.15   64.68
   1  -3 -11 380.559 129.560   1-0.20223 0.32974 0.64426-0.94211-0.73759-0.06087  0 161.33 483.26    6.61 161.07 482.36    6.13
   1  -3 -11 687.351 198.211   2 0.02090 0.10660 0.69284-0.99135-0.72079-0.07658  0 150.29  44.96  244.62 149.99  44.49  244.74
   1  -3  11 381.953 145.815   1-0.38103 0.50869-0.90543 0.60729 0.18712 0.61027  0  66.82 186.90  136.39  67.17 187.25  136.21
   1  -3  11 647.074 175.401   2 0.00216 0.12536-0.99585 0.69724 0.09100 0.70579  0  94.53 116.80  105.43  94.22 116.85  105.39
   1   3 -11 653.044 191.863   2-0.10701 0.23447 0.98793-0.68940-0.11198-0.68538  0 139.80  54.87  285.34 139.70  54.77  285.00
   1   3  11 612.533 173.095   2-0.13443 0.26192-0.66470 0.96308 0.73491 0.06225  0  86.97 129.73   61.87  87.40 129.84   62.12
  -1  -3 -12  4934.0   339.8   1-0.15332 0.02581 0.68856-0.98641-0.70879-0.16226  0  77.25 438.43    1.98  76.87 438.56    2.00
  -1  -3  12  5208.7   344.9   1-0.42413 0.29646-0.89682 0.59868 0.12578 0.74410  0  63.15 104.22  132.04  63.06 104.50  131.87
  -1  -3  12  6083.1   418.4   2-0.00957-0.11794-0.98795 0.68935 0.15445 0.71476  0 118.47  23.25  101.57 118.30  23.38  101.66
  -1   3  12  5431.6   421.4   2-0.12883 0.00134-0.68927 0.98765 0.71296 0.15667  0 107.98  34.95   64.24 107.87  35.09   64.03
   1  -3 -12  5310.3   424.6   2 0.02258 0.10492 0.68573-0.98424-0.72750-0.14235  2 130.18  10.77  244.35 130.24  10.93  244.17
   1  -3  12  5064.3   322.5   1-0.34550 0.47316-0.90860 0.61045 0.23470 0.63519  0  38.37 168.53  139.60  38.39 168.60  139.61
   1  -3  12  5047.5   356.1   2-0.01014 0.13765-0.98746 0.68886 0.15751 0.71171  0  66.04  97.41  101.45  65.73  97.51  101.48
   1   3 -12  5361.3   411.6   2-0.09578 0.22325 0.98023-0.68170-0.17311-0.69674  0 119.45  22.22  281.45 119.20  22.29  281.41
   1   3  12  5550.2   351.1   2-0.13598 0.26347-0.65767 0.95604 0.74093 0.12870  0  58.74 111.50   61.57  58.58 111.58   61.58
  -1  -4   0  7862.8   193.0   1-0.62366 0.49613-0.01897-0.37838-0.78146 0.78146  0 201.50 276.30   52.42 201.51 276.21   52.45
  -1  -4   0  9393.2   213.5   2-0.21152 0.08406-0.15147-0.24620 0.96557-0.96557  0 397.99 321.13   28.89 398.30 321.12   29.10
  -1  -4   0  8477.8   204.0   2 0.13046-0.25798-0.26118-0.13668-0.95643 0.95643  0 273.56 156.26  185.40 273.75 156.36  185.44
  -1   4   0  7926.7   177.9   1-0.60806 0.48053 0.02397 0.37337-0.79353 0.79353  0 390.30 185.24   49.78 390.55 185.40   49.74
  -1   4   0  9183.1   218.6   2-0.23229 0.10483 0.14481 0.25286 0.96181-0.96181  0 259.35 162.08   12.00 259.54 162.20   12.01
  -1   4   0  8983.3   216.2   2 0.09515-0.22265 0.24991 0.14810-0.96358 0.96358  0 386.89 333.90  215.04 387.17 333.83  215.12
   1  -4   0  6211.5   153.8   1-0.69884 0.82637-0.44344 0.04610-0.56124 0.56124  0 221.00 321.33   80.44 220.97 321.22   80.45
   1  -4   0  9428.1   217.3   2-0.19739 0.32485-0.28253-0.11514 0.93873-0.93873  0 340.07 361.27   37.00 340.11 361.16   36.81
   1  -4   0  8791.0   203.0   2 0.12795-0.00043-0.17836-0.21950-0.97561 0.97561  0 221.64 193.31  189.97 221.53 193.32  190.32
   1   4   0  8349.1   202.1   1-0.43703 0.56454 0.35935 0.03778-0.82454 0.82454  0 417.02 236.04   27.97 417.17 236.13   27.97
   1   4   0  8847.3   198.4   2-0.23686 0.36432 0.29518 0.10249 0.92562-0.92562  0 213.44 205.53    3.00 213.35 205.55    3.13
   1   4   0  8888.2   208.2   2 0.10212 0.02537 0.18671 0.21130-0.97709 0.97709  0 323.97 364.60  211.33 324.01 364.47  211.39
  -1  -4  -1 21800.7   308.6   1-0.57417 0.44666 0.10704-0.50418-0.81171 0.73912  0 202.08 286.22   44.52 202.14 286.10   44.51
  -1  -4  -1 26285.2   333.3   2-0.19113 0.06367-0.33307-0.06460 0.92333-0.99588  0 401.63 319.75   40.09 401.99 319.75   39.85
  -1  -4  -1 24664.9   325.9   2 0.12347-0.25099-0.08542-0.31244-0.98867 0.91618  0 275.89 153.69  195.71 276.02 153.77  195.71
  -1  -4   1 19471.0   298.4   1-0.66198 0.53444-0.14751-0.24984-0.73487 0.80743  0 198.63 266.50   60.60 198.63 266.42   60.58
  -1  -4   1 25260.0   332.2   2-0.22576 0.09830 0.02415-0.42182 0.97388-0.90134  0 397.09 325.87   19.00 397.40 325.86   18.97
  -1  -4   1 24037.0   326.7   2 0.13180-0.25932-0.43086 0.03300-0.89274 0.96523  0 269.29 155.90  175.00 269.47 156.02  175.03
  -1   4  -1 21698.9   292.6   1-0.65498 0.52745-0.12069 0.51804-0.74595 0.67338  0 401.83 195.91   59.04 402.04 196.07   58.87
  -1   4  -1 25852.5   342.8   2-0.23724 0.10977 0.31734 0.08033 0.91816-0.99071  0 261.33 159.26    2.05 261.48 159.34    1.79
  -1   4  -1 25397.9   338.7   2 0.11198-0.23947 0.08153 0.31648-0.99036 0.91787  0 390.75 332.99  205.14 391.02 332.91  205.28
  -1   4   1 22810.9   272.3   1-0.52549 0.39798 0.20775 0.18938-0.82505 0.89764  0 381.83 174.15   37.80 381.72 174.30   38.05
  -1   4   1 14891.3   266.2   2-0.22248 0.09501-0.02324 0.42091 0.97466-0.90211  0 255.52 162.19   21.67 255.62 162.29   21.70
  -1   4   1 25765.8   343.2   2 0.07330-0.20080 0.41470-0.01669-0.90700 0.97949  0 385.53 338.09  225.01 385.83 338.01  225.20
   1  -4  -1 18358.1   241.3   1-0.69447 0.82200-0.33209-0.06525-0.63830 0.56573  0 227.75 331.97   72.70 227.74 331.81   72.68
   1  -4  -1 26193.0   345.2   2-0.17548 0.30295-0.44256 0.04489 0.87940-0.95195  0 344.55 361.95   46.75 344.58 361.86   46.67
   1  -4  -1 25866.4   337.9   2 0.11862 0.00888-0.00720-0.39082-0.99291 0.92043  0 222.59 189.54  200.08 222.42 189.56  200.18
   1  -4   1 17256.4   259.5   1-0.69198 0.81951-0.53616 0.13881-0.48343 0.55599  0 212.38 311.11   87.36 212.35 311.01   87.40
   1  -4   1 26158.8   342.2   2-0.21457 0.34203-0.11777-0.27990 0.96958-0.89703  0 337.73 363.95   27.00 337.75 363.82   27.15
   1  -4   1 24442.4   326.6   2 0.13186-0.00434-0.35250-0.04536-0.92648 0.99896  0 218.67 194.54  180.10 218.57 194.53  179.94
   1   4  -1 21719.5   319.9   1-0.50952 0.63703 0.23813 0.15900-0.82685 0.75426  0 421.13 247.61   36.01 421.28 247.71   36.08
   1   4  -1 24411.0   327.5   2 0.11752 0.00998 0.00752 0.39049-0.99304 0.92055  0 328.64 365.83  201.00 328.69 365.67  201.03
   1   4  -1 23497.8   315.4   2-0.23695 0.36441 0.45813-0.06046 0.85672-0.92927  0 214.05 201.47  352.82 213.99 201.52  352.69
   1   4   1 23139.6   321.9   1-0.34729 0.47479 0.48398-0.08685-0.80321 0.87580  0 416.14 224.30   19.01 416.32 224.41   19.09
   1   4   1 26549.0   330.4   2-0.23132 0.35878 0.12399 0.27368 0.96495-0.89240  0 210.74 207.09   12.96 210.66 207.12   13.22
   1   4   1 23748.5   317.5   2 0.08014 0.04736 0.36900 0.02901-0.92597 0.99846  0 321.34 366.86  222.25 321.38 366.70  222.33
  -1  -4  -2  6785.8   184.7   1-0.51774 0.39023 0.22264-0.61977-0.82606 0.68089  0 200.43 296.33   37.02 200.47 296.22   37.09
  -1  -4  -2  7390.8   200.3   2-0.16587 0.03838-0.50186 0.10403 0.84890-0.99383  0 408.15 321.67   50.56 408.46 321.70   50.56
  -1  -4  -2  7300.8   200.8   2 0.11219-0.23968 0.07904-0.47705-0.99054 0.84556  0 276.23 148.13  205.09 276.33 148.25  205.14
  -1  -4   2  5607.3   175.4   1-0.68695 0.55942-0.27140-0.12595-0.67413 0.81926  0 193.66 256.65   68.63 193.64 256.62   68.62
  -1  -4   2  6861.0   201.0   2-0.23365 0.10619 0.17793-0.57560 0.95590-0.81080  0 398.77 333.80   10.07 399.02 333.80   10.08
  -1  -4   2  6834.2   204.0   2 0.12742-0.25494-0.57984 0.18197-0.80471 0.94968  0 263.09 152.86  165.00 263.30 152.93  165.08
  -1   4  -2  5719.4   179.1   1-0.67952 0.55199-0.22726 0.62460-0.69757 0.55244  0 415.86 206.47   65.74 416.03 206.62   65.72
  -1   4  -2  7189.7   205.1   2 0.12289-0.25042-0.07540 0.47326-0.98955 0.84458  0 397.23 335.31  196.02 397.46 335.23  196.28
  -1   4  -2  6537.3   197.8   2-0.23644 0.10899 0.47853-0.08086 0.84564-0.99075  0 261.35 153.67  351.40 261.56 153.83  351.36
  -1   4   2  6703.0   157.2   1-0.39780 0.27029 0.41666-0.01952-0.81741 0.96258  0 376.13 162.37   24.31 376.09 162.51   23.97
  -1   4   2  7610.0   200.9   2-0.20944 0.08198-0.17257 0.57024 0.96247-0.81738  0 249.89 159.66   30.09 249.81 159.78   30.33
  -1   4   2  7077.0   207.5   2 0.04868-0.17618 0.56215-0.16414-0.82560 0.97058  0 386.61 345.47  234.82 386.91 345.40  234.97
   1  -4  -2  5349.5   134.1   1-0.67472 0.80225-0.20301-0.19434-0.70961 0.56447  0 232.23 343.07   63.93 232.18 342.91   64.15
   1  -4  -2  7601.4   211.5   2-0.15102 0.27851-0.58456 0.18673 0.79717-0.94211  0 351.14 365.88   56.02 351.14 365.81   56.22
   1  -4  -2  7511.6   198.6   2 0.10617 0.02133 0.14642-0.54443-0.98351 0.83853  0 221.59 183.28  208.99 221.42 183.32  209.05
   1  -4   2  5256.4   163.0   1-0.67697 0.80450-0.61218 0.21483-0.40860 0.55374  0 202.30 301.19   93.58 202.26 301.12   93.58
   1  -4   2  7290.5   204.7   2-0.22658 0.35404 0.03677-0.43444 0.97330-0.82820  0 337.39 369.98   18.13 337.40 369.87   18.24
   1  -4   2  7030.2   189.4   2 0.13018-0.00266-0.51317 0.11531-0.84835 0.99333  0 213.67 193.28  169.79 213.58 193.29  169.66
   1   4  -2  5748.6   192.1   1-0.56439 0.69189 0.12870 0.26844-0.81542 0.67024  0 428.31 259.38   43.03 428.46 259.47   43.13
   1   4  -2  6711.5   200.2   2 0.12673 0.00079-0.15201 0.54987-0.98022 0.83525  0 335.35 370.36  191.76 335.25 370.13  191.86
   1   4  -2  6591.1   184.6   2-0.23155 0.35900 0.59931-0.20142 0.76630-0.91135  0 212.61 194.90  343.00 212.54 194.94  343.07
   1   4   2  6492.3   190.4   1-0.24467 0.37218 0.60199-0.20486-0.76010 0.90527  0 418.52 212.14   10.10 418.70 212.20    9.79
   1   4   2  7242.7   185.8   2-0.22126 0.34872-0.03889 0.43656 0.97444-0.82934  0 205.90 206.16   22.60 205.81 206.17   22.60
   1   4   2  7061.0   196.9   2 0.05350 0.07400 0.53566-0.13765-0.84274 0.98771  0 320.63 372.56  233.18 320.71 372.40  233.14
  -1  -4  -3  2894.1   135.7   1-0.46051 0.33301 0.32258-0.71971-0.82697 0.60920  0 196.44 306.84   30.52 196.54 306.68   30.48
  -1  -4  -3  3120.7   159.0   2-0.13872 0.01124-0.64498 0.24714 0.75151-0.96891  0 417.53 326.75   60.63 417.82 326.78   60.62
  -1  -4  -3  3006.3   155.9   2 0.09857-0.22607 0.21987-0.61788-0.97054 0.75307  0 274.79 139.78  213.33 274.88 139.88  213.34
  -1  -4   3  2390.5   135.8   1-0.69814 0.57060-0.38532-0.01202-0.60343 0.82114  0 186.76 246.77   76.27 186.70 246.70   76.34
  -1  -4   3  3262.3   167.1   2-0.23697 0.10951 0.30243-0.70010 0.92324-0.70560  0 402.81 344.83    2.76 402.96 344.74    2.69
  -1  -4   3  1790.3   135.8   2 0.11862-0.24614-0.70111 0.30325-0.70312 0.92057  0 255.34 147.44  155.75 255.43 147.49  155.98
  -1   4  -3  2647.1   153.5   1-0.69109 0.56356-0.30265 0.69999-0.65635 0.43864  0 432.31 217.19   70.66 432.44 217.28   70.70
  -1   4  -3  2732.1   161.2   2 0.12924-0.25676-0.20953 0.60739-0.96922 0.75177  0 406.35 340.75  188.43 406.59 340.74  188.50
  -1   4  -3  2760.5   162.2   2-0.23046 0.10301 0.61664-0.21875 0.75276-0.97033  0 259.65 145.42  342.01 259.78 145.53  341.81
  -1   4   3  2763.1   120.7   1-0.22950 0.10199 0.61756-0.22043-0.75229 0.97006  0 373.95 149.53    8.52 373.88 149.67    8.47
  -1   4   3  3318.0   153.5   2-0.19579 0.06832-0.29567 0.69334 0.93501-0.71737  0 242.35 154.89   37.58 242.27 154.95   37.60
  -1   4   3  3318.8   174.9   2 0.02290-0.15040 0.68436-0.28635-0.72878 0.94625  0 389.81 355.92  243.97 390.12 355.84  244.06
   1  -4  -3  2408.5    98.1   1-0.63826 0.76580-0.06328-0.33406-0.76721 0.54951  0 233.94 354.78   55.20 233.90 354.64   55.24
   1  -4  -3  3232.3   173.1   2-0.12580 0.25328-0.70208 0.30425 0.70090-0.91830  0 359.77 372.92   65.00 359.78 372.80   65.05
   1  -4  -3  3030.9   147.9   2 0.09234 0.03516 0.27381-0.67182-0.95734 0.73988  0 218.82 174.84  216.58 218.64 174.83  216.54
   1  -4   3  2309.4   127.9   1-0.65719 0.78473-0.67427 0.27692-0.33684 0.55454  0 190.90 291.40   99.04 190.89 291.37   99.13
   1  -4   3  2943.6   161.9   2-0.23335 0.36081 0.17035-0.56802 0.95736-0.73971  0 338.88 379.22   10.55 338.86 379.14   10.52
   1  -4   3  2880.7   144.2   2 0.12313 0.00439-0.64945 0.25159-0.75037 0.96782  0 206.79 189.84  159.99 206.66 189.83  160.01
   1   4  -3  2449.3   140.3   1-0.60362 0.73113 0.03581 0.36132-0.79647 0.57870  0 438.69 271.58   49.00 438.77 271.66   49.00
   1   4  -3  3111.5   170.5   2 0.13095-0.00342-0.28256 0.68042-0.95027 0.73281  0 343.94 377.92  184.25 343.87 377.81  184.17
   1   4  -3  2656.6   137.0   2-0.22209 0.34954 0.71340-0.31551 0.66463-0.88220  0 209.45 186.17  334.25 209.30 186.19  334.27
   1   4   3  3378.1   146.2   2-0.20867 0.33613-0.18037 0.57804 0.96121-0.74357  0 199.02 202.93   30.90 198.92 202.94   30.80
   1   4   3  3007.7   158.9   2 0.02529 0.10221 0.67408-0.27607-0.73822 0.95569  0 321.81 381.66  243.27 321.77 381.44  243.24
  -1  -4  -4  3188.7   145.4   1-0.40657 0.27906 0.40435-0.80148-0.81927 0.52892  0 190.45 317.77   24.95 190.48 317.63   24.85
  -1  -4  -4  3472.9   173.0   1 0.02722-0.15493-0.78505 0.38738 0.61884-0.90881  0 433.74 329.90  171.49 433.85 329.82  171.49
  -1  -4  -4  3403.8   179.4   2-0.11168-0.01581-0.75768 0.35984 0.64300-0.93288  0 429.83 334.80   70.03 430.02 334.79   69.74
  -1  -4  -4  3192.0   178.7   2 0.08514-0.21264 0.33205-0.73006-0.93941 0.64946  0 271.76 128.75  220.16 271.88 128.90  220.07
  -1  -4   4  2450.4   140.9   1-0.69699 0.56946-0.48638 0.08904-0.52691 0.81718  0 177.93 236.50   83.59 177.93 236.49   83.60
  -1  -4   4  2952.6   156.2   2 0.10691-0.23442-0.79434 0.39620-0.59800 0.88774  0 246.16 139.98  148.04 246.05 139.93  147.87
  -1  -4   4  3146.2   188.0   2-0.23778 0.11032 0.39775-0.79543 0.88615-0.59592  0 408.85 358.74  356.61 409.00 358.61  356.54
  -1   4  -4  2507.2   170.2   1-0.69635 0.56881-0.35430 0.75165-0.62416 0.33388  0 451.30 228.29   73.98 451.45 228.36   74.20
  -1   4  -4  3303.8   185.2   2 0.13149-0.25901-0.31727 0.71513-0.93918 0.64923  0 418.18 349.10  182.28 418.36 349.11  182.09
  -1   4  -4  2550.6   164.3   2-0.22054 0.09310 0.72786-0.32996 0.64930-0.93939  0 256.52 134.67  332.99 256.49 134.80  333.05
  -1   4   4  3485.2   169.5   2-0.18307 0.05561-0.39157 0.78924 0.90175-0.61156  0 233.18 147.96   43.43 233.14 148.06   43.45
  -1   4   4  3049.4   187.4   2-0.00212-0.12535 0.78010-0.38206-0.62565 0.91560  0 395.14 369.31  252.21 395.31 369.19  252.25
   1  -4  -4  2776.6   108.1   1-0.58774 0.71525 0.07507-0.47221-0.80556 0.51521  0 232.68 367.38   46.66 232.68 367.18   46.52
   1  -4  -4  3515.8   131.4   1 0.04599 0.08172-0.77230 0.37463 0.63359-0.92356  0 376.62 380.40  173.00 376.44 380.17  173.03
   1  -4  -4  3158.5   187.9   2-0.10136 0.22885-0.79409 0.39626 0.59929-0.88916  0 370.45 382.78   73.27 370.43 382.74   73.06
   1  -4  -4  3147.1   160.5   2 0.07942 0.04807 0.37365-0.77166-0.92416 0.63421  0 214.34 164.15  222.65 214.28 164.25  222.63
   1  -4   4  2709.3   146.6   1-0.63384 0.76150-0.72505 0.32753-0.26936 0.55932  0 178.40 281.72  104.05 178.42 281.70  104.15
   1  -4   4  3194.5   181.2   2-0.23669 0.36415 0.27829-0.67596 0.93088-0.64069  0 341.93 391.60    4.00 341.91 391.51    4.14
   1  -4   4  3149.8   155.8   2 0.11232 0.01520-0.75759 0.35973-0.64299 0.93293  0 198.04 184.33  151.03 197.94 184.39  151.25
   1   4  -4  2564.0   171.1   1-0.63038 0.75791-0.03890 0.43624-0.77531 0.48504  0 452.08 284.56   53.92 452.20 284.62   53.70
   1   4  -4  3041.7   183.8   2 0.13208-0.00455-0.38345 0.78131-0.91407 0.62413  0 354.44 388.54  178.31 354.33 388.35  178.02
   1   4  -4  2951.9   155.6   2-0.21055 0.33800 0.80107-0.40317 0.56032-0.85042  0 204.59 175.33  326.44 204.48 175.46  326.41
   1   4   4  2985.3   148.2   2-0.19592 0.32338-0.29460 0.69227 0.93532-0.64513  0 190.25 197.78   37.51 190.15 197.76   37.53
   1   4   4  2896.8   173.1   2-0.00233 0.12980 0.78085-0.38280-0.62472 0.91467  0 324.39 393.86  252.01 324.36 393.67  252.31
  -1  -4  -5 183.232  71.829   1-0.35959 0.23209 0.46821-0.86535-0.80714 0.44420  0 182.46 329.40   20.38 182.44 329.28   20.26
  -1  -4  -5 189.586 107.265   1-0.07627-0.05143-0.84397 0.44631 0.53094-0.89340  0 446.27 345.44  162.98 446.02 345.28  163.00
  -1  -4  -5 308.354 103.311   2-0.08649-0.04100-0.84185 0.44402 0.53273-0.89508  0 445.12 345.44   77.53 445.24 345.67   77.81
  -1  -4  -5 129.812 100.351   2 0.07293-0.20043 0.41714-0.81515-0.90591 0.54347  0 267.52 115.84  225.52 267.54 115.41  225.35
  -1  -4   5 158.135  75.269   1-0.68580 0.55826-0.57367 0.17633-0.44787 0.81071  0 167.49 225.70   90.45 167.48 225.88   90.38
  -1  -4   5 182.033  79.802   2 0.09407-0.22159-0.86411 0.46597-0.49443 0.85660  0 235.45 130.61  140.56 235.28 130.54  140.68
  -1  -4   5 180.093 106.002   2-0.23669 0.10924 0.46790-0.86558 0.85149-0.48871  0 416.95 375.36  352.43 417.04 375.29  352.05
  -1   4  -5 205.046 115.827   1-0.69823 0.57069-0.38842 0.78577-0.60134 0.23850  0 473.82 239.97   76.53 473.33 240.10   76.55
  -1   4  -5  79.478 102.360   2 0.13212-0.25964-0.39956 0.79742-0.90714 0.54471  0 432.92 360.37  177.01 432.90 360.38  177.01
  -1   4  -5 130.160  77.193   2-0.20851 0.08106 0.81311-0.41522 0.54348-0.90610  0 251.88 121.44  324.95 251.85 121.70  325.21
  -1   4   5 176.551  79.796   2-0.17220 0.04474-0.46340 0.86107 0.86926-0.50651  0 222.39 139.25   48.46 222.53 139.33   48.01
  -1   4   5  67.619 110.082   2-0.02541-0.10206 0.85218-0.45413-0.52263 0.88507  0 402.39 385.55  259.56 402.42 385.53  259.59
   1  -4  -5  61.221  48.826   1-0.53052 0.65803 0.19803-0.59516-0.82421 0.46128  0 228.52 380.55   38.40 228.55 380.67   38.68
   1  -4  -5 131.896  72.423   1-0.12625 0.25396-0.86603 0.46837 0.48378-0.84625  0 381.84 396.33  158.85 381.78 396.38  158.86
   1  -4  -5 128.532 108.687   2-0.07881 0.20630-0.86343 0.46560 0.49827-0.86062  0 383.28 395.44   80.26 383.19 395.59   80.17
   1  -4  -5 198.408  84.602   2 0.06805 0.05945 0.44877-0.84678-0.89105 0.52862  0 208.34 151.86  227.36 208.44 151.73  227.37
   1  -4   5 116.307  73.110   1-0.60795 0.73562-0.76696 0.36944-0.20533 0.56779  0 164.56 271.57  108.47 164.72 271.88  108.78
   1  -4   5 114.448  73.323   2 0.09930 0.02821-0.83903 0.44089-0.53494 0.89712  0 187.73 177.35  143.37 187.49 177.26  143.42
   1   4  -5 152.764 107.335   1-0.64831 0.77584-0.09674 0.49408-0.75520 0.39236  0 468.79 298.63   57.42 468.82 298.72   57.35
   1   4  -5 168.848 108.574   2 0.13142-0.00390-0.45838 0.85625-0.87898 0.51656  0 366.85 402.19  173.36 366.69 401.77  173.27
   1   4  -5  89.191  75.470   2-0.19761 0.32506 0.86619-0.46829 0.45899-0.82161  0 198.08 163.13  319.58 198.19 162.91  319.45
   1   4   5 142.499  77.699   2-0.18441 0.31187-0.38217 0.77983 0.90551-0.54277  0 179.53 191.01   42.48 179.60 190.90   42.86
   1   4   5  60.818  99.765   2-0.02787 0.15533 0.85894-0.46089-0.51132 0.87376  0 328.21 409.03  260.34 328.25 409.06  260.36
  -1  -4  -6 11269.6   264.8   1-0.32119 0.19368 0.51608-0.91321-0.79404 0.35852  0 172.47 342.02   16.74 172.52 341.85   16.66
  -1  -4  -6 13033.4   318.8   1-0.17056 0.04285-0.88229 0.48463 0.43871-0.87367  0 461.49 363.00  154.93 461.57 362.78  155.12
  -1  -4  -6 13041.2   330.5   2-0.06348-0.06401-0.90241 0.50458 0.42618-0.86099  0 463.50 359.35   85.02 463.70 359.37   84.94
  -1  -4  -6 11995.4   316.2   2 0.06319-0.19069 0.47928-0.87729-0.87539 0.44046  0 261.85  99.27  229.34 261.98  99.48  229.36
  -1  -4   6  9553.8   267.8   1-0.66664 0.53910-0.64779 0.25045-0.36873 0.80414  0 155.42 214.68   96.72 155.39 214.68   96.70
  -1  -4   6 12377.9   306.6   2 0.08050-0.20802-0.91473 0.51659-0.39597 0.83058  0 223.20 119.29  134.26 223.12 119.39  134.31
  -1  -4   6 11827.3   333.4   2-0.23545 0.10800 0.51767-0.91556 0.82255-0.38740  0 426.97 395.15  348.84 427.26 395.10  348.78
  -1   4  -6 10488.5   299.3   1-0.69885 0.57132-0.40935 0.80669-0.58655 0.15114  0 498.57 252.79   78.02 498.73 252.90   78.02
  -1   4  -6 11897.5   327.2   2 0.13139-0.25891-0.46047 0.85833-0.87790 0.44298  0 450.34 374.57  173.04 450.50 374.55  173.13
  -1   4  -6 11201.9   291.2   2-0.19511 0.06766 0.87637-0.47848 0.44034-0.87549  0 246.17 106.08  318.25 245.95 106.28  318.22
  -1   4   6 12414.4   311.4   2-0.16362 0.03613-0.51507 0.91290 0.84139-0.40657  0 210.52 128.82   51.43 210.45 128.96   51.44
  -1   4   6 12153.3   339.6   2-0.04664-0.08082 0.90474-0.50669-0.42340 0.85833  0 411.25 405.09  266.01 411.38 404.95  266.13
   1  -4  -6 11244.1   204.0   1-0.47582 0.60333 0.29721-0.69434-0.82780 0.39228  0 221.86 395.62   32.10 221.84 395.42   32.18
   1  -4  -6 13236.6   238.1   1-0.26852 0.39619-0.90486 0.50734 0.33033-0.76527  0 390.51 415.23  146.80 390.68 414.96  146.66
   1  -4  -6 12655.7   339.9   2-0.05823 0.18572-0.91413 0.51630 0.40121-0.83603  0 398.00 411.62   86.54 398.25 411.49   86.55
   1  -4  -6 13238.1   317.8   2 0.05913 0.06837 0.50368-0.90169-0.86186 0.42694  0 201.28 137.15  230.80 201.20 137.29  230.97
   1  -4   6 10725.5   288.0   1-0.58027 0.70794-0.80152 0.40400-0.14437 0.57932  0 149.75 261.73  113.01 149.75 261.76  113.10
   1  -4   6 11406.4   289.8   2 0.08521 0.04230-0.89880 0.50066-0.43000 0.86461  0 175.42 168.60  136.42 175.36 168.60  136.46
   1  -4   6 11653.9   322.3   2-0.23753 0.36498 0.42338-0.82106 0.87426-0.43892  0 352.21 425.92  354.96 352.17 425.69  354.93
   1   4  -6  9726.0   299.3   1-0.65993 0.78746-0.13948 0.53683-0.73827 0.30286  0 488.88 314.34   60.04 489.04 314.44   60.07
   1   4  -6 12551.5   342.4   2 0.13020-0.00268-0.51248 0.91034-0.84877 0.41386  0 381.24 418.40  169.79 381.11 418.22  169.71
   1   4  -6 11070.5   293.8   2-0.18438 0.31182 0.91336-0.51546 0.36302-0.79816  0 190.55 148.47  313.29 190.46 148.56  313.25
   1   4   6 13546.6   308.1   2-0.17482 0.30228-0.44684 0.84451 0.87737-0.44208  0 167.36 182.58   46.84 167.30 182.57   46.95
   1   4   6 11579.3   308.1   2-0.05091 0.17837 0.91375-0.51571-0.40307 0.83799  0 333.31 427.89  267.42 333.26 427.65  267.42
  -1  -4  -7  4399.9   205.9   1-0.29181 0.16430 0.55043-0.94756-0.78223 0.27411  0 160.77 355.73   13.99 160.77 355.60   13.98
  -1  -4  -7  5164.5   276.2   1-0.25504 0.12738-0.90290 0.50538 0.34601-0.85344  0 480.76 383.19  148.02 480.84 383.06  147.85
  -1  -4  -7  5199.6   283.6   2-0.04289-0.08460-0.94446 0.54663 0.32581-0.83309  0 485.76 376.18   91.03 485.97 376.21   91.29
  -1  -4  -7  3263.3   225.5   2 0.05570-0.18320 0.52332-0.92134-0.85031 0.34290  0 255.22  80.64  232.33 255.31  80.92  232.30
  -1  -4   7  3876.9   203.0   1-0.64188 0.51422-0.70920 0.31168-0.29159 0.79902  0 141.70 202.54  102.51 141.72 202.62  102.52
  -1  -4   7  4742.9   237.4   2 0.06708-0.19459-0.95045 0.55230-0.30357 0.81061  0 209.55 106.34  128.54 209.45 106.45  128.60
  -1  -4   7  3903.4   282.1   2-0.23407 0.10663 0.55246-0.95035 0.80000-0.29233  0 439.35 418.43  346.40 439.60 418.37  346.39
  -1   4  -7  4921.3   293.6   2 0.13046-0.25798-0.50408 0.90194-0.85375 0.34635  0 471.50 391.98  170.35 471.69 391.96  170.27
  -1   4  -7  4396.7   227.8   2-0.18145 0.05401 0.92189-0.52400 0.34234-0.85001  0 238.98  88.22  312.02 238.83  88.33  311.96
  -1   4   7  4902.5   247.3   2-0.15707 0.02958-0.55188 0.94972 0.81900-0.31171  0 196.82 116.69   54.01 196.79 116.80   53.94
  -1   4   7  4443.5   290.5   2-0.06580-0.06166 0.94185-0.54380-0.32953 0.83695  0 422.31 428.14  272.35 422.34 427.95  272.02
   1  -4  -7  4182.0   151.5   1-0.42891 0.55641 0.37165-0.76878-0.82336 0.31525  0 213.01 412.13   27.12 212.97 411.87   27.13
   1  -4  -7  4807.8   195.3   1-0.38020 0.50786-0.90554 0.50802 0.18826-0.69569  0 402.57 436.93  136.23 402.70 436.71  136.29
   1  -4  -7  4922.2   290.0   2-0.03954 0.16703-0.95008 0.55224 0.30950-0.81678  0 415.74 431.00   92.09 415.96 430.85   92.30
   1  -4  -7  4739.0   240.3   2 0.05230 0.07520 0.54265-0.94066-0.83833 0.33092  0 192.62 120.69  233.63 192.53 120.79  233.62
   1  -4   7  4177.3   209.9   1-0.55125 0.67891-0.82990 0.43238-0.08597 0.59340  0 133.32 251.20  117.16 133.37 251.16  117.17
   1  -4   7  5178.4   233.4   2 0.07104 0.05648-0.94099 0.54285-0.33088 0.83793  0 161.41 158.46  130.30 161.39 158.52  130.26
   1  -4   7  4384.4   277.9   2-0.23669 0.36415 0.46798-0.86566 0.85145-0.34356  0 359.30 448.12  352.25 359.21 447.99  352.05
   1   4  -7  4628.2   296.3   2 0.12887-0.00135-0.55040 0.94826-0.82490 0.31750  0 397.77 438.20  167.23 397.94 438.13  167.13
   1   4  -7  4106.7   219.4   2-0.17114 0.29858 0.94661-0.54872 0.27320-0.78087  0 181.36 132.31  307.70 181.25 132.31  307.70
   1   4   7  4861.4   226.5   2-0.16754 0.29503-0.49252 0.89035 0.85402-0.34674  0 153.20 172.96   50.00 153.18 173.00   49.94
   1   4   7  4409.5   267.5   2-0.07127 0.19873 0.95064-0.55260-0.30200 0.80941  0 339.43 450.08  273.71 339.33 449.76  273.70
  -1  -4  -8  1095.9   142.4   1-0.27118 0.14367 0.57365-0.97078-0.77291 0.19221  0 147.13 370.91   11.95 147.12 371.01   12.13
  -1  -4  -8  1157.3   206.6   1-0.32949 0.20182-0.90897 0.51145 0.25535-0.83527  2 503.76 407.13  140.96 504.50 407.08  141.11
  -1  -4  -8  1037.0   159.2   2 0.05033-0.17783 0.55337-0.95138-0.83142 0.25151  0 247.67  59.21  234.24 247.54  59.42  234.36
  -1  -4   8  1111.3   151.3   1-0.61243 0.48476-0.76049 0.36296-0.21585 0.79578  0 126.26 189.30  108.29 126.06 189.36  108.03
  -1  -4   8  1299.6   167.3   2 0.05401-0.18152-0.97463 0.57649-0.21721 0.79669  0 194.28  91.39  123.37 194.10  91.58  123.40
  -1  -4   8 941.069 210.141   2-0.23295 0.10551 0.57542-0.97331 0.78398-0.20379  0 454.54 446.08  345.02 454.54 445.93  344.79
  -1   4  -8  1276.7   221.6   2 0.12955-0.25707-0.53414 0.93200-0.83541 0.25553  0 497.10 413.07  168.05 497.33 413.26  168.25
  -1   4  -8  1056.1   157.8   2-0.16764 0.04019 0.95356-0.55567 0.25024-0.83043  0 230.57  67.58  306.19 230.46  67.54  306.31
  -1   4   8  1250.0   171.1   2-0.15253 0.02504-0.57670 0.97453 0.80259-0.22284  0 181.45 102.88   55.81 181.34 102.81   55.67
  -1   4   8  1099.7   221.5   2-0.08304-0.04443 0.96688-0.56883-0.24135 0.82125  0 435.53 455.28  277.31 435.66 455.31  277.37
   1  -4  -8  1077.4   126.2   1-0.39267 0.52018 0.42381-0.82094-0.81621 0.23551  0 202.28 430.57   23.47 202.24 430.54   23.46
   1  -4  -8  58.317 109.494   1-0.46576 0.59343-0.88272 0.48519 0.06228-0.64221  0 417.86 462.91  127.42 417.74 462.64  127.45
   1  -4  -8  1305.0   219.9   2-0.02282 0.15031-0.97448 0.57665 0.22329-0.80305  0 436.94 454.35   97.55 436.99 454.42   97.53
   1  -4  -8  1366.9   171.4   2 0.04734 0.08016 0.56922-0.96723-0.82082 0.24092  0 182.33 102.05  235.47 182.31 102.00  235.46
   1  -4   8  1010.2   142.5   1-0.52085 0.64851-0.85313 0.45560-0.02988 0.60980  0 115.32 239.84  121.21 115.28 239.85  121.06
   1  -4   8  1138.4   150.7   2 0.05719 0.07033-0.96954 0.57140-0.23818 0.81766  0 145.34 147.05  124.63 145.43 146.97  124.65
   1  -4   8  1316.7   205.5   2-0.23592 0.36338 0.49880-0.89648 0.83399-0.25354  0 367.63 474.51  350.35 367.61 474.57  350.01
   1   4  -8-226.475 160.815   2 0.12761-0.00009-0.57589 0.97375-0.80751 0.22762  0 418.04 462.28  165.37 417.73 462.22  165.36
   1   4  -8  1013.1   157.3   2-0.15806 0.28550 0.96910-0.57121 0.18936-0.76955  0 170.55 113.80  302.76 170.43 113.92  302.64
   1   4   8  1107.0   153.4   2-0.16199 0.28948-0.52444 0.92228 0.83589-0.25614  0 137.02 162.00   51.98 136.99 162.03   52.07
   1   4   8 990.983 194.356   2-0.08919 0.21666 0.97398-0.57593-0.20837 0.78827  0 346.56 476.11  279.43 346.47 476.08  279.32
  -1  -4  -9 11966.0   338.4   1-0.25822 0.13071 0.58778-0.98491-0.76671 0.11342  0 131.32 388.67   11.02 131.38 388.53   10.98
  -1  -4  -9 12941.2   394.0   2 0.04666-0.17416 0.57259-0.97060-0.81851 0.16612  0 238.70  34.17  235.73 238.50  34.34  235.70
  -1  -4   9 10724.3   335.2   1-0.57939 0.45173-0.80249 0.40497-0.14253 0.79495  0 108.43 174.43  113.22 108.24 174.51  113.23
  -1  -4   9 11779.5   385.8   2 0.04116-0.16868-0.98979 0.59165-0.13644 0.78835  0 176.79  74.38  118.59 176.73  74.46  118.64
  -1  -4   9 10772.4   475.9   2-0.23208 0.10463 0.58920-0.98710 0.77394-0.12122  0 472.60 479.14  343.76 472.81 479.02  343.80
  -1   4  -9 10989.2   369.8   2-0.15407 0.02662 0.97436-0.57647 0.16397-0.81669  0 220.84  43.22  301.01 220.69  43.34  301.13
  -1   4   9 13631.7   407.6   2-0.14950 0.02201-0.59212 0.98996 0.79186-0.13964  0 163.83  86.60   56.76 163.75  86.68   56.76
  -1   4   9 11218.0   474.8   2-0.09846-0.02901 0.98243-0.58438-0.15857 0.81096  0 451.93 488.41  282.08 451.85 488.17  282.28
   1  -4  -9 11515.5   260.9   1-0.36779 0.49530 0.45741-0.85454-0.80964 0.15635  0 189.82 452.59   21.02 189.83 452.27   21.04
   1  -4  -9 11110.3   309.0   1-0.53112 0.65879-0.84592 0.44839-0.04831-0.60410  0 435.79 494.48  119.88 435.92 494.07  119.78
   1  -4  -9 12334.2   482.2   2-0.00745 0.13496-0.98970 0.59156 0.14297-0.79489  0 462.10 483.32  102.35 462.20 483.06  102.34
   1  -4  -9 11744.2   388.2   2 0.04405 0.08344 0.58611-0.98412-0.80903 0.15664  0 170.37  80.30  236.66 170.29  80.44  236.66
   1  -4   9 11124.7   352.3   1-0.48929 0.61696-0.87178 0.47426 0.02437 0.62805  0  95.36 227.47  124.73  95.13 227.51  124.81
   1  -4   9  9622.0   336.6   2 0.04363 0.08389-0.98748 0.58934-0.15161 0.80352  0 127.25 133.72  119.47 127.10 133.82  119.54
   1   4  -9 12877.1   493.5   2 0.12678 0.00074-0.59176 0.98962-0.79608 0.14371  0 441.23 491.84  164.30 441.40 491.70  164.23
   1   4  -9 11027.1   373.0   2-0.14573 0.27319 0.98305-0.58500 0.11125-0.76363  0 157.79  92.90  298.27 157.79  92.95  298.03
   1   4   9 12716.0   367.7   2-0.15831 0.28580-0.54506 0.94289 0.82332-0.17109  0 118.69 149.56   53.47 118.37 149.62   53.48
  -1  -4 -10 219.667 136.021   1-0.25196 0.12445 0.59437-0.99150-0.76370 0.03783  0 113.18 408.93   10.42 113.20 408.94   10.43
  -1  -4  10  31.579 125.973   1-0.54386 0.41619-0.83612 0.43860-0.07160 0.79650  0  87.59 157.33  118.59  87.78 157.52  118.16
  -1  -4  10  82.857 167.642   2 0.02881-0.15633-0.99775 0.59961-0.06053 0.78488  0 156.50  54.03  113.88 156.75  54.55  114.22
  -1   4 -10 132.336 168.591   2-0.14107 0.01361 0.98647-0.58842 0.08357-0.80844  0 209.18  15.09  296.49 209.33  14.85  296.41
  -1   4  10 411.202 185.512   2-0.14794 0.02045-0.60007 0.99790 0.78615-0.06146  0 143.56  68.12   57.34 143.46  67.98   57.33
   1  -4 -10 119.598 111.174   1-0.35362 0.48113 0.47592-0.87305-0.80527 0.07939  0 175.73 477.91   19.52 175.74 478.17   19.69
   1  -4 -10 312.012 179.032   2 0.04223 0.08527 0.59533-0.99334-0.80237 0.07749  0 156.14  55.23  237.63 156.04  55.39  237.32
   1  -4  10 -18.064 128.019   1-0.45638 0.58404-0.88645 0.48893 0.07695 0.64795  0  72.16 213.71  128.42  72.31 213.75  128.47
   1  -4  10 123.282 158.538   2 0.03051 0.09701-0.99704 0.59890-0.07058 0.79493  0 106.32 118.91  115.06 105.77 118.76  114.81
   1   4 -10 152.306 173.136   2-0.13331 0.26078 0.99037-0.59232 0.03746-0.76233  0 142.54  68.56  293.54 142.75  68.72  293.72
   1   4  10  71.554 146.920   2-0.15618 0.28367-0.55674 0.95458 0.81587-0.09118  0  96.42 135.43   53.94  96.74 135.55   54.28
  -1  -4  11  4060.9   315.6   1-0.50558 0.37791-0.86277 0.46525-0.00305 0.80045  0  64.13 137.46  122.79  64.05 137.63  122.92
  -1  -4  11  4350.6   384.2   2 0.01651-0.14402-0.99980 0.60166 0.01112 0.78566  0 133.23  31.00  109.99 133.40  31.10  110.05
  -1   4  11  4492.2   374.2   2-0.14758 0.02009-0.60189 0.99972 0.78483 0.01233  0 119.90  45.96   57.47 119.66  46.00   57.46
   1  -4 -11  4268.0   381.6   2 0.04164 0.08586 0.59829-0.99630-0.80019 0.00283  0 138.99  25.57  237.57 138.91  25.75  237.53
   1  -4  11  3593.2   299.1   1-0.42240 0.55007-0.89728 0.49976 0.12832 0.66908  0  46.09 197.98  132.29  46.06 197.98  132.05
   1   4 -11  3480.8   356.0   2-0.12130 0.24876 0.99209-0.59404-0.03236-0.76500  0 124.82  40.08  289.59 124.69  40.23  289.64
   1   4  11  3997.7   318.0   2-0.15545 0.28293-0.56117 0.95901 0.81297-0.01581  0  71.41 119.26   54.59  71.23 119.43   54.59
  -1  -5   0  58.190  60.460   1-0.64872 0.52118-0.09814-0.39854-0.75468 0.75468  0 178.29 287.29   57.51 178.23 287.11   57.44
  -1  -5   0  36.770  87.458   2-0.20531 0.07785-0.21224-0.28485 0.95541-0.95541  0 422.79 347.35   32.57 422.79 347.29   32.66
  -1  -5   0 -27.432  84.074   2 0.13120-0.25872-0.29865-0.19867-0.94530 0.94530  0 259.32 131.54  182.92 259.41 131.88  183.21
  -1   5   0 -18.709  75.050   1-0.56907 0.44156 0.11841 0.37800-0.81372 0.81372  0 421.50 167.35   43.39 421.51 167.30   43.78
  -1   5   0   5.782  68.238   2-0.23462 0.10716 0.20472 0.29236 0.95028-0.95028  0 242.00 141.07    8.37 241.89 140.72    8.50
  -1   5   0  45.411  94.329   2 0.09058-0.21808 0.28831 0.20921-0.95324 0.95324  0 406.83 362.63  217.40 406.84 362.83  217.41
   1  -5   0 -13.584  53.836   1-0.69878 0.82631-0.44414-0.05254-0.56076 0.56076  0 198.44 333.48   80.21 198.32 333.71   80.50
   1  -5   0  -9.418  87.142   2-0.19352 0.32099-0.31451-0.18258 0.92932-0.92932  0 359.55 388.78   38.31 359.49 388.73   38.73
   1  -5   0 -19.718  59.934   2 0.12971-0.00219-0.23175-0.26557-0.96409 0.96409  0 205.63 171.37  186.97 205.97 171.39  187.18
   1   5   0  61.546  85.594   1-0.42714 0.55465 0.37430 0.12212-0.82308 0.82308  0 451.52 221.58   26.43 451.64 221.54   26.94
   1   5   0  12.902  61.434   2-0.23733 0.36480 0.32574 0.17135 0.91519-0.91519  0 194.85 186.63    1.54 194.95 186.58    1.28
   1   5   0 -16.951  90.833   2 0.09623 0.03127 0.24043 0.25708-0.96588 0.96588  0 338.24 393.33  214.50 338.51 393.73  214.56
  -1  -5  -1 20206.7   334.6   1-0.61577 0.48824 0.00322-0.49990-0.78792 0.71535  0 179.43 297.49   51.01 179.50 297.36   51.05
  -1  -5  -1 23648.4   370.0   2-0.18806 0.06060-0.35558-0.14151 0.91553-0.98808  0 426.46 345.83   41.04 426.78 345.83   41.23
  -1  -5  -1 22191.6   360.5   2 0.12715-0.25467-0.16023-0.33710-0.97886 0.90637  0 261.64 129.09  191.31 261.81 129.22  191.38
  -1  -5   1 19311.6   333.7   1-0.67425 0.54671-0.20073-0.29595-0.71070 0.78327  0 174.92 277.11   64.00 174.96 277.02   64.00
  -1  -5   1 21380.7   357.2   2-0.21861 0.09115-0.07210-0.42499 0.97315-0.90060  0 421.20 351.90   24.52 421.44 351.83   24.51
  -1  -5   1 15702.0   306.9   2 0.13176-0.25928-0.43398-0.06335-0.89124 0.96372  0 255.22 131.82  174.94 255.32 131.99  174.84
  -1   5  -1 18472.8   312.8   1-0.61823 0.49069-0.00357 0.50025-0.78599 0.71342  0 433.22 178.40   51.40 433.37 178.64   51.48
  -1   5  -1 21374.9   363.3   2 0.10541-0.23291 0.15425 0.34326-0.98239 0.90990  0 410.71 361.97  209.48 410.98 361.89  209.50
  -1   5   1 19969.7   298.1   1-0.49525 0.36774 0.26372 0.23270-0.82776 0.90034  0 412.29 155.18   34.30 412.45 155.41   34.40
  -1   5   1 25201.8   379.8   2-0.22846 0.10099 0.06988 0.42721 0.97104-0.89849  0 238.24 141.11   16.10 238.15 141.23   16.34
  -1   5   1 20767.6   360.6   2 0.07240-0.19990 0.42069 0.07683-0.90431 0.97680  0 404.77 366.90  225.57 405.05 366.79  225.58
   1  -5  -1 17167.9   271.3   1-0.69662 0.82415-0.35805-0.13863-0.62171 0.54914  0 204.71 344.87   74.44 204.75 344.71   74.45
   1  -5  -1 23577.9   379.9   2-0.17535 0.30281-0.44343-0.05366 0.87899-0.95154  0 364.01 389.22   46.94 364.03 389.16   46.73
   1  -5  -1 22709.5   361.3   2 0.12398 0.00355-0.09454-0.40279-0.98777 0.91529  0 207.23 167.76  195.18 207.14 167.80  195.18
   1  -5   1 16559.9   289.1   1-0.69391 0.82144-0.52084 0.02416-0.49721 0.56978  0 190.23 323.29   85.88 190.22 323.16   86.21
   1  -5   1 23551.1   377.1   2-0.20836 0.33582-0.18340-0.31369 0.96070-0.88816  0 356.89 391.58   31.04 356.88 391.45   30.97
   1  -5   1 22520.3   358.9   2 0.13195-0.00443-0.37047-0.12686-0.91943 0.99191  0 203.05 172.75  178.94 202.97 172.76  178.83
   1   5  -1 18829.1   340.0   1-0.48910 0.61661 0.27446 0.22196-0.82792 0.75534  0 456.71 233.80   33.66 456.75 233.94   33.69
   1   5  -1 21760.6   359.3   2 0.11053 0.01697 0.09795 0.39957-0.98904 0.91655  0 343.21 394.84  206.00 343.20 394.66  206.23
   1   5  -1 21138.3   342.4   2-0.23699 0.36445 0.45615 0.04095 0.85777-0.93032  0 195.87 182.70  353.00 195.83 182.77  352.82
   1   5   1 19186.7   336.1   1-0.35201 0.47952 0.47798 0.01844-0.80475 0.87734  0 449.63 208.71   19.50 449.70 208.91   19.54
   1   5   1 24303.4   362.2   2-0.23414 0.36161 0.19110 0.30599 0.95324-0.88069  0 192.31 188.29    9.07 192.23 188.33    9.30
   1   5   1 22740.8   362.2   2 0.07790 0.04960 0.38443 0.11308-0.91986 0.99235  0 335.59 396.14  223.22 335.60 395.94  223.30
  -1  -5  -2  3610.8   168.9   1-0.57749 0.44998 0.09949-0.59591-0.81031 0.66514  0 178.69 308.06   45.02 178.76 307.92   44.98
  -1  -5  -2  4244.9   203.9   2-0.16761 0.04012-0.49211-0.00518 0.85424-0.99918  0 433.25 347.46   49.76 433.41 347.43   49.91
  -1  -5  -2  3783.3   200.2   2 0.11999-0.24751-0.02762-0.46970-0.99239 0.84742  0 262.40 123.73  199.00 262.54 123.92  199.03
  -1  -5   2  3435.9   167.1   1-0.69085 0.56332-0.30066-0.19602-0.65752 0.80265  0 169.78 267.09   70.55 169.80 266.98   70.56
  -1  -5   2  4211.8   207.1   2-0.22764 0.10018 0.05607-0.55316 0.97213-0.82703  0 422.41 359.53   16.99 422.59 359.47   17.14
  -1  -5   2  3838.9   176.1   2 0.12854-0.25606-0.55807 0.06074-0.81978 0.96475  0 249.64 129.53  166.70 249.52 129.61  166.60
  -1   5  -2  3230.2   181.7   1-0.64948 0.52194-0.10107 0.59775-0.75364 0.60850  0 447.55 189.57   57.62 447.78 189.72   57.62
  -1   5  -2  3966.5   208.3   2 0.11617-0.24367 0.02667 0.47085-0.99287 0.84790  0 417.36 364.09  202.00 417.60 363.99  202.13
  -1   5  -2  3786.3   174.7   2-0.23657 0.10912 0.47314 0.02395 0.84863-0.99374  0 244.44 132.35  351.74 244.29 132.48  351.71
  -1   5   2  3869.3   155.0   1-0.39281 0.26530 0.42362 0.07279-0.81624 0.96141  0 405.93 142.52   23.46 406.17 142.65   23.48
  -1   5   2  4523.4   190.3   2-0.22002 0.09256-0.05465 0.55174 0.97396-0.82887  0 232.78 139.25   23.47 232.69 139.41   23.51
  -1   5   2  3827.6   208.0   2 0.05212-0.17961 0.54367-0.04616-0.83768 0.98265  0 405.26 373.94  233.93 405.57 373.85  233.69
   1  -5  -2  3098.2   133.5   1-0.68581 0.81334-0.26381-0.23287-0.67828 0.53315  0 209.29 356.50   67.99 209.28 356.36   68.12
   1  -5  -2  4190.2   212.2   2-0.15519 0.28267-0.56257 0.06528 0.81205-0.95699  0 370.56 392.78   54.66 370.55 392.68   54.68
   1  -5  -2  3859.7   178.4   2 0.11572 0.01178 0.03272-0.53024-0.99274 0.84777  0 206.64 161.95  202.50 206.51 162.00  202.48
   1  -5   2  3106.3   154.0   1-0.68275 0.81028-0.58798 0.09130-0.43375 0.57889  0 180.63 313.12   91.57 180.68 312.98   91.55
   1  -5   2  4022.4   203.5   2-0.21974 0.34721-0.05816-0.43893 0.97382-0.82873  0 356.15 397.49   23.95 356.12 397.32   23.71
   1  -5   2  3896.9   174.9   2 0.13052-0.00300-0.50191 0.00459-0.85501 0.99998  0 198.27 171.99  170.44 198.16 171.98  170.41
   1   5  -2  3178.7   193.0   1-0.53800 0.66550 0.18339 0.31303-0.82276 0.67758  0 464.87 246.28   39.58 464.95 246.41   39.62
   1   5  -2  3696.9   199.5   2 0.12040 0.00712-0.03394 0.53127-0.99214 0.84717  0 349.73 398.94  198.63 349.64 398.74  198.66
   1   5  -2  3565.9   168.0   2-0.23299 0.36044 0.57466-0.07729 0.78453-0.92958  0 194.82 176.61  344.69 194.77 176.68  344.84
   1   5   2  3668.1   191.3   1-0.26587 0.39337 0.57942-0.08300-0.77045 0.91562  0 450.77 195.56   11.71 450.86 195.66   11.66
   1   5   2  4228.7   179.7   2-0.22793 0.35539 0.06085 0.43624 0.97177-0.82668  0 187.65 187.89   16.94 187.59 187.93   16.86
   1   5   2  4086.7   202.5   2 0.05627 0.07123 0.52014-0.02262-0.85223 0.99720  0 334.44 401.64  231.98 334.43 401.43  232.09
  -1  -5  -3 107.950  70.381   1-0.53640 0.40889 0.18650-0.68292-0.82310 0.60534  0 175.83 319.23   39.58 175.95 318.93   39.42
  -1  -5  -3 229.289 106.706   2-0.14507 0.01759-0.61438 0.11709 0.77556-0.99297  0 442.81 352.20   58.38 442.90 352.02   58.36
  -1  -5  -3 360.543 109.439   2 0.11109-0.23859 0.09146-0.58897-0.98959 0.77213  0 261.47 115.99  205.63 261.62 115.97  205.86
  -1  -5   3 163.809  66.440   1-0.69846 0.57093-0.39473-0.10195-0.59694 0.81465  0 162.70 256.61   76.99 162.78 256.86   76.99
  -1  -5   3 166.772 107.774   2-0.23320 0.10574 0.16673-0.66382 0.95803-0.74038  0 425.81 370.06   10.58 426.02 370.07   10.73
  -1  -5   3 114.116  83.879   2 0.12189-0.24942-0.66571 0.16838-0.73619 0.95364  0 241.92 125.09  158.62 242.14 124.96  158.77
  -1   5  -3 187.144 104.749   1-0.66876 0.54123-0.17592 0.67260-0.72236 0.50466  0 464.61 200.94   62.39 464.91 200.77   62.40
  -1   5  -3 138.041 111.318   2 0.12361-0.25113-0.08794 0.58527-0.98843 0.77097  0 426.85 369.07  195.43 426.75 369.12  195.56
  -1   5  -3 305.261  88.622   2-0.23197 0.10452 0.59110-0.09373 0.77252-0.99010  0 242.87 124.60  343.62 242.94 124.58  343.67
  -1   5   3 130.485  82.275   1-0.26353 0.13602 0.58209-0.08568-0.76923 0.98699  0 402.86 128.90   11.58 402.78 128.71   11.45
  -1   5   3 217.261  89.202   2-0.21035 0.08289-0.16343 0.66051 0.96387-0.74622  0 225.58 135.42   29.61 225.59 135.40   29.80
  -1   5   3 105.097 113.258   2 0.03039-0.15789 0.65168-0.15417-0.75788 0.97535  0 408.29 383.97  241.46 408.18 383.92  241.49
   1  -5  -3 137.444  56.929   1-0.66614 0.79367-0.16462-0.33206-0.72743 0.50973  0 211.57 368.97   61.67 211.74 368.78   61.68
   1  -5  -3 307.001 119.121   2-0.13388 0.26137-0.66718 0.16989 0.73276-0.95017  0 379.07 399.46   62.39 379.14 399.27   62.31
   1  -5  -3 237.801  83.577   2 0.10634 0.02116 0.14463-0.64214-0.98375 0.76629  0 204.22 153.99  208.73 204.25 154.03  208.94
   1  -5   3 169.205  78.416   1-0.66716 0.79470-0.64618 0.14950-0.37061 0.58831  0 169.72 303.08   96.65 169.76 303.02   96.55
   1  -5   3 304.174 111.202   2-0.22756 0.35503 0.05479-0.55188 0.97222-0.75458  0 357.05 406.19   16.96 357.11 406.44   17.21
   1  -5   3 176.433  82.465   2 0.12522 0.00230-0.61935 0.12202-0.77507 0.99252  0 191.08 169.11  162.04 191.53 169.19  162.24
   1   5  -3  86.883 110.894   1-0.57538 0.70289 0.10429 0.39213-0.81121 0.59345  0 476.76 259.10   44.48 476.39 259.28   44.68
   1   5  -3 152.536 105.517   2 0.12658 0.00094-0.14874 0.64606-0.98074 0.76328  0 358.15 405.82  192.02 358.03 405.94  192.05
   1   5  -3 200.088  81.827   2-0.22569 0.35313 0.67691-0.17954 0.70061-0.91818  0 191.96 168.49  337.28 192.03 168.58  337.22
   1   5   3 198.629 104.487   1-0.17196 0.29947 0.67235-0.17594-0.71998 0.93774  0 455.23 181.49    3.55 455.25 181.49    3.56
   1   5   3 279.317  82.873   2-0.21980 0.34726-0.05750 0.55459 0.97385-0.75620  0 181.05 185.48   23.65 181.05 185.51   23.67
   1   5   3 144.287 101.459   2 0.03298 0.09452 0.63979-0.14228-0.76784 0.98530  0 334.83 410.33  240.75 334.82 410.11  240.59
  -1  -5  -4 20416.2   349.7   1-0.49618 0.36867 0.26208-0.75849-0.82772 0.53737  0 171.00 330.74   34.55 171.13 330.57   34.51
  -1  -5  -4 23556.8   406.3   2-0.12201-0.00548-0.71778 0.22049 0.68550-0.97537  0 455.20 359.58   66.26 455.41 359.58   66.34
  -1  -5  -4 23690.3   408.7   2 0.10145-0.22895 0.19317-0.69069-0.97591 0.68595  0 259.21 105.25  211.93 259.30 105.42  211.77
  -1  -5   4 17697.5   350.1   1-0.69734 0.56981-0.48102-0.01566-0.53135 0.82163  0 154.02 246.52   83.01 154.01 246.46   83.20
  -1  -5   4 22007.9   406.4   2-0.23624 0.10878 0.25790-0.75499 0.93684-0.64665  0 431.57 383.73    5.34 431.74 383.70    5.36
  -1  -5   4 21437.7   384.1   2 0.11265-0.24017-0.75501 0.25769-0.64596 0.93590  0 233.32 118.06  151.44 233.25 118.17  151.48
  -1   5  -4 18222.1   366.5   1-0.68031 0.55278-0.23155 0.72823-0.69539 0.40511  0 484.98 211.98   65.97 485.12 212.15   66.00
  -1   5  -4 21189.0   402.8   2 0.12824-0.25576-0.18557 0.68289-0.97423 0.68429  0 438.57 377.37  190.00 438.71 377.34  189.90
  -1   5  -4 20239.9   370.8   2-0.22425 0.09680 0.69224-0.19487 0.68594-0.97604  0 240.36 114.09  336.07 240.15 114.28  336.00
  -1   5   4 24775.1   414.3   2-0.20067 0.07321-0.25419 0.75128 0.94611-0.65591  0 216.97 129.22   35.04 216.87 129.33   35.13
  -1   5   4 22312.6   415.8   2 0.00851-0.13601 0.74227-0.24476-0.67005 0.96000  0 412.68 397.31  248.91 412.88 397.12  248.86
   1  -5  -4 18000.5   268.9   1-0.63903 0.76656-0.06573-0.43095-0.76637 0.47609  0 211.91 382.43   55.36 211.93 382.19   55.39
   1  -5  -4 22108.4   412.4   2-0.11240 0.23988-0.75492 0.25762 0.64612-0.93599  0 389.59 409.03   69.44 389.88 408.92   69.49
   1  -5  -4 22826.0   398.4   2 0.09652 0.03098 0.23835-0.73586-0.96637 0.67642  0 200.52 143.92  214.45 200.39 143.99  214.44
   1  -5   4 17525.0   344.5   1-0.64792 0.77559-0.69622 0.19932-0.30899 0.59895  0 157.52 293.21  100.94 157.58 293.17  101.23
   1  -5   4 22093.8   401.6   2-0.23259 0.36005 0.15160-0.64869 0.96069-0.67049  0 359.75 418.87   11.65 359.66 418.68   11.61
   1  -5   4 20178.5   368.8   2 0.11679 0.01073-0.71901 0.22168-0.68512 0.97506  0 183.16 164.45  154.51 183.10 164.49  154.53
   1   5  -4 17534.9   371.9   1-0.60272 0.73023 0.03812 0.45829-0.79704 0.50669  0 491.15 272.74   48.97 491.18 272.90   48.86
   1   5  -4 20591.7   395.8   2 0.13007-0.00255-0.24408 0.74141-0.96099 0.67105  0 368.56 416.50  186.41 368.40 416.32  186.45
   1   5  -4 20457.5   374.3   2-0.21646 0.34390 0.76146-0.26409 0.61101-0.90110  0 187.78 158.38  330.19 187.66 158.47  330.12
   1   5   4 23441.0   386.9   2-0.21075 0.33821-0.15941 0.65649 0.96446-0.67426  0 172.67 181.23   29.55 172.62 181.23   29.56
   1   5   4 21043.2   384.6   2 0.00924 0.11826 0.73950-0.24198-0.67310 0.96305  0 336.73 422.36  248.59 336.69 422.09  248.62
  -1  -5  -5  6062.1   215.9   1-0.45892 0.33141 0.32514-0.82156-0.82685 0.46391  0 164.18 343.25   30.30 164.30 343.05   30.31
  -1  -5  -5  6609.0   266.5   1-0.02054-0.10717-0.81455 0.31747 0.57973-0.94219  0 474.93 366.33  167.60 475.02 366.14  167.56
  -1  -5  -5  7214.1   287.7   2-0.09921-0.02828-0.80137 0.30408 0.58988-0.95223  0 471.12 370.27   73.86 471.25 370.23   73.75
  -1  -5  -5  3730.9   219.0   2 0.09205-0.21955 0.27623-0.77375-0.95667 0.59423  0 255.58  92.16  216.74 255.60  92.27  216.69
  -1  -5   5  5385.8   224.0   1-0.68852 0.56099-0.55845 0.06177-0.46267 0.82551  0 143.52 235.76   88.97 143.50 235.69   89.15
  -1  -5   5  6425.4   246.9   2 0.10173-0.22924-0.82623 0.32856-0.55407 0.91624  0 222.89 109.27  144.75 222.76 109.33  144.74
  -1   5  -5  6325.1   288.5   2 0.13057-0.25809-0.26556 0.76289-0.95521 0.59278  0 453.59 388.63  185.23 453.67 388.63  185.18
  -1   5  -5  5697.3   233.9   2-0.21452 0.08707 0.77532-0.27795 0.59402-0.95664  0 236.16 101.33  328.93 235.96 101.54  328.86
  -1   5   5  6986.6   257.8   2-0.19190 0.06443-0.32717 0.82426 0.92527-0.56253  0 206.61 121.25   39.49 206.56 121.32   39.50
  -1   5   5  6598.3   296.8   2-0.01289-0.11458 0.81540-0.31784-0.57876 0.94120  0 419.48 413.67  255.67 419.60 413.58  255.68
   1  -5  -5  5727.7   171.3   1-0.60681 0.73434 0.02727-0.52395-0.79438 0.43154  0 209.79 397.14   49.63 209.80 396.87   49.53
   1  -5  -5  7048.0   216.6   1-0.03187 0.15958-0.82097 0.32389 0.57007-0.93254  0 406.74 420.53  166.76 406.85 420.22  166.63
   1  -5  -5  7538.1   304.6   2-0.09162 0.21911-0.82587 0.32858 0.55636-0.91871  0 402.70 421.90   76.28 402.96 421.80   76.17
   1  -5  -5  6958.8   256.2   2 0.08748 0.04002 0.31402-0.81153-0.94538 0.58294  0 195.11 131.80  218.77 195.00 131.86  218.97
   1  -5   5  5339.4   220.4   1-0.62583 0.75349-0.73924 0.24234-0.24871 0.61116  0 143.92 283.22  105.72 143.99 283.21  105.66
   1  -5   5  6706.2   290.4   2-0.23546 0.36292 0.23124-0.72833 0.94398-0.58123  0 363.84 434.43    6.77 363.76 434.32    6.94
   1  -5   5  6582.7   244.2   2 0.10620 0.02131-0.79974 0.30207-0.59087 0.95305  0 172.91 158.01  147.24 172.87 158.02  147.36
   1   5  -5  6735.1   294.8   2 0.13153-0.00401-0.32032 0.81765-0.93813 0.57570  0 380.98 429.94  182.01 380.79 429.83  181.90
   1   5  -5  5563.8   234.2   2-0.20558 0.33303 0.82903-0.33166 0.52004-0.88266  0 181.82 146.38  323.63 181.72 146.42  323.58
   1   5   5  7105.4   244.6   2-0.20195 0.32941-0.24328 0.74037 0.94870-0.58596  0 162.38 175.26   34.45 162.33 175.27   34.48
   1   5   5  6341.6   281.0   2-0.01397 0.14143 0.81877-0.32122-0.57395 0.93638  0 339.93 437.70  256.29 339.89 437.43  256.02
  -1  -5  -6  8231.4   259.4   1-0.42613 0.29862 0.37580-0.87221-0.82291 0.38739  0 155.36 356.85   27.00 155.50 356.65   26.84
  -1  -5  -6  9450.9   333.8   1-0.11306-0.01465-0.86064 0.36356 0.49650-0.93145  0 489.88 386.09  160.00 489.89 385.88  159.96
  -1  -5  -6  8541.9   328.0   2-0.07772-0.04977-0.86642 0.36913 0.49323-0.92805  0 490.62 384.08   80.47 490.81 384.12   80.51
  -1  -5  -6  9105.5   291.6   2 0.08387-0.21137 0.34163-0.83914-0.93608 0.50116  0 250.81  76.20  220.65 250.63  76.40  220.65
  -1  -5   6  7533.2   265.1   1-0.67298 0.54545-0.62689 0.13021-0.39256 0.82797  0 131.23 224.34   94.96 131.21 224.30   94.84
  -1  -5   6  8303.1   289.4   2 0.08980-0.21732-0.88198 0.38430-0.46266 0.89727  0 210.84  98.44  138.55 210.78  98.53  138.57
  -1  -5   6  8164.4   347.5   2-0.23783 0.11037 0.38603-0.88313 0.89130-0.45596  0 449.91 421.04  357.06 450.05 420.93  357.28
  -1   5  -6  8328.3   336.2   2 0.13164-0.25916-0.32887 0.82619-0.93516 0.50024  0 471.96 403.32  181.34 472.09 403.27  181.38
  -1   5  -6  7856.3   282.3   2-0.20316 0.07572 0.84141-0.34404 0.50075-0.93590  0 230.56  85.98  322.24 230.40  86.24  322.26
  -1   5   6 10117.7   320.6   2-0.18414 0.05668-0.38403 0.88112 0.90477-0.46948  0 194.60 111.28   42.95 194.56 111.39   42.98
  -1   5   6  8490.2   349.8   2-0.03306-0.09440 0.87264-0.37508-0.48725 0.92217  0 428.39 433.78  262.00 428.49 433.63  261.97
   1  -5  -6  7685.5   198.8   1-0.57294 0.70045 0.10979-0.60620-0.81221 0.37669  0 205.42 413.41   44.27 205.44 413.19   44.33
   1  -5  -6  9324.6   241.6   1-0.17124 0.29895-0.88251 0.38543 0.43801-0.87297  0 412.94 441.10  155.01 413.07 440.81  155.07
   1  -5  -6  9883.6   355.1   2-0.07202 0.19951-0.88153 0.38423 0.46661-0.90142  0 418.51 438.35   82.27 418.67 438.20   82.30
   1  -5  -6  9388.9   304.4   2 0.07948 0.04801 0.37322-0.87073-0.92433 0.48941  0 188.18 117.50  222.61 188.06 117.57  222.60
   1  -5   6  7077.4   263.5   1-0.60134 0.72901-0.77606 0.27916-0.19005 0.62500  0 128.92 272.96  109.97 128.91 272.99  109.87
   1  -5   6  8975.6   338.9   2-0.23685 0.36431 0.29452-0.79161 0.92583-0.49054  0 369.48 453.73    3.15 369.35 453.58    3.17
   1  -5   6  8597.9   287.4   2 0.09421 0.03330-0.86349 0.36582-0.49548 0.93009  0 160.93 149.91  140.72 160.82 149.92  140.75
   1   5  -6  9233.0   352.1   2 0.13208-0.00455-0.37949 0.87681-0.91572 0.48081  0 395.33 447.05  178.31 395.54 446.89  178.26
   1   5  -6  7872.5   282.0   2-0.19376 0.32120 0.88159-0.38422 0.43042-0.86556  0 174.27 132.33  317.62 174.16 132.40  317.57
   1   5   6  9261.7   287.2   2-0.19402 0.32148-0.30984 0.80693 0.93078-0.49549  0 150.16 167.74   38.43 150.12 167.73   38.45
   1   5   6  8468.1   327.8   2-0.03572 0.16319 0.87937-0.38181-0.47479 0.90972  0 344.39 456.71  262.76 344.33 456.39  262.80
  -1  -5  -7 14519.9   343.4   1-0.39909 0.27158 0.41485-0.91126-0.81770 0.30959  0 144.58 371.91   23.83 144.71 371.68   24.10
  -1  -5  -7 15905.7   391.0   2 0.07687-0.20437 0.39161-0.88913-0.91691 0.40950  0 244.58  57.38  224.01 244.39  57.52  223.75
  -1  -5   7 12858.4   347.7   1-0.65243 0.52476-0.68576 0.18886-0.32260 0.83003  0 117.37 212.07  100.25 117.12 212.11  100.21
  -1  -5   7 15030.4   392.7   2 0.07735-0.20486-0.92423 0.42656-0.37391 0.88095  0 197.15  85.60  132.96 197.06  85.65  132.93
  -1  -5   7 14143.4   442.6   2-0.23748 0.11002 0.42767-0.92476 0.87218-0.36429  0 463.01 445.58  354.70 463.10 445.42  354.65
  -1   5  -7 14568.8   439.4   2 0.13207-0.25959-0.37742 0.87475-0.91657 0.40917  0 494.58 421.82  178.38 494.67 421.78  178.39
  -1   5  -7 13588.5   369.4   2-0.19077 0.06332 0.89247-0.39510 0.40878-0.91645  0 223.59  67.92  316.26 223.45  68.16  316.17
  -1   5   7 16635.4   411.3   2-0.17778 0.05032-0.42705 0.92413 0.88658-0.37874  0 180.84  99.38   45.67 180.77  99.51   45.68
  -1   5   7 15052.7   453.3   2-0.05202-0.07545 0.91605-0.41850-0.39767 0.90508  0 439.70 458.08  267.75 439.72 457.85  267.76
   1  -5  -7 13237.8   256.5   1-0.54066 0.66817 0.17805-0.67447-0.82218 0.31407  0 198.89 431.77   39.97 198.92 431.57   39.97
   1  -5  -7 15527.1   312.6   1-0.29228 0.41994-0.90741 0.41050 0.30197-0.80940  0 422.37 465.40  144.58 422.47 465.05  144.53
   1  -5  -7 15831.8   457.9   2-0.05363 0.18112-0.92391 0.42662 0.37883-0.88611  0 437.36 458.74   88.00 437.52 458.62   87.98
   1  -5  -7 15359.2   395.2   2 0.07277 0.05473 0.41824-0.91575-0.90542 0.39801  0 179.55 100.80  225.45 179.48 100.94  225.42
   1  -5   7 13068.6   358.0   1-0.57480 0.70246-0.80742 0.31051-0.13298 0.64041  0 112.38 262.31  114.01 112.12 262.31  113.90
   1  -5   7 14554.6   372.4   2 0.08126 0.04625-0.91208 0.41441-0.40187 0.90892  0 146.77 140.13  134.64 146.74 140.16  134.66
   1   5  -7 13616.4   437.0   2 0.13186-0.00434-0.42408 0.92141-0.89597 0.38857  0 412.93 468.17  175.45 413.03 468.00  175.47
   1   5  -7 13124.8   369.1   2-0.18164 0.30908 0.92138-0.42401 0.34362-0.85128  0 164.97 116.12  312.00 164.90 116.20  312.04
   1   5   7 16605.9   386.1   2-0.18736 0.31482-0.36098 0.85807 0.91356-0.40572  0 135.84 158.67   41.56 135.80 158.68   41.56
   1   5   7 14663.6   426.8   2-0.05601 0.18347 0.92398-0.42643-0.37831 0.88572  0 350.05 479.67  268.77 349.97 479.45  268.98
  -1  -5  -8  1598.9   198.5   1-0.37825 0.25075 0.44346-0.93987-0.81257 0.23187  0 131.57 388.77   22.27 131.79 388.68   22.06
  -1  -5  -8  1684.7   198.7   2 0.07120-0.19870 0.42856-0.92607-0.90071 0.32080  0 236.93  34.94  226.36 236.81  35.20  226.08
  -1  -5   8  1580.1   194.7   1-0.62734 0.49968-0.73670 0.23979-0.25244 0.83236  0 101.07 198.65  105.37 100.79 198.65  105.39
  -1  -5   8  1577.3   202.6   2 0.06483-0.19235-0.95524 0.45756-0.28864 0.86812  0 181.42  70.26  127.63 181.40  70.49  127.69
  -1  -5   8  1426.9   271.6   2-0.23696 0.10951 0.45765-0.95475 0.85697-0.27652  0 479.02 474.75  352.63 479.38 475.08  352.72
  -1   5  -8  1296.5   182.2   2-0.17814 0.05070 0.93064-0.43328 0.31964-0.89983  0 214.97  46.88  310.54 215.01  46.79  310.55
  -1   5   8  1809.9   211.1   2-0.17299 0.04553-0.45845 0.95554 0.87172-0.29133  0 164.87  85.41   47.79 164.90  85.46   47.69
  -1   5   8  1643.5   274.9   2-0.06945-0.05801 0.94784-0.45028-0.31110 0.89100  0 453.50 487.09  273.25 453.68 487.21  273.15
   1  -5  -8  1354.4   150.8   1-0.51334 0.64085 0.23082-0.72723-0.82656 0.24586  0 190.44 452.93   36.63 190.47 452.69   36.55
   1  -5  -8  1672.5   186.0   1-0.39258 0.52024-0.90368 0.40678 0.17099-0.75092  0 434.92 494.08  135.08 435.07 494.17  135.06
   1  -5  -8  1691.5   273.0   2-0.03650 0.16399-0.95509 0.45780 0.29405-0.87380  0 460.20 483.81   92.97 460.39 484.07   93.25
   1  -5  -8  1685.0   204.4   2 0.06764 0.05986 0.45138-0.94890-0.88976 0.30986  0 169.11  81.59  227.54 169.10  81.63  227.54
   1  -5   8  1370.4   177.4   1-0.54678 0.67444-0.83372 0.33682-0.07710 0.65702  0  93.53 250.93  117.81  93.32 250.94  117.78
   1  -5   8  1738.5   194.1   2 0.06827 0.05925-0.94778 0.45011-0.31153 0.89101  0 130.20 128.51  129.35 130.30 128.68  129.08
   1   5  -8  1982.4   277.8   2 0.13145-0.00393-0.45660 0.95392-0.87991 0.30002  0 434.06 494.20  173.44 434.02 494.12  173.38
   1   5  -8  1517.6   193.6   2-0.16920 0.29665 0.95055-0.45319 0.26042-0.84061  0 153.91  97.31  307.05 153.76  97.52  306.92
   1   5   8  1847.5   194.2   2-0.18200 0.30947-0.39895 0.89604 0.89873-0.31834  0 119.51 148.13   43.86 119.14 148.07   43.91
  -1  -5  -9 307.361 137.336   1-0.36365 0.23614 0.46284-0.95926-0.80842 0.15513  0 116.40 408.35   20.60 116.51 408.28   20.65
  -1  -5  -9 454.863 179.077   2 0.06713-0.19463 0.45461-0.95212-0.88816 0.23577  2 227.80   9.36  227.44 227.76   8.68  227.75
  -1  -5   9 316.637 148.929   1-0.59831 0.47065-0.78003 0.28312-0.18325 0.83566  0  81.88 183.64  110.33  81.89 183.59  110.35
  -1  -5   9 479.711 181.690   2 0.05242-0.17994-0.97691 0.47923-0.20713 0.85905  0 163.44  52.95  122.60 163.37  52.64  122.80
  -1   5  -9 242.249 178.964   2-0.16515 0.03770 0.95810-0.46074 0.23402-0.88674  0 204.81  21.41  305.52 204.86  21.47  305.33
  -1   5   9 182.988 169.006   2-0.16953 0.04207-0.48020 0.97729 0.86062-0.20768  0 146.24  68.95   49.42 146.52  68.96   49.11
   1  -5  -9 239.618 110.530   1-0.49253 0.62003 0.26850-0.76491-0.82785 0.17456  0 180.14 477.47   34.05 180.18 477.51   34.08
   1  -5  -9 206.621 169.553   2 0.06395 0.06355 0.47467-0.97218-0.87784 0.22545  0 156.61  59.04  229.06 156.62  59.08  229.06
   1  -5   9 345.562 140.857   1-0.51690 0.64457-0.85574 0.35884-0.02269 0.67511  0  72.39 238.53  121.49  72.07 238.55  121.56
   1  -5   9 446.937 157.668   2 0.05521 0.07230-0.97278 0.47511-0.22504 0.87695  0 111.45 115.27  123.61 111.18 115.27  123.87
   1   5  -9 227.030 167.145   2-0.15677 0.28421 0.97092-0.47355 0.18093-0.83365  0 140.29  75.81  302.52 140.39  75.86  302.13
   1   5   9 237.126 152.485   2-0.17796 0.30542-0.42589 0.92298 0.88710-0.23417  0  99.54 135.89   45.60  99.66 135.76   45.61
  -1  -5 -10 240.490 159.958   1-0.35506 0.22755 0.47407-0.97049-0.80572 0.07985  0  98.25 432.06   20.04  98.43 431.41   19.83
  -1  -5  10 113.966 139.855   1-0.56604 0.43837-0.81629 0.31938-0.11523 0.84013  0  59.29 165.89  115.52  59.89 166.32  115.14
  -1  -5  10  34.900 201.546   2 0.04012-0.16763-0.99079 0.49312-0.12931 0.85366  0 141.75  30.75  118.53 142.33  31.47  118.23
  -1   5  10 -41.047 184.847   2-0.16737 0.03988-0.49358 0.99087 0.85344-0.12875  0 124.74  49.61   50.52 125.07  49.59   50.01
   1  -5 -10  27.753 191.192   2 0.06146 0.06603 0.48974-0.98725-0.86970 0.14482  0 141.24  32.22  230.65 141.57  32.44  230.05
   1  -5  10 144.765 144.830   1-0.48551 0.61317-0.87370 0.37679 0.03061 0.69430  0  47.28 224.38  125.42  47.69 224.71  125.25
   1  -5  10-147.584 156.011   2 0.04215 0.08537-0.98890 0.49122-0.14249 0.86684  0  88.53  99.59  118.54  88.66  99.63  119.00
   1   5 -10 -56.785 181.076   2-0.14477 0.27224 0.98383-0.48627 0.10544-0.83032  0 124.28  49.85  297.46 124.33  50.42  297.69
   1   5  10 -63.139 167.158   2-0.17533 0.30280-0.44353 0.94062 0.87894-0.15346  0  77.04 121.66   46.89  76.68 121.50   46.73
  -1  -6   0 646.514 107.098   1-0.66714 0.53961-0.16890-0.42712-0.72553 0.72553  0 153.03 299.19   61.64 152.81 299.13   61.95
  -1  -6   0 664.615 139.973   2-0.19890 0.07144-0.26937-0.32714 0.94227-0.94227  0 451.85 378.09   36.26 452.09 378.08   36.03
  -1  -6   0 686.693 112.654   2 0.13175-0.25927-0.34017-0.25662-0.93109 0.93109  0 243.88 104.59  180.65 243.77 104.58  180.69
  -1   6   0 714.588 132.562   1-0.53058 0.40307 0.19793 0.39777-0.82421 0.82421  0 458.37 144.68   38.63 458.31 144.85   38.68
  -1   6   0 704.916 118.311   2-0.23632 0.10886 0.26137 0.33513 0.93586-0.93586  0 222.57 117.01    5.00 222.53 116.97    5.15
  -1   6   0 650.719 143.860   2 0.08536-0.21286 0.33035 0.26666-0.93999 0.93999  0 430.15 396.89  220.00 430.09 396.80  219.96
   1  -6   0 428.291  86.932   1-0.69829 0.82583-0.46107-0.13495-0.54754 0.54754  0 173.70 348.14   81.72 173.78 348.03   81.73
   1  -6   0 724.918 143.538   2-0.18853 0.31599-0.35216-0.24435 0.91676-0.91676  0 381.87 421.28   41.35 381.82 421.37   41.02
   1  -6   0 681.938 115.134   2 0.13098-0.00345-0.28403-0.31276-0.94983 0.94983  0 188.30 147.39  183.98 188.44 147.43  184.08
   1   6   0 623.683 139.370   1-0.41010 0.53761 0.39928 0.19642-0.82000 0.82000  0 492.79 203.72   25.30 493.16 203.79   25.20
   1   6   0 619.171 142.447   2 0.09002 0.03747 0.29290 0.30412-0.95190 0.95190  0 354.72 428.08  217.70 354.79 428.09  217.69
  -1  -6  -1  4400.8   199.1   1-0.64504 0.51751-0.08559-0.51042-0.75934 0.68677  0 154.41 310.06   56.71 154.59 309.91   56.64
  -1  -6  -1  5415.1   266.0   2-0.18373 0.05627-0.38692-0.20958 0.90362-0.97617  0 456.23 376.54   42.97 456.50 376.52   43.16
  -1  -6  -1  5346.9   222.0   2 0.12956-0.25708-0.22686-0.36993-0.96527 0.89279  0 246.40 101.54  187.45 246.30 101.74  187.47
  -1  -6   1  4269.1   200.8   1-0.68408 0.55654-0.25299-0.34302-0.68413 0.75670  0 149.08 288.73   67.39 149.18 288.62   67.41
  -1  -6   1  5629.0   270.0   2-0.21130 0.08384-0.15373-0.44277 0.96526-0.89271  0 450.21 382.75   29.00 450.34 382.66   29.23
  -1  -6   1  5110.1   220.4   2 0.13153-0.25905-0.45171-0.14509-0.88242 0.95490  0 239.85 104.85  173.95 239.71 105.02  173.70
  -1   6  -1  4298.1   228.1   1-0.58026 0.45275 0.09312 0.50257-0.80909 0.73650  0 471.01 156.79   45.18 471.01 157.06   45.39
  -1   6  -1  4971.0   260.5   2 0.09859-0.22609 0.21973 0.37728-0.97057 0.89808  0 434.42 396.00  213.25 434.66 395.90  213.34
  -1   6  -1  5099.7   223.7   2-0.23785 0.11039 0.37447 0.22204 0.89621-0.96877  0 224.68 113.76  357.99 224.66 113.95  358.00
  -1   6   1  4617.3   225.8   1-0.46351 0.33600 0.31751 0.27819-0.82725 0.89984  0 448.42 131.66   31.00 448.48 131.90   30.82
  -1   6   1  5780.8   236.2   2-0.23251 0.10505 0.14972 0.44679 0.96100-0.88845  0 218.93 117.65   11.91 218.84 117.80   11.72
  -1   6   1  4897.2   267.3   2 0.06942-0.19691 0.44005 0.15697-0.89529 0.96777  0 427.73 400.88  227.02 427.87 400.76  226.81
   1  -6  -1  3923.4   177.2   1-0.69839 0.82592-0.39265-0.20337-0.59840 0.52583  0 180.04 359.79   77.25 180.12 359.64   76.85
   1  -6  -1  5692.1   270.3   2-0.17287 0.30033-0.45920-0.13731 0.87135-0.94390  0 386.41 421.79   47.73 386.64 421.69   47.74
   1  -6  -1  5313.9   227.0   2 0.12758-0.00006-0.17049-0.42630-0.97707 0.90458  0 189.87 143.79  190.80 189.79 143.84  190.78
   1  -6   1  3883.8   182.6   1-0.69345 0.82098-0.52459-0.07143-0.49391 0.56647  0 165.82 337.12   86.49 165.89 336.99   86.50
   1  -6   1  5207.2   265.9   2-0.20183 0.32930-0.24405-0.35246 0.94853-0.87598  0 379.01 424.34   34.53 378.91 424.23   34.52
   1  -6   1  5122.4   223.1   2 0.13212-0.00460-0.39843-0.19836-0.90763 0.98012  0 185.39 148.92  177.24 185.36 148.96  177.08
   1   6  -1  4041.2   232.8   1-0.46524 0.59275 0.31469 0.28101-0.82736 0.75477  0 499.37 217.16   31.08 499.44 217.30   31.01
   1   6  -1  5279.7   262.4   2 0.10326 0.02424 0.17560 0.42142-0.97903 0.90654  0 359.75 429.19  210.72 359.70 428.98  210.74
   1   6  -1  4617.8   209.7   2-0.23664 0.36410 0.47026 0.12625 0.85021-0.92276  0 175.40 162.29  352.00 175.38 162.40  351.90
   1   6   1  4668.4   244.8   1-0.34455 0.47206 0.48743 0.10827-0.80230 0.87489  0 490.08 189.70   19.11 490.12 189.94   18.83
   1   6   1  5540.1   221.3   2-0.23603 0.36350 0.25260 0.34391 0.93834-0.86579  0 171.60 168.06    5.66 171.54 168.09    5.67
   1   6   1  4881.9   254.4   2 0.07384 0.05366 0.41107 0.18594-0.90861 0.98109  0 351.50 430.57  225.00 351.54 430.36  224.97
  -1  -6  -2 523.279 103.782   1-0.61896 0.49143-0.00563-0.59039-0.78540 0.64026  0 154.55 321.15   51.53 154.46 321.07   51.61
  -1  -6  -2 489.750 144.988   2-0.16622 0.03873-0.50045-0.09630 0.84966-0.99460  0 463.83 378.10   50.42 463.68 378.06   50.46
  -1  -6  -2 467.992 112.348   2 0.12511-0.25263-0.11703-0.47976-0.98522 0.84024  0 247.36  96.39  194.00 247.27  96.34  193.89
  -1  -6   2 444.681 100.986   1-0.69479 0.56726-0.33556-0.26046-0.63613 0.78127  0 143.82 278.21   72.80 143.74 278.22   72.92
  -1  -6   2 569.604 144.402   2-0.22076 0.09329-0.04536-0.55115 0.97427-0.82918  0 450.94 390.22   23.01 451.16 390.30   22.98
  -1  -6   2 670.479 123.686   2 0.12861-0.25613-0.55650-0.04029-0.82083 0.96580  0 234.06 102.89  166.72 234.04 103.06  166.71
  -1   6  -2 482.090 140.368   1-0.61486 0.48733 0.00572 0.59029-0.78861 0.64348  0 486.95 168.50   50.62 486.70 168.79   50.89
  -1   6  -2 609.518 149.988   2 0.10922-0.23672 0.11324 0.48378-0.98755 0.84257  0 441.54 397.77  206.91 441.77 398.10  207.12
  -1   6  -2 562.865 113.161   2-0.23630 0.10885 0.48400 0.11251 0.84256-0.98767  0 225.03 108.52  350.69 225.18 108.50  351.00
  -1   6   2 493.038 125.556   1-0.37592 0.24842 0.44659 0.14911-0.81193 0.95711  0 441.29 117.92   21.71 441.36 117.84   21.83
  -1   6   2 584.087 121.404   2-0.22706 0.09959 0.04435 0.55215 0.97287-0.82777  0 213.64 116.47   18.00 213.50 116.42   17.81
  -1   6   2 487.559 155.119   2 0.05202-0.17952 0.54417 0.05284-0.83736 0.98233  0 427.95 408.08  233.75 428.02 407.87  233.72
   1  -6  -2 442.843  92.687   1-0.69311 0.82065-0.32039-0.27562-0.64571 0.50057  0 184.72 372.15   72.05 184.80 372.03   71.89
   1  -6  -2 563.469 154.680   2-0.15559 0.28308-0.56041-0.03634 0.81347-0.95841  0 393.27 425.21   54.50 393.45 425.15   54.53
   1  -6  -2 662.411 118.988   2 0.12222 0.00530-0.06290-0.53389-0.99051 0.84554  0 189.39 138.12  196.66 189.45 138.15  197.00
   1  -6   2 406.052  96.209   1-0.68392 0.81145-0.58260-0.01342-0.43913 0.58427  0 156.28 326.65   91.25 156.53 326.42   91.11
   1  -6   2 421.628 146.366   2-0.21254 0.34000-0.13969-0.45682 0.96712-0.82202  0 377.97 430.15   28.35 377.85 430.30   28.42
   1  -6   2 644.516 116.541   2 0.13032-0.00280-0.50853-0.08826-0.85112 0.99609  0 180.47 148.49  169.57 180.51 148.47  169.97
   1   6  -2 533.370 147.551   2 0.11337 0.01413 0.06476 0.53226-0.99144 0.84646  0 366.50 433.34  204.45 366.45 433.06  204.31
   1   6  -2 503.009 109.553   2-0.23319 0.36064 0.57078 0.02606 0.78729-0.93234  0 174.55 156.31  345.33 174.53 156.48  345.11
   1   6   2 512.550 157.701   1-0.26980 0.39731 0.57514 0.02055-0.77228 0.91745  0 490.09 175.03   11.98 490.32 175.26   12.01
   1   6   2 631.882 112.634   2-0.23231 0.35977 0.14522 0.45128 0.96174-0.81664  0 166.98 167.81   12.00 166.90 168.06   11.99
   1   6   2 420.477 140.074   2 0.05555 0.07195 0.52422 0.07280-0.84977 0.99475  0 349.95 435.95  232.28 349.97 435.92  232.36
  -1  -6  -3 20647.2   384.2   1-0.59025 0.46274 0.06905-0.66475-0.80426 0.58650  0 152.26 333.05   46.99 152.41 332.86   46.91
  -1  -6  -3 23573.8   447.2   2-0.14691 0.01942-0.60524 0.00849 0.78237-0.99978  0 473.70 382.62   57.73 473.88 382.64   57.70
  -1  -6  -3 24292.7   427.7   2 0.11919-0.24669-0.01557-0.58144-0.99275 0.77529  0 246.93  88.20  199.73 246.69  88.38  199.70
  -1  -6   3 18964.1   387.2   1-0.69893 0.57140-0.41469-0.18132-0.58268 0.80039  0 136.42 267.82   78.36 136.48 267.76   78.40
  -1  -6   3 20934.7   435.6   2-0.22738 0.09992 0.05182-0.64832 0.97243-0.75478  0 454.29 401.19   17.36 454.52 401.20   17.38
  -1  -6   3 21931.1   418.3   2 0.12302-0.25054-0.65089 0.05410-0.74914 0.96659  0 226.91  98.74  159.76 226.82  98.84  159.90
  -1   6  -3 21840.5   444.8   2 0.11698-0.24448 0.01500 0.58201-0.99302 0.77556  0 451.30 403.47  201.42 451.56 403.40  201.46
  -1   6  -3 22227.5   418.0   2-0.23230 0.10485 0.58527 0.01157 0.77685-0.99442  0 224.20 100.43  344.13 224.04 100.61  344.08
  -1   6   3 21569.9   356.9   1-0.26912 0.14161 0.57589 0.01981-0.77196 0.98972  0 436.81 102.08   12.00 436.94 102.33   11.95
  -1   6   3 25318.8   447.0   2-0.22032 0.09286-0.05092 0.64742 0.97410-0.75645  0 206.59 112.77   23.11 206.53 112.91   23.30
  -1   6   3 20929.1   440.1   2 0.03319-0.16069 0.63880-0.04178-0.76866 0.98612  0 430.09 418.33  240.50 430.31 418.15  240.52
   1  -6  -3 17795.2   305.3   1-0.68297 0.81050-0.24638-0.34964-0.68764 0.46994  0 187.62 385.64   67.25 187.70 385.43   66.97
   1  -6  -3 24155.2   466.6   2-0.13712 0.26460-0.65243 0.05568 0.74534-0.96275  0 402.17 431.92   60.93 402.45 431.84   61.18
   1  -6  -3 22589.2   422.2   2 0.11558 0.01192 0.03455-0.63156-0.99270 0.77523  0 187.56 130.27  202.62 187.40 130.34  202.58
   1  -6   3 17816.7   365.3   1-0.67059 0.79812-0.63499 0.03898-0.38353 0.60123  0 145.67 316.21   95.55 145.72 316.11   95.55
   1  -6   3 22778.7   448.8   2-0.22092 0.34838-0.04328-0.55322 0.97433-0.75669  0 378.61 439.80   23.07 378.54 439.63   22.86
   1  -6   3 22850.4   421.6   2 0.12581 0.00171-0.60986 0.01307-0.78246 0.99991  0 173.94 146.03  163.09 173.89 146.06  162.93
   1   6  -3 21236.8   435.4   2 0.12051 0.00701-0.03560 0.63239-0.99207 0.77462  0 375.11 440.57  198.51 374.92 440.34  198.57
   1   6  -3 20438.5   398.3   2-0.22704 0.35448 0.66092-0.06408 0.71529-0.93286  0 172.09 148.49  338.50 172.00 148.61  338.47
   1   6   3 21454.9   411.9   1-0.18761 0.31512 0.65803-0.06234-0.72924 0.94700  0 493.82 159.23    4.97 493.88 159.40    4.88
   1   6   3 23942.0   420.7   2-0.22711 0.35457 0.04515 0.55135 0.97282-0.75518  0 160.42 166.11   17.98 160.40 166.15   17.76
   1   6   3 21033.3   420.1   2 0.03566 0.09183 0.62744-0.03043-0.77785 0.99531  0 349.90 445.03  239.67 349.88 444.75  239.67
  -1  -6  -4 -71.396  81.098   1-0.56109 0.43358 0.13583-0.73153-0.81654 0.52619  0 148.58 345.69   42.46 148.37 345.42   42.67
  -1  -6  -4-125.774 148.629   2-0.12682-0.00067-0.69777 0.10102 0.70501-0.99488  0 487.58 390.47   64.42 487.43 390.38   64.71
  -1  -6  -4  51.706 100.803   2 0.11255-0.24005 0.07465-0.67166-0.99084 0.70089  0 244.59  77.55  204.87 244.78  77.77  204.88
  -1  -6   4  22.531  91.439   1-0.69682 0.56928-0.48885-0.10716-0.52485 0.81513  0 127.85 257.20   83.38 127.41 257.07   83.78
  -1  -6   4 -56.056 154.043   2-0.23188 0.10441 0.13569-0.73220 0.96323-0.67304  0 459.90 415.28   12.46 460.28 415.32   12.54
  -1  -6   4 -48.016  97.390   2 0.11523-0.24275-0.73285 0.13606-0.67056 0.96050  0 218.03  92.50  153.42 218.05  92.42  153.38
  -1   6  -4 -49.597 158.791   2 0.12271-0.25023-0.07221 0.66901-0.98981 0.69987  0 464.50 411.98  196.53 464.23 411.96  196.47
  -1   6  -4 -74.977  98.590   2-0.22581 0.09837 0.67549-0.07865 0.70194-0.99204  0 221.78  90.44  337.49 221.47  90.28  337.34
  -1   6   4-130.143  99.286   2-0.21308 0.08562-0.13391 0.73041 0.96781-0.67762  0 198.08 107.22   28.51 197.90 107.30   28.09
  -1   6   4  47.353 159.322   2 0.01379-0.14129 0.72163-0.12461-0.69214 0.98209  0 434.78 431.86  247.10 434.82 431.82  247.10
   1  -6  -4 -43.604  69.002   1-0.66804 0.79558-0.17278-0.42323-0.72378 0.43351  0 188.62 399.55   62.62 188.75 400.04   62.20
   1  -6  -4  70.082 163.263   2-0.11809 0.24558-0.73302 0.13627 0.66987-0.95975  0 413.82 441.75   67.38 413.80 441.84   67.60
   1  -6  -4 105.269 108.851   2 0.10861 0.01889 0.11993-0.71695-0.98682 0.69687  0 183.88 120.64  207.53 183.81 120.39  207.51
   1  -6   4 -36.955  82.260   1-0.65410 0.78177-0.68172 0.08544-0.32773 0.61769  0 133.78 305.87   99.51 133.48 306.00   99.83
   1  -6   4  36.404 147.155   2-0.22693 0.35440 0.04240-0.63890 0.97299-0.68279  0 381.03 452.66   17.43 380.92 452.50   17.92
   1  -6   4  11.733  97.113   2 0.11878 0.00874-0.69946 0.10267-0.70473 0.99468  0 165.33 141.41  156.46 165.44 141.76  156.12
   1   6  -4 152.070 159.731   2 0.12540 0.00213-0.12265 0.71944-0.98450 0.69455  0 385.55 451.16  193.50 385.58 451.06  193.56
   1   6  -4  65.808  94.312   2-0.21922 0.34667 0.73898-0.14214 0.63706-0.92715  0 167.78 138.86  332.49 167.80 138.73  332.10
   1   6   4  71.436  97.907   2-0.22084 0.34830-0.04434 0.64085 0.97430-0.68411  0 151.89 162.43   22.49 151.98 162.46   22.92
   1   6   4 -57.556 143.042   2 0.01481 0.11269 0.71756-0.12054-0.69634 0.98629  0 351.23 457.41  247.11 351.23 457.08  246.76
  -1  -6  -5  2560.3   197.8   1-0.53265 0.40514 0.19388-0.78958-0.82383 0.46089  0 142.24 359.22   38.79 142.36 359.04   38.95
  -1  -6  -5  2858.9   293.6   2-0.10656-0.02092-0.77640 0.17965 0.62116-0.98351  2 504.11 401.30   71.34 504.77 401.55   71.42
  -1  -6  -5  2849.7   220.0   2 0.10564-0.23314 0.15190-0.74892-0.98273 0.62030  0 241.66  64.13  209.38 241.47  64.34  209.36
  -1  -6   5  2544.9   194.5   1-0.68874 0.56121-0.55715-0.03887-0.46392 0.82676  0 116.66 246.13   89.11 116.50 246.01   89.05
  -1  -6   5  2453.4   305.0   2-0.23466 0.10719 0.20572-0.80223 0.95006-0.58732  0 468.60 433.12    8.46 468.74 433.12    8.45
  -1  -6   5  2969.4   230.5   2 0.10592-0.23343-0.80154 0.20433-0.58849 0.95066  0 207.65  83.67  147.33 207.56  83.76  147.18
  -1   6  -5  2801.8   312.8   2 0.12649-0.25401-0.14670 0.74349-0.98106 0.61863  0 480.31 424.10  191.97 480.39 424.07  192.17
  -1   6  -5  2550.5   219.9   2-0.21758 0.09014 0.75301-0.15618 0.62099-0.98361  0 217.68  77.47  331.04 217.44  77.36  330.87
  -1   6   5  3506.4   244.8   2-0.20620 0.07874-0.20388 0.80039 0.95703-0.59429  0 187.53  99.57   32.34 187.51  99.64   32.17
  -1   6   5  3122.7   317.9   2-0.00548-0.12198 0.79176-0.19469-0.61081 0.97325  0 441.64 449.32  253.42 441.61 449.19  253.35
   1  -6  -5  2446.6   155.6   1-0.64996 0.77749-0.10277-0.49325-0.75299 0.39015  0 187.85 416.57   57.81 187.87 416.24   57.73
   1  -6  -5  3202.5   222.6   1 0.01934 0.10837-0.79015 0.19366 0.61260-0.97507  0 438.46 451.06  170.88 438.46 450.88  170.84
   1  -6  -5  3353.4   313.5   2-0.09921 0.22670-0.80137 0.20462 0.58988-0.95223  0 427.65 455.48   73.72 427.81 455.50   73.75
   1  -6  -5  3186.9   233.4   2 0.10156 0.02594 0.19213-0.78914-0.97610 0.61366  0 178.59 108.03  211.89 178.54 108.17  211.71
   1  -6   5  2515.8   197.1   1-0.63482 0.76248-0.72321 0.12693-0.27198 0.63444  0 119.90 295.91  104.05 119.69 295.79  103.96
   1  -6   5  2961.7   303.1   2-0.23087 0.35834 0.11597-0.71247 0.96605-0.60331  0 384.92 469.22   13.62 384.94 469.00   13.68
   1  -6   5  2843.5   215.9   2 0.10984 0.01768-0.77588 0.17909-0.62125 0.98367  0 155.20 135.61  149.59 155.11 135.63  149.63
   1   6  -5  2646.1   308.8   2 0.12875-0.00123-0.19582 0.79261-0.97215 0.60972  0 398.61 465.78  189.09 398.58 465.53  189.31
   1   6  -5  2758.3   224.2   2-0.20997 0.33742 0.80454-0.20771 0.55553-0.91815  0 162.01 126.65  325.97 161.89 126.78  326.07
   1   6   5  3046.8   210.6   2-0.21423 0.34170-0.12144 0.71795 0.96920-0.60646  0 141.52 157.02   27.09 141.58 157.06   27.36
   1   6   5  3110.9   294.0   2-0.00589 0.13335 0.79311-0.19604-0.60905 0.97149  0 354.05 473.44  253.47 354.00 473.14  253.48
  -1  -6  -6  79.955 116.420   1-0.50711 0.37960 0.24252-0.83821-0.82706 0.39153  0 134.27 374.21   35.66 134.31 374.02   35.79
  -1  -6  -6  13.412 120.982   2 0.09900-0.22650 0.21596-0.81297-0.97137 0.53644  0 236.77  47.71  213.30 236.77  47.89  213.11
  -1  -6   6  43.841 104.203   1-0.67512 0.54759-0.61919 0.02318-0.40102 0.83643  0 103.17 234.33   94.55 103.63 234.34   94.18
  -1  -6   6  60.189 205.696   2-0.23635 0.10888 0.26250-0.85901 0.93554-0.50025  0 480.26 454.97    5.48 480.07 455.10    5.08
  -1  -6   6  85.384 132.448   2 0.09541-0.22293-0.85801 0.26080-0.50469 0.93930  0 195.38  72.68  141.46 195.42  72.91  141.36
  -1   6  -6 -94.096 218.368   2 0.12920-0.25672-0.20841 0.80520-0.96947 0.53456  0 500.69 439.95  188.45 500.62 440.18  188.57
  -1   6  -6  75.728 130.981   2-0.20769 0.08024 0.81771-0.22087 0.53685-0.97200  0 212.24  62.27  324.61 211.92  61.66  324.75
  -1   6   6 -35.209 133.620   2-0.19986 0.07240-0.26116 0.85766 0.94438-0.50909  0 175.58  89.95   35.56 175.30  89.88   35.54
  -1   6   6 144.404 215.904   2-0.02437-0.10309 0.84938-0.25231-0.52721 0.96214  0 451.25 471.31  259.55 450.92 470.82  259.27
   1  -6  -6  89.770  85.721   1-0.63052 0.75805-0.03931-0.55670-0.77518 0.33977  0 185.07 434.54   53.57 185.07 434.47   53.72
   1  -6  -6  45.724 148.273   1-0.10877 0.23648-0.85882 0.26232 0.50060-0.93556  0 442.85 474.03  160.68 442.84 474.43  160.31
   1  -6  -6 -14.488 209.616   2-0.08087 0.20836-0.85768 0.26092 0.50779-0.94260  0 445.13 473.42   79.40 444.94 473.32   79.52
   1  -6  -6 -10.785 125.733   2 0.09497 0.03253 0.25143-0.84845-0.96320 0.52828  0 171.32  92.92  214.95 171.56  93.58  215.21
   1  -6   6  33.452  94.964   1-0.61286 0.74052-0.75985 0.16356-0.21688 0.65182  0 104.48 285.49  107.55 104.12 285.40  107.95
   1  -6   6  75.216 198.020   2-0.23362 0.36108 0.17706-0.77357 0.95607-0.52078  0 390.67 489.38   10.60 390.71 489.76   10.13
   1  -6   6  73.646 125.461   2 0.09935 0.02816-0.83875 0.24154-0.53537 0.96998  0 143.28 127.42  143.53 142.70 127.70  143.45
   1   6  -6  -8.798 209.685   2 0.13037-0.00285-0.25550 0.85229-0.95798 0.52307  0 414.29 484.29  185.51 414.23 484.05  185.78
   1   6  -6  18.309 123.718   2-0.19949 0.32694 0.85815-0.26131 0.47306-0.90820  0 154.15 112.71  320.43 154.19 112.64  320.38
   1   6   6  23.305 113.235   2-0.20813 0.33560-0.18562 0.78212 0.96033-0.52504  0 129.01 150.08   30.94 129.05 149.97   31.10
   1   6   6  25.722 189.251   2-0.02617 0.15363 0.85429-0.25722-0.51914 0.95406  0 358.11 493.42  260.04 358.12 493.39  259.83
  -1  -6  -7  6632.8   283.7   1-0.48483 0.35732 0.28181-0.87751-0.82797 0.31985  0 124.22 390.98   33.24 124.06 390.86   33.20
  -1  -6  -7  7448.1   337.5   2 0.09310-0.22059 0.26748-0.86450-0.95905 0.45164  0 230.83  27.83  216.25 230.66  28.01  216.17
  -1  -6   7  5689.1   277.1   1-0.65713 0.52960-0.67443 0.07841-0.33664 0.84462  0  88.80 221.82   99.07  88.55 221.80   99.15
  -1  -6   7  6981.2   456.8   2-0.23710 0.10964 0.30725-0.90375 0.92162-0.41378  0 494.72 482.16    2.41 494.72 482.08    2.40
  -1  -6   7  7238.6   347.0   2 0.08397-0.21148-0.90305 0.30584-0.42126 0.92830  0 181.39  59.65  135.83 181.31  59.65  135.90
  -1   6  -7  6301.5   327.0   2-0.19664 0.06920 0.87020-0.27336 0.45175-0.95942  0 205.01  42.60  319.00 204.81  42.77  318.97
  -1   6   7  7934.1   345.3   2-0.19441 0.06695-0.30673 0.90324 0.93173-0.42389  0 161.12  77.79   38.26 160.98  77.89   38.26
  -1   6   7  6763.3   459.1   2-0.04250-0.08496 0.89538-0.29831-0.44327 0.95068  0 462.99 497.66  265.01 463.01 497.46  264.85
   1  -6  -7  5785.1   218.7   1-0.61125 0.73879 0.01548-0.61150-0.79128 0.28330  0 180.31 455.65   50.21 180.36 455.34   50.28
   1  -6  -7  7636.5   461.7   2-0.06332 0.19081-0.90278 0.30602 0.42542-0.93271  0 465.89 496.15   85.02 465.94 496.02   84.99
   1  -6  -7  7505.0   342.0   2 0.08929 0.03821 0.29884-0.89585-0.95012 0.44270  0 162.87  76.19  218.00 162.77  76.28  218.05
   1  -6   7  6277.4   296.9   1-0.58872 0.71638-0.79188 0.19559-0.16229 0.66973  0  86.72 274.56  111.93  86.53 274.55  111.83
   1  -6   7  6380.2   309.1   2 0.08788 0.03963-0.88946 0.29225-0.44848 0.95552  0 128.22 117.98  137.63 128.07 117.92  137.65
   1   6  -7  6006.2   316.0   2-0.18831 0.31575 0.90086-0.30402 0.39115-0.89882  0 144.68  95.99  315.28 144.54  96.04  315.04
   1   6   7  7449.5   318.6   2-0.20260 0.33006-0.23748 0.83398 0.95003-0.44219  0 114.46 141.20   34.00 114.15 141.23   34.13
  -1  -6  -8 189.333 140.947   1-0.46688 0.33937 0.31202-0.90771-0.82745 0.24675  0 111.59 409.97   31.44 111.47 410.12   31.19
  -1  -6   8 191.520 140.802   1-0.63500 0.50734-0.72286 0.12658-0.27247 0.85240  0  71.59 208.15  103.59  71.13 208.05  103.92
  -1  -6   8 263.639 183.517   2 0.07226-0.19977-0.93793 0.34072-0.33922 0.91870  0 165.17  43.88  130.57 164.86  43.64  130.78
  -1   6  -8 280.906 180.635   2-0.18493 0.05749 0.91155-0.31471 0.36725-0.94744  0 195.65  19.99  313.46 195.93  20.13  313.53
  -1   6   8 281.802 178.397   2-0.18997 0.06251-0.34185 0.93836 0.92035-0.33996  0 144.16  63.71   40.47 144.22  63.40   40.39
   1  -6  -8 176.613 113.530   1-0.59375 0.72125 0.06055-0.65624-0.80237 0.22167  0 173.73 479.87   47.54 173.82 479.85   47.44
   1  -6  -8 115.441 178.567   2 0.08467 0.04283 0.33561-0.93263-0.93819 0.35829  0 152.13  56.29  220.42 151.90  55.84  220.28
   1  -6   8 235.243 134.008   1-0.56269 0.69036-0.81955 0.22327-0.10823 0.68816  0  66.81 262.80  115.55  66.55 263.03  115.62
   1  -6   8 189.775 155.590   2 0.07564 0.05187-0.92892 0.33171-0.36248 0.94196  0 110.16 105.93  131.97 110.71 106.11  132.22
   1   6  -8 304.529 169.145   2-0.17680 0.30424 0.93389-0.33705 0.31078-0.89097  0 132.46  76.38  310.05 132.66  76.57  310.00
   1   6   8 285.163 153.421   2-0.19793 0.32539-0.27804 0.87455 0.93996-0.35957  0  96.66 130.83   36.42  96.52 130.70   36.54
  -1  -6  -9 809.936 183.916   1-0.45358 0.32607 0.33366-0.92936-0.82640 0.17311  0  96.11 433.18   29.69  96.22 432.62   29.73
  -1  -6   9 752.065 181.379   1-0.60895 0.48128-0.76555 0.16927-0.20765 0.86007  0  50.88 192.62  108.62  50.52 192.57  108.61
  -1  -6   9 964.764 233.278   2 0.06044-0.18795-0.96392 0.36671-0.25924 0.91115  0 145.95  24.67  125.64 145.62  24.39  125.92
  -1   6   9  1030.0   234.4   2-0.18642 0.05896-0.36782 0.96432 0.91102-0.25809  0 124.42  46.03   41.97 124.44  45.97   41.98
   1  -6  -9  1013.9   239.0   2 0.08096 0.04654 0.36306-0.96007-0.92824 0.27585  0 138.45  31.33  221.94 138.51  31.50  221.97
   1  -6   9 530.761 168.711   1-0.53480 0.66247-0.84320 0.24692-0.05481 0.70723  0  43.15 250.60  119.40  43.54 250.50  119.33
   1  -6   9 986.012 210.147   2 0.06328 0.06423-0.95839 0.36118-0.27837 0.93028  0  90.19  92.11  127.26  90.19  92.02  127.07
   1   6  -9 787.995 211.340   2-0.16492 0.29237 0.95850-0.36166 0.23257-0.88528  0 118.02  53.34  305.38 118.08  53.56  305.24
   1   6   9 783.404 188.900   2-0.19418 0.32164-0.30855 0.90506 0.93118-0.27824  0  74.91 118.01   37.98  75.57 118.18   38.37
  -1  -6 -10  1009.2   216.0   1-0.44485 0.31734 0.34737-0.94306-0.82550 0.09962  0  77.60 460.26   29.06  77.74 459.61   28.80
  -1  -6  10 622.675 192.727   1-0.57963 0.45197-0.80223 0.20595-0.14303 0.86794  0  25.98 174.65  113.38  26.15 174.72  113.19
   1  -6  10  1063.2   214.1   1-0.50502 0.63268-0.86311 0.26683-0.00209 0.72699  0  17.09 236.41  122.73  16.77 236.48  122.98
   1  -6  10  1183.8   238.3   2 0.05077 0.07675-0.97916 0.38195-0.19664 0.92099  0  65.72  75.20  122.41  65.59  75.14  122.18
  -1  -7   0  21.909  96.204   1-0.68084 0.55331-0.23450-0.46085-0.69387 0.69387  0 123.97 312.98   66.43 124.36 312.90   66.20
  -1  -7   0-198.505 168.108   2-0.19225 0.06479-0.32442-0.37150 0.92617-0.92617  0 488.21 415.87   39.63 488.65 415.87   39.33
  -1  -7   0 -28.836 111.329   2 0.13208-0.25960-0.38400-0.31226-0.91384 0.91384  0 226.06  73.37  177.56 226.18  73.12  177.98
  -1   7   0  42.837 176.429   1-0.49232 0.36481 0.26886 0.42612-0.82785 0.82785  2 503.36 115.68   34.37 503.81 115.72   34.06
  -1   7   0  11.593 110.336   2-0.23722 0.10976 0.31619 0.37974 0.91856-0.91856  0 200.50  89.83    1.90 200.64  89.86    1.86
  -1   7   0 -86.169 176.689   2 0.07931-0.20681 0.37445 0.32207-0.92385 0.92385  0 458.60 438.35  222.60 458.68 438.30  222.68
   1  -7   0  54.632  92.951   1-0.69693 0.82447-0.48719-0.20816-0.52624 0.52624  0 146.72 364.90   83.78 146.50 364.98   83.66
   1  -7   0  15.951 178.291   2-0.18285 0.31031-0.39312-0.30280 0.90112-0.90112  0 408.57 461.65   43.52 408.63 461.55   43.54
   1  -7   0 -26.222  98.662   2 0.13171-0.00419-0.33568-0.36057-0.93272 0.93272  0 168.26 120.67  181.08 168.10 120.43  180.97
   1   7   0 -15.380 165.519   2 0.08347 0.04403 0.34465 0.35187-0.93501 0.93501  0 373.82 470.02  220.67 373.74 469.95  220.83
   1   7   0 -47.651 103.408   2-0.23771 0.36517 0.40317 0.29276 0.88371-0.88371  0 150.50 143.78  356.39 150.61 143.69  356.21
  -1  -7  -1  2224.4   190.6   1-0.66625 0.53871-0.16507-0.53028-0.72723 0.65467  0 126.66 324.64   61.75 126.54 324.39   61.70
  -1  -7  -1  2563.7   306.9   2-0.17834 0.05088-0.42335-0.27257 0.88824-0.96079  0 493.56 414.15   45.40 493.71 414.26   45.45
  -1  -7  -1  2912.1   227.4   2 0.13107-0.25859-0.28885-0.40740-0.94836 0.87587  0 228.84  69.97  183.99 228.83  69.97  183.79
  -1  -7   1  2460.3   196.3   1-0.69135 0.56381-0.30473-0.39062-0.65512 0.72769  0 120.41 301.94   70.89 120.35 301.78   70.83
  -1  -7   1  2666.6   305.8   2-0.20379 0.07632-0.22681-0.46912 0.95238-0.87983  0 486.37 420.64   33.52 486.49 420.68   33.50
  -1  -7   1  2893.0   228.2   2 0.13106-0.25858-0.47800-0.21825-0.86853 0.94101  0 222.07  73.70  172.01 221.99  73.80  171.99
  -1   7  -1  2548.2   316.1   2 0.09147-0.21897 0.28102 0.41550-0.95533 0.88284  0 463.96 437.62  217.01 463.94 437.57  216.98
  -1   7  -1  2558.9   224.9   2-0.23765 0.11019 0.41162 0.28431 0.87982-0.95238  0 202.85  86.40  355.73 202.84  86.58  355.67
  -1   7   1  2768.2   280.8   1-0.42993 0.30242 0.37011 0.32487-0.82351 0.89610  0 492.57 100.99   27.19 492.57 101.36   27.23
  -1   7   1  3345.8   237.7   2-0.23517 0.10771 0.22169 0.47423 0.94633-0.87379  0 197.01  90.93    7.52 196.88  90.99    7.51
  -1   7   1  2288.3   244.3   2 0.06514-0.19264 0.46738 0.22914-0.88165 0.95414  0 455.77 442.30  228.57 456.05 442.43  228.58
   1  -7  -1  1994.2   168.2   1-0.69897 0.82650-0.43186-0.26349-0.57003 0.49746  0 152.76 377.74   79.66 152.96 377.46   79.62
   1  -7  -1  2488.4   296.2   2-0.16893 0.29639-0.48387-0.21205 0.85868-0.93123  0 413.62 462.00   49.22 413.97 461.93   49.35
   1  -7  -1  3041.6   227.6   2 0.12994-0.00242-0.23961-0.45664-0.96213 0.88965  0 169.70 116.61  186.96 169.61 116.70  186.72
   1  -7   1  2370.9   184.1   1-0.69144 0.81898-0.54005-0.15530-0.47984 0.55241  0 138.48 353.39   87.66 138.57 353.26   87.70
   1  -7   1  2883.8   306.3   2-0.19502 0.32248-0.30185-0.39407 0.93320-0.86065  0 405.13 464.64   37.75 405.37 464.69   37.97
   1  -7   1  2992.7   229.7   2 0.13178-0.00426-0.43231-0.26394-0.89204 0.96453  0 164.95 122.12  174.96 164.87 122.13  174.94
   1   7  -1  3037.1   308.7   2 0.09562 0.03188 0.24581 0.45071-0.96459 0.89210  0 379.18 471.18  214.72 379.11 470.95  214.88
   1   7  -1  2517.1   208.4   2-0.23607 0.36353 0.49390 0.20203 0.83686-0.90941  0 151.71 139.54  350.30 151.72 139.69  350.33
   1   7   1  3105.4   219.7   2-0.23715 0.36462 0.31090 0.38502 0.92038-0.84783  0 147.61 145.55    1.87 147.62 145.67    2.18
   1   7   1  2674.0   296.9   2 0.06879 0.05871 0.44408 0.25244-0.89334 0.96583  0 370.10 472.40  227.34 370.08 472.36  227.07
  -1  -7  -2 14868.9   360.0   1-0.64868 0.52115-0.09802-0.59734-0.75472 0.60959  0 126.73 336.70   57.48 126.86 336.42   57.43
  -1  -7  -2 22217.9   501.5   2-0.16282 0.03534-0.51965-0.17656 0.83872-0.98366  0 501.72 416.00   51.75 501.88 415.99   51.75
  -1  -7  -2 21963.8   448.6   2 0.12876-0.25628-0.19608-0.50018-0.97210 0.82713  0 230.08  64.06  189.23 230.00  64.25  189.29
  -1  -7   2 17080.6   398.2   1-0.69759 0.57005-0.37412-0.32123-0.61107 0.75621  0 114.63 290.97   75.57 114.48 290.85   75.56
  -1  -7   2 22342.3   514.1   2-0.21308 0.08562-0.13395-0.56197 0.96781-0.82271  0 487.06 428.89   27.93 487.20 428.84   28.09
  -1  -7   2 22194.0   458.9   2 0.12810-0.25562-0.56769-0.12857-0.81322 0.95819  0 216.32  72.06  166.00 216.25  72.10  165.93
  -1   7  -2 19856.1   493.0   2 0.10174-0.22924 0.19041 0.50611-0.97642 0.83144  0 471.68 440.18  211.57 471.88 440.11  211.61
  -1   7  -2 19977.2   437.6   2-0.23574 0.10828 0.50475 0.19118 0.83045-0.97556  0 203.45  80.62  349.66 203.43  80.85  349.61
  -1   7   2 19124.9   395.6   1-0.35210 0.22459 0.47786 0.21712-0.80478 0.94996  0 484.24  85.15   19.49 484.31  85.51   19.55
  -1   7   2 24333.9   479.6   2-0.23167 0.10421 0.13136 0.56456 0.96388-0.81879  0 191.51  89.73   12.86 191.46  89.88   12.79
  -1   7   2 18598.4   486.0   2 0.04971-0.17720 0.55671 0.13981-0.82922 0.97419  0 455.63 450.07  234.56 455.94 450.00  234.59
   1  -7  -2 16328.8   335.6   1-0.69764 0.82517-0.37506-0.32030-0.61044 0.46530  0 157.65 391.13   75.65 157.84 390.92   75.62
   1  -7  -2 21604.2   504.4   2-0.15363 0.28112-0.57090-0.12531 0.80652-0.95146  0 421.22 465.83   55.03 421.44 465.68   55.26
   1  -7  -2 21791.7   456.2   2 0.12653 0.00100-0.14748-0.54878-0.98094 0.83597  0 169.40 110.77  192.06 169.41 110.85  192.12
   1  -7   2 16626.8   377.4   1-0.68235 0.80989-0.58981-0.10554-0.43188 0.57702  0 129.02 342.23   91.75 129.10 342.09   91.70
   1  -7   2 21376.4   498.4   2-0.20521 0.33267-0.21319-0.48273 0.95522-0.81012  0 403.82 471.37   32.74 404.06 471.25   32.72
   1  -7   2 21054.3   445.7   2 0.12984-0.00232-0.52611-0.17014-0.84045 0.98542  0 159.86 121.82  168.99 159.85 121.83  168.79
   1   7  -2 20716.5   486.3   2 0.10572 0.02178 0.15109 0.54543-0.98285 0.83788  0 385.99 475.56  209.16 386.35 475.43  209.32
   1   7  -2 19182.5   420.3   2-0.23258 0.36002 0.58011 0.11621 0.78063-0.92568  0 150.96 133.55  344.48 150.93 133.69  344.45
   1   7   2 21865.5   438.1   2-0.23513 0.36260 0.22046 0.47546 0.94663-0.80153  0 142.84 145.83    7.57 142.83 145.90    7.58
   1   7   2 19323.6   467.5   2 0.05268 0.07482 0.54019 0.15633-0.83989 0.98487  0 368.14 478.56  233.43 368.14 478.32  233.45
  -1  -7  -3 631.838 135.688   1-0.62905 0.50152-0.03494-0.66041-0.77658 0.55887  0 125.15 349.23   53.42 125.27 349.22   53.45
  -1  -7  -3 605.225 145.910   2 0.12467-0.25220-0.10857-0.58768-0.98624 0.76878  0 229.86  55.79  194.26 229.67  55.85  194.38
  -1  -7   3 706.595 136.892   1-0.69887 0.57134-0.44146-0.25389-0.56275 0.78046  0 106.60 279.88   80.27 106.74 279.92   80.31
  -1  -7   3 588.697 213.271   2-0.22050 0.09304-0.04861-0.64731 0.97417-0.75653  0 490.47 440.36   23.51 490.74 440.52   23.16
  -1  -7   3 725.141 158.198   2 0.12306-0.25058-0.65041-0.04585-0.74955 0.96701  0 208.91  68.05  159.60 208.91  68.03  159.94
  -1   7  -3 587.189 221.012   2 0.10992-0.23742 0.10542 0.59109-0.98833 0.77087  0 482.87 445.94  206.46 482.89 446.19  206.67
  -1   7  -3 606.745 152.237   2-0.23189 0.10444 0.59244 0.10387 0.77152-0.98909  0 202.08  72.21  343.58 202.32  72.59  343.57
  -1   7   3 406.099 175.171   1-0.25978 0.13227 0.58611 0.10887-0.76745 0.98522  0 478.50  68.01   11.38 478.78  67.77   11.12
  -1   7   3 590.065 153.529   2-0.22727 0.09981 0.04785 0.64807 0.97265-0.75501  0 184.26  86.65   17.71 184.34  86.61   17.60
  -1   7   3 393.368 219.230   2 0.03301-0.16050 0.63968 0.05684-0.76793 0.98540  0 457.81 460.87  240.50 458.17 461.09  240.58
   1  -7  -3 469.558 113.083   1-0.69284 0.82038-0.31788-0.37747-0.64724 0.42953  0 161.00 405.95   71.68 161.09 405.61   71.72
   1  -7  -3 484.942 216.034   2-0.13726 0.26475-0.65178-0.04443 0.74589-0.96329  0 431.16 472.91   61.46 431.38 473.05   61.13
   1  -7  -3 675.274 150.142   2 0.12217 0.00535-0.06201-0.63425-0.99057 0.77311  0 167.60 102.98  197.42 167.49 102.84  197.05
   1  -7   3 547.264 132.856   1-0.67026 0.79779-0.63608-0.05928-0.38230 0.60001  0 118.35 331.04   95.55 118.05 331.34   95.65
   1  -7   3 638.815 211.320   2-0.21345 0.34091-0.12994-0.56598 0.96827-0.75063  0 404.85 481.69   27.57 404.65 481.45   27.86
   1  -7   3 510.872 145.219   2 0.12555 0.00197-0.61412-0.08214-0.77916 0.99662  0 152.88 119.59  162.64 152.99 119.58  162.62
   1   7  -3 350.231 202.737   2 0.11347 0.01403 0.06354 0.63298-0.99151 0.77404  0 395.44 483.05  204.75 395.62 483.48  204.24
   1   7  -3 542.737 139.258   2-0.22719 0.35463 0.65934 0.03698 0.71670-0.93427  0 148.28 125.64  338.58 148.40 125.70  338.59
   1   7   3 582.774 131.036   2-0.23184 0.35930 0.13484 0.56108 0.96336-0.74572  0 136.15 144.26   12.49 136.10 144.31   12.59
   1   7   3 507.667 196.034   2 0.03518 0.09232 0.62972 0.06680-0.77602 0.99349  0 367.63 488.21  239.55 367.68 487.82  239.84
  -1  -7  -4  79.497 108.651   1-0.60851 0.48098 0.02277-0.71813-0.79322 0.50294  0 121.76 363.01   49.56 121.69 363.04   49.82
  -1  -7  -4  93.858 137.139   2 0.12007-0.24760-0.02893-0.66733-0.99234 0.70240  0 227.89  44.56  199.08 227.93  44.64  198.95
  -1  -7   4 -78.304  93.899   1-0.69549 0.56795-0.50555-0.18980-0.51060 0.80088  0  96.68 268.98   85.48  97.07 268.80   85.04
  -1  -7   4 182.381 223.213   2-0.22597 0.09850 0.02730-0.72322 0.97375-0.68356  0 497.49 456.48   19.09 497.25 456.13   18.79
  -1  -7   4  98.977 137.206   2 0.11621-0.24373-0.72442 0.02817-0.67949 0.96943  0 199.94  61.60  153.94 199.93  61.59  154.08
  -1   7  -4  -1.789 218.623   2 0.11606-0.24356 0.02822 0.66830-0.99284 0.70289  0 497.26 455.73  202.07 497.25 455.93  202.22
  -1   7  -4 -28.859 133.010   2-0.22605 0.09860 0.67249 0.02383 0.70475-0.99484  0 199.49  61.71  337.52 199.72  61.74  337.57
  -1   7   4  60.841 174.335   1-0.15409 0.02659 0.68789 0.00709-0.70927 0.99962  0 476.16  47.25    2.74 475.94  47.45    2.07
  -1   7   4 162.015 141.881   2-0.22220 0.09474-0.02697 0.72289 0.97463-0.68443  0 175.57  81.34   21.50 175.43  81.15   21.91
  -1   7   4 -45.639 228.451   2 0.01561-0.14311 0.71437-0.01785-0.69960 0.98955  0 463.18 475.92  246.40 462.90 476.07  246.49
   1  -7  -4  17.174 100.105   1-0.68555 0.81309-0.26217-0.43318-0.67918 0.38890  0 162.60 421.65   67.82 162.69 421.91   68.01
   1  -7  -4  36.858 223.531   2-0.12030 0.24779-0.72466 0.02845 0.67852-0.96840  0 444.43 484.66   67.11 444.01 484.19   66.91
   1  -7  -4 234.155 144.334   2 0.11702 0.01048 0.01452-0.71104-0.99302 0.70307  0 163.76  92.39  201.50 163.76  92.51  201.43
   1  -7   4  81.806 108.873   1-0.65539 0.78306-0.67853-0.01713-0.33175 0.62171  0 105.07 321.05   99.62 105.38 320.84   99.52
   1  -7   4 -94.803 212.632   2-0.22005 0.34752-0.05430-0.64162 0.97398-0.68378  0 407.26 495.56   23.44 407.12 495.55   23.49
   1  -7   4 137.175 132.678   2 0.11930 0.00822-0.69400-0.00225-0.71002 0.99996  0 144.16 115.21  156.52 144.19 115.40  156.55
   1   7  -4 -86.862 220.151   2 0.11914 0.00836-0.01480 0.71132-0.99277 0.70282  0 407.36 496.00  199.55 407.20 495.46  199.75
   1   7  -4 100.208 119.979   2-0.22029 0.34773 0.73007-0.03376 0.64689-0.93699  0 144.36 115.79  333.13 144.07 115.63  332.86
   1   7   4 103.892 120.177   2-0.22767 0.35513 0.05648 0.63944 0.97210-0.68191  0 127.22 140.85   17.08 127.35 140.93   17.11
   1   7   4 159.917 209.024   2 0.01664 0.11086 0.71021-0.01369-0.70379 0.99374  2 368.71 501.19  246.13 368.72 501.25  246.15
  -1  -7  -5  6043.0   270.1   1-0.58796 0.46046 0.07454-0.76952-0.80544 0.44251  0 116.08 378.49   46.61 116.10 378.23   46.56
  -1  -7  -5  6774.5   329.4   2 0.11507-0.24256 0.04117-0.73769-0.99250 0.63007  0 224.80  30.15  203.03 224.60  30.24  202.96
  -1  -7   5  5493.2   279.7   1-0.68726 0.55973-0.56574-0.12961-0.45564 0.81848  0  85.55 257.41   89.92  85.38 257.31   89.74
  -1  -7   5  6631.5   329.2   2 0.10778-0.23529-0.78859 0.09184-0.60540 0.96758  0 189.23  52.66  148.42 189.06  52.65  148.41
  -1   7  -5  6740.0   329.3   2-0.21868 0.09124 0.74339-0.04708 0.63210-0.99472  0 195.78  48.06  331.69 195.54  48.10  331.72
  -1   7   5  7181.4   335.2   2-0.21692 0.08946-0.09212 0.78804 0.97183-0.60909  0 164.63  73.25   25.62 164.62  73.45   25.67
  -1   7   5  6220.8   465.1   2-0.00199-0.12547 0.77968-0.08310-0.62617 0.98861  0 470.11 495.35  251.99 470.34 495.48  252.21
   1  -7  -5  5297.9   231.5   1-0.67606 0.80359-0.20939-0.48596-0.70647 0.34363  0 162.51 440.44   64.65 162.61 440.20   64.56
   1  -7  -5  6897.2   337.2   1 0.04227 0.08544-0.77483 0.07892 0.63075-0.99321  0 478.60 491.99  172.78 478.50 491.79  172.73
   1  -7  -5  6406.1   449.7   2-0.10299 0.23047-0.78850 0.09229 0.60635-0.96869  0 459.69 499.60   72.46 459.86 499.73   72.54
   1  -7  -5  7073.1   333.1   2 0.11197 0.01553 0.08161-0.77813-0.99036 0.62792  0 158.51  79.59  205.07 158.34  79.71  205.29
   1  -7   5  5705.6   286.0   1-0.63789 0.76556-0.71720 0.02154-0.28056 0.64301  0  91.01 310.39  103.32  90.93 310.31  103.33
   1  -7   5  6532.4   316.1   2 0.11145 0.01608-0.76433 0.06807-0.63512 0.99755  0 133.41 109.25  150.63 133.35 109.25  150.66
   1   7  -5  5529.1   305.6   2-0.21209 0.33953 0.79153-0.09522 0.57314-0.93576  0 137.99 103.11  327.35 137.85 103.33  327.33
   1   7   5  6489.5   307.9   2-0.22323 0.35069-0.01298 0.70891 0.97468-0.61194  0 116.73 135.78   20.98 116.40 135.78   21.11
  -1  -7  -6  8202.1   324.1   1-0.56894 0.44144 0.11870-0.81368-0.81377 0.37824  0 108.35 395.53   43.96 108.30 395.18   43.76
  -1  -7  -6  8713.6   375.9   2 0.11021-0.23771 0.10149-0.79801-0.98871 0.55379  0 220.11  12.27  206.47 219.90  12.43  206.43
  -1  -7   6  8095.4   331.3   1-0.67449 0.54696-0.62151-0.07384-0.39849 0.83390  0  71.59 245.29   94.38  71.44 245.21   94.38
  -1  -7   6  8981.6   390.3   2 0.09848-0.22599-0.84324 0.14649-0.52844 0.96305  0 176.40  41.23  143.06 176.28  41.19  142.97
  -1   7  -6  8458.1   386.5   2-0.20998 0.08253 0.80453-0.10822 0.55555-0.99070  0 189.81  31.01  326.00 189.66  31.29  326.07
  -1   7   6  9832.7   405.9   2-0.21192 0.08445-0.14734 0.84326 0.96612-0.53083  0 151.72  63.30   28.84 151.66  63.38   28.86
   1  -7  -6  7020.6   261.7   1-0.66535 0.79288-0.16131-0.53404-0.72889 0.29348  0 160.72 461.42   61.50 160.81 461.14   61.46
   1  -7  -6  9905.9   393.4   2 0.10691 0.02059 0.13864-0.83516-0.98456 0.54963  0 151.12  64.10  208.60 151.00  64.17  208.59
   1  -7   6  7785.8   323.2   1-0.61793 0.74559-0.75213 0.05647-0.22907 0.66401  0  74.39 299.72  107.06  74.38 299.63  107.08
   1  -7   6  8914.1   372.1   2 0.10208 0.02543-0.82428 0.12754-0.55690 0.99151  0 120.55 101.17  145.01 120.13 101.10  144.94
   1   7  -6  8347.3   370.9   2-0.20271 0.33015 0.84361-0.14730 0.49722-0.93236  0 129.60  88.35  322.27 129.59  88.55  322.02
   1   7   6  9891.5   362.4   2-0.21854 0.34601-0.07287 0.76879 0.97310-0.53781  0 103.46 128.83   24.55 103.07 128.83   24.56
  -1  -7  -7 827.106 170.948   1-0.55188 0.42437 0.15534-0.85032-0.81933 0.31121  0  98.05 414.72   41.38  98.14 414.47   41.43
  -1  -7   7 758.008 172.595   1-0.65800 0.53047-0.67219-0.02316-0.33941 0.84739  0  55.22 232.08   98.67  54.93 232.22   98.94
  -1  -7   7  1158.7   226.8   2 0.08815-0.21566-0.88845 0.19171-0.45042 0.95746  0 161.55  27.44  137.64 161.24  26.90  137.77
  -1   7  -7 995.662 220.868   2-0.19999 0.07255 0.85594-0.15962 0.47684-0.98451  0 182.29  10.75  321.07 181.94  10.76  320.63
  -1   7   7  1299.0   233.2   2-0.20736 0.07989-0.19291 0.88883 0.95906-0.45122  0 136.30  50.76   31.49 136.26  50.77   31.53
   1  -7  -7 942.425 150.918   1-0.65474 0.78227-0.11980-0.57555-0.74630 0.23832  0 157.13 485.15   58.59 157.33 485.56   58.81
   1  -7  -7 926.679 217.102   2 0.10221 0.02529 0.18588-0.88240-0.97724 0.46983  0 141.76  45.46  211.47 141.51  45.47  211.34
   1  -7   7 763.570 170.074   1-0.59570 0.72336-0.78336 0.08770-0.17744 0.68487  0  55.80 288.39  110.66  55.41 288.57  110.76
   1  -7   7 981.139 201.569   2 0.09169 0.03582-0.87444 0.17769-0.47639 0.98343  0 104.37  90.84  139.45 104.36  90.82  139.48
   1   7  -7  1110.2   217.0   2-0.19240 0.31985 0.88667-0.19035 0.42048-0.92815  0 119.27  71.07  317.04 119.02  70.89  316.93
   1   7   7  1017.8   195.5   2-0.21409 0.34155-0.12300 0.81892 0.96904-0.46120  0  87.26 119.87   27.46  86.99 119.99   27.45
  -1  -7  -8  7865.2   341.7   1-0.53750 0.40999 0.18437-0.87935-0.82286 0.24216  0  85.35 437.13   39.61  85.30 436.88   39.56
  -1  -7   8  8467.7   378.4   1-0.63767 0.51001-0.71763 0.02197-0.27996 0.85989  0  35.45 217.90  103.40  35.53 217.94  103.38
  -1  -7   8  8930.3   455.6   2 0.07713-0.20465-0.92486 0.22811-0.37241 0.95188  2 143.56   9.41  133.07 143.37   9.24  132.83
  -1   7   8 10017.4   463.9   2-0.20350 0.07604-0.22942 0.92534 0.95182-0.37143  0 118.22  35.10   33.62 117.92  35.16   33.66
   1  -7  -8  9533.3   453.9   2 0.09813 0.02937 0.22393-0.92045-0.96965 0.38975  0 129.62  22.85  213.59 129.49  22.94  213.58
   1  -7   8  7978.9   365.8   1-0.57131 0.69898-0.81103 0.11536-0.12585 0.70578  0  33.57 276.85  114.41  33.49 276.83  114.40
   1  -7   8  9061.2   427.3   2 0.08040 0.04711-0.91504 0.21829-0.39527 0.97475  0  85.63  78.12  133.99  85.38  78.11  134.27
   1   7  -8  8461.2   439.0   2-0.18167 0.30912 0.92129-0.22497 0.34384-0.92403  0 106.14  49.83  312.32 105.75  49.87  312.05
   1   7   8 10417.6   434.4   2-0.21033 0.33779-0.16365 0.85957 0.96384-0.38345  0  68.09 109.11   29.90  67.61 109.08   29.81
  -1  -8   0  6510.3   298.2   1-0.69045 0.56292-0.29677-0.49791-0.65970 0.65970  0  91.44 329.48   70.31  91.48 329.30   70.30
  -1  -8   0  7963.0   358.8   2 0.13181-0.25934-0.42920-0.36652-0.89354 0.89354  0 205.58  35.28  175.28 205.58  35.44  175.14
  -1   8   0  7233.8   485.1   2 0.07253-0.20002 0.41984 0.37618-0.90470 0.90470  0 495.65 491.80  225.50 495.72 491.79  225.52
  -1   8   0  7624.4   351.6   2-0.23785 0.11039 0.36977 0.42558 0.89816-0.89816  0 174.98  57.79  358.26 174.95  57.96  358.29
   1  -8   0  5942.7   286.2   1-0.69412 0.82165-0.51897-0.27572-0.49887 0.49887  0 115.37 386.09   85.79 115.25 385.85   86.07
   1  -8   0  7810.4   347.5   2 0.13207-0.00455-0.38691-0.40881-0.91261 0.91261  0 143.78  88.86  177.98 143.73  88.88  177.80
   1   8   0  7118.8   318.7   2-0.23718 0.36463 0.44590 0.34945 0.86309-0.86309  0 122.41 117.65  353.50 122.26 117.79  353.48
  -1  -8  -1  5838.5   286.2   1-0.68153 0.55400-0.23834-0.55635-0.69189 0.61932  0  94.09 341.98   66.46  94.02 341.79   66.45
  -1  -8  -1  6820.5   338.9   2 0.13183-0.25935-0.34795-0.44777-0.92820 0.85571  0 208.36  31.59  180.33 208.38  31.83  180.21
  -1  -8   1  5844.3   292.2   1-0.69647 0.56894-0.35601-0.43867-0.62304 0.69561  0  86.96 317.51   74.34  86.98 317.33   74.31
  -1  -8   1  6909.1   343.4   2 0.13029-0.25781-0.50973-0.28599-0.85041 0.92290  0 201.18  36.30  169.83 201.16  36.37  169.89
  -1   8  -1  6119.4   470.8   2 0.08413-0.21163 0.33969 0.45633-0.93677 0.86428  0 501.69 491.20  220.49 501.95 491.25  220.53
  -1   8  -1  6543.5   342.4   2-0.23708 0.10962 0.45167 0.34368 0.86011-0.93267  0 177.15  53.88  352.98 177.20  54.16  353.11
  -1   8   1  6460.3   339.9   2-0.23688 0.10942 0.28861 0.50673 0.92768-0.85513  0 170.91  59.07    3.50 170.98  59.26    3.52
  -1   8   1  6496.5   479.0   2 0.05980-0.18730 0.49979 0.29624-0.86408 0.93657  0 492.45 496.25  230.65 492.63 496.33  230.71
   1  -8  -1  5073.4   256.3   1-0.69776 0.82529-0.47381-0.32088-0.53725 0.46468  0 121.95 399.76   82.70 121.93 399.53   82.66
   1  -8  -1  6353.9   334.0   2 0.13130-0.00377-0.30440-0.49133-0.94345 0.87097  0 145.52  84.85  183.01 145.34  84.83  182.86
   1  -8   1  5080.5   269.0   1-0.68773 0.81526-0.56310-0.23159-0.45820 0.53077  0 107.07 373.37   89.55 106.99 373.14   89.52
   1  -8   1  6200.6   318.2   2 0.13121-0.00369-0.46987-0.32585-0.87293 0.94541  0 140.26  90.81  172.56 140.25  90.79  172.52
   1   8  -1  6027.1   311.7   2-0.23525 0.36270 0.52370 0.27209 0.81878-0.89130  0 123.64 113.31  348.40 123.34 113.49  348.37
   1   8   1  6323.8   307.8   2-0.23785 0.36530 0.36728 0.42807 0.89918-0.82663  0 119.38 120.02  358.46 119.12 120.12  358.45
  -1  -8  -2  72.004 124.394   1-0.67018 0.54265-0.18186-0.61283-0.71957 0.57443  0  94.70 354.76   62.69  94.65 355.01   62.79
  -1  -8  -2 -10.974 149.423   2 0.13063-0.25815-0.26833-0.52739-0.95443 0.80946  0 209.59  25.33  184.90 209.67  25.46  185.02
  -1  -8   2   3.313 132.081   1-0.69894 0.57141-0.41504-0.37965-0.58244 0.72757  0  80.75 305.63   78.49  80.51 305.65   78.42
  -1  -8   2 -79.196 152.721   2 0.12703-0.25455-0.58728-0.20845-0.79936 0.94433  0 195.04  34.37  164.58 195.11  34.73  164.55
  -1   8  -2 106.562 162.696   2-0.23494 0.10749 0.53197 0.26381 0.81352-0.95857  0 177.60  47.96  347.54 177.62  47.81  347.81
  -1   8   2  48.934 152.992   2-0.23481 0.10735 0.21036 0.58498 0.94901-0.80391  0 165.12  57.84    7.94 165.26  58.29    8.17
   1  -8  -2-109.532 120.272   1-0.69898 0.82652-0.42843-0.36626-0.57260 0.42746  0 127.23 413.93   78.92 127.09 414.48   79.37
   1  -8  -2 -85.707 149.999   2 0.12974-0.00222-0.22454-0.57118-0.96579 0.82082  0 145.20  78.52  187.59 145.16  78.56  187.62
   1  -8   2 -42.970 132.119   1-0.67870 0.80623-0.60562-0.18907-0.41544 0.56058  0  97.09 361.37   93.44  97.09 361.17   93.03
   1  -8   2  83.992 158.988   2 0.12885-0.00133-0.55087-0.24486-0.82459 0.96956  0 134.67  90.57  167.57 134.85  90.57  167.10
   1   8  -2 -59.571 136.922   2-0.23162 0.35906 0.59823 0.19755 0.76712-0.91217  0 122.55 107.03  343.11 122.57 107.17  343.15
   1   8   2 -16.701 140.027   2-0.23677 0.36423 0.28989 0.50545 0.92731-0.78221  0 113.94 120.47    3.48 113.92 120.42    3.44
  -1  -8  -3  3405.4   256.8   1-0.65706 0.52953-0.12846-0.66623-0.74281 0.52511  0  93.36 369.38   59.38  93.27 369.27   59.36
  -1  -8  -3  4493.1   317.9   2 0.12850-0.25602-0.19252-0.60320-0.97284 0.75539  0 209.40  15.93  189.49 209.42  16.13  189.50
  -1  -8   3  3772.7   271.6   1-0.69781 0.57028-0.47281-0.32188-0.53806 0.75576  0  72.24 294.11   82.59  71.98 294.04   82.59
  -1  -8   3  4633.0   339.5   2 0.12236-0.24988-0.65997-0.13575-0.74126 0.95871  0 187.28  30.36  159.36 187.37  30.50  159.21
  -1   8  -3  3897.5   317.9   2-0.23099 0.10355 0.60843 0.18736 0.75925-0.97682  0 176.53  38.56  342.45 176.49  38.82  342.41
  -1   8   3  4359.7   320.1   2-0.23193 0.10447 0.13696 0.65838 0.96304-0.74540  0 157.67  54.78   12.45 157.69  54.98   12.47
   1  -8  -3  3750.2   249.8   1-0.69807 0.82560-0.38383-0.41085-0.60446 0.38675  0 130.33 431.12   76.28 130.64 431.05   76.23
   1  -8  -3  4268.7   325.8   2 0.12662 0.00090-0.14951-0.64621-0.98062 0.76316  0 143.16  69.86  192.22 143.12  69.93  192.00
   1  -8   3  3436.3   263.3   1-0.66721 0.79474-0.64604-0.14865-0.37076 0.58847  0  85.57 349.99   96.55  85.42 349.76   96.54
   1  -8   3  3732.2   300.9   2 0.12466 0.00286-0.62779-0.16793-0.76834 0.98579  0 127.49  88.13  161.60 127.47  88.30  161.62
   1   8  -3  4428.3   308.8   2-0.22644 0.35389 0.66793 0.12785 0.70894-0.92651  0 120.15  98.62  337.99 119.78  98.70  337.93
   1   8   3  4763.4   305.2   2-0.23499 0.36246 0.21599 0.57935 0.94770-0.73005  0 106.93 118.98    7.67 106.67 118.97    7.84
  -1  -8  -4  81.736 139.993   1-0.64312 0.51559-0.07917-0.71552-0.76166 0.47139  0  89.29 385.30   56.59  89.81 384.84   56.24
  -1  -8   4 -20.516 131.061   1-0.69297 0.56544-0.52850-0.26618-0.49038 0.78066  0  62.01 282.60   86.58  61.35 282.33   86.80
  -1  -8   4 235.092 190.569   2 0.11600-0.24352-0.72635-0.06937-0.67747 0.96741  0 177.62  23.67  153.99 177.77  23.61  153.92
  -1   8  -4 147.349 180.587   2-0.22546 0.09801 0.67941 0.11637 0.69826-0.98836  0 173.91  26.94  337.05 173.57  26.89  337.03
  -1   8   4 -87.053 177.937   2-0.22846 0.10100 0.06991 0.72543 0.97104-0.68085  0 148.38  49.34   16.61 148.12  49.31   16.34
   1  -8  -4  51.736 131.455   1-0.69529 0.82282-0.34109-0.45360-0.63264 0.34237  0 132.54 449.25   72.98 132.61 449.71   73.29
   1  -8  -4  88.960 172.088   2 0.12320 0.00432-0.08076-0.71496-0.98909 0.69915  0 139.06  58.72  196.09 139.15  58.74  195.98
   1  -8   4 107.754 144.053   1-0.65316 0.78083-0.68400-0.11104-0.32484 0.61480  0  71.60 338.82  100.09  71.82 338.75  100.04
   1  -8   4 124.092 169.710   2 0.11884 0.00868-0.69886-0.09686-0.70532 0.99526  0 117.49  83.67  156.49 117.92  83.91  156.16
   1   8  -4 226.810 170.592   2-0.22012 0.34757 0.73148 0.06430 0.64535-0.93545  0 115.40  88.00  332.63 114.98  87.98  332.74
   1   8   4  90.278 155.203   2-0.23240 0.35986 0.14729 0.64805 0.96140-0.67121  0  97.05 115.50   12.09  97.15 115.64   11.87
  -1  -8  -5 216.410 159.472   1-0.62903 0.50150-0.03488-0.75981-0.77660 0.41376  0  83.91 402.22   53.45  84.17 402.20   53.45
  -1  -8   5 226.928 157.527   1-0.68412 0.55659-0.58159-0.21310-0.44015 0.80299  0  48.24 270.40   90.98  48.35 270.26   91.03
  -1  -8   5 407.988 207.242   2 0.10827-0.23578-0.78530-0.01098-0.60957 0.97174  0 166.37  14.33  149.04 166.03  13.81  148.72
  -1   8  -5  81.668 194.773   2-0.21865 0.09121 0.74361 0.05217 0.63184-0.99446  0 169.14  12.25  331.43 168.85  11.72  331.70
  -1   8   5 351.582 216.266   2-0.22484 0.09738 0.01019 0.78515 0.97434-0.61160  0 136.71  41.28   20.09 136.30  41.07   19.77
   1  -8  -5 285.369 147.705   1-0.69092 0.81845-0.30123-0.49346-0.65718 0.29434  0 133.05 470.85   70.53 132.98 471.03   70.60
   1  -8  -5 612.210 213.937   2 0.11947 0.00803-0.01963-0.77639-0.99264 0.63021  0 133.25  44.84  199.50 132.99  44.62  199.47
   1  -8   5 582.934 173.714   1-0.63691 0.76457-0.71922-0.07582-0.27761 0.64006  0  56.36 327.75  103.48  56.14 327.79  103.55
   1  -8   5 373.528 192.954   2 0.11165 0.01588-0.76282-0.03291-0.63690 0.99933  0 106.47  77.40  150.55 106.05  77.32  150.79
   1   8  -5  28.984 180.228   2-0.21261 0.34006 0.78803 0.00775 0.57775-0.94037  0 107.73  74.72  327.52 108.00  74.72  327.67
   1   8   5 503.304 181.133   2-0.22925 0.35671 0.08511 0.71023 0.96964-0.60690  0  85.12 110.47   15.43  85.13 110.38   15.46
  -1  -8  -6 898.157 200.463   1-0.61560 0.48806 0.00371-0.79840-0.78805 0.35264  0  76.08 421.93   51.34  76.10 421.89   51.02
  -1  -8   6 813.319 186.266   1-0.67168 0.54415-0.63140-0.16329-0.38754 0.82295  0  32.50 257.82   95.24  32.67 257.56   95.24
  -1   8   6  1013.7   244.7   2-0.22104 0.09358-0.04170 0.83704 0.97437-0.53908  0 122.41  30.69   23.04 122.01  30.16   22.77
   1  -8  -6 900.823 173.999   1-0.68615 0.81368-0.26599-0.52869-0.67709 0.24168  0 131.87 496.03   68.32 131.79 495.89   68.26
   1  -8  -6  1045.4   252.4   2 0.11563 0.01187 0.03388-0.82990-0.99271 0.55779  0 124.59  27.02  202.67 124.72  27.27  202.54
   1  -8   6 871.413 198.339   1-0.61820 0.74587-0.75169-0.04335-0.22974 0.66468  0  38.13 316.73  106.92  37.92 316.74  107.03
   1  -8   6  1298.5   241.4   2 0.10306 0.02445-0.81874 0.02246-0.56484 0.99945  0  91.59  68.68  145.44  91.37  68.41  145.50
   1   8  -6 938.001 225.952   2-0.20402 0.33146 0.83720-0.04142 0.50742-0.94256  0  99.12  58.84  322.63  98.59  58.61  322.71
   1   8   6 884.651 211.268   2-0.22617 0.35363 0.03039 0.76495 0.97361-0.53832  0  70.53 103.32   18.43  70.33 103.18   18.61
  -1  -9   0-113.939 166.725   1-0.69652 0.56899-0.35675-0.53727-0.62256 0.62256  0  51.55 350.00   74.50  51.90 349.76   74.36
  -1   9   0-279.485 193.049   2-0.23754 0.11008 0.42263 0.47214 0.87462-0.87462  0 143.24  18.23  354.68 143.34  18.40  354.97
   1  -9   0-248.317 161.989   1-0.68919 0.81672-0.55442-0.33960-0.46652 0.46652  0  77.68 412.94   88.89  77.93 412.62   88.83
   1  -9   0 -42.578 195.948   2 0.13172-0.00419-0.43791-0.45727-0.88932 0.88932  0 113.06  50.29  174.59 113.23  50.32  174.59
   1   9   0-166.458 175.757   2-0.23614 0.36359 0.49010 0.40467 0.83907-0.83907  0  86.51  86.45  350.39  87.05  86.81  350.59
  -1  -9  -1 366.690 178.305   1-0.69166 0.56412-0.30734-0.58669-0.65357 0.58100  0  54.99 363.81   71.61  54.85 363.66   71.01
  -1  -9   1 244.173 164.901   1-0.69880 0.57127-0.40711-0.48691-0.58816 0.66073  0  47.21 336.32   77.57  46.79 336.58   77.86
  -1   9  -1 418.801 221.150   2-0.23608 0.10862 0.49365 0.40112 0.83701-0.90956  0 145.70  14.15  350.45 145.69  14.00  350.35
   1  -9  -1  29.837 175.643   1-0.69428 0.82181-0.51749-0.37653-0.50018 0.42761  0  85.04 428.21   85.57  85.03 428.06   85.95
   1  -9  -1 116.585 202.920   2 0.13193-0.00441-0.36623-0.52896-0.92112 0.84864  0 114.58  45.27  178.97 114.95  45.77  179.09
   1  -9   1 168.580 177.887   1-0.68203 0.80956-0.59128-0.30274-0.43038 0.50294  0  68.59 399.04   92.06  69.08 398.49   91.82
   1  -9   1 295.657 201.325   2 0.13028-0.00276-0.50990-0.38528-0.85031 0.92279  0 109.40  52.43  169.87 109.39  52.47  169.88
   1   9  -1 215.625 203.589   2-0.23384 0.36129 0.55746 0.33780 0.79659-0.86911  0  87.83  81.89  346.59  88.14  82.06  346.05
   1   9   1-118.048 178.710   2-0.23754 0.36500 0.42231 0.47246 0.87478-0.80222  0  83.49  89.50  354.42  83.60  89.45  354.99
  -1  -9  -2  1411.6   218.8   1-0.68516 0.55763-0.25967-0.63435-0.68054 0.53540  0  55.56 378.83   67.59  55.62 378.60   67.85
  -1  -9   2  1452.3   225.8   1-0.69842 0.57089-0.45759-0.43643-0.55029 0.69543  0  39.14 323.83   81.44  39.42 323.86   81.48
  -1   9   2  1774.7   275.3   2-0.23679 0.10933 0.28381 0.61095 0.92918-0.78409  0 132.97  19.19    4.01 132.79  19.09    3.81
   1  -9  -2  1166.2   209.5   1-0.69734 0.82487-0.48112-0.41291-0.53127 0.38613  0  90.71 444.69   83.01  90.43 445.20   83.21
   1  -9   2  1504.8   230.4   1-0.67281 0.80035-0.62749-0.26654-0.39190 0.53703  0  58.32 385.64   94.75  58.27 385.46   94.90
   1  -9   2  1515.5   257.2   2 0.12738 0.00014-0.58051-0.31468-0.80423 0.94920  0 103.62  52.28  165.04 103.38  52.27  165.03
   1   9  -2  1289.6   241.9   2-0.23002 0.35746 0.62241 0.27285 0.74813-0.89318  0  87.18  74.96  341.32  87.13  75.09  341.40
  -1  -9  -3 579.384 200.281   1-0.67710 0.54957-0.21462-0.67940-0.70390 0.48619  0  54.03 395.14   64.58  54.19 394.91   64.90
  -1  -9   3 387.671 176.515   1-0.69531 0.56778-0.50738-0.38664-0.50902 0.72673  0  29.46 311.38   85.35  29.74 311.34   85.18
  -1   9   3  1273.6   264.4   2-0.23509 0.10763 0.21910 0.67566 0.94696-0.72931  0 124.22  15.20    7.62 124.33  15.43    7.66
   1  -9  -3 710.258 191.859   1-0.69874 0.82627-0.44611-0.44792-0.55925 0.34154  0  94.08 465.16   80.72  94.22 464.54   80.64
   1  -9  -3 834.615 242.228   2 0.12966-0.00214-0.23034-0.66485-0.96443 0.74698  0 111.53  28.19  186.95 112.16  28.85  187.27
   1  -9   3 801.276 211.123   1-0.66156 0.78909-0.66253-0.23150-0.35128 0.56899  0  45.45 373.03   98.34  45.49 373.12   98.04
   1  -9   3  1375.1   259.4   2 0.12323 0.00429-0.64809-0.24709-0.75152 0.96898  0  94.89  49.66  160.33  95.06  49.70  160.11
   1   9  -3 753.664 232.053   2-0.22505 0.35249 0.68385 0.21141 0.69405-0.91162  0  84.69  66.04  337.03  83.76  65.69  336.67
   1   9   3 512.403 206.661   2-0.23679 0.36425 0.29120 0.60356 0.92689-0.70925  0  70.02  88.28    3.42  69.63  88.40    3.37
  -2   0   0 164884.   1115.   1-0.12771-0.12771-0.86662 0.86662 0.48236-0.48236  0 345.67 210.95  158.99 345.72 211.05  158.74
  -2   0   0 162976.    629.   2-0.12749-0.12749-0.69500 0.69500 0.70761-0.70761  0 346.04 211.76   64.37 346.10 211.86   64.49
  -2   0   0 117295.    480.   2-0.12747-0.12747 0.99184-0.99184 0.00318-0.00318  0 359.88 229.61  291.90 359.87 229.73  291.72
  -2   0  -1   4.593  37.043   1-0.24085-0.01448-0.90035 0.90035 0.36243-0.43492  0 358.63 221.17  149.46 358.44 221.01  149.10
  -2   0  -1  12.935   7.806   2 0.13118-0.38623-0.29482 0.29482-0.94650 0.87402  0 360.00 224.05  183.80 359.97 224.05  183.43
  -2   0  -1 1.02280  7.8412   2-0.10904-0.14589 0.98889-0.98889-0.10103 0.02854  0 351.55 213.45  286.69 351.69 213.43  285.65
  -2   0   1  -1.286  24.537   1-0.36834 0.11332 0.45668-0.45668-0.80980 0.88238  0 265.50 204.03   21.54 265.71 204.30   21.10
  -2   0   1  10.128  25.808   1 0.04067-0.29609-0.77592 0.77592 0.62952-0.55703  0 336.00 201.05  172.47 336.07 200.94  172.60
  -2   0   1  -0.373  19.377   2-0.04383-0.21114-0.94276 0.94276 0.33057-0.25810  0 332.55 199.27   90.86 332.38 199.36   91.00
  -2   0   1  -0.961  19.185   2-0.13100-0.12393 0.99110-0.99110 0.02380 0.04869  0 368.79 246.39  292.90 368.70 246.49  292.92
   2   0  -1   4.009  18.764   2 0.06174 0.19328-0.96150 0.96150-0.26778 0.19534  0 266.76 312.41  126.47 266.55 312.34  126.43
   2   0  -1  -4.086  12.965   2-0.01903 0.27396 0.83399-0.83399-0.55145 0.47896  0 237.77 270.57  257.52 237.93 270.45  257.59
   2   0   1 -21.091  24.687   1-0.02538 0.28080-0.81732 0.81732 0.57563-0.50313  0 246.66 291.66  167.55 246.65 291.68  167.17
  -2   0  -2  4320.5   122.7   1-0.32046 0.06513-0.90884 0.90884 0.26705-0.41203  0 373.33 230.88  142.09 373.33 230.99  141.96
  -2   0  -2  4142.2    69.1   2 0.08844-0.34347-0.88731 0.88731-0.45261 0.30774  0 374.91 236.76  137.97 374.96 236.81  137.92
  -2   0  -2  3785.4    67.2   2-0.10794-0.14699 0.98840-0.98840-0.10682-0.03816  0 343.48 196.48  285.19 343.50 196.61  285.31
  -2   0   2  3600.8    74.5   1-0.61674 0.36167 0.00056-0.00056-0.78717 0.93230  0 269.53 193.71   51.02 269.69 193.75   51.22
  -2   0   2  4365.6   100.9   2-0.02755-0.22742-0.96830 0.96830 0.24828-0.10334  0 318.96 186.73   95.78 319.05 186.84   96.03
  -2   0   2  3570.9    92.6   2-0.13654-0.11839 0.98902-0.98902 0.05653 0.08844  0 378.10 263.48  295.00 378.02 263.53  294.83
   2   0  -2  3960.8    78.2   1-0.27117 0.52618 0.57366-0.57366-0.77291 0.62773  0 331.90 325.54   12.01 331.93 325.41   12.13
   2   0  -2  3894.9    93.7   2 0.05211 0.20291-0.97734 0.97734-0.20517 0.06030  0 278.86 326.35  122.84 278.95 326.24  122.69
   2   0  -2  3843.6    88.6   2-0.05346 0.30839 0.91900-0.91900-0.39063 0.24565  0 230.16 254.92  268.03 230.02 254.85  268.21
   2   0   2  4439.1   119.3   1-0.11300 0.36842-0.86062 0.86062 0.49655-0.35157  0 234.63 282.01  159.99 234.49 282.00  159.96
   2   0   2  4346.3    63.0   2-0.05758 0.31256-0.91556 0.91556 0.39804-0.25310  0 233.54 280.11   86.88 233.42 280.07   86.75
   2   0   2  1983.9    46.4   2-0.22480 0.47969 0.68649-0.68649 0.69152-0.54647  0 255.85 313.29  336.46 255.89 313.21  336.46
  -2   0  -3  27.029  52.718   1-0.38039 0.12507-0.90552 0.90552 0.18799-0.40546  0 390.45 240.99  136.41 389.95 241.22  136.27
  -2   0  -3   3.169  29.155   2 0.07295-0.32797-0.93616 0.93616-0.34391 0.12661  0 390.93 249.84  131.47 390.76 249.88  131.07
  -2   0  -3 -12.695  28.165   2-0.10217-0.15276 0.98509-0.98509-0.13839-0.07908  0 335.36 179.70  283.70 335.62 179.57  283.46
  -2   0   3  -8.785  26.163   1-0.69877 0.44370-0.44459 0.44459-0.56041 0.77812  0 267.34 183.02   80.34 267.35 182.97   80.53
  -2   0   3  34.277  40.771   2-0.02405-0.23092-0.97289 0.97289 0.23001-0.01260  0 305.99 174.05   97.45 305.84 174.07   97.13
  -2   0   3 -14.715  38.097   2-0.14235-0.11258 0.98560-0.98560 0.09128 0.12618  0 388.28 281.23  296.69 387.97 281.15  296.86
   2   0  -3   4.601  25.959   1-0.48652 0.74154 0.27890-0.27890-0.82796 0.61019  0 334.30 336.94   32.92 334.52 337.11   33.40
   2   0  -3  -9.107  34.380   2 0.05104 0.20398-0.97879 0.97879-0.19840-0.01891  0 291.49 340.67  121.99 291.37 340.64  122.28
   2   0  -3 -20.366  26.802   2-0.06487 0.31980 0.94026-0.94026-0.33421 0.11675  0 222.22 239.35  271.59 221.96 239.60  271.73
   2   0   3   3.876  39.908   1-0.16140 0.41682-0.87920 0.87920 0.44829-0.23081  0 221.34 272.89  155.63 221.51 272.47  155.90
   2   0   3 -12.176  18.575   2-0.03828 0.29326-0.95218 0.95218 0.30312-0.08571  0 220.42 267.85   92.37 220.40 267.78   92.69
   2   0   3  10.497  27.754   2-0.20246 0.45735 0.84482-0.84482 0.49527-0.27770  0 262.96 330.88  321.61 263.02 330.88  321.88
  -2   0  -4 507.838  82.983   1-0.42820 0.17287-0.89573 0.89573 0.11965-0.40962  0 408.23 252.03  131.46 408.35 252.03  131.45
  -2   0  -4 421.535  53.960   2 0.06924-0.32426-0.94554 0.94554-0.31805 0.02831  0 407.70 263.45  129.42 407.86 263.51  129.48
  -2   0  -4 406.538  54.079   2-0.09585-0.15908 0.98029-0.98029-0.17277-0.11718  0 327.78 161.81  281.39 327.85 161.93  281.43
  -2   0   4 434.479  46.226   1-0.64992 0.39459-0.69170 0.69170-0.31489 0.60486  0 259.72 171.70  100.99 259.86 171.86  100.79
  -2   0   4 499.283  71.183   2-0.02502-0.22996-0.97166 0.97166 0.23507 0.05481  0 292.52 160.79   96.68 292.58 160.90   96.83
  -2   0   4 437.444  68.357   2-0.14811-0.10682 0.98081-0.98081 0.12683 0.16312  0 398.70 299.70  298.96 398.78 299.65  298.94
   2   0  -4 404.378  45.894   1-0.60935 0.86441 0.02057-0.02057-0.79264 0.50236  0 343.15 350.15   50.01 343.12 350.11   49.95
   2   0  -4 448.288  59.695   2-0.06827 0.32320 0.94594-0.94594-0.31707 0.02712  0 213.56 224.32  272.72 213.47 224.26  272.78
   2   0   4 485.409  68.553   1-0.18663 0.44205-0.88724 0.88724 0.42187-0.13190  0 207.91 262.92  153.83 207.86 262.92  153.76
   2   0   4 532.568  54.576   2-0.03536 0.29033-0.95692 0.95692 0.28818 0.00170  0 207.41 256.27   93.84 207.30 256.24   93.61
   2   0   4 357.577  51.596   2-0.19327 0.44816 0.88343-0.88343 0.42684-0.13675  0 269.45 349.01  317.27 269.63 348.94  317.34
  -2   0  -5  -5.822  73.874   1-0.46809 0.21277-0.88173 0.88173 0.05859-0.42104  0 428.91 263.21  127.46 428.82 263.61  127.19
  -2   0  -5  -6.385  51.346   2 0.06939-0.32442-0.94496 0.94496-0.31974-0.04244  0 426.82 277.83  129.60 426.62 277.96  129.58
  -2   0  -5 -20.603  51.011   2-0.08924-0.16569 0.97403-0.97403-0.20811-0.15433  0 320.01 143.46  279.44 320.12 143.42  279.34
  -2   0   5  11.099  31.670   1-0.57538 0.32005-0.80681 0.80681-0.13416 0.49662  0 249.21 159.95  113.50 249.23 160.10  113.81
  -2   0   5  23.724  66.868   2-0.02810-0.22688-0.96755 0.96755 0.25111 0.11123  0 279.30 147.08   95.78 279.09 147.15   95.86
  -2   0   5  20.014  67.512   2-0.15387-0.10102 0.97460-0.97460 0.16274 0.19988  0 410.37 319.32  301.25 410.57 319.35  301.05
   2   0  -5  29.572  44.140   1-0.66132 0.91639-0.14497 0.14497-0.73596 0.37312  0 355.78 364.62   60.51 355.63 364.74   60.42
   2   0  -5   7.632  68.631   2 0.05619 0.19884-0.97126 0.97126-0.23131-0.13086  0 317.42 372.42  124.59 317.57 372.80  124.24
   2   0  -5 -20.463  44.156   2-0.06796 0.32289 0.94542-0.94542-0.31867-0.04376  0 204.48 208.87  272.91 204.39 208.58  272.69
   2   0   5  23.181  53.740   1-0.19744 0.45286-0.89029 0.89029 0.41036-0.04789  0 193.80 253.02  152.60 193.47 253.17  152.84
   2   0   5  42.646  35.750   2-0.03708 0.29205-0.95417 0.95417 0.29697 0.06537  0 193.72 244.79   93.45 193.65 244.90   93.07
   2   0   5 -28.087  51.356   2-0.19018 0.44507 0.89451-0.89451 0.40457-0.04196  0 275.98 368.11  315.49 276.04 368.12  315.90
  -2   0  -6 34853.1   440.9   1-0.50234 0.24701-0.86467 0.86467 0.00248-0.43742  0 451.66 276.40  123.18 451.77 276.36  123.30
  -2   0  -6 32779.6   371.9   2 0.07151-0.32654-0.93982 0.93982-0.33409-0.10052  0 447.29 293.53  130.43 447.56 293.52  130.46
  -2   0  -6 32500.0   373.1   2-0.08257-0.17236 0.96631-0.96631-0.24378-0.19115  0 312.25 123.56  277.05 312.36 123.73  277.23
  -2   0   6 34945.1   303.6   1-0.50675 0.25143-0.86208 0.86208-0.00507 0.44001  0 236.99 147.22  122.95 236.90 147.42  122.78
  -2   0   6 34421.0   428.8   2-0.03243-0.22255-0.96142 0.96142 0.27315 0.16167  0 265.00 132.40   94.54 265.15 132.61   94.52
  -2   0   6 31986.9   415.1   2-0.15954-0.09535 0.96697-0.96697 0.19877 0.23637  0 423.51 340.74  303.20 423.70 340.72  303.20
   2   0  -6 22313.6   251.9   1-0.68160 0.93666-0.23871 0.23871-0.69170 0.25629  0 370.59 381.41   66.42 370.69 381.35   66.47
   2   0  -6 34755.5   428.8   2 0.06007 0.19495-0.96457 0.96457-0.25688-0.17773  0 331.90 391.52  125.83 331.88 391.33  125.77
   2   0  -6 32768.0   408.5   2-0.06559 0.32052 0.94148-0.94148-0.33062-0.10430  0 194.62 192.32  271.97 194.55 192.31  271.95
   2   0   6 35192.7   437.8   1-0.19861 0.45403-0.89061 0.89061 0.40910 0.02585  0 178.27 243.02  153.07 178.25 243.09  152.74
   2   0   6 37208.5   385.5   2-0.04085 0.29583-0.94784 0.94784 0.31612 0.11869  0 179.26 233.53   92.10 179.19 233.55   91.89
   2   0   6 32464.5   366.5   2-0.19004 0.44493 0.89501-0.89501 0.40354 0.03160  0 282.23 389.08  315.94 282.38 388.89  315.84
  -2   0  -7  64.267 106.557   1-0.53215 0.27683-0.84516 0.84516-0.05019-0.45725  0 478.00 290.65  119.54 477.89 290.66  119.65
  -2   0  -7 -29.990  89.696   2 0.07459-0.32961-0.93182 0.93182-0.35517-0.15187  0 471.43 310.70  131.60 471.37 310.61  131.77
  -2   0  -7  51.097  88.835   2-0.07561-0.17932 0.95709-0.95709-0.27976-0.22766  0 304.48 102.59  275.43 304.43 102.45  275.06
  -2   0   7  22.968  51.141   1-0.44536 0.19003-0.89042 0.89042 0.09386 0.41357  0 223.30 133.58  129.50 223.47 133.44  129.65
  -2   0   7  20.064  69.097   2-0.03745-0.21752-0.95355 0.95355 0.29890 0.20839  0 250.51 116.86   92.18 250.54 116.99   92.95
  -2   0   7 -15.178 107.703   2-0.16527-0.08962 0.95788-0.95788 0.23484 0.27283  0 438.52 364.66  305.52 438.52 364.30  305.38
   2   0  -7  31.720  71.238   1-0.68944 0.94450-0.28899 0.28899-0.66420 0.15622  0 387.98 400.43   69.47 387.94 400.48   69.78
   2   0  -7 -17.017 109.207   2 0.06433 0.19070-0.95628 0.95628-0.28530-0.22174  0 347.53 412.22  127.54 347.45 412.16  127.49
   2   0  -7  34.348  69.303   2-0.06195 0.31688 0.93512-0.93512-0.34887-0.15854  0 183.55 175.10  271.06 183.78 175.19  270.82
   2   0   7 -41.112  67.578   1-0.19297 0.44839-0.88906 0.88906 0.41514 0.09231  0 162.13 232.55  153.56 162.01 232.45  153.22
   2   0   7  33.721  55.319   2-0.04587 0.30085-0.93902 0.93902 0.34078 0.16651  0 163.56 222.13   90.52 163.62 222.03   90.37
   2   0   7  15.215  81.802   2-0.19148 0.44637 0.88993-0.88993 0.41396 0.09371  0 288.42 411.74  317.03 288.75 411.77  316.51
  -2   0  -8 42529.6   518.8   2 0.07826-0.33329-0.92155 0.92155-0.38030-0.19918  0 498.88 329.82  133.27 499.08 329.77  133.33
  -2   0  -8 43131.2   521.3   2-0.06851-0.18642 0.94633-0.94633-0.31587-0.26403  0 296.11  78.84  272.88 296.25  79.04  272.86
  -2   0   8 47017.3   427.8   1-0.39014 0.13481-0.90409 0.90409 0.17440 0.40552  0 208.96 117.50  135.09 209.03 117.73  135.30
  -2   0   8 47573.6   579.9   2-0.04312-0.21186-0.94405 0.94405 0.32698 0.25277  0 235.10  99.80   91.17 234.96 100.00   91.22
  -2   0   8 39033.5   546.3   2-0.17081-0.08408 0.94729-0.94729 0.27104 0.30915  0 455.39 390.92  307.58 455.57 390.89  307.57
   2   0  -8 28261.7   351.9   1-0.69226 0.94732-0.31256 0.31256-0.65045 0.06990  0 407.03 423.02   71.24 407.54 422.98   71.36
   2   0  -8 36474.3   531.7   2 0.06887 0.18616-0.94641 0.94641-0.31555-0.26393  0 364.87 436.30  129.24 364.73 436.01  129.33
   2   0  -8 42931.8   548.1   2-0.05744 0.31237 0.92676-0.92676-0.37124-0.20866  0 171.83 156.82  269.42 171.82 156.87  269.43
   2   0   8 46568.7   576.8   1-0.18225 0.43767-0.88594 0.88594 0.42648 0.15346  0 144.47 220.95  154.04 144.51 221.04  154.13
   2   0   8 45347.6   511.2   2-0.05156 0.30653-0.92815 0.92815 0.36862 0.21113  0 146.67 210.13   88.66 146.62 210.19   88.62
  -2   0  -9 -38.785 136.615   2-0.06131-0.19362 0.93397-0.93397-0.35205-0.30034  0 287.54  53.22  270.57 287.67  52.80  270.62
  -2   0   9  -0.654  72.175   1-0.33860 0.08327-0.90884 0.90884 0.24366 0.40876  0 193.65  98.98  140.73 193.53  99.77  140.26
  -2   0   9  71.353 116.517   2-0.04915-0.20582-0.93291 0.93291 0.35673 0.29549  0 218.10  81.50   89.55 218.06  81.25   89.37
  -2   0   9 -46.481 169.785   2-0.17628-0.07861 0.93515-0.93515 0.30729 0.34543  0 475.67 421.92  309.58 475.56 421.55  309.78
   2   0  -9  79.967 122.780   1-0.69289 0.94796-0.31833 0.31833-0.64696-0.00615  0 429.70 450.12   71.33 429.78 449.93   71.75
   2   0  -9 -31.822 184.682   2 0.07341 0.18161-0.93494 0.93494-0.34712-0.30479  0 384.08 463.48  131.45 384.33 463.87  131.27
   2   0  -9-107.888  95.299   2-0.05227 0.30720 0.91658-0.91658-0.39643-0.25596  0 158.24 136.85  267.74 158.35 136.92  267.84
   2   0   9 -53.938  95.101   1-0.16756 0.42298-0.88132 0.88132 0.44181 0.21062  0 125.66 208.34  155.54 125.41 208.54  155.38
   2   0   9 -31.715  80.994   2-0.05768 0.31265-0.91535 0.91535 0.39850 0.25372  0 128.08 197.89   87.02 127.77 197.81   86.72
  -2   0 -10 15172.6   434.9   2-0.05393-0.20100 0.91995-0.91995-0.38830-0.33658  0 278.33  22.45  268.34 278.48  22.76  268.36
  -2   0  10 17042.9   325.0   1-0.28936 0.03403-0.90716 0.90716 0.30550 0.41941  0 176.56  78.52  144.89 176.81  78.83  144.80
  -2   0  10 17215.0   436.2   2-0.05546-0.19952-0.92012 0.92012 0.38769 0.33700  0 199.42  59.87   87.40 199.35  60.14   87.41
  -2   0  10 14960.1   509.3   2-0.18163-0.07326 0.92139-0.92139 0.34357 0.38166  0 499.43 457.86  311.99 499.61 457.89  312.04
   2   0 -10 10930.6   335.0   1-0.69216 0.94723-0.31173 0.31173-0.65095-0.07473  0 455.00 482.90   71.21 455.46 483.02   71.30
   2   0 -10 15852.5   511.0   2 0.07816 0.17687-0.92186 0.92186-0.37955-0.34480  0 407.11 497.50  133.00 407.27 497.30  133.28
   2   0 -10 16312.1   422.2   2-0.04659 0.30152 0.90463-0.90463-0.42365-0.30122  0 142.96 114.76  266.00 142.94 114.79  266.11
   2   0  10 17249.5   415.9   1-0.14967 0.40509-0.87511 0.87511 0.46019 0.26473  0 104.44 194.43  157.08 104.24 194.54  156.89
   2   0  10 17291.1   389.7   2-0.06423 0.31921-0.90064 0.90064 0.42980 0.29489  0 106.87 184.64   84.69 106.49 184.68   84.71
   2   0  10 15018.4   424.5   2-0.20011 0.45500 0.85541-0.85541 0.47774 0.24750  0 308.55 501.28  320.69 308.64 500.91  320.69
  -2   0  11  98.431 119.221   1-0.24082-0.01451-0.90035 0.90035 0.36247 0.43493  0 158.42  53.78  148.99 158.42  53.77  149.10
  -2   0  11-188.974 168.787   2-0.06209-0.19289-0.90563 0.90563 0.41950 0.37766  0 178.31  36.06   85.50 178.15  35.84   85.38
   2   0 -11 -12.279 152.846   2-0.04058 0.29551 0.89089-0.89089-0.45241-0.34495  0 124.15  89.48  263.91 124.95  89.71  264.25
   2   0  11  84.773 136.890   1-0.12912 0.38454-0.86717 0.86717 0.48097 0.31645  0  80.39 178.37  158.59  80.32 178.49  158.62
   2   0  11 -59.158 116.528   2-0.07103 0.32601-0.88399 0.88399 0.46208 0.33508  0  82.52 170.35   83.05  82.07 170.52   82.59
  -2   0  12 354.121 154.959   1-0.19212-0.06330-0.88882 0.88882 0.41605 0.45387  0 137.96  22.15  153.51 137.81  22.65  153.29
  -2   0  12 628.368 246.590   2-0.06890-0.18608-0.88936 0.88936 0.45199 0.41764  2 153.76   8.02   83.25 153.53   7.30   83.26
   2   0 -12 338.977 207.423   2-0.03413 0.28906 0.87535-0.87535-0.48228-0.38757  0 103.06  60.41  262.27 103.55  60.56  262.30
   2   0  12 584.744 186.321   1-0.10581 0.36123-0.85748 0.85748 0.50352 0.36639  0  52.74 159.54  160.43  52.69 159.60  160.56
   2   0  12 621.642 161.849   2-0.07813 0.33310-0.86532 0.86532 0.49510 0.37453  0  52.93 155.16   80.59  53.37 154.91   80.39
  -2  -1   0 -19.756  24.922   1-0.33918 0.08417 0.49406-0.59334-0.80054 0.80054  0 243.80 224.90   18.62 243.95 224.71   18.33
  -2  -1   0  -5.273  16.520   2-0.23533-0.01960 0.22688-0.32630 0.94506-0.94506  0 368.86 238.25    6.79 369.25 238.07    7.20
  -2  -1   0  -2.386  16.828   2 0.12015-0.37519-0.68480 0.58533-0.71876 0.71876  0 340.73 201.30  157.27 340.60 201.19  157.28
  -2   1   0   5.398  26.831   1-0.48682 0.23149-0.87304 0.97242 0.02846-0.02846  0 339.57 200.52  124.89 339.80 200.44  125.10
  -2   1   0  -1.484  20.675   2-0.21040-0.04453-0.16296 0.26237 0.96394-0.96394  0 332.41 196.81   29.40 332.39 196.73   29.77
  -2   1   0  12.548  20.698   2 0.05620-0.31120 0.52052-0.42102-0.85200 0.85200  0 371.10 247.27  232.13 371.38 247.32  232.11
   2  -1   0  -6.292  26.658   1-0.19971 0.45513-0.89091 0.79149 0.40793-0.40793  0 262.50 311.96  152.61 262.59 311.98  152.65
   2  -1   0  -3.195  19.351   2-0.12624 0.38122-0.70020 0.60074 0.70270-0.70270  0 266.80 315.00   64.77 266.62 314.92   64.90
   2  -1   0  -7.808  13.723   2 0.12225 0.13280-0.06326-0.03621-0.99048 0.99048  0 235.90 269.63  196.92 235.63 269.54  196.98
   2   1   0  -2.211  15.364   2 0.11105 0.14394 0.09190 0.00760-0.98956 0.98956  0 258.84 309.15  205.70 258.71 309.15  205.88
   2   1   0   7.033  11.557   2-0.19513 0.45002 0.87629-0.77682 0.44050-0.44050  0 238.23 278.77  318.53 238.07 278.91  318.23
  -2  -1  -1  61.897  31.421   1-0.19950-0.05552 0.64687-0.74615-0.73605 0.66346  0 237.08 234.60    5.70 236.88 234.42    5.89
  -2  -1  -1  72.862  42.403   1-0.00983-0.24559-0.80828 0.70887 0.58871-0.66120  0 370.39 231.25  168.61 370.23 231.33  168.44
  -2  -1  -1  88.657  18.454   2-0.14862-0.10635-0.59659 0.49713 0.78866-0.86113  0 370.72 234.23   57.52 370.91 234.36   57.08
  -2  -1  -1  81.478  18.882   2 0.11654-0.37153 0.02181-0.12131-0.99295 0.92046  0 344.68 200.67  201.96 344.65 200.74  201.85
  -2  -1   1  41.392  26.556   1-0.49537 0.24035 0.26351-0.36280-0.82775 0.90034  0 247.90 214.95   34.24 247.95 214.75   34.41
  -2  -1   1  66.492  26.229   2 0.08204-0.33707-0.90954 0.81001-0.40743 0.47987  0 330.23 192.87  135.40 330.28 193.00  135.02
  -2  -1   1  70.349  25.751   2-0.22524-0.02965 0.68183-0.78130 0.69598-0.62345  0 374.57 250.46  336.69 374.77 250.59  336.84
  -2   1  -1  56.630  37.567   1-0.49776 0.24243-0.86726 0.96664 0.01023-0.08272  0 356.23 210.11  124.04 356.13 210.07  123.84
  -2   1  -1  64.019  23.025   2 0.11915-0.37415-0.01498 0.11448-0.99276 0.92028  0 373.80 244.45  199.57 373.69 244.44  199.74
  -2   1  -1  68.709  22.127   2-0.23745-0.01747 0.42989-0.33047 0.87110-0.94365  0 335.90 195.56  354.52 335.81 195.57  354.51
  -2   1   1  79.091  21.524   1-0.48984 0.23452-0.87149 0.97087 0.02345 0.04904  0 323.96 190.56  124.96 323.80 190.74  124.75
  -2   1   1  73.933  26.918   2-0.15290-0.10208-0.57476 0.67422 0.80391-0.73144  0 323.82 190.78   55.62 323.76 190.84   55.53
  -2   1   1  59.550  28.943   2-0.01016-0.24477 0.80689-0.70738-0.59061 0.66310  0 375.15 257.65  254.68 375.05 257.56  254.82
   2  -1  -1  72.724  22.117   1 0.02765 0.22777-0.78474 0.68532 0.61921-0.69170  0 276.94 322.76  171.40 277.07 322.66  171.52
   2  -1  -1 119.362  29.905   2-0.06659 0.32156-0.89502 0.79556 0.44103-0.51350  0 274.60 321.72   83.90 274.62 321.77   83.98
   2  -1  -1  68.316  21.879   2 0.07057 0.18443 0.43270-0.53220-0.89877 0.82628  0 232.35 260.13  226.29 232.43 260.10  226.34
   2  -1   1 316.331  40.586   1-0.28413 0.53946-0.90667 0.80729 0.31179-0.23930  0 248.74 302.02  145.10 248.55 301.83  145.27
   2  -1   1  57.083  21.445   2-0.20342 0.45834-0.23016 0.13075 0.95165-0.87911  0 263.32 315.47   33.91 263.29 315.56   33.70
   2  -1   1  77.110  18.285   2 0.12392 0.13113-0.63877 0.53930-0.75935 0.83184  0 233.84 272.56  160.69 233.88 272.34  160.81
   2   1  -1 104.777  39.050   1-0.28268 0.53770 0.56086-0.46158-0.77816 0.70557  0 357.24 305.03   12.98 356.88 305.04   13.16
   2   1  -1  71.501  25.879   2 0.12946 0.12558-0.53653 0.63600-0.83389 0.76140  0 268.55 318.66  168.00 268.44 318.69  168.08
   2   1  -1  84.869  20.745   2-0.16075 0.41564 0.96516-0.86569 0.20646-0.27898  0 232.96 266.88  303.58 232.97 266.76  303.66
   2   1   1  59.971  13.286   2-0.02432 0.27925 0.84923-0.74971-0.52747 0.59996  0 254.48 308.93  259.56 254.61 308.69  259.25
  -2  -1  -2 25119.3   283.3   1-0.12595-0.12947-0.86591 0.76650 0.48408-0.62906  0 381.98 241.67  159.00 381.93 241.71  158.89
  -2  -1  -2 23179.5   170.9   2-0.05772-0.19725-0.91525 0.81579 0.39873-0.54367  0 381.29 241.08   86.92 381.28 241.17   86.71
  -2  -1  -2 20742.1   162.6   2 0.04436-0.29935 0.58457-0.68408-0.81013 0.66515  0 341.13 189.77  236.56 341.14 189.87  236.55
  -2  -1   2 18661.6   201.5   1-0.62432 0.36925-0.02104-0.07830-0.78089 0.92603  0 248.37 204.59   52.51 248.24 204.61   52.57
  -2  -1   2 20677.7   209.0   2 0.05683-0.31186-0.97022 0.87069-0.23546 0.38033  0 318.03 181.98  124.28 318.16 182.08  124.49
  -2  -1   2 17157.1   190.8   2-0.20692-0.04797 0.82194-0.92141 0.53066-0.38561  0 382.78 266.05  324.32 382.89 266.07  324.31
  -2   1  -2 21374.6   248.1   1-0.51309 0.25776-0.85818 0.95756-0.01603-0.12895  0 373.32 219.70  122.00 373.26 219.78  122.02
  -2   1  -2 21074.2   181.9   2 0.13139-0.38643-0.46036 0.55983-0.87795 0.73298  0 382.60 249.50  173.01 382.67 249.57  173.14
  -2   1  -2 20190.9   178.3   2-0.21312-0.04176 0.78471-0.68523 0.58208-0.72713  0 333.54 186.37  327.99 333.56 186.46  327.98
  -2   1   2 18407.6    66.1   1-0.66629 0.41123-0.16526 0.26460-0.72715 0.87229  0 293.84 181.58   61.34 293.97 181.67   61.72
  -2   1   2 20800.0    70.4   1-0.58797 0.33264-0.79277 0.89215-0.16067 0.30565  0 305.52 180.81  112.01 305.61 180.97  111.95
  -2   1   2 23392.9   230.0   2-0.11299-0.14199-0.75269 0.85215 0.64861-0.50367  0 312.66 181.25   68.90 312.76 181.36   69.29
  -2   1   2 21620.4   221.5   2-0.05303-0.20190 0.91814-0.81863-0.39269 0.53767  0 382.08 271.56  267.75 381.98 271.59  268.08
   2  -1  -2 21613.9   218.7   2-0.03226 0.28724-0.96167 0.86222 0.27229-0.41723  0 284.81 332.57   94.68 284.90 332.48   94.58
   2  -1  -2 22853.9   223.3   2 0.02654 0.22846 0.66863-0.76813-0.74312 0.59815  0 226.83 247.75  242.95 226.71 247.69  242.81
   2  -1   2 21071.7   243.4   1-0.31856 0.57389-0.90880 0.80942 0.26944-0.12446  0 234.62 292.06  141.91 234.51 292.04  142.13
   2  -1   2 20102.1   172.7   2-0.23656 0.49149 0.27223-0.37164 0.93270-0.78760  0 265.02 324.70    4.50 265.11 324.57    4.50
   2  -1   2 21563.9   177.6   2 0.08602 0.16901-0.89589 0.79636-0.43586 0.58073  0 226.75 267.80  136.97 226.61 267.74  136.84
   2   1  -2 19568.3   209.3   1-0.42646 0.68147 0.37531-0.27603-0.82297 0.67779  0 356.59 316.20   27.14 356.56 316.12   26.87
   2   1  -2 20681.1   205.7   2 0.11288 0.14217-0.75260 0.85206-0.64873 0.50376  0 279.61 331.04  151.66 279.68 330.93  151.69
   2   1  -2 19916.7   200.3   2-0.14285 0.39778 0.98524-0.88573 0.09430-0.23927  0 226.32 252.86  296.78 226.21 252.80  297.03
   2   1   2 24402.6   166.4   2-0.18626 0.44119-0.36894 0.46836 0.91060-0.76550  0 228.25 275.87   42.00 228.13 275.80   42.05
   2   1   2 19753.3   151.0   2-0.09566 0.35059 0.98013-0.88062-0.17377 0.31874  0 257.83 320.17  281.35 257.99 320.03  281.37
  -2  -1  -3 29021.0   328.5   1-0.21964-0.03578-0.89594 0.79652 0.38607-0.60355  0 395.91 252.40  151.00 396.14 252.41  150.92
  -2  -1  -3 27215.0   227.4   2-0.01581-0.23922-0.98217 0.88263 0.18733-0.40464  0 395.31 252.10   99.95 395.57 252.13   99.71
  -2  -1  -3 26258.7   224.6   2-0.00004-0.25489 0.77288-0.87239-0.63455 0.41709  0 334.85 174.71  251.62 334.84 174.84  251.58
  -2  -1   3 21992.1   227.0   1-0.69005 0.43498-0.29364 0.19431-0.66152 0.87922  0 244.85 194.13   70.00 244.66 194.13   70.09
  -2  -1   3 26984.7   277.6   2 0.03964-0.29467-0.99119 0.89165-0.12639 0.34369  0 305.40 169.95  117.86 305.52 170.07  118.06
  -2  -1   3 24971.3   265.6   2-0.19632-0.05857 0.87154-0.97101 0.44931-0.23174  0 392.02 282.96  319.00 392.29 282.97  318.81
  -2   1  -3 25595.7   300.7   1-0.52992 0.27459-0.84679 0.94617-0.04613-0.17134  0 391.27 229.70  119.98 391.54 229.77  119.93
  -2   1  -3 25855.5   235.4   2 0.12139-0.37643-0.67182 0.77129-0.73070 0.51324  0 395.47 259.08  158.03 395.79 259.13  158.30
  -2   1  -3 22734.5   221.8   2-0.18294-0.07195 0.91757-0.81809 0.35300-0.57057  0 328.34 172.84  312.74 328.36 172.93  312.62
  -2   1   3 27354.0   283.7   2-0.09091-0.16406-0.82809 0.92754 0.55318-0.33577  0 300.68 170.09   76.21 300.82 170.22   76.39
  -2   1   3 24481.2   267.9   2-0.08052-0.17441 0.96372-0.86421-0.25447 0.47193  0 390.43 287.63  276.62 390.66 287.65  276.59
   2  -1  -3 25544.8   270.3   2-0.00003 0.25496 0.77283-0.87235-0.63461 0.41715  0 219.86 234.05  251.58 219.77 233.99  251.57
   2  -1   3 25591.1   299.3   1-0.33053 0.58586-0.90897 0.80959 0.25402-0.03655  0 220.37 282.46  141.01 220.28 282.44  141.01
   2  -1   3 26268.0   230.3   2 0.05592 0.19911-0.97168 0.87214-0.22960 0.44691  0 216.41 259.52  123.75 216.31 259.49  124.14
   2  -1   3 24056.7   222.6   2-0.23438 0.48927 0.54537-0.64484 0.80476-0.58719  0 269.37 338.44  347.24 269.54 338.32  346.89
   2   1  -3 21920.7   228.1   1-0.53602 0.79103 0.18725-0.08797-0.82318 0.60542  0 360.87 328.09   39.17 360.87 328.02   39.37
   2   1  -3 12994.2   194.1   2 0.10054 0.15449-0.83270 0.93224-0.54452 0.32721  0 291.32 344.84  143.80 291.57 344.63  144.08
   2   1  -3 23715.9   254.8   2-0.13034 0.38527 0.99127-0.89176 0.01989-0.23735  0 218.76 238.35  292.78 218.65 238.30  292.69
   2   1   3 28918.7   326.0   1 0.02258 0.23283-0.78807 0.88748 0.61518-0.39770  0 216.95 262.60  170.97 216.90 262.65  171.11
   2   1   3 26806.1   219.0   2-0.13606 0.39104-0.65730 0.75676 0.74125-0.52384  0 216.78 265.92   61.66 216.68 265.90   61.55
   2   1   3 23248.4   205.8   2-0.12163 0.37656 0.99211-0.89260-0.03048 0.24795  0 263.34 335.54  289.92 263.46 335.40  289.75
  -2  -1  -4  1919.1   128.1   1-0.29605 0.04072-0.90771 0.80833 0.29736-0.58732  0 412.60 263.71  144.05 412.75 263.76  144.19
  -2  -1  -4  1745.2    92.6   2 0.00745-0.26248-0.99804 0.89851 0.06210-0.35184  0 411.87 264.82  107.00 412.07 264.83  107.09
  -2  -1  -4  1825.2    96.4   2-0.02072-0.23421 0.83894-0.93845-0.54383 0.25388  0 327.79 157.95  257.95 327.87 158.06  258.12
  -2  -1   4  1354.6    77.3   1-0.69543 0.44037-0.50614 0.40681-0.51009 0.80037  0 238.02 183.20   84.99 237.83 183.23   85.09
  -2  -1   4  1612.4   110.5   2 0.02621-0.28123-0.99861 0.89907-0.04579 0.33553  0 292.48 157.23  113.26 292.58 157.30  113.35
  -2  -1   4  1492.4   107.5   2-0.19116-0.06373 0.89106-0.99054 0.41166-0.12156  0 402.55 301.07  316.35 402.83 301.08  316.36
  -2   1  -4  1808.9   124.5   1-0.54730 0.29197-0.83328 0.93266-0.07809-0.21187  0 411.04 240.21  117.72 411.27 240.23  117.71
  -2   1  -4  1730.7    96.7   2 0.11138-0.36643-0.76481 0.86428-0.63455 0.34461  0 411.21 271.01  150.63 411.49 271.04  150.62
  -2   1  -4  1482.4    96.4   2-0.15936-0.09553 0.96724-0.86777 0.19760-0.48770  0 321.97 156.99  302.97 321.97 157.13  303.13
  -2   1   4  1824.5    42.3   1-0.21242-0.04299-0.89423 0.99365 0.39399-0.10402  0 284.54 158.73  151.33 284.79 158.91  151.55
  -2   1   4  1807.9   116.7   2-0.07924-0.17573-0.86223 0.96169 0.50027-0.21040  0 288.12 157.97   80.00 288.26 158.02   80.03
  -2   1   4  1647.8   112.4   2-0.09982-0.15511 0.98345-0.88394-0.15117 0.44112  0 400.53 305.24  282.77 400.65 305.26  282.71
   2  -1  -4  1501.5    40.5   1-0.56759 0.82261 0.12167-0.22096-0.81427 0.52392  0 315.85 359.76   43.50 316.00 359.66   43.57
   2  -1  -4 789.697  88.919   2 0.00537 0.24966-0.99731 0.89777 0.07313-0.36287  0 308.51 359.86  106.41 308.52 359.74  106.43
   2  -1  -4  1763.9    99.7   2-0.01499 0.26992 0.82193-0.92144-0.56939 0.27944  0 211.99 219.56  256.30 211.93 219.55  256.34
   2  -1   4  1696.6    97.6   1-0.33057 0.58589-0.90897 0.80959 0.25397 0.03599  0 205.81 272.87  141.01 205.73 272.90  141.01
   2  -1   4  1685.0    82.0   2 0.03499 0.22003-0.99455 0.89501-0.09826 0.38800  0 204.56 249.83  116.13 204.47 249.83  116.42
   2  -1   4  1501.5    89.5   2-0.22598 0.48087 0.67367-0.77315 0.70363-0.41354  0 274.76 354.63  337.53 274.91 354.56  337.48
   2   1  -4  1399.7    90.9   1-0.60545 0.86046 0.03110 0.06819-0.79528 0.50493  0 369.18 341.05   49.15 369.20 341.05   49.30
   2   1  -4  1541.1    92.4   2-0.12005 0.37498 0.99199-0.89248-0.03922-0.25073  0 210.47 223.40  288.94 210.43 223.39  289.25
   2   1   4  1800.7   109.6   1-0.02462 0.28004-0.81689 0.91630 0.57627-0.28630  0 204.85 252.87  167.05 204.77 253.00  167.23
   2   1   4  1818.7    80.5   2-0.10937 0.36435-0.76620 0.86565 0.63323-0.34335  0 204.26 255.31   70.47 204.18 255.30   70.49
   2   1   4  1503.9    87.5   2-0.13617 0.39110 0.98919-0.88968 0.05435 0.23560  0 269.25 352.62  294.83 269.33 352.54  294.70
  -2  -1  -5 40523.7   443.5   1-0.35897 0.10364-0.90777 0.80839 0.21699-0.57945  0 431.60 275.94  138.27 431.76 275.90  138.34
  -2  -1  -5 39155.7   364.8   2 0.02282-0.27785-0.99940 0.89987-0.02596-0.33621  0 430.40 278.78  111.87 430.59 278.74  112.19
  -2  -1  -5 37015.6   358.1   2-0.03014-0.22479 0.86502-0.96453-0.50084 0.13840  0 320.50 139.83  260.84 320.58 140.01  261.06
  -2  -1   5 32783.1   316.1   1-0.66458 0.40951-0.65393 0.55460-0.36153 0.72438  0 228.74 171.64   96.84 228.54 171.73   97.25
  -2  -1   5 35655.9   398.6   2 0.01490-0.26993-0.99968 0.90015 0.02031 0.34187  0 279.11 143.59  109.48 279.28 143.76  109.51
  -2  -1   5 33246.5   384.8   2-0.18924-0.06565 0.89775-0.99722 0.39779-0.03517  0 414.35 320.64  315.49 414.57 320.61  315.47
  -2   1  -5 35688.9   419.6   1-0.56423 0.30890-0.81804 0.91742-0.11161-0.25084  0 432.75 251.40  115.36 432.92 251.39  115.39
  -2   1  -5 35084.2   353.2   2 0.10495-0.35998-0.80755 0.90708-0.58039 0.21822  0 429.24 284.47  146.60 429.55 284.49  146.60
  -2   1  -5 31046.3   335.9   2-0.14143-0.11350 0.98623-0.88672 0.08572-0.44816  0 315.00 139.54  296.54 315.12 139.72  296.53
  -2   1   5 39282.1   222.3   1-0.24177-0.01355-0.90053 0.99991 0.36138 0.00107  0 269.08 146.87  148.95 269.36 147.17  149.02
  -2   1   5 39447.7   422.1   2-0.07353-0.18145-0.87762 0.97708 0.47369-0.11134  0 275.05 144.75   81.97 275.21 144.89   81.83
  -2   1   5 32189.1   381.7   2-0.11490-0.14003 0.99102-0.89151-0.06838 0.43082  0 411.78 324.44  287.59 411.94 324.43  287.55
   2  -1  -5 23658.3   174.7   1-0.67818 0.93325-0.22021 0.12087-0.70112 0.33828  0 332.52 374.97   65.22 332.63 374.84   65.26
   2  -1  -5 35918.3   400.7   2 0.01784 0.23719-0.99984 0.90030 0.00279-0.36496  0 321.62 376.15  110.54 321.61 375.94  110.53
   2  -1  -5 35972.6   397.5   2-0.02310 0.27803 0.84579-0.94531-0.53301 0.17057  0 203.32 204.44  259.04 203.25 204.41  258.87
   2  -1   5 35370.9   413.8   1-0.32337 0.57870-0.90888 0.80950 0.26338 0.09908  0 190.68 263.23  141.72 190.68 263.25  141.69
   2  -1   5 38503.3   362.8   2 0.01894 0.23609-0.99981 0.90028-0.00356 0.36573  0 191.62 239.53  111.06 191.53 239.53  110.90
   2  -1   5 31418.4   331.3   2-0.21962 0.47451 0.73569-0.83516 0.64072-0.27810  0 280.49 372.92  332.40 280.65 372.77  332.38
   2   1  -5 25374.6   282.6   1-0.64427 0.89933-0.08298 0.18232-0.76029 0.39744  0 380.92 355.62   56.42 380.93 355.56   56.48
   2   1  -5 33936.0   386.4   2 0.08992 0.16511-0.88152 0.98106-0.46350 0.10133  0 317.23 376.43  138.62 317.24 376.26  138.63
   2   1  -5 34703.3   386.2   2-0.11088 0.36581 0.98968-0.89017-0.09080-0.27164  0 201.56 208.00  286.09 201.50 207.97  286.24
   2   1   5 40446.6   441.5   1-0.05375 0.30916-0.83269 0.93211 0.55112-0.18866  0 191.56 242.99  164.94 191.53 243.07  164.85
   2   1   5 38736.5   355.1   2-0.09582 0.35080-0.81253 0.91199 0.57499-0.21264  0 190.92 244.51   74.95 190.86 244.50   74.84
   2   1   5 30462.4   318.4   2-0.14687 0.40180 0.98207-0.88256 0.11820 0.24424  0 275.25 371.46  298.32 275.31 371.25  298.44
  -2  -1  -6  1040.3   128.4   1-0.41188 0.15655-0.89985 0.80047 0.14362-0.57857  0 453.38 289.36  133.30 453.51 289.34  133.13
  -2  -1  -6 805.921  97.052   2 0.03462-0.28965-0.99478 0.89524-0.09602-0.33859  0 451.37 293.94  116.32 451.54 294.00  116.29
  -2  -1  -6 904.510 102.217   2-0.03379-0.22114 0.87450-0.97401-0.48384 0.04892  0 313.05 120.38  261.98 313.09 120.52  262.20
  -2  -1   6 814.120  87.610   1-0.61872 0.36340-0.75088 0.65150-0.23101 0.66596  0 217.63 159.20  106.84 217.56 159.32  106.94
  -2  -1   6 847.988 116.167   2 0.00452-0.25955-0.99695 0.89742 0.07785 0.35675  0 265.50 129.22  105.93 265.47 129.32  106.16
  -2  -1   6 630.972 109.590   2-0.18926-0.06563 0.89768-0.99715 0.39794 0.03720  0 427.50 341.85  315.49 427.75 341.90  315.48
  -2   1  -6 955.910 116.612   1-0.58092 0.32559-0.80081 0.90019-0.14572-0.28922  0 456.90 263.73  113.00 457.03 263.62  113.00
  -2   1  -6 784.491  97.717   2 0.10154-0.35657-0.82726 0.92679-0.55257 0.11796  0 450.05 299.61  144.65 450.04 299.53  144.64
  -2   1  -6 640.168  93.876   2-0.12650-0.12843 0.99196-0.89245-0.00245-0.43247  0 307.81 120.33  291.39 307.82 120.70  291.38
  -2   1   6  1046.9    69.0   1-0.23070-0.02471-0.89840 0.99782 0.37370 0.06126  0 254.78 133.87  149.98 254.71 134.07  149.96
  -2   1   6 820.510 116.259   2-0.07138-0.18360-0.88312 0.98258 0.46369-0.02887  0 261.41 130.64   82.40 261.54 130.78   82.49
  -2   1   6 864.586 118.953   2-0.12727-0.12766 0.99187-0.89236 0.00202 0.43290  0 424.44 345.43  291.59 424.69 345.49  291.65
   2  -1  -6 602.350  60.393   1-0.69517 0.95024-0.33980 0.24046-0.63346 0.19805  0 349.48 392.08   73.32 349.39 391.98   73.21
   2  -1  -6  1032.4   123.0   2 0.02844 0.22659-0.99789 0.89836-0.05830-0.37631  0 335.78 394.19  114.31 335.79 394.14  114.09
   2  -1  -6 797.803  98.845   2-0.02699 0.28192 0.85655-0.95606-0.51536 0.08044  0 193.67 188.47  260.36 193.70 188.49  260.08
   2  -1   6 773.518  97.957   1-0.31112 0.56645-0.90855 0.80917 0.27881 0.15613  0 174.77 253.17  142.70 174.90 253.33  142.82
   2  -1   6 797.925  91.889   2 0.00560 0.24943-0.99740 0.89787 0.07181 0.36280  0 177.53 228.72  106.50 177.50 228.84  106.51
   2  -1   6 700.183  94.521   2-0.21580 0.47069 0.76629-0.86576 0.60517-0.17003  0 286.54 393.27  329.65 286.62 392.98  329.68
   2   1  -6 585.975  87.377   1-0.66493 0.92000-0.15955 0.25889-0.72967 0.29426  0 395.30 371.98   61.31 395.58 371.99   61.35
   2   1  -6 735.889 110.997   2 0.08870 0.16633-0.88633 0.98587-0.45447 0.01986  0 331.38 394.70  137.97 331.40 394.74  138.04
   2   1  -6 722.242  91.077   2-0.10223 0.35716 0.98513-0.88562-0.13808-0.29684  0 191.66 191.84  283.47 191.75 191.89  283.48
   2   1   6 928.287 114.902   1-0.06969 0.32511-0.84075 0.94016 0.53692-0.10197  0 177.24 232.59  163.52 177.22 232.73  163.54
   2   1   6 842.270  92.864   2-0.08941 0.34439-0.83271 0.93217 0.54644-0.11163  0 176.58 233.59   76.80 176.53 233.50   76.87
   2   1   6 673.747  87.099   2-0.15539 0.41028 0.97272-0.87325 0.17225 0.26289  0 281.21 391.93  301.62 281.42 391.81  301.62
  -2  -1  -7  2249.0   196.2   1-0.45708 0.20175-0.88618 0.78680 0.07586-0.58330  0 478.35 304.50  128.40 478.51 304.49  128.39
  -2  -1  -7  2410.5   174.2   2 0.04434-0.29937-0.98676 0.88722-0.15602-0.35102  0 475.59 310.98  119.81 475.53 310.90  119.80
  -2  -1  -7  2169.6   171.4   2-0.03418-0.22075 0.87549-0.97500-0.48203-0.02538  0 305.33  99.06  262.20 305.39  99.29  262.32
  -2  -1   7  2094.9   125.4   1-0.56709 0.31176-0.81526 0.71588-0.11733 0.62476  0 204.94 145.47  115.04 204.91 145.68  114.99
  -2  -1   7  2385.6   167.2   2-0.00504-0.24999-0.99147 0.89193 0.13026 0.37678  0 250.98 113.50  102.93 250.94 113.73  103.09
  -2  -1   7  2079.3   204.1   2-0.19051-0.06438 0.89336-0.99283 0.40696 0.10071  0 442.66 365.67  316.36 442.72 365.51  316.05
  -2   1  -7  2224.5   200.7   1-0.59702 0.34169-0.78168 0.88106-0.18037-0.32706  0 484.28 277.33  110.59 484.36 277.31  110.55
  -2   1  -7  2284.5   178.3   2 0.10018-0.35521-0.83461 0.93415-0.54165 0.03461  0 473.45 316.36  144.01 473.61 316.36  143.88
  -2   1  -7  2011.9   173.6   2-0.11349-0.14144 0.99061-0.89110-0.07621-0.43120  0 300.09  99.69  287.30 300.19  99.87  287.10
  -2   1   7  2504.5   101.9   1-0.20924-0.04617-0.89344 0.99286 0.39746 0.10999  0 239.94 119.32  151.85 240.02 119.57  151.82
  -2   1   7  2292.1   162.4   2-0.07158-0.18339-0.88265 0.98211 0.46455 0.04274  0 247.20 115.36   82.37 247.10 115.48   82.43
  -2   1   7  2641.3   211.3   2-0.13786-0.11707 0.98835-0.88884 0.06441 0.44300  0 439.28 369.04  295.34 439.26 368.95  295.29
   2  -1  -7  1608.6   112.3   1-0.69818 0.95324-0.38629 0.28695-0.60277 0.09479  0 366.94 411.73   76.33 367.08 411.69   76.40
   2  -1  -7  2184.0   196.7   2 0.03755 0.21748-0.99281 0.89328-0.11365-0.39340  0 351.40 414.99  117.35 351.35 414.82  117.31
   2  -1  -7  1985.9   154.2   2-0.02811 0.28304 0.85959-0.95910-0.51021 0.00279  0 183.18 171.61  260.42 183.12 171.55  260.43
   2  -1   7  2319.9   158.2   1-0.29516 0.55049-0.90764 0.80826 0.29844 0.20899  0 158.14 242.90  144.34 158.16 242.94  144.27
   2  -1   7  2108.3   135.1   2-0.00610 0.26112-0.99069 0.89115 0.13602 0.37103  0 162.25 217.60  102.71 162.20 217.70  102.75
   2  -1   7  31.965  74.813   2-0.21380 0.46868 0.78025-0.87972 0.58779-0.08013  0 292.95 415.23  328.46 292.79 415.58  328.40
   2   1  -7  1558.1   146.0   1-0.67560 0.93067-0.20733 0.30667-0.70751 0.19954  0 412.70 391.10   64.40 412.95 390.95   64.43
   2   1  -7  2227.1   200.5   2 0.08897 0.16606-0.88528 0.98482-0.45646-0.05058  0 346.91 415.78  138.15 346.86 415.62  138.17
   2   1  -7  2164.0   157.4   2-0.09398 0.34891 0.97865-0.87914-0.18279-0.32462  0 181.02 174.88  281.02 180.98 174.88  280.84
   2   1   7  2401.3   156.5   1-0.07591 0.33133-0.84380 0.94321 0.53127-0.02382  0 161.67 221.66  163.05 161.72 221.76  163.03
   2   1   7  2180.2   132.8   2-0.08720 0.34217-0.83974 0.93920 0.53594-0.02866  0 161.15 222.16   77.59 161.03 222.21   77.58
   2   1   7  1764.8   155.6   2-0.16314 0.41803 0.96151-0.86204 0.22108 0.28659  0 287.49 414.76  304.54 287.54 414.58  304.55
  -2  -1  -8 125.911 124.523   2 0.05287-0.30790-0.97627 0.87674-0.20998-0.36949  2 502.72 329.94  122.91 503.53 329.93  122.97
  -2  -1  -8 133.251 114.636   2-0.03253-0.22240 0.87127-0.97078-0.48973-0.09017  0 297.17  75.98  262.00 297.39  75.82  261.80
  -2  -1   8 169.991  75.747   1-0.51469 0.25936-0.85717 0.75779-0.01881 0.59874  0 190.74 130.33  121.82 190.90 130.49  121.83
  -2  -1   8 169.951  99.792   2-0.01427-0.24075-0.98372 0.88418 0.17915 0.40032  0 235.27  96.54  100.64 235.39  96.69  100.20
  -2  -1   8 113.873 139.035   2-0.19259-0.06230 0.88595-0.98542 0.42190 0.15829  0 459.86 392.20  317.63 459.98 392.19  317.02
  -2   1  -8 233.686 126.112   2 0.10020-0.35523-0.83448 0.93402-0.54184-0.03764  0 501.17 335.42  143.63 501.20 335.47  143.89
  -2   1  -8 131.434 118.287   2-0.10173-0.15321 0.98480-0.88528-0.14081-0.43909  0 292.19  76.36  282.94 292.18  76.75  283.32
  -2   1   8 233.087  63.214   1-0.18246-0.07296-0.88601 0.98542 0.42626 0.15368  0 224.94 103.15  154.05 225.02 103.13  154.12
  -2   1   8 102.028  97.966   2-0.07335-0.18163-0.87808 0.97754 0.47286 0.10690  0 231.58  98.98   81.55 231.60  98.72   81.88
  -2   1   8 182.349 144.473   2-0.14721-0.10772 0.98163-0.88212 0.12136 0.45854  0 456.14 395.55  298.61 456.15 395.56  298.62
   2  -1  -8 105.059  85.661   1-0.69862 0.95369-0.39987 0.30053-0.59333 0.01278  0 386.21 434.91   77.45 386.15 434.78   77.35
   2  -1  -8 294.356 147.657   2 0.04579 0.20923-0.98523 0.88569-0.16502-0.41445  0 368.79 438.78  120.31 368.72 438.62  120.33
   2  -1  -8 216.250  99.865   2-0.02735 0.28228 0.85753-0.95704-0.51370-0.06620  0 171.12 153.33  260.58 171.29 153.30  260.20
   2  -1   8 204.337  91.607   1-0.27631 0.53164-0.90584 0.80646 0.32111 0.25882  0 140.63 232.05  145.58 140.20 231.85  145.97
   2  -1   8 135.909  79.848   2-0.01725 0.27223-0.98089 0.88143 0.19379 0.38596  0 145.26 205.94   99.10 145.32 206.05   99.29
   2   1  -8 120.122 112.683   1-0.68080 0.93587-0.23426 0.33359-0.69400 0.11345  0 433.07 413.22   65.91 433.28 413.28   66.18
   2   1  -8  72.525 139.111   2 0.09024 0.16479-0.88023 0.97977-0.46589-0.11359  0 363.98 439.93  138.60 364.05 439.61  138.79
   2   1  -8 143.558  87.173   2-0.08590 0.34083 0.97039-0.87088-0.22577-0.35414  0 169.43 156.67  278.41 168.96 156.63  278.29
   2   1   8 162.834  87.297   1-0.07483 0.33025-0.84327 0.94269 0.53225 0.04769  0 144.93 209.73  163.50 144.84 209.90  163.12
   2   1   8 139.736  76.157   2-0.08741 0.34238-0.83912 0.93858 0.53687 0.04288  0 144.25 210.28   77.65 144.03 210.54   77.52
   2   1   8 -24.428  93.503   2-0.17016 0.42505 0.94863-0.84916 0.26672 0.31347  2 293.65 439.97  307.42 293.77 440.23  307.30
  -2  -1  -9 695.083 168.480   2-0.02951-0.22542 0.86334-0.96286-0.50375-0.14864  0 289.01  49.18  260.77 288.97  49.41  260.87
  -2  -1   9 926.095 119.725   1-0.46195 0.20662-0.88428 0.78490 0.06825 0.58416  0 175.40 112.99  127.74 175.48 113.15  127.86
  -2  -1   9 832.897 147.443   2-0.02328-0.23170-0.97387 0.87441 0.22593 0.42629  0 218.48  77.71   97.21 218.44  77.81   97.38
  -2  -1   9 781.194 201.480   2-0.19519-0.05970 0.87603-0.97550 0.44099 0.21173  0 479.97 422.83  318.43 480.34 423.03  318.26
  -2   1  -9 955.967 174.971   2-0.09090-0.16403 0.97573-0.87621-0.19924-0.45315  0 283.38  50.70  279.70 283.64  50.67  279.87
  -2   1   9  1102.6   122.1   1-0.15213-0.10329-0.87599 0.97540 0.45771 0.19472  0 209.34  84.09  156.62 209.42  84.20  156.68
  -2   1   9 922.243 147.868   2-0.07626-0.17871-0.87038 0.96983 0.48645 0.16578  0 214.71  79.94   80.99 214.70  80.12   80.97
  -2   1   9 770.216 207.495   2-0.15578-0.09911 0.97222-0.87275 0.17471 0.47801  0 476.20 426.62  301.93 476.05 426.37  301.76
   2  -1  -9 696.559 125.720   1-0.69848 0.95354-0.39524 0.29591-0.59658-0.05653  0 407.09 462.66   76.94 407.15 462.43   77.03
   2  -1  -9 746.354 203.701   2 0.05344 0.20159-0.97546 0.87592-0.21360-0.43832  0 388.51 466.53  122.94 388.63 466.58  123.19
   2  -1  -9 840.727 144.338   2-0.02524 0.28017 0.85173-0.95124-0.52337-0.12901  0 157.89 133.38  259.49 157.90 133.35  259.54
   2  -1   9 828.776 136.070   1-0.25504 0.51037-0.90290 0.80352 0.34602 0.30640  0 120.93 219.63  147.73 120.59 219.75  147.85
   2  -1   9 696.282 119.280   2-0.02720 0.28217-0.96878 0.86932 0.24643 0.40579  0 126.60 193.89   96.25 126.55 193.81   96.15
   2  -1   9 934.571 168.963   2-0.21361 0.46850 0.78148-0.88096 0.58622 0.06650  2 306.05 470.34  327.80 305.79 470.51  328.29
   2   1  -9 572.122 155.360   1-0.68286 0.93793-0.24574 0.34508-0.68798 0.03486  0 456.89 439.88   67.03 457.02 440.04   66.93
   2   1  -9 610.876 189.649   2 0.09224 0.16279-0.87212 0.97166-0.48051-0.17140  0 383.68 468.07  139.95 383.60 467.73  139.75
   2   1  -9 869.377 143.896   2-0.07799 0.33292 0.96037-0.86086-0.26758-0.38481  0 155.76 136.78  276.15 155.40 136.74  275.80
   2   1   9 880.357 136.579   1-0.06804 0.32346-0.83993 0.93935 0.53841 0.11402  0 126.49 196.74  163.95 126.27 196.83  163.68
   2   1   9 890.463 124.210   2-0.08920 0.34417-0.83336 0.93282 0.54548 0.10674  0 125.19 198.33   76.62 125.11 198.34   76.93
  -2  -1 -10  2412.7   246.1   2-0.02551-0.22942 0.85247-0.95198-0.52215-0.20272  0 279.79  19.13  259.61 279.94  19.07  259.62
  -2  -1  10  3074.6   201.7   1-0.40993 0.15461-0.90029 0.80091 0.14642 0.57849  0 158.40  93.07  133.34 158.43  93.01  133.32
  -2  -1  10  3017.0   266.8   2-0.03196-0.22301-0.96212 0.86266 0.27074 0.45396  0 199.73  56.35   94.66 199.70  56.49   94.67
  -2   1 -10  2528.4   314.0   2-0.08073-0.17420 0.96400-0.86448-0.25336-0.47151  0 274.26  20.82  276.59 274.40  20.64  276.65
  -2   1  10  3079.5   176.1   1-0.11908-0.13634-0.86316 0.96257 0.49069 0.23423  0 192.84  61.79  159.33 192.99  61.87  159.46
  -2   1  10  3177.4   269.4   2-0.08003-0.17494-0.86004 0.95950 0.50390 0.22079  0 195.96  59.14   79.70 195.92  59.10   79.79
  -2   1  10  2190.3   287.6   2-0.16374-0.09115 0.96052-0.86104 0.22494 0.50030  0 500.16 463.21  304.96 500.02 463.01  304.79
   2  -1 -10  2093.7   244.0   1-0.69783 0.95290-0.37882 0.27948-0.60789-0.11780  0 430.52 496.23   76.03 430.72 496.33   75.88
   2  -1 -10  2963.2   304.6   2 0.06058 0.19445-0.96366 0.86413-0.26016-0.46419  0 412.03 500.47  126.04 411.94 500.25  125.97
   2  -1 -10  2579.5   247.4   2-0.02210 0.27703 0.84292-0.94243-0.53758-0.18729  0 142.65 111.12  258.54 142.51 111.10  258.56
   2  -1  10  3005.1   230.2   1-0.23164 0.48705-0.89859 0.79918 0.37266 0.35227  0  99.02 206.23  149.89  98.76 206.28  149.88
   2  -1  10  3177.9   220.8   2-0.03689 0.29186-0.95447 0.85501 0.29601 0.42868  0 105.45 180.59   93.23 105.27 180.71   93.13
   2   1 -10  1851.9   223.8   1-0.68283 0.93789-0.24555 0.34488-0.68808-0.03760  0 484.94 472.86   67.01 485.14 473.03   66.92
   2   1 -10  2853.2   293.0   2 0.09467 0.16036-0.86144 0.96098-0.49895-0.22540  2 406.43 501.58  141.00 406.49 501.52  140.98
   2   1 -10  2467.0   235.5   2-0.06997 0.32490 0.94866-0.84915-0.30847-0.41640  0 139.92 114.78  272.99 139.83 114.65  273.31
   2   1  10  2811.1   225.7   1-0.05658 0.31200-0.83416 0.93358 0.54861 0.17632  0 105.78 182.03  164.61 105.58 182.11  164.62
   2   1  10  3136.3   220.7   2-0.09234 0.34731-0.82364 0.92309 0.55955 0.16514  0 103.99 185.32   75.78 103.73 185.36   75.94
   2   1  10  2634.7   312.6   2-0.18289 0.43778 0.91771-0.81824 0.35264 0.37260  2 306.75 503.97  312.57 306.80 504.05  312.60
  -2  -1  11 365.159 140.464   1-0.35829 0.10296-0.90783 0.80845 0.21790 0.57950  0 139.46  68.64  138.60 139.34  69.00  138.40
  -2  -1  11 534.155 189.383   2-0.04049-0.21449-0.94847 0.84901 0.31428 0.48288  0 178.30  31.79   92.38 178.45  31.88   92.01
  -2   1  11 378.379 122.942   1-0.08304-0.17237-0.84715 0.94656 0.52483 0.27259  0 175.43  34.52  162.68 175.37  34.96  162.45
  -2   1  11 452.034 190.367   2-0.08462-0.17036-0.84737 0.94683 0.52422 0.27294  0 174.64  35.34   78.59 174.59  34.88   78.40
   2  -1 -11 670.340 185.117   2-0.01816 0.27309 0.83150-0.93102-0.55522-0.24214  0 124.33  85.88  257.28 124.52  85.80  257.34
   2  -1  11 426.019 162.932   1-0.20635 0.46176-0.89271 0.79329 0.40061 0.39681  0  74.33 190.92  152.05  74.22 190.93  152.07
   2  -1  11 651.570 149.162   2-0.04639 0.30137-0.93806 0.83860 0.34336 0.45380  0  80.68 166.44   90.36  80.76 166.47   90.20
   2   1 -11 477.931 178.921   2-0.06197 0.31690 0.93517-0.83565-0.34875-0.44862  0 122.02  89.66  271.07 121.63  89.57  270.83
   2   1  11 814.038 172.219   1-0.04132 0.29673-0.82608 0.92550 0.56204 0.23538  0  82.42 165.29  165.62  82.11 165.13  165.87
   2   1  11 528.930 143.780   2-0.09640 0.35138-0.81065 0.91011 0.57754 0.21962  0  79.83 171.32   74.66  79.14 171.35   74.65
  -2  -1  12 387.584 162.975   1-0.30670 0.05137-0.90836 0.80898 0.28429 0.58559  0 117.48  40.20  142.99 117.65  39.69  143.22
   2  -1 -12 455.726 214.871   2-0.01362 0.26855 0.81768-0.91719-0.57551-0.29434  0 103.16  56.16  256.02 102.98  56.27  255.91
   2  -1  12 556.512 176.798   1-0.17926 0.43467-0.88504 0.78562 0.42962 0.44029  0  46.04 172.88  154.42  45.89 172.91  154.39
   2  -1  12 415.592 162.227   2-0.05574 0.31071-0.91953 0.82007 0.38906 0.48057  0  51.68 150.95   87.07  51.91 150.71   87.32
   2   1 -12  72.169 194.189   2-0.05388 0.30881 0.91986-0.82035-0.38853-0.48132  0 100.23  60.41  268.44  99.87  60.34  268.34
   2   1  12 494.549 185.310   1-0.02259 0.27801-0.81573 0.91515 0.57799 0.29192  0  54.94 144.89  167.44  54.95 145.01  167.40
   2   1  12 475.743 159.432   2-0.10116 0.35614-0.79476 0.89421 0.59844 0.27119  0  49.91 155.91   72.95  50.17 155.88   73.13
  -2  -2   0 12792.4   204.7   1-0.45850 0.20349 0.32581-0.52438-0.82682 0.82682  0 226.70 234.57   29.93 226.66 234.54   30.26
  -2  -2   0 14199.6   166.1   2-0.22594-0.02899 0.02684-0.22567 0.97377-0.97377  0 387.20 256.80   19.27 387.55 256.85   18.81
  -2  -2   0 13519.2   163.9   2 0.13179-0.38683-0.43192 0.23299-0.89223 0.89223  0 327.97 180.38  175.40 328.07 180.52  174.97
  -2   2   0 11792.0   151.0   1-0.67820 0.42313-0.60764 0.80631-0.41331 0.41331  0 347.05 188.18   92.54 346.99 188.33   93.20
  -2   2   0 14595.8   185.1   2-0.22253-0.03239-0.02247 0.22131 0.97467-0.97467  0 316.42 177.93   21.65 316.54 178.05   21.65
  -2   2   0 14053.4   182.1   2 0.08054-0.33554 0.36608-0.16708-0.92709 0.92709  0 386.39 269.04  221.83 386.67 269.04  222.15
   2  -2   0  8461.3   130.4   1-0.47794 0.73327-0.87735 0.67859 0.04279-0.04279  0 256.29 322.67  125.81 256.24 322.66  126.09
   2  -2   0 14665.3   183.6   2-0.16953 0.42446-0.48020 0.28136 0.86062-0.86062  0 281.09 335.29   48.77 281.21 335.18   49.11
   2  -2   0 13549.2   174.2   2 0.12446 0.13059-0.10340-0.09553-0.98682 0.98682  0 223.21 250.20  194.73 223.07 250.11  194.67
   2   2   0  9528.4   181.8   1-0.25528 0.51030 0.59090-0.39233-0.76529 0.76529  0 383.22 284.45   10.98 383.31 284.42   10.72
   2   2   0 13256.4   158.3   2 0.10822 0.14678 0.12421 0.07479-0.98634 0.98634  0 270.02 331.15  207.89 270.14 331.00  207.75
   2   2   0 12103.8   148.9   2-0.23362 0.48851 0.56208-0.36313 0.79340-0.79340  0 222.88 261.39  345.93 222.79 261.34  345.72
  -2  -2  -1  9806.1   186.0   1-0.35500 0.09998 0.47415-0.67271-0.80570 0.73312  0 222.37 244.26   19.97 222.34 244.23   19.82
  -2  -2  -1 11674.9   150.6   2-0.18618-0.06874-0.36954 0.17070 0.91037-0.98292  0 389.62 253.84   41.72 389.99 253.90   42.09
  -2  -2  -1  9895.3   140.4   2 0.12275-0.37779-0.07289-0.12604-0.98976 0.91727  0 331.47 179.08  196.16 331.52 179.17  196.43
  -2  -2   1  8957.8   170.3   1-0.55828 0.30327 0.14187-0.34043-0.81743 0.89002  0 228.29 224.77   42.01 228.22 224.74   42.29
  -2  -2   1 10237.1   156.8   2 0.11969-0.37474-0.68980 0.49087-0.71404 0.78653  0 320.79 176.38  157.20 320.91 176.49  156.89
  -2   2  -1  8657.8   155.5   1-0.65380 0.39847-0.68246 0.88122-0.32680 0.25431  0 364.13 197.89  100.13 364.13 197.94   99.90
  -2   2  -1 10198.8   157.1   2-0.23712-0.01781 0.30822-0.10938 0.92129-0.99384  0 319.49 176.14    2.20 319.55 176.25    2.34
  -2   2  -1 10244.6   157.2   2 0.11371-0.36871 0.06057 0.13844-0.99167 0.91918  0 389.22 266.65  203.62 389.50 266.67  204.07
  -2   2   1  8720.2   106.5   1-0.69877 0.44370-0.40555 0.60422-0.58928 0.66185  0 329.97 178.46   77.83 329.94 178.57   77.75
  -2   2   1 10418.4   167.7   2-0.19386-0.06107-0.31185 0.51069 0.93014-0.85759  0 310.16 175.10   38.56 310.31 175.20   38.57
  -2   2   1  9579.0   160.5   2 0.03866-0.29366 0.61304-0.41404-0.78910 0.86159  0 387.69 276.25  238.64 387.92 276.24  238.61
   2  -2  -1  9426.6   110.8   1-0.45228 0.70761-0.88798 0.68922 0.08331-0.15580  0 271.21 333.76  128.93 271.34 333.69  128.91
   2  -2  -1  9865.9   161.9   2-0.12715 0.38212-0.69638 0.49746 0.70632-0.77879  0 287.06 338.99   64.57 287.16 338.89   64.60
   2  -2  -1 10016.9   159.6   2 0.10001 0.15499 0.20660-0.40560-0.97330 0.90081  0 222.13 243.85  212.59 221.99 243.81  212.56
   2  -2   1  9182.1   156.1   1-0.47896 0.73429-0.87687 0.67811 0.04114 0.03135  0 241.96 312.36  126.13 241.86 312.29  125.98
   2  -2   1  9342.7   148.0   2-0.20747 0.46239-0.19208-0.00675 0.95920-0.88665  0 278.09 336.55   31.44 278.19 336.45   31.48
   2  -2   1 10064.9   151.1   2 0.13178 0.12326-0.43226 0.23333-0.89207 0.96455  0 221.03 252.42  175.00 220.93 252.37  174.95
   2   2  -1  9272.0   176.8   1-0.36968 0.62469 0.45491-0.25635-0.81018 0.73759  0 381.37 295.48   20.89 381.27 295.43   21.22
   2   2  -1  9179.7   146.2   2 0.12998 0.12507-0.24094 0.43987-0.96180 0.88931  0 276.74 336.07  186.68 276.78 335.92  186.64
   2   2  -1  8291.4   135.2   2-0.21522 0.47011 0.77046-0.57151 0.60006-0.67259  0 220.97 253.89  329.13 220.90 253.87  329.30
   2   2   1 10245.7   136.2   2-0.23553 0.49046 0.23387-0.03503 0.94331-0.87076  0 221.09 264.12    6.96 220.96 264.07    6.79
   2   2   1  9729.2   135.7   2 0.05728 0.19772 0.51435-0.31535-0.85566 0.92815  0 266.63 331.86  231.81 266.76 331.69  231.70
  -2  -2  -2 47499.8   414.8   1-0.26255 0.00754 0.58314-0.78171-0.76877 0.62360  0 215.71 253.92   11.28 215.64 253.88   11.36
  -2  -2  -2 54848.0   447.8   1 0.02025-0.27567-0.78957 0.59074 0.61332-0.75831  0 397.51 252.65  171.03 397.80 252.66  170.91
  -2  -2  -2 55184.2   335.0   2-0.13205-0.12292-0.67520 0.47628 0.72572-0.87066  0 397.11 256.68   63.31 397.43 256.78   62.93
  -2  -2  -2 53610.3   332.1   2 0.09352-0.34852 0.26385-0.46286-0.96002 0.81504  0 331.02 172.06  216.27 331.04 172.17  215.95
  -2  -2   2 43530.5   368.2   1-0.63709 0.38202-0.05956-0.13911-0.76849 0.91362  0 226.99 214.75   54.84 226.92 214.75   55.00
  -2  -2   2 47917.2   357.1   2 0.09990-0.35492-0.83611 0.63704-0.53939 0.68426  0 311.19 168.76  143.75 311.34 168.84  143.72
  -2  -2   2 47054.8   352.2   2-0.23362-0.02127 0.56212-0.76107 0.79337-0.64833  0 395.03 277.55  345.88 395.35 277.58  345.72
  -2   2  -2 46003.0   377.8   1-0.63967 0.38434-0.71368 0.91244-0.28544 0.14046  0 382.01 207.52  103.05 381.94 207.61  102.97
  -2   2  -2 51176.4   351.3   2 0.12966-0.38471-0.22221 0.42114-0.96634 0.82137  0 396.37 269.22  187.83 396.65 269.28  187.76
  -2   2  -2 47751.3   340.9   2-0.23233-0.02256 0.58468-0.38573 0.77729-0.92234  0 319.19 169.61  343.89 319.23 169.72  344.13
  -2   2   2 46859.3   199.1   1-0.44191 0.18689 0.35186-0.15330-0.82517 0.97035  0 309.60 168.68   28.59 309.63 168.80   28.49
  -2   2   2 53786.4   395.1   2-0.16445-0.09053-0.51021 0.70913 0.84418-0.69924  0 301.52 168.72   50.87 301.66 168.87   51.12
  -2   2   2 51363.5   384.8   2-0.00066-0.25427 0.77504-0.57602-0.63191 0.77688  0 392.17 287.29  252.01 392.37 287.27  251.78
   2  -2  -2 52573.0   213.8   1-0.27764 0.53297-0.90599 0.70723 0.31954-0.46452  0 290.30 345.87  145.76 290.37 345.76  145.85
   2  -2  -2 52634.3   386.6   2 0.07089 0.18411 0.43062-0.62962-0.89975 0.75477  0 218.50 234.45  226.09 218.41 234.40  226.21
   2  -2   2 41381.4   357.8   1-0.47049 0.72582-0.88070 0.68194 0.05477 0.09021  0 227.73 302.40  127.05 227.62 302.36  126.92
   2  -2   2 51313.1   347.4   2-0.22986 0.48478 0.09624-0.29507 0.96845-0.82336  0 278.05 342.98   15.10 278.14 342.88   14.82
   2  -2   2 50408.4   344.0   2 0.12011 0.13494-0.68527 0.48634-0.71832 0.86329  0 215.55 250.50  157.11 215.45 250.44  157.24
   2   2  -2 36832.9   338.7   1-0.46731 0.72233 0.31130-0.11273-0.82747 0.68230  0 382.88 306.90   30.93 382.98 306.89   31.24
   2   2  -2 47966.4   352.9   2 0.13095 0.12410-0.48303 0.68196-0.86576 0.72079  0 285.71 344.99  171.72 285.76 344.83  171.66
   2   2  -2 43704.0   336.4   2-0.19413 0.44902 0.88016-0.68122 0.43316-0.57821  0 216.52 243.31  317.91 216.46 243.30  317.75
   2   2   2 53543.5   322.3   2-0.21467 0.46960-0.11662 0.31545 0.96970-0.82460  0 215.32 261.83   26.55 215.21 261.76   27.08
   2   2   2 51492.6   317.8   2-0.00097 0.25590 0.77615-0.57712-0.63055 0.77553  0 266.78 338.60  251.99 266.90 338.43  251.88
  -2  -2  -3 35817.0   382.8   1-0.18754-0.06748 0.65810-0.85667-0.72920 0.51144  0 207.05 263.64    5.00 206.99 263.61    4.87
  -2  -2  -3 38663.9   397.3   1-0.08399-0.17142-0.84760 0.64876 0.52395-0.74143  0 409.43 263.95  162.32 409.63 263.93  162.37
  -2  -2  -3 36998.8   305.2   2-0.08480-0.17017-0.84684 0.64792 0.52505-0.74246  0 408.80 263.97   78.11 409.11 264.03   78.34
  -2  -2  -3 36745.6   305.7   2 0.06144-0.31644 0.48987-0.68887-0.86963 0.65217  0 327.68 160.63  229.72 327.70 160.75  230.06
  -2  -2   3 28369.2   306.7   1-0.68415 0.42908-0.25342 0.05475-0.68390 0.90160  0 222.91 204.43   67.35 222.77 204.43   67.44
  -2  -2   3 35684.7   344.3   2 0.08032-0.33535-0.91528 0.71621-0.39473 0.61203  0 300.20 158.88  133.89 300.37 158.99  134.23
  -2  -2   3 31653.6   323.4   2-0.22582-0.02907 0.67537-0.87432 0.70205-0.48448  0 402.89 292.41  337.34 403.20 292.42  337.34
  -2   2  -3 32850.0   353.0   1-0.63358 0.37825-0.72552 0.92429-0.26868 0.05121  0 400.63 217.40  103.99 400.90 217.49  104.20
  -2   2  -3 35405.6   318.9   2 0.13184-0.38688-0.42705 0.62598-0.89457 0.67711  0 407.29 275.86  175.17 407.55 275.93  175.28
  -2   2  -3 30521.9   298.0   2-0.21575-0.03914 0.76665-0.56771 0.60473-0.82230  0 316.35 159.08  329.67 316.38 159.19  329.65
  -2   2   3 38091.5   365.4   2-0.14139-0.11358-0.63218 0.83110 0.76181-0.54441  0 291.27 159.92   59.68 291.44 160.05   59.67
  -2   2   3 35443.2   352.7   2-0.03295-0.22198 0.87235-0.67333-0.48777 0.70524  0 399.06 301.16  262.11 399.25 301.14  261.93
   2  -2  -3 18553.3   258.3   2-0.06049 0.31546-0.90927 0.71036 0.41178-0.62919  2 305.36 357.22   85.92 305.39 357.16   85.87
   2  -2  -3 38700.7   363.8   2 0.04667 0.20833 0.57256-0.77157-0.81853 0.60107  0 213.11 222.95  235.77 212.98 222.93  235.70
   2  -2   3 30854.1   341.4   1-0.45698 0.71231-0.88622 0.68746 0.07602 0.14146  0 213.34 292.72  128.33 213.25 292.70  128.40
   2  -2   3 35247.0   314.0   2-0.23725 0.49218 0.31846-0.51729 0.91777-0.70012  0 280.30 353.71    1.76 280.36 353.56    1.72
   2  -2   3 34284.0   308.0   2 0.09936 0.15566-0.83870 0.63963-0.53545 0.75276  0 207.34 245.31  143.22 207.23 245.28  143.46
   2   2  -3 29229.0   314.9   1-0.54148 0.79650 0.17641 0.02216-0.82200 0.60423  0 388.05 319.10   40.00 388.34 319.08   40.07
   2   2  -3 28628.6   303.3   2-0.17551 0.43040 0.93698-0.73803 0.30210-0.51968  0 210.42 230.96  309.50 210.34 230.91  309.46
   2   2   3 37423.4   300.3   2-0.18547 0.44040-0.37463 0.57346 0.90844-0.69079  0 206.51 255.92   42.16 206.44 255.85   42.40
   2   2   3 35086.4   293.3   2-0.04652 0.30145 0.90446-0.70544-0.42400 0.64147  0 269.46 350.10  265.87 269.55 349.91  266.09
  -2  -2  -4  3747.3   163.0   1-0.17484-0.08058-0.88365 0.68482 0.43427-0.72425  0 424.04 275.93  154.74 424.24 275.89  154.76
  -2  -2  -4  3845.0   130.0   2-0.04940-0.20557-0.93242 0.73351 0.35797-0.64785  0 423.69 274.20   89.29 423.96 274.26   89.29
  -2  -2  -4  3980.2   135.9   2 0.03721-0.29221 0.62004-0.81905-0.78369 0.49373  0 322.69 146.24  239.09 322.71 146.35  239.12
  -2  -2   4  3021.1   124.8   1-0.69897 0.44390-0.42168 0.22301-0.57761 0.86788  0 216.34 193.65   78.77 216.17 193.68   78.89
  -2  -2   4  3688.0   153.4   2 0.06316-0.31818-0.95863 0.75956-0.27756 0.56730  0 288.30 147.52  126.93 288.48 147.57  127.02
  -2  -2   4  3211.0   145.6   2-0.21937-0.03552 0.73775-0.93669 0.63844-0.34834  0 412.46 309.30  332.02 412.79 309.29  332.21
  -2   2  -4  3317.1   154.2   1-0.63280 0.37747-0.72697 0.92573-0.26662-0.02334  0 421.21 227.76  104.26 421.41 227.76  104.35
  -2   2  -4  3514.7   134.8   2 0.12859-0.38364-0.55688 0.75581-0.82058 0.53064  0 421.41 285.52  166.72 421.62 285.53  166.68
  -2   2  -4  3158.2   130.2   2-0.19585-0.05904 0.87343-0.67448 0.44583-0.73593  0 311.75 145.61  318.59 311.83 145.71  318.58
  -2   2   4  3851.1   156.1   2-0.12523-0.12975-0.70447 0.90339 0.69860-0.40872  0 279.98 149.37   65.01 280.11 149.49   65.25
  -2   2   4  3499.1   152.0   2-0.05884-0.19609 0.92941-0.73039-0.36433 0.65428  0 407.89 317.31  269.77 408.01 317.29  269.86
   2  -2  -4  4015.5   158.7   2-0.03705 0.29203-0.95420 0.75528 0.29687-0.58674  0 316.68 370.33   92.92 316.71 370.20   93.08
   2  -2  -4  3600.8   140.1   2 0.02887 0.22612 0.65854-0.85755-0.75199 0.46204  0 206.32 210.04  242.12 206.22 210.00  242.02
   2  -2   4  3414.5   140.4   1-0.44023 0.69556-0.89211 0.69335 0.10165 0.18831  0 198.60 283.11  130.27 198.52 283.13  130.19
   2  -2   4  3504.7   122.5   2 0.07780 0.17722-0.92290 0.72383-0.37709 0.66683  0 197.06 238.06  133.14 196.97 238.01  133.13
   2  -2   4  3221.3   129.6   2-0.23673 0.49165 0.46613-0.66497 0.85246-0.56223  0 284.00 367.75  352.11 284.09 367.60  352.17
   2   2  -4  2775.6   129.5   1-0.59285 0.84787 0.06274 0.13583-0.80286 0.51252  0 396.85 332.37   46.90 397.11 332.32   47.31
   2   2  -4  3540.8   149.5   2 0.11856 0.13648-0.70170 0.90063-0.70254 0.41259  0 307.79 370.40  155.84 307.81 370.31  155.94
   2   2  -4  3062.2   127.0   2-0.15941 0.41430 0.96716-0.76821 0.19796-0.48806  0 203.08 217.46  302.92 203.00 217.37  303.16
   2   2   4  3663.8   116.4   2-0.16070 0.41567-0.53171 0.73063 0.83154-0.54166  0 195.73 247.93   52.69 195.62 247.92   52.57
   2   2   4  3536.0   126.1   2-0.07843 0.33336 0.96097-0.76195-0.26530 0.55525  0 273.53 364.84  276.31 273.57 364.65  275.93
  -2  -2  -5  8499.8   226.6   1-0.25344-0.00189-0.90264 0.70388 0.34786-0.71032  0 441.53 288.91  147.99 441.69 288.89  147.99
  -2  -2  -5  7615.1   187.6   2-0.02320-0.23178-0.97396 0.77505 0.22552-0.58786  0 441.40 286.59   97.42 441.66 286.64   97.40
  -2  -2  -5  7505.2   191.5   2 0.02088-0.27588 0.69292-0.89193-0.72071 0.35827  0 316.68 129.58  244.77 316.75 129.74  244.74
  -2  -2   5  6334.0   174.5   1-0.68872 0.43366-0.55726 0.35859-0.46381 0.82665  0 207.58 182.23   89.00 207.43 182.28   89.06
  -2  -2   5  7554.3   217.4   2 0.04825-0.30328-0.98241 0.78333-0.18042 0.54260  0 275.67 134.80  120.93 275.85 134.91  121.23
  -2  -2   5  6462.9   208.5   2-0.21498-0.03991 0.77214-0.97109 0.59798-0.23536  0 423.81 328.12  328.98 424.02 328.08  329.15
  -2   2  -5  7197.2   222.8   1-0.63551 0.38019-0.72190 0.92066-0.27384-0.08861  0 443.84 238.67  103.97 443.98 238.67  103.82
  -2   2  -5  7248.9   198.1   2 0.12413-0.37917-0.63575 0.83468-0.76185 0.39942  0 438.32 297.47  160.99 438.56 297.51  161.04
  -2   2  -5  6655.7   193.7   2-0.17685-0.07804 0.93376-0.73482 0.31114-0.67376  0 306.14 129.72  310.00 306.17 129.89  310.02
  -2   2   5  7920.3   226.3   2-0.11450-0.14047-0.74694 0.94586 0.65496-0.29261  0 267.70 137.37   68.84 267.85 137.51   68.79
  -2   2   5  7355.5   219.6   2-0.07964-0.17529 0.96257-0.76355-0.25907 0.62150  0 418.32 335.62  276.24 418.47 335.57  276.31
   2  -2  -5  6836.1    66.4   1-0.45450 0.70952 0.33220-0.53076-0.82648 0.46355  0 286.74 383.95   29.94 286.84 383.74   29.83
   2  -2  -5  4882.9    58.5   1-0.69761 0.95268-0.37458 0.17591-0.61076 0.24792  0 314.25 386.71   75.65 314.41 386.55   75.59
   2  -2  -5  7982.1   226.1   2-0.01832 0.27329-0.97973 0.78082 0.19947-0.56182  0 329.26 385.61   98.93 329.25 385.49   98.95
   2  -2  -5  7921.8   208.5   2 0.01664 0.23836 0.71020-0.90921-0.70380 0.34136  0 198.37 195.89  246.00 198.30 195.89  246.15
   2  -2   5  7093.8   205.2   1-0.42117 0.67650-0.89760 0.69884 0.13012 0.23233  0 183.31 273.50  132.25 183.25 273.51  132.18
   2  -2   5  7808.1   187.1   2 0.05860 0.19643-0.96717 0.76810-0.24728 0.60946  0 185.18 229.39  125.17 185.10 229.40  125.20
   2  -2   5  6908.2   192.4   2-0.23381 0.48870 0.55821-0.75716 0.79607-0.43345  0 288.58 384.46  346.08 288.71 384.32  345.99
   2   2  -5  5776.8   184.0   1-0.62590 0.88096-0.02564 0.22431-0.77948 0.41664  0 408.77 347.01   52.84 409.04 346.99   52.86
   2   2  -5  7365.3   215.8   2 0.11361 0.14144-0.74666 0.94559-0.65543 0.29300  0 320.47 386.35  152.23 320.40 386.20  152.21
   2   2  -5  6433.8   187.8   2-0.14580 0.40073 0.98299-0.78396 0.11171-0.47415  0 194.67 202.87  297.99 194.64 202.84  298.06
   2   2   5  8127.3   182.8   2-0.14318 0.39815-0.62356 0.82248 0.76855-0.40621  0 183.34 238.82   59.00 183.29 238.80   59.03
   2   2   5  6879.3   182.6   2-0.10116 0.35609 0.98441-0.78539-0.14389 0.50633  0 278.32 382.12  283.04 278.35 381.95  283.14
  -2  -2  -6 29650.6   428.2   1-0.32123 0.06590-0.90885 0.71009 0.26607-0.70102  0 462.08 303.33  142.09 462.19 303.27  141.89
  -2  -2  -6 28038.2   368.1   2-0.00294-0.25208-0.99291 0.79384 0.11880-0.55341  0 462.08 300.89  103.88 462.17 300.84  103.76
  -2  -2  -6 27430.0   367.2   2 0.01082-0.26582 0.73343-0.93243-0.67968 0.24475  0 310.09 110.88  247.89 310.18 111.09  248.09
  -2  -2   6 24236.1   335.8   1-0.66176 0.40670-0.66196 0.46329-0.35197 0.78738  0 197.03 169.98   97.99 196.86 170.06   97.98
  -2  -2   6 27757.5   409.7   2 0.03485-0.28988-0.99463 0.79556-0.09741 0.53202  0 262.27 120.80  116.23 262.48 120.97  116.37
  -2  -2   6 23448.8   379.2   2-0.21228-0.04261 0.79035-0.98930 0.57471-0.13956  0 436.74 349.05  327.47 437.02 349.03  327.44
  -2   2  -6 24644.6   399.8   1-0.64038 0.38505-0.71226 0.91102-0.28740-0.14755  0 469.10 250.53  103.03 469.23 250.52  102.83
  -2   2  -6 26589.2   369.7   2 0.12033-0.37537-0.68281 0.88174-0.72062 0.28570  0 458.22 311.59  157.40 458.45 311.62  157.44
  -2   2  -6 24098.6   356.5   2-0.15940-0.09549 0.96718-0.76824 0.19786-0.63300  0 299.72 111.75  302.97 299.76 111.91  303.15
  -2   2   6 30766.0   423.9   2-0.10798-0.14700-0.77133 0.97025 0.62721-0.19240  0 254.84 123.97   71.04 254.72 124.17   70.96
  -2   2   6 25891.9   401.9   2-0.09673-0.15820 0.98104-0.78202-0.16791 0.60284  0 430.62 356.20  281.82 430.70 356.16  281.72
   2  -2  -6 26420.1   188.6   1-0.23269 0.48771 0.61428-0.81284-0.75400 0.31848  0 268.71 397.50    8.80 268.77 397.26    8.75
   2  -2  -6 17521.3   158.2   1-0.69638 0.95144-0.49465 0.29597-0.51998 0.08457  0 333.80 404.84   84.29 333.94 404.70   84.22
   2  -2  -6 28534.8   418.7   2-0.00240 0.25743-0.99327 0.79420 0.11583-0.55044  0 343.23 403.36  104.02 343.16 403.12  103.94
   2  -2  -6 27207.1   396.2   2 0.00887 0.24612 0.74091-0.93991-0.67155 0.23662  0 189.32 180.61  248.78 189.24 180.63  248.74
   2  -2   6 26480.1   401.2   1-0.40012 0.65545-0.90232 0.70356 0.16038 0.27457  0 167.24 263.66  134.17 167.21 263.66  134.31
   2  -2   6 26850.4   358.9   2 0.04173 0.21330-0.98929 0.79022-0.13990 0.57451  0 171.81 219.82  118.90 171.75 219.82  118.85
   2  -2   6  18.267  68.294   2-0.23056 0.48545 0.61511-0.81405 0.75398-0.31884  2 293.70 403.68  342.13 293.96 403.70  341.92
   2   2  -6 19703.8   319.3   1-0.64643 0.90149-0.09028 0.28895-0.75761 0.32220  0 423.70 363.60   56.99 424.03 363.58   56.94
   2   2  -6 27368.9   406.4   2 0.11039 0.14465-0.77191 0.97084-0.62607 0.19116  0 334.27 404.59  150.06 334.23 404.38  149.99
   2   2  -6 24957.1   375.8   2-0.13330 0.38823 0.99037-0.79135 0.03735-0.47228  0 185.27 187.37  293.76 185.21 187.35  293.71
   2   2   6 29037.7   361.4   2-0.13173 0.38670-0.67662 0.87554 0.72445-0.28964  0 169.62 228.92   62.73 169.57 228.93   63.04
   2   2   6 26191.4   353.0   2-0.11877 0.37370 0.99183-0.79281-0.04654 0.48146  0 283.52 401.90  288.92 283.55 401.65  288.82
  -2  -2  -7 899.847 155.811   1-0.37972 0.12440-0.90561 0.70685 0.18891-0.69634  0 486.16 319.60  136.39 486.27 319.54  136.33
  -2  -2  -7 974.998 132.463   2 0.01339-0.26842-0.99949 0.80042 0.02894-0.53598  0 485.92 317.09  108.99 486.25 317.16  109.01
  -2  -2  -7 946.061 129.211   2 0.00484-0.25977 0.75523-0.95426-0.65544 0.14803  0 303.01  90.17  249.66 303.10  90.29  249.99
  -2  -2   7 740.511  99.624   1-0.62541 0.37008-0.73995 0.54119-0.24765 0.75508  0 184.81 156.53  105.67 184.81 156.69  105.73
  -2  -2   7 751.220 115.698   2 0.02254-0.27757-0.99945 0.80038-0.02432 0.53137  0 248.10 105.65  112.34 248.20 105.64  112.10
  -2  -2   7 630.607 144.846   2-0.21097-0.04392 0.79851-0.99746 0.56380-0.05613  0 451.94 372.62  326.75 452.09 372.61  326.66
  -2   2  -7 624.870 146.973   1-0.64666 0.39133-0.69902 0.89778-0.30530-0.20213  0 497.68 263.62  101.51 498.00 263.73  101.51
  -2   2  -7 856.958 132.457   2 0.11773-0.37277-0.70997 0.90890-0.69432 0.18692  0 481.74 327.93  155.26 481.80 328.01  155.27
  -2   2  -7 660.974 119.362   2-0.14407-0.11086 0.98433-0.78531 0.10169-0.60910  0 292.77  91.62  297.43 292.82  91.74  297.47
  -2   2   7 962.934 124.520   2-0.10425-0.15073-0.78412 0.98304 0.61179-0.10451  0 240.63 109.20   71.99 240.59 109.40   72.13
  -2   2   7 644.518 146.187   2-0.11148-0.14345 0.98991-0.79088-0.08750 0.59491  0 444.68 379.45  286.31 444.95 379.47  286.44
   2  -2  -7 581.175  66.374   1-0.69498 0.95005-0.51077 0.31210-0.50608-0.00190  0 351.58 425.25   85.52 351.63 425.33   85.44
   2  -2  -7 839.186 146.919   2 0.01117 0.24386-0.99909 0.80002 0.04113-0.54818  0 358.75 423.84  108.26 358.68 423.58  108.31
   2  -2  -7 909.239 117.752   2 0.00405 0.25088 0.75812-0.95714-0.65210 0.14469  0 178.71 163.99  249.91 178.99 164.05  250.25
   2  -2   7 643.454 109.981   1-0.37748 0.63281-0.90590 0.70714 0.19198 0.31545  0 150.21 253.40  136.48 150.15 253.42  136.55
   2  -2   7 741.716  99.413   2 0.02682 0.22821-0.99845 0.79938-0.04875 0.55580  0 156.99 209.35  113.44 156.85 209.46  113.53
   2   2  -7 572.422 123.692   1-0.65868 0.91375-0.13465 0.33332-0.74027 0.23230  0 442.15 382.55   59.61 442.22 382.71   59.76
   2   2  -7 807.811 146.278   2 0.10835 0.14667-0.78471 0.98378-0.61032 0.10328  0 349.43 425.27  148.98 349.46 425.24  148.77
   2   2  -7 662.516 105.711   2-0.12191 0.37684 0.99212-0.79310-0.02888-0.47853  0 174.75 170.92  290.02 174.60 170.71  289.85
   2   2   7 912.573 121.556   1 0.04783 0.20759-0.77103 0.96987 0.63500-0.12755  0 157.12 210.40  173.36 157.16 210.52  173.18
   2   2   7 688.785  90.649   2-0.12470 0.37968-0.70665 0.90556 0.69649-0.18921  0 154.06 218.40   65.39 154.38 218.43   65.42
   2   2   7 665.808 111.468   2-0.13290 0.38783 0.99051-0.79149 0.03504 0.47237  0 288.93 424.35  293.56 289.03 424.05  293.57
  -2  -2  -8  3102.5   236.7   2 0.00207-0.25700 0.76528-0.96430-0.64369 0.06379  0 295.56  66.62  250.99 295.56  66.90  250.89
  -2  -2   8  3252.8   177.1   1-0.58301 0.32768-0.79847 0.59971-0.15012 0.73005  0 170.89 141.58  112.75 170.97 141.76  112.69
  -2  -2   8  3333.2   208.7   2 0.01107-0.26609-0.99907 0.80000 0.04171 0.53777  0 232.89  88.46  108.09 232.79  88.68  108.28
  -2  -2   8  2931.1   273.7   2-0.21074-0.04415 0.79991-0.99886 0.56190 0.01829  0 469.48 399.57  326.56 469.75 399.57  326.52
  -2   2  -8  3241.1   230.0   2-0.12988-0.12506 0.99138-0.79236 0.01720-0.59710  0 285.06  68.83  292.52 285.17  68.96  292.54
  -2   2   8  3432.4   216.3   2-0.10281-0.15216-0.78910 0.98802 0.60560-0.02585  0 225.29  92.78   72.55 225.22  92.97   72.59
  -2   2   8  3413.2   275.8   2-0.12432-0.13061 0.99213-0.79311-0.01502 0.59492  0 461.62 406.23  290.70 461.71 406.24  290.65
   2  -2  -8  2434.2   137.6   1-0.69591 0.95098-0.50083 0.30216-0.51466-0.06589  0 369.82 449.48   84.91 369.85 449.49   84.68
   2  -2  -8  3665.0   283.0   2 0.02294 0.23209-0.99938 0.80031-0.02664-0.55284  0 376.40 447.68  112.01 376.26 447.50  112.23
   2  -2  -8  3468.2   214.0   2 0.00176 0.25317 0.76638-0.96540-0.64239 0.06249  0 167.43 145.97  250.70 167.33 145.98  250.99
   2  -2   8  3116.1   193.4   1-0.35329 0.60862-0.90817 0.70941 0.22452 0.35541  0 131.70 242.56  138.93 131.75 242.53  138.88
   2  -2   8  3508.1   188.0   2 0.01303 0.24200-0.99944 0.80036 0.03098 0.54850  0 140.24 198.30  108.79 140.22 198.35  108.89
   2  -2   8  3164.5   234.2   2-0.22643 0.48132 0.66812-0.86707 0.70876-0.12857  2 305.69 451.55  338.03 305.74 451.40  337.91
   2   2  -8  2421.8   205.6   1-0.66564 0.92070-0.16251 0.36118-0.72836 0.14782  0 463.60 405.23   61.56 463.91 405.21   61.54
   2   2  -8  3443.4   271.7   2 0.10761 0.14742-0.78970 0.98877-0.60398 0.02450  0 366.59 449.70  148.11 366.62 449.52  148.31
   2   2  -8  3275.4   201.8   2-0.11115 0.36608 0.98978-0.79076-0.08931-0.49059  0 162.59 152.62  286.21 162.64 152.69  286.33
   2   2   8  3489.6   200.5   1 0.03990 0.21551-0.77644 0.97527 0.62893-0.04899  0 140.91 197.97  172.52 140.98 198.05  172.53
   2   2   8  3546.5   181.8   2-0.12091 0.37589-0.72219 0.92111 0.68104-0.10129  0 137.55 207.28   66.69 137.46 207.32   66.70
  -2  -2  -9  6701.1   323.6   2 0.00145-0.25638 0.76749-0.96651-0.64106-0.01132  0 287.41  39.94  250.99 287.48  40.26  251.09
  -2  -2   9  7036.7   246.9   1-0.53773 0.28240-0.84096 0.64220-0.06020 0.71262  0 155.38 124.76  118.84 155.42 124.81  118.95
  -2  -2   9  7029.6   298.1   2 0.00007-0.25510-0.99473 0.79566 0.10251 0.54940  0 215.92  69.39  104.67 215.90  69.64  104.71
  -2  -2   9  6689.1   390.0   2-0.21132-0.04357 0.79639-0.99534 0.56666 0.08605  0 490.74 431.18  327.03 490.81 431.04  326.86
  -2   2  -9  6354.1   322.7   2-0.11669-0.13824 0.99146-0.79243-0.05830-0.59409  0 276.66  42.68  288.07 276.82  42.95  288.14
  -2   2   9  7089.8   299.3   2-0.10301-0.15196-0.78841 0.98733 0.60646 0.04576  0 208.35  74.29   72.48 208.29  74.50   72.53
  -2   2   9  5979.6   370.0   2-0.13569-0.11924 0.98941-0.79039 0.05150 0.60089  0 481.73 437.68  294.56 481.72 437.61  294.53
   2  -2  -9  4594.4   192.0   1-0.69750 0.95256-0.47850 0.27982-0.53342-0.11969  0 388.94 478.39   83.05 389.34 478.42   83.01
   2  -2  -9  7807.1   382.1   2 0.03348 0.22155-0.99545 0.79638-0.08916-0.56275  0 396.46 476.31  115.77 396.57 475.97  115.89
   2  -2  -9  7169.1   295.9   2 0.00125 0.25368 0.76819-0.96721-0.64022-0.01217  0 153.91 125.89  251.31 153.99 126.00  251.15
   2  -2   9  7224.1   277.9   1-0.32761 0.58294-0.90898 0.71022 0.25774 0.39468  0 111.75 230.70  141.27 111.64 230.74  141.28
   2  -2   9  7001.7   262.5   2 0.00009 0.25494-0.99474 0.79567 0.10244 0.54947  0 121.78 186.31  104.68 121.48 186.41  104.72
   2  -2   9  6136.4   314.5   2-0.22571 0.48060 0.67667-0.87562 0.70083-0.04812  0 312.16 481.26  337.23 312.28 481.13  337.24
   2   2  -9  4768.5   273.0   1-0.66906 0.92412-0.17721 0.37588-0.72178 0.06866  0 489.68 432.42   62.45 489.87 432.38   62.48
   2   2  -9  6309.1   361.7   2 0.10773 0.14730-0.78891 0.98798-0.60499-0.04692  0 386.16 478.58  148.35 386.29 478.27  148.38
   2   2  -9  6280.1   281.8   2-0.10086 0.35579 0.98420-0.78518-0.14552-0.50686  0 148.89 132.87  283.00 148.97 132.87  283.04
   2   2   9  7317.7   280.3   1 0.03903 0.21639-0.77717 0.97600 0.62808 0.02436  0 123.19 184.06  172.42 122.95 184.22  172.46
   2   2   9  7222.8   260.8   2-0.11945 0.37442-0.72806 0.92698 0.67503-0.02280  0 118.77 195.48   67.13 118.47 195.51   67.19
  -2  -2 -10  4631.0   349.7   2 0.00242-0.25735 0.76400-0.96303-0.64521-0.07967  2 278.56   9.33  250.85 278.71   9.36  250.77
  -2  -2  10  4929.9   250.2   1-0.49003 0.23471-0.87140 0.67264 0.02314 0.70177  0 137.72 104.97  124.83 137.90 105.18  124.73
  -2  -2  10  4750.4   299.5   2-0.01050-0.24453-0.98715 0.78808 0.15943 0.56492  0 196.99  47.66  101.11 197.05  47.97  101.37
  -2   2 -10  3852.5   359.8   2-0.10426-0.15067 0.98640-0.78737-0.12709-0.59778  0 267.49  12.36  283.99 267.64  12.77  284.12
  -2   2  10  5211.1   315.0   2-0.10447-0.15051-0.78333 0.98225 0.61276 0.11193  0 189.39  53.39   72.34 189.31  53.44   72.06
   2  -2 -10  4670.5   296.3   2 0.00212 0.25281 0.76510-0.96412-0.64391-0.08097  0 138.58 103.54  250.77 138.51 103.54  250.87
   2  -2  10  4759.1   265.2   1-0.30074 0.55607-0.90803 0.70926 0.29163 0.43328  0  89.62 217.63  143.69  89.29 217.67  143.76
   2  -2  10  4417.3   253.6   2-0.01204 0.26707-0.98576 0.78669 0.16775 0.55660  0 100.42 173.31  101.03 100.07 173.42  100.88
   2   2 -10  4492.7   287.6   2-0.09101 0.34594 0.97583-0.77681-0.19867-0.52621  0 133.14 110.68  279.97 133.14 110.71  279.90
   2   2  10  4931.2   265.4   1 0.04350 0.21192-0.77400 0.97283 0.63169 0.09324  0 102.85 168.38  172.77 102.65 168.49  172.83
   2   2  10  4723.6   252.9   2-0.11973 0.37470-0.72696 0.92587 0.67616 0.04853  0  97.05 182.75   67.00  96.83 182.82   67.10
  -2  -2  11  5400.3   285.8   1-0.44073 0.18540-0.89195 0.69319 0.10090 0.69650  0 118.15  81.89  130.14 117.94  81.83  130.14
  -2  -2  11  5018.4   363.4   2-0.02101-0.23396-0.97666 0.77775 0.21375 0.58341  0 175.48  22.49   98.00 175.43  22.78   98.10
  -2   2  11  5737.2   368.8   2-0.10705-0.14793-0.77467 0.97359 0.62324 0.17392  0 167.48  28.65   71.33 167.58  29.01   71.26
   2  -2 -11  5555.2   348.6   2 0.00407 0.25086 0.75805-0.95707-0.65218-0.14518  0 120.30  77.54  249.99 120.26  77.77  250.24
   2  -2  11  5479.8   298.7   1-0.27229 0.52762-0.90536 0.70659 0.32587 0.47153  0  63.98 202.73  146.26  63.92 202.80  146.32
   2  -2  11  5432.8   299.9   2-0.02386 0.27883-0.97314 0.77422 0.22898 0.56818  0  75.29 159.09   96.96  75.19 159.12   97.19
   2   2 -11  4393.3   331.2   2-0.08148 0.33641 0.96495-0.76593-0.24947-0.54789  0 114.85  85.41  277.01 114.46  85.36  276.89
   2   2  11  5907.4   310.4   1 0.05295 0.20247-0.76753 0.96636 0.63882 0.15860  0  79.62 150.08  173.58  79.43 150.22  173.60
   2   2  11  5594.0   288.3   2-0.12134 0.37631-0.72049 0.91940 0.68277 0.11439  0  72.24 168.86   66.56  71.75 168.97   66.56
  -2  -2  12  8601.2   366.5   1-0.39046 0.13513-0.90404 0.70528 0.17395 0.69593  0  94.78  53.28  135.26  94.81  53.30  135.27
   2  -2  12  8467.7   402.6   1-0.24254 0.49786-0.90067 0.70191 0.36052 0.50937  0  34.57 185.39  149.01  34.49 185.45  148.95
   2  -2  12  9606.2   392.2   2-0.03497 0.28994-0.95754 0.75862 0.28617 0.58346  0  46.09 142.90   93.68  45.70 143.08   93.73
   2   2 -12  7899.5   435.9   2-0.07198 0.32691 0.95173-0.75270-0.29839-0.57146  0  92.26  55.74  273.98  91.98  55.69  273.92
   2   2  12  9092.3   375.2   2-0.12400 0.37898-0.70959 0.90851 0.69361 0.17602  0  42.46 153.51   65.64  42.06 153.59   65.67
  -2  -3   0  24.222  44.778   1-0.53120 0.27618 0.19671-0.49456-0.82409 0.82409  0 207.01 244.46   38.44 207.19 244.30   38.76
  -2  -3   0  36.059  42.942   2-0.21869-0.03624-0.07115-0.22710 0.97320-0.97320  0 408.45 277.29   24.37 408.36 277.49   24.46
  -2  -3   0  21.658  47.221   2 0.13195-0.38699-0.37097 0.07258-0.91922 0.91922  0 314.96 158.27  178.55 315.16 158.23  178.80
  -2   3   0  10.394  45.859   1-0.69489 0.43982-0.33660 0.63460-0.63548 0.63548  0 364.22 174.04   72.99 364.07 174.16   72.99
  -2   3   0  52.025  52.601   2-0.22806-0.02686 0.06314 0.23511 0.97160-0.97160  0 300.17 158.38   16.97 300.45 158.22   16.73
  -2   3   0   3.063  52.630   2 0.08527-0.34027 0.33101-0.03251-0.93976 0.93976  0 403.90 292.67  220.13 403.96 292.55  220.00
   2  -3   0  10.514  30.726   1-0.60256 0.85789-0.77443 0.47629-0.19281 0.19281  0 241.74 334.05  110.09 241.86 333.91  109.67
   2  -3   0   3.160  37.062   2 0.12664 0.12840-0.14995-0.14844-0.98055 0.98055  0 209.54 231.11  192.05 209.62 230.62  191.98
   2   3   0   6.618  60.729   1-0.31289 0.56790 0.52599-0.22814-0.79085 0.79085  0 409.53 273.88   15.43 409.35 273.93   15.90
   2   3   0  -5.576  43.713   2 0.10391 0.15109 0.16940 0.12910-0.98005 0.98005  0 281.48 354.63  210.39 281.55 354.59  210.38
   2   3   0  16.767  30.914   2-0.23691 0.49182 0.46054-0.16228 0.85544-0.85544  0 206.63 244.11  352.71 206.78 244.12  352.53
  -2  -3  -1 35941.1   387.1   1-0.45797 0.20296 0.32666-0.62451-0.82677 0.75419  0 204.63 254.11   29.95 204.65 254.06   30.20
  -2  -3  -1 37699.3   329.4   2-0.19179-0.06313-0.32797 0.02972 0.92501-0.99756  0 410.89 274.74   39.61 411.25 274.80   39.54
  -2  -3  -1 37949.6   333.2   2 0.12599-0.38103-0.13597-0.16242-0.98267 0.91018  0 318.36 156.44  192.79 318.44 156.53  192.79
  -2  -3   1 35619.7   380.7   1-0.59801 0.34299 0.05012-0.34797-0.79992 0.87251  0 207.34 234.53   47.93 207.32 234.49   48.10
  -2  -3   1 39379.8   350.8   2-0.23315-0.02177 0.16548-0.46373 0.95826-0.88571  0 408.89 284.22   11.20 409.13 284.27   10.81
  -2  -3   1 35794.6   337.4   2 0.12785-0.38289-0.57293 0.27454-0.80957 0.88206  0 309.19 155.93  165.61 309.34 156.05  165.57
  -2   3  -1 33266.9   322.1   1-0.69820 0.44313-0.46346 0.76147-0.54564 0.47307  0 380.52 183.92   82.12 380.41 184.08   81.91
  -2   3  -1 37645.1   353.8   2-0.23677-0.01816 0.29007 0.00818 0.92725-0.99980  0 303.18 156.00    3.39 303.28 156.14    3.43
  -2   3  -1 34677.1   338.1   2 0.10859-0.36359 0.12010 0.17840-0.98680 0.91432  0 406.88 290.37  207.52 407.15 290.38  207.52
  -2   3   1 32691.7   250.7   1-0.65131 0.39624-0.10755 0.40556-0.75115 0.82372  0 348.95 163.83   58.01 348.92 163.98   58.03
  -2   3   1 42216.1   385.9   2-0.21175-0.04317-0.14904 0.44730 0.96589-0.89334  0 295.10 156.69   29.09 295.26 156.82   28.96
  -2   3   1 40105.3   374.1   2 0.05602-0.31101 0.52156-0.22305-0.85137 0.92386  0 403.78 298.45  231.91 404.04 298.41  232.18
   2  -3  -1 31904.5   246.9   1-0.62403 0.87936-0.74227 0.44413-0.24417 0.17168  0 254.76 345.20  106.00 254.59 345.10  105.98
   2  -3  -1 39298.8   366.1   2 0.11293 0.14207 0.07017-0.36868-0.99112 0.91863  0 209.58 225.64  204.69 209.48 225.63  204.63
   2  -3   1 30142.8   304.4   1-0.58119 0.83652-0.80051 0.50237-0.14629 0.21878  0 228.82 323.41  113.06 228.76 323.35  112.96
   2  -3   1 -18.244  35.562   2-0.20554 0.46047-0.21008-0.08817 0.95583-0.88329  0 293.05 358.92   32.53 293.21 358.88   32.53
   2  -3   1 35458.9   337.7   2 0.13207 0.12297-0.37682 0.07843-0.91682 0.98931  0 207.41 232.79  178.42 207.31 232.73  178.43
   2   3  -1 33479.6   369.0   1-0.40157 0.65659 0.41135-0.11350-0.81825 0.74566  0 408.94 285.46   24.17 409.12 285.46   24.35
   2   3  -1 38552.5   346.3   2 0.12307 0.13197-0.07851 0.37691-0.98929 0.91680  0 287.07 357.94  195.84 287.08 357.72  196.10
   2   3  -1 33610.3   321.0   2-0.22873 0.48361 0.64042-0.34200 0.73318-0.80570  0 206.14 238.36  339.72 206.07 238.34  340.06
   2   3   1 36659.2   391.4   1-0.21474 0.46976 0.63222-0.33437-0.74443 0.81702  0 412.65 262.45    7.00 412.87 262.42    7.20
   2   3   1 37668.6   324.3   2-0.23568 0.49061 0.23922 0.05903 0.94193-0.86938  0 204.80 246.63    6.38 204.72 246.58    6.47
   2   3   1 38554.4   330.4   2 0.07177 0.18322 0.42480-0.12629-0.90244 0.97493  0 278.13 355.77  225.92 278.24 355.58  225.84
  -2  -3  -2  1002.2    93.0   1-0.38556 0.13054 0.43361-0.73146-0.81445 0.66927  0 199.86 263.93   22.90 199.90 263.85   22.76
  -2  -3  -2  1156.7    94.2   2-0.15627-0.09871-0.55626 0.25789 0.81618-0.96112  0 417.66 276.18   53.97 417.83 276.21   54.25
  -2  -3  -2  1212.8    98.7   2 0.11101-0.36601 0.09237-0.39088-0.98952 0.84454  0 319.06 150.75  206.01 319.07 150.86  205.91
  -2  -3   2 996.061  91.122   1-0.65019 0.39512-0.10358-0.19443-0.75268 0.89782  0 205.15 224.57   57.91 205.11 224.52   57.78
  -2  -3   2  1132.1   103.9   2 0.11631-0.37136-0.72344 0.42505-0.68052 0.82549  0 301.26 150.62  154.31 301.43 150.66  154.16
  -2   3  -2  1088.1   103.9   1-0.69215 0.43708-0.53490 0.83291-0.48457 0.33943  0 397.86 193.75   87.21 398.06 193.89   87.30
  -2   3  -2  1115.3   103.7   2 0.12326-0.37830-0.08173 0.38013-0.98900 0.84403  0 413.44 291.93  196.13 413.70 291.96  195.92
  -2   3  -2  1131.9   104.3   2-0.23596-0.01896 0.49776-0.19950 0.83460-0.97971  0 303.72 150.49  350.27 303.83 150.63  350.08
  -2   3   2  1041.2    59.5   1-0.48469 0.22967 0.28205 0.01580-0.82797 0.97314  0 335.01 153.15   33.21 334.97 153.27   33.19
  -2   3   2  1252.2   110.8   2-0.19255-0.06238-0.32214 0.62039 0.92690-0.78181  0 287.91 152.27   39.23 288.06 152.37   39.19
  -2   3   2  1170.7   109.7   2 0.02537-0.28037 0.67373-0.37522-0.73854 0.88352  0 406.74 307.74  242.96 406.99 307.69  243.21
   2  -3  -2 864.802  58.298   1-0.64667 0.90200-0.69898 0.40084-0.30535 0.16037  0 266.66 357.10  101.43 266.80 357.07  101.50
   2  -3  -2  1233.4   112.4   2-0.12014 0.37512-0.72529 0.42691 0.67788-0.82282  0 308.56 365.73   66.76 308.57 365.62   66.96
   2  -3  -2  1193.6    91.9   2 0.09458 0.16042 0.25481-0.55331-0.96236 0.81738  0 207.10 218.04  215.42 207.12 217.99  215.41
   2  -3   2  1027.5    92.2   1-0.55956 0.81488-0.82249 0.52434-0.10205 0.24704  0 215.36 313.37  116.24 215.30 313.25  116.05
   2  -3   2  -2.454  40.672   2-0.22343 0.47836-0.01017-0.28808 0.97467-0.82957  0 292.28 364.47   20.43 292.37 364.39   20.94
   2  -3   2  1102.7    84.7   2 0.12759 0.12746-0.57647 0.27808-0.80709 0.95206  0 202.49 231.96  164.99 202.51 231.86  165.31
   2   3  -2 989.962 108.988   1-0.47575 0.73077 0.29733 0.00052-0.82780 0.68263  0 411.87 297.35   32.28 412.20 297.41   32.17
   2   3  -2 0.02150 43.7232   2 0.13090 0.12414-0.28046 0.57885-0.95090 0.80593  2 294.24 364.52  184.53 294.69 364.60  184.29
   2   3  -2 940.636  79.658   2-0.21535 0.47024 0.76949-0.47108 0.60125-0.74630  0 203.13 229.92  329.43 203.10 229.93  329.39
   2   3   2  1142.4    76.4   2-0.22494 0.47986 0.01164 0.28661 0.97430-0.82921  0 200.09 245.82   19.74 199.91 245.80   19.69
   2   3   2  1003.8    87.6   2 0.03334 0.22166 0.63837-0.33987-0.76900 0.91398  0 277.21 361.14  240.45 277.26 360.94  240.49
  -2  -3  -3  5073.4   169.2   1-0.32044 0.06542 0.51698-0.81483-0.79376 0.57599  0 193.09 273.88   16.64 193.10 273.82   16.59
  -2  -3  -3  5759.1   194.1   1 0.01410-0.26952-0.79350 0.49525 0.60841-0.82589  0 429.48 276.39  170.40 429.63 276.36  170.41
  -2  -3  -3  6280.9   165.5   2-0.11960-0.13537-0.72744 0.42907 0.67566-0.89307  0 427.89 281.23   66.90 428.17 281.30   67.14
  -2  -3  -3  5945.7   165.6   2 0.09154-0.34653 0.28050-0.57900-0.95548 0.73802  0 317.49 141.31  217.14 317.53 141.46  216.94
  -2  -3   3  4585.7   156.6   1-0.68397 0.42890-0.25232-0.04569-0.68449 0.90220  0 200.62 214.22   67.26 200.58 214.22   67.36
  -2  -3   3  5515.9   174.3   2 0.10164-0.35666-0.82675 0.52814-0.55332 0.77062  0 291.77 142.59  144.67 291.90 142.67  144.69
  -2  -3   3  5256.1   172.4   2-0.23639-0.01853 0.48077-0.77903 0.84438-0.62671  0 419.13 307.63  351.23 419.35 307.63  351.21
  -2   3  -3  4723.6   171.2   1-0.68540 0.43033-0.57517 0.87318-0.44655 0.22884  0 417.10 203.69   90.47 417.31 203.78   90.50
  -2   3  -3  5460.3   168.8   2 0.13024-0.38528-0.25038 0.54878-0.95935 0.74189  0 423.44 297.04  185.85 423.62 297.06  186.08
  -2   3  -3  5301.9   164.3   2-0.22682-0.02806 0.66347-0.36505 0.71299-0.93057  0 302.16 141.47  338.22 302.22 141.61  338.27
  -2   3   3  6247.5   190.5   2-0.17425-0.08067-0.45044 0.74869 0.87564-0.65799  0 279.02 145.24   46.97 279.18 145.40   47.18
  -2   3   3  5792.4   186.4   2-0.00356-0.25137 0.78528-0.48674-0.61914 0.83660  0 412.29 320.01  253.01 412.38 319.93  252.73
   2  -3  -3  3882.5    70.1   1-0.67297 0.92804-0.62693 0.32893-0.39251 0.17481  0 277.51 370.21   94.91 277.73 370.05   94.85
   2  -3  -3  6289.3   190.3   2-0.09229 0.34727-0.82377 0.52540 0.55936-0.77676  0 317.51 374.76   76.01 317.52 374.61   75.95
   2  -3  -3  6151.2   176.2   2 0.07640 0.17860 0.39487-0.69337-0.91556 0.69809  0 203.03 208.20  224.10 202.94 208.20  223.95
   2  -3   3  4875.9   161.5   1-0.53733 0.79266-0.84127 0.54313-0.05947 0.27694  0 201.40 303.51  119.23 201.38 303.47  119.01
   2  -3   3  19.246  50.037   2-0.23305 0.48797 0.16293-0.46119 0.95872-0.74107  0 293.44 373.79   10.67 293.38 373.60   10.95
   2  -3   3  5349.3   152.8   2 0.11562 0.13942-0.72972 0.43132-0.67390 0.89136  0 195.47 228.48  153.63 195.37 228.42  153.64
   2   3  -3  4650.9   169.9   1-0.53348 0.78849 0.19226 0.10559-0.82367 0.60591  0 418.43 309.98   39.23 418.57 310.01   39.05
   2   3  -3  4935.6   153.4   2-0.20000 0.45489 0.85590-0.55748 0.47690-0.69447  0 198.37 219.43  320.71 198.27 219.44  320.64
   2   3   3  6218.1   153.3   2-0.20815 0.46308-0.18541 0.48366 0.96036-0.74272  0 192.65 242.22   30.67 192.57 242.16   31.09
   2   3   3  5578.1   159.2   2-0.00463 0.25956 0.78890-0.49036-0.61451 0.83197  0 278.16 370.53  253.16 278.24 370.33  253.08
  -2  -3  -4  3783.5   160.6   1-0.26601 0.01100 0.57926-0.87711-0.77052 0.48017  0 184.43 284.08   11.90 184.45 284.05   11.67
  -2  -3  -4  4342.9   187.3   1-0.07913-0.17629-0.84535 0.54710 0.52832-0.81829  0 442.49 289.28  162.95 442.54 289.18  162.76
  -2  -3  -4  4332.1   159.1   2-0.08638-0.16860-0.84219 0.54381 0.53222-0.82210  0 441.71 289.43   77.83 441.92 289.51   77.84
  -2  -3  -4  3815.6   153.1   2 0.07276-0.32775 0.41830-0.71681-0.90539 0.61544  0 314.19 128.73  225.42 314.24 128.95  225.43
  -2  -3   4  3156.2   143.0   1-0.69821 0.44314-0.38797 0.08996-0.60165 0.89193  0 194.04 203.47   76.46 193.96 203.50   76.52
  -2  -3   4  3734.5   172.8   2 0.08608-0.34111-0.89566 0.59706-0.43632 0.72606  0 281.03 132.67  136.99 281.16 132.75  136.87
  -2  -3   4  3643.0   171.6   2-0.23335-0.02154 0.56770-0.86612 0.78947-0.49938  0 427.75 323.30  345.32 428.09 323.26  345.33
  -2   3  -4  3375.6   169.9   1-0.68079 0.42572-0.59681 0.89482-0.42467 0.13440  0 438.21 213.92   92.07 438.44 214.01   92.28
  -2   3  -4  3874.4   162.5   2 0.13207-0.38712-0.37831 0.67671-0.91621 0.62627  0 436.55 305.10  178.31 436.70 305.15  178.34
  -2   3  -4  3744.3   162.5   2-0.21326-0.04163 0.78384-0.48542 0.58319-0.87329  0 298.99 129.59  328.19 299.03 129.73  328.06
  -2   3   4  4403.4   187.2   2-0.15922-0.09576-0.54002 0.83840 0.82645-0.53658  0 268.77 136.26   53.04 268.94 136.43   53.13
  -2   3   4  3804.8   180.1   2-0.02946-0.22547 0.86323-0.56469-0.50396 0.79391  0 419.85 334.84  261.01 420.04 334.85  260.85
   2  -3  -4  2413.7    50.7   1-0.69784 0.95290-0.47235 0.17434-0.53844 0.24816  0 284.12 384.10   82.62 284.32 383.91   82.56
   2  -3  -4  3949.4    60.2   1-0.38771 0.64304-0.90445 0.60631 0.17789-0.46785  0 317.12 387.35  135.67 317.04 387.15  135.55
   2  -3  -4  3607.8   172.1   2-0.06794 0.32292-0.89172 0.59334 0.44746-0.73734  0 328.02 386.50   83.51 328.06 386.39   83.56
   2  -3  -4  3863.5   157.0   2 0.06061 0.19439 0.49482-0.79332-0.86688 0.57693  0 197.26 196.64  230.41 197.16 196.65  230.38
   2  -3   4  3432.9   151.6   1-0.51428 0.76961-0.85743 0.55929-0.01809 0.30806  0 186.97 293.84  121.73 186.87 293.83  121.88
   2  -3   4  3477.4   139.0   2 0.09984 0.15519-0.83642 0.53782-0.53892 0.82865  0 186.30 222.90  143.68 186.20 222.90  143.69
   2   3  -4  3096.2   162.6   1-0.57618 0.83120 0.10248 0.19537-0.81087 0.52052  0 427.95 323.69   44.94 428.14 323.67   44.80
   2   3  -4  3518.7   168.7   2 0.12979 0.12525-0.52761 0.82600-0.83951 0.54957  0 314.57 387.30  168.99 314.60 387.10  168.69
   2   3  -4  3363.3   143.9   2-0.18474 0.43963 0.91226-0.61384 0.36559-0.65569  0 191.95 207.38  313.44 191.92 207.35  313.42
   2   3   4  4280.7   144.1   2-0.19084 0.44576-0.33529 0.63354 0.92258-0.63239  0 183.08 236.42   40.00 183.08 236.37   39.99
   2   3   4  3633.9   148.8   2-0.03753 0.29246 0.88384-0.58531-0.46628 0.75623  0 280.64 383.40  263.31 280.70 383.19  263.36
  -2  -3  -5 954.285 117.304   1-0.22294-0.03208 0.62413-0.92198-0.74884 0.38590  0 173.99 294.82    7.92 174.08 294.73    7.91
  -2  -3  -5  1007.0   131.2   1-0.16392-0.09150-0.88004 0.58179 0.44571-0.80817  0 458.34 303.21  155.80 458.59 303.18  155.69
  -2  -3  -5  1123.5   130.9   2-0.05803-0.19695-0.91458 0.61620 0.40022-0.76256  0 458.83 300.24   86.66 458.94 300.32   86.61
  -2  -3  -5 766.269 102.339   2 0.05757-0.31256 0.51271-0.81122-0.85663 0.49419  0 309.64 113.69  231.60 309.67 113.73  231.58
  -2  -3   5 686.935  94.849   1-0.69549 0.44043-0.50551 0.20750-0.51064 0.87348  0 185.46 192.23   84.95 185.38 192.15   85.04
  -2  -3   5 882.791 121.591   2 0.07114-0.32616-0.94075 0.64214-0.33156 0.69374  0 269.28 121.04  129.99 269.34 121.10  130.31
  -2  -3   5 754.603 118.052   2-0.22986-0.02503 0.62473-0.92315 0.74624-0.38362  0 438.61 341.29  340.96 438.79 341.31  341.23
  -2   3  -5 827.522 121.942   1-0.67849 0.42343-0.60644 0.90445-0.41458 0.05173  0 461.82 224.76   93.19 462.03 224.80   93.09
  -2   3  -5 945.305 110.819   2 0.13121-0.38625-0.46984 0.76823-0.87295 0.51052  0 452.77 315.82  172.51 452.96 315.93  172.52
  -2   3  -5 755.101 105.734   2-0.19752-0.05737 0.86657-0.56815 0.45830-0.82092  0 294.53 115.09  319.41 294.54 115.25  319.40
  -2   3   5 980.164 128.466   2-0.14766-0.10732-0.60148 0.89986 0.78512-0.42278  0 257.28 125.52   57.42 257.52 125.62   57.43
  -2   3   5 829.352 123.352   2-0.05207-0.20287 0.91616-0.61762-0.39742 0.75986  0 429.69 352.46  267.70 429.71 352.33  267.78
   2  -3  -5 627.005  42.650   1-0.66512 0.92018-0.16033-0.13768-0.72932 0.36648  0 281.06 398.40   61.67 281.03 398.22   61.40
   2  -3  -5 781.404  46.050   1-0.57794 0.83327-0.80407 0.50593-0.13951-0.22294  0 320.57 402.78  113.60 320.53 402.64  113.44
   2  -3  -5  1044.0   126.7   2-0.04676 0.30174-0.93735 0.63898 0.34523-0.70757  0 340.22 400.95   90.00 340.15 400.87   90.09
   2  -3  -5 853.933 103.555   2 0.04833 0.20666 0.56400-0.86251-0.82436 0.46192  0 190.12 183.61  235.01 189.98 183.56  235.10
   2  -3   5 838.878 106.337   1-0.49037 0.74570-0.87122 0.57308 0.02258 0.33987  0 171.61 284.22  124.66 171.67 284.18  124.69
   2  -3   5  1074.8   109.5   2 0.08272 0.17230-0.90728 0.60867-0.41231 0.77448  0 175.21 215.76  134.85 175.21 215.75  135.33
   2   3  -5 666.070 112.686   1-0.60605 0.86107 0.02954 0.26831-0.79488 0.43194  0 440.93 338.85   49.26 440.88 338.77   49.40
   2   3  -5  1086.0   125.2   2 0.12664 0.12841-0.59445 0.89284-0.79410 0.43167  0 326.75 402.35  163.94 326.63 402.24  164.04
   2   3  -5 795.462  97.042   2-0.17023 0.42512 0.94848-0.65006 0.26721-0.62983  0 184.11 193.95  307.36 184.19 193.89  307.33
   2   3   5 929.753 102.113   2-0.17566 0.43059-0.44141 0.73966 0.87995-0.51720  0 171.99 229.01   46.57 171.72 229.00   46.60
   2   3   5 793.939 100.987   2-0.06473 0.31966 0.94002-0.64148-0.33492 0.69736  0 284.08 399.32  271.72 284.16 399.14  271.69
  -2  -3  -6 369.060  92.671   1-0.19050-0.06452 0.65535-0.95320-0.73091 0.29539  0 161.86 306.08    5.31 162.08 306.08    5.13
  -2  -3  -6 419.332 128.467   1-0.24002-0.01531-0.90020 0.60206 0.36336-0.79831  0 477.83 318.72  149.45 478.08 318.82  149.17
  -2  -3  -6 354.447 105.384   2-0.03441-0.22057-0.95841 0.66003 0.28331-0.71813  0 479.36 313.70   94.00 479.45 313.60   93.91
  -2  -3  -6 443.315 106.924   2 0.04613-0.30113 0.57536-0.87387-0.81660 0.38167  0 304.09  96.07  235.70 304.19  95.99  235.89
  -2  -3   6 334.939  92.189   1-0.67904 0.42397-0.60422 0.30621-0.41693 0.85234  0 175.02 179.84   92.79 175.01 179.97   92.91
  -2  -3   6 277.074 117.005   2 0.05715-0.31218-0.96960 0.67099-0.23793 0.67254  0 256.51 107.78  124.67 256.50 107.84  124.64
  -2  -3   6 412.421 122.132   2-0.22701-0.02787 0.66121-0.95963 0.71503-0.27989  0 451.67 362.03  338.47 451.64 361.95  338.45
  -2   3  -6 290.560 123.727   1-0.67816 0.42309-0.60781 0.90581-0.41313-0.02228  0 488.82 236.43   93.42 488.72 236.46   93.21
  -2   3  -6 370.550 112.119   2 0.12960-0.38464-0.53288 0.83127-0.83621 0.40130  0 472.34 329.18  168.37 472.61 329.26  168.33
  -2   3  -6 371.886 113.276   2-0.18165-0.07324 0.92134-0.62292 0.34371-0.77885  0 289.16  98.28  312.34 289.00  98.23  312.04
  -2   3   6 369.504  98.193   2-0.13925-0.11573-0.64234 0.94071 0.75367-0.31885  0 244.85 113.00   60.43 244.94 113.13   60.42
  -2   3   6 456.444 127.314   2-0.07161-0.18332 0.95117-0.65264-0.30023 0.73516  0 441.56 372.73  273.61 441.49 372.58  273.81
   2  -3  -6 329.558  43.058   1-0.55959 0.81460 0.13905-0.43690-0.81702 0.38150  0 271.24 413.70   42.61 271.18 413.48   42.47
   2  -3  -6 306.397  45.053   1-0.63424 0.88957-0.72429 0.42615-0.27044-0.16450  0 331.67 421.04  104.53 331.33 420.99  104.07
   2  -3  -6 426.918 130.310   2-0.02837 0.28334-0.96718 0.66880 0.25252-0.68733  0 353.96 418.58   96.06 353.89 418.21   95.78
   2  -3  -6 405.057  96.215   2 0.03912 0.21587 0.61072-0.90923-0.79088 0.35595  0 181.66 168.97  238.44 181.46 168.99  238.44
   2  -3   6 170.871  89.045   1-0.46549 0.72082-0.88283 0.58469 0.06271 0.37223  0 155.27 274.11  127.44 155.52 274.37  127.48
   2  -3   6 323.497  77.165   2 0.06630 0.18873-0.95214 0.65354-0.29838 0.73299  0 162.05 207.36  127.96 162.45 207.36  128.28
   2   3  -6 312.969 119.780   1-0.62615 0.88122-0.02638 0.32439-0.77925 0.34384  0 456.79 355.60   52.61 456.98 355.77   52.91
   2   3  -6 459.674 125.808   2 0.12396 0.13109-0.63823 0.93662-0.75980 0.32489  0 340.00 420.37  161.08 340.08 420.16  160.85
   2   3  -6 339.482  90.948   2-0.15658 0.41147 0.97117-0.67275 0.17975-0.61490  0 175.21 179.14  302.45 175.16 179.13  302.06
   2   3   6 350.708  80.614   2-0.16399 0.41897-0.51288 0.81126 0.84265-0.40784  0 158.53 220.59   51.05 158.64 220.55   51.30
   2   3   6 307.944  95.505   2-0.08675 0.34168 0.97135-0.67282-0.22125 0.65618  0 288.02 418.11  278.73 288.32 418.04  278.56
  -2  -3  -7 38789.5   516.9   1-0.16779-0.08723 0.67609-0.97394-0.71746 0.20934  0 148.46 318.36    3.01 148.42 318.34    3.20
  -2  -3  -7 43016.3   561.5   1-0.30772 0.05239-0.90841 0.61026 0.28303-0.79046  0 501.45 336.82  143.08 501.51 336.70  143.13
  -2  -3  -7 41204.6   521.5   2-0.01460-0.24043-0.98339 0.68479 0.18089-0.68794  2 503.80 329.35   99.99 503.92 329.27  100.09
  -2  -3  -7 42406.6   522.0   2 0.03810-0.29309 0.61579-0.91429-0.78699 0.27958  0 297.90  75.39  238.89 297.99  75.60  238.81
  -2  -3   7 37421.5   481.8   1-0.65320 0.39787-0.68391 0.38576-0.32496 0.83240  0 162.97 166.64   99.91 163.00 166.72  100.03
  -2  -3   7 40586.2   538.8   2 0.04396-0.29899-0.98715 0.68854-0.15365 0.66070  0 242.66  92.69  119.60 242.54  92.85  119.66
  -2  -3   7 37779.5   542.6   2-0.22508-0.02981 0.68355-0.98197 0.69433-0.18667  0 466.67 385.69  336.75 466.97 385.69  336.70
  -2   3  -7 38155.9   514.4   2 0.12765-0.38269-0.57522 0.87361-0.80798 0.30058  0 496.06 345.33  165.39 496.27 345.36  165.40
  -2   3  -7 35315.4   493.2   2-0.16608-0.08881 0.95644-0.65802 0.24008-0.74774  0 282.54  78.41  305.72 282.60  78.58  305.69
  -2   3   7 42949.0   558.9   2-0.13358-0.12140-0.66856 0.96693 0.73157-0.22428  0 231.20  98.72   62.37 231.10  98.92   62.41
  -2   3   7 36602.7   541.2   2-0.08858-0.16635 0.97333-0.67480-0.21160 0.71901  0 455.59 396.11  279.19 455.62 396.02  279.13
   2  -3  -7 36884.7   254.7   1-0.45780 0.71281 0.32694-0.62479-0.82676 0.31865  0 259.01 430.67   30.19 259.21 430.42   30.18
   2  -3  -7 30105.4   235.4   1-0.65974 0.91481-0.66758 0.36957-0.34507-0.16291  0 345.03 442.83   98.61 345.27 442.66   98.51
   2  -3  -7 42652.7   575.3   2-0.01222 0.26725-0.98559 0.68699 0.16870-0.67574  0 369.59 438.92  100.92 369.47 438.61  100.82
   2  -3  -7 43319.9   560.3   2 0.03264 0.22236 0.64140-0.93991-0.76651 0.25910  0 171.55 152.77  240.74 171.50 152.84  240.71
   2  -3   7 36492.4   520.6   1-0.43966 0.69499-0.89229 0.59415 0.10250 0.40493  0 138.19 264.21  130.17 138.21 264.22  130.25
   2  -3   7 40779.3   504.0   2 0.05076 0.20427-0.97917 0.68056-0.19659 0.70364  0 147.96 197.83  122.11 147.92 197.86  122.18
   2  -3   7 38011.1   507.2   2-0.23561 0.49050 0.51304-0.81146 0.82540-0.31773  0 308.96 442.68  348.86 309.05 442.45  349.09
   2   3  -7 27987.4   439.1   1-0.63946 0.89452-0.06710 0.36511-0.76589 0.25791  0 476.46 375.38   55.43 476.67 375.45   55.48
   2   3  -7 40448.1   555.6   2 0.12187 0.13317-0.66599 0.96438-0.73594 0.22854  0 355.29 441.44  158.77 355.21 441.19  158.75
   2   3  -7 35297.1   498.3   2-0.14400 0.39893 0.98438-0.68585 0.10124-0.60866  0 164.78 162.94  297.46 164.76 162.94  297.44
   2   3   7 41635.6   493.1   2-0.15556 0.41053-0.56056 0.85894 0.81337-0.30609  0 143.83 211.06   54.56 143.79 211.08   54.54
   2   3   7  28.868  94.881   2-0.10514 0.36007 0.98691-0.68838-0.12225 0.62967  0 293.12 439.92  284.11 292.98 440.15  284.40
  -2  -3  -8  3003.6   209.5   1-0.15318-0.10184 0.68868-0.98653-0.70870 0.12800  0 132.97 331.72    2.13 132.92 331.80    1.99
  -2  -3  -8  2636.9   244.6   2 0.03278-0.28778 0.64072-0.93923-0.76707 0.18717  0 290.98  52.16  240.66 291.06  52.17  240.66
  -2  -3   8  2697.3   181.2   1-0.62035 0.36503-0.74828 0.45014-0.23502 0.81494  0 148.97 151.95  106.64 149.06 151.91  106.65
  -2  -3   8  3021.8   230.0   2 0.03156-0.28658-0.99654 0.69794-0.07684 0.65632  0 227.25  75.65  115.01 227.24  75.87  115.17
  -2  -3   8  2978.5   298.1   2-0.22389-0.03100 0.69586-0.99428 0.68238-0.10219  0 485.08 413.21  335.67 485.32 413.29  335.71
  -2   3  -8  2894.6   265.3   2-0.15128-0.10361 0.97758-0.67916 0.14645-0.72664  0 275.37  55.79  299.95 275.35  55.96  300.09
  -2   3   8  3331.5   233.4   2-0.13001-0.12497-0.68415 0.98253 0.71766-0.13790  0 215.80  82.61   63.60 215.82  82.76   63.63
  -2   3   8  2869.3   310.6   2-0.10367-0.15126 0.98603-0.68750-0.13036 0.71026  0 472.58 423.51  284.03 472.58 423.44  283.93
   2  -3  -8  2778.0   105.5   1-0.38557 0.64058 0.43360-0.73145-0.81445 0.23375  0 246.54 450.07   22.84 246.38 449.81   22.76
   2  -3  -8  2227.1   130.5   1-0.67544 0.93051-0.61799 0.31998-0.40232-0.17822  0 360.46 468.29   94.16 360.56 468.23   94.07
   2  -3  -8  3314.4   298.2   2 0.00210 0.25292-0.99582 0.69722 0.09128-0.67076  0 387.38 463.32  105.38 387.50 463.04  105.37
   2  -3  -8  3091.2   225.1   2 0.02844 0.22655 0.66047-0.95897-0.75032 0.17041  0 159.97 134.78  241.97 159.97 134.90  242.17
   2  -3   8  3195.8   202.6   1-0.41292 0.66825-0.89961 0.60147 0.14212 0.43781  0 119.62 253.44  133.29 119.40 253.46  133.02
   2  -3   8  2792.7   190.7   2 0.03616 0.21887-0.99379 0.69519-0.10522 0.68470  0 131.38 187.28  116.78 131.39 187.30  116.82
   2  -3   8  2891.3   268.7   2-0.23444 0.48933 0.54403-0.84245 0.80565-0.22546  0 314.74 468.40  346.77 314.82 468.28  346.98
   2   3  -8  2151.7   217.7   1-0.64772 0.90278-0.09469 0.39269-0.75597 0.17543  0 500.46 398.68   57.00 500.62 398.67   57.22
   2   3  -8  3030.1   295.4   2 0.12047 0.13458-0.68241 0.98081-0.72097 0.14109  0 372.48 466.28  157.44 372.48 466.11  157.47
   2   3  -8  2898.7   208.7   2-0.13193 0.38687 0.99083-0.69229 0.02925-0.60915  0 152.68 145.08  293.04 152.74 145.12  293.24
   2   3   8  2545.3   179.4   2-0.14973 0.40471-0.59093 0.88930 0.79271-0.21295  0 127.08 200.65   56.67 126.96 200.71   56.68
  -2  -3  -9 -56.690 110.654   1-0.14597-0.10905 0.69489-0.99273-0.70415 0.05086  0 115.64 346.94    1.64 115.35 346.86    1.39
  -2  -3  -9-100.017 164.621   2 0.02976-0.28476 0.65453-0.95304-0.75545 0.10306  0 283.24  25.58  242.11 283.42  25.03  241.71
  -2  -3   9 -16.583 106.618   1-0.58240 0.32707-0.79916 0.50102-0.14884 0.80125  0 132.78 134.79  112.96 133.09 135.11  112.78
  -2  -3   9  80.528 138.265   2 0.01938-0.27441-0.99979 0.70119-0.00614 0.65805  0 210.04  56.34  110.83 210.26  56.54  111.05
  -2   3  -9 -53.386 182.286   2-0.13742-0.11751 0.98859-0.69005 0.06177-0.71416  0 267.23  29.39  295.50 267.32  29.70  295.13
  -2   3   9 -51.824 135.403   2-0.12823-0.12675-0.69184 0.99022 0.71057-0.05835  0 198.61  63.89   63.98 198.73  64.30   64.24
  -2   3   9  31.832 222.380   2-0.11723-0.13770 0.99157-0.69303-0.05525 0.70763  0 493.84 456.48  288.41 493.17 456.00  288.31
   2  -3  -9  39.618  63.201   1-0.34213 0.59715 0.49047-0.78832-0.80149 0.14820  0 233.35 472.97   18.88 233.10 472.66   18.61
   2  -3  -9  11.581  99.328   1-0.68685 0.94191-0.56803 0.27003-0.45341-0.19971  0 377.65 498.61   90.48 376.92 498.88   89.92
   2  -3  -9  -3.146 218.770   2 0.01503 0.23999-0.99970 0.70109 0.01956-0.67147  0 408.86 492.57  109.55 408.62 492.58  109.56
   2  -3  -9-103.816 113.530   2 0.02603 0.22897 0.67087-0.96938-0.74112 0.08873  0 146.38 114.43  242.43 146.54 114.76  242.99
   2  -3   9  66.161 107.494   1-0.38510 0.64043-0.90485 0.60671 0.18151 0.47091  0  98.93 242.23  135.45  98.66 241.84  135.81
   2  -3   9  49.945 105.141   2 0.02219 0.23284-0.99951 0.70090-0.02227 0.67418  0 112.64 175.85  112.08 112.49 175.65  111.98
   2  -3   9 101.780 183.881   2-0.23359 0.48848 0.56282-0.86124 0.79288-0.14017  0 321.02 499.51  345.69 321.23 498.86  345.67
   2   3  -9 141.789 216.053   2 0.11963 0.13542-0.69051 0.98891-0.71336 0.06099  0 392.75 496.53  157.06 392.53 496.06  156.83
   2   3  -9 -46.484 119.355   2-0.12037 0.37530 0.99202-0.69349-0.03739-0.61500  0 138.90 125.52  289.36 138.83 125.30  289.35
   2   3   9 108.298 101.685   2-0.14622 0.40120-0.60868 0.90706 0.77982-0.12760  0 107.88 189.30   58.03 107.76 189.43   57.95
  -2  -3 -10 785.397 159.807   1-0.14488-0.11014 0.69582-0.99366-0.70346-0.02242  0  95.40 364.23    1.35  95.26 364.12    1.30
  -2  -3  10 709.501 146.165   1-0.54121 0.28588-0.83824 0.54010-0.06665 0.79156  0 114.90 115.60  118.41 114.77 115.63  118.51
  -2  -3  10 793.561 193.649   2 0.00784-0.26287-0.99817 0.69957 0.05989 0.66446  0 190.91  34.04  107.38 191.12  34.23  107.22
  -2   3  10 947.571 199.435   2-0.12787-0.12711-0.69339 0.99177 0.70913 0.01557  0 179.21  43.02   64.32 179.34  42.96   64.36
   2  -3 -10 642.063  93.132   1-0.32004 0.57506 0.51745-0.81530-0.79361 0.06773  2 219.33 499.80   16.35 219.46 500.08   16.56
   2  -3 -10 704.785 177.048   2 0.02516 0.22983 0.67464-0.97315-0.73772 0.01284  0 130.54  91.54  243.39 130.76  91.83  243.28
   2  -3  10 577.540 150.977   1-0.35615 0.61148-0.90798 0.60984 0.22074 0.50417  0  75.75 228.96  138.63  75.39 229.01  138.61
   2  -3  10 654.772 145.531   2 0.00892 0.24611-0.99851 0.69990 0.05385 0.67050  0  90.81 162.82  107.48  90.68 162.75  107.57
   2   3 -10 879.107 176.895   2-0.10926 0.36419 0.98899-0.69045-0.09986-0.62502  0 122.92 103.08  285.66 122.53 102.88  285.72
   2   3  10 661.747 144.549   2-0.14451 0.39949-0.61706 0.91544 0.77353-0.04884  0  86.20 176.99   58.62  85.64 177.07   58.55
  -2  -3 -11  4167.4   296.6   1-0.14907-0.10594 0.69223-0.99007-0.70612-0.09234  0  72.20 384.31    1.62  71.97 384.39    1.65
  -2  -3  11  4475.5   304.0   1-0.49684 0.24151-0.86776 0.56962 0.01177 0.78562  0  93.73  92.47  123.74  93.60  92.53  123.94
  -2  -3  11  4684.9   379.1   2-0.00354-0.25149-0.99252 0.69391 0.12207 0.67472  2 169.04   8.01  103.53 169.02   7.99  103.57
  -2   3  11  4210.1   385.4   2-0.12866-0.12631-0.68998 0.98835 0.71230 0.08486  0 156.87  17.86   64.03 156.89  17.87   64.09
   2  -3 -11  3811.3   353.0   2 0.02552 0.22947 0.67306-0.97157-0.73914-0.05822  0 112.10  65.00  243.37 111.94  65.21  243.16
   2  -3  11  4188.9   287.7   1-0.32597 0.58130-0.90897 0.61083 0.25983 0.53757  0  48.97 214.45  141.41  48.79 214.45  141.43
   2  -3  11  4050.2   287.4   2-0.00400 0.25903-0.99220 0.69359 0.12460 0.67218  0  64.84 148.32  103.39  65.06 148.29  103.42
   2   3 -11  4206.9   346.9   2-0.09838 0.35331 0.98237-0.68383-0.15897-0.63839  0 103.21  76.87  282.34 103.11  76.99  282.25
   2   3  11  4481.3   284.3   2-0.14429 0.39927-0.61813 0.91651 0.77272 0.02444  0  60.21 163.32   58.66  59.72 163.39   58.63
  -2  -4   0  6400.1   194.3   1-0.58058 0.32557 0.09237-0.48950-0.80895 0.80895  0 185.87 254.31   45.41 185.91 254.21   45.44
  -2  -4   0  7287.8   192.6   2-0.21218-0.04274-0.14452-0.25315 0.96648-0.96648  0 431.97 300.23   28.73 432.26 300.27   28.70
  -2  -4   0  7099.9   194.3   2 0.13193-0.38697-0.36525-0.03261-0.92151 0.92151  0 301.84 134.11  178.99 301.99 134.27  179.15
  -2   4   0  5742.5   160.5   1-0.66103 0.40596-0.14379 0.54113-0.73646 0.73646  0 387.05 157.14   60.23 387.31 157.35   60.34
  -2   4   0  7784.3   210.2   2-0.23170-0.02322 0.13201 0.26566 0.96379-0.96379  0 283.72 136.84   12.96 283.90 136.99   12.75
  -2   4   0  7238.8   205.9   2 0.08475-0.33975 0.33499 0.06302-0.93840 0.93840  0 423.46 318.43  220.00 423.73 318.41  220.25
   2  -4   0  5118.2   141.7   1-0.64768 0.90301-0.69676 0.29924-0.30827 0.30827  0 223.43 346.23  101.15 223.40 346.15  101.28
   2  -4   0  7370.0   206.0   2-0.18223 0.43716-0.39737-0.00030 0.89938-0.89938  0 312.02 382.41   44.01 312.10 382.24   43.81
   2  -4   0  7452.1   193.2   2 0.12884 0.12621-0.19809-0.19977-0.97168 0.97168  0 194.97 210.65  189.00 194.92 210.64  189.17
   2   4   0  6475.4   211.0   1-0.33696 0.59197 0.49682-0.09969-0.79977 0.79977  0 439.91 262.37   18.03 440.07 262.45   18.13
   2   4   0 -24.513  49.395   2 0.09885 0.15615 0.21736 0.18065-0.97107 0.97107  0 293.12 380.89  213.08 293.23 380.79  213.20
   2   4   0  6539.0   171.4   2-0.23738 0.49229 0.43270-0.03502 0.86973-0.86973  0 189.47 226.73  354.31 189.48 226.71  354.33
  -2  -4  -1 12675.1   263.4   1-0.52808 0.27307 0.20275-0.59989-0.82463 0.75204  0 184.49 264.25   38.33 184.58 264.17   38.37
  -2  -4  -1 14535.4   254.0   2-0.19113-0.06380-0.33309-0.06458 0.92332-0.99587  0 435.20 297.58   40.24 435.52 297.64   39.86
  -2  -4  -1 12982.1   244.0   2 0.12850-0.38354-0.19240-0.20546-0.97287 0.90038  0 305.12 132.16  189.46 305.23 132.33  189.50
  -2  -4   1 12464.1   257.5   1-0.62646 0.37140-0.02729-0.37005-0.77897 0.85154  0 185.08 244.32   52.97 185.13 244.27   52.97
  -2  -4   1 13742.5   254.1   2-0.22650-0.02842 0.03561-0.43328 0.97336-0.90081  0 431.95 306.24   18.26 432.22 306.27   18.31
  -2  -4   1 13049.4   253.5   2 0.12992-0.38496-0.52393 0.12607-0.84180 0.91428  0 296.64 132.91  169.01 296.80 133.06  168.94
  -2   4  -1 11666.2   231.4   1-0.68775 0.43269-0.27688 0.67422-0.67107 0.59850  0 402.91 167.49   69.00 403.11 167.68   68.98
  -2   4  -1 13841.5   264.4   2-0.23699-0.01793 0.30360 0.09407 0.92286-0.99540  0 286.54 134.52    2.62 286.66 134.67    2.62
  -2   4  -1 13535.6   262.4   2 0.10331-0.35830 0.17516 0.22285-0.97911 0.90662  0 427.05 316.38  210.77 427.27 316.36  210.72
  -2   4   1 12422.2   198.0   1-0.59849 0.34347 0.04892 0.34821-0.79964 0.87222  0 373.28 146.34   47.89 373.17 146.54   48.18
  -2   4   1 14653.5   276.7   2-0.22176-0.03316-0.03279 0.43046 0.97455-0.90200  0 279.06 136.24   21.95 279.24 136.41   22.24
  -2   4   1 13503.6   267.5   2 0.06211-0.31711 0.48587-0.08786-0.87182 0.94431  0 422.85 323.72  229.83 423.08 323.65  229.79
   2  -4  -1  9393.5   169.9   1-0.66665 0.92171-0.64775 0.25041-0.36878 0.29621  0 234.45 357.75   96.85 234.43 357.60   96.69
   2  -4  -1 15007.7   279.5   2-0.15925 0.41422-0.53985 0.14202 0.82656-0.89903  0 316.95 384.10   52.94 316.98 383.98   53.12
   2  -4  -1 13669.4   257.3   2 0.12011 0.13493-0.02949-0.36837-0.99232 0.91984  0 195.36 206.24  198.97 195.27 206.22  198.92
   2  -4   1 10188.5   205.3   1-0.62746 0.88279-0.73648 0.33896-0.25275 0.32524  0 211.58 335.41  105.29 211.55 335.35  105.36
   2  -4   1 12789.3   252.8   2-0.20192 0.45684-0.24354-0.15413 0.94864-0.87609  0 308.96 384.13   34.49 309.00 383.96   34.49
   2  -4   1 13867.8   254.4   2 0.13195 0.12310-0.37022-0.02764-0.91952 0.99201  0 192.56 212.70  178.99 192.48 212.68  178.84
   2   4  -1 12420.9   272.5   1-0.40948 0.66450 0.40017-0.00304-0.81987 0.74728  0 441.11 274.60   24.94 441.19 274.67   25.14
   2   4  -1 11332.9   222.3   2-0.23278 0.48767 0.57877-0.18088 0.78156-0.85409  0 189.41 221.70  344.58 189.36 221.72  344.55
   2   4   1 12163.2   271.6   1-0.25529 0.51030 0.59089-0.19376-0.76530 0.83788  0 441.94 250.13   10.97 442.07 250.17   10.72
   2   4   1 14113.3   241.9   2-0.23648 0.49140 0.26839 0.12928 0.93383-0.86128  0 187.37 229.13    4.84 187.28 229.09    4.73
   2   4   1 12643.6   236.0   2 0.07468 0.18032 0.40538-0.00737-0.91109 0.98358  0 289.75 382.20  224.58 289.85 381.96  224.61
  -2  -4  -2 14307.2   281.0   1-0.47411 0.21910 0.30006-0.69719-0.82776 0.68258  0 181.08 274.32   31.99 181.18 274.23   31.99
  -2  -4  -2 15293.4   267.2   2-0.16461-0.09036-0.50927 0.11144 0.84472-0.98965  0 441.73 298.30   50.92 442.00 298.38   51.06
  -2  -4  -2 14533.8   262.7   2 0.11962-0.37466-0.02210-0.37576-0.99257 0.84760  0 306.39 126.92  199.21 306.47 127.10  199.34
  -2  -4   2 12199.8   261.6   1-0.66255 0.40748-0.14980-0.24754-0.73389 0.87902  0 182.25 234.20   60.86 182.28 234.16   60.73
  -2  -4   2 14775.3   274.2   2-0.23414-0.02079 0.19090-0.58857 0.95328-0.80818  0 434.85 315.37    9.25 435.04 315.40    9.32
  -2  -4   2 13568.2   266.3   2 0.12261-0.37765-0.65679 0.25893-0.74403 0.88901  0 289.66 128.85  159.46 289.83 128.98  159.45
  -2   4  -2 12264.6   258.7   1-0.69709 0.44203-0.36570 0.76304-0.61671 0.47157  0 420.53 177.61   75.03 420.70 177.79   74.98
  -2   4  -2 14539.3   275.8   2 0.11666-0.37166 0.02015 0.37786-0.99297 0.84799  0 433.60 317.54  201.86 433.82 317.52  201.75
  -2   4  -2 13486.7   267.8   2-0.23673-0.01818 0.46630-0.06862 0.85236-0.99748  0 287.46 129.30  352.17 287.62 129.51  352.16
  -2   4   2 13195.8   186.8   1-0.46919 0.21418 0.30821 0.08892-0.82756 0.97274  0 361.03 134.83   31.37 360.96 135.04   31.44
  -2   4   2 15676.1   294.6   2-0.20893-0.04600-0.17779 0.57546 0.96163-0.81654  0 272.63 132.95   30.62 272.83 133.12   30.65
  -2   4   2 15480.9   294.6   2 0.03775-0.29275 0.61747-0.21946-0.78569 0.93067  0 424.92 332.05  239.00 425.10 332.01  238.93
   2  -4  -2  9639.3   156.8   1-0.68308 0.93814-0.58661 0.18927-0.43507 0.28993  0 244.42 370.10   91.43 244.40 369.94   91.44
   2  -4  -2 15440.9   292.9   2-0.13501 0.38998-0.66211 0.26427 0.73715-0.88208  0 323.65 389.05   62.00 323.67 388.92   61.92
   2  -4  -2 14455.4   271.6   2 0.10844 0.14656 0.12176-0.51977-0.98662 0.84164  0 193.76 199.57  207.66 193.66 199.57  207.61
   2  -4   2 11424.7   236.3   1-0.60601 0.86134-0.76969 0.37216-0.20084 0.34582  0 198.98 325.10  108.91 198.95 325.06  109.10
   2  -4   2 14109.7   268.6   2-0.21697 0.47190-0.09150-0.30617 0.97188-0.82678  0 307.65 389.31   25.66 307.70 389.12   25.63
   2  -4   2 13283.3   252.3   2 0.12973 0.12532-0.52942 0.13156-0.83838 0.98336  0 188.01 212.43  168.60 187.94 212.37  168.57
   2   4  -2 12018.5   271.8   1-0.47028 0.72529 0.30642 0.09071-0.82761 0.68244  0 445.44 287.21   31.52 445.52 287.27   31.56
   2   4  -2 14712.2   276.4   2 0.12579 0.12925-0.13183 0.52969-0.98326 0.83829  2 305.34 389.11  192.99 305.23 388.83  193.03
   2   4  -2 12321.9   240.9   2-0.22367 0.47856 0.69821-0.30032 0.68005-0.82510  0 187.29 214.48  335.56 187.21 214.51  335.51
   2   4   2 13781.6   288.9   1-0.16727 0.42229 0.67655-0.27942-0.71714 0.86232  0 447.10 237.62    3.02 447.28 237.62    3.16
   2   4   2 14823.5   251.0   2-0.23013 0.48506 0.10140 0.29627 0.96786-0.82277  0 182.94 229.10   14.51 182.85 229.07   14.52
   2   4   2 15202.2   263.7   2 0.04619 0.20880 0.57503-0.17702-0.81683 0.96180  0 288.15 387.03  236.18 288.23 386.82  235.87
  -2  -4  -3 16064.7   306.4   1-0.42211 0.16709 0.38177-0.77890-0.82224 0.60448  0 175.71 284.63   26.44 175.80 284.52   26.43
  -2  -4  -3 17228.5   290.2   2-0.13597-0.11901-0.65775 0.25992 0.74086-0.95827  0 451.75 302.27   61.60 451.97 302.36   61.59
  -2  -4  -3 17180.9   294.5   2 0.10773-0.36273 0.12945-0.52746-0.98572 0.76825  0 305.83 118.50  208.00 305.88 118.67  208.06
  -2  -4   3 14467.5   289.6   1-0.68666 0.43159-0.26936-0.12799-0.67524 0.89294  0 177.42 223.82   68.44 177.40 223.79   68.48
  -2  -4   3 16803.1   308.4   2-0.23721-0.01772 0.31493-0.71259 0.91900-0.70135  0 440.42 327.45    2.00 440.55 327.46    1.93
  -2  -4   3 16450.7   306.5   2 0.11188-0.36692-0.76106 0.36320-0.63897 0.85642  0 281.12 122.26  151.03 281.32 122.41  150.95
  -2   4  -3 13786.3   292.1   1-0.69898 0.44391-0.42403 0.82138-0.57587 0.35816  0 440.19 187.68   79.18 440.30 187.86   79.06
  -2   4  -3 16281.3   301.3   2 0.12517-0.38021-0.11807 0.51594-0.98508 0.76763  0 443.30 321.83  194.07 443.45 321.83  193.83
  -2   4  -3 14595.4   285.2   2-0.23104-0.02385 0.60759-0.20970 0.75990-0.97748  0 286.68 121.07  342.49 286.74 121.26  342.47
  -2   4   3 16995.8   191.7   1-0.24790-0.00712 0.59863-0.20150-0.76170 0.97946  0 351.05 122.25   10.05 350.97 122.46   10.08
  -2   4   3 18128.5   328.5   2-0.19564-0.05929-0.29686 0.69453 0.93467-0.71702  0 264.63 127.30   37.67 264.82 127.42   37.67
  -2   4   3 16891.4   319.1   2 0.01299-0.26798 0.72479-0.32678-0.68885 0.90631  0 429.47 343.42  247.29 429.61 343.33  247.36
   2  -4  -3 10469.3   149.6   1-0.69527 0.95034-0.50780 0.11045-0.50866 0.29096  0 252.76 383.42   85.12 252.77 383.25   85.21
   2  -4  -3 18479.2   331.7   2-0.11088 0.36586-0.76064 0.36281 0.63963-0.85704  0 332.12 397.12   70.01 332.09 396.94   70.00
   2  -4  -3 17645.6   312.9   2 0.09539 0.15960 0.24778-0.64579-0.96411 0.74664  0 190.34 190.82  214.97 190.25 190.86  214.99
   2  -4   3 13028.4   266.2   1-0.58357 0.83890-0.79784 0.40032-0.15130 0.36877  0 185.61 315.14  112.61 185.58 315.09  112.61
   2  -4   3 17306.3   304.2   2-0.22720 0.48212 0.04663-0.44430 0.97273-0.75509  0 307.95 397.89   17.71 307.96 397.72   17.68
   2  -4   3 17061.3   293.7   2 0.12197 0.13307-0.66475 0.26689-0.73704 0.95449  0 181.39 209.95  158.88 181.34 209.91  158.84
   2   4  -3 13163.8   289.5   1-0.51889 0.77391 0.22047 0.17666-0.82592 0.60816  0 452.96 300.43   37.02 453.05 300.50   37.23
   2   4  -3 16076.2   302.2   2 0.13057 0.12447-0.26567 0.66353-0.95518 0.73773  0 313.85 397.98  185.00 313.78 397.75  185.17
   2   4  -3 13608.1   266.4   2-0.21228 0.46717 0.79033-0.39244 0.57473-0.79231  0 183.31 205.26  327.49 183.25 205.29  327.44
   2   4   3 17742.2   281.9   2-0.22025 0.47518-0.05181 0.44948 0.97407-0.75642  0 176.25 226.78   23.23 176.21 226.73   23.35
   2   4   3 16791.9   284.2   2 0.01597 0.23903 0.71292-0.31490-0.70107 0.91853  0 288.14 395.48  246.33 288.21 395.21  246.37
  -2  -4  -4  2371.0   150.7   1-0.37508 0.12006 0.44772-0.84485-0.81170 0.52135  0 168.47 295.28   22.07 168.51 295.21   21.75
  -2  -4  -4  2682.3   193.5   1-0.01051-0.24491-0.80869 0.41103 0.58814-0.87811  0 467.72 304.46  168.38 467.70 304.34  168.39
  -2  -4  -4  2779.0   174.2   2-0.10753-0.14744-0.77293 0.37510 0.62531-0.91518  0 465.26 309.24   71.02 465.41 309.33   71.10
  -2  -4  -4  2727.8   169.7   2 0.09465-0.34965 0.25424-0.65225-0.96250 0.67255  0 303.76 106.96  215.35 303.75 107.20  215.38
  -2  -4   4  2187.6   147.5   1-0.69796 0.44289-0.38135-0.01599-0.60616 0.89643  0 170.59 212.98   76.06 170.61 213.00   76.06
  -2  -4   4  2557.3   180.9   2 0.09930-0.35432-0.83905 0.44091-0.53491 0.82465  0 271.25 113.39  143.36 271.39 113.57  143.42
  -2  -4   4  2442.4   189.7   2-0.23767-0.01724 0.40892-0.80659 0.88108-0.59085  0 448.29 342.32  355.73 448.45 342.33  355.84
  -2   4  -4  2286.8   183.5   1-0.69828 0.44321-0.46145 0.85880-0.54724 0.25696  0 462.19 198.09   81.89 462.29 198.14   81.76
  -2   4  -4  2620.1   184.1   2 0.12974-0.38478-0.23289 0.63075-0.96381 0.67387  0 456.17 329.10  187.00 456.32 329.16  187.12
  -2   4  -4  2378.0   166.6   2-0.22110-0.03379 0.72239-0.32449 0.65519-0.94528  0 284.38 110.05  333.54 284.39 110.24  333.52
  -2   4   4  2044.0   166.7   2-0.18334-0.07159-0.38969 0.78736 0.90251-0.61232  0 255.28 119.47   43.29 255.35 119.54   43.33
  -2   4   4  2273.2   196.3   2-0.01060-0.24433 0.80829-0.41025-0.58868 0.87863  0 436.41 357.57  254.74 436.44 357.54  254.96
   2  -4  -4  1624.5    83.6   1-0.69872 0.95379-0.40357 0.00623-0.59069 0.30042  0 258.54 397.89   77.71 258.73 397.71   77.61
   2  -4  -4  2840.3    98.0   1-0.03548 0.29089-0.82289 0.42522 0.56710-0.85707  0 345.44 407.78  166.37 345.25 407.59  166.35
   2  -4  -4  3023.6   197.0   2-0.08812 0.34310-0.83663 0.43880 0.54063-0.83051  0 342.24 408.11   77.36 342.24 408.00   77.28
   2  -4  -4  2841.5   165.2   2 0.08310 0.17190 0.34738-0.74539-0.93404 0.64408  0 185.29 180.24  221.25 185.22 180.27  221.00
   2  -4   4  2443.3   149.8   1-0.56027 0.81559-0.82183 0.42431-0.10345 0.39341  0 171.41 305.37  116.02 171.42 305.33  115.96
   2  -4   4  2721.7   181.3   2-0.23308 0.48800 0.16367-0.56134 0.95859-0.66839  0 309.66 409.81   11.13 309.63 409.58   10.91
   2  -4   4  2486.9   148.5   2 0.11040 0.14465-0.77186 0.37400-0.62614 0.91608  0 172.76 205.48  150.02 172.75 205.51  150.00
   2   4  -4  2109.5   176.4   1-0.55642 0.81143 0.14583 0.25131-0.81801 0.52766  0 463.63 314.76   42.24 463.81 314.79   42.04
   2   4  -4  2537.0   188.2   2 0.13194 0.12310-0.36878 0.76664-0.92010 0.63016  0 323.91 409.81  179.02 323.82 409.57  178.93
   2   4  -4  2267.1   142.8   2-0.19941 0.45430 0.85852-0.46062 0.47242-0.76252  0 177.66 194.35  320.38 177.63 194.32  320.34
   2   4   4  2850.5   143.5   2-0.20858 0.46351-0.18119 0.57886 0.96107-0.67088  0 167.56 222.45   31.01 167.45 222.41   30.84
   2   4   4  2516.7   162.2   2-0.01301 0.26794 0.81578-0.41774-0.57821 0.86816  0 289.46 407.32  255.70 289.55 407.06  255.72
  -2  -4  -5  3634.9   182.5   1-0.33506 0.08005 0.49917-0.89630-0.79910 0.43617  0 159.33 306.50   17.93 159.36 306.48   17.95
  -2  -4  -5  3979.4   228.9   1-0.09531-0.16011-0.85282 0.45516 0.51343-0.87590  0 482.82 319.78  161.44 482.83 319.73  161.43
  -2  -4  -5  3535.0   197.9   2-0.08126-0.17371-0.85701 0.45918 0.50885-0.87119  0 482.24 319.06   79.42 482.47 319.17   79.46
  -2  -4  -5  3795.8   201.9   2 0.08264-0.33764 0.35078-0.74879-0.93281 0.57037  0 300.31  92.63  221.17 300.34  92.88  221.21
  -2  -4   5  2932.1   169.2   1-0.69724 0.44218-0.48263 0.08529-0.53002 0.89286  0 161.98 201.59   83.24 161.91 201.57   83.32
  -2  -4   5  3396.2   219.7   2 0.08591-0.34094-0.89628 0.49814-0.43508 0.79725  0 260.09 102.67  136.75 260.25 102.78  136.79
  -2  -4   5  3185.1   219.3   2-0.23647-0.01844 0.47752-0.87519 0.84620-0.48342  0 458.71 360.03  351.47 458.84 360.00  351.42
  -2   4  -5  2811.7   218.1   1-0.69714 0.44208-0.48415 0.88150-0.52876 0.16592  0 487.13 208.80   83.39 487.22 208.88   83.43
  -2   4  -5  3567.3   216.5   2 0.13157-0.38661-0.32349 0.72135-0.93704 0.57461  0 472.61 339.34  181.77 472.56 339.32  181.71
  -2   4  -5  2956.7   197.9   2-0.20895-0.04594 0.81057-0.41268 0.54710-0.90972  0 280.66  96.31  325.48 280.73  96.52  325.47
  -2   4   5  4244.5   206.3   2-0.17282-0.08210-0.45949 0.85716 0.87121-0.50846  0 244.68 109.63   47.75 244.52 109.66   47.76
  -2   4   5  3489.3   230.1   2-0.03246-0.22247 0.87109-0.47304-0.49005 0.85249  0 445.53 374.72  261.70 445.64 374.69  261.78
   2  -4  -5  2590.8    92.3   1-0.68702 0.94208-0.27187-0.12548-0.67386 0.31102  0 261.00 413.71   68.76 261.18 413.49   68.65
   2  -4  -5  3800.7   105.0   1-0.29525 0.55058-0.90765 0.51013 0.29833-0.66078  0 342.81 423.97  144.42 342.60 423.82  144.26
   2  -4  -5  3749.0   228.9   2-0.06727 0.32224-0.89337 0.49554 0.44425-0.80660  0 354.17 422.32   83.70 354.13 422.07   83.77
   2  -4  -5  3542.4   189.0   2 0.07205 0.18295 0.42299-0.82100-0.90327 0.54083  0 178.64 167.91  225.82 178.62 167.94  225.72
   2  -4   5  3086.9   170.7   1-0.53601 0.79134-0.84228 0.44476-0.05703 0.41949  0 156.24 295.68  119.14 156.28 295.61  119.17
   2  -4   5  3241.2   200.4   2-0.23622 0.49115 0.25730-0.65497 0.93701-0.57427  0 312.42 424.77    5.36 312.44 424.71    5.39
   2  -4   5  3524.2   175.4   2 0.09673 0.15829-0.85183 0.45368-0.51482 0.87699  0 162.28 199.45  141.99 162.27 199.47  142.05
   2   4  -5  2855.5   225.1   1-0.58415 0.83917 0.08358 0.31355-0.80733 0.44439  0 477.87 330.46   45.75 478.05 330.54   45.99
   2   4  -5  3500.1   223.0   2 0.13163 0.12342-0.44537 0.84323-0.88562 0.52319  0 335.49 424.47  174.00 335.43 424.35  174.10
   2   4  -5  3173.1   177.4   2-0.18617 0.44106 0.90773-0.50984 0.37598-0.73860  0 170.44 181.72  314.14 170.45 181.76  314.08
   2   4   5  3965.4   170.5   2-0.19726 0.45219-0.28358 0.68125 0.93844-0.57570  0 156.83 216.50   36.73 156.74 216.45   36.87
   2   4   5 -16.430  82.358   2-0.03938 0.29431 0.88802-0.48997-0.45812 0.82055  0 292.01 422.38  264.11 291.92 422.23  263.88
  -2  -4  -6  2949.2   188.9   1-0.30269 0.04767 0.53794-0.93507-0.78677 0.35124  0 148.27 318.60   15.00 148.39 318.51   14.97
  -2  -4  -6  3103.7   239.3   1-0.17378-0.08164-0.88332 0.48565 0.43538-0.87033  0 501.81 337.20  154.86 501.77 337.03  154.85
  -2  -4  -6  2951.6   219.8   2-0.05746-0.19751-0.91582 0.51798 0.39746-0.83227  2 503.05 331.72   86.70 503.54 331.78   86.79
  -2  -4  -6  2745.9   208.7   2 0.07210-0.32709 0.42268-0.82069-0.90341 0.46848  0 295.74  75.55  225.77 295.84  75.63  225.70
  -2  -4   6  2461.7   170.0   1-0.68619 0.43112-0.57162 0.17427-0.44989 0.88530  0 151.46 189.26   90.09 151.38 189.34   90.21
  -2  -4   6  2782.6   199.9   2 0.07258-0.32761-0.93711 0.53897-0.34140 0.77600  0 247.99  89.92  130.77 247.84  90.02  130.91
  -2  -4   6  2516.0   246.5   2-0.23517-0.01972 0.52598-0.92387 0.81734-0.38220  0 471.81 380.85  348.35 472.02 380.81  348.21
  -2   4  -6  2815.8   228.8   2 0.13214-0.38718-0.39208 0.78994-0.91039 0.47548  0 492.60 352.45  177.44 492.61 352.46  177.48
  -2   4  -6  2400.8   216.9   2-0.19522-0.05967 0.87594-0.47804 0.44116-0.87631  0 275.86  79.84  318.33 275.90  80.06  318.27
  -2   4   6  2873.3   201.8   2-0.16449-0.09049-0.50998 0.90781 0.84431-0.40950  0 232.42  97.76   50.96 232.34  97.91   51.10
  -2   4   6  2886.6   256.2   2-0.05244-0.20249 0.91693-0.51888-0.39559 0.83052  0 457.28 395.19  267.67 457.24 395.04  267.90
   2  -4  -6  1928.5    94.7   1-0.65598 0.91105-0.12443-0.27292-0.74445 0.30904  0 259.48 431.12   59.32 259.54 430.83   59.11
   2  -4  -6  2653.2   105.7   1-0.47068 0.72600-0.88062 0.48310 0.05447-0.48942  0 344.81 442.96  127.11 344.58 442.87  126.90
   2  -4  -6  2843.6   245.2   2-0.04824 0.30322-0.93453 0.53670 0.35260-0.78741  0 367.96 439.57   89.65 367.95 439.41   89.63
   2  -4  -6  2893.5   192.4   2 0.06325 0.19175 0.47896-0.87697-0.87556 0.44063  0 170.51 153.83  229.30 170.46 153.88  229.34
   2  -4   6  2674.1   179.6   1-0.51069 0.76602-0.85968 0.46216-0.01185 0.44679  0 139.93 285.82  122.29 140.01 285.76  122.31
   2  -4   6  2946.3   180.4   2 0.08198 0.17305-0.90974 0.51160-0.40701 0.84162  0 149.85 191.94  134.87 149.89 191.97  134.99
   2   4  -6  2134.5   223.2   1-0.60424 0.85925 0.03423 0.36290-0.79607 0.36055  0 495.79 348.09   49.16 495.97 348.35   49.10
   2   4  -6  2734.6   241.3   2 0.13055 0.12449-0.50071 0.89857-0.85571 0.42080  0 348.67 442.43  170.50 348.69 442.30  170.49
   2   4  -6  2470.7   174.8   2-0.17309 0.42798 0.94241-0.54451 0.28620-0.72134  0 161.73 167.60  308.54 161.71 167.60  308.49
   2   4   6  2839.6   166.0   2-0.18735 0.44227-0.36107 0.75874 0.91353-0.47824  0 144.14 209.09   41.57 144.05 209.13   41.56
  -2  -4  -7  39.852  97.055   1-0.27804 0.02302 0.56602-0.96315-0.77609 0.26798  0 135.79 331.67   12.42 135.54 331.61   12.74
  -2  -4  -7 136.427 140.010   2 0.06402-0.31902 0.47426-0.87227-0.87805 0.37064  0 290.39  55.34  229.01 290.39  55.33  229.03
  -2  -4   7  61.367  94.259   1-0.66650 0.41144-0.64820 0.25085-0.36826 0.87624  0 139.21 176.30   96.57 138.97 176.00   96.73
  -2  -4   7 -40.147 113.445   2 0.05964-0.31467-0.96535 0.56721-0.25405 0.76109  0 233.99  75.26  125.54 234.09  75.21  125.60
  -2  -4   7  78.548 169.121   2-0.23374-0.02115 0.55969-0.95758 0.79506-0.28739  0 488.07 405.28  346.04 488.01 405.18  345.89
  -2   4  -7 -20.298 141.548   2-0.18117-0.07372 0.92267-0.52478 0.34037-0.84804  0 270.07  60.80  311.55 269.99  60.58  311.84
  -2   4   7 -37.942 112.789   2-0.15810-0.09687-0.54619 0.94403 0.82260-0.31532  0 218.57  83.63   53.51 218.66  84.08   53.55
  -2   4   7 -26.545 173.662   2-0.07041-0.18452 0.94935-0.55130-0.30623 0.81364  0 471.53 419.00  273.42 471.56 419.13  273.45
   2  -4  -7  51.583  46.337   1-0.61260 0.86767 0.01186-0.40920-0.79030 0.28232  0 254.63 450.51   50.86 254.40 450.15   50.50
   2  -4  -7  26.083  64.993   1-0.57121 0.82654-0.81113 0.41361-0.12565-0.38178  0 351.13 465.26  114.86 350.72 465.42  114.41
   2  -4  -7 -26.289 169.812   2-0.03108 0.28606-0.96341 0.56558 0.26621-0.77349  0 384.14 460.64   95.06 384.03 460.50   94.95
   2  -4  -7 178.642 106.005   2 0.05643 0.19857 0.51921-0.91722-0.85278 0.34537  0 160.83 138.03  232.44 160.69 137.95  232.02
   2  -4   7  94.607 102.109   1-0.48436 0.73969-0.87426 0.47674 0.03249 0.47495  0 122.16 275.52  125.15 122.36 275.60  125.38
   2  -4   7  44.587  93.463   2 0.06739 0.18763-0.94974 0.55160-0.30568 0.81273  0 135.86 183.14  128.81 135.44 183.18  128.73
   2  -4   7 -75.721 140.280   2-0.23784 0.49275 0.38279-0.78046 0.89270-0.38480  0 321.24 466.04  357.37 320.98 465.59  357.48
   2   4  -7 102.787 166.138   2 0.12934 0.12570-0.53963 0.93749-0.83190 0.32451  0 363.93 464.11  168.01 363.92 463.95  167.87
   2   4  -7  99.933 104.969   2-0.16020 0.41508 0.96600-0.56811 0.20294-0.71061  0 151.50 151.65  303.51 151.33 151.78  303.45
   2   4   7  83.397  87.610   2-0.17918 0.43410-0.41779 0.81546 0.89070-0.38286  0 129.30 200.77   45.47 129.34 200.60   45.09
  -2  -4  -8  3580.6   225.9   1-0.26065 0.00564 0.58518-0.98231-0.76787 0.18717  0 120.76 346.37   11.25 120.63 346.15   11.19
  -2  -4  -8  3306.6   290.3   2 0.05803-0.31303 0.51005-0.90806-0.85819 0.27828  0 284.08  31.03  231.42 284.07  31.51  231.40
  -2  -4   8  3272.4   215.1   1-0.64048 0.38515-0.71206 0.31454-0.28767 0.86760  0 124.89 161.20  102.81 124.68 161.17  102.81
  -2  -4   8  3604.3   258.8   2 0.04701-0.30203-0.98386 0.58572-0.17266 0.75214  0 218.81  58.15  120.81 218.77  58.06  120.77
  -2   4  -8  3269.3   315.8   2-0.16694-0.08795 0.95487-0.55698 0.24567-0.82586  0 262.93  37.50  306.01 263.03  37.69  306.03
  -2   4   8  4127.7   274.8   2-0.15364-0.10133-0.57082 0.96865 0.80657-0.22682  0 203.28  67.85   55.32 203.26  68.00   55.26
  -2   4   8  3286.7   356.8   2-0.08659-0.16834 0.97117-0.57313-0.22209 0.80199  0 489.20 448.03  278.52 489.24 447.90  278.51
   2  -4  -8  3061.7   111.2   1-0.56809 0.82310 0.12058-0.51772-0.81409 0.23339  0 247.00 472.79   43.77 246.89 472.50   43.64
   2  -4  -8  3042.3   148.9   1-0.62863 0.88395-0.73446 0.33694-0.25574-0.32419  0 359.97 492.66  105.32 359.79 492.49  105.15
   2  -4  -8  4207.9   362.5   2-0.01548 0.27051-0.98250 0.58436 0.18560-0.76508  0 402.72 486.28   99.67 402.85 486.00   99.82
   2  -4  -8  3825.4   265.6   2 0.05148 0.20351 0.54712-0.94513-0.83547 0.25557  0 149.13 119.91  233.74 149.11 119.93  233.93
   2  -4   8  3075.0   218.6   1-0.45693 0.71226-0.88624 0.48872 0.07610 0.50383  0 103.17 265.00  128.38 102.95 264.92  128.41
   2  -4   8  3789.9   229.3   2 0.05308 0.20195-0.97598 0.57784-0.21129 0.79077  0 119.06 173.13  123.22 118.76 173.09  123.05
   2  -4   8  3538.3   316.3   2-0.23755 0.49246 0.42119-0.81886 0.87531-0.29486  0 326.55 492.57  354.99 326.53 492.37  355.07
   2   4  -8  3964.8   367.9   2 0.12818 0.12686-0.56593 0.96379-0.81443 0.23454  0 381.61 490.18  166.33 381.59 490.13  166.05
   2   4  -8  3276.7   239.6   2-0.14793 0.40286 0.98098-0.58293 0.12572-0.70562  0 139.09 134.04  299.00 139.16 134.04  298.88
   2   4   8  3809.2   221.6   2-0.17310 0.42803-0.45773 0.85540 0.87208-0.29169  0 112.74 190.97   47.66 112.33 190.95   47.65
  -2  -4  -9  9035.8   323.7   1-0.24958-0.00543 0.59687-0.99400-0.76253 0.10925  0 103.56 362.78   10.20 103.36 362.60   10.22
  -2  -4   9  8158.0   306.4   1-0.60889 0.35356-0.76563 0.36811-0.20752 0.85994  0 108.18 144.23  108.63 107.93 144.28  108.62
  -2  -4   9  9515.6   374.8   2 0.03470-0.28973-0.99473 0.59659-0.09651 0.74843  0 201.55  37.99  116.26 201.51  38.10  116.32
  -2   4  -9  6691.8   347.6   2-0.15296-0.10193 0.97567-0.57777 0.15709-0.80981  0 255.03  10.66  300.75 254.94  10.65  300.72
  -2   4   9  9567.9   377.3   2-0.15069-0.10428-0.58627 0.98410 0.79598-0.14376  0 185.78  49.12   56.29 185.78  49.26   56.34
   2  -4  -9  7618.7   164.6   1-0.53115 0.78617 0.19681-0.59394-0.82410 0.17082  2 238.04 498.96   38.84 237.91 498.76   38.76
   2  -4  -9  9607.8   374.7   2 0.04809 0.20690 0.56527-0.96328-0.82350 0.17111  0 135.35  99.21  235.01 135.38  99.35  235.19
   2  -4   9  7702.9   315.4   1-0.42848 0.68380-0.89565 0.49813 0.11924 0.53318  0  81.55 253.41  131.39  81.33 253.42  131.42
   2  -4   9  9143.0   332.9   2 0.03917 0.21586-0.99157 0.59343-0.12348 0.77540  0  99.80 161.61  118.09  99.42 161.62  117.89
   2   4  -9  7773.7   334.8   2-0.13595 0.39088 0.98929-0.59125 0.05305-0.70543  0 125.09 113.93  294.63 124.73 113.95  294.62
   2   4   9  9729.9   322.3   2-0.16882 0.42375-0.48451 0.88218 0.85834-0.20540  0  92.84 180.28   49.39  92.63 180.16   49.39
  -2  -4 -10  8273.7   340.0   1-0.24444-0.01058 0.60223-0.99936-0.75998 0.03411  0  83.56 381.75   10.13  83.29 381.66    9.77
  -2  -4  10  8424.9   349.0   1-0.57296 0.31764-0.80933 0.41181-0.12921 0.85412  0  88.71 124.81  114.19  88.42 124.70  114.16
  -2  -4  10  8857.5   418.5   2 0.02264-0.27766-0.99943 0.60129-0.02488 0.74923  0 181.67  14.52  112.24 181.73  14.67  112.13
  -2   4  10  9628.4   432.7   2-0.14906-0.10592-0.59438 0.99221 0.79025-0.06556  0 165.57  27.10   56.70 165.64  27.23   56.92
   2  -4 -10  8882.4   404.0   2 0.04608 0.20892 0.57563-0.97364-0.81641 0.09153  0 119.30  75.48  236.00 118.98  75.55  235.91
   2  -4  10  8237.0   350.8   1-0.39897 0.65430-0.90254 0.50502 0.16201 0.56290  0  57.17 240.78  134.39  56.85 240.71  134.43
   2  -4  10  8061.0   347.0   2 0.02547 0.22955-0.99881 0.60067-0.04148 0.76583  0  76.97 148.63  112.99  76.74 148.62  113.10
   2   4 -10  6909.5   353.1   2-0.12425 0.37918 0.99213-0.59409-0.01545-0.70943  0 107.91  91.02  290.62 107.57  90.93  290.63
   2   4  10  9257.7   338.6   2-0.16621 0.42119-0.50049 0.89833 0.84964-0.12494  0  69.98 168.14   50.50  69.65 168.21   50.47
  -2  -4 -11  2653.6   314.2   1-0.24459-0.01043 0.60208-0.99921-0.76005-0.03841  0  59.60 404.63    9.97  59.64 404.30    9.79
  -2  -4  11  2574.6   269.6   1-0.53381 0.27848-0.84395 0.44642-0.05299 0.85039  0  65.60 101.36  119.42  65.44 101.35  119.46
   2  -4 -11  2306.6   283.5   2 0.04531 0.20969 0.57962-0.97763-0.81362 0.01626  0  99.04  47.24  236.01  99.11  47.51  236.20
   2  -4  11  2165.0   262.3   1-0.36829 0.62362-0.90695 0.50943 0.20445 0.59294  0  28.38 226.42  137.40  28.51 226.33  137.44
   2  -4  11  2304.0   279.3   2 0.01225 0.24278-0.99930 0.60116 0.03542 0.76136  0  50.54 133.69  108.58  49.80 133.72  108.63
   2   4 -11  2125.7   270.0   2-0.11274 0.36767 0.99036-0.59232-0.08044-0.71692  0  87.39  64.21  286.63  86.90  64.05  286.85
   2   4  11  2517.3   251.0   2-0.16473 0.41971-0.50856 0.90639 0.84512-0.04796  0  42.49 154.59   50.88  42.34 154.57   51.01
  -2  -5   0  80.493  68.121   1-0.61603 0.36096 0.00252-0.49920-0.78772 0.78772  0 162.57 264.72   51.49 162.64 264.61   51.09
  -2  -5   0 -12.026  87.743   2-0.20572-0.04920-0.20841-0.28868 0.95616-0.95616  0 460.40 326.02   32.55 460.39 326.01   32.44
  -2  -5   0  70.552  86.884   2 0.13208-0.38712-0.38179-0.11553-0.91476 0.91476  0 288.15 107.87  178.47 288.29 107.89  178.12
  -2   5   0 -55.428  76.472   1-0.61826 0.36320-0.00367 0.50035-0.78596 0.78596  0 415.71 136.65   51.56 415.79 136.88   51.48
  -2   5   0 -66.547  96.202   2-0.23424-0.02069 0.19378 0.30330 0.95267-0.95267  0 266.37 113.53    9.44 266.45 113.73    9.15
  -2   5   0 -46.964  97.477   2 0.08192-0.33692 0.35609 0.14142-0.93085 0.93085  0 447.12 347.69  221.50 446.94 347.71  221.54
   2  -5   0  21.999  59.406   1-0.66423 0.91930-0.65494 0.15826-0.36034 0.36034  0 202.17 359.93   97.49 202.37 359.97   97.34
   2  -5   0  47.139  98.206   2-0.18088 0.43580-0.40667-0.09041 0.89549-0.89549  0 329.34 410.68   44.46 329.42 411.00   44.39
   2  -5   0 -13.600  66.441   2 0.13016 0.12489-0.24731-0.25001-0.96015 0.96015  0 178.37 189.71  186.33 178.50 189.56  186.26
   2   5   0  69.526 106.537   1-0.34270 0.59772 0.48976 0.00665-0.80168 0.80168  0 477.12 249.29   18.40 476.72 249.30   18.66
   2   5   0   6.571  89.857   2 0.09323 0.16176 0.26632 0.23119-0.95937 0.95937  2 305.67 410.65  215.98 305.52 410.75  216.10
   2   5   0  -4.451  57.059   2-0.23734 0.49225 0.43562 0.06148 0.86828-0.86828  0 170.10 208.70  353.87 170.36 208.70  354.14
  -2  -5  -1  2945.6   164.8   1-0.57871 0.32370 0.09669-0.59310-0.80978 0.73719  0 162.01 275.02   45.28 162.16 274.89   45.16
  -2  -5  -1  3454.5   189.3   2-0.18795-0.06697-0.35639-0.14070 0.91524-0.98779  0 463.85 323.34   41.27 464.10 323.39   41.28
  -2  -5  -1  3127.7   183.9   2 0.13012-0.38517-0.24608-0.25124-0.96047 0.88799  0 291.40 105.47  186.31 291.53 105.67  186.34
  -2  -5   1  2837.0   163.6   1-0.64826 0.39320-0.09657-0.40011-0.75527 0.82783  0 161.15 254.35   57.34 161.20 254.37   57.34
  -2  -5   1  3244.0   192.3   2-0.21922-0.03571-0.06470-0.43239 0.97353-0.90098  0 459.48 331.75   24.00 459.77 331.69   24.09
  -2  -5   1  3115.7   189.8   2 0.13028-0.38532-0.51007 0.01274-0.85021 0.92269  0 283.22 107.19  170.01 283.39 107.27  169.87
  -2   5  -1  2637.7   175.9   1-0.65659 0.40152-0.12669 0.62337-0.74353 0.67097  0 431.59 147.58   58.89 431.70 147.79   59.25
  -2   5  -1  3234.9   201.3   2 0.09764-0.35264 0.22829 0.26922-0.96868 0.89620  0 450.76 345.80  214.00 450.91 345.76  213.84
  -2   5   1  2791.6   155.5   1-0.55190 0.29689 0.15530 0.34111-0.81932 0.89191  0 401.64 125.11   41.26 401.75 125.32   41.43
  -2   5   1  3704.4   211.8   2-0.22791-0.02702 0.06050 0.43659 0.97180-0.89925  0 261.86 113.59   16.82 262.06 113.67   16.88
  -2   5   1  3322.2   202.1   2 0.06319-0.31819 0.47931 0.01820-0.87537 0.94785  0 445.61 352.73  229.35 445.74 352.69  229.36
   2  -5  -1  2136.5   116.2   1-0.67835 0.93342-0.60701 0.11033-0.41397 0.34141  0 212.38 372.13   93.10 212.44 371.92   93.14
   2  -5  -1  3613.3   211.3   2-0.16203 0.41701-0.52420 0.02691 0.83604-0.90850  0 334.38 412.53   52.24 334.33 412.42   52.06
   2  -5  -1  3403.2   170.8   2 0.12483 0.13021-0.11163-0.38569-0.98588 0.91339  0 179.16 185.42  194.13 179.17 185.42  194.20
   2  -5   1  2440.1   133.5   1-0.64757 0.90290-0.69701 0.20011-0.30795 0.38044  0 191.28 348.91  101.23 191.32 348.82  101.31
   2  -5   1  3223.8   196.5   2-0.19728 0.45221-0.28341-0.21368 0.93849-0.86594  0 326.11 413.04   36.85 326.17 412.91   36.86
   2  -5   1  3149.7   164.3   2 0.13208 0.12297-0.38476-0.11257-0.91352 0.98601  0 176.02 191.69  178.11 175.94 191.62  177.93
   2   5  -1  2667.2   202.0   1-0.40461 0.65963 0.40714 0.08928-0.81886 0.74627  0 479.03 262.39   24.66 479.12 262.46   24.65
   2   5  -1  3080.9   184.9   2 0.10861 0.14639 0.11994 0.37757-0.98682 0.91433  0 310.59 412.92  207.46 310.64 412.74  207.51
   2   5  -1  2895.8   154.1   2-0.23393 0.48882 0.55552-0.05815 0.79792-0.87044  0 170.60 204.04  346.21 170.57 204.09  346.18
   2   5   1  3136.1   204.3   1-0.27255 0.52757 0.57214-0.07573-0.77354 0.84613  0 477.59 235.90   12.05 477.54 236.00   12.25
   2   5   1  3110.0   152.6   2-0.23709 0.49201 0.30624 0.19085 0.92196-0.84941  0 168.10 211.12    2.45 168.03 211.10    2.46
  -2  -5  -2 10306.4   269.4   1-0.53854 0.28353 0.18230-0.67871-0.82264 0.67747  0 159.57 285.47   39.97 159.72 285.36   39.70
  -2  -5  -2 12460.1   289.6   2-0.16667-0.08830-0.49775 0.00046 0.85116-0.99609  0 470.69 323.79   50.23 470.94 323.85   50.29
  -2  -5  -2 11664.4   283.7   2 0.12484-0.37989-0.11184-0.38549-0.98585 0.84088  0 293.00 100.32  193.78 293.14 100.50  194.19
  -2  -5   2  9918.3   266.1   1-0.67353 0.41847-0.19731-0.29937-0.71234 0.85747  0 157.76 244.10   63.97 157.82 244.03   63.78
  -2  -5   2 11322.1   287.4   2-0.22820-0.02672 0.06549-0.56258 0.97141-0.82631  0 461.91 340.41   16.64 462.10 340.45   16.59
  -2  -5   2 10812.3   287.5   2 0.12491-0.37995-0.62408 0.12676-0.77131 0.91628  0 276.71 103.87  161.82 276.91 104.01  161.89
  -2   5  -2  9633.8   270.0   1-0.67780 0.42273-0.21821 0.71489-0.70212 0.55698  0 449.70 158.07   64.92 449.79 158.32   65.13
  -2   5  -2 10671.9   286.7   2 0.11008-0.36508 0.10360 0.39392-0.98851 0.84353  0 457.65 346.86  206.55 457.82 346.83  206.56
  -2   5  -2 10773.5   285.4   2-0.23680-0.01811 0.46300 0.03410 0.85414-0.99925  0 270.21 105.82  352.42 270.39 106.04  352.37
  -2   5   2 10737.3   216.6   1-0.44442 0.18941 0.34803 0.14838-0.82545 0.97062  0 389.59 112.54   28.83 389.82 112.81   28.75
  -2   5   2  7577.3   256.6   2-0.21946-0.03546-0.06167 0.55876 0.97367-0.82857  0 256.06 111.07   23.87 256.05 111.13   23.91
  -2   5   2 11271.5   303.9   2 0.04293-0.29793 0.59179-0.09428-0.80494 0.94992  0 446.98 360.79  236.99 447.21 360.72  237.07
   2  -5  -2  7466.8   172.9   1-0.68954 0.94461-0.55221 0.05553-0.46861 0.32348  0 221.33 385.01   88.78 221.40 384.82   88.65
   2  -5  -2 11703.5   303.0   2-0.14178 0.39676-0.63030 0.13300 0.76330-0.90824  0 340.92 417.02   59.49 340.91 416.92   59.53
   2  -5  -2 11737.1   280.6   2 0.11704 0.13795 0.01413-0.51164-0.99303 0.84805  0 178.05 179.24  201.43 177.97 179.27  201.41
   2  -5   2  9033.4   240.2   1-0.62916 0.88449-0.73351 0.23661-0.25712 0.40211  0 179.30 338.27  104.81 179.33 338.20  105.04
   2  -5   2 11544.6   292.8   2-0.21053 0.46546-0.16163-0.33546 0.96413-0.81904  0 324.48 418.28   29.74 324.50 418.07   29.69
   2  -5   2 11308.8   268.8   2 0.13011 0.12493-0.51538 0.01805-0.84703 0.99200  0 171.51 191.72  169.55 171.46 191.66  169.52
   2   5  -2  9934.2   296.9   1-0.45713 0.71215 0.32801 0.16841-0.82671 0.68153  0 484.81 275.82   30.18 484.76 275.96   30.11
   2   5  -2 11148.6   287.6   2 0.11916 0.13584-0.01514 0.51265-0.99276 0.84778  0 317.26 418.21  199.69 317.32 417.98  199.73
   2   5  -2 10426.0   255.0   2-0.22709 0.48198 0.66029-0.16293 0.71585-0.86090  0 168.94 197.47  338.55 168.89 197.51  338.52
   2   5   2 10668.2   295.4   1-0.19593 0.45094 0.65025-0.15384-0.73402 0.87920  0 481.62 222.21    5.60 481.66 222.30    5.59
   2   5   2 11614.9   260.0   2-0.23356 0.48849 0.17572 0.32137 0.95633-0.81123  0 163.75 211.55    9.83 163.71 211.53   10.21
  -2  -5  -3 14638.5   319.9   1-0.49864 0.24362 0.25773-0.75415-0.82761 0.60985  0 155.19 296.30   34.95 155.35 296.16   34.79
  -2  -5  -3 16377.8   335.5   2-0.14309-0.11189-0.62402 0.12672 0.76820-0.98561  0 481.01 327.22   58.91 481.23 327.30   59.06
  -2  -5  -3 15917.2   329.0   2 0.11717-0.37217 0.01237-0.50988-0.99303 0.77557  0 293.08  92.19  201.22 293.13  92.38  201.31
  -2  -5   3 12876.3   306.0   1-0.69039 0.43532-0.29629-0.20039-0.65998 0.87769  0 152.50 233.50   70.03 152.54 233.45   70.27
  -2  -5   3 15555.8   343.4   2-0.23361-0.02132 0.17687-0.67396 0.95611-0.73846  0 466.98 352.09   10.00 467.11 352.12   10.14
  -2  -5   3 14586.8   331.8   2 0.11665-0.37169-0.72037 0.22305-0.68371 0.90116  0 268.75  98.11  154.41 268.95  98.28  154.42
  -2   5  -3 12738.3   311.1   1-0.68882 0.43376-0.28446 0.78114-0.66679 0.44909  0 470.21 168.45   69.44 470.36 168.64   69.48
  -2   5  -3 16104.9   351.9   2 0.11891-0.37390-0.01139 0.50891-0.99284 0.77538  0 467.58 350.88  200.00 467.79 350.88  199.94
  -2   5  -3 14892.3   335.1   2-0.23242-0.02247 0.58303-0.08566 0.77850-0.99607  0 269.84  97.79  344.21 269.91  98.02  344.24
  -2   5   3 15214.6   233.2   1-0.28650 0.03148 0.55643-0.06001-0.77994 0.99770  0 380.09  98.73   13.59 379.93  98.96   13.51
  -2   5   3 17540.3   353.5   2-0.20992-0.04501-0.16783 0.66491 0.96321-0.74556  0 248.63 106.09   30.00 248.52 106.23   30.05
  -2   5   3 14863.1   348.2   2 0.02174-0.27673 0.68930-0.19179-0.72415 0.94161  0 451.04 371.84  244.42 451.19 371.74  244.45
   2  -5  -3 10209.7   186.3   1-0.69677 0.95183-0.48957-0.00711-0.52425 0.30654  0 228.98 399.09   83.95 229.04 398.88   83.84
   2  -5  -3 16551.2   360.3   2-0.12106 0.37604-0.72161 0.22431 0.68164-0.89904  0 349.24 424.78   66.63 349.24 424.58   66.65
   2  -5  -3 16413.5   336.5   2 0.10815 0.14685 0.12489-0.62241-0.98626 0.76879  0 175.15 171.09  207.80 175.06 171.14  207.79
   2  -5   3 11920.7   279.2   1-0.60899 0.86432-0.76549 0.26858-0.20775 0.42523  0 166.37 328.04  108.60 166.38 328.01  108.61
   2  -5   3 16102.2   343.5   2-0.22054 0.47547-0.04812-0.44897 0.97419-0.75655  0 324.30 426.74   22.99 324.30 426.52   23.13
   2  -5   3 15404.7   317.2   2 0.12438 0.13067-0.63221 0.13488-0.76475 0.98221  0 165.08 189.80  161.24 165.02 189.78  161.30
   2   5  -3 13065.3   331.1   1-0.50000 0.75501 0.25531 0.24110-0.82754 0.60977  0 493.82 289.95   34.97 493.83 290.05   34.95
   2   5  -3 15102.8   340.3   2 0.12584 0.12921-0.13280 0.63013-0.98312 0.76566  0 325.55 426.66  193.17 325.39 426.31  192.97
   2   5  -3 13515.0   297.7   2-0.21826 0.47315 0.74775-0.25039 0.62708-0.84465  0 165.44 188.98  331.37 165.42 189.05  331.33
   2   5   3 16221.4   308.0   2-0.22742 0.48235 0.05244 0.44465 0.97238-0.75474  0 157.35 210.01   17.25 157.32 209.99   17.35
  -2  -5  -4 28276.1   445.4   1-0.46082 0.20581 0.32186-0.81827-0.82707 0.53672  0 148.87 307.62   30.57 149.03 307.49   30.53
  -2  -5  -4 31963.5   492.6   1 0.03413-0.28955-0.78045 0.28337 0.62428-0.91425  0 500.61 322.56  171.89 500.68 322.42  172.06
  -2  -5  -4 29944.6   447.1   2-0.11899-0.13598-0.72987 0.23258 0.67315-0.96302  0 494.91 333.69   67.31 495.15 333.74   67.34
  -2  -5  -4 29190.4   438.9   2 0.10852-0.36352 0.12084-0.61835-0.98672 0.69677  0 291.74  81.10  207.57 291.80  81.30  207.56
  -2  -5   4 24980.2   425.1   1-0.69831 0.44325-0.39060-0.10608-0.59983 0.89010  0 145.38 222.49   76.74 145.38 222.47   76.70
  -2  -5   4 29799.0   471.8   2-0.23647-0.01846 0.26790-0.76498 0.93398-0.64378  0 474.86 366.82    4.89 474.91 366.80    4.76
  -2  -5   4 27047.8   451.6   2 0.10631-0.36134-0.79820 0.30052-0.59294 0.88268  0 259.35  90.01  147.47 259.52  90.14  147.51
  -2   5  -4 23751.1   430.3   1-0.69439 0.43933-0.33128 0.82796-0.63881 0.34853  0 493.77 178.83   72.60 493.85 179.04   72.63
  -2   5  -4 28985.4   463.8   2 0.12486-0.37990-0.11213 0.60945-0.98582 0.69588  0 480.94 358.02  194.09 481.06 358.02  194.17
  -2   5  -4 24997.5   428.1   2-0.22478-0.03011 0.68665-0.18928 0.69137-0.98146  0 268.01  87.06  336.47 268.08  87.29  336.45
  -2   5   4 33076.7   486.4   2-0.20044-0.05449-0.25621 0.75330 0.94561-0.65542  0 239.60  98.91   35.06 239.49  99.11   35.25
  -2   5   4 29520.3   483.6   2 0.00062-0.25555 0.77042-0.27286-0.63754 0.92749  0 457.56 385.95  251.33 457.65 385.86  251.36
   2  -5  -4 19665.1   237.2   1-0.69895 0.95401-0.41878-0.07790-0.57974 0.28947  0 235.04 414.59   78.77 235.11 414.35   78.68
   2  -5  -4 31020.8   487.4   2-0.10047 0.35545-0.79710 0.29980 0.59543-0.88531  0 359.44 435.66   73.16 359.38 435.46   73.35
   2  -5  -4 31236.5   469.4   2 0.09879 0.15621 0.21791-0.71542-0.97096 0.68101  0 170.51 161.04  213.16 170.42 161.10  213.23
   2  -5   4 23930.3   410.8   1-0.58737 0.84269-0.79347 0.29657-0.15938 0.44935  0 152.33 318.07  111.94 152.36 318.04  112.04
   2  -5   4 27991.7   447.0   2-0.22742 0.48235 0.05242-0.54951 0.97239-0.68219  0 325.44 438.58   17.33 325.44 438.42   17.35
   2  -5   4 27931.6   427.2   2 0.11545 0.13960-0.73129 0.23396-0.67223 0.96217  0 156.70 186.12  153.49 156.65 186.09  153.50
   2   5  -4 28642.0   462.6   2 0.12966 0.12538-0.23020 0.72753-0.96447 0.67452  0 335.38 438.27  187.01 335.24 438.02  187.27
   2   5  -4 26232.5   422.2   2-0.20764 0.46253 0.81794-0.32058 0.53652-0.82661  0 160.28 178.72  324.77 160.23 178.77  324.72
   2   5   4 31357.3   430.8   2-0.21982 0.47475-0.05718 0.55427 0.97386-0.68367  0 148.94 206.67   23.63 148.89 206.64   23.66
  -2  -5  -5 12759.9   321.5   1-0.42690 0.17188 0.37466-0.87107-0.82304 0.46010  0 140.65 319.62   26.97 140.81 319.50   26.92
  -2  -5  -5 13489.8   346.0   2 0.09951-0.35451 0.21124-0.70875-0.97236 0.60992  0 289.09  67.01  213.00 289.18  67.16  212.84
  -2  -5   5 11436.1   316.0   1-0.69752 0.44245-0.47809-0.01859-0.53376 0.89660  0 136.31 210.87   83.08 136.34 210.85   82.98
  -2  -5   5 13683.7   340.2   2 0.09503-0.35006-0.85979 0.36211-0.50173 0.86391  0 248.90  79.74  141.01 248.78  79.86  141.17
  -2   5  -5 12721.6   362.6   2 0.12877-0.38381-0.19624 0.69357-0.97206 0.60964  0 497.96 368.25  189.24 498.12 368.31  189.28
  -2   5  -5 11518.1   340.8   2-0.21499-0.03990 0.77206-0.27469 0.59808-0.96070  0 264.84  73.57  329.00 264.92  73.75  329.16
  -2   5   5 14077.1   351.1   2-0.19188-0.06305-0.32731 0.82440 0.92523-0.56249  0 229.06  89.71   39.49 228.96  89.82   39.50
  -2   5   5 12939.1   382.5   2-0.01963-0.23530 0.83576-0.33820-0.54874 0.91118  0 466.72 403.43  257.74 466.78 403.34  257.78
   2  -5  -5  9098.6   166.3   1-0.69532 0.95038-0.34143-0.15525-0.63242 0.26958  0 239.19 431.79   73.26 239.26 431.60   73.32
   2  -5  -5 14267.4   218.2   1-0.12278 0.37820-0.86464 0.36756 0.48717-0.84963  0 368.99 450.64  159.18 368.66 450.37  159.15
   2  -5  -5 13499.1   375.0   2-0.08090 0.33588-0.85759 0.36030 0.50792-0.87027  0 371.59 449.93   79.46 371.50 449.76   79.51
   2  -5  -5 14426.8   351.8   2 0.08997 0.16503 0.29335-0.79086-0.95176 0.58932  0 164.21 149.10  217.76 164.14 149.16  217.72
   2  -5   5 10728.0   301.6   1-0.56438 0.81971-0.81789 0.32099-0.11193 0.47438  0 137.17 308.19  115.32 137.17 308.18  115.37
   2  -5   5 12823.0   347.1   2-0.23196 0.48688 0.13748-0.63457 0.96296-0.60022  0 327.79 453.92   12.43 327.75 453.73   12.44
   2  -5   5 12569.2   313.8   2 0.10434 0.15068-0.81121 0.31353-0.57537 0.93755  0 146.35 180.78  146.20 146.31 180.74  146.25
   2   5  -5 12625.8   361.8   2 0.13135 0.12369-0.30794 0.80527-0.94229 0.57987  0 346.91 453.26  182.60 346.74 452.97  182.65
   2   5  -5 11967.8   314.2   2-0.19603 0.45092 0.87269-0.37532 0.44720-0.80982  0 153.37 166.71  318.70 153.32 166.77  318.67
   2   5   5 14582.0   321.4   2-0.21167 0.46659-0.14994 0.64703 0.96577-0.60303  0 138.43 201.71   28.77 138.38 201.68   29.01
  -2  -5  -6  53.011 102.462   1-0.39776 0.14275 0.41671-0.91312-0.81740 0.38187  0 130.67 332.51   24.05 130.62 332.47   23.97
  -2  -5  -6  -5.764 140.163   2 0.09116-0.34616 0.28358-0.78109-0.95461 0.51968  0 285.44  49.64  217.50 285.41  49.85  217.13
  -2  -5   6  82.597  96.039   1-0.68869 0.43363-0.55745 0.06077-0.46363 0.89904  0 124.86 198.40   89.40 125.36 198.43   89.07
  -2  -5   6   8.458 110.082   2 0.08281-0.33784-0.90699 0.40931-0.41293 0.84754  0 236.40  67.00  135.52 236.59  67.30  135.37
  -2  -5   6 -64.257 170.734   2-0.23780-0.01712 0.39467-0.89176 0.88752-0.45218  0 499.33 406.36  356.91 499.14 406.24  356.74
  -2   5  -6  -0.433 153.350   2-0.20344-0.05145 0.84007-0.34270 0.50289-0.93803  0 260.69  57.08  322.61 260.51  57.23  322.40
  -2   5   6  -1.850 120.608   2-0.18432-0.07060-0.38276 0.87985 0.90527-0.46998  0 216.90  78.42   42.92 216.84  78.34   42.90
  -2   5   6  80.765 186.831   2-0.03887-0.21606 0.88680-0.38924-0.46051 0.89544  0 478.48 424.13  263.56 478.68 424.50  263.72
   2  -5  -6 -16.766  49.377   1-0.68526 0.94033-0.26031-0.23637-0.68019 0.24478  0 241.57 451.53   68.35 241.24 451.00   67.89
   2  -5  -6  29.520  80.746   1-0.31074 0.56607-0.90854 0.41163 0.27928-0.71423  0 366.83 471.05  143.16 366.49 471.13  142.85
   2  -5  -6 118.508 171.512   2-0.06250 0.31748-0.90468 0.40739 0.42148-0.85630  0 385.81 467.69   85.67 385.87 467.80   85.25
   2  -5  -6  24.266 104.147   2 0.08237 0.17263 0.35281-0.85033-0.93206 0.49714  0 156.30 135.50  221.57 156.17 135.27  221.33
   2  -5   6  58.005  97.423   1-0.54032 0.79565-0.83894 0.34204-0.06500 0.49995  0 120.97 298.13  118.45 120.59 298.25  118.62
   2  -5   6  -0.724 151.208   2-0.23470 0.48962 0.20686-0.70395 0.94980-0.51451  0 331.27 472.40    8.06 331.20 472.93    8.38
   2  -5   6 126.606  97.103   2 0.09183 0.16319-0.87384 0.37617-0.47746 0.91207  0 133.91 173.86  139.59 133.92 173.86  139.55
   2   5  -6  62.114 168.725   2 0.13194 0.12310-0.36826 0.86558-0.92031 0.48540  0 359.92 471.76  178.58 360.15 471.69  178.97
   2   5  -6  73.870 101.973   2-0.18406 0.43895 0.91431-0.41695 0.36077-0.79592  0 144.67 152.99  313.51 144.66 152.97  313.11
   2   5   6  13.601  87.988   2-0.20390 0.45883-0.22522 0.72231 0.95273-0.51744  0 125.49 195.33   33.03 125.75 195.26   33.43
  -2  -5  -7  4664.2   245.6   1-0.37412 0.11911 0.44900-0.94541-0.81144 0.30333  0 118.38 346.97   21.72 118.33 346.75   21.65
  -2  -5  -7  4877.6   313.1   2 0.08416-0.33915 0.33949-0.83700-0.93684 0.42942  0 280.58  28.83  220.53 280.61  29.03  220.52
  -2  -5   7  4370.1   254.4   1-0.67261 0.41754-0.62820 0.13152-0.39111 0.89909  0 112.72 184.90   94.74 112.32 184.85   94.96
  -2  -5   7  4929.5   290.5   2 0.07053-0.32556-0.94223 0.44456-0.32745 0.83449  0 222.91  52.19  130.25 222.79  52.29  130.05
  -2   5  -7  3751.1   278.5   2-0.19076-0.06413 0.89251-0.39514 0.40871-0.91638  0 254.86  37.14  316.29 254.87  37.41  316.17
  -2   5   7  5494.9   298.6   2-0.17812-0.07680-0.42481 0.92190 0.88759-0.37975  0 203.09  64.49   45.55 203.02  64.55   45.54
  -2   5   7  5014.6   390.6   2-0.05680-0.19813 0.92553-0.42797-0.37440 0.88181  0 493.57 450.00  269.25 493.82 450.15  269.23
   2  -5  -7  3732.2   125.6   1-0.67017 0.92523-0.18178-0.31490-0.71961 0.21163  0 241.22 473.47   62.91 241.14 473.19   62.78
   2  -5  -7  4633.9   168.8   1-0.45607 0.71140-0.88657 0.38967 0.07743-0.58487  0 367.01 495.96  128.70 366.84 495.79  128.50
   2  -5  -7  4540.1   366.5   2-0.04522 0.30020-0.94023 0.44294 0.33752-0.84480  0 402.66 490.25   90.57 402.91 490.26   90.57
   2  -5  -7  4834.3   277.7   2 0.07589 0.17910 0.39833-0.89584-0.91410 0.40668  0 146.34 119.10  224.00 146.33 119.25  224.17
   2  -5   7  4024.0   240.5   1-0.51481 0.77014-0.85710 0.36019-0.01902 0.52645  0 102.64 287.98  121.75 102.35 288.04  121.81
   2  -5   7  5025.3   340.4   2-0.23632 0.49125 0.26154-0.75862 0.93582-0.42798  0 335.80 496.54    5.23 335.67 496.46    5.14
   2  -5   7  4446.8   240.8   2 0.07844 0.17658-0.92101 0.42334-0.38155 0.88860  0 119.62 165.47  133.33 119.23 165.49  133.41
   2   5  -7  4663.3   370.6   2 0.13205 0.12300-0.41380 0.91113-0.90074 0.39334  0 376.04 494.84  176.33 375.86 494.74  176.12
   2   5  -7  4500.6   258.2   2-0.17188 0.42677 0.94505-0.44768 0.27811-0.78578  0 134.04 137.11  307.95 134.09 137.23  308.00
   2   5   7  5236.9   244.3   2-0.19720 0.45212-0.28413 0.78122 0.93829-0.43045  0 111.03 187.48   36.75 110.83 187.51   36.91
   2   5   7  4587.5   317.7   2-0.06592 0.32085 0.94205-0.44449-0.32894 0.83635  2 306.78 493.70  272.00 306.73 493.41  272.05
  -2  -5  -8  5292.6   286.9   1-0.35621 0.10120 0.47258-0.96900-0.80609 0.22539  0 103.82 362.92   20.00 103.71 362.78   19.94
  -2  -5   8  4820.4   265.4   1-0.65099 0.39566-0.68921 0.19231-0.31811 0.89803  0  97.19 169.72  100.54  97.13 169.79  100.55
  -2  -5   8  5912.9   334.6   2 0.05836-0.31339-0.96758 0.46990-0.24574 0.82522  0 207.28  34.40  125.23 207.16  34.53  125.10
  -2   5  -8  5073.3   300.2   2-0.17776-0.07712 0.93150-0.43413 0.31735-0.89754  0 248.22  13.35  310.44 247.96  13.65  310.40
  -2   5   8  5813.0   332.0   2-0.17344-0.08149-0.45563 0.95272 0.87311-0.29272  0 187.27  48.02   47.52 187.17  48.13   47.51
   2  -5  -8  3844.0   133.5   1-0.65274 0.90780-0.11267-0.38401-0.74916 0.16861  2 239.48 499.40   58.52 239.28 499.11   58.36
   2  -5  -8  5241.2   309.4   2 0.07066 0.18434 0.43209-0.92960-0.89906 0.31916  0 134.40 100.68  226.03 134.39 100.74  226.30
   2  -5   8  4952.7   276.6   1-0.48805 0.74338-0.87241 0.37551 0.02641 0.55351  0  82.48 277.30  124.70  82.06 277.34  124.96
   2  -5   8  5054.4   267.9   2 0.06492 0.19010-0.95505 0.45738-0.28924 0.86872  0 102.41 155.49  127.65 102.00 155.61  127.73
   2   5  -8  4673.3   290.9   2-0.15964 0.41453 0.96683-0.46946 0.19941-0.77960  0 121.69 119.30  303.33 121.37 119.26  303.24
   2   5   8  6072.3   275.1   2-0.19170 0.44662-0.32870 0.82579 0.92477-0.34439  0  93.65 178.44   39.57  93.28 178.43   39.59
  -2  -5  -9 -36.615 134.521   1-0.34372 0.08871 0.48847-0.98489-0.80203 0.14874  0  86.56 381.25   18.61  86.45 381.13   18.76
  -2  -5   9  -2.394 147.811   1-0.62403 0.36870-0.74227 0.24537-0.24416 0.89658  0  79.28 152.65  105.49  79.10 152.58  105.99
  -2  -5   9 -97.801 183.273   2 0.04625-0.30128-0.98473 0.48705-0.16785 0.81977  0 189.18  13.16  120.57 189.27  13.46  120.49
  -2   5   9 130.492 183.549   2-0.17005-0.08488-0.47707 0.97416 0.86226-0.20932  0 168.87  28.53   48.86 168.87  28.64   48.90
   2  -5  -9 154.415 171.620   2 0.06689 0.18811 0.45610-0.95361-0.88741 0.23502  0 120.33  79.53  227.96 119.96  79.25  227.85
   2  -5   9  40.832 127.779   1-0.45999 0.71531-0.88506 0.38815 0.07133 0.58109  0  58.39 265.77  128.53  59.13 265.88  128.08
   2  -5   9 211.187 149.364   2 0.05147 0.20355-0.97822 0.48054-0.20111 0.85302  0  81.88 144.11  122.56  81.71 144.09  122.44
   2   5  -9  32.637 155.876   2-0.14777 0.40270 0.98112-0.48356 0.12479-0.77717  0 106.48  98.82  298.44 106.14  98.59  298.82
   2   5   9  46.795 132.989   2-0.18734 0.44227-0.36111 0.85820 0.91351-0.26058  0  73.48 167.76   41.53  72.59 167.99   41.57
  -2  -5 -10  5584.8   348.9   1-0.33638 0.08136 0.49754-0.99396-0.79956 0.07369  0  66.08 402.80   17.90  65.97 402.66   18.07
  -2  -5  10  5068.4   325.6   1-0.59260 0.33727-0.78722 0.29032-0.17062 0.89552  0  58.00 132.56  111.13  57.77 132.53  111.24
   2  -5 -10  5422.1   395.6   2 0.06440 0.19060 0.47194-0.96945-0.87928 0.15440  0 102.93  54.04  229.01 102.42  53.95  228.88
   2  -5  10  5424.1   323.1   1-0.43071 0.68604-0.89501 0.39811 0.11592 0.60898  0  33.10 253.23  131.09  32.82 253.25  131.19
   2  -5  10  5739.9   336.8   2 0.03814 0.21689-0.99237 0.49470-0.11722 0.84157  0  57.96 130.70  117.46  57.61 130.66  117.52
   2   5 -10  5639.8   378.1   2-0.13598 0.39091 0.98928-0.49173 0.05320-0.77807  0  87.82  74.39  294.60  87.58  74.46  294.63
   2   5  10  6387.4   346.2   2-0.18427 0.43919-0.38316 0.88025 0.90511-0.17963  0  48.44 156.03   43.00  48.05 156.00   42.92
  -2  -6   0 47442.9   595.5   1-0.64263 0.38757-0.07757-0.51845-0.76224 0.76224  0 136.64 275.98   56.01 136.82 275.86   56.14
  -2  -6   0 55505.3   620.9   2-0.19911-0.05582-0.26763-0.32887 0.94272-0.94272  0 494.55 356.24   36.03 494.80 356.29   35.93
  -2  -6   0 49943.0   588.3   2 0.13207-0.38712-0.40934-0.18745-0.90277 0.90277  0 273.39  77.79  176.41 273.62  78.01  176.40
  -2   6   0 46321.8   506.8   1-0.57439 0.31937 0.10654 0.48916-0.81162 0.81162  0 450.17 110.77   44.42 450.23 111.17   44.54
  -2   6   0 57774.3   639.9   2-0.23602-0.01891 0.25186 0.34464 0.93854-0.93854  0 247.67  87.31    5.72 247.52  87.55    5.72
  -2   6   0 50229.3   615.0   2 0.07766-0.33265 0.38613 0.21088-0.91917 0.91917  0 474.90 382.24  223.38 475.10 382.20  223.41
   2  -6   0 37583.7   450.3   1-0.66935 0.92442-0.63904 0.04302-0.37894 0.37894  0 178.82 376.33   96.17 178.90 376.15   95.91
   2  -6   0 54498.6   632.4   2-0.17755 0.43247-0.42860-0.16790 0.88588-0.88588  0 349.00 445.53   45.99 348.98 445.30   45.78
   2  -6   0 55031.1   617.7   2 0.13117 0.12388-0.29684-0.29995-0.94588 0.94588  0 159.74 166.72  183.25 159.71 166.72  183.32
   2   6   0 52176.9   596.6   2 0.08726 0.16774 0.31569 0.28132-0.94484 0.94484  0 318.78 446.29  218.90 318.82 446.05  219.07
   2   6   0 50239.0   569.9   2-0.23703 0.49195 0.45402 0.14250 0.85889-0.85889  0 148.63 189.55  353.02 148.68 189.59  352.96
  -2  -6  -1 -38.682  75.048   1-0.61602 0.36096 0.00253-0.59855-0.78772 0.71516  0 136.87 286.64   51.44 136.95 286.64   51.09
  -2  -6  -1 -69.817 128.569   2-0.18350-0.07142-0.38854-0.20797 0.90298-0.97552  0 498.72 353.39   43.55 499.08 353.61   43.26
  -2  -6  -1 -49.514 119.978   2 0.13120-0.38624-0.29854-0.29825-0.94534 0.87285  0 276.91  75.14  183.54 276.93  75.44  183.22
  -2  -6   1  79.430  90.378   1-0.66529 0.41023-0.16105-0.43496-0.72901 0.80157  0 134.74 265.10   61.44 134.80 265.18   61.45
  -2  -6   1  15.387 135.765   2-0.21174-0.04319-0.14917-0.44733 0.96587-0.89333  0 494.06 361.99   28.57 493.72 361.99   28.97
  -2  -6   1  -1.450 126.796   2 0.13019-0.38523-0.51578-0.08101-0.84677 0.91926  0 268.56  77.88  169.58 268.79  77.82  169.48
  -2   6  -1  69.747 122.735   1-0.61810 0.36304-0.00323 0.59924-0.78609 0.71352  0 467.10 123.04   51.44 467.21 122.81   51.45
  -2   6  -1   0.809 140.532   2 0.09154-0.34654 0.28045 0.31656-0.95549 0.88301  0 480.04 380.49  216.55 479.68 380.35  216.94
  -2   6  -1 160.812  97.018   2-0.23787-0.01705 0.36497 0.23154 0.90012-0.97268  0 250.27  84.67  358.40 250.34  84.77  358.59
  -2   6   1  -6.591 115.978   1-0.50854 0.25352 0.23992 0.35578-0.82694 0.89953  0 435.70  98.63   35.89 435.71  98.54   35.96
  -2   6   1  66.377  96.323   2-0.23211-0.02281 0.14089 0.45562 0.96243-0.88988  0 243.25  87.50   12.02 243.23  87.88   12.24
  -2   6   1  86.605 140.837   2 0.06154-0.31654 0.48928 0.10774-0.86995 0.94244  0 473.28 387.32  229.98 473.46 387.18  230.02
   2  -6  -1   5.260  72.121   1-0.68083 0.93589-0.59664 0.00062-0.42485 0.35229  0 188.93 388.64   92.34 188.51 388.78   92.27
   2  -6  -1 167.721 143.643   2-0.16145 0.41643-0.52752-0.06923 0.83406-0.90653  0 354.36 446.58   52.47 354.13 446.60   52.28
   2  -6  -1   6.749  89.017   2 0.12818 0.12686-0.18415-0.41264-0.97450 0.90202  0 160.75 162.61  189.55 160.59 162.67  189.99
   2  -6   1 -36.954  71.703   1-0.65570 0.91077-0.67805 0.08203-0.33212 0.40469  0 168.10 364.39   99.43 168.26 364.39   99.49
   2  -6   1-113.468 129.959   2-0.19197 0.44689-0.32662-0.26988 0.92545-0.85291  0 345.57 447.40   39.54 345.48 447.42   39.46
   2  -6   1  19.514  84.599   2 0.13207 0.12297-0.41044-0.18635-0.90227 0.97476  0 157.04 168.70  176.38 157.01 168.87  176.33
   2   6  -1  69.508 128.922   2 0.10119 0.15381 0.19571 0.40130-0.97543 0.90294  0 324.05 448.07  211.85 324.08 447.92  211.92
   2   6  -1 -27.636  79.764   2-0.23399 0.48888 0.55425 0.04259 0.79879-0.87131  0 148.88 185.24  346.52 149.10 185.11  346.27
   2   6   1  60.387 121.152   2 0.06998 0.18501 0.43639 0.16063-0.89703 0.96952  0 314.96 447.54  226.50 314.96 447.45  226.58
  -2  -6  -2 931.458 129.641   1-0.58673 0.33171 0.07749-0.67319-0.80607 0.66089  0 134.89 297.59   46.34 135.19 297.71   46.37
  -2  -6  -2 975.291 157.707   2 0.12836-0.38341-0.18886-0.40793-0.97358 0.82861  0 278.73  70.16  189.99 278.81  70.09  189.71
  -2  -6   2 774.746 120.343   1-0.68283 0.42777-0.24559-0.35043-0.68806 0.83319  0 130.72 254.38   66.59 130.90 254.48   66.92
  -2  -6   2 853.390 165.576   2-0.22126-0.03366-0.03878-0.55772 0.97444-0.82935  0 495.59 370.71   22.59 495.72 370.73   22.60
  -2  -6   2 826.415 164.066   2 0.12558-0.38063-0.61355 0.01676-0.77961 0.92458  0 262.37  75.08  162.64 262.51  75.02  162.66
  -2   6  -2 905.809 175.474   1-0.64661 0.39154-0.09089 0.68691-0.75739 0.61225  0 486.38 133.73   56.99 486.60 133.86   56.98
  -2   6  -2  1044.8   181.3   2 0.10313-0.35812 0.17693 0.42009-0.97881 0.83383  0 487.41 381.60  210.98 487.24 381.52  210.82
  -2   6  -2 886.523 133.784   2-0.23652-0.01839 0.47544 0.12108 0.84736-0.99247  0 251.88  79.12  351.75 251.63  79.35  351.56
  -2   6   2 953.857 131.320   1-0.41468 0.15966 0.39266 0.20304-0.82089 0.96607  0 423.03  84.53   25.63 423.25  84.71   25.67
  -2   6   2  1088.4   145.6   2-0.22658-0.02835 0.03679 0.55971 0.97330-0.82820  0 237.39  85.43   17.92 237.38  85.80   18.24
  -2   6   2 969.951 181.321   2 0.04410-0.29909 0.58590 0.01112-0.80918 0.95416  0 474.51 395.28  236.72 474.57 395.29  236.64
   2  -6  -2 606.136  92.471   1-0.68972 0.94479-0.55104-0.04497-0.46972 0.32458  0 196.98 402.47   88.44 197.05 402.57   88.56
   2  -6  -2  1152.0   179.9   2-0.14403 0.39900-0.61942 0.02267 0.77173-0.91667  0 360.80 451.24   58.60 360.94 451.07   58.73
   2  -6  -2 983.478 134.802   2 0.12302 0.13202-0.07759-0.51920-0.98937 0.84439  0 159.51 156.61  196.42 159.67 156.69  196.16
   2  -6   2 766.019 121.338   1-0.63965 0.89498-0.71372 0.11744-0.28539 0.43037  0 156.46 353.28  103.05 156.53 353.36  102.98
   2  -6   2 784.173 163.904   2-0.20384 0.45877-0.22577-0.37074 0.95262-0.80752  0 343.73 453.15   33.45 343.51 452.82   33.46
   2  -6   2 995.467 133.535   2 0.13005 0.12499-0.52000-0.07679-0.84421 0.98918  0 152.25 169.00  169.01 152.41 169.13  169.20
   2   6  -2 884.303 158.676   2 0.11191 0.14309 0.08229 0.51473-0.99031 0.84533  0 330.96 453.17  205.47 330.85 453.11  205.32
   2   6  -2 900.687 122.719   2-0.22836 0.48325 0.64519-0.04835 0.72910-0.87415  0 147.79 178.80  339.86 147.69 178.80  339.70
   2   6   2 991.958 122.521   2-0.23576 0.49069 0.24220 0.35430 0.94115-0.79605  0 141.79 192.90    6.32 141.82 192.82    6.29
   2   6   2  1149.5   162.1   2 0.05074 0.20426 0.55114 0.04587-0.83287 0.97784  0 312.44 452.54  234.41 312.50 452.33  234.20
  -2  -6  -3 633.037 120.255   1-0.55676 0.30174 0.14510-0.74080-0.81790 0.60014  0 131.14 309.41   42.20 131.49 309.22   42.08
  -2  -6  -3 627.480 154.405   2 0.12345-0.37849-0.08500-0.51179-0.98870 0.77125  0 279.11  62.05  195.63 279.27  61.80  195.73
  -2  -6   3 533.237 118.447   1-0.69401 0.43895-0.32922-0.26680-0.64028 0.85799  0 125.05 243.69   72.54 125.15 243.55   72.48
  -2  -6   3 716.412 170.066   2-0.22785-0.02708 0.05955-0.65605 0.97187-0.75423  0 500.73 382.74   16.69 500.84 382.73   16.94
  -2  -6   3 745.475 140.589   2 0.11874-0.37378-0.69989 0.10310-0.70431 0.92177  0 254.90  69.76  156.07 254.77  69.72  156.08
  -2   6  -3 608.839 167.835   2 0.11213-0.36713 0.07968 0.51734-0.99049 0.77303  0 497.85 385.91  205.59 498.10 385.81  205.17
  -2   6  -3 712.424 128.945   2-0.23281-0.02208 0.57815 0.01869 0.78201-0.99958  0 251.45  70.91  344.55 251.35  71.14  344.59
  -2   6   3 595.875 119.334   1-0.28852 0.03350 0.55416 0.04154-0.78081 0.99857  0 412.57  69.09   13.59 412.68  69.28   13.69
  -2   6   3 802.094 142.368   2-0.21985-0.03508-0.05686 0.65336 0.97388-0.75623  0 229.99  81.15   23.64 229.99  81.38   23.64
  -2   6   3 684.957 183.447   2 0.02558-0.28058 0.67281-0.07580-0.73937 0.95683  0 478.24 406.52  242.96 478.38 406.58  243.14
   2  -6  -3 414.629  81.264   1-0.69575 0.95081-0.50268-0.09333-0.51307 0.29537  0 204.25 417.60   84.68 204.46 417.74   84.82
   2  -6  -3 761.017 180.029   2-0.12588 0.38086-0.70171 0.10496 0.70125-0.91866  0 369.27 458.88   64.97 369.59 458.91   65.03
   2  -6  -3 711.221 128.050   2 0.11675 0.13825 0.01899-0.61600-0.99298 0.77552  0 156.90 148.73  201.64 156.91 148.75  201.69
   2  -6   3 659.172 118.900   1-0.62187 0.87720-0.74583 0.14955-0.23877 0.45624  0 143.57 342.96  106.41 143.67 342.79  106.38
   2  -6   3 789.478 168.901   2-0.21341 0.46834-0.13036-0.46614 0.96823-0.75058  0 342.96 461.69   27.57 342.98 461.67   27.88
   2  -6   3 706.317 127.801   2 0.12511 0.12993-0.62099 0.02420-0.77377 0.99123  0 145.73 167.77  162.35 145.91 167.60  162.12
   2   6  -3 457.006 162.337   2 0.11949 0.13555-0.02025 0.61704-0.99263 0.77517  0 339.04 461.90  199.39 338.99 461.61  199.45
   2   6  -3 646.433 116.408   2-0.22090 0.47579 0.72475-0.12792 0.65264-0.87021  0 144.11 170.82  333.34 144.41 170.68  333.31
   2   6   3 682.124 113.180   2-0.23209 0.48702 0.14043 0.45607 0.96250-0.74486  0 135.10 191.72   11.99 135.40 191.79   12.26
   2   6   3 655.171 153.917   2 0.02967 0.22532 0.65494-0.05793-0.75510 0.97256  0 311.06 461.18  242.13 311.23 460.58  241.74
  -2  -6  -4-152.032  94.886   1-0.52718 0.27217 0.20450-0.80019-0.82478 0.53443  0 125.59 321.48   38.53 125.83 321.39   38.26
  -2  -6  -4 -39.792 147.759   2 0.11743-0.37243 0.00875-0.60577-0.99304 0.70309  0 278.32  50.67  201.10 278.33  50.43  201.10
  -2  -6   4 178.860 108.518   1-0.69885 0.44379-0.40973-0.18629-0.58628 0.87655  0 117.16 232.28   78.40 117.43 232.24   78.05
  -2  -6   4  40.784 113.139   2 0.11016-0.36520-0.77359 0.17679-0.62404 0.91399  0 245.53  62.12  149.54 245.58  61.95  149.84
  -2   6  -4  25.461 110.150   2-0.22624-0.02865 0.67027-0.07343 0.70679-0.99689  0 249.56  60.27  337.60 249.76  60.19  337.75
  -2   6   4  -3.664 120.573   2-0.21268-0.04224-0.13816 0.73467 0.96730-0.67711  0 221.21  74.72   28.60 221.06  74.62   28.33
  -2   6   4  -8.377 182.150   2 0.00688-0.26188 0.74841-0.15139-0.66320 0.95315  0 484.73 421.34  249.50 485.02 421.37  249.39
   2  -6  -4 -16.160  69.030   1-0.69859 0.95365-0.45215-0.14387-0.55456 0.26429  0 210.79 434.37   80.96 210.73 434.66   81.08
   2  -6  -4 -51.268 167.917   2-0.10753 0.36251-0.77294 0.17619 0.62530-0.91518  0 380.28 470.13   71.44 380.21 470.32   71.10
   2  -6  -4 -13.040 104.388   2 0.11007 0.14493 0.10372-0.70073-0.98850 0.69855  0 152.61 138.83  206.58 152.49 138.84  206.57
   2  -6   4-102.138  94.251   1-0.60233 0.85766-0.77474 0.17846-0.19229 0.48226  0 129.57 332.30  109.42 129.55 332.55  109.71
   2  -6   4   1.692 155.849   2-0.22088 0.47581-0.04372-0.55279 0.97432-0.68413  0 343.73 473.96   22.53 343.79 474.12   22.88
   2  -6   4-111.825  92.062   2 0.11771 0.13734-0.71022 0.11343-0.69407 0.98401  0 137.13 164.33  155.34 137.41 164.30  155.25
   2   6  -4  49.141 164.102   2 0.12470 0.13034-0.10909 0.70588-0.98618 0.69624  0 348.82 473.32  194.00 348.97 473.70  194.35
   2   6  -4 -43.719  99.371   2-0.21200 0.46689 0.79210-0.19526 0.57239-0.86249  0 139.22 160.87  327.42 139.32 160.72  327.27
   2   6   4  88.658  98.952   2-0.22723 0.48216 0.04722 0.54928 0.97269-0.68250  0 126.81 188.84   18.03 126.90 189.08   17.64
   2   6   4 174.988 154.092   2 0.00798 0.24702 0.74430-0.14728-0.66780 0.95775  0 311.19 472.27  249.43 311.10 472.49  249.03
  -2  -6  -5  45.380 113.682   1-0.50003 0.24502 0.25525-0.85095-0.82753 0.46460  0 118.19 334.57   34.66 118.18 334.45   34.96
  -2  -6  -5 269.503 171.838   2 0.11119-0.36618 0.09035-0.68737-0.98968 0.62725  0 276.16  36.01  206.00 276.25  35.86  205.79
  -2  -6   5  52.135 109.118   1-0.69703 0.44197-0.48580-0.11021-0.52739 0.89024  0 108.33 220.20   83.40 107.75 220.30   83.55
  -2  -6   5 165.352 131.027   2 0.10023-0.35525-0.83437 0.23716-0.54201 0.90418  0 234.78  51.48  143.70 234.81  51.62  143.90
  -2   6  -5 175.283 123.675   2-0.21802-0.03687 0.74960-0.15276 0.62496-0.98758  0 246.86  46.00  330.92 246.81  46.26  331.17
  -2   6   5 136.007 137.688   2-0.20591-0.04901-0.20664 0.80315 0.95650-0.59376  0 210.78  65.54   32.49 210.46  65.53   32.33
  -2   6   5  52.339 215.602   2-0.01179-0.24314 0.81208-0.21501-0.58342 0.94586  0 494.63 439.92  255.41 494.54 439.99  255.34
   2  -6  -5  11.202  72.087   1-0.69867 0.95373-0.40155-0.19447-0.59213 0.22929  0 215.85 453.87   77.63 215.82 453.74   77.47
   2  -6  -5 140.622 114.702   1-0.03542 0.29084-0.82285 0.22636 0.56715-0.92961  0 398.89 484.85  166.06 399.13 484.47  166.35
   2  -6  -5 182.730 199.609   2-0.08939 0.34436-0.83278 0.23603 0.54634-0.90868  0 393.17 486.04   77.21 393.11 485.60   76.87
   2  -6  -5 168.875 121.950   2 0.10327 0.15172 0.17549-0.77251-0.97905 0.61661  0 146.34 127.00  210.38 146.21 126.87  210.74
   2  -6   5 100.211 114.710   1-0.58110 0.83643-0.80061 0.20432-0.14611 0.50856  0 114.48 322.52  113.04 114.02 322.47  112.97
   2  -6   5 111.154 178.218   2-0.22629 0.48122 0.03228-0.62879 0.97352-0.61078  0 345.91 490.71   18.60 345.88 490.54   18.50
   2  -6   5 132.120 112.040   2 0.10818 0.14685-0.78590 0.18868-0.60882 0.97100  0 127.39 159.34  148.57 126.85 159.32  148.66
   2   6  -5 110.586 187.506   2 0.12816 0.12688-0.18369 0.78048-0.97459 0.61216  0 360.85 489.78  190.52 360.86 489.73  190.01
   2   6  -5 108.432 109.785   2-0.20189 0.45678 0.84749-0.25065 0.49092-0.85353  0 132.35 149.11  321.59 132.38 148.89  321.59
   2   6   5 -27.378  92.608   2-0.22160 0.47653-0.03489 0.63139 0.97451-0.61177  0 116.00 184.70   21.93 116.20 184.78   22.37
   2   6   5  68.529 170.961   2-0.01370 0.26863 0.81794-0.22087-0.57514 0.93758  0 311.99 488.29  255.59 311.97 488.29  255.93
  -2  -6  -6  1289.2   168.3   1-0.47579 0.22078 0.29726-0.89296-0.82780 0.39228  0 108.27 348.81   32.19 108.36 348.74   32.18
  -2  -6  -6  1316.7   227.0   2 0.10495-0.35995 0.15895-0.75597-0.98169 0.54677  0 272.91  17.75  209.74 272.98  17.67  209.77
  -2  -6   6  1327.0   182.6   1-0.68888 0.43381-0.55631-0.03970-0.46472 0.90013  0  96.11 207.50   89.02  95.96 207.52   88.98
  -2  -6   6  1302.2   190.2   2 0.08937-0.34440-0.88370 0.28649-0.45943 0.89404  0 222.53  38.88  138.05 222.50  38.78  138.36
  -2   6  -6  1193.6   183.4   2-0.20801-0.04688 0.81593-0.21909 0.53943-0.97458  0 242.59  29.01  325.03 242.53  29.04  324.93
  -2   6   6  1689.6   206.3   2-0.19969-0.05524-0.26266 0.85917 0.94400-0.50871  0 198.08  54.07   35.58 198.11  53.98   35.63
   2  -6  -6 891.479  97.778   1-0.69625 0.95131-0.35300-0.24301-0.62500 0.18959  0 219.77 476.25   74.26 219.82 475.77   74.11
   2  -6  -6  1557.8   190.5   2 0.09693 0.15806 0.23465-0.83166-0.96724 0.53231  0 138.00 112.51  213.92 138.03 112.72  214.22
   2  -6   6  1092.6   160.2   1-0.55848 0.81381-0.82348 0.22719-0.09994 0.53489  0  96.95 312.39  116.33  96.82 312.39  116.20
   2  -6   6  1254.3   163.2   2 0.09745 0.15757-0.84832 0.25111-0.52044 0.95505  0 114.10 152.53  142.41 113.98 152.70  142.43
   2   6  -6  1291.7   173.5   2-0.19093 0.44582 0.89190-0.29506 0.40995-0.84509  0 123.72 135.15  316.00 123.44 135.06  316.25
   2   6   6  1708.9   189.6   2-0.21583 0.47076-0.10464 0.70115 0.97081-0.53552  0 103.12 179.06   26.36 103.19 178.97   26.39
  -2  -6  -7 106.635 139.785   1-0.45536 0.20035 0.33083-0.92653-0.82656 0.31845  0  96.04 364.80   29.48  96.25 364.65   29.92
  -2  -6   7 165.455 132.212   1-0.67471 0.41965-0.62070 0.02468-0.39937 0.90735  0  81.59 193.28   94.72  81.86 193.55   94.31
  -2  -6   7  34.978 159.054   2 0.07794-0.33296-0.92252 0.32531-0.37800 0.88505  0 208.19  22.60  132.96 208.30  23.05  133.18
  -2   6  -7 117.085 163.659   2-0.19676-0.05813 0.86972-0.27288 0.45262-0.96029  2 236.68   8.73  319.59 236.85   8.02  319.03
  -2   6   7 183.845 164.571   2-0.19434-0.06058-0.30725 0.90376 0.93157-0.42373  0 183.86  40.14   38.50 183.73  39.78   38.30
   2  -6  -7  62.280  82.807   1-0.69184 0.94690-0.30888-0.28714-0.65265 0.14468  2 223.32 501.37   71.34 222.90 501.51   71.11
   2  -6  -7  70.723 155.237   2 0.09134 0.16366 0.28211-0.87913-0.95502 0.44761  0 127.62  96.14  217.47 127.76  96.10  217.04
   2  -6   7 133.123 126.939   1-0.53437 0.78970-0.84352 0.24724-0.05403 0.56147  0  77.45 302.18  119.48  77.57 302.10  119.38
   2  -6   7   0.321 133.810   2 0.08540 0.16962-0.89811 0.30089-0.43141 0.93845  0  99.02 144.34  136.46  98.62 144.42  136.55
   2   6  -7 197.910 139.841   2-0.17972 0.43461 0.92656-0.32972 0.33042-0.83809  0 111.88 118.91  311.43 112.30 119.01  311.22
   2   6   7 164.525 124.663   2-0.21050 0.46543-0.16192 0.75843 0.96409-0.45625  0  88.13 171.70   30.05  87.54 171.68   29.71
  -2  -6  -8 16727.6   452.1   1-0.43893 0.18391 0.35646-0.95215-0.82479 0.24409  0  81.60 382.88   28.07  81.53 382.70   28.17
  -2  -6   8 15607.8   439.6   1-0.65567 0.40060-0.67813 0.08212-0.33202 0.91256  0  65.30 177.98   99.43  65.04 177.97   99.50
  -2   6   8 19328.3   535.1   2-0.19000-0.06493-0.34167 0.93817 0.92042-0.34003  0 167.01  22.39   40.35 166.97  22.50   40.38
   2  -6  -8 17993.5   503.6   2 0.08682 0.16818 0.31915-0.91616-0.94372 0.36382  0 115.41  76.42  219.25 115.05  76.54  219.28
   2  -6   8 14751.7   435.6   1-0.50873 0.76406-0.86089 0.26460-0.00847 0.58839  0  56.14 291.40  122.51  55.86 291.35  122.54
   2  -6   8 17634.0   470.1   2 0.07288 0.18215-0.93633 0.33912-0.34346 0.92294  0  80.64 134.42  130.98  80.27 134.39  131.04
   2   6  -8 15155.3   457.8   2-0.16808 0.42297 0.95272-0.35588 0.25314-0.83334  0  99.01 100.32  306.52  98.61 100.36  306.48
  -2  -6  -9 212.644 186.531   1-0.42687 0.17186 0.37469-0.97039-0.82303 0.16975  0  63.40 404.06   27.07  63.72 403.71   26.92
  -2  -6   9 200.682 174.862   1-0.63198 0.37665-0.72847 0.13218-0.26446 0.91688  0  45.51 160.03  104.47  45.20 160.19  104.51
   2  -6  -9 -50.935 201.869   2 0.08316 0.17184 0.34694-0.94396-0.93419 0.28180  0  99.46  53.77  221.06  99.38  53.39  220.97
   2  -6   9   4.053 159.155   1-0.48160 0.73693-0.87562 0.27933 0.03686 0.61556  0  31.19 279.95  125.42  30.99 279.86  125.68
   2  -6   9 257.753 173.674   2 0.06019 0.19484-0.96437 0.36716-0.25761 0.90952  0  58.79 122.49  126.11  58.32 122.38  125.82
   2   6  -9  95.794 200.411   2-0.15634 0.41123 0.97148-0.37464 0.17827-0.83098  0  82.25  78.85  301.68  81.83  78.50  301.97
   2   6   9 103.025 154.381   2-0.20206 0.45699-0.24227 0.83878 0.94893-0.29600  0  46.09 152.75   34.04  46.57 152.54   34.42
  -2  -7   0  53.773 107.871   1-0.66292 0.40785-0.15129-0.54406-0.73325 0.73325  0 107.45 288.20   60.49 107.47 288.50   60.82
  -2  -7   0  71.297 167.941   2 0.13166-0.38670-0.44307-0.25319-0.88677 0.88677  0 257.81  42.74  173.85 257.38  42.98  174.25
  -2   7   0 196.947 170.482   1-0.52952 0.27450 0.19998 0.49500-0.82439 0.82439  0 493.23  77.42   38.62 493.20  77.44   38.55
  -2   7   0 -18.647 124.769   2-0.23711-0.01782 0.30780 0.38813 0.92143-0.92143  0 226.27  57.32    2.58 226.28  57.10    2.37
   2  -7   0  62.843 107.485   1-0.66909 0.92415-0.63989-0.05546-0.37797 0.37797  0 152.24 395.63   95.37 152.44 395.67   95.99
   2  -7   0 -24.465 185.007   2-0.17305 0.42798-0.45804-0.23788 0.87192-0.87192  0 372.25 487.80   47.48 372.05 487.87   47.67
   2  -7   0  27.116 109.241   2 0.13182 0.12322-0.34655-0.34970-0.92872 0.92872  0 137.59 141.18  180.08 137.60 141.22  180.30
   2   7   0 125.193 165.353   2 0.08064 0.17436 0.36542 0.33110-0.92735 0.92735  0 333.59 489.35  222.64 333.74 489.23  222.11
   2   7   0   3.237 103.478   2-0.23638 0.49129 0.48123 0.21470 0.84412-0.84412  0 122.80 168.66  350.86 123.40 168.72  351.18
  -2  -7  -1  3458.5   223.2   1-0.64415 0.38909-0.08260-0.61275-0.76043 0.68786  0 108.10 300.18   56.48 108.10 299.99   56.46
  -2  -7  -1  3963.1   321.3   2 0.13185-0.38689-0.35037-0.34588-0.92728 0.85480  0 260.73  39.78  179.96 260.83  40.01  180.07
  -2  -7   1  3534.7   227.3   1-0.67860 0.42353-0.22238-0.47297-0.70004 0.77260  0 105.00 277.35   65.41 104.94 277.22   65.41
  -2  -7   1  4074.1   258.3   2 0.12959-0.38463-0.53312-0.16313-0.83605 0.90854  0 252.55  42.91  168.38 252.48  43.13  168.31
  -2   7  -1  3654.9   256.0   2-0.23771-0.01720 0.40348 0.29245 0.88357-0.95613  0 229.19  53.71  356.02 229.15  53.99  356.19
  -2   7   1  3252.6   280.8   1-0.46597 0.21095 0.31350 0.38148-0.82740 0.89999  0 477.15  63.12   31.01 477.22  63.48   31.09
  -2   7   1  4633.2   275.6   2-0.23492-0.02001 0.21353 0.48240 0.94827-0.87572  0 222.05  57.62    7.69 221.93  57.80    7.99
   2  -7  -1  2879.3   189.2   1-0.67914 0.93420-0.60380-0.09155-0.41736 0.34479  0 161.82 409.55   93.00 161.96 409.30   92.87
   2  -7  -1  4492.0   356.4   2-0.15876 0.41373-0.54257-0.15364 0.82487-0.89734  0 377.55 489.09   53.26 377.64 489.18   53.31
   2  -7  -1  4028.6   249.3   2 0.13026 0.12479-0.25104-0.44521-0.95917 0.88669  0 138.59 137.02  185.95 138.64 137.08  186.04
   2  -7   1  2840.1   202.6   1-0.65713 0.91220-0.67442-0.02093-0.33665 0.40921  0 141.79 383.20   98.97 141.84 383.12   99.15
   2  -7   1  4317.1   342.7   2-0.18588 0.44081-0.37171-0.32422 0.90955-0.83700  0 368.15 490.10   42.22 368.19 490.16   42.22
   2  -7   1  4347.7   249.6   2 0.13166 0.12338-0.44272-0.25353-0.88694 0.95943  0 134.57 143.54  174.35 134.71 143.50  174.27
   2   7  -1  3783.3   327.3   2 0.09344 0.16156 0.26461 0.43191-0.95982 0.88733  0 339.29 491.33  216.00 339.36 491.25  215.99
   2   7  -1  3148.3   216.1   2-0.23342 0.48831 0.56635 0.12996 0.79042-0.86294  0 124.19 164.14  345.44 123.94 164.19  345.42
   2   7   1  3626.6   295.4   2 0.06527 0.18973 0.46661 0.22991-0.88205 0.95454  0 329.45 491.07  228.51 329.49 490.81  228.53
   2   7   1  3976.8   227.4   2-0.23780 0.49272 0.39293 0.30300 0.88829-0.81573  0 120.93 171.38  356.79 120.80 171.47  356.85
  -2  -7  -2  7044.2   288.0   1-0.62326 0.36819-0.01780-0.67755-0.78181 0.63668  0 106.88 312.05   52.38 106.80 311.86   52.37
  -2  -7  -2  7456.2   357.9   2 0.13045-0.38549-0.25842-0.43784-0.95719 0.81221  0 262.68  33.87  185.59 262.93  34.15  185.60
  -2  -7   2  6754.0   282.9   1-0.69015 0.43508-0.29443-0.40093-0.66106 0.80620  0 100.60 266.07   70.05 100.46 265.96   70.14
  -2  -7   2  8026.5   316.5   2 0.12533-0.38038-0.61752-0.07873-0.77650 0.92147  0 246.16  40.51  162.41 246.15  40.58  162.37
  -2   7  -2  7390.3   313.1   2-0.23597-0.01895 0.49742 0.19851 0.83480-0.97991  0 230.60  47.88  350.14 230.52  48.11  350.10
  -2   7   2  7049.6   294.1   1-0.38122 0.12620 0.43946 0.25552-0.81336 0.95853  0 463.41  47.42   22.29 463.51  47.84   22.34
  -2   7   2  8856.3   335.2   2-0.23131-0.02361 0.12385 0.57207 0.96496-0.81987  0 216.04  55.71   13.01 216.02  55.98   13.23
   2  -7  -2  5620.6   220.8   1-0.68708 0.94215-0.56673-0.12862-0.45467 0.30954  0 170.29 424.59   89.89 170.42 424.35   89.82
   2  -7  -2  8420.1   416.2   2-0.14339 0.39836-0.62255-0.07366 0.76933-0.91427  0 384.81 494.09   58.82 385.05 494.06   58.96
   2  -7  -2  8143.6   311.2   2 0.12712 0.12792-0.15953-0.53673-0.97897 0.83400  0 137.88 130.95  191.43 137.82 130.99  191.42
   2  -7   2  6456.0   261.6   1-0.64287 0.89820-0.70711 0.01145-0.29446 0.43944  0 129.87 371.53  102.29 130.01 371.43  102.31
   2  -7   2  7959.8   391.0   2-0.19692 0.45184-0.28642-0.40951 0.93765-0.79255  0 365.93 496.38   37.25 365.90 496.16   37.04
   2  -7   2  8095.5   310.2   2 0.12948 0.12557-0.53618-0.16008-0.83411 0.97909  0 129.82 143.91  168.25 129.87 143.91  168.11
   2   7  -2  7600.3   379.5   2 0.10406 0.15093 0.16788 0.52863-0.98030 0.83532  0 346.54 496.92  210.30 346.52 496.84  210.30
   2   7  -2  7018.1   284.0   2-0.22835 0.48324 0.64535 0.05096 0.72896-0.87400  0 122.99 157.78  339.68 122.61 157.88  339.68
   2   7   2  7938.1   286.3   2-0.23700 0.49193 0.30423 0.39169 0.92265-0.77755  0 116.47 172.36    2.58 116.11 172.34    2.58
   2   7   2  8155.3   370.0   2 0.04835 0.20665 0.56392 0.13260-0.82441 0.96939  0 326.59 496.36  235.25 326.57 496.08  235.09
  -2  -7  -3  4532.5   255.0   1-0.60111 0.34609 0.04223-0.73721-0.79805 0.58029  0 103.51 324.53   48.70 103.55 324.38   48.60
  -2  -7  -3  5283.8   355.8   2 0.12758-0.38262-0.17036-0.52589-0.97709 0.75963  0 263.43  25.23  190.85 263.69  25.18  190.79
  -2  -7   3  4634.4   257.5   1-0.69710 0.44204-0.36588-0.32948-0.61659 0.83430  0  94.13 254.64   74.73  94.01 254.54   74.99
  -2  -7   3  4716.6   284.7   2 0.11928-0.37433-0.69419-0.00206-0.70984 0.92730  0 238.40  35.35  156.55 238.32  35.35  156.54
  -2   7  -3  5104.2   292.8   2-0.23224-0.02265 0.58629 0.11002 0.77610-0.99367  0 230.44  39.17  344.00 230.29  39.34  344.01
  -2   7   3  4484.9   278.8   1-0.27414 0.01912 0.57041 0.12457-0.77426 0.99203  0 451.72  29.96   12.34 451.67  30.23   12.39
  -2   7   3  5297.4   308.0   2-0.22686-0.02806 0.04127 0.65465 0.97305-0.75541  0 208.66  51.57   18.00 208.50  51.71   17.98
   2  -7  -3  3528.6   186.0   1-0.69286 0.94792-0.52941-0.16594-0.48956 0.27186  0 177.74 441.43   87.00 177.90 441.10   86.87
   2  -7  -3  5012.8   383.8   2-0.12723 0.38221-0.69601-0.00020 0.70667-0.92408  2 394.20 502.67   64.53 394.49 502.71   64.57
   2  -7  -3  5758.5   289.8   2 0.12285 0.13219-0.07472-0.62154-0.98961 0.77215  0 135.27 122.88  195.95 135.14 122.91  196.32
   2  -7   3  3737.8   231.7   1-0.62694 0.88227-0.73738 0.04172-0.25142 0.46889  0 117.03 360.53  105.45 116.89 360.35  105.46
   2  -7   3  5151.0   275.3   2 0.12492 0.13013-0.62397-0.07229-0.77140 0.98886  0 123.36 142.57  161.72 123.02 142.55  161.90
   2   7  -3  4591.8   261.3   2-0.22174 0.47663 0.71660-0.02029 0.66130-0.87887  0 119.52 149.64  333.97 119.28 149.73  334.00
   2   7   3  5810.3   262.2   2-0.23508 0.49000 0.21861 0.47732 0.94707-0.72943  0 109.76 171.63    7.66 109.40 171.65    7.69
   2   7   3  4896.6   360.5   2 0.02989 0.22511 0.65396 0.04256-0.75594 0.97340  2 324.66 504.78  241.66 324.80 505.00  241.67
  -2  -7  -4  2239.3   218.5   1-0.57910 0.32408 0.09580-0.79078-0.80961 0.51926  0  97.99 337.85   45.30  98.17 337.73   45.22
  -2  -7  -4  2699.9   336.5   2 0.12367-0.37871-0.08894-0.60732-0.98833 0.69839  0 263.04  12.75  195.46 263.12  12.97  195.50
  -2  -7   4  2364.9   227.3   1-0.69895 0.44388-0.43548-0.25987-0.56730 0.85758  0  85.69 242.72   79.75  85.51 242.74   79.88
  -2  -7   4  2524.5   275.0   2 0.11177-0.36682-0.76185 0.06560-0.63804 0.92798  0 228.97  27.52  150.96 228.99  27.44  150.88
  -2   7  -4  2260.3   265.7   2-0.22646-0.02843 0.66776 0.02855 0.70909-0.99919  0 228.90  27.71  338.00 228.71  27.58  337.94
  -2   7   4  2762.4   282.7   2-0.22179-0.03314-0.03247 0.72839 0.97455-0.68436  0 199.43  44.85   21.99 199.29  44.96   22.23
   2  -7  -4  1858.0   166.9   1-0.69652 0.95159-0.49283-0.20252-0.52151 0.23124  0 184.42 460.33   84.15 184.44 460.09   84.08
   2  -7  -4  2953.5   260.3   2 0.11797 0.13703 0.00128-0.69780-0.99302 0.70307  0 130.48 112.61  200.65 130.46 112.69  200.67
   2  -7   4  1906.9   207.8   1-0.60908 0.86441-0.76535 0.06969-0.20797 0.49793  0 102.35 349.88  108.66 102.29 349.73  108.59
   2  -7   4  2720.5   243.3   2 0.11837 0.13667-0.70362 0.00737-0.70065 0.99059  0 114.47 139.43  156.02 114.06 139.40  155.78
   2   7  -4  2070.4   221.0   2-0.21397 0.46886 0.77907-0.08276 0.58929-0.87939  0 114.38 139.62  328.56 113.98 139.68  328.51
   2   7   4  2471.5   217.9   2-0.23201 0.48694 0.13868 0.55725 0.96278-0.67258  0 100.47 169.34   12.35 100.47 169.33   12.37
  -2  -7  -5 21211.8   466.7   1-0.55793 0.30291 0.14262-0.83760-0.81754 0.45461  0  90.62 352.46   42.24  90.66 352.25   42.24
  -2  -7   5 19368.5   464.8   1-0.69581 0.44075-0.50195-0.19341-0.51370 0.87655  0  75.06 230.35   84.97  74.83 230.30   84.77
  -2  -7   5 21239.8   508.8   2 0.10289-0.35791-0.81972 0.12297-0.56345 0.92562  0 218.00  16.53  145.39 217.83  16.55  145.40
  -2   7  -5 21342.5   507.4   2-0.21908-0.03581 0.74013-0.04381 0.63578-0.99840  0 225.96  12.34  332.23 225.69  12.56  332.00
  -2   7   5 24462.0   548.1   2-0.21654-0.03838-0.09651 0.79243 0.97149-0.60875  0 188.33  35.42   25.99 188.24  35.60   25.92
   2  -7  -5 15635.8   295.5   1-0.69839 0.95345-0.45855-0.23680-0.54954 0.18669  0 190.06 482.17   81.59 190.28 481.91   81.55
   2  -7  -5 25084.9   534.8   2 0.11311 0.14189 0.06798-0.76450-0.99125 0.62882  0 124.33 100.14  204.54 123.87 100.20  204.50
   2  -7   5 19180.6   457.9   1-0.58952 0.84484-0.79093 0.09527-0.16401 0.52646  0  86.18 339.44  111.75  85.96 339.35  111.71
   2  -7   5 22366.7   496.0   2 0.11015 0.14489-0.77363 0.07737-0.62399 0.98642  0 103.22 134.51  149.84 102.82 134.46  149.84
   2   7  -5 19949.9   475.3   2-0.20497 0.45986 0.83240-0.13608 0.51488-0.87750  0 106.89 127.46  323.19 106.61 127.61  323.22
   2   7   5 24701.5   487.1   2-0.22826 0.48319 0.06651 0.62941 0.97133-0.60858  0  89.48 165.39   16.52  89.15 165.40   16.54
  -2  -7  -6 833.165 179.255   1-0.53850 0.28348 0.18239-0.87737-0.82265 0.38713  0  80.80 368.24   39.71  80.77 368.33   39.69
  -2  -7   6  1164.6   194.1   1-0.68746 0.43240-0.56460-0.13075-0.45674 0.89215  0  62.32 216.97   89.59  61.77 216.97   89.64
  -2   7   6  1270.7   239.7   2-0.21159-0.04334-0.15073 0.84665 0.96567-0.53038  0 175.01  23.04   29.43 175.13  23.41   29.06
   2  -7  -6  1248.3   209.7   2 0.10817 0.14683 0.12473-0.82125-0.98628 0.55135  0 115.38  85.22  207.98 115.14  85.22  207.79
   2  -7   6  1126.6   186.8   1-0.56828 0.82361-0.81408 0.11842-0.11972 0.55466  0  67.99 328.84  114.75  67.62 329.06  114.83
   2  -7   6  1171.4   196.5   2 0.10046 0.15456-0.83310 0.13636-0.54392 0.97853  0  89.14 127.97  144.34  89.02 127.74  144.04
   2   7  -6  1165.1   193.6   2-0.19499 0.44988 0.87682-0.18050 0.43951-0.87466  0  96.84 112.97  317.95  96.92 113.24  318.17
   2   7   6  1345.2   188.0   2-0.22437 0.47930 0.00344 0.69248 0.97450-0.53921  0  75.03 159.94   19.92  75.15 159.88   20.16
  -2  -7  -7  96.223 163.266   1-0.52167 0.26666 0.21501-0.90999-0.82561 0.31750  0  68.06 386.52   37.35  68.27 386.50   37.58
  -2  -7   7  44.726 155.061   1-0.67413 0.41907-0.62280-0.07255-0.39707 0.90505  0  45.95 202.55   94.62  45.98 202.38   94.49
  -2   7   7 117.635 222.787   2-0.20709-0.04783-0.19544 0.89136 0.95860-0.45076  2 159.71   8.68   31.59 159.62   8.12   31.68
   2  -7  -7-159.236 178.213   2 0.10364 0.15136 0.17186-0.86838-0.97965 0.47224  0 104.14  67.74  210.53 103.85  67.25  210.52
   2  -7   7  62.782 146.784   1-0.54563 0.80096-0.83467 0.13901-0.07493 0.58236  0  47.27 318.18  117.39  46.77 318.65  117.93
   2  -7   7 107.571 163.328   2 0.08965 0.16538-0.88259 0.18584-0.46152 0.96856  0  72.41 119.25  138.49  72.31 119.11  138.50
   2   7  -7 199.070 180.963   2-0.18453 0.43942 0.91289-0.21658 0.36411-0.87178  0  84.23  95.87  313.48  84.65  96.33  313.32
   2   7   7 -19.978 140.059   2-0.22038 0.47530-0.05018 0.74610 0.97412-0.46628  0  57.37 152.90   23.49  58.19 152.77   23.25
  -2  -7  -8  2814.1   330.9   1-0.50818 0.25317 0.24057-0.93555-0.82697 0.24627  0  52.70 407.81   36.07  52.83 407.44   35.92
  -2  -7   8  2256.3   276.0   1-0.65664 0.40157-0.67569-0.01966-0.33507 0.91562  0  26.80 186.04   99.19  26.93 186.06   99.27
   2  -7  -8  3602.0   389.5   2 0.09965 0.15535 0.20992-0.90644-0.97263 0.39272  0  90.15  45.85  212.64  89.63  45.80  212.76
   2  -7   8  2544.7   306.4   1-0.52110 0.77643-0.85295 0.15729-0.03033 0.61025  0  23.05 307.86  121.00  22.88 307.82  121.03
   2  -7   8  2520.6   273.6   2 0.07801 0.17702-0.92229 0.22555-0.37854 0.95802  0  52.02 108.43  133.22  52.03 108.41  133.22
   2   7  -8  3135.4   357.2   2-0.17363 0.42852 0.94130-0.24499 0.28949-0.86968  0  70.03  76.52  308.65  69.27  76.30  308.69
   2   7   8  3078.7   303.3   2-0.21673 0.47166-0.09429 0.79021 0.97167-0.39128  0  37.94 143.96   25.71  37.58 143.94   25.79
  -2  -8   0  7680.1   325.3   1-0.67826 0.42319-0.22058-0.57411-0.70094 0.70094  0  73.01 303.46   65.36  73.11 303.34   65.29
   2  -8   0  6392.4   298.4   1-0.66530 0.92036-0.65181-0.14287-0.36403 0.36403  0 121.90 420.36   97.14 121.83 420.11   97.06
   2  -8   0  8126.8   351.2   2 0.13213 0.12291-0.39638-0.39934-0.90853 0.90853  0 110.96 111.68  177.31 110.74 111.65  177.21
   2   8   0  7875.9   339.9   2-0.23557 0.49046 0.51417 0.28162 0.82471-0.82471  0  93.08 145.00  349.27  92.85 145.14  349.02
  -2  -8  -1 250.877 139.240   1-0.66539 0.41033-0.16147-0.63322-0.72882 0.65625  0  73.91 315.95   61.66  74.14 315.81   61.47
  -2  -8   1  95.100 129.075   1-0.68843 0.43337-0.28166-0.51302-0.66838 0.74094  0  69.78 291.31   69.47  70.00 291.21   69.30
  -2   8  -1  49.954 173.777   2-0.23720-0.01771 0.44461 0.35074 0.86375-0.93630  0 203.97  16.65  353.50 204.42  16.76  353.56
  -2   8   1  85.634 178.113   2-0.23674-0.01818 0.28112 0.51422 0.93001-0.85747  0 197.14  21.62    4.04 196.92  21.44    3.97
   2  -8  -1 298.458 127.780   1-0.67444 0.92950-0.62169-0.17300-0.39829 0.32572  0 131.25 434.69   94.49 131.53 435.25   94.39
   2  -8  -1 251.848 149.885   2 0.13145 0.12360-0.31426-0.48146-0.94019 0.86771  0 111.19 106.94  182.43 111.87 107.24  182.27
   2  -8   1 132.983 133.871   1-0.65408 0.90941-0.68176-0.11328-0.32768 0.40017  0 110.62 406.65   99.45 110.79 406.51   99.83
   2  -8   1  30.778 140.054   2 0.13104 0.12401-0.47910-0.31662-0.86793 0.94041  0 107.74 114.08  171.42 107.56 114.10  171.92
   2   8  -1 281.890 150.344   2-0.23220 0.48709 0.58707 0.20872 0.77552-0.84805  0  93.79 140.40  343.65  93.54 140.39  343.96
   2   8   1  75.009 134.823   2-0.23729 0.49220 0.43882 0.35653 0.86668-0.79412  0  90.61 148.19  353.87  90.10 148.11  353.94
  -2  -8  -2  4324.2   279.6   1-0.65069 0.39562-0.10534-0.68935-0.75200 0.60687  0  73.21 328.99   57.76  73.11 328.84   57.89
  -2  -8   2  3979.4   276.5   1-0.69550 0.44043-0.34356-0.45113-0.63107 0.77621  0  64.79 279.34   73.46  64.81 279.18   73.46
  -2   8  -2  4107.7   334.3   2-0.23518-0.01971 0.52562 0.27016 0.81756-0.96261  2 205.86   9.84  348.01 205.63  10.05  348.24
  -2   8   2  5659.9   356.2   2-0.23457-0.02036 0.20315 0.59219 0.95064-0.80554  0 190.73  19.41    8.56 190.70  19.71    8.60
   2  -8  -2  3187.0   233.6   1-0.68189 0.93696-0.59191-0.20278-0.42973 0.28459  0 139.95 452.39   91.98 140.20 452.06   91.88
   2  -8  -2  4868.3   324.6   2 0.12980 0.12524-0.23483-0.56089-0.96333 0.81836  0 111.19 100.67  186.95 111.01 100.78  187.00
   2  -8   2  3632.6   258.1   1-0.64124 0.89657-0.71052-0.08452-0.28979 0.43477  0  98.66 394.01  102.68  98.56 393.85  102.65
   2  -8   2  4569.3   309.0   2 0.12846 0.12658-0.55990-0.23583-0.81854 0.96352  0 102.51 114.62  166.53 102.29 114.63  166.47
   2   8  -2  4754.3   298.6   2-0.22746 0.48235 0.65597 0.13982 0.71970-0.86475  0  92.46 133.71  338.75  92.05 133.80  338.85
  -2  -8  -3  4627.7   292.5   1-0.63504 0.37998-0.05315-0.74153-0.77065 0.55294  0  69.81 342.87   54.65  69.95 342.69   54.60
  -2  -8   3  4380.7   287.5   1-0.69876 0.44370-0.40530-0.38938-0.58946 0.80716  0  57.65 267.13   77.88  57.44 267.03   77.73
  -2   8   3  5598.9   371.6   2-0.23162-0.02331 0.13025 0.66509 0.96405-0.74640  0 182.88  15.17   13.02 182.71  15.25   12.86
   2  -8  -3  3543.7   246.7   1-0.68768 0.94275-0.56336-0.23132-0.45794 0.24024  0 147.81 471.29   89.58 147.93 471.19   89.54
   2  -8  -3  4614.2   320.7   2 0.12715 0.12790-0.16019-0.63553-0.97886 0.76141  0 108.42  92.20  191.37 108.09  92.12  191.38
   2  -8   3  4190.0   279.7   1-0.62655 0.88188-0.73801-0.05703-0.25054 0.46801  0  84.86 382.23  105.51  84.72 382.07  105.52
   2  -8   3  5194.4   342.2   2 0.12407 0.13098-0.63667-0.15905-0.76109 0.97854  0  95.12 113.38  160.75  94.82 113.28  160.97
   2   8  -3  4935.5   310.0   2-0.22144 0.47633 0.71938 0.07640 0.65837-0.87594  0  88.72 125.12  333.69  88.43 125.28  333.77
   2   8   3  5238.4   300.0   2-0.23678 0.49170 0.29049 0.50485 0.92712-0.70947  0  77.78 148.78    3.39  77.66 148.71    3.41
  -2  -8  -4 360.238 163.964   1-0.61901 0.36394-0.00574-0.78894-0.78536 0.49509  0  64.65 357.65   51.40  64.52 357.71   51.61
  -2  -8   4 310.326 159.587   1-0.69810 0.44303-0.46584-0.32885-0.54374 0.83401  0  47.13 254.48   82.46  47.76 254.52   82.08
  -2   8   4 159.516 213.812   2-0.22811-0.02682 0.06387 0.73147 0.97154-0.68135  2 173.25   9.15   16.59 172.82   8.04   16.69
   2  -8  -4 294.061 140.448   1-0.69185 0.94692-0.53708-0.25761-0.48258 0.19230  0 154.87 493.45   87.61 154.94 493.15   87.47
   2  -8  -4 120.162 173.997   2 0.12383 0.13122-0.09185-0.70387-0.98804 0.69810  0 103.01  81.26  195.42 103.02  81.14  195.34
   2  -8   4 206.671 151.524   1-0.61004 0.86537-0.76398-0.03106-0.21021 0.50017  0  68.89 371.09  108.43  69.12 370.91  108.43
   2  -8   4 356.799 178.954   2 0.11797 0.13707-0.70760-0.08812-0.69669 0.98663  0  84.87 109.83  155.47  84.97 109.98  155.46
   2   8  -4 386.400 174.897   2-0.21437 0.46926 0.77633 0.01945 0.59275-0.88284  0  82.99 114.73  328.56  82.53 114.69  328.76
   2   8   4 592.996 160.277   2-0.23517 0.49009 0.22154 0.57380 0.94637-0.65618  0  67.79 146.62    7.46  67.85 146.56    7.51
  -2  -8  -5  2330.0   257.8   1-0.60326 0.34824 0.03675-0.83101-0.79670 0.43376  0  56.57 374.32   48.64  56.76 374.30   48.95
  -2  -8   5  1712.7   231.5   1-0.69352 0.43846-0.52418-0.27051-0.49424 0.85708  0  35.69 241.45   86.41  35.56 241.37   86.47
   2  -8  -5  2828.9   346.6   2 0.12020 0.13485-0.03079-0.76493-0.99227 0.62984  0  95.92  67.50  198.72  95.63  67.50  198.84
   2  -8   5  1694.0   225.7   1-0.59180 0.84713-0.78819-0.00685-0.16889 0.53134  0  51.57 360.14  111.37  51.39 360.14  111.37
   2  -8   5  2222.3   251.0   2 0.11047 0.14458-0.77134-0.02438-0.62676 0.98919  0  72.46 104.72  150.33  72.51 104.74  150.05
   2   8  -5  1905.6   239.8   2-0.20611 0.46100 0.82624-0.03045 0.52426-0.88687  0  74.47 101.73  323.69  74.22 101.79  323.87
   2   8   5  2485.8   281.4   2-0.23285 0.48778 0.15824 0.63710 0.95955-0.59681  0  55.16 142.72   11.31  55.30 142.71   11.23
  -2  -8  -6 932.942 202.850   1-0.58862 0.33360 0.07298-0.86725-0.80511 0.36959  0  46.26 393.00   46.74  46.19 392.95   46.66
  -2  -8   6 646.937 186.957   1-0.68446 0.42939-0.57994-0.21475-0.44180 0.87721  0  21.08 227.34   90.64  20.55 227.28   90.89
   2  -8  -6 815.773 241.278   2 0.11651 0.13849 0.02217-0.81819-0.99294 0.55802  0  86.03  51.07  201.68  85.44  50.78  201.87
   2  -8   6 764.008 204.661   1-0.57180 0.82713-0.81052 0.01548-0.12685 0.56179  0  31.05 349.77  114.45  31.14 349.60  114.33
   2  -8   6 997.709 226.619   2 0.10161 0.15342-0.82691 0.03063-0.55308 0.98769  0  57.60  97.58  145.03  56.99  97.43  144.67
   2   8  -6 972.033 230.893   2-0.19694 0.45183 0.86899-0.07320 0.45395-0.88910  0  62.88  86.32  319.44  63.11  86.26  319.12
   2   8   6 709.459 190.863   2-0.23015 0.48507 0.10172 0.69362 0.96783-0.53254  0  39.68 137.05   14.47  39.61 137.13   14.50
  -2  -9   0-255.206 158.709   1-0.68914 0.43407-0.28679-0.60724-0.66546 0.66546  0  31.85 321.36   70.10  31.22 321.64   69.64
   2  -9   0 126.645 182.062   1-0.65837 0.91343-0.67123-0.22279-0.34060 0.34060  0  84.70 452.44   98.91  84.94 452.21   98.85
   2  -9   0-190.827 183.337   2 0.13161 0.12343-0.44643-0.44876-0.88509 0.88509  0  76.68  75.89  174.11  76.69  75.83  174.04
   2   9   0 -73.996 174.823   2-0.23416 0.48905 0.55058 0.34468 0.80127-0.80127  0  54.66 117.16  346.49  54.59 117.37  346.53
  -2  -9  -1 15275.3   472.4   1-0.68107 0.42601-0.23576-0.65826-0.69322 0.62065  0  32.47 335.74   66.36  32.61 335.50   66.28
  -2  -9   1 15197.9   474.3   1-0.69514 0.44008-0.33945-0.55457-0.63368 0.70625  0  27.32 308.43   73.24  27.46 308.30   73.18
   2  -9  -1 13358.3   415.4   1-0.66702 0.92209-0.64660-0.24742-0.37011 0.29755  0  95.17 469.99   96.63  95.22 469.38   96.59
   2  -9  -1 16383.3   518.1   2 0.13196 0.12309-0.37496-0.52022-0.91760 0.84511  0  78.21  70.93  178.56  77.89  70.92  178.55
   2  -9   1 13266.5   433.5   1-0.64779 0.90311-0.69652-0.19790-0.30859 0.38108  0  73.42 436.97  101.24  73.20 436.87  101.26
   2  -9   1 17614.2   535.2   2 0.13011 0.12493-0.51824-0.37695-0.84528 0.91777  0  73.36  78.58  169.34  73.14  78.51  169.32
   2   9  -1 16082.9   501.8   2-0.23065 0.48554 0.61369 0.28157 0.75510-0.82763  0  55.42 112.05  341.96  55.27 112.19  342.03
   2   9   1 15912.6   488.9   2-0.23626 0.49117 0.48570 0.40907 0.84159-0.76903  0  51.80 120.56  351.02  51.51 120.63  350.88
  -2  -9  -2 994.480 205.905   1-0.67137 0.41630-0.18722-0.70680-0.71709 0.57195  0  31.18 350.40   63.42  31.66 350.19   63.13
  -2  -9   2 620.479 193.640   1-0.69840 0.44334-0.39303-0.50100-0.59814 0.74327  0  21.72 295.22   76.62  21.29 295.17   76.87
   2  -9  -2 948.545 234.707   2 0.13131 0.12373-0.30552-0.58966-0.94309 0.79812  0  77.30  63.85  183.05  76.77  63.67  182.80
   2  -9   2 744.351 215.528   1-0.63577 0.89110-0.72140-0.17302-0.27454 0.41952  0  59.64 423.43  103.99  59.92 422.96  103.77
   2  -9   2 936.793 230.982   2 0.12695 0.12810-0.58877-0.30641-0.79827 0.94324  0  67.57  79.23  164.52  67.17  79.11  164.45
   2   9  -2 790.502 210.286   2-0.22595 0.48084 0.67395 0.22130 0.70337-0.84842  0  53.48 104.84  337.44  53.45 105.01  337.46
   2   9   2 902.042 211.870   2-0.23755 0.49246 0.42118 0.47359 0.87531-0.73020  0  45.51 121.99  355.32  45.80 122.07  355.07
  -3   0   0  28.701  36.052   1-0.19126-0.19126 0.65463-0.65463-0.73135 0.73135  0 235.80 191.28    5.67 235.68 191.26    5.19
  -3   0   0  59.658  46.971   1-0.19156-0.19156-0.88866 0.88866 0.41663-0.41663  0 371.29 182.89  153.37 371.36 183.08  153.34
  -3   0   0  40.248  14.675   2-0.19119-0.19119-0.33256 0.33256 0.92350-0.92350  0 376.71 188.14   40.30 376.78 188.29   39.82
  -3   0   0  10.803  14.489   2-0.19117-0.19117 0.89105-0.89105 0.41168-0.41168  0 392.99 208.49  317.03 393.05 208.75  316.36
  -3   0  -1  4804.4   141.8   1-0.26226-0.12073-0.90400 0.90400 0.33764-0.41013  0 384.83 193.17  147.13 385.14 193.33  147.21
  -3   0   1  4423.4   109.7   1-0.35078-0.03174 0.47954-0.47954-0.80436 0.87694  0 245.21 180.39   19.25 245.08 180.47   19.42
  -3   0   1  4917.0   122.3   1-0.10257-0.28056-0.85606 0.85606 0.50659-0.43410  0 359.79 172.45  161.42 359.86 172.53  160.83
  -3   0   1  5188.9    92.4   2-0.09219-0.29027-0.82408 0.82408 0.55892-0.48645  0 360.15 173.02   75.92 360.21 173.13   75.98
  -3   0   1  4167.5    84.2   2-0.15990-0.22243 0.96644-0.96644 0.20108-0.12856  0 404.36 228.47  303.44 404.57 228.61  303.34
   3   0  -1  4508.3    74.1   2 0.09831 0.28423-0.84407 0.84407-0.52715 0.45472  0 239.32 330.93  142.83 239.14 330.78  142.89
   3   0  -1  4623.5    74.3   2 0.04449 0.33801 0.58383-0.58383-0.81066 0.73817  0 211.83 289.44  236.47 211.75 289.31  236.50
  -3   0  -2 -25.450  62.376   1-0.32017-0.06283-0.90884 0.90884 0.26742-0.41240  0 401.07 203.48  141.80 400.91 203.41  141.99
  -3   0  -2  11.965  16.176   2 0.13188-0.51445-0.35560 0.35560-0.92529 0.78031  0 401.60 205.21  180.43 401.53 205.44  179.75
  -3   0  -2   4.713  17.351   2-0.03190-0.35050 0.86964-0.86964-0.49266 0.34769  0 382.11 181.58  262.56 382.31 181.81  261.61
  -3   0   2  49.221  31.243   1-0.53155 0.14902 0.19604-0.19604-0.82403 0.96921  0 252.36 169.00   38.49 252.29 169.07   38.81
  -3   0   2   8.635  39.017   1 0.00999-0.39312-0.79609 0.79609 0.60510-0.46012  0 351.24 161.81  170.52 351.22 161.40  170.07
  -3   0   2  15.483  36.944   2-0.06125-0.32121-0.90755 0.90755 0.41546-0.27052  0 345.76 159.50   85.49 345.61 159.50   85.64
  -3   0   2  26.545  37.141   2-0.15478-0.22756 0.97348-0.97348 0.16844-0.02339  0 415.48 246.98  301.50 415.48 246.99  301.39
   3   0  -2 -18.522  25.512   2 0.07728 0.30526-0.92443 0.92443-0.37343 0.22856  0 252.38 347.12  133.08 252.48 347.16  132.90
   3   0  -2  16.925  25.807   2-0.00831 0.39071 0.80091-0.80091-0.59872 0.45375  0 202.69 271.53  254.49 202.55 271.71  254.23
   3   0   2  -7.588  44.930   1-0.00523 0.38836-0.80554 0.80554 0.59252-0.44754  0 212.86 304.61  168.40 213.29 304.83  168.82
  -3   0  -3 82934.0   594.9   1-0.36888-0.01411-0.90689 0.90689 0.20366-0.42113  0 418.40 213.48  137.39 418.63 213.57  137.38
  -3   0  -3 78847.2   331.0   2 0.11230-0.49487-0.75774 0.75774-0.64282 0.42536  0 420.37 220.22  151.11 420.67 220.36  151.24
  -3   0  -3 76227.5   326.2   2-0.06590-0.31650 0.94201-0.94201-0.32907 0.11160  0 372.75 161.42  271.95 372.73 161.59  272.05
  -3   0   3 45826.4   287.6   1-0.66663 0.28403-0.16671 0.16671-0.72650 0.94421  0 256.29 157.03   61.80 256.24 157.07   61.81
  -3   0   3 83629.7   489.1   2-0.04944-0.33302-0.93236 0.93236 0.35814-0.14074  0 331.51 145.61   89.11 331.59 145.78   89.28
  -3   0   3 69560.3   445.5   2-0.15531-0.22702 0.97281-0.97281 0.17179 0.04578  0 426.91 265.50  301.89 427.09 265.60  301.59
   3   0  -3 76280.4   457.2   2 0.06980 0.31274-0.94400 0.94400-0.32249 0.10519  0 264.84 363.17  129.88 264.91 363.01  129.75
   3   0  -3 77305.0   458.8   2-0.03059 0.41299 0.86621-0.86621-0.49874 0.28127  0 193.88 255.87  261.04 193.81 255.77  261.20
   3   0   3 80892.9   589.4   1-0.05760 0.44073-0.83469 0.83469 0.54770-0.33022  0 200.59 295.13  164.50 200.49 295.12  164.53
   3   0   3 84278.8   477.1   2-0.11111 0.49357-0.75981 0.75981 0.64058-0.42317  0 201.42 298.57   70.00 201.33 298.51   69.93
   3   0   3 72540.8   268.9   2-0.23712 0.61948 0.44955-0.44955 0.86121-0.64354  0 226.89 337.78  353.44 226.86 337.68  353.25
  -3   0  -4 -36.333  82.325   1-0.41098 0.02798-0.90005 0.90005 0.14492-0.43488  0 438.13 224.36  133.41 438.52 224.14  133.22
  -3   0  -4 -31.095  38.284   2 0.09832-0.48086-0.84403 0.84403-0.52721 0.23747  0 440.39 233.99  143.05 440.34 234.17  142.89
  -3   0  -4   2.657  41.286   2-0.07096-0.31143 0.95017-0.95017-0.30354 0.01359  0 364.73 142.31  273.44 364.70 142.08  273.61
  -3   0   4 -12.398  35.317   1-0.69644 0.31385-0.49382 0.49382-0.52068 0.81095  0 255.98 144.37   84.02 256.01 144.41   84.16
  -3   0   4   4.562  58.397   2-0.04523-0.33723-0.94021 0.94021 0.33757-0.04769  0 317.63 131.63   91.08 317.76 131.54   90.57
  -3   0   4  -7.618  59.726   2-0.15797-0.22436 0.96923-0.96923 0.18880 0.10130  0 440.05 284.84  302.95 439.83 284.96  302.61
   3   0  -4  23.687  41.798   1-0.29251 0.67503 0.54963-0.54963-0.78252 0.49217  0 347.47 380.50   13.96 347.44 380.27   14.05
   3   0  -4  45.728  62.624   2 0.06774 0.31480-0.94898 0.94898-0.30797 0.01823  0 277.13 379.68  128.83 277.30 379.65  128.87
   3   0  -4  29.601  40.037   2-0.04087 0.42327 0.89157-0.89157-0.45104 0.16109  0 184.63 240.16  264.56 184.68 240.19  264.34
   3   0   4 -28.368  52.681   1-0.09061 0.47374-0.85068 0.85068 0.51782-0.22785  0 187.11 285.38  161.53 186.86 285.47  161.82
   3   0   4  -3.376  26.264   2-0.07971 0.46217-0.86094 0.86094 0.50242-0.21254  0 186.22 284.38   80.15 186.23 284.64   79.89
   3   0   4  20.565  28.012   2-0.22500 0.60733 0.68438-0.68438 0.69354-0.40344  0 233.86 358.52  337.16 234.21 358.60  336.63
  -3   0  -5 15874.0   321.7   1-0.44803 0.06504-0.88949 0.88949 0.08984-0.45230  0 460.81 235.31  129.34 460.95 235.33  129.37
  -3   0  -5 15333.6   226.4   2 0.09224-0.47478-0.87211 0.87211-0.48054 0.11837  0 461.56 248.29  139.92 461.88 248.36  139.75
  -3   0  -5 14429.7   222.6   2-0.06981-0.31259 0.94840-0.94840-0.30929-0.05315  0 357.21 121.54  273.05 357.21 121.78  273.26
  -3   0   5 14629.7   174.8   1-0.64359 0.26059-0.70561 0.70561-0.29648 0.65894  0 251.85 130.81  102.05 251.75 130.93  102.16
  -3   0   5 15862.2   287.5   2-0.04485-0.33761-0.94091 0.94091 0.33568 0.02667  0 303.76 116.34   90.69 303.85 116.51   90.68
  -3   0   5 14141.8   276.7   2-0.16168-0.22066 0.96371-0.96371 0.21240 0.15021  0 453.90 305.47  304.01 454.03 305.53  304.02
   3   0  -5 13363.1   174.9   1-0.41558 0.79810 0.39135-0.39135-0.82106 0.45812  0 352.65 396.09   25.85 352.62 395.93   25.76
   3   0  -5 15434.6   281.8   2 0.06820 0.31434-0.94793 0.94793-0.31108-0.05110  0 289.94 397.92  128.87 289.99 397.69  129.06
   3   0  -5 14687.0   261.7   2-0.04515 0.42755 0.90142-0.90142-0.43058 0.06815  0 174.95 224.59  265.67 174.90 224.51  265.67
   3   0   5 16117.4   311.8   1-0.10972 0.49285-0.85923 0.85923 0.49969-0.13723  0 172.37 275.76  160.08 172.32 275.77  160.24
   3   0   5 16419.1   216.5   2-0.06992 0.45238-0.88681 0.88681 0.45682-0.09448  0 171.57 272.82   83.00 171.51 272.78   82.94
   3   0   5 14069.1   201.5   2-0.21647 0.59881 0.76137-0.76137 0.61111-0.24849  0 240.08 379.33  330.04 240.03 379.09  330.13
  -3   0  -6 -49.030 114.922   1-0.48115 0.09816-0.87583 0.87583 0.03759-0.47253  0 486.64 247.64  125.28 486.51 247.49  125.73
  -3   0  -6  50.461  74.017   2 0.09011-0.47266-0.88072 0.88072-0.46498 0.03037  0 486.22 263.44  138.49 486.16 263.34  138.73
  -3   0  -6 -31.509  75.297   2-0.06624-0.31615 0.94259-0.94259-0.32733-0.10760  0 350.18 100.21  272.17 350.03 100.08  272.15
  -3   0   6  21.594  40.233   1-0.56375 0.18075-0.81855 0.81855-0.11032 0.54526  0 244.02 116.58  115.38 244.07 116.29  115.48
  -3   0   6 -11.336  92.707   2-0.04664-0.33583-0.93759 0.93759 0.34459 0.09022  0 289.56 100.13   90.50 289.65 100.42   90.13
  -3   0   6  42.180  98.922   2-0.16602-0.21632 0.95655-0.95655 0.23967 0.19547  0 470.59 327.78  305.42 470.13 327.83  305.67
   3   0  -6  -2.232  56.562   1-0.50281 0.88533 0.25029-0.25029-0.82737 0.39185  0 361.55 414.15   34.86 361.98 414.09   35.28
   3   0  -6  20.498  61.948   2-0.04609 0.42848 0.90351-0.90351-0.42609-0.00884  0 164.10 208.36  265.92 164.22 208.42  265.96
   3   0   6 104.627  81.949   1-0.11889 0.50202-0.86305 0.86305 0.49094-0.05598  0 156.84 265.72  159.50 156.76 265.84  159.47
   3   0   6  18.207  45.904   2-0.06740 0.44987-0.89304 0.89304 0.44490-0.01009  0 156.09 261.88   83.44 156.11 261.57   83.73
   3   0   6   7.335  49.455   2-0.21192 0.59426 0.79259-0.79259 0.57174-0.13660  0 245.09 400.85  327.35 245.17 400.79  327.23
  -3   0  -7 18415.6   325.3   2-0.06142-0.32098 0.93417-0.93417-0.35151-0.15590  0 343.00  76.19  270.76 343.07  76.42  270.65
  -3   0   7 19565.1   238.5   1-0.48416 0.10116-0.87437 0.87437 0.03283 0.47461  0 234.08  99.82  125.25 234.09 100.05  125.40
  -3   0   7 19956.5   391.9   2-0.04986-0.33260-0.93153 0.93153 0.36023 0.14706  0 274.72  82.69   89.00 274.87  82.93   89.15
  -3   0   7 16402.9   363.8   2-0.17056-0.21178 0.94782-0.94782 0.26936 0.23831  0 488.68 352.51  307.49 488.72 352.52  307.46
   3   0  -7 14538.2   222.9   1-0.55743 0.93995 0.14368-0.14368-0.81770 0.30959  0 374.35 435.44   42.05 374.43 435.35   42.17
   3   0  -7 19528.4   392.1   2 0.07280 0.30974-0.93655 0.93655-0.34290-0.16414  0 317.57 440.55  130.99 317.51 440.25  131.01
   3   0  -7 18134.2   348.0   2-0.04493 0.42732 0.90092-0.90092-0.43166-0.07576  0 152.41 191.67  265.58 152.38 191.62  265.60
   3   0   7 20259.2   394.4   1-0.12052 0.50365-0.86372 0.86372 0.48935 0.01810  0 139.97 255.46  159.28 139.95 255.49  159.34
   3   0   7 18828.6   295.7   2-0.06834 0.45080-0.89074 0.89074 0.44934 0.05794  0 139.59 250.64   83.36 139.56 250.59   83.43
   3   0   7 17508.2   290.4   2-0.21003 0.59236 0.80422-0.80422 0.55598-0.04831  0 249.89 424.79  326.10 249.79 424.49  326.10
  -3   0  -8  67.364 129.221   2-0.05582-0.32658 0.92362-0.92362-0.37922-0.20068  0 336.35  50.05  268.81 336.22  50.10  268.92
  -3   0   8   7.702  61.169   1-0.41086 0.02786-0.90008 0.90008 0.14509 0.43483  0 222.40  81.69  133.02 222.51  81.57  133.23
  -3   0   8 -57.560 146.928   2-0.05396-0.32850-0.92323 0.92323 0.38043 0.19932  0 259.18  63.84   87.53 259.23  63.60   87.87
   3   0  -8  -6.449  93.192   1-0.58949 0.97202 0.07087-0.07087-0.80466 0.22396  0 389.62 460.37   47.03 389.56 460.54   46.79
   3   0  -8  14.971 150.172   2 0.07612 0.30642-0.92759 0.92759-0.36576-0.21372  0 333.29 465.92  132.52 333.11 466.28  132.43
   3   0  -8 -63.311  84.786   2-0.04236 0.42475 0.89504-0.89504-0.44396-0.13594  0 139.50 173.71  265.00 139.09 173.77  264.80
   3   0   8 103.299 101.551   1-0.11632 0.49944-0.86201 0.86201 0.49337 0.08658  0 121.52 244.76  159.57 121.59 244.49  159.69
   3   0   8  40.717  68.613   2-0.07123 0.45370-0.88348 0.88348 0.46303 0.11673  0 121.40 239.61   82.61 121.41 239.64   82.53
   3   0   8  -6.839  88.884   2-0.20983 0.59216 0.80540-0.80540 0.55434 0.02585  0 254.07 451.24  325.47 253.95 450.98  325.98
  -3   0  -9 629.491 178.500   2-0.04965-0.33274 0.91111-0.91111-0.40916-0.24323  0 329.35  20.05  267.38 329.42  20.22  267.03
  -3   0   9 637.589  93.871   1-0.34396-0.03903-0.90866 0.90866 0.23671 0.41571  0 209.69  59.99  139.94 209.63  60.10  139.76
  -3   0   9 613.592 157.429   2-0.05883-0.32363-0.91298 0.91298 0.40375 0.24847  0 242.51  41.74   86.42 242.32  41.86   86.39
   3   0  -9 307.832 124.274   1-0.60704 0.98963 0.02666-0.02666-0.79423 0.14111  0 406.91 490.67   49.64 406.95 490.79   49.57
   3   0  -9 581.351 205.631   2 0.07985 0.30270-0.91678 0.91678-0.39134-0.26057  0 350.54 496.53  133.98 350.64 496.97  134.02
   3   0  -9 763.775 140.354   2-0.03877 0.42117 0.88656-0.88656-0.46099-0.19140  0 124.33 154.46  263.53 123.94 154.44  263.69
   3   0   9 796.630 148.561   1-0.10748 0.49061-0.85826 0.85826 0.50183 0.15061  0 101.19 232.38  160.38 101.30 232.54  160.42
   3   0   9 557.824  96.945   2-0.07541 0.45787-0.87266 0.87266 0.48247 0.16975  0 101.02 228.54   81.25 101.17 228.52   81.24
   3   0   9 423.424 141.341   2-0.21073 0.59306 0.80000-0.80000 0.56177 0.09094  0 257.61 481.03  326.58 257.63 481.25  326.51
  -3   0  10 -73.133  89.959   1-0.28155-0.10144-0.90641 0.90641 0.31487 0.41003  0 196.02  33.85  146.02 195.57  34.65  145.50
  -3   0  10  -2.468 165.067   2-0.06415-0.31831-0.90083 0.90083 0.42941 0.29528  0 223.88  17.42   84.88 223.65  16.95   84.73
   3   0 -10  11.448 132.390   2-0.03431 0.41671 0.87583-0.87583-0.48140-0.24347  0 105.61 132.83  262.51 106.43 133.08  262.36
   3   0  10-193.921 121.401   1-0.09487 0.47800-0.85262 0.85262 0.51384 0.21108  0  78.26 219.35  161.56  78.52 219.27  161.47
   3   0  10 -10.572  91.669   2-0.08042 0.46289-0.85894 0.85894 0.50571 0.21898  0  78.64 216.75   79.69  78.17 217.05   79.66
   3   0 -11 18985.7   507.5   2-0.02936 0.41175 0.86294-0.86294-0.50445-0.29291  0  86.01 108.94  260.97  85.68 108.93  260.82
   3   0  11 20003.9   500.7   1-0.07881 0.46194-0.84520 0.84520 0.52861 0.26881  0  52.74 204.11  162.96  52.51 204.19  162.79
   3   0  11 19808.0   433.3   2-0.08627 0.46873-0.84252 0.84252 0.53172 0.26544  0  51.85 204.96   77.96  51.53 205.03   77.88
  -3  -1   0 0.04189 41.6568   1-0.33403-0.04849 0.50044-0.59972-0.79874 0.79874  0 222.96 201.55   17.39 222.98 201.77   17.85
  -3  -1   0  17.483  53.032   1 0.00320-0.38633-0.80030 0.70088 0.59959-0.59959  0 388.04 193.31  169.60 387.75 193.22  169.52
  -3  -1   0   6.909  19.351   2-0.23004-0.15235 0.09970-0.19912 0.96806-0.96806  0 401.07 214.19   15.09 401.05 214.27   14.62
  -3  -1   0  -1.359  19.637   2 0.05061-0.43315-0.97937 0.87984-0.19563 0.19563  0 373.24 179.95  122.27 373.30 179.86  122.12
  -3   1   0 168.742  51.088   1-0.43621 0.05321-0.89338 0.99276 0.10771-0.10771  0 362.37 171.77  130.66 362.34 171.96  130.62
  -3   1   0  -3.055  27.148   2-0.21963-0.16276-0.05964 0.15906 0.97376-0.97376  0 361.58 171.72   23.77 361.31 171.60   23.80
  -3   1   0   5.891  25.559   2-0.00160-0.38079 0.77832-0.67881-0.62786 0.62786  0 406.46 228.10  252.16 406.45 228.10  252.08
   3  -1   0   4.526  32.328   1-0.00444 0.38757-0.80506 0.70565 0.59317-0.59317  0 243.42 336.32  168.36 243.32 336.09  168.88
   3  -1   0  20.709  17.684   2-0.04186 0.42433-0.94608 0.84662 0.32122-0.32122  0 238.10 332.00   91.54 238.13 331.99   91.58
   3  -1   0  29.502  18.356   2 0.13093 0.25163-0.28186 0.18239-0.95048 0.95048  0 210.38 289.84  184.43 210.37 289.87  184.21
  -3  -1  -1  2976.9   119.0   1-0.22881-0.15371 0.61826-0.71754-0.75193 0.67935  0 215.05 211.82    8.38 214.97 211.85    8.41
  -3  -1  -1  3624.7   144.8   1-0.08903-0.29410-0.84995 0.75053 0.51929-0.59178  0 398.09 203.77  161.99 398.37 203.87  161.95
  -3  -1  -1  3424.5    42.5   2-0.07522-0.30724-0.87316 0.77370 0.48160-0.55407  0 397.00 203.14   81.58 397.40 203.35   81.30
  -3  -1  -1  2516.2    38.9   2 0.10862-0.49116-0.78286 0.68333-0.61264 0.54021  0 383.05 185.79  148.96 383.29 185.85  148.94
  -3  -1   1  3020.3   110.0   1-0.45420 0.07168 0.33267-0.43195-0.82646 0.89904  0 228.97 191.27   30.13 228.91 191.31   29.80
  -3  -1   1  2905.2    81.1   2 0.03241-0.41495-0.99604 0.89651-0.08277 0.15521  0 359.53 168.14  115.50 359.59 168.25  115.52
  -3  -1   1  2714.2    77.3   2-0.23020-0.15213 0.62045-0.71992 0.74970-0.67718  0 409.55 230.69  341.64 409.79 230.75  341.53
  -3   1  -1  3052.2   117.0   1-0.45599 0.07300-0.88660 0.98598 0.07756-0.15005  0 379.38 181.59  128.56 379.37 181.76  128.51
  -3   1  -1  3254.4    71.5   2 0.07116-0.45366 0.42881-0.32931-0.90059 0.82810  0 406.47 221.75  226.16 406.72 221.86  226.09
  -3   1  -1  3024.3    71.3   2-0.23575-0.14658 0.50856-0.40909 0.82812-0.90064  0 367.39 172.90  349.31 367.38 173.03  349.39
  -3   1   1  2792.7    84.9   1-0.17378-0.20874 0.67071-0.57143-0.72107 0.79366  0 256.52 168.77    3.72 256.58 168.84    3.71
  -3   1   1  3062.3    91.5   1-0.41910 0.03610-0.89812 0.99751 0.13315-0.06066  0 346.05 161.73  132.43 346.08 161.89  132.39
  -3   1   1  3426.3    94.2   2-0.17048-0.21191-0.47439 0.57381 0.86365-0.79110  0 350.78 163.88   48.81 350.91 163.97   48.73
  -3   1   1  2986.6    89.7   2-0.05039-0.33200 0.91267-0.81316-0.40557 0.47806  0 411.71 240.41  267.19 411.91 240.49  267.26
   3  -1  -1  3182.0    80.4   2-0.01275 0.39529-0.98509 0.88556 0.17156-0.24399  0 248.03 342.04  100.75 247.87 341.91  100.65
   3  -1  -1  3221.7    80.4   2 0.09469 0.28781 0.25390-0.35340-0.96258 0.89010  0 205.47 277.76  215.29 205.39 277.67  215.36
   3  -1   1  3163.0   109.8   1-0.10641 0.48954-0.85780 0.75838 0.50285-0.43036  0 229.78 325.55  160.45 229.59 325.45  160.51
   3  -1   1  3290.2    56.3   2-0.10835 0.49081-0.76999 0.67053 0.62879-0.55632  0 232.07 328.49   70.68 231.91 328.33   70.84
   3  -1   1  3090.5    54.9   2 0.10209 0.28045-0.82421 0.72468-0.55700 0.62944  0 211.32 296.94  144.92 211.21 296.82  144.95
   3   1  -1  2973.7    67.4   2 0.13194 0.25063-0.36673 0.46619-0.92093 0.84844  0 239.91 335.83  179.02 239.70 335.61  179.06
   3   1  -1  2831.0    65.3   2-0.08496 0.46736 0.96931-0.86980-0.23069 0.15821  0 207.87 287.37  278.02 207.77 287.25  277.99
  -3  -1  -2 14783.9   252.0   1-0.14518-0.23735 0.69556-0.79484-0.70365 0.55847  0 205.41 221.69    1.12 205.33 221.74    1.32
  -3  -1  -2 16525.2   271.0   1-0.16949-0.21364-0.88194 0.78253 0.43983-0.58481  0 411.28 214.39  155.01 411.55 214.44  155.21
  -3  -1  -2 16073.7   119.5   2 0.00987-0.39241-0.99878 0.89924 0.04846-0.19333  0 408.41 209.73  107.87 408.68 209.83  107.88
  -3  -1  -2 16351.7   121.1   2 0.10749-0.48999 0.13199-0.23149-0.98541 0.84043  0 379.83 174.22  208.09 379.76 174.32  208.21
  -3  -1   2 14622.5   209.2   1-0.57034 0.18781 0.11560-0.21489-0.81324 0.95841  0 232.42 180.39   44.00 232.33 180.42   43.96
  -3  -1   2 15434.0   193.1   2 0.02151-0.40405-0.99960 0.90007-0.01831 0.16318  0 345.70 155.45  111.90 345.78 155.60  111.75
  -3  -1   2 14013.7   184.1   2-0.21343-0.16890 0.78267-0.88215 0.58470-0.43965  0 419.68 248.11  328.09 419.94 248.19  328.17
  -3   1  -2 16125.2   250.8   1-0.47664 0.09365-0.87795 0.97733 0.04490-0.18988  0 397.20 191.37  126.20 397.47 191.48  126.24
  -3   1  -2 15674.8   152.6   2 0.12303-0.50559-0.07771 0.17717-0.98936 0.84438  0 414.45 224.17  196.12 414.74 224.28  196.15
  -3   1  -2 14217.1   147.5   2-0.20331-0.17902 0.84068-0.74121 0.50192-0.64696  0 367.19 165.45  322.17 367.16 165.55  322.33
  -3   1   2 14871.7   137.8   1-0.46303 0.08051 0.31828-0.21900-0.82722 0.97240  0 270.56 156.42   30.73 270.72 156.55   30.77
  -3   1   2 16324.3   143.8   1-0.41009 0.02710-0.90025 0.99963 0.14619-0.00121  0 330.01 151.20  133.41 330.05 151.42  133.31
  -3   1   2 17646.5   215.5   2-0.13209-0.25037-0.67503 0.77449 0.72587-0.58093  0 338.67 153.31   63.24 338.78 153.49   62.92
  -3   1   2 14833.5   198.8   2-0.07955-0.30284 0.96246-0.86295-0.25951 0.40448  0 420.10 255.69  276.10 420.30 255.80  276.28
   3  -1  -2 15803.8   198.9   2 0.00366 0.37889-0.99657 0.89704 0.08267-0.22754  0 258.57 354.45  105.98 258.67 354.31  105.87
   3  -1  -2 15203.4   190.8   2 0.05299 0.32951 0.53847-0.63797-0.84098 0.69600  0 198.87 264.10  233.16 198.78 263.99  233.33
   3  -1   2 15250.5   240.9   1-0.16485 0.54798-0.88035 0.78094 0.44475-0.29977  0 215.87 315.39  155.60 215.72 315.33  155.61
   3  -1   2 16356.7   134.1   2-0.19766 0.58005-0.28029 0.18088 0.93934-0.79425  0 232.43 335.97   36.74 232.31 335.83   36.68
   3  -1   2 15582.7   131.0   2 0.05043 0.33211-0.97960 0.88007-0.19452 0.33939  0 204.93 294.01  121.99 204.82 293.91  122.05
   3   1  -2 14521.9   213.5   1-0.21491 0.59744 0.63205-0.53277-0.74453 0.59935  0 376.17 345.14    7.01 376.10 345.00    7.21
   3   1  -2 15795.0   183.3   2 0.12236 0.26020-0.65995 0.75941-0.74128 0.59631  0 252.44 350.93  159.06 252.23 350.76  159.21
   3   1  -2 12998.1   166.4   2-0.09340 0.47579 0.97812-0.87860-0.18592 0.04095  0 199.49 271.02  280.75 199.40 270.92  280.65
  -3  -1  -3 212.648  80.833   1-0.23934-0.14365-0.90007 0.80069 0.36413-0.58160  0 427.12 225.36  149.27 427.22 225.23  149.23
  -3  -1  -3 156.596  36.076   2 0.02915-0.41169-0.99762 0.89808-0.06252-0.15479  0 425.28 221.54  114.29 425.44 221.62  114.34
  -3  -1  -3 154.239  36.390   2 0.04511-0.42760 0.58065-0.68015-0.81290 0.59544  0 372.87 157.11  236.35 372.73 157.18  236.27
  -3  -1   3 119.043  44.347   1-0.65650 0.27390-0.12634 0.02700-0.74367 0.96138  0 232.94 169.12   59.03 232.91 169.02   59.23
  -3  -1   3 130.007  54.310   2 0.01271-0.39526-0.99938 0.89985 0.03278 0.18452  0 331.92 142.30  108.70 332.12 142.30  108.79
  -3  -1   3 148.132  57.238   2-0.20269-0.17965 0.84373-0.94320 0.49703-0.27946  0 431.37 266.44  322.42 431.29 266.38  322.00
  -3   1  -3 109.560  73.165   1-0.49739 0.11440-0.86746 0.96684 0.01086-0.22833  0 416.82 201.27  123.59 417.02 201.31  123.88
  -3   1  -3 159.834  40.859   2 0.13184-0.51441-0.42629 0.52576-0.89493 0.67747  0 428.34 232.53  175.00 428.52 232.62  175.33
  -3   1  -3  68.797  40.013   2-0.16991-0.21243 0.94915-0.84967 0.26506-0.48263  0 363.02 152.11  307.18 362.91 152.05  307.20
  -3   1   3 130.818  19.548   1-0.69849 0.31590-0.45531 0.55465-0.55208 0.76979  0 287.13 142.88   81.64 287.03 142.92   81.31
  -3   1   3 156.298  20.844   1-0.43878 0.05579-0.89258 0.99196 0.10384 0.11363  0 312.48 140.47  130.67 312.42 140.52  130.35
  -3   1   3 167.659  59.078   2-0.10844-0.27402-0.76965 0.86911 0.62919-0.41178  0 326.01 141.44   71.06 326.05 141.39   70.81
  -3   1   3 148.054  56.766   2-0.09893-0.28346 0.98279-0.88328-0.15599 0.37345  0 430.55 272.93  282.45 430.53 272.82  282.43
   3  -1  -3 151.451  55.526   2 0.01548 0.36706-0.99974 0.90020 0.01701-0.23432  0 269.73 368.46  109.59 269.97 368.38  109.70
   3  -1  -3 136.733  40.840   2 0.02445 0.35804 0.67768-0.77718-0.73495 0.51749  0 191.23 249.96  243.59 191.22 249.80  243.53
   3  -1   3 185.711  61.405   1-0.19765 0.58078-0.89035 0.79094 0.41013-0.19265  0 201.44 305.38  152.75 201.55 305.54  152.82
   3  -1   3 177.789  31.747   2-0.23347 0.61586 0.17330-0.27272 0.95680-0.73915  0 236.08 349.94   10.28 236.08 349.89   10.35
   3  -1   3 166.727  29.866   2 0.02374 0.35880-0.99923 0.89969-0.03132 0.24862  0 194.14 285.67  112.35 194.23 285.70  112.51
   3   1  -3 109.739  56.505   1-0.31996 0.70249 0.51755-0.41827-0.79358 0.57582  0 375.57 357.66   16.54 375.38 357.77   16.55
   3   1  -3 163.227  55.425   2 0.11045 0.27212-0.77150 0.87096-0.62657 0.40912  0 264.07 366.24  150.20 264.30 366.18  150.03
   3   1  -3 110.322  38.906   2-0.09363 0.47603 0.97833-0.87882-0.18467-0.03279  0 191.13 255.45  280.66 190.95 255.42  280.73
   3   1   3 204.099  26.291   2-0.19836 0.58075-0.27392 0.37333 0.94108-0.72343  0 197.66 297.04   36.12 197.65 296.90   36.30
   3   1   3 117.265  23.550   2-0.18711 0.56944 0.90477-0.80529 0.38260-0.16503  0 226.92 341.85  314.94 226.96 341.94  314.50
  -3  -1  -4  9803.5   251.9   1-0.30001-0.08298-0.90798 0.80860 0.29252-0.58248  0 445.34 236.35  143.98 445.50 236.41  143.83
  -3  -1  -4  9332.5   158.1   2 0.03963-0.42217-0.99120 0.89166-0.12631-0.16343  0 444.25 234.46  118.01 444.49 234.51  118.05
  -3  -1  -4  9572.5   162.8   2 0.01098-0.39347 0.73284-0.83235-0.68031 0.39036  0 365.58 138.28  248.00 365.54 138.55  248.04
  -3  -1   4  7949.3   161.8   1-0.69630 0.31371-0.35371 0.25438-0.62454 0.91481  0 230.62 156.87   73.88 230.45 156.93   74.16
  -3  -1   4  9408.5   210.7   2 0.00450-0.38704-0.99695 0.89741 0.07796 0.21178  0 318.36 128.06  105.73 318.47 128.27  106.15
  -3  -1   4  8253.2   198.8   2-0.19679-0.18554 0.86959-0.96906 0.45287-0.16277  0 443.71 285.48  318.81 443.90 285.54  319.05
  -3   1  -4  8670.3   233.5   1-0.51768 0.13469-0.85523 0.95461-0.02429-0.26567  0 438.29 211.36  121.46 438.43 211.42  121.45
  -3   1  -4  8661.2   164.2   2 0.12623-0.50879-0.60287 0.70234-0.78779 0.49785  0 445.62 243.55  163.29 445.90 243.65  163.44
  -3   1  -4  7934.8   160.2   2-0.14654-0.23586 0.98236-0.88285 0.11620-0.40615  0 357.25 135.25  298.11 357.28 135.43  298.32
  -3   1   4  9881.2   218.9   2-0.09461-0.28785-0.81645 0.91591 0.56961-0.27974  0 312.89 127.97   74.89 313.02 128.15   75.22
  -3   1   4  8459.9   204.2   2-0.11360-0.26879 0.99065-0.89113-0.07561 0.36556  0 442.30 291.15  287.14 442.42 291.25  287.13
   3  -1  -4  9019.4   208.8   2 0.02495 0.35760-0.99895 0.89942-0.03839-0.25135  0 281.70 384.23  113.05 281.75 384.01  112.92
   3  -1  -4  8853.7   192.6   2 0.00672 0.37578 0.74902-0.84852-0.66252 0.37257  0 182.81 235.23  249.41 182.77 235.20  249.44
   3  -1   4  8862.5   223.1   1-0.21447 0.59760-0.89472 0.79531 0.39175-0.10178  0 186.95 295.91  151.27 186.84 295.91  151.37
   3  -1   4  9481.3   154.1   2 0.00752 0.37502-0.99807 0.89853 0.06170 0.22804  0 182.01 276.12  107.00 181.92 276.09  107.11
   3  -1   4  8697.7   148.8   2-0.23749 0.61986 0.42617-0.52559 0.87291-0.58269  0 240.76 366.83  354.93 240.69 366.67  354.75
   3   1  -4  8160.9   174.9   1-0.41141 0.79393 0.39740-0.29811-0.82026 0.52991  0 378.58 371.97   25.14 378.47 371.85   25.34
   3   1  -4  8853.0   200.4   2 0.10261 0.27993-0.82131 0.92085-0.56118 0.27144  0 276.44 382.82  144.86 276.47 382.62  145.24
   3   1  -4  8490.7   185.5   2-0.09090 0.47330 0.97573-0.87622-0.19923-0.09072  0 182.02 240.15  280.10 181.98 240.08  279.87
   3   1   4  9509.5   235.6   1 0.03977 0.34336-0.77653 0.87595 0.62882-0.33885  0 182.34 275.31  172.50 182.29 275.30  172.52
   3   1   4  9730.3   144.4   2-0.15519 0.53766-0.56253 0.66199 0.81208-0.52221  0 183.50 284.55   54.80 183.44 284.51   54.68
   3   1   4  8118.5   133.2   2-0.18032 0.56266 0.92497-0.82550 0.33454-0.04444  0 233.43 361.79  311.39 233.33 361.55  311.47
  -3  -1  -5  1189.1   140.5   1-0.35303-0.02996-0.90819 0.80881 0.22486-0.58731  0 466.70 248.26  138.61 466.61 248.25  138.90
  -3  -1  -5  1089.1   102.6   2 0.04770-0.43024-0.98305 0.88352-0.17701-0.18517  0 465.75 248.31  120.98 465.88 248.21  121.03
  -3  -1  -5  1127.4   113.5   2-0.00617-0.37623 0.79386-0.89338-0.60806 0.24563  0 358.37 118.50  253.57 358.43 118.60  253.55
  -3  -1   5 834.131  86.859   1-0.69149 0.30890-0.53970 0.44037-0.48017 0.84301  0 225.36 143.84   87.66 225.20 143.96   87.67
  -3  -1   5 839.946 107.583   2-0.00326-0.37928-0.99270 0.89317 0.12053 0.24165  0 304.56 113.46  103.70 304.68 113.33  103.66
  -3  -1   5 947.198 109.835   2-0.19414-0.18819 0.88012-0.97959 0.43325-0.07063  0 458.12 306.07  317.70 458.15 306.03  317.76
  -3   1  -5  1098.6   130.3   1-0.53753 0.15454-0.84112 0.94050-0.05983-0.30262  0 462.31 221.95  118.84 462.22 222.10  118.98
  -3   1  -5 926.310 109.605   2 0.11956-0.50212-0.69123 0.79069-0.71268 0.35025  0 466.04 256.41  156.68 466.23 256.40  156.77
  -3   1  -5  1008.7   114.4   2-0.12893-0.25347 0.99159-0.89207 0.01167-0.37411  0 350.86 116.60  292.25 350.99 116.71  292.21
  -3   1   5  1179.8   138.6   2-0.08707-0.29539-0.84012 0.93958 0.53537-0.17302  0 299.61 113.66   77.57 299.60 113.78   77.62
  -3   1   5  1063.2   119.4   2-0.12551-0.25689 0.99206-0.89255-0.00819 0.37063  0 455.95 311.20  291.30 456.07 311.26  291.05
   3  -1  -5  48.897  68.845   2 0.03329 0.34925-0.99556 0.89603-0.08802-0.27415  2 293.78 401.41  115.56 294.11 401.48  115.82
   3  -1  -5 943.214 105.670   2-0.00406 0.38646 0.78698-0.88649-0.61697 0.25453  0 173.48 220.08  252.97 173.42 220.07  252.89
   3  -1   5  1234.9   124.0   1-0.22073 0.60386-0.89619 0.79677 0.38486-0.02240  0 171.43 286.25  150.74 171.45 286.29  150.83
   3  -1   5 941.141  80.848   2-0.00489 0.38743-0.99157 0.89204 0.12944 0.23273  0 168.43 266.06  103.09 168.40 266.09  103.14
   3  -1   5 986.167  84.773   2-0.23381 0.61615 0.55811-0.65759 0.79614-0.43352  0 245.45 385.47  346.00 245.33 385.38  346.00
   3   1  -5 935.184 110.616   1-0.48314 0.86566 0.28469-0.18541-0.82797 0.46503  0 385.09 387.83   32.89 385.26 387.80   33.01
   3   1  -5 941.172 108.593   2 0.09809 0.28445-0.84515 0.94469-0.52545 0.16328  0 289.00 400.80  143.03 289.00 400.60  142.77
   3   1  -5 945.975  98.512   2-0.08672 0.46912 0.97132-0.87180-0.22142-0.14102  0 172.42 224.55  278.52 172.24 224.55  278.55
   3   1   5  1123.9   123.0   1 0.01001 0.37312-0.79607 0.89549 0.60512-0.24265  0 168.90 265.37  170.08 168.89 265.49  170.08
   3   1   5  1067.8    77.7   2-0.13099 0.51346-0.67986 0.77932 0.72155-0.35920  0 169.04 273.17   63.29 169.00 273.16   63.29
   3   1   5 960.930  79.727   2-0.18000 0.56233 0.92583-0.82636 0.33233 0.03029  0 238.75 381.72  311.30 238.75 381.62  311.34
  -3  -1  -6 14236.1   348.5   1-0.39982 0.01683-0.90238 0.80300 0.16080-0.59575  0 490.95 261.29  134.30 491.08 261.25  134.34
  -3  -1  -6 12716.3   246.0   2 0.05479-0.43733-0.97343 0.87389-0.22235-0.21226  0 490.00 262.89  123.89 490.19 262.91  123.71
  -3  -1  -6 12837.8   252.4   2-0.01442-0.36797 0.82018-0.91969-0.57193 0.13700  0 351.55  96.74  256.04 351.57  97.00  256.16
  -3  -1   6 12211.0   218.3   1-0.65627 0.27367-0.67663 0.57729-0.33390 0.76931  0 217.72 129.76   99.08 217.56 129.86   99.35
  -3  -1   6 13647.3   306.5   2-0.01088-0.37167-0.98682 0.88728 0.16148 0.27313  0 290.37  96.98  101.11 290.54  97.25  101.25
  -3  -1   6 11546.0   286.7   2-0.19351-0.18882 0.88252-0.98199 0.42862 0.00652  0 474.29 328.33  317.49 474.41 328.33  317.46
  -3   1  -6 12829.8   324.9   1-0.55646 0.17347-0.82530 0.92468-0.09602-0.33892  0 489.04 233.58  116.48 489.11 233.58  116.47
  -3   1  -6 13328.7   259.0   2 0.11480-0.49736-0.73659 0.83605-0.66653 0.23161  0 489.62 270.54  152.75 489.80 270.64  153.07
  -3   1  -6 11703.2   247.9   2-0.11472-0.26768 0.99097-0.89146-0.06936-0.36557  0 344.49  95.67  287.41 344.53  95.96  287.50
  -3   1   6 14356.8   102.6   1-0.12338-0.25975-0.86488 0.96429 0.48658-0.05163  0 283.05  98.50  158.88 283.52  98.77  159.10
  -3   1   6 13799.1   311.5   2-0.08334-0.29913-0.85109 0.95055 0.51836-0.08355  0 285.52  97.96   78.77 285.69  98.14   78.80
  -3   1   6 11874.2   293.5   2-0.13566-0.24674 0.98943-0.88992 0.05130 0.38363  0 471.78 333.22  294.58 471.82 333.26  294.52
   3  -1  -6 12432.4    97.3   1-0.30853 0.69106 0.53112-0.63040-0.78913 0.35360  0 317.59 422.19   15.31 317.76 421.91   15.50
   3  -1  -6 12879.0   297.5   2 0.04083 0.34172-0.99009 0.89055-0.13437-0.30024  0 307.29 421.42  118.51 307.25 421.15  118.52
   3  -1  -6 13412.5   286.4   2-0.01018 0.39257 0.80695-0.90646-0.59053 0.15561  0 163.09 204.41  255.13 163.02 204.34  254.83
   3  -1   6 13235.7   307.1   1-0.21954 0.60267-0.89592 0.79650 0.38618 0.04878  0 155.27 276.48  150.95 155.17 276.51  150.93
   3  -1   6 13522.9   236.1   2-0.01550 0.39804-0.98249 0.88295 0.18569 0.24892  0 153.70 255.87   99.95 153.65 255.90   99.81
   3  -1   6 12477.5   229.6   2-0.22954 0.61187 0.62934-0.72882 0.74246-0.30731  0 249.92 406.47  341.06 249.85 406.22  340.89
   3   1  -6 10397.3   220.8   1-0.53472 0.91724 0.18982-0.09054-0.82344 0.38791  0 395.11 406.13   39.05 395.47 406.08   39.21
   3   1  -6 12065.7   268.2   2-0.08177 0.46416 0.96531-0.86580-0.24798-0.18694  0 161.62 208.62  277.05 161.56 208.56  276.97
   3   1   6 13536.6   313.1   1-0.00860 0.39173-0.80755 0.90697 0.58973-0.15477  0 154.21 255.25  168.52 154.21 255.33  168.54
   3   1   6 13901.8   231.9   2-0.11777 0.50023-0.73429 0.83375 0.66854-0.23373  0 153.72 262.25   67.89 153.69 262.23   67.71
   3   1   6 11865.3   219.4   2-0.18206 0.56439 0.92021-0.82073 0.34651 0.08863  0 243.70 403.40  312.06 243.61 403.14  312.22
  -3  -1  -7 851.339 126.876   2-0.01776-0.36463 0.83032-0.92983-0.55701 0.04959  0 344.86  73.32  257.37 344.82  73.30  257.21
  -3  -1   7 892.479  94.210   1-0.60563 0.22264-0.77021 0.67083-0.19997 0.70740  0 208.08 113.99  109.24 208.04 114.16  109.16
  -3  -1   7 858.637 147.135   2-0.01870-0.36377-0.97932 0.87986 0.20147 0.30582  0 275.69  79.68   98.66 275.72  79.65   98.83
  -3  -1   7 760.476 153.546   2-0.19421-0.18813 0.87988-0.97935 0.43370 0.07397  0 493.23 353.04  317.76 493.24 353.09  317.79
  -3   1  -7 698.190 119.096   2-0.10243-0.27997 0.98524-0.88573-0.13714-0.37027  0 338.04  72.49  283.43 337.99  72.90  283.53
  -3   1   7 862.464  75.021   1-0.13069-0.25244-0.86779 0.96721 0.47944 0.02801  0 267.85  81.89  158.65 267.83  82.20  158.49
  -3   1   7 915.409 152.476   2-0.08219-0.30027-0.85438 0.95384 0.51311-0.00583  0 271.02  80.59   78.90 271.09  80.96   79.16
  -3   1   7 779.685 156.965   2-0.14478-0.23762 0.98382-0.88431 0.10550 0.40191  0 490.29 357.98  298.02 490.18 357.86  297.69
   3  -1  -7 726.513  74.044   1-0.48521 0.86774 0.28115-0.38043-0.82796 0.31985  0 334.83 444.08   33.43 334.70 443.99   33.25
   3  -1  -7 895.018 154.590   2 0.04794 0.33460-0.98277 0.88324-0.17850-0.32854  0 321.58 443.63  120.97 321.48 443.58  121.12
   3  -1  -7 830.703 116.743   2-0.01316 0.39555 0.81625-0.91576-0.57755 0.07014  0 151.47 187.77  255.97 151.37 187.76  255.76
   3  -1   7 843.585 128.577   1-0.21282 0.59594-0.89432 0.79491 0.39356 0.11389  0 137.84 266.28  151.50 137.72 266.39  151.51
   3  -1   7 768.649  90.924   2-0.02522 0.40769-0.97139 0.87193 0.23613 0.27115  0 137.41 245.60   97.05 137.47 245.51   96.77
   3  -1   7  1115.2   129.2   2-0.22645 0.60878 0.66790-0.76738 0.70896-0.20130  0 254.11 429.66  337.85 254.15 429.45  337.93
   3   1  -7 489.641 108.920   1-0.56952 0.95204 0.11743-0.01815-0.81355 0.30544  0 408.45 427.65   43.52 408.70 427.41   43.84
   3   1  -7 602.990 139.665   2 0.09534 0.28720-0.85833 0.95787-0.50416-0.00288  0 316.57 443.21  140.91 316.34 443.35  141.33
   3   1  -7 665.553 107.230   2-0.07613 0.45853 0.95782-0.85831-0.27709-0.23033  0 149.58 191.89  275.03 149.68 191.85  275.22
   3   1   7 736.164 124.010   1-0.01852 0.40165-0.81338 0.91280 0.58143-0.07398  0 138.09 244.60  167.81 138.13 244.65  167.73
   3   1   7  1035.3   107.6   2-0.11104 0.49351-0.76005 0.85951 0.64031-0.13302  0 137.13 251.53   69.79 137.15 251.46   69.95
   3   1   7 660.870  88.350   2-0.18510 0.56744 0.91104-0.81156 0.36845 0.13922  0 248.11 426.97  313.51 248.01 426.80  313.61
  -3  -1  -8  6031.6   269.2   2-0.01815-0.36425 0.83146-0.93098-0.55528-0.02462  0 338.20  46.49  257.31 338.19  46.83  257.34
  -3  -1   8  5908.9   193.0   1-0.54818 0.16519-0.83255 0.73317-0.07975 0.65968  0 196.55  96.33  117.60 196.57  96.43  117.60
  -3  -1   8  6295.2   310.2   2-0.02613-0.35633-0.97020 0.87074 0.24088 0.33887  0 260.03  59.90   96.48 260.11  60.20   96.48
  -3   1  -8  6134.2   277.1   2-0.09136-0.29104 0.97618-0.87666-0.19681-0.38309  0 331.33  46.60  280.14 331.40  46.95  280.01
  -3   1   8  6918.3   134.5   1-0.10929-0.27384-0.85904 0.95846 0.50011 0.07984  0 253.52  62.63  160.15 253.68  62.87  160.27
  -3   1   8  4203.9   265.1   2-0.08285-0.29961-0.85248 0.95194 0.51615 0.06360  0 255.48  61.60   78.75 255.53  61.86   78.95
   3  -1  -8  4712.7   133.5   1-0.55925 0.94178 0.13980-0.23908-0.81712 0.23643  0 351.00 469.78   42.48 351.01 469.77   42.42
   3  -1  -8  6289.5   317.6   2 0.05462 0.32792-0.97369 0.87415-0.22125-0.35823  0 337.21 470.04  123.65 337.22 469.62  123.64
   3  -1  -8  6397.7   260.3   2-0.01391 0.39631 0.81859-0.91810-0.57421-0.00569  0 138.14 170.03  255.97 138.20 169.99  256.00
   3  -1   8  5859.2   253.7   1-0.20180 0.58492-0.89153 0.79211 0.40553 0.17441  0 119.19 255.64  152.41 118.77 255.70  152.46
   3  -1   8  6045.8   210.5   2-0.03430 0.41676-0.95858 0.85912 0.28274 0.29701  0 119.82 234.89   93.87 119.54 234.93   93.94
   3  -1   8  5502.9   242.4   2-0.22470 0.60704 0.68750-0.78697 0.69054-0.11035  0 257.88 455.97  336.29 258.14 455.75  336.38
   3   1  -8  4224.4   213.2   1-0.59176 0.97428 0.06539 0.03389-0.80346 0.22276  0 424.82 452.72   46.89 425.14 452.73   47.14
   3   1  -8  6233.7   304.1   2 0.09589 0.28665-0.85585 0.95538-0.50826-0.07122  0 331.98 469.89  141.59 331.84 469.53  141.60
   3   1  -8  5527.4   239.5   2-0.07007 0.45247 0.94882-0.84931-0.30796-0.27194  0 136.25 174.05  273.19 136.30 174.03  273.34
   3   1   8  6587.6   271.5   1-0.02146 0.40459-0.81508 0.91450 0.57895 0.00099  0 120.64 233.13  167.44 120.39 233.21  167.49
   3   1   8  6531.2   211.3   2-0.10819 0.49066-0.77055 0.87001 0.62813-0.04838  0 119.30 240.65   70.84 118.98 240.68   70.89
   3   1   8  5318.1   208.7   2-0.18883 0.57117 0.89912-0.79964 0.39488 0.18531  0 252.11 453.53  315.28 251.95 453.33  315.28
  -3  -1  -9 228.764 171.904   2-0.01659-0.36580 0.82681-0.92632-0.56224-0.09014  0 331.28  17.06  257.15 331.60  16.65  256.85
  -3  -1   9 363.089 100.279   1-0.48772 0.10473-0.87258 0.77320 0.02696 0.62545  0 183.46  76.30  124.48 183.46  75.95  124.99
  -3  -1   9 207.919 140.890   2-0.03371-0.34875-0.95948 0.86002 0.27975 0.37247  0 243.10  37.87   94.47 243.20  38.27   94.12
  -3   1  -9 247.865 168.110   2-0.08116-0.30124 0.96454-0.86503-0.25116-0.40123  0 324.67  17.24  276.57 324.71  17.19  276.78
  -3   1   9 219.977  65.983   1-0.07837-0.30475-0.84498 0.94440 0.52902 0.12342  0 240.01  39.91  162.93 239.86  40.11  162.83
  -3   1   9 246.828 142.566   2-0.08484-0.29763-0.84674 0.94619 0.52521 0.12702  0 238.46  40.05   78.44 238.63  40.27   78.33
   3  -1  -9 209.679  92.886   1-0.59287 0.97540 0.06268-0.16197-0.80285 0.14957  0 367.82 500.70   47.41 367.82 500.64   47.31
   3  -1  -9 139.498 205.161   2 0.06101 0.32153-0.96287 0.86334-0.26298-0.38893  0 355.06 500.71  125.97 354.94 500.43  126.14
   3  -1  -9 276.601 124.809   2-0.01306 0.39546 0.81595-0.91546-0.57797-0.07442  0 123.36 150.74  255.92 123.10 150.65  255.73
   3  -1   9  59.628 109.741   1-0.18737 0.57050-0.88746 0.78804 0.42108 0.23135  0  98.03 244.02  153.70  97.91 244.17  153.70
   3  -1   9 254.849  96.460   2-0.04316 0.42562-0.94397 0.84451 0.32719 0.32503  0  99.57 224.07   91.06  99.39 224.02   91.21
   3  -1   9 242.132 147.465   2-0.22396 0.60629 0.69519-0.79466 0.68305-0.03033  0 261.39 486.09  335.65 261.75 486.04  335.77
   3   1  -9  88.661 153.357   1-0.60503 0.98755 0.03219 0.06710-0.79555 0.14227  0 444.95 483.36   49.41 444.80 483.37   49.23
   3   1  -9 227.731 202.310   2 0.09720 0.28534-0.84956 0.94909-0.51847-0.13345  0 349.24 500.13  142.46 349.26 500.48  142.29
   3   1  -9 220.848 116.250   2-0.06371 0.44610 0.93824-0.83872-0.34008-0.31231  0 120.91 154.76  271.10 121.02 154.74  271.36
   3   1   9 333.390 130.953   1-0.01874 0.40187-0.81351 0.91293 0.58125 0.07119  0 100.78 220.78  167.73 100.63 220.69  167.71
   3   1   9 293.801  92.672   2-0.10788 0.49034-0.77170 0.87116 0.62677 0.02545  0  98.48 229.77   70.56  98.64 229.72   70.99
   3   1   9 110.561 124.494   2-0.19289 0.57522 0.88486-0.78539 0.42405 0.22866  0 255.35 483.81  317.01 255.37 483.69  317.16
  -3  -1  10  1112.4   141.7   1-0.42655 0.04355-0.89617 0.79679 0.12222 0.60269  0 168.67  51.83  131.51 168.66  51.69  131.62
  -3  -1  10  1265.9   208.5   2-0.04129-0.34118-0.94708 0.84762 0.31832 0.40637  0 224.56  13.09   91.60 224.51  13.03   91.76
  -3   1  10  1314.6   135.9   1-0.04146-0.34167-0.82616 0.92557 0.56191 0.16302  2 226.00  12.61  165.72 226.21  12.58  165.86
  -3   1  10 960.860 195.697   2-0.08771-0.29475-0.83786 0.93732 0.53879 0.18590  0 220.13  15.46   77.27 219.87  15.42   77.40
   3  -1 -10  1270.6   189.6   2-0.01097 0.39336 0.80948-0.90899-0.58704-0.13783  0 105.65 128.99  255.07 105.55 129.19  255.08
   3  -1  10  1011.8   168.8   1-0.16993 0.55306-0.88209 0.78267 0.43936 0.28556  0  74.44 231.40  155.29  74.50 231.45  155.18
   3  -1  10  1049.8   138.5   2-0.05187 0.43434-0.92751 0.82805 0.37018 0.35451  0  76.18 212.75   88.48  76.40 212.64   88.52
   3   1 -10  1024.5   171.9   2-0.05706 0.43946 0.92603-0.82652-0.37311-0.35177  0 103.30 133.50  269.38 103.28 133.40  269.31
   3   1  10  1134.6   185.9   1-0.01131 0.39444-0.80917 0.90858 0.58747 0.13746  0  78.19 206.53  168.38  78.29 206.69  168.32
   3   1  10  1025.8   134.8   2-0.10933 0.49180-0.76641 0.86587 0.63298 0.09171  0  75.60 218.44   70.46  75.50 218.41   70.52
  -3  -1  11 241.698 143.534   1-0.36552-0.01747-0.90721 0.80783 0.20824 0.58916  0 151.71  22.61  137.38 151.88  22.23  137.71
   3  -1 -11 142.949 179.147   2-0.00797 0.39036 0.79979-0.89931-0.60022-0.19714  0  84.51 104.78  254.59  84.76 104.84  254.12
   3  -1  11 638.460 168.823   1-0.14997 0.53310-0.87522 0.77581 0.45989 0.33753  0  47.94 217.03  156.67  47.78 217.03  156.86
   3  -1  11 358.261 136.328   2-0.06057 0.44303-0.90909 0.80963 0.41217 0.38499  0  50.01 200.63   86.03  49.64 200.57   85.85
   3   1 -11  60.737 172.102   2-0.05014 0.43254 0.91214-0.81263-0.40679-0.39057  0  81.56 109.14  267.54  82.28 109.24  267.19
   3   1  11 255.321 162.755   1 0.00011 0.38302-0.80230 0.90172 0.59692 0.20050  0  51.85 190.35  169.41  52.61 190.61  169.26
   3   1  11 511.505 134.271   2-0.11207 0.49454-0.75621 0.85567 0.64466 0.15251  0  48.68 206.77   69.54  48.62 206.55   69.61
  -3  -2   0 24059.4   315.2   1-0.43273 0.05021 0.36589-0.56446-0.82393 0.82393  0 206.72 211.76   27.54 206.71 211.78   27.52
  -3  -2   0 26708.1   220.9   2-0.22101-0.16138-0.04208-0.15676 0.97436-0.97436  0 420.88 232.92   22.95 421.17 233.04   22.79
  -3  -2   0 23691.0   210.2   2 0.11908-0.50164-0.69633 0.49740-0.70778 0.70778  0 360.40 157.96  156.27 360.48 158.12  156.37
  -3   2   0 24244.7   247.3   1-0.62630 0.24331-0.73844 0.93720-0.24990 0.24990  0 362.90 158.86  105.67 362.85 159.04  105.57
  -3   2   0 27169.9   258.0   2-0.22627-0.15612 0.03196 0.16687 0.97354-0.97354  0 344.63 151.67   18.47 344.71 151.84   18.52
  -3   2   0 25816.0   250.9   2 0.04889-0.43139 0.56106-0.36205-0.82633 0.82633  0 423.51 250.43  234.99 423.72 250.49  234.89
   3  -2   0 24900.7   246.9   1-0.22210 0.60523-0.89650 0.69767 0.38335-0.38335  0 243.05 347.92  150.83 242.85 347.81  150.71
   3  -2   0 25946.9   240.5   2-0.12466 0.50712-0.70683 0.50791 0.69631-0.69631  0 253.36 354.72   65.27 253.14 354.56   65.44
   3  -2   0 26085.8   241.0   2 0.12953 0.25303-0.21822 0.01929-0.96727 0.96727  0 196.63 268.93  188.00 196.54 268.82  187.99
   3   2   0 27168.6   205.5   2 0.08984 0.29266 0.29442-0.09542-0.95144 0.95144  0 238.86 345.10  217.79 238.71 344.90  217.78
   3   2   0 22080.5   185.5   2-0.20073 0.58306 0.85261-0.65367 0.48246-0.48246  0 199.53 285.33  321.03 199.53 285.24  321.01
  -3  -2  -1 26722.4   341.9   1-0.34799-0.03453 0.48309-0.68165-0.80345 0.73086  0 200.99 221.77   18.90 200.99 221.80   19.16
  -3  -2  -1 29355.3   360.9   1 0.03598-0.41911-0.77922 0.58039 0.62572-0.69821  0 417.56 214.10  172.15 417.83 214.16  172.21
  -3  -2  -1 29674.7   222.4   2-0.17166-0.21073-0.46676 0.26793 0.86756-0.94011  0 421.64 227.20   48.12 422.03 227.33   48.23
  -3  -2  -1 28581.9   219.8   2 0.13210-0.51466-0.40489 0.20596-0.90477 0.83229  0 366.04 158.68  176.78 366.21 158.86  176.68
  -3  -2   1 26044.0   319.5   1-0.51987 0.13735 0.21862-0.41719-0.82579 0.89838  0 210.32 201.51   37.23 210.33 201.50   37.35
  -3  -2   1 27949.7   251.0   2-0.23716-0.14523 0.31149-0.51033 0.92018-0.84763  0 425.20 243.95    2.05 425.42 244.05    2.14
  -3  -2   1 26939.9   248.1   2 0.09656-0.47910-0.85266 0.65358-0.51347 0.58591  0 351.11 151.87  141.99 351.21 151.98  141.95
  -3   2  -1 24977.3   284.7   1-0.60848 0.22548-0.76622 0.96498-0.20656 0.13407  0 382.07 168.54  108.79 382.06 168.66  108.69
  -3   2  -1 26397.2   248.5   2 0.08851-0.47101 0.30502-0.10602-0.94822 0.87574  0 425.32 246.03  218.37 425.57 246.10  218.42
  -3   2   1 24438.1   205.7   1-0.66093 0.27833-0.66426 0.86293-0.34919 0.42176  0 342.98 149.03   98.12 342.86 149.27   98.20
  -3   2   1 30669.3   291.7   2-0.20097-0.18142-0.25159 0.45042 0.94674-0.87419  0 337.00 147.63   35.23 337.11 147.79   34.97
  -3   2   1 27577.8   275.8   2 0.00873-0.39122 0.74146-0.54245-0.67094 0.74343  0 426.03 259.35  248.97 426.22 259.41  248.79
   3  -2  -1 29256.9   225.9   1-0.09551 0.47864-0.85291 0.65408 0.51324-0.58574  0 259.62 359.82  161.24 259.69 359.69  161.42
   3  -2  -1 28567.7   274.0   2-0.08666 0.46913-0.84134 0.64242 0.53351-0.60598  0 259.89 360.15   77.81 259.97 359.97   77.75
   3  -2  -1 28981.8   272.6   2 0.11093 0.27157 0.09332-0.29233-0.98944 0.91695  0 194.61 261.14  206.32 194.53 261.07  205.96
   3  -2   1 26283.0   287.3   1-0.28028 0.66327-0.90628 0.70752 0.31639-0.24390  0 227.66 336.90  145.58 227.51 336.80  145.61
   3  -2   1 30122.7   251.4   2-0.16772 0.55018-0.49148 0.29256 0.85459-0.78212  0 248.97 354.13   49.96 248.81 354.01   49.87
   3  -2   1 27967.6   242.5   2 0.12950 0.25307-0.53556 0.33663-0.83451 0.90699  0 195.55 272.98  168.03 195.45 272.84  168.15
   3   2  -1 25390.9   319.6   1-0.21831 0.60083 0.62872-0.43015-0.74636 0.67377  0 404.85 324.03    7.48 405.08 323.93    7.51
   3   2  -1 27159.2   234.5   2 0.12522 0.25734-0.11918 0.31811-0.98494 0.91246  0 247.30 353.07  193.72 247.04 352.76  193.76
   3   2  -1 24145.6   221.3   2-0.17691 0.55924 0.93362-0.73468 0.31153-0.38406  0 195.87 275.07  310.01 195.83 274.97  310.04
   3   2   1 27876.2   193.3   2 0.01816 0.36434 0.70399-0.50499-0.70997 0.78246  0 233.37 342.75  245.66 233.25 342.53  245.64
   3   2   1 23809.5   178.8   2-0.22757 0.60991 0.65463-0.45569 0.72088-0.64835  0 199.54 291.09  338.95 199.50 290.97  338.95
  -3  -2  -2  2934.2   137.1   1-0.27325-0.10927 0.57138-0.76994-0.77386 0.62869  0 193.43 231.63   12.04 193.38 231.66   12.31
  -3  -2  -2  3540.4   164.1   1-0.04955-0.33358-0.83049 0.63166 0.55483-0.69981  0 428.65 225.35  165.05 428.83 225.35  165.19
  -3  -2  -2  3698.7    96.3   2-0.10839-0.27407-0.76983 0.57091 0.62898-0.77391  0 428.72 228.06   70.96 429.00 228.21   70.82
  -3  -2  -2  3429.0    97.8   2 0.11999-0.50256-0.02770-0.17123-0.99239 0.84742  0 367.21 152.63  198.97 367.27 152.72  199.02
  -3  -2   2  3006.1   122.6   1-0.59878 0.21625 0.04820-0.24676-0.79946 0.94464  0 211.61 190.86   48.04 211.58 190.86   48.22
  -3  -2   2  3306.3   121.9   2 0.07564-0.45818-0.92893 0.72986-0.36246 0.50733  0 339.90 142.57  132.06 340.03 142.62  132.22
  -3  -2   2  3008.1   117.0   2-0.23511-0.14722 0.52737-0.72632 0.81646-0.67141  0 432.75 258.26  348.08 433.00 258.36  348.12
  -3   2  -2  3208.1   148.5   1-0.60133 0.21834-0.77607 0.97483-0.19003 0.04505  0 401.53 178.07  110.00 401.78 178.19  109.87
  -3   2  -2  3342.0   110.4   2 0.11662-0.49912 0.02067 0.17833-0.99296 0.84799  0 432.08 246.61  201.94 432.25 246.71  201.78
  -3   2  -2  2954.7   107.6   2-0.22999-0.15235 0.62290-0.42396 0.74773-0.89278  0 350.55 145.61  341.23 350.53 145.77  341.36
  -3   2   2  3282.2    57.9   1-0.25080-0.13172 0.59559-0.39702-0.76313 0.90831  0 281.60 142.88   10.21 281.72 143.02   10.33
  -3   2   2  2921.1    56.2   1-0.69786 0.31526-0.37936 0.57803-0.60752 0.75265  0 317.97 139.29   75.92 317.96 139.47   75.92
  -3   2   2  3573.6   132.6   2-0.17391-0.20848-0.45262 0.65145 0.87458-0.72948  0 327.36 140.17   47.22 327.48 140.34   47.32
  -3   2   2  3078.3   124.9   2-0.02533-0.35707 0.85197-0.65294-0.52298 0.66796  0 431.91 271.74  259.65 432.05 271.78  259.56
   3  -2  -2  3600.5   129.1   2-0.05691 0.43937-0.91701 0.71810 0.39477-0.53971  0 268.57 369.22   86.91 268.64 369.08   86.96
   3  -2  -2  3427.7   115.9   2 0.08548 0.29701 0.32942-0.52843-0.94031 0.79533  0 190.22 250.83  219.89 190.17 250.76  219.91
   3  -2   2  3404.8   133.3   1-0.30796 0.69095-0.90842 0.70966 0.28274-0.13776  0 212.61 326.50  142.87 212.56 326.43  143.11
   3  -2   2  3508.3    99.7   2-0.20476 0.58715-0.21740 0.01856 0.95437-0.80927  0 247.50 358.97   32.99 247.33 358.85   32.96
   3  -2   2  3136.4    94.1   2 0.11104 0.27152-0.76708 0.56815-0.63187 0.77684  0 190.87 272.69  150.25 190.81 272.57  150.43
   3   2  -2  3144.1   138.4   1-0.30600 0.68852 0.53409-0.33552-0.78811 0.64294  0 403.09 336.30   15.08 403.30 336.23   15.27
   3   2  -2  3438.4   115.5   2 0.13213 0.25043-0.39613 0.59506-0.90864 0.76367  0 256.82 364.23  177.06 256.92 364.04  177.23
   3   2  -2  2873.3    98.7   2-0.15901 0.54134 0.96775-0.76881 0.19537-0.34042  0 190.11 262.67  303.08 190.05 262.59  303.00
   3   2   2  3205.1    77.2   2-0.05019 0.43259 0.91225-0.71323-0.40655 0.55152  0 232.21 348.10  267.15 232.05 347.91  267.20
  -3  -2  -3  10.604  56.683   1-0.21168-0.17084 0.63521-0.83378-0.74276 0.52500  0 184.24 241.50    6.58 184.12 241.48    6.94
  -3  -2  -3 -74.158  82.314   1-0.12841-0.25472-0.86689 0.66806 0.48167-0.69915  0 443.24 236.71  158.52 442.65 236.77  158.68
  -3  -2  -3  15.138  39.167   2-0.05863-0.32384-0.91343 0.71451 0.40276-0.62016  0 441.95 234.47   86.46 441.56 234.44   86.45
  -3  -2  -3   2.132  43.616   2 0.09134-0.47383 0.28214-0.48114-0.95502 0.73755  0 364.86 140.99  216.94 364.74 140.97  217.04
  -3  -2   3   9.816  48.858   1-0.65803 0.27543-0.13213-0.06654-0.74131 0.95902  0 210.40 179.97   59.42 210.46 179.74   59.60
  -3  -2   3  32.349  61.827   2 0.05850-0.44104-0.96734 0.76827-0.24664 0.46395  0 328.11 131.13  125.52 327.91 131.29  125.16
  -3  -2   3  43.618  55.996   2-0.22813-0.15421 0.64764-0.84659 0.72699-0.50942  0 442.65 274.68  339.45 442.92 274.67  339.48
  -3   2  -3  34.551  83.087   1-0.60077 0.21778-0.77681 0.97558-0.18876-0.02871  0 422.71 188.16  110.02 422.71 187.76  109.96
  -3   2  -3  65.304  52.313   2 0.12963-0.51219-0.22114 0.42007-0.96659 0.74913  0 443.36 251.79  187.57 443.62 251.77  187.82
  -3   2  -3  27.223  50.862   2-0.21109-0.17125 0.79780-0.59885 0.56477-0.78234  0 349.10 135.32  326.51 348.96 135.48  326.73
  -3   2   3 -23.055  63.398   2-0.15182-0.23064-0.58039 0.77931 0.80006-0.58265  0 316.86 130.53   55.50 316.51 130.57   55.93
  -3   2   3   4.426  62.268   2-0.05247-0.32993 0.91698-0.71796-0.39547 0.61293  0 440.56 286.51  267.59 440.51 286.66  267.90
   3  -2  -3  27.231  63.170   2-0.03404 0.41650-0.95898 0.76006 0.28142-0.49883  0 278.34 381.12   94.56 278.55 380.94   94.02
   3  -2  -3  -3.449  41.696   2 0.06209 0.32041 0.48602-0.68503-0.87174 0.65428  0 184.13 238.74  229.86 184.12 238.80  229.80
   3  -2   3  45.215  58.029   1-0.31930 0.70229-0.90882 0.71006 0.26851-0.05104  0 197.56 316.62  141.99 197.56 316.48  142.07
   3  -2   3   7.300  36.602   2-0.22693 0.60932 0.04238-0.24122 0.97299-0.75534  0 248.23 368.91   17.28 248.19 368.68   17.92
   3  -2   3  61.655  33.551   2 0.08599 0.29655-0.89600 0.69693-0.43564 0.65295  0 183.06 268.74  136.51 183.03 268.66  136.82
   3   2  -3  22.116  65.764   1-0.38453 0.76705 0.43501-0.23645-0.81419 0.59642  0 404.97 349.63   22.44 404.86 349.43   22.66
   3   2  -3  -4.559  57.167   2 0.12856 0.25400-0.55756 0.75649-0.82012 0.60266  0 267.67 377.32  166.65 267.66 377.45  166.64
   3   2  -3  37.041  39.859   2-0.14528 0.52768 0.98342-0.78440 0.10855-0.32601  0 183.05 249.20  298.21 182.94 249.18  297.87
   3   2   3  34.570  29.140   2-0.21984 0.60223-0.05699 0.25582 0.97387-0.75623  0 185.50 284.28   24.03 185.40 284.41   23.65
   3   2   3  47.440  30.386   2-0.09137 0.47377 0.97619-0.77717-0.19672 0.41419  0 234.12 359.76  279.95 234.01 359.50  280.02
  -3  -2  -4  2345.2   145.0   1-0.16342-0.21911 0.67998-0.87855-0.71479 0.42444  0 173.39 251.36    2.94 173.35 251.43    2.84
  -3  -2  -4  2878.1   185.4   1-0.19949-0.18364-0.89085 0.69201 0.40816-0.69813  0 459.26 248.70  152.91 459.36 248.67  152.67
  -3  -2  -4  2865.7   118.3   2-0.02486-0.35761-0.97187 0.77295 0.23421-0.52408  0 458.04 243.95   96.92 458.28 244.02   96.88
  -3  -2  -4  2792.1   121.6   2 0.06360-0.44610 0.47680-0.67581-0.87671 0.58676  0 360.25 125.37  229.10 360.28 125.47  229.20
  -3  -2   4  2172.2   120.7   1-0.69139 0.30880-0.30514 0.10647-0.65488 0.94515  0 206.95 167.84   70.84 206.90 167.94   70.86
  -3  -2   4  2707.9   152.2   2 0.04405-0.42659-0.98705 0.78798-0.15422 0.44396  0 315.09 118.32  119.63 315.23 118.45  119.69
  -3  -2   4  2469.2   146.0   2-0.22192-0.16041 0.71494-0.91389 0.66303-0.37294  0 454.61 292.73  334.24 454.79 292.78  334.14
  -3   2  -4  2384.0   166.3   1-0.60433 0.22134-0.77199 0.97075-0.19699-0.09297  0 445.35 197.46  109.35 445.44 197.56  109.37
  -3   2  -4  2539.5   128.3   2 0.13214-0.51470-0.39336 0.59229-0.90984 0.61990  0 458.75 260.00  177.27 458.94 260.15  177.40
  -3   2  -4  2458.5   130.6   2-0.18949-0.19284 0.89689-0.69794 0.39961-0.68970  0 345.48 121.45  315.62 345.46 121.63  315.58
  -3   2   4  2894.4   158.2   2-0.13556-0.24691-0.65961 0.85853 0.73928-0.44940  0 304.51 118.83   61.71 304.67 118.90   61.73
  -3   2   4  2499.2   149.4   2-0.07407-0.30832 0.95486-0.75584-0.28767 0.57762  0 451.29 303.73  274.64 451.23 303.73  274.58
   3  -2  -4  2563.5   148.6   2-0.01592 0.39846-0.98205 0.78298 0.18793-0.47767  0 289.36 395.43   99.69 289.44 395.15   99.68
   3  -2  -4  2375.1   125.0   2 0.04414 0.33836 0.58570-0.78471-0.80933 0.51937  0 176.80 225.74  236.67 176.70 225.70  236.63
   3  -2   4  2549.7   142.1   1-0.32074 0.70373-0.90885 0.71008 0.26670 0.02327  0 182.31 306.77  141.74 182.24 306.78  141.93
   3  -2   4  2622.4   109.9   2-0.23575 0.61814 0.24157-0.44040 0.94131-0.65112  0 250.68 382.52    6.26 250.54 382.32    6.33
   3  -2   4  2525.3   104.4   2 0.06296 0.31958-0.95902 0.75995-0.27624 0.56598  0 172.85 262.39  126.90 172.79 262.38  126.94
   3   2  -4  1915.2   142.8   1-0.45009 0.83261 0.33918-0.14061-0.82606 0.53571  0 409.78 364.21   29.16 409.77 364.01   29.35
   3   2  -4  2250.6   144.7   2 0.12306 0.25951-0.65045 0.84938-0.74951 0.45957  0 278.97 393.03  160.02 279.02 392.84  159.93
   3   2  -4  2342.8   119.4   2-0.13346 0.51585 0.99031-0.79129 0.03831-0.32826  0 174.88 235.17  293.83 174.74 235.08  293.77
   3   2   4  2816.1    97.5   2-0.19437 0.57676-0.30702 0.50585 0.93164-0.64145  0 174.01 276.49   38.12 173.98 276.39   38.28
   3   2   4  2387.4    94.4   2-0.11604 0.49844 0.99131-0.79229-0.06196 0.35191  0 237.50 375.02  287.97 237.34 374.82  287.92
  -3  -2  -5  1590.0   190.6   1-0.26351-0.11949-0.90418 0.70542 0.33620-0.69865  0 479.12 261.50  147.39 479.24 261.51  147.10
  -3  -2  -5  1541.8   124.7   2-0.00132-0.38122-0.99394 0.79487 0.10989-0.47207  0 478.28 255.64  104.24 478.43 255.68  104.29
  -3  -2  -5  1454.8   126.3   2 0.04349-0.42599 0.58898-0.78799-0.80698 0.44454  0 354.92 107.20  236.92 354.95 107.28  236.86
  -3  -2   5  1150.7   104.0   1-0.69840 0.31580-0.45822 0.25955-0.54979 0.91264  0 201.20 155.24   81.40 201.07 155.27   81.52
  -3  -2   5  1573.4   164.9   2 0.03152-0.41407-0.99656 0.79749-0.07664 0.43882  0 301.89 104.00  115.29 302.05 104.21  115.16
  -3  -2   5  1273.0   128.7   2-0.21759-0.16474 0.75292-0.95187 0.62110-0.25848  0 468.46 312.70  331.06 468.68 312.69  330.88
  -3   2  -5  1279.8   145.6   1-0.61056 0.22757-0.76322 0.96198-0.21144-0.15101  0 470.60 207.67  108.36 470.58 207.80  108.34
  -3   2  -5  1438.1   137.9   2 0.13041-0.51298-0.50557 0.70450-0.85287 0.49045  0 477.85 270.98  170.01 478.00 270.99  170.17
  -3   2  -5  1334.7   135.1   2-0.16951-0.21283 0.94994-0.75099 0.26245-0.62507  0 340.79 104.67  307.03 340.84 104.77  307.04
  -3   2   5  1401.7   155.0   2-0.12436-0.25810-0.70810 0.90701 0.69508-0.33273  0 291.91 105.46   65.53 292.06 105.61   65.54
  -3   2   5  1475.6   167.4   2-0.09164-0.29075 0.97645-0.77743-0.19529 0.55773  0 464.01 322.94  280.20 464.12 322.95  280.10
   3  -2  -5  1487.5   126.4   2 0.03114 0.35136 0.64827-0.84728-0.76077 0.39833  0 168.08 211.72  240.97 168.02 211.62  241.24
   3  -2   5  1462.4   134.2   1-0.31556 0.69855-0.90873 0.70997 0.27319 0.08926  0 166.44 297.22  142.39 166.30 297.16  142.41
   3  -2   5  1228.1    95.5   2 0.04353 0.33902-0.98758 0.78851-0.15098 0.51315  0 160.75 254.66  119.40 160.64 254.59  119.50
   3  -2   5  1406.2   107.0   2-0.23785 0.62022 0.37746-0.57630 0.89496-0.53218  0 253.82 399.19  357.82 253.72 399.06  357.81
   3   2  -5  1057.0   119.8   1-0.50137 0.88390 0.25286-0.05430-0.82746 0.46452  0 417.86 380.46   35.00 418.04 380.34   35.11
   3   2  -5 250.966  82.743   2 0.11827 0.26429-0.70464 0.90357-0.69964 0.33721  0 290.97 410.24  155.89 291.06 410.27  155.70
   3   2  -5  1269.5   111.9   2-0.12301 0.50540 0.99215-0.79313-0.02256-0.33988  0 165.46 220.40  289.99 165.46 220.35  290.21
   3   2   5  1516.3    96.2   2-0.17287 0.55526-0.45919 0.65803 0.87135-0.50861  0 160.96 267.50   47.78 160.90 267.38   47.74
   3   2   5  1267.3    92.0   2-0.13268 0.51507 0.99059-0.79157 0.03362 0.32882  0 241.19 392.95  293.54 241.09 392.78  293.49
  -3  -2  -6 10075.8   314.9   1-0.32095-0.06204-0.90885 0.71009 0.26643-0.70137  2 502.80 275.58  141.74 502.83 275.58  141.91
  -3  -2  -6  9078.7   232.1   2 0.01629-0.39883-0.99979 0.80072 0.01236-0.44697  0 502.37 269.16  110.02 502.41 269.16  109.97
  -3  -2  -6  8907.2   232.8   2 0.03004-0.41254 0.65328-0.85229-0.75652 0.32159  0 349.17  86.41  241.76 349.19  86.62  241.62
  -3  -2   6  8399.1   215.8   1-0.68336 0.30076-0.58530 0.38662-0.43641 0.87182  0 193.30 141.41   91.17 193.14 141.45   91.33
  -3  -2   6  9276.8   282.7   2 0.01991-0.40245-0.99976 0.80069-0.00916 0.44377  0 288.14  88.28  111.23 288.30  88.49  111.22
  -3  -2   6  8468.5   278.7   2-0.21476-0.16758 0.77369-0.97264 0.59605-0.16091  0 484.87 334.77  329.23 484.99 334.78  329.01
  -3   2  -6  8803.4   289.6   1-0.61843 0.23544-0.75134 0.95010-0.23029-0.20465  0 498.87 218.75  106.95 498.99 218.79  106.99
  -3   2  -6  8757.5   239.3   2 0.12759-0.51015-0.57645 0.77538-0.80711 0.37220  0 500.73 283.95  165.30 500.95 284.01  165.32
  -3   2  -6  8288.8   239.4   2-0.15169-0.23065 0.97713-0.77819 0.14900-0.58415  0 335.59  85.03  300.19 335.53  85.30  300.24
  -3   2   6 10135.6   296.6   2-0.11702-0.26544-0.73722 0.93614 0.66544-0.23063  0 278.53  90.49   68.16 278.67  90.71   67.96
  -3   2   6  8892.3   286.8   2-0.10654-0.27585 0.98769-0.78867-0.11454 0.54947  0 479.39 344.50  285.00 479.41 344.54  284.85
   3  -2  -6  9490.6   281.4   2 0.01197 0.37057-0.99924 0.80017 0.03699-0.47160  0 314.14 431.32  108.56 314.15 430.98  108.54
   3  -2  -6  9271.9   253.2   2 0.02222 0.36027 0.68724-0.88624-0.72609 0.29117  0 158.09 196.55  244.21 158.07 196.56  244.29
   3  -2   6  8782.6   263.4   1-0.30566 0.68865-0.90830 0.70954 0.28558 0.14936  0 149.47 287.48  143.27 149.50 287.46  143.32
   3  -2   6  8741.0   209.6   2 0.02700 0.35554-0.99839 0.79932-0.04982 0.48443  0 146.86 245.95  113.54 146.77 245.92  113.60
   3  -2   6  8873.6   229.1   2-0.23672 0.61909 0.46677-0.66560 0.85211-0.41677  0 257.00 418.82  352.13 257.21 418.65  352.13
   3   2  -6  7114.9   230.6   1-0.53941 0.92193 0.18057 0.01800-0.82246 0.38693  0 429.33 399.06   39.81 429.57 399.06   39.81
   3   2  -6  8350.9   238.9   2-0.11328 0.49567 0.99054-0.79152-0.07743-0.35750  0 155.04 204.95  286.99 155.04 204.87  287.02
   3   2   6  9607.3   208.6   2-0.15761 0.54007-0.54894 0.74785 0.82087-0.38606  0 146.41 258.04   53.91 146.35 258.00   53.74
   3   2   6  8384.5   196.7   2-0.14534 0.52773 0.98337-0.78435 0.10890 0.32603  0 245.10 413.47  297.90 244.88 413.19  297.89
  -3  -2  -7  1018.9   134.6   2 0.02163-0.40413 0.68975-0.88876-0.72372 0.21631  0 343.35  63.13  244.31 343.29  63.34  244.49
  -3  -2   7 979.531 112.636   1-0.65282 0.26983-0.68483 0.48607-0.32379 0.83122  0 183.44 125.98  100.13 183.40 126.19  100.12
  -3  -2   7  1108.3   162.2   2 0.00927-0.39181-0.99861 0.79954 0.05184 0.45521  0 273.70  71.06  107.75 273.80  71.05  107.69
  -3  -2   7 951.633 170.664   2-0.21327-0.16907 0.78375-0.98270 0.58331-0.07564  2 503.51 359.58  328.25 504.19 359.64  328.07
  -3   2  -7 840.085 138.471   2-0.13607-0.24633 0.98924-0.79022 0.05372-0.56114  0 329.71  63.00  294.62 329.91  62.99  294.66
  -3   2   7  1204.0   169.9   2-0.11270-0.26976-0.75376 0.95268 0.64741-0.14013  0 264.23  73.73   69.18 264.38  73.99   69.38
  -3   2   7  1146.8   178.7   2-0.11951-0.26288 0.99193-0.79291-0.04230 0.54972  0 497.59 369.05  289.32 497.59 369.07  289.07
   3  -2  -7  1240.2   172.3   2 0.02303 0.35951-0.99937 0.80030-0.02717-0.47987  0 328.33 453.08  112.18 328.31 453.30  112.26
   3  -2  -7  1500.8   158.0   2 0.01650 0.36600 0.71078-0.90978-0.70322 0.19581  0 146.60 180.40  246.13 146.68 180.36  246.20
   3  -2   7  1029.1   139.1   1-0.29208 0.67507-0.90739 0.70863 0.30221 0.20523  0 131.59 277.48  144.52 131.52 277.50  144.55
   3  -2   7  1174.5   122.2   2 0.01227 0.37027-0.99930 0.80023 0.03531 0.47173  0 131.12 236.65  108.59 131.12 236.60  108.64
   3  -2   7 914.737 129.479   2-0.23527 0.61760 0.52328-0.72223 0.81904-0.31137  0 260.63 441.56  348.37 260.81 441.26  348.40
   3   2  -7 829.695 140.031   1-0.56642 0.94894 0.12427 0.07430-0.81470 0.30659  0 444.36 421.15   43.34 444.41 420.87   43.41
   3   2  -7 959.743 156.049   2 0.11273 0.26983-0.75374 0.95267-0.64743 0.14003  0 317.76 453.15  151.54 317.85 452.96  151.59
   3   2  -7 997.417 125.932   2-0.10403 0.48642 0.98625-0.78723-0.12839-0.37903  0 143.22 188.48  283.92 143.24 188.46  284.04
   3   2   7  1042.0   114.8   2-0.14743 0.52989-0.60264 0.80155 0.78428-0.27700  0 130.11 248.30   57.49 130.17 248.19   57.51
   3   2   7 673.384  94.584   2-0.15546 0.53780 0.97263-0.77368 0.17271 0.33496  0 248.86 436.38  301.68 248.60 436.35  301.64
  -3  -2  -8  4503.9   271.3   2 0.01688-0.39937 0.70924-0.90825-0.70476 0.12486  0 337.17  36.67  246.16 337.28  36.84  246.07
  -3  -2   8  4344.8   198.3   1-0.61187 0.22888-0.76131 0.56255-0.21453 0.79445  0 171.68 108.86  108.13 171.67 108.85  108.12
  -3  -2   8  4302.5   292.6   2-0.00098-0.38156-0.99415 0.79508 0.10803 0.47145  0 258.10  51.42  104.37 258.28  51.48  104.40
  -3   2  -8  4066.7   270.5   2-0.12182-0.26057 0.99212-0.79309-0.02935-0.55055  0 323.71  37.24  289.83 323.82  37.42  289.82
  -3   2   8  5145.6   270.1   2-0.11062-0.27185-0.76163 0.96055 0.63850-0.05875  0 249.03  54.84   69.99 248.95  55.12   70.09
   3  -2  -8  4440.6   317.3   2 0.03301 0.34953-0.99572 0.79665-0.08635-0.49313  0 344.22 480.08  115.73 344.15 479.61  115.72
   3  -2  -8  4550.0   236.7   2 0.01324 0.36926 0.72379-0.92280-0.68989 0.10999  0 133.54 162.74  247.32 133.61 162.77  247.28
   3  -2   8  4511.0   237.4   1-0.27554 0.65853-0.90575 0.70699 0.32203 0.25790  0 112.22 267.05  146.25 111.99 267.04  146.03
   3  -2   8  4595.5   198.8   2-0.00126 0.38380-0.99398 0.79491 0.10957 0.46991  0 113.65 226.73  104.22 113.47 226.73  104.31
   3  -2   8  4084.2   255.9   2-0.23379 0.61612 0.55862-0.75757 0.79579-0.21560  0 264.20 467.66  345.82 264.33 467.41  345.97
   3   2  -8  2733.9   248.9   1-0.58457 0.96710 0.08259 0.11598-0.80713 0.22643  0 462.78 446.81   46.00 462.98 446.83   46.05
   3   2  -8  4066.1   308.0   2 0.11176 0.27081-0.76195 0.96088-0.63792 0.05803  0 333.34 479.78  150.76 333.29 479.63  150.87
   3   2  -8  3996.9   226.1   2-0.09512 0.47752 0.97966-0.78064-0.17668-0.40322  0 129.67 170.87  281.31 129.80 170.83  281.20
   3   2   8  4719.2   192.8   2-0.14108 0.52354-0.63366 0.83258 0.76064-0.18089  0 112.44 238.04   59.76 112.09 238.08   59.78
   3   2   8  3947.3   202.1   2-0.16447 0.54680 0.95928-0.76034 0.22962 0.35057  0 252.05 463.01  304.93 251.90 462.76  305.07
  -3  -2   9 20899.5   379.0   1-0.56418 0.18119-0.81808 0.61932-0.11153 0.76394  0 157.91  88.83  115.34 157.99  88.90  115.40
  -3  -2   9 22183.1   478.4   2-0.01077-0.37177-0.98691 0.78784 0.16090 0.49101  0 241.41  28.84  101.22 241.36  29.21  101.28
  -3   2  -9 18477.0   470.2   2-0.10863-0.27377 0.98870-0.78967-0.10333-0.54906  2 317.30   7.54  285.48 317.46   7.74  285.51
  -3   2   9 23758.7   496.8   2-0.11020-0.27227-0.76318 0.96210 0.63672 0.01550  0 232.12  33.28   69.96 232.01  33.56   70.22
   3  -2  -9 21699.1   462.2   2 0.01190 0.37059 0.72925-0.92825-0.68415 0.03176  0 118.82 143.36  247.73 118.48 143.44  247.74
   3  -2   9 21553.0   471.7   1-0.25650 0.63949-0.90313 0.70437 0.34433 0.30808  0  90.67 255.84  147.72  90.43 255.84  147.72
   3  -2   9 18021.7   419.6   2-0.23277 0.61510 0.57892-0.77787 0.78145-0.12874  0 267.45 498.34  344.59 267.65 498.02  344.54
   3   2  -9 13901.7   396.4   1-0.59603 0.97855 0.05505 0.14352-0.80107 0.14779  0 485.35 478.20   47.83 485.68 478.46   47.79
   3   2  -9 19901.4   437.0   2-0.08641 0.46881 0.97097-0.77194-0.22306-0.42933  0 114.62 151.62  278.45 114.29 151.57  278.45
   3   2   9 23085.8   403.0   2-0.13768 0.52014-0.64983 0.84875 0.74751-0.09528  0  91.92 227.61   60.92  91.65 227.61   60.98
   3   2   9 17534.0   378.6   2-0.17247 0.55480 0.94378-0.74483 0.28202 0.37070  0 254.81 493.91  308.27 254.77 493.41  308.23
  -3  -2  10 853.234 149.743   1-0.51272 0.12973-0.85842 0.65966-0.01538 0.74029  0 142.28  65.38  122.33 142.22  65.43  122.06
  -3   2  10 982.114 212.193   2-0.11109-0.27137-0.75987 0.95879 0.64051 0.08418  2 213.16   8.60   70.01 213.04   8.54   69.93
   3  -2 -10 668.197 170.815   2 0.01198 0.37051 0.72894-0.92795-0.68447-0.04041  0 101.28 121.91  247.69 100.73 121.76  247.71
   3  -2  10 636.169 159.912   1-0.23523 0.61835-0.89932 0.70049 0.36863 0.35630  0  66.65 243.33  149.49  66.08 243.55  149.57
   3  -2  10 541.718 132.045   2-0.02548 0.40794-0.97106 0.77214 0.23748 0.48722  0  70.38 204.85   96.66  70.19 205.11   96.68
   3   2 -10 555.472 165.595   2-0.07790 0.46029 0.96024-0.76122-0.26807-0.45681  0  96.48 130.21  276.07  96.15 130.15  275.77
   3   2  10 597.732 123.250   2-0.13639 0.51886-0.65576 0.85467 0.74255-0.01786  0  68.17 216.73   61.33  68.18 216.68   61.43
  -3  -2  11  2251.2   262.1   1-0.45780 0.07481-0.88591 0.68715 0.07474 0.72266  0 123.95  36.52  128.40 123.97  36.91  128.31
   3  -2 -11  1981.7   244.8   2 0.01318 0.36932 0.72403-0.92304-0.68964-0.10773  0  79.28  96.82  247.29  79.55  96.93  247.30
   3  -2  11  2185.6   236.7   1-0.21200 0.59513-0.89413 0.69529 0.39445 0.40297  0  38.51 229.72  151.58  38.31 229.68  151.58
   3  -2  11  2456.4   231.3   2-0.03657 0.41903-0.95498 0.75607 0.29439 0.50277  0  42.98 193.22   93.14  42.99 193.09   93.23
   3   2 -11  2167.0   242.1   2-0.06929 0.45169 0.94758-0.74855-0.31193-0.48544  0  74.49 105.70  273.33  74.54 105.77  273.10
   3   2  11  2491.9   229.2   2-0.13676 0.51923-0.65406 0.85298 0.74397 0.05319  0  40.57 205.32   61.26  40.75 205.12   61.30
  -3  -3   0  -3.769  52.389   1-0.50251 0.11999 0.25081-0.54866-0.82739 0.82739  0 187.77 221.19   35.55 187.94 221.51   35.25
  -3  -3   0  -7.613  47.216   2-0.21442-0.16796-0.11934-0.17891 0.96942-0.96942  0 444.89 253.72   27.46 444.74 253.69   27.24
  -3  -3   0  11.426  52.081   2 0.12849-0.51106-0.55917 0.26078-0.81903 0.81903  0 347.60 134.13  166.40 347.54 134.26  166.52
  -3   3   0  55.460  55.479   1-0.69607 0.31347-0.49904 0.79705-0.51619 0.51619  0 372.73 143.72   84.61 372.87 143.58   84.55
  -3   3   0 -43.525  57.345   2-0.23002-0.15237 0.09935 0.19891 0.96810-0.96810  0 327.78 130.70   14.62 328.19 130.62   14.64
  -3   3   0  17.296  58.947   2 0.06374-0.44623 0.47598-0.17747-0.87714 0.87714  0 443.80 274.53  228.89 443.61 274.59  229.15
   3  -3   0  28.586  44.286   1-0.39553 0.77853-0.90317 0.60503 0.16685-0.16685  0 234.56 360.23  134.32 234.62 360.35  134.77
   3  -3   0 -18.146  53.748   2-0.15051 0.53297-0.58723 0.28886 0.79530-0.79530  0 267.10 378.15   56.41 267.45 378.19   56.41
   3  -3   0  -5.683  37.639   2 0.12960 0.25296-0.22828-0.07012-0.96493 0.96493  0 182.12 249.01  187.55 182.33 249.08  187.39
   3   3   0  14.904  78.024   1-0.19775 0.58027 0.64853-0.35068-0.73506 0.73506  0 437.10 302.23    5.64 437.15 302.36    5.74
   3   3   0  37.571  37.017   2 0.09203 0.29046 0.27639 0.02212-0.95663 0.95663  0 249.66 370.06  216.54 249.57 370.09  216.70
   3   3   0  -9.033  30.905   2-0.22516 0.60750 0.68261-0.38419 0.69523-0.69523  0 182.34 267.46  336.47 182.39 267.27  336.77
  -3  -3  -1  2044.9   120.1   1-0.43722 0.05470 0.35907-0.65691-0.82457 0.75198  0 183.82 231.57   27.99 183.87 231.58   27.99
  -3  -3  -1  2317.4   109.8   2-0.18367-0.19872-0.38735 0.08910 0.90345-0.97600  0 446.42 248.88   43.14 446.70 249.02   43.18
  -3  -3  -1  2000.4   110.1   2 0.13182-0.51439-0.34665 0.04825-0.92869 0.85620  0 352.29 133.61  180.17 352.38 133.73  180.29
  -3  -3   1  1844.3   124.3   1-0.56607 0.18355 0.12502-0.42287-0.81482 0.88741  0 190.02 211.25   43.24 189.94 211.27   43.36
  -3  -3   1  2181.7   116.2   2-0.23153-0.15086 0.12833-0.42658 0.96433-0.89178  0 446.74 262.26   13.26 446.91 262.37   12.97
  -3  -3   1  1959.6   116.0   2 0.11676-0.49933-0.71929 0.42090-0.68483 0.75731  0 340.09 130.50  154.47 340.19 130.70  154.50
  -3   3  -1  1808.3   126.5   1-0.68406 0.30146-0.58190 0.87991-0.43983 0.36727  0 392.68 153.17   91.00 392.91 153.28   91.05
  -3   3  -1  1993.5   120.9   2 0.09065-0.47315 0.28775 0.01076-0.95340 0.88092  0 446.11 270.82  217.24 446.25 270.89  217.38
  -3   3   1  1890.3    91.1   1-0.69455 0.31196-0.33296 0.63097-0.63776 0.71032  0 352.47 133.41   72.83 352.39 133.57   72.74
  -3   3   1  2286.0   130.4   2-0.21535-0.16704-0.10907 0.40732 0.97043-0.89788  0 321.77 128.11   26.62 321.91 128.31   26.65
  -3   3   1  2133.4   127.5   2 0.03418-0.41668 0.63443-0.33593-0.77222 0.84471  0 444.47 281.90  239.98 444.65 281.90  240.19
   3  -3  -1  2049.6    81.5   1-0.34925 0.73224-0.90841 0.61027 0.22984-0.30233  0 251.63 372.87  139.08 251.50 372.71  139.26
   3  -3  -1  2297.4   127.8   2-0.12071 0.50317-0.72304 0.42466 0.68018-0.75265  0 273.19 382.05   66.73 273.27 381.84   66.77
   3  -3  -1  2293.4   110.7   2 0.11880 0.26370-0.00979-0.28872-0.99287 0.92038  0 181.59 243.12  200.16 181.48 243.07  200.03
   3  -3   1  1922.9   107.8   1-0.41284 0.79583-0.89963 0.60149 0.14223-0.06974  0 219.15 349.13  133.14 219.06 349.01  133.03
   3  -3   1  2216.6   122.0   2-0.17940 0.56179-0.41627 0.11802 0.89137-0.81882  0 263.44 378.53   44.93 263.51 378.37   45.00
   3  -3   1  2152.6   103.0   2 0.13157 0.25099-0.44922 0.15082-0.88368 0.95617  0 180.83 252.45  173.94 180.70 252.38  173.86
   3   3  -1  1840.9   149.1   1-0.27570 0.65822 0.56860-0.27075-0.77504 0.70245  0 434.00 314.78   12.51 434.08 314.70   12.53
   3   3  -1  1530.3   100.7   2 0.11722 0.26528 0.01177 0.28673-0.99304 0.92055  0 256.22 375.21  201.12 256.19 375.15  201.27
   3   3  -1  1934.9    92.7   2-0.20971 0.59204 0.80611-0.50769 0.55336-0.62589  0 180.65 259.99  325.91 180.65 259.92  325.91
   3   3   1  2180.4    92.0   2 0.05280 0.32970 0.53951-0.24101-0.84032 0.91281  0 245.16 369.53  233.29 245.05 369.34  233.40
   3   3   1  1771.4    81.7   2-0.23579 0.61816 0.50308-0.20482 0.83145-0.75890  0 181.37 271.53  349.82 181.34 271.49  349.72
  -3  -3  -2  14.316  60.052   1-0.37520-0.00733 0.44757-0.74542-0.81173 0.66656  0 177.84 241.83   21.42 177.91 241.56   21.76
  -3  -3  -2 -17.876  87.285   1 0.03528-0.41841-0.77968 0.48144 0.62518-0.77016  0 451.82 236.65  172.58 452.32 236.59  172.15
  -3  -3  -2  39.478  50.685   2-0.14396-0.23850-0.61974 0.32136 0.77149-0.91643  0 453.24 248.71   58.59 453.13 248.73   58.75
  -3  -3  -2  25.871  53.472   2 0.12478-0.50734-0.11059-0.18780-0.98600 0.84103  0 354.30 128.50  194.46 354.45 128.58  194.26
  -3  -3   2  56.440  61.918   1-0.62166 0.23907-0.01324-0.28476-0.78317 0.92831  0 189.85 200.57   51.94 189.88 200.69   52.09
  -3  -3   2 -26.320  58.060   2 0.10151-0.48405-0.82746 0.52885-0.55228 0.69715  0 330.91 123.64  144.37 330.96 123.73  144.62
  -3   3  -2 -16.623  77.519   1-0.67323 0.29063-0.62603 0.92404-0.39351 0.24838  0 413.58 162.98   94.63 413.54 162.82   94.77
  -3   3  -2  61.575  60.740   2 0.11111-0.49360 0.09126 0.20724-0.98961 0.84463  0 452.86 270.73  205.77 452.72 270.88  205.84
  -3   3  -2 -27.416  60.025   2-0.23519-0.14715 0.52549-0.22707 0.81765-0.96270  0 334.17 124.21  348.43 333.96 124.27  348.25
  -3   3   2  -6.014  31.598   1-0.59617 0.21365 0.05470 0.24315-0.80099 0.94617  0 328.37 123.66   48.56 328.09 123.47   47.81
  -3   3   2   9.386  66.970   2-0.19761-0.18478-0.28073 0.57898 0.93923-0.79413  0 313.49 122.90   37.20 313.82 122.88   36.70
  -3   3   2  40.998  68.535   2 0.00504-0.38743 0.75452-0.45599-0.65626 0.80123  0 448.82 292.36  249.43 448.82 292.45  249.93
   3  -3  -2  40.524  31.337   1-0.21120 0.59432-0.89393 0.59568 0.39533-0.54032  0 273.14 386.87  152.28 272.84 386.73  151.65
   3  -3  -2  14.891  64.985   2-0.09294 0.47540-0.82175 0.52337 0.56223-0.70716  0 280.64 389.27   76.01 280.73 389.00   75.75
   3  -3  -2   9.732  46.271   2 0.10304 0.27946 0.17781-0.47632-0.97866 0.83368  0 178.47 234.46  210.64 178.45 234.69  210.87
   3  -3   2  67.308  53.508   1-0.41650 0.79949-0.89876 0.60062 0.13693 0.00805  0 204.11 337.94  132.60 203.92 338.38  132.66
   3  -3   2 -17.008  54.877   2-0.20371 0.58610-0.22748-0.07078 0.95224-0.80714  0 261.58 383.09   33.68 261.47 382.74   33.54
   3  -3   2  -6.137  39.979   2 0.12387 0.25870-0.63948 0.34109-0.75876 0.90373  0 176.47 252.78  160.62 176.44 252.79  160.76
   3   3  -2  57.382  89.659   1-0.34709 0.72961 0.48424-0.18639-0.80315 0.65797  0 434.42 327.72   18.95 434.18 327.63   19.07
   3   3  -2   9.004  59.613   2 0.12916 0.25341-0.20708 0.50548-0.96976 0.82479  0 264.22 383.89  188.49 264.30 383.80  188.65
   3   3  -2  21.598  38.735   2-0.19315 0.57549 0.88389-0.58547 0.42596-0.57100  0 176.19 250.25  316.98 176.65 250.22  317.28
   3   3   2  35.508  34.917   2-0.23673 0.61912 0.28053 0.01772 0.93019-0.78510  0 177.11 272.25    3.92 177.05 271.99    4.00
   3   3   2 -17.308  35.706   2 0.00812 0.37437 0.74374-0.44523-0.66842 0.81340  0 242.97 373.17  248.74 242.84 373.47  248.98
  -3  -3  -3 788.673 101.037   1-0.32018-0.06235 0.51729-0.81514-0.79366 0.57590  0 170.05 251.61   16.60 170.14 251.59   16.57
  -3  -3  -3  1119.4   139.0   1-0.04342-0.33971-0.82722 0.52897 0.56020-0.77768  0 464.62 248.84  165.80 464.66 248.86  165.70
  -3  -3  -3  1040.0   105.9   2-0.10396-0.27851-0.78513 0.48675 0.61055-0.82795  0 464.05 252.35   72.21 464.17 252.45   72.22
  -3  -3  -3  1036.2   109.3   2 0.10990-0.49239 0.10565-0.40415-0.98831 0.77085  0 354.08 119.02  206.67 353.97 119.11  206.68
  -3  -3   3 780.294  96.764   1-0.66403 0.28143-0.15584-0.14217-0.73129 0.94899  0 187.65 189.73   61.07 187.64 189.64   61.11
  -3  -3   3 861.868 101.550   2 0.08554-0.46808-0.89763 0.59903-0.43236 0.64967  0 320.21 114.35  136.58 320.40 114.35  136.61
  -3  -3   3 916.065 101.919   2-0.23699-0.14538 0.45616-0.75442 0.85776-0.64009  0 460.90 289.02  352.69 460.91 288.95  352.82
  -3   3  -3 776.051 114.453   1-0.66615 0.28356-0.64925 0.94726-0.36703 0.14933  0 435.41 172.10   96.64 435.49 172.31   96.83
  -3   3  -3 826.719  91.580   2 0.12362-0.50619-0.08814 0.38654-0.98841 0.77095  0 463.06 274.41  195.55 463.26 274.46  195.55
  -3   3  -3 956.499 118.127   2-0.22461-0.15772 0.68846-0.39004 0.68962-0.90719  0 333.70 115.22  336.32 333.66 115.38  336.31
  -3   3   3  1123.2   137.2   2-0.18033-0.20206-0.40998 0.70824 0.89409-0.67644  0 304.13 114.83   44.58 304.26 114.87   44.60
  -3   3   3 918.704 106.259   2-0.02126-0.36114 0.84051-0.54197-0.54138 0.75884  0 455.68 305.81  258.31 455.94 305.80  258.29
   3  -3  -3 912.001 103.319   2-0.06865 0.45111-0.88998 0.59160 0.45080-0.66821  0 289.63 399.38   83.22 289.60 399.24   83.34
   3  -3  -3  1058.8   103.1   2 0.08626 0.29624 0.32347-0.62198-0.94230 0.72483  0 173.60 224.47  219.55 173.58 224.48  219.54
   3  -3   3 986.342 117.309   1-0.41232 0.79531-0.89975 0.60161 0.14299 0.07449  0 188.75 328.22  133.29 188.70 328.24  133.08
   3  -3   3 980.487 114.887   2-0.22073 0.60312-0.04571-0.25254 0.97426-0.75662  0 261.08 391.30   23.00 261.16 391.11   23.00
   3  -3   3 836.957  86.147   2 0.10886 0.27369-0.78125 0.48265-0.61465 0.83195  0 169.73 250.61  149.28 169.66 250.52  149.09
   3   3  -3  1019.3   126.8   1-0.40930 0.79182 0.40043-0.10258-0.81983 0.60207  0 437.53 341.47   24.97 437.49 341.45   25.12
   3   3  -3 973.282 102.259   2 0.13194 0.25063-0.36663 0.66503-0.92096 0.70351  0 273.77 395.53  179.00 273.71 395.37  179.07
   3   3  -3 819.348  91.183   2-0.17764 0.55998 0.93181-0.63339 0.31651-0.53409  0 170.84 238.82  310.35 170.86 238.82  310.35
   3   3   3 979.965  78.519   2-0.22764 0.61003 0.05614 0.24211 0.97212-0.75448  0 169.98 269.36   17.18 169.89 269.35   17.13
   3   3   3 880.971  80.694   2-0.03264 0.41504 0.87155-0.57302-0.48922 0.70668  0 242.89 382.31  261.74 242.66 382.22  261.84
  -3  -3  -4 45738.8   534.9   1-0.27401-0.10851 0.57054-0.86839-0.77421 0.48386  0 160.61 261.81   12.38 160.67 261.80   12.38
  -3  -3  -4 51142.9   574.1   1-0.11799-0.26514-0.86270 0.56446 0.49175-0.78172  0 480.05 261.81  159.60 480.19 261.77  159.55
  -3  -3  -4 52898.9   442.3   2-0.06949-0.31297-0.88788 0.58951 0.45479-0.74467  0 479.25 259.39   82.78 479.51 259.53   83.08
  -3  -3  -4 49151.9   428.0   2 0.09206-0.47455 0.27617-0.57468-0.95669 0.66674  0 351.70 105.62  216.84 351.67 105.81  216.69
  -3  -3   4 43184.7   472.6   1-0.69011 0.30751-0.29408-0.00393-0.66126 0.95154  0 183.38 177.93   69.91 183.31 177.94   70.12
  -3  -3   4 47688.1   491.1   2 0.07046-0.45300-0.94241 0.64381-0.32695 0.61669  0 308.70 102.76  130.00 308.85 102.89  130.02
  -3  -3   4 44310.3   471.3   2-0.23433-0.14800 0.54660-0.84502 0.80394-0.51384  0 471.84 305.81  347.02 472.08 305.89  346.80
  -3   3  -4 43638.5   505.8   1-0.66251 0.27991-0.65987 0.95788-0.35448 0.06421  0 459.37 181.71   98.01 459.48 181.90   97.79
  -3   3  -4 48051.6   456.8   2 0.12979-0.51235-0.23444 0.53283-0.96343 0.67349  0 477.52 281.11  186.80 477.70 281.26  187.02
  -3   3  -4 44419.0   443.2   2-0.20985-0.17249 0.80530-0.50688 0.55449-0.84458  0 331.69 102.89  326.23 331.63 103.10  325.99
  -3   3   4 52269.9   527.0   2-0.16583-0.21663-0.50206 0.80043 0.84879-0.55891  0 293.36 104.49   50.58 293.53 104.71   50.58
  -3   3   4 45476.6   492.9   2-0.04441-0.33798 0.89975-0.60122-0.43414 0.72409  0 465.55 321.69  265.44 465.60 321.71  265.44
   3  -3  -4 53222.2   519.7   2 0.07098 0.31152 0.43003-0.72854-0.90002 0.61007  0 167.12 212.76  226.11 167.09 212.74  226.17
   3  -3   4 44277.4   502.9   1-0.40300 0.78599-0.90175 0.60361 0.15630 0.13366  0 173.19 318.48  133.93 173.11 318.42  134.02
   3  -3   4 50094.5   455.1   2-0.23056 0.61295 0.10970-0.40795 0.96686-0.67666  0 262.06 403.39   13.74 262.16 403.19   14.04
   3  -3   4 48562.2   441.8   2 0.09112 0.29142-0.87662 0.57802-0.47247 0.76221  0 160.61 246.24  139.07 160.55 246.14  139.22
   3   3  -4 39710.6   459.7   1-0.46089 0.84342 0.32174-0.02389-0.82708 0.53673  0 443.93 356.67   30.49 444.07 356.65   30.53
   3   3  -4 49915.4   491.7   2 0.13108 0.25149-0.47714 0.77553-0.86900 0.57906  0 284.15 409.84  171.89 284.17 409.56  172.05
   3   3  -4 42082.1   443.8   2-0.16341 0.54574 0.96107-0.66265 0.22279-0.51289  0 163.59 226.23  304.70 163.55 226.18  304.66
   3   3   4 53142.1   420.7   2-0.21316 0.59555-0.13303 0.43129 0.96792-0.67772  0 160.27 264.36   27.62 160.19 264.26   28.04
   3   3   4 46972.8   396.6   2-0.06533 0.44772 0.94104-0.64251-0.33192 0.62187  0 244.10 395.24  271.98 243.91 394.96  271.87
  -3  -3  -5  4260.3   200.7   1-0.23691-0.14562 0.60999-0.90783-0.75617 0.39323  0 149.47 272.32    9.26 149.54 272.33    9.12
  -3  -3  -5  4580.0   249.4   1-0.18704-0.19609-0.88736 0.58911 0.42143-0.78390  0 499.21 275.79  153.72 499.24 275.69  153.73
  -3  -3  -5  4558.7   183.7   2-0.04115-0.34131-0.94732 0.64894 0.31764-0.67999  0 498.87 269.14   92.01 499.01 269.32   91.80
  -3  -3  -5  4562.8   186.6   2 0.07590-0.45840 0.39829-0.69680-0.91411 0.55168  0 348.14  89.11  224.16 348.13  89.26  224.17
  -3  -3   5  3695.6   177.0   1-0.69897 0.31637-0.42153 0.12352-0.57772 0.94056  0 176.96 165.39   78.79 176.92 165.40   78.88
  -3  -3   5  3939.1   211.6   2 0.05663-0.43917-0.97055 0.67194-0.23417 0.59634  0 296.34  89.36  124.33 296.47  89.57  124.41
  -3  -3   5  3629.8   209.9   2-0.23113-0.15121 0.60629-0.90471 0.76092-0.39830  0 485.51 325.12  342.59 485.72 325.15  342.57
  -3   3  -5  3712.0   250.0   1-0.66168 0.27908-0.66220 0.96020-0.35168-0.01116  0 486.02 191.72   98.23 486.18 191.82   98.01
  -3   3  -5  4120.5   192.0   2 0.13181-0.51437-0.34513 0.64353-0.92925 0.56682  0 495.86 290.70  180.34 496.13 290.80  180.39
  -3   3  -5  3596.2   191.7   2-0.19309-0.18925 0.88411-0.58569 0.42551-0.78813  0 328.39  87.48  317.01 328.33  87.70  317.25
  -3   3   5  4339.7   227.6   2-0.15444-0.22802-0.56658 0.86495 0.80941-0.44706  0 281.61  92.39   54.99 281.74  92.51   54.96
  -3   3   5  3801.7   220.0   2-0.06450-0.31790 0.93961-0.64108-0.33610 0.69854  0 477.98 340.28  271.67 477.88 340.25  271.61
   3  -3  -5  4112.1   218.3   2-0.02952 0.41199-0.96566 0.66728 0.25814-0.62049  0 311.14 428.45   95.42 311.11 428.25   95.43
   3  -3  -5  4575.0   193.4   2 0.05876 0.32374 0.50587-0.80437-0.86061 0.49817  0 159.10 199.73  231.16 159.07 199.66  231.12
   3  -3   5  3603.7   185.1   1-0.38999 0.77299-0.90411 0.60597 0.17460 0.18785  0 156.88 308.79  135.24 156.84 308.76  135.32
   3  -3   5  4138.7   189.5   2-0.23546 0.61785 0.23133-0.52958 0.94395-0.58121  0 264.01 418.84    6.80 264.08 418.64    6.94
   3  -3   5  4279.9   163.3   2 0.07279 0.30975-0.93656 0.63796-0.34285 0.70503  0 149.42 240.16  131.12 149.35 240.13  131.00
   3   3  -5  3279.5   211.2   1-0.50187 0.88439 0.25198 0.04587-0.82743 0.46449  0 453.96 373.68   35.01 453.96 373.63   35.17
   3   3  -5  3739.2   169.1   2-0.15040 0.53274 0.97851-0.68009 0.14103-0.50365  0 154.92 212.50  300.00 154.84 212.49  299.77
   3   3   5  4270.8   148.6   2-0.19821 0.58060-0.27518 0.57343 0.94074-0.57800  0 148.38 257.70   36.13 148.36 257.56   36.38
   3   3   5  4060.8   149.5   2-0.09038 0.47278 0.97520-0.67667-0.20201 0.56445  0 246.19 411.41  279.85 246.00 411.10  279.70
  -3  -3  -6  7908.3   265.7   1-0.20849-0.17403 0.63831-0.93616-0.74101 0.30548  0 136.63 283.48    6.90 136.72 283.45    6.66
  -3  -3  -6  7960.2   248.3   2 0.06278-0.44528 0.48183-0.78034-0.87401 0.43909  0 343.76  69.35  229.52 343.77  69.62  229.53
  -3  -3   6  7140.3   233.2   1-0.69232 0.30972-0.53359 0.23558-0.48577 0.92118  0 168.69 151.66   87.00 168.57 151.71   87.20
  -3  -3   6  7957.3   284.2   2 0.04366-0.42620-0.98745 0.68884-0.15178 0.58639  0 283.07  74.21  119.49 283.24  74.34  119.55
  -3  -3   6  7048.6   283.7   2-0.22839-0.15394 0.64482-0.94324 0.72941-0.29427  0 501.95 347.03  339.82 502.18 347.12  339.72
  -3   3  -6  6924.8   258.1   2-0.17642-0.20592 0.93481-0.63639 0.30823-0.74338  0 324.14  68.92  310.00 324.09  69.18  309.84
  -3   3   6  8988.9   309.7   2-0.14588-0.23659-0.61040 0.90878 0.77854-0.34373  0 268.69  78.08   58.19 268.91  78.32   58.07
  -3   3   6  7166.2   302.7   2-0.08199-0.30041 0.96558-0.66705-0.24684 0.68176  0 492.95 361.61  276.99 492.98 361.68  277.04
   3  -3  -6  8074.3   292.7   2-0.01368 0.39622-0.98430 0.68569 0.17599-0.61060  0 323.84 447.40  100.38 323.78 447.15  100.38
   3  -3  -6  8335.2   263.3   2 0.04937 0.33313 0.55852-0.85703-0.82802 0.39309  0 149.59 185.26  234.75 149.54 185.27  234.72
   3  -3   6  7653.1   259.5   1-0.37416 0.75716-0.90630 0.60816 0.19650 0.23844  0 139.65 299.12  136.82 139.62 299.09  136.87
   3  -3   6  8359.9   226.5   2 0.05577 0.32677-0.97192 0.67331-0.22862 0.66323  0 136.19 232.89  124.16 136.14 232.85  124.08
   3   3  -6  6019.0   266.8   1-0.53306 0.91559 0.19307 0.10478-0.82375 0.38823  0 467.19 393.12   39.03 467.35 393.09   39.00
   3   3  -6  7674.3   280.1   2 0.12627 0.25630-0.60090 0.89930-0.78929 0.35437  0 308.06 446.42  163.57 308.09 446.09  163.58
   3   3  -6  6830.1   229.7   2-0.13853 0.52093 0.98800-0.68946 0.06834-0.50327  0 144.72 197.74  295.53 144.69 197.67  295.52
   3   3   6  8359.9   213.3   2-0.18532 0.56771-0.37572 0.67397 0.90802-0.47272  0 134.57 249.91   42.35 134.57 249.80   42.47
   3   3   6  7715.9   211.3   2-0.11028 0.49268 0.98943-0.69090-0.09416 0.52909  0 248.68 430.72  285.99 248.47 430.37  286.05
  -3  -3  -7  1424.8   159.8   1-0.18793-0.19460 0.65774-0.95559-0.72942 0.22131  0 122.30 295.29    4.85 122.08 295.33    4.91
  -3  -3  -7  1417.0   166.6   2 0.05323-0.43572 0.53715-0.83566-0.84180 0.33439  0 339.06  46.58  233.29 338.93  46.71  233.24
  -3  -3   7  1633.2   171.0   1-0.67232 0.28973-0.62919 0.33118-0.39001 0.89799  0 158.26 136.50   94.98 158.27 136.55   95.04
  -3  -3   7  1579.0   197.1   2 0.03163-0.41417-0.99651 0.69790-0.07725 0.58429  0 268.99  56.62  114.98 269.03  57.01  115.19
  -3   3  -7  1217.3   167.8   2-0.16020-0.22213 0.96599-0.66757 0.20297-0.71064  0 319.35  46.82  303.49 319.19  47.35  303.45
  -3   3   7  1506.9   170.7   2-0.13989-0.24257-0.63930 0.93768 0.75613-0.24884  0 254.91  61.80   60.03 254.93  62.00   60.20
   3  -3  -7  1580.0   201.1   2 0.00044 0.38210-0.99494 0.69633 0.10051-0.60755  0 337.98 470.15  105.04 338.02 469.73  104.83
   3  -3  -7  1574.9   180.4   2 0.04246 0.34003 0.59417-0.89268-0.80322 0.29580  0 138.29 169.58  237.37 138.37 169.47  237.24
   3  -3   7  1158.4   149.6   1-0.35595 0.73894-0.90800 0.60986 0.22100 0.28643  0 121.22 289.18  138.62 121.09 289.20  138.62
   3  -3   7  1499.2   148.4   2 0.03990 0.34264-0.99098 0.69237-0.12795 0.63499  0 121.04 224.55  117.98 120.87 224.56  118.15
   3  -3   7  1166.4   154.7   2-0.23783 0.62020 0.38613-0.68439 0.89126-0.38337  0 269.51 459.60  357.25 269.47 459.73  357.27
   3   3  -7  1144.2   187.0   1-0.55609 0.93862 0.14651 0.15134-0.81810 0.30999  0 484.28 415.82   42.05 484.48 415.85   41.99
   3   3  -7  1617.6   197.8   2 0.12433 0.25824-0.63294 0.93134-0.76415 0.25675  0 321.97 469.42  161.33 321.87 469.28  161.24
   3   3  -7  1111.9   135.4   2-0.12727 0.50966 0.99187-0.69333 0.00203-0.50944  0 133.20 181.86  292.00 132.94 181.69  291.65
   3   3   7  1567.6   140.5   2-0.17517 0.55756-0.44456 0.74281 0.87845-0.37062  0 119.12 241.30   46.85 118.78 241.23   46.80
   3   3   7  1091.6   119.0   2-0.12646 0.50885 0.99197-0.69343-0.00270 0.51012  0 251.09 453.25  291.41 251.03 453.03  291.37
  -3  -3  -8 -11.550 113.825   1-0.17447-0.20805 0.67008-0.96793-0.72149 0.14079  0 105.63 308.09    3.58 105.37 308.31    3.77
  -3  -3  -8  49.159 155.877   2 0.04665-0.42915 0.57265-0.87116-0.81847 0.23857  0 333.59  20.42  235.59 333.79  20.06  235.70
  -3  -3   8-113.091  97.456   1-0.64305 0.26005-0.70675 0.40861-0.29495 0.87488  0 146.22 119.67  102.45 146.09 119.47  102.27
  -3  -3   8  96.405 134.526   2 0.01990-0.40244-0.99976 0.70116-0.00910 0.58858  0 253.35  36.96  110.92 253.61  37.20  111.22
  -3   3  -8 120.643 163.402   2-0.14539-0.23700 0.98333-0.68479 0.10922-0.68912  0 313.89  22.12  297.71 313.81  21.80  297.91
  -3   3   8  88.305 130.470   2-0.13608-0.24639-0.65724 0.95561 0.74130-0.16154  0 239.46  42.78   61.44 239.55  43.22   61.55
   3  -3  -8 -97.479 188.668   2 0.01308 0.36946-0.99944 0.70084 0.03071-0.61018  0 354.20 496.67  108.65 354.21 496.78  108.91
   3  -3  -8 183.109 115.358   2 0.03777 0.34472 0.61734-0.91585-0.78579 0.20589  0 125.40 152.07  238.68 125.32 152.00  238.93
   3  -3   8 -42.532  99.028   1-0.33565 0.71864-0.90890 0.61076 0.24746 0.33246  0 100.83 279.24  140.35 100.90 278.91  140.53
   3  -3   8 -14.827  80.949   2 0.02493 0.35761-0.99896 0.70035-0.03828 0.61775  0 102.97 215.35  112.65 103.30 215.41  112.91
   3  -3   8 100.685 143.779   2-0.23740 0.61977 0.43092-0.72917 0.87060-0.29016  0 272.54 486.12  354.47 272.43 486.17  354.44
   3   3  -8 -55.594 189.093   2 0.12289 0.25967-0.65262 0.95101-0.74766 0.16777  0 337.21 497.33  159.48 337.32 496.78  159.77
   3   3  -8-130.362  97.814   2-0.11651 0.49891 0.99142-0.69288-0.05932-0.52058  0 119.22 164.47  288.04 119.35 164.26  288.08
   3   3   8  32.464  79.453   2-0.16803 0.55050-0.48956 0.78794 0.85562-0.27587  0 101.07 232.05   49.88 100.76 232.20   49.74
   3   3   8  74.783 103.599   2-0.13997 0.52237 0.98716-0.68862 0.07698 0.50292  0 253.17 479.40  295.98 253.44 479.49  296.02
  -3  -3  -9  84.269 128.601   1-0.16721-0.21531 0.67661-0.97446-0.71711 0.06382  0  85.80 322.62    3.50  86.25 322.75    3.16
  -3  -3   9   4.481 123.760   1-0.60597 0.22297-0.76975 0.47161-0.20074 0.85315  0 131.69 100.18  109.48 131.58  99.71  109.11
  -3  -3   9 149.642 155.790   2 0.00882-0.39136-0.99848 0.69987 0.05441 0.59751  0 236.62  14.33  107.44 236.61  14.34  107.54
  -3   3   9 -22.597 155.387   2-0.13395-0.24851-0.66688 0.96525 0.73303-0.08081  0 222.06  20.74   61.86 222.42  21.43   62.28
   3  -3  -9   6.896 132.813   2 0.03489 0.34760 0.63109-0.92960-0.77492 0.12253  0 109.72 132.41  240.01 109.97 132.50  239.94
   3  -3   9 124.195 126.299   1-0.31366 0.69666-0.90864 0.61050 0.27565 0.37677  0  78.54 267.94  142.40  78.53 267.95  142.58
   3  -3   9 162.248 103.999   2 0.01091 0.37163-0.99903 0.70043 0.04258 0.60934  0  82.87 205.52  108.32  83.02 205.43  108.23
   3   3  -9 118.723 128.749   2-0.10612 0.48851 0.98746-0.68892-0.11691-0.53548  0 103.59 145.22  284.51 103.48 144.99  284.72
   3   3   9 -79.794  87.953   2-0.16301 0.54547-0.51860 0.81698 0.83933-0.18711  0  79.95 222.05   51.69  80.05 222.43   51.68
  -3  -3 -10  1451.1   215.7   1-0.16538-0.21715 0.67824-0.97609-0.71599-0.00988  0  64.31 339.09    2.97  64.12 339.23    3.00
  -3  -3  10  1795.5   216.0   1-0.56334 0.18035-0.81894 0.52079-0.10951 0.83441  0 114.74  76.50  115.48 114.59  76.46  115.53
   3  -3 -10  1597.0   220.6   2 0.03352 0.34898 0.63755-0.93606-0.76968 0.04480  0  91.93 110.27  240.38  91.74 110.37  240.43
   3  -3  10  1487.2   203.9   1-0.28982 0.67281-0.90720 0.60906 0.30494 0.41996  0  53.32 256.19  144.79  53.23 255.98  144.76
   3  -3  10  1535.1   177.6   2-0.00255 0.38509-0.99317 0.69456 0.11666 0.60769  0  59.47 194.32  103.72  59.31 194.53  103.89
   3   3 -10  1623.4   211.5   2-0.09604 0.47843 0.98047-0.68193-0.17164-0.55323  0  85.05 123.56  281.52  84.69 123.33  281.51
   3   3  10  1642.1   178.5   2-0.16010 0.54256-0.53508 0.83345 0.82949-0.10480  0  56.29 211.96   52.95  55.99 212.02   52.79
  -3  -3 -11 210.238 180.479   1-0.16833-0.21419 0.67561-0.97346-0.71779-0.08067  0  37.81 358.61    3.55  38.12 358.51    3.25
  -3  -3  11 323.276 169.067   1-0.51633 0.13333-0.85612 0.55798-0.02168 0.81908  0  94.34  47.58  121.61  94.53  48.34  121.63
   3  -3 -11 363.748 209.613   2 0.03339 0.34911 0.63815-0.93666-0.76919-0.02818  0  69.64  84.93  240.43  69.74  84.72  240.47
   3  -3  11 360.214 178.190   1-0.26431 0.64731-0.90429 0.60615 0.33525 0.46214  0  24.21 242.54  146.95  24.01 242.51  147.03
   3  -3  11 159.860 144.713   2-0.01544 0.39798-0.98255 0.68394 0.18536 0.61142  0  31.77 182.46   99.42  31.20 182.55   99.83
   3   3 -11 294.334 184.256   2-0.08620 0.46860 0.97073-0.67220-0.22416-0.57321  0  62.16  98.65  278.39  62.06  98.44  278.38
   3   3  11 -50.389 127.616   2-0.15887 0.54133-0.54196 0.84034 0.82525-0.02809  0  26.93 201.12   53.34  27.54 200.82   53.26
  -3  -4   0  9009.0   244.9   1-0.55403 0.17151 0.15086-0.54799-0.81872 0.81872  0 166.81 231.27   41.74 166.86 231.24   41.71
  -3  -4   0  9832.9   223.5   2-0.20848-0.17391-0.18221-0.21546 0.96090-0.96090  0 472.10 276.14   31.00 472.33 276.25   30.90
  -3  -4   0  9357.4   223.2   2 0.13033-0.51290-0.50818 0.11032-0.85133 0.85133  0 334.56 107.98  169.98 334.69 108.19  170.00
  -3   4   0  7976.3   190.0   1-0.68816 0.30556-0.27975 0.67710-0.66946 0.66946  0 390.75 124.46   69.06 390.97 124.66   69.17
  -3   4   0 10294.6   248.3   2-0.23287-0.14952 0.15876 0.23891 0.95946-0.95946  0 311.36 107.28   10.90 311.49 107.50   11.20
  -3   4   0  9370.9   237.8   2 0.06813-0.45063 0.44827-0.05026-0.89130 0.89130  0 466.78 301.02  227.33 466.96 301.05  227.34
   3  -4   0  7489.8   174.3   1-0.50067 0.88366-0.86562 0.46810 0.00532-0.00532  0 220.60 374.37  123.36 220.48 374.29  123.50
   3  -4   0 10016.3   241.6   2-0.15986 0.54232-0.53644 0.13860 0.82866-0.82866  0 281.95 404.75   52.94 282.02 404.58   52.89
   3  -4   0  9468.2   217.4   2 0.13042 0.25214-0.25745-0.14041-0.95745 0.95745  0 166.80 229.35  185.71 166.71 229.29  185.66
   3   4   0  8912.6   266.6   1-0.23640 0.61893 0.61050-0.21337-0.75591 0.75591  0 469.87 291.91    9.03 469.93 291.92    9.07
   3   4   0  9547.5   215.4   2 0.08955 0.29295 0.29674 0.10127-0.95075 0.95075  0 259.71 397.76  217.92 259.85 397.51  217.92
   3   4   0  7950.1   184.1   2-0.23122 0.61355 0.60482-0.20692 0.76206-0.76206  0 164.13 250.09  342.87 164.12 250.03  342.67
  -3  -4  -1 17524.4   335.5   1-0.50433 0.12180 0.24756-0.64469-0.82727 0.75468  0 163.91 241.51   35.46 164.05 241.46   35.46
  -3  -4  -1 18589.0   284.9   2-0.18516-0.19723-0.37683-0.02084 0.90759-0.98014  0 474.72 271.88   42.59 475.04 271.98   42.53
  -3  -4  -1 19363.6   292.4   2 0.13182-0.51439-0.34705-0.05081-0.92854 0.85605  0 339.12 106.76  180.17 339.21 106.99  180.27
  -3  -4   1 17672.6   331.3   1-0.60070 0.21818 0.04327-0.44040-0.79830 0.87089  0 167.71 220.89   48.52 167.78 220.86   48.53
  -3  -4   1 21043.0   314.0   2-0.22443-0.15796 0.00429-0.40196 0.97448-0.90193  0 473.15 283.76   19.81 473.40 283.86   20.11
  -3  -4   1 19009.5   303.2   2 0.12343-0.50599-0.64547 0.24761-0.75375 0.82623  0 328.14 105.74  160.30 328.27 105.93  160.31
  -3   4  -1 17092.2   285.9   1-0.69837 0.31578-0.39229 0.78964-0.59865 0.52608  0 411.06 134.47   76.82 411.25 134.69   76.82
  -3   4  -1 19328.0   314.5   2 0.08890-0.47139 0.30196 0.09605-0.94917 0.87668  0 470.01 297.64  218.17 470.21 297.66  218.24
  -3   4   1 16773.3   225.9   1-0.64835 0.26575-0.09688 0.49422-0.75515 0.82772  0 371.03 113.94   57.27 370.95 114.19   57.36
  -3   4   1 20809.8   334.2   2-0.22389-0.15850-0.00378 0.40145 0.97461-0.90206  0 305.77 105.95   20.56 305.90 106.19   20.58
  -3   4   1 19716.6   325.3   2 0.04508-0.42758 0.58076-0.18275-0.81282 0.88531  0 466.90 307.58  236.25 467.11 307.58  236.28
   3  -4  -1 16108.9   214.4   1-0.49440 0.87739-0.86909 0.47157 0.01587-0.08836  0 236.25 387.22  124.05 236.15 387.10  124.23
   3  -4  -1 19539.2   318.6   2-0.13640 0.51886-0.65575 0.25791 0.74256-0.81503  0 287.38 407.54   61.39 287.42 407.39   61.43
   3  -4  -1 19590.9   308.6   2 0.12375 0.25882-0.09043-0.30743-0.98818 0.91570  0 166.50 224.13  195.42 166.48 224.08  195.42
   3  -4   1 15984.8   264.8   1-0.49759 0.88058-0.86735 0.46983 0.01052 0.06197  0 205.59 362.64  123.86 205.51 362.53  123.86
   3  -4   1 21184.9   323.7   2-0.18181 0.56420-0.40027 0.00260 0.89818-0.82563  0 278.04 405.44   44.10 278.15 405.19   43.99
   3  -4   1 19310.2   297.9   2 0.13185 0.25072-0.42577 0.02791-0.89517 0.96766  0 164.84 232.38  175.37 164.78 232.28  175.36
   3   4  -1 17544.5   350.5   1-0.30306 0.68558 0.53751-0.14037-0.78692 0.71433  0 468.37 305.09   15.00 468.44 305.11   15.00
   3   4  -1 18487.5   290.2   2 0.11008 0.27242 0.10358 0.29443-0.98851 0.91602  0 265.64 401.59  206.49 265.75 401.34  206.56
   3   4  -1 16860.1   266.1   2-0.22121 0.60355 0.72142-0.32353 0.65622-0.72874  0 163.24 243.97  333.79 163.24 243.94  333.60
   3   4   1 18839.7   361.6   1-0.16469 0.54721 0.67885-0.28172-0.71557 0.78816  0 474.53 278.97    2.98 474.62 278.95    2.94
   3   4   1 12721.7   229.8   2 0.06164 0.32085 0.48866-0.09065-0.87029 0.94278  0 255.45 397.71  229.91 255.51 397.36  229.98
   3   4   1 17382.5   258.5   2-0.23690 0.61926 0.46103-0.06336 0.85518-0.78262  0 162.61 253.80  352.50 162.64 253.75  352.50
  -3  -4  -2  3865.0   185.7   1-0.45513 0.07260 0.33121-0.72834-0.82654 0.68136  0 159.15 251.69   29.96 159.30 251.70   29.89
  -3  -4  -2  4501.4   171.8   2-0.15626-0.22620-0.55628 0.15845 0.81617-0.96111  0 481.31 271.08   54.17 481.59 271.19   54.25
  -3  -4  -2  4080.7   171.3   2 0.12788-0.51045-0.17663-0.22123-0.97593 0.83096  0 341.66 101.89  190.26 341.75 102.09  190.43
  -3  -4   2  3714.6   175.8   1-0.64080 0.25820-0.07156-0.32578-0.76437 0.90950  0 166.64 210.15   55.74 166.73 210.18   55.76
  -3  -4   2  4242.4   182.2   2-0.23312-0.14927 0.16470-0.56237 0.95840-0.81330  0 477.80 294.45   11.01 477.83 294.55   10.85
  -3  -4   2  3985.5   181.8   2 0.11275-0.49531-0.75363 0.35577-0.64755 0.79252  0 320.08 100.51  151.58 320.20 100.64  151.60
  -3   4  -2  3651.5   196.8   1-0.69824 0.31564-0.46252 0.85987-0.54639 0.40125  0 432.45 144.22   82.00 432.57 144.37   81.84
  -3   4  -2  4138.0   183.2   2 0.10556-0.48805 0.15273 0.24528-0.98261 0.83764  0 476.77 297.38  209.39 476.98 297.47  209.41
  -3   4  -2  4101.3   188.4   2-0.23618-0.14619 0.48855-0.09088 0.83996-0.98507  0 317.21 100.65  350.89 317.34 100.78  350.69
  -3   4   2  3880.8   112.8   1-0.52878 0.14626 0.20140 0.19573-0.82451 0.96969  0 349.72 103.05   38.51 349.62 103.22   38.46
  -3   4   2  4724.9   208.3   2-0.21193-0.17046-0.14715 0.54482 0.96614-0.82105  0 298.55 101.83   28.75 298.71 102.01   28.85
  -3   4   2  4258.0   197.5   2 0.02105-0.40355 0.69220-0.29419-0.72140 0.86637  0 470.28 317.14  244.75 470.36 317.16  244.69
   3  -4  -2  3590.5    99.1   1-0.46770 0.85070-0.88190 0.48438 0.05921-0.20419  0 253.91 401.62  127.13 253.78 401.43  127.23
   3  -4  -2   3.701  71.162   2-0.11277 0.49523-0.75353 0.35569 0.64767-0.79261  2 294.09 413.26   68.92 294.32 413.51   69.36
   3  -4  -2  4371.9   170.7   2 0.11366 0.26884 0.06123-0.45924-0.99163 0.84666  0 164.27 216.87  204.13 164.23 216.85  204.11
   3  -4   2  3392.1   157.3   1-0.48908 0.87207-0.87189 0.47437 0.02472 0.12026  0 190.66 351.71  124.75 190.63 351.58  124.84
   3  -4   2  3967.8   178.3   2-0.20037 0.58275-0.25685-0.14082 0.94545-0.80036  0 275.74 409.69   35.24 275.76 409.48   35.28
   3  -4   2  4085.6   158.3   2 0.12741 0.25515-0.57995 0.18209-0.80463 0.94960  0 160.72 233.15  165.14 160.62 233.03  165.07
   3   4  -2  3559.8   209.4   1-0.36308 0.74560 0.46359-0.06646-0.80825 0.66307  0 470.06 318.79   20.60 470.13 318.82   20.59
   3   4  -2  4024.7   176.6   2 0.12261 0.25995-0.06937 0.46723-0.99003 0.84506  0 272.97 408.90  196.56 272.96 408.55  196.62
   3   4  -2  3273.7   142.1   2-0.20908 0.59141 0.80981-0.41192 0.54818-0.69322  0 160.26 235.75  325.70 160.26 235.76  325.55
   3   4   2  4275.1   143.1   2-0.23693 0.61932 0.29980 0.09787 0.92411-0.77901  0 158.66 254.84    2.93 158.55 254.80    2.85
   3   4   2  4120.8   146.8   2 0.02951 0.35298 0.65566-0.25765-0.75448 0.89946  0 252.88 401.43  241.83 252.79 401.16  241.80
  -3  -4  -3  1860.2   150.8   1-0.40896 0.02643 0.40092-0.79806-0.81976 0.60200  0 152.57 262.05   25.08 152.72 262.04   25.09
  -3  -4  -3  1810.1   205.8   1 0.01622-0.39935-0.79215 0.39449 0.61011-0.82759  0 493.88 262.18  170.63 493.86 262.18  170.58
  -3  -4  -3  2020.3   153.9   2-0.12540-0.25707-0.70376 0.30592 0.69929-0.91669  0 492.13 273.67   65.02 492.44 273.73   65.19
  -3  -4  -3  2081.3   159.6   2 0.11910-0.50160-0.01423-0.38378-0.99278 0.77532  0 342.27  93.30  200.34 342.30  93.44  199.78
  -3  -4   3  1848.0   144.4   1-0.67162 0.28903-0.18840-0.20894-0.71654 0.93424  0 163.71 199.06   63.26 163.69 199.06   63.21
  -3  -4   3  1976.9   168.1   2-0.23681-0.14558 0.29253-0.69020 0.92647-0.70882  0 485.27 308.00    3.29 485.38 308.01    3.29
  -3  -4   3  1773.7   172.1   2 0.10023-0.48278-0.83433 0.43618-0.54208 0.75939  0 310.64  92.54  143.99 310.73  92.54  143.91
  -3   4  -3  1832.5   193.8   1-0.69540 0.31281-0.50643 0.90377-0.50984 0.29214  0 455.59 153.70   85.20 455.62 153.83   85.11
  -3   4  -3  1923.7   167.2   2 0.11718-0.49968 0.01225 0.38576-0.99303 0.77557  0 487.27 300.34  201.18 487.48 300.42  201.30
  -3   4  -3  1842.5   172.2   2-0.22963-0.15271 0.62804-0.23015 0.74353-0.96110  0 317.60  92.12  341.10 317.60  92.41  340.98
  -3   4   3  2101.2   183.8   2-0.19934-0.18305-0.26567 0.66334 0.94323-0.72559  0 289.97  95.13   35.81 290.07  95.25   35.81
  -3   4   3  1998.1   187.4   2-0.00238-0.38002 0.78101-0.38296-0.62452 0.84198  0 476.34 329.65  252.20 476.49 329.62  252.33
   3  -4  -3  2042.1    62.5   1-0.36046 0.74345-0.90766 0.51013 0.21502-0.43249  0 278.72 418.53  138.11 278.80 418.29  138.19
   3  -4  -3  2257.1   144.3   2 0.10186 0.28064 0.18928-0.58729-0.97663 0.75916  0 160.19 207.79  211.58 160.12 207.74  211.54
   3  -4   3  1774.9   134.2   1-0.47688 0.85987-0.87784 0.48032 0.04451 0.17296  0 175.53 341.32  126.23 175.49 341.21  126.21
   3  -4   3  2175.7   163.2   2-0.21455 0.59694-0.11790-0.27977 0.96957-0.75192  0 274.75 417.61   27.14 274.77 417.36   27.16
   3  -4   3  1809.7   125.7   2 0.11783 0.26473-0.70901 0.31115-0.69529 0.91274  0 154.26 231.76  155.29 154.21 231.66  155.35
   3   4  -3  1717.0   189.2   1-0.41505 0.79757 0.39212 0.00502-0.82096 0.60320  0 474.96 333.33   25.73 475.11 333.51   25.71
   3   4  -3  1720.2   163.5   2 0.12931 0.25325-0.21155 0.60941-0.96877 0.75132  0 281.65 419.12  187.99 281.55 419.03  188.38
   3   4  -3  1798.5   122.9   2-0.19577 0.57811 0.87373-0.47583 0.44528-0.66285  0 155.43 225.81  318.58 155.39 225.81  318.55
   3   4   3  2013.7   116.1   2-0.23200 0.61439 0.13837 0.25930 0.96282-0.74518  0 152.09 253.60   12.24 152.07 253.54   12.38
   3   4   3  1836.8   122.1   2-0.00325 0.38564 0.78421-0.38617-0.62048 0.83795  0 251.66 409.12  252.71 251.56 408.90  252.63
  -3  -4  -4  2766.9   177.4   1-0.36784-0.01468 0.45733-0.85446-0.80965 0.51930  0 144.27 272.72   21.29 144.34 272.67   21.05
  -3  -4  -4  2756.5   184.2   2 0.10804-0.49053 0.12614-0.52415-0.98611 0.69616  0 341.50  81.01  208.02 341.42  81.24  207.87
  -3  -4   4  2115.9   155.8   1-0.69112 0.30852-0.30283-0.09451-0.65624 0.94651  0 158.64 187.27   70.90 158.69 187.32   70.71
  -3  -4   4  2496.7   198.8   2 0.08680-0.46934-0.89302 0.49488-0.44157 0.73131  0 300.04  82.07  136.97 300.12  82.20  137.21
  -3  -4   4  2545.7   210.5   2-0.23782-0.14455 0.38948-0.78715 0.88980-0.59958  0 495.82 324.21  356.98 495.86 324.28  357.06
  -3   4  -4  2356.4   211.7   1-0.69239 0.30980-0.53304 0.93038-0.48627 0.19600  0 480.87 163.30   87.25 481.08 163.28   87.15
  -3   4  -4  2715.8   191.8   2 0.12476-0.50732-0.11013 0.50799-0.98606 0.69611  0 501.82 306.34  194.30 501.96 306.41  194.29
  -3   4  -4  2409.6   194.0   2-0.21899-0.16334 0.74088-0.34299 0.63493-0.92503  0 316.46  80.67  332.00 316.49  80.80  331.94
  -3   4   4  2753.6   205.8   2-0.18760-0.19479-0.35901 0.75668 0.91429-0.62409  0 279.97  85.90   41.43 280.12  86.12   41.44
  -3   4   4  2826.4   223.3   2-0.02431-0.35808 0.84920-0.45116-0.52750 0.81745  0 485.42 344.97  259.33 485.61 345.00  259.25
   3  -4  -4  3158.3   221.0   2-0.06968 0.45215-0.88740 0.48956 0.45570-0.74558  0 312.36 435.41   82.96 312.35 435.27   83.02
   3  -4  -4  3075.7   171.6   2 0.09015 0.29235 0.29189-0.68990-0.95219 0.66224  0 154.31 196.91  217.65 154.27 196.99  217.63
   3  -4   4  2295.8   158.9   1-0.46194 0.84494-0.88428 0.48676 0.06826 0.22170  0 159.83 331.25  127.91 159.80 331.24  127.86
   3  -4   4  2906.2   190.4   2-0.22459 0.60698 0.00655-0.40422 0.97443-0.68424  0 274.84 429.02   20.10 274.90 428.80   19.98
   3  -4   4  2715.7   149.5   2 0.10475 0.27779-0.80878 0.41064-0.57871 0.86845  0 145.75 228.42  146.39 145.64 228.39  146.48
   3   4  -4  2011.5   211.0   1-0.45840 0.84092 0.32598 0.07115-0.82681 0.53646  0 483.40 349.42   30.16 483.47 349.59   30.25
   3   4  -4 -11.647  88.445   2 0.13154 0.25102-0.32138 0.71924-0.93777 0.64783  0 291.29 432.75  182.08 291.29 432.45  181.84
   3   4  -4  2502.7   151.0   2-0.18254 0.56487 0.91885-0.52096 0.34984-0.63994  0 148.74 214.36  312.48 148.78 214.37  312.43
   3   4   4  2936.1   138.4   2-0.22361 0.60600-0.00765 0.40532 0.97465-0.68445  0 143.23 250.25   20.77 143.20 250.20   20.80
   3   4   4  2589.2   143.0   2-0.03353 0.41593 0.87385-0.47580-0.48504 0.77499  0 251.68 420.72  261.74 251.48 420.40  262.12
  -3  -4  -5 -26.032  91.306   1-0.33299-0.04954 0.50173-0.89886-0.79837 0.43543  0 134.09 283.97   17.47 134.12 283.77   17.75
  -3  -4  -5 103.791 107.450   2 0.09641-0.47890 0.23932-0.63733-0.96614 0.60370  0 339.33  65.50  214.70 339.27  65.55  214.49
  -3  -4   5  28.851  90.800   1-0.69887 0.31627-0.41048 0.01314-0.58574 0.94858  0 151.68 174.59   78.51 151.69 174.72   78.10
  -3  -4   5   6.359 120.455   2 0.07352-0.45606-0.93466 0.53652-0.34786 0.71004  0 288.62  69.37  131.05 288.41  69.58  131.31
  -3   4  -5  -8.845 118.019   2-0.20600-0.17634 0.82686-0.42897 0.52332-0.88594  0 313.93  66.16  324.07 314.12  66.02  323.81
  -3   4   5 -33.284 128.675   2-0.17735-0.20504-0.42993 0.82760 0.88527-0.52253  0 268.92  75.21   46.09 268.92  74.72   45.86
  -3   4   5 -47.859 138.739   2-0.04449-0.33791 0.89993-0.50188-0.43376 0.79620  0 497.62 363.41  265.47 497.63 363.33  265.46
   3  -4  -5 120.728 130.077   2-0.05090 0.43336-0.92947 0.53164 0.36536-0.72771  0 323.56 451.30   88.95 323.49 450.94   88.83
   3  -4  -5  30.031  84.710   2 0.07982 0.30268 0.37129-0.76930-0.92508 0.56264  0 146.82 184.86  222.40 146.75 184.67  222.48
   3  -4   5 135.725  92.411   1-0.44477 0.82777-0.89062 0.49310 0.09476 0.26770  0 143.19 321.55  129.61 143.27 321.49  129.71
   3  -4   5  -1.072 109.084   2-0.23066 0.61305 0.11177-0.50944 0.96659-0.60385  0 275.95 443.88   14.09 275.97 443.78   13.92
   3  -4   5 113.244  72.511   2 0.08978 0.29276-0.88205 0.48391-0.46252 0.82470  0 134.85 223.60  138.50 134.91 223.51  138.56
   3   4  -5 -26.445 132.215   1-0.49326 0.87579 0.26721 0.12992-0.82782 0.46489  0 495.30 367.25   34.52 495.46 367.60   34.17
   3   4  -5 102.661  77.695   2-0.16951 0.55184 0.94994-0.55205 0.26245-0.62507  0 140.64 201.43  307.47 140.51 201.55  307.04
   3   4   5  36.163  62.470   2-0.21346 0.59585-0.12986 0.52753 0.96828-0.60554  0 131.83 245.14   27.48 132.09 245.19   27.85
   3   4   5 -22.399  68.289   2-0.06005 0.44244 0.93166-0.53362-0.35832 0.72076  0 252.16 435.49  270.11 252.22 435.53  270.23
  -3  -4  -6  7174.6   269.3   1-0.30470-0.07783 0.53560-0.93274-0.78758 0.35206  0 122.18 295.60   15.17 122.03 295.53   15.15
  -3  -4  -6  7510.9   278.3   2 0.08596-0.46845 0.32581-0.72382-0.94152 0.50659  0 336.20  46.18  219.68 336.21  46.40  219.69
  -3  -4   6  6129.3   236.4   1-0.69519 0.31260-0.50863 0.11129-0.50793 0.94334  0 142.81 160.99   85.04 142.74 160.98   85.28
  -3  -4   6  7260.6   323.6   2 0.06072-0.44326-0.96340 0.56526-0.26109 0.69570  0 275.48  54.60  126.01 275.63  54.70  126.03
  -3   4  -6  6194.2   277.1   2-0.19156-0.19077 0.88970-0.49181 0.41440-0.84955  0 310.73  47.67  316.53 310.70  47.93  316.54
  -3   4   6  6997.8   309.4   2-0.16916-0.21323-0.48247 0.88014 0.85942-0.42413  0 256.43  60.82   49.23 256.46  61.01   49.26
   3  -4  -6  7660.9   333.8   2-0.03383 0.41629-0.95930 0.56147 0.28035-0.71516  0 336.25 470.37   94.11 336.20 470.19   94.09
   3  -4  -6  7936.0   278.7   2 0.07086 0.31163 0.43078-0.82879-0.89967 0.46474  0 137.52 170.76  226.24 137.49 170.78  226.22
   3  -4   6  6404.3   259.4   1-0.42575 0.80875-0.89639 0.49887 0.12339 0.31155  0 125.91 311.81  131.75 125.63 311.78  131.71
   3  -4   6  7117.7   285.5   2-0.23432 0.61671 0.19603-0.59370 0.95219-0.51690  0 277.66 462.71    9.01 277.70 462.46    9.01
   3  -4   6  6954.6   230.7   2 0.07412 0.30842-0.93307 0.53492-0.35199 0.78660  0 122.43 217.29  131.53 121.99 217.29  131.57
   3   4  -6  7375.6   315.0   2 0.13133 0.25124-0.46359 0.86145-0.87627 0.44135  0 314.52 469.26  172.80 314.45 468.97  172.93
   3   4  -6  6269.4   245.3   2-0.15697 0.53930 0.97065-0.57276 0.18219-0.61733  0 130.55 187.43  302.21 130.55 187.40  302.20
   3   4   6  7817.8   228.3   2-0.20384 0.58623-0.22580 0.62347 0.95261-0.51732  0 119.07 239.01   33.29 118.75 238.90   33.46
   3   4   6  7247.0   235.4   2-0.08252 0.46492 0.96625-0.56820-0.24404 0.67897  0 253.74 454.49  277.25 253.45 454.28  277.21
  -3  -4  -7  4441.2   243.6   1-0.28299-0.09954 0.56052-0.95765-0.77829 0.27018  0 108.06 308.35   13.08 107.90 308.23   13.18
  -3  -4  -7  4813.8   283.1   2 0.07716-0.45965 0.38961-0.78762-0.91774 0.41033  0 332.32  23.34  223.61 332.48  23.40  223.62
  -3  -4   7  4023.1   230.3   1-0.68099 0.29839-0.59594 0.19859-0.42558 0.93355  0 131.84 145.82   92.20 131.76 145.77   92.21
  -3  -4   7  4039.7   327.8   2 0.04830-0.43084-0.98234 0.58420-0.18077 0.68781  0 261.48  37.12  120.99 261.65  37.29  121.25
  -3   4  -7  3682.2   298.4   2-0.17687-0.20546 0.93371-0.53582 0.31128-0.81895  0 306.44  25.99  309.98 306.41  26.14  310.03
  -3   4   7  4816.9   280.5   2-0.16281-0.21965-0.51974 0.91757 0.83867-0.33139  0 242.75  44.87   51.71 242.64  44.95   51.76
   3  -4  -7  4612.2   350.2   2-0.01850 0.40096-0.97953 0.58170 0.20043-0.70771  0 350.78 493.93   98.77 350.76 493.63   98.89
   3  -4  -7  3600.2   236.7   2 0.06398 0.31852 0.47450-0.87251-0.87793 0.37052  0 126.38 155.14  229.00 126.33 155.20  229.05
   3  -4   7  4243.6   241.5   1-0.40497 0.78796-0.90135 0.50383 0.15350 0.35394  0 106.83 302.00  133.75 106.51 301.92  133.83
   3  -4   7  4466.5   282.4   2-0.23631 0.61870 0.26106-0.65873 0.93595-0.42811  0 279.97 485.35    5.03 279.86 485.16    5.17
   3  -4   7  4237.8   209.9   2 0.05891 0.32363-0.96663 0.56849-0.24932 0.75636  0 107.02 209.91  125.21 106.77 209.86  125.32
   3   4  -7  4705.9   333.6   2 0.13039 0.25217-0.50619 0.90405-0.85251 0.34511  0 328.24 493.21  170.32 328.19 492.95  170.13
   3   4  -7  3768.2   226.7   2-0.14521 0.52761 0.98347-0.58543 0.10814-0.61555  0 119.08 171.79  297.83 118.72 171.74  297.85
   3   4   7  4568.4   199.2   2-0.19547 0.57786-0.29819 0.69586 0.93428-0.42644  0 103.43 231.62   37.73 103.11 231.57   37.75
   3   4   7  3408.7   222.1   2-0.10151 0.48390 0.98465-0.58660-0.14200 0.64941  0 255.02 477.29  283.30 254.93 476.93  283.25
  -3  -4  -8  1218.6   174.8   1-0.26737-0.11515 0.57779-0.97492-0.77115 0.19045  0  91.73 322.09   11.65  91.46 322.27   11.79
  -3  -4   8  1111.1   160.6   1-0.65845 0.27585-0.67100 0.27366-0.34087 0.92142  0 118.65 128.35   98.80 118.53 128.58   98.83
  -3  -4   8  1038.4   190.1   2 0.03629-0.41883-0.99370 0.59556-0.10601 0.68549  0 246.30  16.95  117.00 246.21  16.93  116.86
  -3   4   8  1341.5   205.2   2-0.15816-0.22430-0.54589 0.94373 0.82279-0.24304  0 227.44  25.94   53.66 227.13  25.95   53.53
   3  -4  -8  1256.5   174.0   2 0.05882 0.32368 0.50549-0.90350-0.86082 0.28092  0 113.08 137.67  231.32 113.05 137.65  231.09
   3  -4   8  1113.1   165.4   1-0.38265 0.76564-0.90520 0.50768 0.18489 0.39503  0  85.34 291.83  136.21  85.46 291.74  136.05
   3  -4   8  1124.0   145.7   2 0.04409 0.33845-0.98701 0.58887-0.15447 0.73395  0  89.61 201.31  119.70  88.99 201.31  119.70
   3   4  -8 958.034 155.706   2-0.13358 0.51597 0.99027-0.59222 0.03900-0.61890  0 105.06 154.34  294.05 104.72 154.38  293.81
   3   4   8  1360.2   150.7   2-0.18869 0.57108-0.35095 0.74862 0.91718-0.33680  0  85.13 223.52   40.68  84.86 223.37   40.94
   3   4   8  1033.1   173.3   2-0.11812 0.50052 0.99173-0.59368-0.05020 0.63010  2 256.60 503.38  288.56 256.31 504.04  288.61
  -3  -4  -9  9087.9   368.0   1-0.25749-0.12504 0.58856-0.98569-0.76636 0.11307  0  72.54 338.11   10.92  72.32 338.04   10.92
  -3  -4   9  9182.4   343.6   1-0.62898 0.24598-0.73384 0.33632-0.25664 0.90905  0 103.21 108.74  105.19 102.99 108.74  105.08
   3  -4  -9 10509.9   390.9   2 0.05517 0.32733 0.52633-0.92434-0.84849 0.19610  0  97.45 117.62  232.53  97.14 117.71  232.50
   3  -4   9  8888.8   352.3   1-0.35879 0.74178-0.90779 0.51027 0.21723 0.43518  0  62.16 280.97  138.28  61.90 280.94  138.35
   3  -4   9  9286.1   317.9   2 0.02988 0.35266-0.99732 0.59917-0.06685 0.71876  0  68.56 191.68  114.53  68.06 191.66  114.59
   3   4  -9  8624.9   357.7   2-0.12239 0.50479 0.99214-0.59409-0.02609-0.62629  0  88.47 134.97  289.97  88.11 134.90  290.01
   3   4   9 11104.1   329.6   2-0.18361 0.56599-0.38781 0.78548 0.90327-0.25033  0  63.89 214.49   43.16  63.52 214.35   43.21
  -3  -4 -10 -59.239 163.243   1-0.25263-0.12989 0.59366-0.99079-0.76403 0.03816  0  49.65 356.30   10.60  49.79 356.24   10.49
  -3  -4  10-134.617 168.135   1-0.59326 0.21026-0.78641 0.38889-0.17206 0.89697  0  84.51  85.56  111.48  84.30  85.27  111.14
   3  -4 -10  95.470 185.758   2 0.05290 0.32960 0.53898-0.93700-0.84065 0.11578  0  78.11  95.01  233.39  77.98  94.73  233.37
   3  -4  10  -4.923 145.582   1-0.33341 0.71640-0.90894 0.51142 0.25033 0.47457  0  35.14 269.13  140.49  35.05 269.21  140.74
   3  -4  10 281.276 145.388   2 0.01588 0.36666-0.99977 0.60163 0.01469 0.70965  0  43.59 180.89  109.57  43.32 180.85  109.84
   3   4 -10  10.580 166.834   2-0.11142 0.49382 0.98989-0.59184-0.08780-0.63708  0  68.24 112.48  286.45  68.28 112.73  286.42
   3   4  10  48.178 124.391   2-0.18004 0.56243-0.41198 0.80965 0.89323-0.16774  0  38.77 204.09   45.07  38.36 204.45   44.73
  -3  -5   0  99.966  86.043   1-0.59331 0.21079 0.06160-0.55802-0.80261 0.80261  0 143.09 241.17   47.44 143.35 241.19   47.38
  -3  -5   0  17.581  97.883   2-0.20232-0.18007-0.23999-0.25710 0.94946-0.94946  2 503.71 301.67   34.54 505.65 301.66   34.28
  -3  -5   0  18.363 102.294   2 0.13061-0.51318-0.49628-0.00105-0.85828 0.85828  0 321.39  78.92  170.75 321.71  79.02  170.79
  -3   5   0  -9.517  95.089   1-0.65076 0.26816-0.10559 0.60227-0.75191 0.75191  0 415.69 101.23   57.36 415.77 101.14   57.91
  -3   5   0 -52.933 106.255   2-0.23496-0.14743 0.21488 0.28221 0.94796-0.94796  0 294.00  81.64    7.49 294.15  81.69    7.91
  -3   5   0  -6.691 110.851   2 0.06814-0.45064 0.44818 0.04933-0.89134 0.89134  0 494.77 330.90  227.06 495.11 331.08  227.34
   3  -5   0   0.984  62.759   1-0.55668 0.93967-0.82511 0.32821-0.09643 0.09643  0 202.31 390.34  116.42 202.27 390.22  116.45
   3  -5   0 -38.977  62.830   2 0.13113 0.25143-0.29493-0.20239-0.94648 0.94648  0 149.07 208.86  183.46 149.03 208.74  183.43
   3   5   0 -36.386  92.903   2 0.08539 0.29711 0.33014 0.16737-0.94006 0.94006  0 269.86 429.00  219.50 269.97 428.77  219.95
   3   5   0  -6.392  56.442   2-0.23299 0.61532 0.57474-0.07737 0.78447-0.78447  0 143.90 232.81  344.63 143.80 232.70  344.83
  -3  -5  -1 14118.5   331.2   1-0.55584 0.17331 0.14705-0.64347-0.81818 0.74559  0 141.26 251.83   41.94 141.39 251.76   41.96
  -3  -5  -1 14835.4   317.1   2 0.13194-0.51451-0.36846-0.12887-0.92023 0.84775  0 325.99  77.06  179.10 326.11  77.31  178.95
  -3  -5   1 13630.5   325.5   1-0.62775 0.24515-0.03108-0.46560-0.77779 0.85036  0 143.28 230.58   53.00 143.40 230.53   53.21
  -3  -5   1 14609.9   320.6   2 0.12570-0.50827-0.61163 0.11430-0.78109 0.85358  0 315.55  77.39  163.03 315.73  77.58  162.80
  -3   5  -1 12621.7   277.9   1-0.67893 0.29634-0.22414 0.72082-0.69915 0.62658  0 436.44 111.35   65.47 436.57 111.61   65.52
  -3   5  -1 14858.5   337.8   2 0.08544-0.46793 0.32977 0.16774-0.94019 0.86770  0 498.78 327.84  220.01 498.97 327.87  219.93
  -3   5   1 13109.3   246.1   1-0.59365 0.21113 0.06078 0.43564-0.80242 0.87501  0 395.57  89.62   47.28 395.74  89.96   47.43
  -3   5   1 15355.3   340.8   2-0.22921-0.15318 0.08305 0.41403 0.96983-0.89728  0 288.75  80.80   15.57 288.93  81.04   15.58
  -3   5   1 14287.7   337.6   2 0.04919-0.43169 0.55945-0.06193-0.82741 0.89989  0 494.48 337.29  234.83 494.64 337.29  234.78
   3  -5  -1 10696.0   209.0   1-0.56290 0.94590-0.81935 0.32245-0.10864 0.03615  0 216.83 403.84  115.55 216.82 403.66  115.59
   3  -5  -1 14819.9   308.1   2 0.12717 0.25540-0.16061-0.33672-0.97879 0.90631  0 149.20 204.00  191.33 149.19 203.95  191.36
   3  -5   1 11355.0   253.1   1-0.54662 0.92961-0.83385 0.33695-0.07680 0.14929  0 187.92 378.09  117.82 187.91 377.99  117.80
   3  -5   1   9.420  86.752   2-0.18045 0.56284-0.40919-0.08790 0.89443-0.82188  2 293.30 436.22   44.98 293.45 436.09   44.55
   3  -5   1 15067.9   307.2   2 0.13181 0.25076-0.42988-0.06744-0.89321 0.96570  0 146.91 211.71  175.16 146.88 211.62  175.10
   3   5  -1 14310.7   307.9   2 0.10287 0.27962 0.17943 0.31808-0.97838 0.90589  0 275.53 432.31  211.09 275.63 432.03  210.97
   3   5  -1 12857.3   271.0   2-0.22571 0.60805 0.67663-0.17927 0.70087-0.77340  0 143.30 227.25  337.21 143.40 227.23  337.25
   3   5   1 13885.7   291.3   2 0.06306 0.31943 0.48007 0.01744-0.87496 0.94745  0 265.46 429.24  229.21 265.59 428.95  229.41
   3   5   1 13611.0   268.7   2-0.23695 0.61932 0.45812 0.03897 0.85672-0.78417  0 142.00 236.26  352.71 142.05 236.24  352.69
  -3  -5  -2  2241.7   172.2   1-0.51732 0.13480 0.22341-0.71983-0.82611 0.68094  0 137.27 262.32   37.27 137.57 262.37   37.04
  -3  -5  -2  2051.1   197.5   2 0.12984-0.51240-0.23609-0.26124-0.96302 0.81805  0 328.94  72.04  186.84 328.97  72.26  186.93
  -3  -5   2  1821.1   166.3   1-0.65693 0.27433-0.12798-0.36870-0.74301 0.88815  0 141.41 219.66   59.11 141.55 219.62   59.33
  -3  -5   2  2059.2   201.4   2 0.11774-0.50030-0.70992 0.21259-0.69438 0.83935  0 308.16  72.92  155.30 308.30  73.23  155.27
  -3   5  -2  1840.9   209.9   1-0.69160 0.30901-0.30690 0.80358-0.65383 0.50869  0 458.91 121.43   70.72 458.91 121.51   70.98
  -3   5  -2  2011.8   204.1   2-0.23637-0.14600 0.48136 0.01573 0.84405-0.98916  0 299.91  73.97  351.30 300.07  74.36  351.17
  -3   5   2  1948.7   137.0   1-0.48103 0.09851 0.28828 0.20814-0.82795 0.97313  0 375.91  77.83   32.89 375.80  77.90   32.77
  -3   5   2  2100.5   207.0   2-0.22133-0.16106-0.03790 0.53499 0.97446-0.82936  0 282.06  77.55   22.52 282.21  77.67   22.55
  -3   5   2  1832.7   179.0   2 0.02892-0.41142 0.65833-0.16082-0.75217 0.89715  0 497.22 346.60  242.37 497.32 346.50  242.00
   3  -5  -2  1663.4   101.5   1-0.56289 0.94588-0.81936 0.32246-0.10862-0.03636  0 232.31 419.04  115.76 232.21 418.64  115.59
   3  -5  -2  2091.3   216.3   2-0.12322 0.50568-0.71283 0.21554 0.69042-0.83536  0 309.43 443.46   66.09 309.50 443.24   65.93
   3  -5  -2  1947.5   153.6   2 0.12048 0.26209-0.03506-0.46226-0.99210 0.84713  0 147.53 197.22  198.63 147.40 197.29  198.60
   3  -5   2  1664.1   137.7   1-0.53373 0.91672-0.84400 0.34710-0.05285 0.19784  0 173.36 366.71  119.41 173.34 366.62  119.46
   3  -5   2  73.280  94.059   2-0.19593 0.57832-0.29450-0.20259 0.93535-0.79026  0 290.39 441.06   37.99 290.77 440.53   37.53
   3  -5   2  1870.8   147.9   2 0.12858 0.25398-0.55717 0.05984-0.82038 0.96536  0 142.65 212.64  166.65 142.64 212.59  166.66
   3   5  -2  1802.3   191.2   2 0.11523 0.26727 0.03909 0.45842-0.99257 0.84759  0 282.52 438.89  202.98 282.59 438.68  202.84
   3   5  -2  1861.0   143.0   2-0.21647 0.59880 0.76140-0.26403 0.61108-0.75612  0 141.03 219.88  330.30 140.96 219.89  330.12
   3   5   2  1936.7   180.2   2 0.03787 0.34463 0.61688-0.11937-0.78614 0.93112  0 262.31 433.07  239.03 262.46 432.73  238.89
  -3  -5  -3  -3.097  80.568   1-0.48012 0.09760 0.28981-0.78623-0.82794 0.61018  0 132.08 273.06   32.68 131.85 273.22   32.67
  -3  -5  -3  61.584 115.039   2 0.12464-0.50721-0.10796-0.38936-0.98631 0.76885  0 330.32  63.70  194.44 330.30  63.73  194.41
  -3  -5   3  68.631  90.072   1-0.67931 0.29671-0.22614-0.27054-0.69814 0.91584  0 137.86 208.19   65.61 137.78 208.27   65.65
  -3  -5   3  50.089 118.468   2 0.10761-0.49015-0.78972 0.29205-0.60395 0.82126  0 299.43  66.00  148.45 299.47  65.99  148.31
  -3   5  -3  -1.703 148.004   1-0.69700 0.31440-0.36423 0.86091-0.61768 0.39997  0 483.46 131.09   74.40 483.53 131.04   74.88
  -3   5  -3   5.113 122.734   2-0.23150-0.15083 0.60019-0.10282 0.76563-0.98320  0 300.68  66.19  343.80 300.70  66.01  343.01
  -3   5   3   7.319  63.661   1-0.27157-0.11095 0.57322-0.07680-0.77309 0.99085  0 354.80  65.24   12.63 354.13  64.95   12.16
  -3   5   3  24.992 129.564   2-0.21230-0.17009-0.14328 0.64037 0.96664-0.74900  0 274.15  71.92   29.00 274.09  71.68   28.63
  -3   5   3 105.614 140.274   2 0.00844-0.39094 0.74255-0.24504-0.66974 0.88720  2 502.95 358.63  248.57 503.14 358.78  248.88
   3  -5  -3  56.973  42.800   1-0.54999 0.93299-0.83098 0.33407-0.08357-0.13390  0 250.34 436.18  117.93 249.90 435.76  117.34
   3  -5  -3 -29.474 124.147   2-0.10314 0.48561-0.78795 0.29066 0.60703-0.82444  0 317.34 452.03   72.44 317.66 452.25   72.49
   3  -5  -3-106.719  75.962   2 0.11243 0.27007 0.07617-0.57368-0.99074 0.77327  0 143.47 188.74  204.73 143.71 188.85  204.97
   3  -5   3 -22.235  77.851   1-0.51857 0.90156-0.85464 0.35774-0.02585 0.24332  0 158.32 355.55  121.66 158.26 355.93  121.34
   3  -5   3   3.826 110.419   2-0.20841 0.59080-0.18292-0.31417 0.96078-0.74314  0 289.15 448.35   30.65 289.29 448.47   30.95
   3  -5   3  -1.630  68.279   2 0.12153 0.26103-0.67006 0.17273-0.73229 0.94975  0 136.02 211.83  158.10 136.31 211.73  158.43
   3   5  -3  38.543 104.079   2 0.12338 0.25918-0.08392 0.58125-0.98880 0.77135  0 290.49 448.59  196.01 290.62 448.54  195.79
   3   5  -3  63.447  70.925   2-0.20561 0.58795 0.82888-0.33151 0.52027-0.73785  0 136.65 210.63  323.49 136.62 210.82  323.59
   3   5   3 132.828  67.129   2-0.23474 0.61713 0.20810 0.28898 0.94952-0.73188  0 131.02 237.30    7.81 131.64 237.14    8.31
   3   5   3  54.168 107.119   2 0.01110 0.37140 0.73237-0.23486-0.68082 0.89828  0 260.34 440.10  248.10 260.47 440.21  248.00
  -3  -5  -4 12716.4   340.0   1-0.44579 0.06327 0.34590-0.84232-0.82560 0.53525  0 124.35 284.54   28.99 124.24 284.45   28.90
  -3  -5  -4 13819.5   341.6   2 0.11748-0.49998 0.00814-0.50566-0.99304 0.70309  0 330.22  51.52  201.09 330.21  51.74  201.07
  -3  -5   4 11410.4   320.3   1-0.69337 0.31078-0.32289-0.17379-0.64419 0.93446  0 132.03 196.34   72.23 132.10 196.33   72.05
  -3  -5   4 12371.9   350.4   2 0.09649-0.47903-0.85299 0.35531-0.51293 0.80267  0 289.29  56.20  142.00 289.45  56.29  141.92
  -3   5  -4 12355.9   339.0   2-0.22322-0.15912 0.70269-0.20532 0.67558-0.96567  0 300.14  54.24  335.19 300.11  54.46  335.15
  -3   5   4 14745.4   388.4   2-0.20327-0.17911-0.23144 0.72853 0.95137-0.66118  0 264.40  63.04   33.76 264.58  63.19   33.78
   3  -5  -4 11177.0   118.9   1-0.48860 0.87160-0.87213 0.37523 0.02551-0.31547  0 275.64 456.83  124.71 275.98 456.58  124.89
   3  -5  -4 13925.4   129.1   1-0.09934 0.48247-0.85463 0.35755 0.50964-0.79961  0 326.49 465.00  161.33 326.01 464.63  161.10
   3  -5  -4 13071.3   362.6   2-0.08407 0.46653-0.84897 0.35168 0.52171-0.81159  0 327.35 464.89   78.49 327.30 464.69   78.57
   3  -5  -4 13855.8   332.1   2 0.10379 0.27870 0.17058-0.66809-0.97986 0.68991  0 138.24 178.61  210.47 138.22 178.65  210.45
   3  -5   4 10606.4   295.2   1-0.50160 0.88459-0.86509 0.36819 0.00373 0.28623  0 142.48 345.78  123.37 142.41 345.71  123.39
   3  -5   4 10084.2   308.0   2-0.21794 0.60033-0.08015-0.41694 0.97267-0.68247  0 288.67 460.32   25.08 288.86 459.96   24.98
   3  -5   4 11138.4   286.5   2 0.11140 0.27116-0.76467 0.26735-0.63472 0.92466  0 128.01 209.21  150.60 127.82 209.14  150.63
   3   5  -4 11074.5   290.1   2-0.19391 0.57625 0.88100-0.38364 0.43154-0.72164  0 130.40 200.12  317.69 130.40 200.18  317.65
   3   5   4 13802.8   290.6   2-0.22959 0.61198 0.09125 0.40584 0.96900-0.67881  0 123.42 234.95   15.00 123.03 234.87   15.11
   3   5   4 12240.8   306.5   2-0.01532 0.39772 0.82294-0.32538-0.56792 0.85787  0 259.32 451.69  256.31 259.45 451.40  256.45
  -3  -5  -5  5510.0   252.2   1-0.41519 0.03267 0.39191-0.88833-0.82099 0.45805  0 114.81 296.35   25.73 114.68 296.27   25.72
  -3  -5  -5  5654.5   286.5   2 0.10972-0.49221 0.10768-0.60519-0.98811 0.62567  0 329.13  35.98  206.71 329.12  36.13  206.80
  -3  -5   5  4953.2   243.3   1-0.69894 0.31634-0.41522-0.08146-0.58230 0.94514  0 124.64 183.54   78.38 124.37 183.51   78.43
  -3  -5   5  5304.3   307.2   2 0.08442-0.46696-0.90147 0.40380-0.42452 0.78670  0 278.02  43.87  135.80 278.20  44.04  136.11
  -3   5  -5  4827.2   287.6   2-0.21282-0.16952 0.78671-0.28935 0.57948-0.94209  0 298.31  39.41  327.77 298.32  39.62  327.79
  -3   5   5  6483.2   285.9   2-0.19491-0.18748-0.30275 0.79984 0.93293-0.57019  0 253.80  52.05   37.93 253.69  52.22   38.02
   3  -5  -5  5732.0   325.8   2-0.06580 0.44826-0.89693 0.39964 0.43725-0.79960  0 338.69 480.86   84.28 338.61 480.80   84.23
   3  -5  -5  5685.0   257.8   2 0.09538 0.28711 0.24786-0.74538-0.96409 0.60165  0 130.96 166.73  215.00 130.88 166.75  215.00
   3  -5   5  4714.8   236.0   1-0.48285 0.86584-0.87501 0.37811 0.03481 0.32764  0 125.80 335.87  125.52 125.54 335.80  125.54
   3  -5   5  1456.4   172.1   2-0.22483 0.60722 0.01009-0.50717 0.97435-0.61160  0 288.94 475.69   19.69 289.27 475.27   19.78
   3  -5   5  5413.7   226.3   2 0.09914 0.28340-0.83983 0.34216-0.53371 0.89589  0 117.44 205.15  143.20 117.13 205.01  143.34
   3   5  -5  5180.0   314.7   2 0.13063 0.25194-0.26819 0.76552-0.95447 0.59204  0 310.84 479.06  184.99 310.74 478.78  185.02
   3   5  -5  4894.9   230.7   2-0.18203 0.56437 0.92028-0.42291 0.34635-0.70897  0 122.46 187.97  312.23 122.33 187.98  312.21
   3   5   5  5878.2   217.4   2-0.22334 0.60573-0.01148 0.50856 0.97467-0.61193  0 112.49 231.15   20.93 112.12 231.06   21.02
   3   5   5  5433.3   265.1   2-0.04010 0.42250 0.88975-0.39220-0.45468 0.81711  0 259.12 466.63  264.15 259.13 466.38  264.10
  -3  -5  -6  6757.0   288.0   1-0.38920 0.00667 0.42861-0.92503-0.81536 0.37984  0 103.06 309.03   23.13 103.06 308.93   23.12
  -3  -5  -6  6456.1   320.8   2 0.10183-0.48433 0.18954-0.68705-0.97658 0.54165  0 326.97  16.38  211.60 327.07  16.61  211.56
  -3  -5   6  5446.5   255.5   1-0.69587 0.31327-0.50132 0.00464-0.51424 0.94965  0 114.88 169.52   84.76 114.60 169.54   84.72
  -3  -5   6  6585.6   361.8   2 0.07232-0.45486-0.93778 0.44011-0.33961 0.77422  0 265.43  29.02  131.01 265.62  29.04  130.80
  -3   5  -6  5585.0   335.4   2-0.20061-0.18172 0.85312-0.35576 0.48160-0.91674  0 295.47  20.95  321.01 295.42  21.19  320.95
  -3   5   6  6652.7   310.2   2-0.18762-0.19476-0.35881 0.85590 0.91436-0.47907  0 241.45  38.50   41.40 241.32  38.64   41.43
   3  -5  -6  6446.3   363.8   2-0.04878 0.43125-0.93363 0.43634 0.35489-0.78970  0 351.86 501.28   89.46 351.75 501.03   89.48
   3  -5  -6  6837.9   285.3   2 0.08805 0.29444 0.30950-0.80702-0.94681 0.51189  0 122.01 153.00  218.71 121.63 153.03  218.70
   3  -5   6  5363.7   259.2   1-0.46256 0.84555-0.88403 0.38713 0.06729 0.36766  0 107.60 326.04  127.74 107.30 326.04  127.80
   3  -5   6  76.250 143.007   2-0.22932 0.61171 0.08637-0.58345 0.96951-0.53422  0 290.60 494.35   15.02 290.41 494.64   15.39
   3  -5   6  6273.6   249.9   2 0.08556 0.29699-0.89756 0.39989-0.43251 0.86712  0 104.60 199.45  136.61 104.12 199.45  136.62
   3   5  -6  6316.4   358.6   2 0.13167 0.25089-0.33211 0.82943-0.93401 0.49909  0 323.15 499.94  181.24 322.93 499.67  181.19
   3   5  -6  5986.9   263.1   2-0.16998 0.55232 0.94899-0.45163 0.26556-0.70070  0 112.54 174.24  307.20 112.30 174.19  307.23
   3   5   6  7039.0   244.4   2-0.21642 0.59881-0.09793 0.59501 0.97138-0.53609  0  99.14 226.00   25.99  98.81 225.89   26.00
   3   5   6  6114.7   297.6   2-0.06255 0.44495 0.93620-0.43864-0.34585 0.78078  0 259.22 485.56  270.96 259.27 485.34  271.01
  -3  -5  -7 11565.2   369.1   1-0.36817-0.01435 0.45690-0.95332-0.80975 0.30164  0  89.12 322.92   21.04  89.14 322.78   21.08
  -3  -5   7 10385.0   348.1   1-0.68444 0.30185-0.58001 0.08333-0.44173 0.94971  0 102.92 154.01   91.08 102.62 154.04   90.90
  -3  -5   7 11408.6   395.7   2 0.06035-0.44289-0.96408 0.46640-0.25867 0.76571  0 251.75  11.06  125.83 251.62  11.12  125.88
  -3   5   7 13199.2   426.2   2-0.18161-0.20078-0.40168 0.89877 0.89759-0.38975  0 227.41  22.11   43.99 227.27  22.18   44.08
   3  -5  -7 11785.8   370.9   2 0.08176 0.30074 0.35725-0.85476-0.93042 0.42301  0 110.57 137.24  221.63 110.23 137.34  221.61
   3  -5   7 10487.7   348.8   1-0.44078 0.82378-0.89193 0.39503 0.10081 0.40662  0  87.55 316.26  130.24  87.31 316.19  130.13
   3  -5   7 11501.1   333.5   2 0.07154 0.31100-0.93975 0.44207-0.33429 0.84134  0  88.84 192.62  130.43  88.50 192.57  130.47
   3   5  -7 10353.7   345.1   2-0.15801 0.54035 0.96917-0.47180 0.18906-0.69673  0 100.52 158.70  302.67 100.09 158.68  302.63
   3   5   7 12713.8   329.0   2-0.20994 0.59233-0.16755 0.66464 0.96325-0.45541  0  83.19 219.65   29.90  82.85 219.56   30.04
  -3  -5  -8  1558.1   201.8   1-0.35225-0.03028 0.47767-0.97409-0.80483 0.22413  0  72.55 338.41   19.60  72.61 338.22   19.56
  -3  -5   8  1607.8   210.7   1-0.66590 0.28330-0.65001 0.15333-0.36615 0.94669  0  88.42 136.59   97.04  88.11 136.51   96.89
   3  -5  -8  1834.7   221.1   2 0.07664 0.30585 0.39317-0.89068-0.91627 0.33636  0  96.67 119.25  224.09  96.35 119.34  223.85
   3  -5   8  1448.9   194.5   1-0.41764 0.80063-0.89849 0.40158 0.13527 0.44465  0  65.20 306.19  132.52  65.08 306.08  132.54
   3  -5   8  1787.5   213.3   2 0.05754 0.32500-0.96896 0.47128-0.24044 0.81992  0  70.32 184.30  124.71  69.96 184.40  124.79
   3   5  -8  1684.8   200.3   2-0.14661 0.52901 0.98229-0.48473 0.11665-0.69655  0  85.17 141.16  298.36  85.38 141.13  298.35
   3   5   8  1671.6   192.5   2-0.20429 0.58668-0.22167 0.71875 0.95348-0.37310  0  64.27 212.35   33.01  63.93 212.18   33.22
  -3  -5  -9  -0.444 159.680   1-0.34113-0.04139 0.49173-0.98814-0.80115 0.14786  0  52.75 355.93   18.55  52.99 355.83   18.51
  -3  -5   9 127.484 155.944   1-0.64122 0.25823-0.71055 0.21365-0.28975 0.94216  0  71.29 116.26  102.42  70.82 116.19  102.66
   3  -5  -9 148.542 174.617   2 0.07264 0.30986 0.41909-0.91660-0.90504 0.25265  0  79.46  98.55  225.47  79.43  98.51  225.48
   3  -5   9 -11.736 152.615   1-0.39303 0.77602-0.90361 0.40670 0.17036 0.48206  0  40.04 295.30  134.88  39.91 295.41  135.02
   3  -5   9  90.407 128.990   2 0.04358 0.33896-0.98753 0.48985-0.15130 0.80321  0  48.72 174.69  119.33  47.94 174.87  119.52
   3   5  -9 334.213 172.519   2-0.13504 0.51744 0.98969-0.49214 0.04766-0.70004  0  67.09 121.11  293.98  67.58 121.10  294.31
   3   5   9  94.054 119.805   2-0.19976 0.58215-0.26205 0.75914 0.94415-0.29122  0  40.99 203.92   35.46  41.48 203.78   35.59
  -3  -6   0  1077.7   143.4   1-0.62403 0.24144-0.02022-0.57579-0.78114 0.78114  0 116.90 251.89   52.51 116.70 251.75   52.52
  -3  -6   0  1280.7   174.4   2 0.13044-0.51300-0.50463-0.09216-0.85342 0.85342  0 308.08  45.33  170.32 308.23  45.36  170.23
  -3   6   0  1162.7   162.7   1-0.60505 0.22252 0.03214 0.56356-0.79554 0.79554  0 447.40  70.71   49.01 447.41  71.03   49.24
  -3   6   0  1243.1   185.4   2-0.23650-0.14589 0.26921 0.32729 0.93359-0.93359  0 275.38  52.15    4.65 275.60  52.06    4.68
   3  -6   0 941.634 116.069   1-0.58462 0.96762-0.79664 0.20036-0.15354 0.15354  0 180.58 409.40  112.45 180.62 409.17  112.45
   3  -6   0  1396.1   186.8   2-0.16194 0.54440-0.52473-0.07203 0.83573-0.83573  0 314.31 472.03   52.38 314.36 471.99   52.09
   3  -6   0  1216.9   141.5   2 0.13172 0.25085-0.33658-0.26021-0.93240 0.93240  0 128.77 186.80  180.72 128.52 186.78  180.91
   3   6   0  1164.7   156.9   2 0.08003 0.30246 0.36976 0.22725-0.92567 0.92567  0 280.29 465.70  222.41 280.24 465.70  222.38
   3   6   0 962.937 120.034   2-0.23322 0.61555 0.57028 0.02656 0.78765-0.78765  0 120.70 214.65  344.90 120.52 214.73  345.15
  -3  -6  -1  3127.8   209.4   1-0.59596 0.21344 0.05522-0.65092-0.80111 0.72853  0 115.55 262.94   47.98 115.44 262.83   47.78
  -3  -6  -1  3527.4   267.4   2 0.13212-0.51468-0.39995-0.19684-0.90696 0.83448  0 312.57  42.90  176.99 312.71  43.16  176.99
  -3  -6   1  3259.6   212.7   1-0.64924 0.26664-0.10026-0.49576-0.75394 0.82651  0 116.14 240.64   57.59 116.07 240.64   57.57
  -3  -6   1  3040.5   246.3   2 0.12627-0.50884-0.60212 0.00532-0.78836 0.86085  0 302.23  44.29  163.53 302.41  44.48  163.49
  -3   6  -1  2736.0   246.5   1-0.64354 0.26094-0.08055 0.67657-0.76116 0.68860  0 469.63  81.59   56.23 469.60  82.08   56.33
  -3   6  -1  2996.7   260.7   2-0.23784-0.14453 0.38142 0.21510 0.89328-0.96584  0 279.13  49.27  357.59 279.31  49.48  357.57
  -3   6   1  3243.2   210.5   1-0.54064 0.15811 0.17811 0.41759-0.82219 0.89477  0 426.49  58.57   39.91 426.61  58.97   39.96
  -3   6   1  3530.4   285.5   2-0.23289-0.14950 0.15925 0.43725 0.95937-0.88683  0 270.39  51.57   11.07 270.54  51.89   11.17
   3  -6  -1  2090.9   144.5   1-0.59371 0.97670-0.78585 0.18957-0.17306 0.10057  0 194.41 423.62  110.98 194.53 423.49  111.07
   3  -6  -1  3733.0   278.7   2-0.14538 0.52785-0.61284 0.01609 0.77672-0.84919  0 319.92 474.40   58.28 319.84 474.19   58.25
   3  -6  -1  3510.0   205.2   2 0.12975 0.25282-0.22495-0.37184-0.96569 0.89321  0 129.14 182.12  187.59 128.92 182.14  187.59
   3  -6   1  2203.2   172.8   1-0.57300 0.95599-0.80930 0.21302-0.12928 0.20177  0 166.61 396.30  113.76 166.62 396.20  114.16
   3  -6   1  3275.5   276.8   2-0.17715 0.55954-0.43120-0.16531 0.88470-0.81215  0 310.03 473.31   45.84 310.12 473.10   45.94
   3  -6   1  2890.1   197.5   2 0.13158 0.25098-0.44845-0.14835-0.88407 0.95656  0 126.25 189.64  174.00 126.15 189.66  173.91
   3   6  -1  3044.2   250.9   2 0.09546 0.28704 0.24720 0.34981-0.96425 0.89176  0 285.86 469.09  215.02 285.96 468.79  214.96
   3   6  -1  3293.1   185.0   2-0.22729 0.60962 0.65811-0.06127 0.71780-0.79032  0 120.59 209.40  338.69 120.39 209.51  338.68
   3   6   1  3458.9   240.9   2 0.06113 0.32137 0.49174 0.10528-0.86860 0.94108  0 275.52 466.48  230.17 275.62 466.14  230.18
   3   6   1  2741.8   171.9   2-0.23656 0.61893 0.47367 0.12284 0.84834-0.77578  0 118.82 218.20  351.67 118.55 218.25  351.67
  -3  -6  -2 601.967 131.061   1-0.56654 0.18402 0.12398-0.71968-0.81465 0.66948  0 112.16 274.09   43.42 112.26 274.02   43.43
  -3  -6  -2 624.588 157.341   2 0.13114-0.51371-0.29260-0.30419-0.94720 0.80223  0 315.49  37.97  183.51 315.81  37.67  183.56
  -3  -6   2 426.906 121.298   1-0.67047 0.28787-0.18316-0.41285-0.71897 0.86411  0 113.51 229.22   62.65 113.50 229.32   62.87
  -3  -6   2 664.063 171.641   2 0.11976-0.50233-0.68903 0.09224-0.71477 0.85974  0 295.28  40.63  156.81 295.24  40.65  156.95
  -3   6  -2 592.288 184.550   1-0.66655 0.28395-0.16635 0.76236-0.72667 0.58153  0 493.67  92.55   62.04 493.80  92.24   61.79
  -3   6  -2 528.266 164.859   2-0.23611-0.14626 0.49109 0.10542 0.83850-0.98361  0 281.38  43.74  350.54 281.63  43.87  350.53
  -3   6   2 623.499 127.426   1-0.43778 0.05526 0.35821 0.23749-0.82464 0.96982  0 406.53  45.50   27.97 406.53  45.57   28.05
  -3   6   2 743.250 183.142   2-0.22764-0.15475 0.05607 0.54043 0.97213-0.82703  0 263.90  48.78   17.32 264.01  48.98   17.14
   3  -6  -2 324.676  80.391   1-0.59940 0.98239-0.77861 0.18233-0.18568 0.04070  0 208.72 439.20  109.96 208.79 439.54  110.18
   3  -6  -2 493.984 174.373   2-0.12798 0.51044-0.69290 0.09615 0.70958-0.85452  0 326.84 479.67   64.42 326.73 479.88   64.32
   3  -6  -2 571.190 122.954   2 0.12522 0.25735-0.11909-0.47770-0.98496 0.83998  0 127.62 175.64  193.54 127.38 175.71  193.77
   3  -6   2 541.597 121.205   1-0.55931 0.94231-0.82271 0.22643-0.10158 0.24656  0 152.04 384.38  116.39 152.16 384.27  116.09
   3  -6   2 742.788 175.072   2-0.19069 0.57308-0.33638-0.26012 0.92222-0.77712  0 307.16 478.17   39.99 307.12 477.92   40.06
   3  -6   2 616.924 116.998   2 0.12865 0.25392-0.55568-0.04111-0.82138 0.96635  0 122.05 190.67  167.05 121.72 190.78  166.77
   3   6  -2   7.437 125.840   2 0.10765 0.27485 0.13033 0.46668-0.98561 0.84063  2 292.88 475.09  208.48 292.86 475.38  208.11
   3   6  -2 553.432 109.773   2-0.21969 0.60203 0.73511-0.13827 0.64137-0.78641  0 118.19 202.66  332.50 118.25 202.59  332.43
   3   6   2 645.917 154.813   2 0.04011 0.34239 0.60588-0.00887-0.79454 0.93952  0 272.19 470.07  237.89 272.07 470.16  238.08
   3   6   2 712.842 112.546   2-0.23785 0.62022 0.37272 0.22379 0.89694-0.75183  0 114.36 220.03  358.32 114.35 219.99  358.11
  -3  -6  -3 14693.9   379.1   1-0.53706 0.15454 0.18524-0.78094-0.82295 0.60519  0 107.22 285.65   39.53 107.12 285.55   39.51
  -3  -6  -3 16168.5   397.5   2 0.12833-0.51090-0.18809-0.40870-0.97373 0.75627  0 317.46  28.53  189.72 317.65  28.75  189.76
  -3  -6   3 14363.2   374.9   1-0.68632 0.30372-0.26710-0.32892-0.67648 0.89419  0 109.17 217.62   68.30 108.98 217.61   68.34
  -3  -6   3 14839.7   407.4   2 0.11152-0.49408-0.76378 0.16699-0.63577 0.85323  0 286.55  33.81  150.69 286.79  33.97  150.71
  -3   6  -3 14421.5   397.6   2-0.23185-0.15048 0.59309 0.00375 0.77103-0.98861  0 282.44  34.73  343.54 282.47  35.07  343.53
  -3   6   3 15491.7   260.7   1-0.27865-0.10387 0.56534 0.03036-0.77637 0.99413  0 385.64  30.47   12.88 385.77  30.76   12.80
  -3   6   3 11342.6   370.4   2-0.22144-0.16095-0.03699 0.63349 0.97447-0.75683  0 256.11  43.27   22.47 256.05  43.41   22.49
   3  -6  -3 10583.4   202.9   1-0.59988 0.98287-0.77799 0.18170-0.18676-0.03071  0 224.22 458.17  110.10 224.27 457.90  110.10
   3  -6  -3 16994.2   446.6   2-0.11020 0.49267-0.76315 0.16640 0.63675-0.85416  0 335.20 489.41   70.18 335.14 489.20   70.22
   3  -6  -3 16904.4   388.2   2 0.11963 0.26294-0.02228-0.57451-0.99257 0.77511  0 124.19 167.48  199.32 123.89 167.50  199.33
   3  -6   3 12937.4   338.3   1-0.54380 0.92680-0.83616 0.23988-0.07150 0.28897  0 136.91 373.19  117.99 136.95 373.18  118.17
   3  -6   3 15892.0   410.3   2-0.20186 0.58425-0.24382-0.35269 0.94858-0.73094  2 305.30 486.61   34.52 305.24 486.32   34.51
   3  -6   3 16233.9   366.9   2 0.12279 0.25977-0.65393 0.05714-0.74652 0.96398  0 115.52 190.28  159.67 115.19 190.23  159.67
   3   6  -3 14489.5   344.3   2-0.21070 0.59303 0.80020-0.20336 0.56150-0.77908  0 114.40 193.93  326.55 114.10 193.98  326.49
   3   6   3 16446.7   341.1   2-0.23655 0.61894 0.27181 0.32470 0.93283-0.71518  0 108.18 219.95    4.58 107.85 219.91    4.53
   3   6   3 16552.1   385.0   2 0.01743 0.36507 0.70700-0.10999-0.70700 0.92446  0 269.32 478.24  246.15 269.42 477.81  245.89
  -3  -6  -4 -15.375 104.002   1-0.50925 0.12673 0.23862-0.83431-0.82688 0.53653  0  99.51 297.98   36.61  99.99 297.61   36.05
  -3  -6  -4 106.126 164.992   2 0.12376-0.50633-0.09070-0.50609-0.98816 0.69822  0 318.49  15.82  195.39 318.29  16.22  195.40
  -3  -6   4  13.000 111.354   1-0.69602 0.31342-0.35003-0.24599-0.62693 0.91720  0 102.97 205.46   73.58 102.46 205.28   73.90
  -3  -6   4 138.164 179.978   2 0.10181-0.48435-0.82576 0.22855-0.55475 0.84449  0 276.79  24.65  144.90 276.90  24.24  144.79
  -3   6  -4 114.580 172.331   2-0.22500-0.15733 0.68436-0.08752 0.69356-0.98366  0 281.92  22.98  336.36 282.16  23.02  336.63
  -3   6   4  77.316 137.701   2-0.21456-0.16783-0.11783 0.71433 0.96958-0.67938  0 246.46  34.98   27.05 246.64  35.15   27.15
   3  -6  -4   0.727  56.996   1-0.59002 0.97302-0.79032 0.19404-0.16511-0.12485  0 243.70 480.10  112.21 242.90 479.51  111.64
   3  -6  -4  40.522 194.018   2-0.09256 0.47502-0.82294 0.22619 0.56053-0.85041  2 345.22 502.69   76.07 345.20 502.36   75.87
   3  -6  -4  85.167 112.529   2 0.11353 0.26897 0.06285-0.65986-0.99154 0.70159  0 118.38 157.34  204.43 118.40 157.48  204.20
   3  -6   4  42.086 106.351   1-0.52650 0.90949-0.84924 0.25296-0.03995 0.32992  0 120.67 362.86  120.60 120.75 362.63  120.36
   3  -6   4  51.117  99.562   2 0.11439 0.26817-0.74009 0.14330-0.66271 0.95265  0 106.81 188.12  152.86 106.45 188.02  152.77
   3   6  -4  -8.696 170.398   2 0.12254 0.26003-0.06814 0.66493-0.99012 0.70018  0 309.81 499.47  197.05 310.25 499.35  196.69
   3   6  -4   9.116 100.052   2-0.20052 0.58285 0.85356-0.25672 0.48086-0.77096  0 108.01 183.37  320.85 107.95 183.71  320.90
   3   6   4  66.030  86.775   2-0.23357 0.61596 0.17591 0.42060 0.95630-0.66610  0  99.23 218.35   10.16  99.09 218.36   10.20
   3   6   4 137.274 156.652   2-0.00543 0.38783 0.79160-0.19453-0.61102 0.90097  0 267.83 488.90  253.19 267.63 489.41  253.33
  -3  -6  -5  1834.9   211.0   1-0.48366 0.10114 0.28380-0.87950-0.82797 0.46503  0  90.56 310.58   33.28  90.70 310.46   33.07
  -3  -6   5  1831.0   214.8   1-0.69898 0.31638-0.43030-0.16572-0.57120 0.93405  0  93.87 191.97   79.46  93.80 192.07   79.51
  -3  -6   5  1625.7   243.6   2 0.09120-0.47374-0.87627 0.27906-0.47311 0.83528  0 265.84  11.66  138.99 265.75  11.79  139.26
  -3   6  -5  1678.6   246.9   2-0.21628-0.16605 0.76276-0.16592 0.60944-0.97206  2 280.66   7.41  329.95 280.65   7.39  330.00
  -3   6   5  2487.1   278.5   2-0.20807-0.17432-0.18620 0.78270 0.96023-0.59748  0 235.82  23.80   31.25 235.68  24.13   31.14
   3  -6  -5  2187.1   224.6   2 0.10716 0.27534 0.13555-0.73257-0.98496 0.62252  0 111.21 145.59  208.43 110.98 145.57  208.41
   3  -6   5  1879.1   208.7   1-0.50772 0.89071-0.86150 0.26521-0.00673 0.36918  0 103.42 352.46  122.65 103.23 352.51  122.66
   3  -6   5  1889.9   206.6   2 0.10417 0.27837-0.81226 0.21505-0.57391 0.93609  0  95.42 184.38  145.95  95.39 184.30  146.14
   3   6  -5  1842.7   202.9   2-0.18969 0.57203 0.89621-0.29937 0.40103-0.76365  0 100.12 171.81  315.71  99.71 171.77  315.67
   3   6   5  2076.2   186.1   2-0.22945 0.61184 0.08878 0.50772 0.96926-0.60652  0  88.01 215.42   15.01  87.87 215.32   15.25
   3   6   5  1625.2   217.5   2-0.02793 0.41032 0.85910-0.26203-0.51105 0.87348  2 266.63 504.50  260.32 266.38 505.11  260.38
  -3  -6  -6 260.430 137.495   1-0.46131 0.07879 0.32107-0.91676-0.82711 0.39158  0  79.63 324.23   30.49  79.13 324.39   30.58
  -3  -6   6-155.150 125.795   1-0.69544 0.31284-0.50610-0.08992-0.51013 0.94554  0  83.13 178.08   85.51  82.89 177.65   85.08
  -3   6   6 115.908 175.868   2-0.20205-0.18034-0.24234 0.83885 0.94892-0.51363  0 222.95  10.43   34.44 222.99  10.11   34.42
   3  -6  -6  61.134 140.291   2 0.10116 0.28133 0.19592-0.79294-0.97539 0.54046  0 100.73 131.46  212.05 101.30 131.59  211.93
   3  -6   6 293.482 151.306   1-0.48739 0.87038-0.87275 0.27647 0.02751 0.40743  0  84.05 342.75  124.87  84.08 342.61  125.03
   3  -6   6 177.594 123.068   2 0.09249 0.29005-0.87106 0.27385-0.48238 0.91699  0  81.38 179.11  139.54  81.78 179.09  139.87
   3   6  -6  56.241 122.344   2-0.17863 0.56096 0.92940-0.33256 0.32296-0.75810  0  89.67 158.02  310.52  89.23 158.03  310.76
   3   6   6  67.265 104.545   2-0.22503 0.60741 0.01294 0.58357 0.97427-0.53898  0  74.57 210.58   20.13  74.03 210.98   19.61
  -3  -6  -7  4576.8   301.1   1-0.44265 0.06013 0.35078-0.94648-0.82524 0.31713  0  64.93 339.86   28.60  65.00 339.81   28.56
  -3  -6   7  4431.4   297.4   1-0.68509 0.30249-0.57675-0.01926-0.44498 0.95296  0  69.73 161.71   90.59  69.47 161.61   90.63
   3  -6  -7  5425.1   334.0   2 0.09574 0.28675 0.24472-0.84174-0.96485 0.45744  0  89.52 115.24  214.76  89.16 115.34  214.81
   3  -6   7  3733.6   283.0   1-0.46556 0.84855-0.88280 0.28652 0.06261 0.44483  0  62.93 332.82  127.40  62.78 332.75  127.47
   3  -6   7  4948.8   287.3   2 0.07976 0.30278-0.91703 0.31982-0.39075 0.89780  0  65.66 172.44  134.04  65.23 172.44  133.98
   3   6  -7  4354.6   300.3   2-0.16721 0.54954 0.95437-0.35753 0.24743-0.75510  0  76.52 142.28  306.32  76.21 142.27  306.14
   3   6   7  5091.7   257.0   2-0.22031 0.60270-0.05108 0.64758 0.97409-0.46625  0  57.39 205.53   23.01  57.25 205.38   23.30
  -3  -6  -8 290.057 188.645   1-0.42773 0.04521 0.37341-0.96910-0.82317 0.24247  0  47.78 357.30   26.99  47.88 357.21   27.01
  -3  -6   8 568.281 193.868   1-0.66871 0.28611-0.64110 0.04508-0.37659 0.95713  0  53.48 143.68   96.43  53.11 143.38   96.09
   3  -6  -8 357.052 194.596   2 0.09122 0.29128 0.28313-0.88015-0.95473 0.37483  0  73.99  96.28  217.51  74.15  96.34  217.10
   3  -6   8 194.695 171.926   1-0.44231 0.82530-0.89144 0.29516 0.09851 0.48142  0  38.49 322.92  130.14  38.80 322.72  129.97
   3  -6   8 261.261 146.066   2 0.06665 0.31589-0.95137 0.35416-0.30074 0.88022  0  44.66 164.35  128.02  45.27 164.28  128.43
   3   6  -8 240.637 174.948   2-0.15574 0.53808 0.97227-0.37543 0.17448-0.75467  0  60.45 124.15  301.63  60.20 124.13  301.75
   3   6   8 248.685 128.562   2-0.21597 0.59836-0.10309 0.69960 0.97094-0.39056  0  36.39 198.84   25.94  36.98 198.60   26.30
  -3  -7   0 194.040 122.024   1-0.64818 0.26558-0.09629-0.59906-0.75537 0.75537  0  85.73 263.35   57.47  85.90 263.37   57.32
  -3   7   0 101.458 194.618   1-0.55598 0.17346 0.14674 0.54824-0.81814 0.81814  0 487.88  31.26   41.65 487.94  30.91   41.98
  -3   7   0  96.157 161.161   2-0.23730-0.14509 0.32263 0.37329 0.91630-0.91630  0 255.00  16.52    1.41 255.03  16.81    1.47
   3  -7   0  34.013 107.512   1-0.59688 0.97987-0.78187 0.08620-0.18005 0.18005  0 155.60 432.33  110.62 155.40 432.50  110.58
   3  -7   0 153.231 120.642   2 0.13208 0.25049-0.38066-0.31560-0.91523 0.91523  0 103.80 162.51  177.97 104.04 162.47  178.19
   3   7   0  27.884  93.353   2-0.23254 0.61488 0.58081 0.11550 0.78012-0.78012  0  92.58 195.71  344.40  93.06 195.51  344.40
  -3  -7  -1  2107.6   218.1   1-0.62748 0.24488-0.03027-0.66508-0.77805 0.70548  0  85.19 275.23   53.33  85.16 275.17   53.16
  -3  -7   1  2194.2   213.0   1-0.66644 0.28384-0.16589-0.52946-0.72687 0.79944  0  84.60 251.65   61.73  84.62 251.62   61.76
  -3   7  -1  2151.8   254.5   2-0.23759-0.14478 0.41768 0.27825 0.87698-0.94953  0 258.78  13.29  355.22 258.78  13.74  355.29
  -3   7   1  2136.3   220.5   1-0.48964 0.10711 0.27352 0.42146-0.82791 0.90050  0 465.27  17.08   33.65 465.28  17.56   33.75
  -3   7   1  2815.9   280.9   2-0.23539-0.14700 0.22899 0.46693 0.94454-0.87199  0 249.90  16.92    7.41 249.88  17.09    7.07
   3  -7  -1  1382.8   143.4   1-0.60598 0.98897-0.76973 0.07407-0.20076 0.12827  0 169.13 448.03  109.00 169.15 448.10  109.10
   3  -7  -1  2168.7   222.9   2 0.13102 0.25155-0.28620-0.41006-0.94917 0.87669  0 104.96 157.87  184.03 104.60 157.79  183.95
   3  -7   1  1420.4   163.1   1-0.58553 0.96853-0.79560 0.09994-0.15547 0.22796  0 141.41 418.39  112.05 141.33 418.51  112.32
   3  -7   1  1918.8   210.4   2 0.13111 0.25145-0.47552-0.22073-0.86988 0.94236  0 101.62 165.51  172.01 101.41 165.42  172.16
   3   7  -1  2078.0   200.1   2-0.22741 0.60974 0.65666 0.03965 0.71908-0.79161  0  93.49 190.29  338.76  93.08 190.30  338.79
   3   7   1  1901.0   195.1   2-0.23590 0.61827 0.49950 0.19643 0.83358-0.76102  0  91.02 199.00  350.02  90.84 199.12  349.96
  -3  -7  -2 16566.4   428.6   1-0.60533 0.22281 0.03140-0.72638-0.79535 0.65018  0  82.45 287.36   49.28  82.45 287.22   49.28
  -3  -7   2 16421.0   428.0   1-0.68141 0.29881-0.23764-0.45771-0.69225 0.83739  0  81.45 239.82   66.40  81.31 239.71   66.40
  -3   7  -2 18022.0   565.2   2-0.23567-0.14666 0.51102 0.18529 0.82663-0.97168  2 260.97   7.20  349.18 261.03   7.38  349.23
  -3   7   2 20564.1   482.4   2-0.23207-0.15032 0.13993 0.55599 0.96258-0.81748  0 243.41  14.11   12.12 243.30  14.38   12.29
   3  -7  -2 10858.8   267.3   1-0.61239 0.99538-0.76055 0.06488-0.21575 0.07077  0 182.88 466.02  107.98 183.05 465.78  108.03
   3  -7  -2 19624.0   445.9   2 0.12873 0.25384-0.19515-0.50111-0.97229 0.82732  0 103.33 151.31  189.32 103.11 151.30  189.35
   3  -7   2 10387.5   326.7   1-0.57226 0.95526-0.81005 0.11439-0.12778 0.27277  0 126.69 405.96  114.22 126.63 405.79  114.26
   3  -7   2 19109.9   436.4   2 0.12812 0.25445-0.56731-0.12895-0.81348 0.95845  0  96.96 166.76  166.01  96.64 166.70  165.96
   3   7  -2 16527.9   393.4   2-0.22083 0.60317 0.72531-0.02900 0.65204-0.79709  0  91.18 183.37  333.30  90.99 183.46  333.27
   3   7   2 16403.2   377.3   2-0.23761 0.61998 0.41562 0.28031 0.87795-0.73284  0  86.50 201.12  355.43  86.32 201.09  355.42
  -3  -7  -3 483.741 147.944   1-0.58269 0.20016 0.08702-0.78200-0.80803 0.59026  0  77.86 299.55   45.59  77.57 299.73   45.77
  -3  -7   3 389.069 139.039   1-0.69200 0.30940-0.31032-0.38503-0.65179 0.86950  0  75.55 227.35   71.42  75.95 227.43   71.21
  -3   7   3 410.596 174.681   2-0.22775-0.15464 0.05792 0.63800 0.97199-0.75435  2 235.37   9.21   17.17 235.20   8.85   17.03
   3  -7  -3 307.401  97.829   1-0.61515 0.99814-0.75641 0.06075-0.22235 0.00487  0 198.24 486.77  107.87 197.86 486.20  107.56
   3  -7  -3 406.130 144.015   2 0.12478 0.25778-0.11068-0.58558-0.98599 0.76853  0  99.03 142.93  193.94  99.56 142.99  194.26
   3  -7   3 594.057 148.028   1-0.55728 0.94027-0.82457 0.12891-0.09761 0.31508  0 110.87 394.15  116.40 110.97 394.07  116.36
   3  -7   3 829.891 155.300   2 0.12286 0.25971-0.65307-0.04318-0.74726 0.96472  0  89.86 166.31  159.59  89.66 166.32  159.73
   3   7  -3 426.834 134.105   2-0.21299 0.59533 0.78559-0.08927 0.58094-0.79851  0  86.89 174.78  327.99  86.74 174.92  327.90
  -3  -7  -4 184.867 142.160   1-0.56081 0.17829 0.13643-0.83141-0.81663 0.52628  0  70.64 312.95   42.50  70.52 312.95   42.63
  -3  -7   4  77.261 134.428   1-0.69800 0.31540-0.38225-0.31310-0.60554 0.89582  0  67.83 214.45   76.47  68.34 214.52   76.12
   3  -7  -4 252.604 148.384   2 0.12043 0.26214-0.03428-0.66198-0.99213 0.70219  0  94.65 132.86  199.06  93.85 132.70  198.64
   3  -7   4  59.008 137.992   1-0.54065 0.92364-0.83869 0.14302-0.06561 0.35557  0  93.99 383.36  118.61  94.00 383.14  118.58
   3  -7   4 171.425 130.936   2 0.11554 0.26702-0.73043 0.03418-0.67314 0.96308  0  81.03 164.07  153.77  80.30 164.30  153.58
   3   7  -4 438.353 144.898   2-0.20404 0.58638 0.83707-0.14076 0.50762-0.79771  0  80.67 164.68  323.01  80.29 164.67  322.72
   3   7   4 221.532 117.126   2-0.23601 0.61840 0.25184 0.44409 0.93855-0.64836  0  70.49 200.05    6.14  70.10 200.31    5.72
  -3  -7  -5  4784.0   295.7   1-0.54010 0.15758 0.17918-0.87416-0.82230 0.45937  0  61.18 327.26   39.90  61.12 327.19   39.90
  -3  -7   5  5349.5   313.9   1-0.69858 0.31598-0.45247-0.24288-0.55431 0.91715  0  58.35 200.67   80.94  58.41 200.68   81.10
   3  -7  -5  5610.2   323.8   2 0.11573 0.26677 0.03255-0.72907-0.99275 0.63031  0  86.03 120.30  202.51  85.72 120.30  202.47
   3  -7   5  4383.1   299.0   1-0.52230 0.90530-0.85214 0.15648-0.03246 0.39491  0  75.53 372.81  121.07  75.43 372.72  120.88
   3  -7   5  5073.9   296.4   2 0.10639 0.27615-0.79768 0.10093-0.59363 0.95580  0  69.03 160.79  147.58  68.39 160.68  147.56
   3   7  -5  4652.5   290.5   2-0.19419 0.57652 0.87995-0.18364 0.43356-0.79618  0  71.84 152.45  317.99  71.42 152.53  317.78
   3   7   5  6079.4   286.4   2-0.23364 0.61603 0.17765 0.51827 0.95596-0.59321  0  58.34 197.87   10.17  58.08 197.81   10.09
  -3  -7  -6  6874.1   353.2   1-0.52156 0.13903 0.21524-0.91022-0.82562 0.39010  0  49.04 343.05   37.61  49.09 342.87   37.56
  -3  -7   6  6641.7   340.4   1-0.69406 0.31146-0.51947-0.17588-0.49843 0.93384  0  46.06 185.52   86.26  45.86 185.55   86.10
   3  -7  -6  7504.6   384.5   2 0.11122 0.27128 0.09001-0.78652-0.98971 0.55479  0  75.73 105.59  205.76  75.22 105.53  205.77
   3  -7   6  6060.0   332.1   1-0.50254 0.88553-0.86455 0.16889 0.00214 0.43280  0  55.08 362.77  123.05  54.78 362.68  123.28
   3  -7   6  7455.4   342.1   2 0.09617 0.28637-0.85453 0.15778-0.51043 0.94504  0  53.93 155.58  141.70  53.52 155.47  141.75
   3   7  -6  6343.6   351.9   2-0.18389 0.56623 0.91480-0.21849 0.35962-0.79477  0  60.15 138.30  313.29  59.96 138.37  313.04
   3   7   6  7141.8   314.0   2-0.23064 0.61303 0.11125 0.58468 0.96666-0.53137  0  43.32 194.02   13.85  43.06 193.95   13.95
  -3  -7  -7 878.101 210.674   1-0.50591 0.12339 0.24469-0.93968-0.82715 0.31904  0  34.69 360.34   35.61  34.17 360.45   35.65
  -3  -7   7 649.004 195.834   1-0.68387 0.30127-0.58283-0.11252-0.43890 0.94688  0  29.74 168.24   91.39  30.36 168.67   91.13
   3  -7  -7 781.808 225.939   2 0.10698 0.27552 0.13795-0.83447-0.98464 0.47723  0  61.65  87.81  208.57  61.72  87.98  208.55
   3  -7   7 733.743 202.306   1-0.48116 0.86416-0.87583 0.18016 0.03757 0.46987  0  32.04 352.74  125.54  31.50 352.82  125.73
   3  -7   7 878.304 192.890   2 0.08454 0.29800-0.90105 0.20430-0.42540 0.93245  0  35.07 148.73  135.93  35.32 148.63  136.17
   3   7  -7 758.490 197.082   2-0.17316 0.55549 0.94226-0.24594 0.28665-0.79432  0  45.69 121.97  308.56  45.44 121.83  308.52
   3   7   7 666.884 161.884   2-0.22750 0.60989 0.05380 0.64212 0.97229-0.46445  0  24.48 189.12   16.96  24.63 188.82   17.27
  -3  -8   0  4190.4   286.8   1-0.66701 0.28441-0.16832-0.62637-0.72579 0.72579  0  49.48 276.88   61.70  49.16 276.80   61.91
   3  -8   0  3098.9   256.5   1-0.59946 0.98245-0.77854-0.01650-0.18580 0.18580  0 125.58 462.41  109.99 125.51 462.40  110.17
   3  -8   0  4967.9   313.8   2 0.13184 0.25072-0.42644-0.36928-0.89486 0.89486  0  74.02 134.61  175.37  73.79 134.54  175.32
   3   8   0  4372.3   285.9   2-0.23146 0.61379 0.60094 0.19484 0.76505-0.76505  0  59.84 174.12  343.05  59.49 174.21  342.95
  -3  -8  -1  4814.7   302.4   1-0.65208 0.26949-0.11032-0.68437-0.75008 0.67751  0  48.50 289.81   58.29  48.86 289.61   58.21
  -3  -8   1  4167.4   285.4   1-0.67985 0.29725-0.22906-0.56563-0.69666 0.76923  0  47.39 264.19   65.89  47.25 264.14   65.84
   3  -8  -1  3262.1   240.4   1-0.60780 0.99079-0.76718-0.02787-0.20498 0.13249  0 139.51 480.19  108.76 139.63 479.90  108.80
   3  -8  -1  4931.9   313.1   2 0.13181 0.25075-0.34510-0.45062-0.92926 0.85678  0  74.61 129.63  180.42  74.44 129.60  180.39
   3  -8   1  5284.0   321.3   2 0.13034 0.25223-0.50802-0.28770-0.85143 0.92391  0  71.00 137.68  169.96  70.86 137.67  170.01
   3   8  -1  4904.6   295.4   2-0.22656 0.60889 0.66661 0.12917 0.71014-0.78267  0  59.75 168.72  338.00  59.58 168.80  338.03
   3   8   1  4628.8   286.5   2-0.23494 0.61728 0.53177 0.26401 0.81365-0.74112  0  57.32 177.96  348.00  56.96 178.01  347.82
  -3  -8  -2 181.476 148.401   1-0.63594 0.25334-0.05595-0.73874-0.76971 0.62457  0  47.03 302.83   54.63  46.31 302.80   54.77
  -3  -8   2  63.138 141.009   1-0.68979 0.30719-0.29163-0.50306-0.66268 0.80782  0  44.19 251.43   69.64  43.10 251.39   69.96
   3  -8  -2  35.666 132.931   1-0.61362 0.99662-0.75871-0.03634-0.21870 0.07372  2 153.67 499.35  107.49 153.79 500.05  107.82
   3  -8  -2  54.938 161.170   2 0.13058 0.25198-0.26626-0.52946-0.95502 0.81004  0  72.65 122.89  185.43  72.84 122.77  185.14
   3  -8   2 -27.804 153.777   1-0.57651 0.95951-0.80560 0.01056-0.13651 0.28149  0  95.52 433.78  114.06  95.54 433.09  113.65
   3  -8   2  54.310 146.482   2 0.12701 0.25555-0.58756-0.20816-0.79915 0.94412  0  65.43 139.14  164.55  65.58 139.07  164.53
   3   8  -2  63.330 138.775   2-0.22060 0.60293 0.72738 0.06840 0.64981-0.79485  0  57.53 161.88  333.39  57.33 161.74  333.09
   3   8   2 -47.417 124.728   2-0.23690 0.61927 0.46065 0.33470 0.85538-0.71027  0  53.29 180.03  352.53  52.01 180.25  352.53
  -3  -8  -3  2728.3   265.7   1-0.61912 0.23652-0.00607-0.78862-0.78527 0.56757  0  41.27 316.85   51.67  41.41 316.68   51.63
  -3  -8   3  2945.6   283.0   1-0.69639 0.31379-0.35488-0.43981-0.62378 0.84149  0  36.56 238.34   74.19  36.59 238.28   74.24
   3  -8  -3  3269.9   308.1   2 0.12848 0.25409-0.19187-0.60385-0.97297 0.75552  0  69.02 113.78  189.52  68.91 113.91  189.53
   3  -8   3  2123.0   260.0   1-0.56237 0.94537-0.81985 0.02481-0.10760 0.32507  0  79.30 420.52  115.62  78.90 420.54  115.67
   3  -8   3  3471.5   319.2   2 0.12214 0.26043-0.66273-0.13299-0.73883 0.95629  0  58.07 138.75  159.13  57.80 138.72  159.00
   3   8  -3  2381.8   270.1   2-0.21352 0.59585 0.78212 0.01367 0.58541-0.80298  0  52.65 152.91  328.23  52.64 152.90  328.23
   3   8   3  3233.1   271.1   2-0.23781 0.62018 0.39028 0.40507 0.88945-0.67178  0  44.54 180.93  357.30  44.40 180.98  357.01
  -3  -8  -4 190.765 168.776   1-0.60229 0.21977 0.03922-0.83348-0.79731 0.50696  0  34.34 331.41   48.52  34.13 331.58   48.79
  -3  -8   4 194.514 171.560   1-0.69894 0.31634-0.41794-0.37675-0.58035 0.87063  0  27.57 224.53   78.58  27.54 224.52   78.62
   3  -8  -4 -59.754 174.574   2 0.12539 0.25717-0.12368-0.67204-0.98437 0.69443  0  62.25 102.58  193.49  62.52 102.88  193.50
   3  -8   4  63.532 180.566   1-0.54656 0.92955-0.83390 0.03886-0.07668 0.36664  0  60.30 409.25  117.49  60.59 409.05  117.81
   3  -8   4 -87.975 152.952   2 0.11534 0.26723-0.73190-0.06382-0.67157 0.96152  0  47.38 136.71  153.68  47.33 136.62  153.46
   3   8  -4 169.957 164.504   2-0.20539 0.58772 0.83021-0.03443 0.51823-0.80833  0  45.57 142.27  323.54  45.41 142.21  323.45
  -4   0   0 123793.    671.   1-0.25502-0.25502 0.59118-0.59118-0.76516 0.76516  0 213.36 164.95   10.77 213.26 165.08   10.70
  -4   0   0 143437.    722.   1-0.25533-0.25533-0.90295 0.90295 0.34568-0.34568  0 399.90 149.12  148.00 400.21 149.36  147.82
  -4   0  -1  12.806  52.144   1-0.15882-0.35121 0.68376-0.68376-0.71221 0.63962  0 201.78 175.99    2.44 201.99 176.05    2.46
  -4   0  -1 -14.623  72.953   1-0.30170-0.20895-0.90808 0.90808 0.29044-0.36294  0 415.70 159.70  143.54 415.81 159.95  143.67
  -4   0   1  17.496  44.772   1-0.37573-0.13430 0.44685-0.44685-0.81188 0.88447  0 223.59 153.29   21.66 223.56 153.40   21.81
  -4   0   1  50.950  65.441   1-0.20323-0.30760-0.89191 0.89191 0.40398-0.33149  0 386.28 138.07  152.45 386.48 138.14  152.33
  -4   0   1  12.934  33.872   2-0.14825-0.36171-0.59852 0.59852 0.78727-0.71480  0 396.74 145.15   57.44 397.00 145.13   57.22
  -4   0   1  -2.349  32.517   2-0.19622-0.31356 0.87191-0.87191 0.44863-0.37610  0 445.59 202.44  319.16 445.23 202.74  318.77
   4   0  -1  11.204  11.782   2 0.13206 0.37803-0.41174 0.41174-0.90168 0.82919  0 200.25 337.94  175.89 200.00 337.78  176.25
   4   0  -1  18.591  11.523   2 0.11904 0.39096-0.01332 0.01332-0.99280 0.92031  0 191.03 323.43  200.22 191.01 323.55  199.83
  -4   0  -2  36.402  86.113   1-0.34334-0.16732-0.90868 0.90868 0.23751-0.38249  0 433.25 170.27  139.45 433.40 170.17  139.81
  -4   0   2  21.552  44.578   1-0.51099 0.00096 0.23543-0.23543-0.82672 0.97189  0 232.79 140.74   36.46 232.66 140.85   36.25
  -4   0   2 -12.281  62.852   1-0.14367-0.36716-0.87293 0.87293 0.46621-0.32122  0 374.89 126.24  157.63 374.79 126.17  157.39
  -4   0   2  -1.349  49.053   2-0.10310-0.40685-0.78811 0.78811 0.60683-0.46190  0 379.76 128.58   72.46 379.54 128.62   72.50
  -4   0   2  33.303  46.026   2-0.18033-0.32945 0.92495-0.92495 0.33458-0.18953  0 459.37 224.33  311.40 459.49 224.27  311.48
   4   0  -2   7.474  30.177   2 0.10657 0.40348-0.79654 0.79654-0.59512 0.45025  0 220.05 365.48  147.57 219.81 365.54  147.66
   4   0  -2  -6.639  26.239   2 0.04482 0.46518 0.58213-0.58213-0.81186 0.66688  0 174.66 295.12  236.37 174.89 295.04  236.37
  -4   0  -3  47.546  99.050   1-0.38121-0.12944-0.90540 0.90540 0.18686-0.40434  0 452.84 180.55  136.58 453.22 180.35  136.19
  -4   0  -3 -10.001  20.182   2 0.12128-0.63137-0.04765 0.04765-0.99147 0.77402  0 446.95 172.07  197.96 446.90 172.02  197.87
  -4   0  -3 -13.590  20.643   2 0.04482-0.55481 0.58213-0.58213-0.81186 0.59440  0 428.42 150.69  237.10 428.87 150.98  236.37
  -4   0   3  29.196  42.186   1-0.63180 0.12167-0.04320 0.04320-0.77392 0.99163  0 240.26 127.37   53.94 240.24 127.31   53.97
  -4   0   3  47.505  60.840   1-0.07530-0.43554-0.84350 0.84350 0.53183-0.31435  0 365.25 112.84  162.97 365.32 113.05  163.08
  -4   0   3 -24.303  63.014   2-0.08232-0.42763-0.85402 0.85402 0.51369-0.29629  0 363.98 112.99   79.24 363.88 112.91   79.12
  -4   0   3 -30.825  59.198   2-0.17470-0.33508 0.93887-0.93887 0.29667-0.07910  0 473.89 244.62  309.46 473.95 244.85  309.13
   4   0  -3   4.002  39.613   2 0.09327 0.41678-0.86766 0.86766-0.48832 0.27102  0 233.10 384.88  140.62 233.24 384.68  140.27
   4   0  -3  44.031  37.891   2 0.01108 0.49891 0.73243-0.73243-0.68076 0.46329  0 164.37 276.83  247.70 164.37 276.69  248.01
   4   0   3 -17.348  63.722   1 0.03549 0.47535-0.77955 0.77955 0.62534-0.40786  0 177.04 320.02  172.49 177.15 320.07  172.17
  -4   0  -4  2674.2   208.6   1-0.41590-0.09476-0.89891 0.89891 0.13780-0.42777  0 475.58 190.59  132.68 475.66 190.69  132.72
  -4   0  -4  2414.7    93.3   2 0.12854-0.63863-0.55804 0.55804-0.81980 0.52986  0 475.62 192.50  166.65 475.76 192.71  166.60
  -4   0  -4  2597.4    98.8   2-0.01592-0.49394 0.82476-0.82476-0.56526 0.27531  0 414.64 121.97  256.65 414.82 122.19  256.63
  -4   0   4  2254.7    91.2   1-0.69573 0.18560-0.34635 0.34635-0.62929 0.91956  0 245.94 112.47   73.63 245.71 112.56   73.65
  -4   0   4  2587.1   116.2   1 0.00199-0.51283-0.80115 0.80115 0.59845-0.30848  0 358.53  98.11  169.62 358.47  98.39  169.41
  -4   0   4  2713.1   158.7   2-0.07205-0.43790-0.88145 0.88145 0.46674-0.17687  0 348.80  96.72   82.11 348.92  96.83   82.29
  -4   0   4  2099.2   147.8   2-0.17344-0.33634 0.94174-0.94174 0.28818 0.00191  0 489.74 265.66  308.78 489.79 265.78  308.61
   4   0  -4  2428.5   124.9   2 0.08674 0.42332-0.89324 0.89324-0.44112 0.15138  0 245.82 403.89  137.15 245.66 403.62  137.18
   4   0  -4  2412.6   118.9   2-0.00682 0.51668 0.79601-0.79601-0.60524 0.31529  0 153.93 260.12  253.78 154.01 259.93  253.76
   4   0   4  2522.4   162.0   1-0.00073 0.51156-0.80281 0.80281 0.59623-0.30626  0 163.21 310.31  169.06 163.18 310.25  169.19
  -4   0  -5  74.461 126.859   1-0.44788-0.06277-0.88954 0.88954 0.09006-0.45252  0 501.33 201.32  129.43 501.31 201.43  129.38
  -4   0  -5  -0.624  57.040   2 0.11908-0.62916-0.69635 0.69635-0.70776 0.34533  0 502.50 208.04  156.23 502.58 207.96  156.37
  -4   0  -5  -1.239  63.837   2-0.03119-0.47867 0.86778-0.86778-0.49597 0.13353  0 406.22  98.09  261.51 406.45  97.72  261.39
  -4   0   5  -2.623  40.413   1-0.67825 0.16812-0.60741 0.60741-0.41355 0.77640  0 249.09  96.17   93.65 248.72  96.34   93.18
  -4   0   5 -40.480  95.476   2-0.06744-0.44251-0.89294 0.89294 0.44510-0.08275  0 333.77  80.32   84.01 334.23  79.78   83.71
   4   0  -5  65.119  90.333   2 0.08405 0.42600-0.90275 0.90275-0.42187 0.05970  0 257.60 423.88  136.04 257.86 423.76  135.94
   4   0  -5  19.456  56.313   2-0.01643 0.52629 0.82632-0.82632-0.56296 0.20052  0 142.99 243.64  256.84 143.06 243.70  256.80
   4   0   5  50.039  82.023   1-0.02478 0.53562-0.81698 0.81698 0.57613-0.21367  0 148.38 300.43  167.34 148.13 300.48  167.22
   4   0   5   2.964  31.744   2-0.13211 0.64206-0.67495 0.67495 0.72594-0.36359  0 151.13 312.55   63.16 151.22 312.73   62.91
   4   0   5 -24.801  31.935   2-0.23751 0.74733 0.42517-0.42517 0.87340-0.51062  0 194.09 382.39  355.12 194.39 382.62  354.81
  -4   0  -6  8626.3   220.0   2-0.03582-0.47404 0.87962-0.87962-0.47432 0.03939  0 399.38  72.03  262.89 399.66  72.35  262.83
  -4   0   6  8726.1   146.7   1-0.60016 0.08950-0.77762 0.77762-0.18739 0.62233  0 248.90  78.09  110.05 248.86  78.31  110.05
  -4   0   6  9477.9   296.7   2-0.06614-0.44381-0.89611 0.89611 0.43888-0.00406  0 319.40  61.06   84.06 319.50  61.33   84.12
   4   0  -6  8445.7   161.6   1-0.17580 0.68583 0.66888-0.66888-0.72228 0.28676  0 356.37 454.53    3.88 356.31 454.31    3.88
   4   0  -6  8836.4   275.1   2 0.08359 0.42647-0.90436 0.90436-0.41851-0.01610  0 270.27 446.26  135.70 270.27 445.99  135.72
   4   0  -6  8733.2   238.6   2-0.02128 0.53115 0.84058-0.84058-0.54127 0.10634  0 131.01 227.47  258.24 131.07 227.38  258.30
   4   0   6  9775.6   298.0   1-0.03939 0.55022-0.82503 0.82503 0.56371-0.12876  0 131.79 290.59  165.99 131.80 290.61  166.03
   4   0   6  9314.1   171.6   2-0.11310 0.62305-0.75226 0.75226 0.64909-0.21427  0 132.98 299.23   69.21 132.97 299.18   69.25
   4   0   6  7742.9   162.5   2-0.23335 0.74313 0.56757-0.56757 0.78956-0.35442  0 199.53 408.19  345.33 199.59 407.93  345.34
  -4   0  -7 -68.777 112.608   2-0.03595-0.47391 0.87993-0.87993-0.47375-0.03367  0 394.19  44.51  262.58 393.93  44.74  262.86
  -4   0   7  65.627  50.874   1-0.49847-0.01218-0.86686 0.86686 0.00903 0.49841  0 246.19  57.83  123.99 246.04  58.09  123.75
  -4   0   7  -7.576 143.747   2-0.06693-0.44302-0.89418 0.89418 0.44267 0.06461  0 304.62  41.17   83.61 304.39  40.97   83.87
   4   0  -7 -10.328  75.017   1-0.25337 0.76340 0.59292-0.59292-0.76437 0.25625  0 360.32 477.46   11.10 359.72 477.75   10.55
   4   0  -7  39.609 136.181   2 0.08450 0.42556-0.90121 0.90121-0.42507-0.08198  0 283.32 471.04  136.03 283.21 471.16  136.14
   4   0  -7 104.946  87.534   2-0.02309 0.53295 0.84576-0.84576-0.53307 0.02566  0 118.35 210.58  259.08 117.71 210.59  258.87
   4   0   7  58.152 109.152   1-0.04642 0.55726-0.82883 0.82883 0.55758-0.05013  0 113.70 280.48  165.53 113.97 280.44  165.45
   4   0   7  -4.014  51.733   2-0.10514 0.61509-0.78097 0.78097 0.61565-0.10837  0 114.16 287.48   71.93 114.33 287.71   71.84
   4   0   7  34.775  62.318   2-0.22933 0.73911 0.63223-0.63223 0.74007-0.23240  0 202.97 434.18  340.42 202.84 433.98  340.67
  -4   0  -8 31446.3   464.4   2-0.03365-0.47621 0.87414-0.87414-0.48450-0.09540  0 388.76  13.36  262.04 389.10  13.74  262.15
  -4   0   8 36117.0   297.0   1-0.39619-0.11446-0.90305 0.90305 0.16592 0.41400  0 240.83  34.39  134.50 241.13  34.61  134.70
  -4   0   8 35938.6   586.2   2-0.06918-0.44077-0.88867 0.88867 0.45331 0.12645  0 288.43  17.70   82.95 288.56  18.08   83.17
   4   0  -8 31981.3   503.7   2-0.02285 0.53271 0.84506-0.84506-0.53418-0.04572  0 102.85 192.99  258.78 102.55 192.93  258.79
   4   0   8 34853.4   583.1   1-0.04741 0.55824-0.82935 0.82935 0.55671 0.02323  0  94.57 269.69  165.32  94.25 269.75  165.37
   4   0   8 32808.2   394.8   2-0.10252 0.61247-0.79011 0.79011 0.60433-0.02458  0  94.44 277.28   72.77  94.14 277.26   72.69
   4   0   8 29707.6   385.1   2-0.22686 0.73664 0.66304-0.66304 0.71338-0.13319  0 204.62 462.58  338.22 204.66 462.30  338.31
   4   0  -9-158.946 112.220   2-0.02113 0.53100 0.84015-0.84015-0.54195-0.11044  0  84.61 174.07  258.08  85.06 173.95  258.25
   4   0   9 120.469 136.397   1-0.04342 0.55426-0.82722 0.82722 0.56020 0.09223  0  72.01 258.41  165.54  72.13 258.25  165.70
   4   0   9 -53.200  68.875   2-0.10288 0.61284-0.78885 0.78885 0.60591 0.04631  0  71.79 267.48   72.57  71.64 267.35   72.57
   4   0   9  74.533 104.619   2-0.22580 0.73558 0.67566-0.67566 0.70178-0.04907  0 204.53 494.45  337.55 204.98 494.30  337.32
   4   0 -10  8105.0   343.1   2-0.01829 0.52816 0.83190-0.83190-0.55462-0.17026  0  64.62 153.18  257.34  64.54 153.09  257.38
   4   0  10  8889.6   371.0   1-0.03525 0.54609-0.82276 0.82276 0.56729 0.15764  0  47.20 245.47  166.32  46.93 245.58  166.37
   4   0  10  9003.3   273.4   2-0.10517 0.61512-0.78087 0.78087 0.61577 0.10892  0  46.14 257.82   71.87  45.94 257.77   71.83
   4   0 -11 -35.795 174.491   2-0.01462 0.52448 0.82079-0.82079-0.57104-0.22632  0  39.35 129.86  255.94  39.94 129.59  256.23
   4   0  11-114.961 157.825   1-0.02339 0.53422-0.81619 0.81619 0.57732 0.22010  0  17.27 231.18  167.58  17.63 231.21  167.33
   4   0  11   5.288 101.527   2-0.10896 0.61891-0.76777 0.76777 0.63139 0.16577  0  15.56 248.98   70.38  15.91 248.44   70.64
  -4  -1   0 -19.308  53.332   1-0.35658-0.15345 0.47211-0.57139-0.80620 0.80620  0 200.65 176.03   20.06 200.41 176.16   19.97
  -4  -1   0  -6.686  84.246   1-0.09881-0.41202-0.85440 0.75498 0.51014-0.51014  0 418.43 159.70  161.11 418.29 159.67  161.14
  -4   1   0  10.340  65.608   1-0.43871-0.07195-0.89260 0.99198 0.10394-0.10394  0 388.45 137.02  130.17 388.50 137.41  130.35
  -4   1   0 -14.875  33.731   2-0.23301-0.27684 0.16209-0.06267 0.95887-0.95887  0 399.45 144.73   11.12 399.55 144.79   11.00
  -4   1   0   1.333  31.443   2-0.07737-0.43249 0.95952-0.86001-0.27081 0.27081  0 446.27 200.36  275.93 446.29 200.63  275.60
  -4  -1  -1  64.114  63.246   1-0.27144-0.23859 0.57336-0.67265-0.77303 0.70044  0 191.53 187.31   11.81 191.54 186.87   12.15
  -4  -1  -1  45.207  82.560   1-0.16251-0.34832-0.87957 0.78016 0.44715-0.51964  0 430.92 170.56  155.54 431.09 170.86  155.81
  -4  -1   1  54.166  55.470   1-0.45267-0.05736 0.33510-0.43438-0.82631 0.89890  0 207.50 164.88   29.92 207.72 164.92   29.63
  -4  -1   1  11.642  79.439   1-0.02953-0.48130-0.81967 0.72025 0.57208-0.49958  0 408.19 147.98  167.06 407.91 147.94  166.83
  -4  -1   1  81.857  37.904   2-0.04026-0.46969-0.94885 0.84939 0.31315-0.24068  0 397.45 141.36   92.43 397.93 141.38   92.08
  -4  -1   1  67.827  35.916   2-0.23697-0.27286 0.45734-0.55676 0.85714-0.78458  0 449.75 202.85  352.89 449.70 202.98  352.74
  -4   1  -1  86.881  76.980   1-0.45422-0.05644-0.88726 0.98664 0.08031-0.15280  0 407.05 147.79  128.20 407.16 147.50  128.70
  -4   1  -1  61.453  27.693   2-0.02970-0.48016 0.86385-0.76434-0.50287 0.43038  0 442.62 188.77  260.90 442.47 188.82  260.93
  -4   1  -1  47.311  28.303   2-0.22076-0.28902 0.72596-0.62649 0.65134-0.72387  0 409.99 150.65  333.91 410.38 150.67  333.21
  -4   1   1 112.149  45.704   1-0.26703-0.24301 0.57816-0.47888-0.77099 0.84358  0 235.81 140.53   11.46 235.87 140.77   11.76
  -4   1   1  76.375  62.745   1-0.42732-0.08334-0.89596 0.99534 0.12107-0.04858  0 370.56 127.23  131.60 370.66 126.83  131.54
  -4   1   1  61.843  44.607   2-0.19531-0.31455-0.29955 0.39897 0.93388-0.86133  0 385.47 134.16   37.97 385.81 134.04   37.83
  -4   1   1  41.585  41.524   2-0.09957-0.41029 0.98327-0.88376-0.15253 0.22502  0 454.84 216.81  282.41 454.80 216.74  282.63
   4  -1  -1  92.099  27.153   2 0.05083 0.45922-0.97907 0.87954-0.19707 0.12463  0 213.81 358.07  122.56 214.10 358.23  122.21
   4  -1  -1  86.499  27.259   2 0.12088 0.38920-0.04137-0.05810-0.99180 0.91932  0 178.96 302.63  198.61 178.91 302.87  198.24
   4  -1   1  58.440  56.017   1 0.02968 0.48116-0.78340 0.68399 0.62080-0.54831  0 208.56 352.19  171.46 208.52 352.11  171.69
   4   1  -1  86.034  16.000   2 0.11085 0.39914 0.09422 0.00528-0.98936 0.91687  0 200.27 342.49  206.07 200.26 342.54  206.01
   4   1  -1  56.523  16.157   2 0.03769 0.47231 0.61777-0.51827-0.78546 0.71297  0 186.64 321.04  239.75 186.93 321.57  238.96
  -4  -1  -2  1170.4   125.0   1-0.20117-0.30886 0.64527-0.74455-0.73699 0.59182  0 181.39 197.17    6.00 181.33 197.16    6.04
  -4  -1  -2  1309.4   151.0   1-0.22055-0.29029-0.89615 0.79673 0.38506-0.53005  0 446.27 181.55  150.72 446.40 181.73  150.84
  -4  -1   2  1165.8    98.8   1-0.54980 0.03976 0.15967-0.25895-0.81990 0.96507  0 213.29 152.97   40.98 213.27 152.98   41.15
  -4  -1   2  1335.7   131.2   1 0.04432-0.55516-0.77344 0.67402 0.63232-0.48733  0 399.92 135.20  172.98 400.23 135.29  172.89
  -4  -1   2  1341.6    98.5   2-0.02679-0.48317-0.96933 0.86987 0.24429-0.09935  0 380.92 125.32   96.10 380.89 125.40   96.27
  -4  -1   2  1092.0    88.1   2-0.22440-0.28538 0.69068-0.79015 0.68746-0.54241  0 463.58 223.96  336.01 463.72 223.99  336.13
  -4   1  -2  1311.9   152.3   1-0.47181-0.03884-0.88012 0.97950 0.05266-0.19764  0 426.86 157.29  126.69 427.08 157.30  126.78
  -4   1  -2  1252.0    55.6   2 0.05814-0.56813 0.50943-0.40993-0.85855 0.71357  0 448.88 187.35  231.63 449.07 187.60  231.35
  -4   1  -2  1157.0    58.5   2-0.16539-0.34439 0.95768-0.85821 0.23557-0.38062  0 412.93 145.10  305.38 413.04 145.27  305.42
  -4   1   2  1238.8    71.8   1-0.45664-0.05339 0.32880-0.22951-0.82667 0.97184  0 250.57 127.15   30.03 250.45 127.25   30.06
  -4   1   2  1297.3    91.0   1-0.42456-0.08610-0.89671 0.99609 0.12515 0.01983  0 352.93 115.40  131.96 352.88 115.64  131.83
  -4   1   2  1395.8   103.1   2-0.15807-0.35188-0.54638 0.64584 0.82248-0.67754  0 371.54 121.37   53.49 371.63 121.54   53.57
  -4   1   2  1258.0    98.5   2-0.11353-0.39633 0.99062-0.89111-0.07603 0.22100  0 465.63 234.30  287.03 465.71 234.38  287.11
   4  -1  -2  1134.0    74.9   2 0.04594 0.46411-0.98506 0.88553-0.16596 0.02109  0 226.97 374.90  120.20 226.74 374.68  120.38
   4  -1  -2  1240.8    72.9   2 0.08449 0.42550 0.33697-0.43647-0.93772 0.79274  0 170.07 285.94  220.21 170.07 285.73  220.37
   4  -1   2  1301.3   114.1   1-0.03544 0.54627-0.82286 0.72345 0.56713-0.42215  0 194.63 341.54  166.28 194.44 341.45  166.35
   4   1  -2  1190.1    67.2   2 0.13110 0.37899-0.47626 0.57573-0.86947 0.72450  0 218.48 368.24  172.24 218.47 368.02  172.11
   4   1  -2  1277.2    65.6   2-0.02782 0.53768 0.85880-0.75929-0.51155 0.36658  0 172.37 295.58  260.22 172.36 295.48  260.34
  -4  -1  -3 10277.9   259.1   1-0.14584-0.36419 0.69499-0.79427-0.70407 0.48631  0 169.91 207.15    1.31 169.85 207.23    1.38
  -4  -1  -3 11320.8   290.5   1-0.27334-0.23732-0.90548 0.80610 0.32463-0.54210  0 464.27 192.52  146.17 464.42 192.65  146.23
  -4  -1  -3 10238.8    86.2   2 0.11337-0.62345-0.74863 0.64916-0.65323 0.43577  0 451.90 172.48  152.01 452.16 172.72  152.04
  -4  -1  -3 10648.6    87.5   2 0.12152-0.63161-0.05142-0.04805-0.99126 0.77380  0 429.28 146.12  197.32 429.37 146.20  197.66
  -4  -1   3 10232.0   201.0   1-0.63243 0.12230-0.04510-0.05424-0.77331 0.99101  0 216.96 140.15   53.92 216.87 140.21   54.09
  -4  -1   3 10303.7   205.6   2-0.02377-0.48618-0.97325 0.87379 0.22853-0.01112  0 365.40 109.53   97.07 365.34 109.86   97.22
  -4  -1   3  9257.5   194.3   2-0.21356-0.29622 0.78181-0.88128 0.58580-0.36823  0 477.94 244.29  328.23 478.14 244.46  328.25
  -4   1  -3 10054.8   265.3   1-0.49043-0.02023-0.87119 0.97057 0.02249-0.23996  0 448.63 166.88  124.78 448.81 166.98  124.68
  -4   1  -3 10281.7   136.7   2 0.11655-0.62655 0.02164 0.07787-0.99295 0.77549  0 464.68 195.20  201.96 464.89 195.44  201.84
  -4   1  -3  9730.2   136.4   2-0.13307-0.37679 0.99045-0.89094 0.03602-0.25348  0 409.04 130.16  293.50 409.27 130.37  293.63
  -4   1   3  9356.7   122.8   1-0.65286 0.14273-0.11310 0.21244-0.74899 0.96670  0 267.00 111.85   58.22 267.22 111.99   58.38
  -4   1   3 11182.0   133.7   1-0.44359-0.06707-0.89101 0.99040 0.09656 0.12091  0 333.65 103.52  130.04 333.60 103.81  129.84
  -4   1   3 11819.9   223.8   2-0.13241-0.37754-0.67362 0.77308 0.72712-0.50971  0 357.49 107.51   62.91 357.56 107.76   62.81
  -4   1   3  9378.7   202.9   2-0.12417-0.38570 0.99213-0.89262-0.01591 0.23338  0 478.50 252.89  290.84 478.54 253.09  290.60
   4  -1  -3  9753.9   185.5   2 0.04656 0.46350-0.98436 0.88483-0.16988-0.04743  0 238.87 391.47  120.65 238.62 391.25  120.61
   4  -1  -3 10611.1   190.3   2 0.05427 0.45573 0.53139-0.63089-0.84539 0.62793  0 161.18 269.96  232.96 161.15 269.87  232.85
   4  -1   3 10861.9   252.9   1-0.07830 0.58914-0.84495 0.74553 0.52908-0.31161  0 180.03 331.31  162.98 179.93 331.25  162.83
   4   1  -3 10293.2   180.0   2 0.12253 0.38755-0.65778 0.75725-0.74318 0.52572  0 231.97 387.25  159.27 231.79 387.02  159.38
   4   1  -3  9834.1   173.8   2-0.04646 0.55632 0.90432-0.80481-0.42431 0.20685  0 161.93 277.49  265.98 161.91 277.30  266.07
  -4  -1  -4  5842.6   254.3   1-0.32141-0.18925-0.90886 0.80948 0.26586-0.55582  0 485.28 203.63  141.94 485.43 203.70  141.87
  -4  -1  -4  5248.5   115.7   2 0.09058-0.60064-0.87882 0.77929-0.46847 0.17873  0 479.55 191.32  138.99 479.81 191.44  138.96
  -4  -1  -4  5658.4   119.2   2 0.06613-0.57613 0.46082-0.56032-0.88503 0.59508  0 416.86 119.01  228.07 417.02 119.18  228.15
  -4  -1   4  4519.8   146.4   1-0.68488 0.17475-0.25791 0.15858-0.68149 0.97176  0 218.25 126.34   67.74 218.15 126.41   67.73
  -4  -1   4  5682.8   195.6   2-0.02473-0.48522-0.97203 0.87257 0.23354 0.05634  0 350.37  93.58   97.00 350.45  93.78   96.92
  -4  -1   4  4612.5   180.8   2-0.20671-0.30307 0.82306-0.92254 0.52900-0.23890  0 493.86 265.22  324.28 494.12 265.36  324.20
  -4   1  -4  5104.8   237.7   1-0.50936-0.00130-0.86050 0.95988-0.00956-0.28041  0 472.77 176.59  122.49 472.87 176.71  122.47
  -4   1  -4  5341.1   132.9   2 0.13123-0.64132-0.30055 0.40001-0.94469 0.65475  0 485.30 206.24  183.06 485.53 206.42  183.10
  -4   1  -4  4977.7   135.0   2-0.11496-0.39490 0.99104-0.89152-0.06806-0.22189  0 403.48 111.20  287.47 403.63 111.47  287.57
  -4   1   4  5986.7   203.0   2-0.11594-0.39401-0.74141 0.84086 0.66097-0.37109  0 343.41  92.60   68.10 343.50  92.78   68.32
  -4   1   4  4641.7   186.8   2-0.13312-0.37674 0.99043-0.89092 0.03633 0.25362  0 493.34 272.83  293.83 493.46 272.99  293.65
   4  -1  -4  5515.1   169.4   2 0.04926 0.46079-0.98109 0.88156-0.18716-0.10258  0 250.52 409.20  121.71 250.34 408.99  121.62
   4  -1  -4  5329.1   161.4   2 0.03362 0.47638 0.63708-0.73658-0.77006 0.48011  0 151.62 254.45  240.19 151.62 254.37  240.39
   4  -1   4  5486.4   210.0   1-0.10546 0.61630-0.85733 0.75791 0.50385-0.21388  0 164.93 321.40  160.54 164.77 321.38  160.59
   4  -1   4  5423.8    98.2   2-0.21931 0.72917-0.06349-0.03593 0.97359-0.68339  0 196.94 371.20   24.09 196.90 371.09   24.02
   4  -1   4  5518.2    98.0   2-0.05744 0.56739-0.91586 0.81640 0.39737-0.10749  0 161.63 314.40   86.91 161.58 314.40   86.80
   4   1  -4  5030.1   176.5   1-0.19731 0.70734 0.64894-0.54966-0.73481 0.44446  0 394.36 409.96    5.80 394.56 409.78    5.71
   4   1  -4  4935.1   157.0   2 0.11444 0.39565-0.73969 0.83916-0.66314 0.37320  0 244.36 406.17  152.87 244.09 405.96  152.80
   4   1  -4  4980.5   151.2   2-0.05374 0.56360 0.91957-0.82006-0.38923 0.09928  0 151.58 260.82  268.10 151.56 260.67  268.30
  -4  -1  -5 21462.8   252.3   2 0.03520-0.54519 0.62965-0.72915-0.77608 0.41364  0 408.82  94.63  239.87 409.06  94.90  239.84
  -4  -1   5 18066.7   259.7   1-0.69852 0.18839-0.45435 0.35501-0.55284 0.91568  0 217.27 111.18   81.05 217.14 111.31   81.24
  -4  -1   5 21304.6   355.1   2-0.02768-0.48227-0.96812 0.86866 0.24897 0.11338  0 335.75  76.38   96.15 335.81  76.68   95.99
  -4   1  -5 20573.4   405.8   1-0.52817 0.01751-0.84805 0.94743-0.04297-0.31948  0 499.91 186.67  120.19 500.02 186.74  120.15
  -4   1  -5 17922.1   251.9   2-0.10193-0.40793 0.98494-0.88542-0.13969-0.22275  0 397.61  89.76  283.24 397.89  90.15  283.39
  -4   1   5 21834.1   359.5   2-0.10580-0.40415-0.77864 0.87810 0.61849-0.25614  0 329.31  76.18   71.56 329.41  76.45   71.63
   4  -1  -5 20416.9   344.7   2 0.05303 0.45702-0.97605 0.87651-0.21099-0.15118  0 262.14 428.73  122.76 262.18 428.47  123.03
   4  -1  -5 20770.4   324.6   2 0.01994 0.49005 0.69685-0.79635-0.71694 0.35450  0 141.11 238.94  244.91 141.13 238.86  245.06
   4  -1   5 21791.3   395.0   1-0.12121 0.63205-0.86400 0.76458 0.48869-0.12623  0 148.86 311.69  159.24 148.75 311.66  159.28
   4  -1   5 20085.2   222.7   2-0.23526 0.74512 0.22477-0.32419 0.94558-0.58284  0 201.99 393.41    7.32 201.84 393.23    7.32
   4  -1   5 20846.4   224.9   2-0.05252 0.56247-0.92620 0.82675 0.37335-0.01100  0 145.59 302.11   88.35 145.56 302.09   88.32
   4   1  -5 18419.2   279.6   1-0.26742 0.77745 0.57774-0.47846-0.77117 0.40824  0 395.71 427.75   11.91 395.91 427.56   11.80
   4   1  -5 15951.2   293.9   2 0.10891 0.40114-0.78086 0.88039-0.61514 0.25297  0 256.38 426.33  148.95 256.18 426.13  149.13
   4   1  -5 19843.8   310.7   2-0.05595 0.56582 0.92389-0.82437-0.37856 0.01612  0 140.57 244.59  269.19 140.57 244.49  268.97
   4   1   5 22011.0   201.7   2-0.18793 0.69778-0.35656 0.45598 0.91517-0.55243  0 149.26 314.57   41.20 149.16 314.32   41.29
   4   1   5 17761.2   182.8   2-0.22300 0.73278 0.70480-0.60533 0.67344-0.31082  0 191.95 384.04  335.05 192.03 383.87  334.98
  -4  -1  -6 419.624  96.615   2 0.01822-0.52822 0.70374-0.80324-0.71022 0.27530  0 402.64  69.31  245.53 402.53  69.46  245.62
  -4  -1   6 543.997  79.806   1-0.67602 0.16589-0.61584 0.51650-0.40465 0.84006  0 213.90  94.31   94.09 213.84  94.55   93.89
  -4  -1   6 620.112 139.868   2-0.03188-0.47807-0.96224 0.86278 0.27033 0.16449  0 321.05  58.23   94.62 321.06  58.12   94.70
  -4   1  -6 594.618 107.511   2-0.09125-0.41861 0.97607-0.87655-0.19741-0.23752  0 392.35  66.18  279.97 392.42  66.34  279.97
  -4   1   6 596.982 137.589   2-0.09998-0.40997-0.79877 0.89823 0.59327-0.15846  0 315.06  58.31   73.52 315.03  58.47   73.51
   4  -1  -6 579.394 132.998   2 0.05728 0.45278-0.96939 0.86985-0.23877-0.19584  0 274.01 450.76  125.00 274.41 450.35  124.69
   4  -1  -6 575.175  99.019   2 0.01135 0.49864 0.73139-0.83089-0.68187 0.24694  0 129.62 222.98  247.87 129.45 222.99  247.92
   4  -1   6 658.272 123.528   1-0.12850 0.63934-0.86693 0.76751 0.48158-0.04663  0 131.62 301.94  158.57 131.63 301.93  158.67
   4  -1   6 581.994  67.188   2-0.05380 0.56375-0.92356 0.82410 0.37967 0.05515  0 129.10 291.16   88.04 129.00 291.25   87.92
   4  -1   6 434.166  66.758   2-0.23784 0.74767 0.38156-0.48097 0.89322-0.45789  0 205.43 416.19  357.61 205.44 416.07  357.56
   4   1  -6 436.318 106.284   1-0.32846 0.83849 0.50727-0.40799-0.79674 0.36121  0 400.37 448.05   17.43 400.46 448.25   17.33
   4   1  -6 552.197 129.974   2 0.10581 0.40425-0.80224 0.90177-0.58755 0.15295  0 268.58 448.72  146.90 268.56 448.53  147.12
   4   1  -6 475.450  90.497   2-0.05536 0.56522 0.92272-0.82321-0.38148-0.05344  0 128.66 228.11  269.02 128.52 228.20  268.78
   4   1   6 482.505 121.626   1 0.05450 0.45634-0.76645 0.86586 0.63999-0.20504  0 127.99 279.62  173.74 127.86 279.57  173.73
   4   1   6 580.643  64.142   2-0.16252 0.67247-0.52141 0.62087 0.83769-0.40287  0 130.89 301.12   51.85 130.92 301.04   51.87
   4   1   6 487.063  62.743   2-0.21580 0.72558 0.76627-0.66680 0.60519-0.17005  0 196.93 409.32  329.94 197.08 409.29  329.69
  -4  -1  -7  1512.7   144.1   2 0.00949-0.51948 0.73856-0.83806-0.67412 0.16671  0 396.89  41.35  248.49 397.02  41.62  248.54
  -4  -1   7  1686.6   134.2   1-0.62880 0.11814-0.73416 0.63478-0.25618 0.76361  0 208.48  75.59  105.03 208.49  75.58  105.11
  -4  -1   7  1801.7   197.7   2-0.03680-0.47315-0.95462 0.85516 0.29555 0.21173  0 305.88  37.41   93.01 305.97  37.54   93.16
  -4   1  -7  1428.1   153.9   2-0.08173-0.42814 0.96525-0.86574-0.24820-0.25921  0 387.39  39.38  276.76 387.43  39.58  276.96
  -4   1   7  1684.7   190.1   2-0.09709-0.41286-0.80838 0.90784 0.58060-0.07331  0 300.13  38.02   74.35 300.14  38.42   74.43
   4  -1  -7  1579.4   183.0   2 0.06184 0.44821-0.96117 0.86163-0.26894-0.23810  0 287.35 475.29  126.42 287.31 475.37  126.50
   4  -1  -7  1638.4   161.1   2 0.00610 0.50376 0.75062-0.85013-0.66071 0.15329  0 116.67 206.37  249.56 116.29 206.41  249.58
   4  -1   7  1873.1   190.8   1-0.12928 0.64011-0.86724 0.76782 0.48082 0.02663  0 113.41 291.97  158.56 113.07 291.99  158.61
   4  -1   7  1666.1   118.5   2-0.05759 0.56754-0.91553 0.81607 0.39810 0.10918  0 111.43 281.14   86.82 111.10 281.10   86.75
   4  -1   7  1358.5   126.6   2-0.23661 0.74643 0.47173-0.57115 0.84941-0.34151  0 208.08 441.03  351.76 207.91 440.94  351.80
   4   1  -7  1477.6   143.8   1-0.37805 0.88809 0.44373-0.34445-0.81251 0.30440  0 408.06 472.70   22.05 408.06 472.62   22.04
   4   1  -7  1755.3   187.5   2 0.10422 0.40583-0.81193 0.91146-0.57438 0.06733  0 281.42 474.06  146.39 281.42 473.88  146.18
   4   1  -7  1356.4   158.0   2-0.05300 0.56287 0.91808-0.81857-0.39284-0.11458  0 115.15 211.56  267.95 115.05 211.41  268.07
   4   1   7  1781.7   192.9   1 0.04179 0.46905-0.77516 0.87458 0.63038-0.12293  0 110.81 268.91  172.86 110.73 269.07  172.69
   4   1   7  1812.1   115.5   2-0.14792 0.65787-0.60017 0.69963 0.78607-0.27879  0 112.58 289.72   57.28 112.19 289.69   57.34
   4   1   7  1486.3   123.5   2-0.21275 0.72253 0.78712-0.68765 0.57894-0.07127  0 200.15 435.58  327.82 200.15 435.33  327.76
  -4  -1  -8  1297.6   177.6   2 0.00511-0.51497 0.75426-0.85377-0.65655 0.07665  2 392.63  10.02  249.69 392.31  10.41  249.90
  -4  -1   8  1320.9   146.9   1-0.56587 0.05521-0.81645 0.71707-0.11488 0.69481  0 201.05  53.81  115.04 201.09  53.76  115.16
  -4  -1   8  1116.2   211.4   2-0.04237-0.46758-0.94537 0.84591 0.32323 0.25652  0 290.16  13.90   91.49 290.13  14.37   91.45
  -4   1  -8 959.675 173.606   2-0.07257-0.43729 0.95263-0.85312-0.29535-0.28455  2 382.90   9.04  274.34 383.03   9.06  274.11
  -4   1   8  1438.1   220.7   2-0.09630-0.41365-0.81097 0.91043 0.57710 0.00265  0 284.28  15.96   74.60 284.40  15.74   74.68
   4  -1  -8  1274.7   150.1   2 0.00354 0.50632 0.75998-0.85950-0.64993 0.07003  0 101.10 188.91  250.43 101.24 188.87  250.41
   4  -1   8  1301.9   171.3   1-0.12489 0.63572-0.86549 0.76607 0.48511 0.09483  0  93.00 281.57  158.68  92.67 281.64  158.97
   4  -1   8  1370.7   135.0   2-0.06278 0.57273-0.90404 0.80458 0.42281 0.15694  0  91.63 271.26   85.23  91.30 271.36   85.16
   4  -1   8 969.154 120.000   2-0.23527 0.74505 0.52332-0.62279 0.81902-0.23882  0 209.27 468.76  348.40 209.26 468.69  348.39
   4   1  -8  1115.9   159.5   1-0.41573 0.92577 0.39112-0.29184-0.82109 0.24039  2 418.44 501.38   26.01 418.60 501.98   25.77
   4   1  -8  1128.1   150.0   2-0.04951 0.55937 0.91080-0.81129-0.40986-0.17004  0  99.81 193.73  266.79  99.75 193.77  266.99
   4   1   8  1305.8   171.9   1 0.03578 0.47506-0.77935 0.87877 0.62556-0.04562  0  91.62 258.09  172.19  91.58 257.95  172.19
   4   1   8  1497.5   128.0   2-0.13970 0.64965-0.64021 0.73967 0.75539-0.17564  0  92.16 279.29   60.24  91.88 279.34   60.26
   4   1   8 921.178 110.080   2-0.21210 0.72188 0.79145-0.69198 0.57325 0.00694  0 201.62 463.93  327.34 201.71 463.75  327.34
  -4  -1   9 913.455 123.290   1-0.49604-0.01461-0.86820 0.76882 0.01311 0.63930  0 191.91  28.24  123.93 192.00  28.11  124.04
   4  -1  -9 839.829 151.502   2 0.00286 0.50700 0.76242-0.86193-0.64708-0.00531  0  84.38 169.93  250.58  83.79 169.92  250.63
   4  -1   9 879.640 165.554   1-0.11624 0.62707-0.86198 0.76256 0.49344 0.15899  0  70.31 270.63  159.56  69.86 270.61  159.70
   4  -1   9 675.685 105.509   2-0.06870 0.57866-0.88984 0.79038 0.45108 0.20115  0  69.21 261.64   83.39  69.01 261.85   83.32
   4  -1   9 592.520 129.943   2-0.23408 0.74386 0.55243-0.65191 0.80002-0.14730  0 209.28 500.87  346.54 209.35 500.57  346.40
   4   1  -9 762.299 144.132   2-0.04511 0.55497 0.90132-0.80181-0.43079-0.22160  0  82.66 174.67  265.60  82.10 174.80  265.65
   4   1   9 862.156 165.205   1 0.03515 0.47569-0.77977 0.87919 0.62507 0.02736  0  69.61 245.75  172.38  69.95 245.86  172.14
   4   1   9 946.991 112.194   2-0.13565 0.64560-0.65920 0.75866 0.73963-0.08741  0  69.19 269.87   61.60  69.23 269.58   61.70
   4   1   9 845.146 132.586   2-0.21280 0.72258 0.78685-0.68738 0.57929 0.07342  0 202.08 495.99  327.55 201.74 495.89  327.78
   4  -1 -10 343.619 154.246   2 0.00363 0.50623 0.75966-0.85917-0.65031-0.07456  0  62.63 149.06  249.99  63.24 148.98  250.38
   4  -1  10 412.683 161.102   1-0.10411 0.61494-0.85674 0.75732 0.50514 0.21979  0  44.34 258.76  160.67  43.97 258.57  160.71
   4  -1  10 368.336 103.180   2-0.07524 0.58520-0.87309 0.77363 0.48171 0.24298  0  43.06 252.39   81.27  43.35 252.48   81.29
   4   1 -10 483.557 155.947   2-0.04011 0.54997 0.88977-0.79026-0.45465-0.27023  0  61.42 153.89  264.42  61.34 153.97  264.11
   4   1  10 339.672 170.373   1 0.03920 0.47164-0.77706 0.87647 0.62821 0.09672  0  45.63 232.25  172.43  45.13 232.41  172.47
   4   1  10 400.142 109.238   2-0.13430 0.64425-0.66529 0.76475 0.73440-0.00971  0  43.67 259.88   62.38  43.31 260.18   62.16
  -4  -2   0 190.336  70.785   1-0.43486-0.07517 0.36266-0.56123-0.82424 0.82424  0 184.30 186.39   27.51 184.34 186.52   27.75
  -4  -2   0 200.573  98.015   1 0.01461-0.52545-0.79317 0.59434 0.60882-0.60882  0 442.06 169.28  170.54 442.01 169.17  170.45
  -4  -2   0 213.065  42.091   2-0.20321-0.30664-0.23203 0.03319 0.95125-0.95125  0 459.31 200.15   33.89 459.43 200.20   33.81
  -4  -2   0 215.725  46.690   2 0.07223-0.58228-0.93802 0.73895-0.33898 0.33898  0 402.88 133.86  130.95 403.14 133.89  130.76
  -4   2   0 247.009  80.153   1-0.59785 0.08719-0.78062 0.97939-0.18221 0.18221  0 384.48 123.20  110.46 384.35 123.23  110.42
  -4   2   0 224.088  60.369   2-0.23276-0.27709 0.15624 0.04259 0.95990-0.95990  0 380.80 121.75   11.15 380.45 121.81   11.34
  -4   2   0 159.113  53.926   2 0.00327-0.51313 0.76097-0.56194-0.64878 0.64878  0 467.64 225.61  250.48 467.52 225.73  250.50
   4  -2   0 185.126  58.985   1-0.02362 0.53446-0.81632 0.61749 0.57712-0.57712  0 225.78 376.65  167.27 225.62 376.60  167.31
   4  -2   0 227.010  40.058   2-0.06071 0.57066-0.90877 0.70985 0.41286-0.41286  0 218.93 371.50   85.97 218.88 371.57   85.80
   4  -2   0 185.152  37.631   2 0.13204 0.37805-0.41486 0.21593-0.90025 0.90025  0 169.77 293.99  175.92 169.60 293.89  176.05
   4   2   0 210.483  25.477   2 0.01654 0.49345 0.71060-0.51159-0.70340 0.70340  0 195.20 346.98  246.28 195.27 346.90  246.18
   4   2   0 193.231  24.138   2-0.08428 0.59415 0.96852-0.76950-0.23424 0.23424  0 181.33 325.04  277.91 181.38 325.00  277.78
  -4  -2  -1  1915.4   136.7   1-0.36386-0.14617 0.46257-0.66113-0.80848 0.73589  0 177.45 197.01   20.74 177.47 197.09   20.67
  -4  -2  -1  2176.5   170.8   1-0.05346-0.45738-0.83254 0.63371 0.55138-0.62387  0 452.46 180.98  164.89 452.61 181.04  164.87
  -4  -2  -1  2228.1    70.3   2-0.12673-0.38322-0.69815 0.49923 0.70465-0.77712  0 456.15 188.96   64.94 456.44 189.23   64.74
  -4  -2  -1  1953.3    70.6   2 0.10193-0.61199-0.82511 0.62604-0.55571 0.48327  0 413.08 138.65  145.00 413.55 138.76  144.86
  -4  -2   1  1945.1   135.9   1-0.50935-0.00069 0.23845-0.43701-0.82687 0.89946  0 189.47 175.46   35.83 189.48 175.47   36.06
  -4  -2   1  1886.8    92.9   2-0.23379-0.27606 0.18167-0.38050 0.95516-0.88262  0 467.16 215.40   10.02 467.29 215.63    9.86
  -4  -2   1  1973.4   102.5   2 0.05260-0.56265-0.97667 0.77760-0.20822 0.28066  0 389.74 124.07  122.90 390.03 124.17  122.87
  -4   2  -1  1892.7   147.6   1-0.58623 0.07557-0.79480 0.99356-0.15695 0.08446  0 405.69 132.72  111.99 405.81 132.98  112.21
  -4   2  -1  1819.7    94.4   2 0.04432-0.55432 0.58474-0.38573-0.81001 0.73752  0 467.92 218.45  236.69 468.03 218.57  236.56
  -4   2  -1  1920.4   103.9   2-0.23665-0.27317 0.46981-0.27097 0.85046-0.92301  0 387.01 122.82  352.01 387.32 123.03  351.93
  -4   2   1  1977.3   109.9   1-0.62302 0.11236-0.74395 0.94271-0.24163 0.31412  0 362.19 112.91  106.05 362.24 113.12  106.17
  -4   2   1  2271.4   123.6   2-0.21314-0.29672-0.13334 0.33217 0.96788-0.89533  0 370.77 115.90   28.02 370.84 116.05   28.05
  -4   2   1  1913.9   114.1   2-0.03101-0.47885 0.86731-0.66828-0.49681 0.56929  0 471.81 236.81  261.28 471.90 237.01  261.33
   4  -2  -1  2129.5    92.1   2-0.03452 0.54447-0.95824 0.75932 0.28388-0.35635  0 227.41 380.03   93.93 227.29 379.88   93.87
   4  -2  -1  1879.1    85.5   2 0.12369 0.38640-0.08937-0.10956-0.98829 0.91580  0 166.08 283.68  195.58 166.04 283.59  195.48
   4  -2   1  2088.2   120.4   1-0.10596 0.61679-0.85754 0.65871 0.50338-0.43089  0 209.65 364.83  160.45 209.47 364.72  160.55
   4  -2   1  2115.4    75.2   2-0.09819 0.60814-0.80477 0.60585 0.58541-0.51294  0 212.66 368.11   73.99 212.54 367.92   74.08
   4  -2   1  1811.7    71.0   2 0.11700 0.39308-0.71702 0.51809-0.68717 0.75965  0 170.23 301.03  154.68 170.14 300.90  154.69
   4   2  -1  2005.6    71.2   2 0.10752 0.40248 0.13170 0.06730-0.98544 0.91295  0 210.23 365.87  208.19 210.17 365.62  208.19
   4   2  -1  1789.0    66.1   2-0.10421 0.61407 0.98636-0.78734-0.12739 0.05491  0 171.30 304.37  284.10 171.19 304.23  284.10
  -4  -2  -2 17763.9   330.3   1-0.30086-0.20918 0.54006-0.73863-0.78602 0.64084  0 168.94 207.31   14.98 168.98 207.38   14.80
  -4  -2  -2 19259.7   360.2   1-0.11832-0.39251-0.86284 0.66401 0.49143-0.63641  0 465.85 192.59  159.59 466.09 192.64  159.52
  -4  -2  -2 19771.3   161.6   2-0.04669-0.46326-0.93750 0.73858 0.34484-0.48978  0 461.99 186.61   90.28 462.32 186.88   90.11
  -4  -2  -2 17970.5   157.3   2 0.12981-0.63990-0.52706 0.32813-0.83986 0.69489  0 416.94 134.22  168.84 417.37 134.48  168.73
  -4  -2   2 16911.4   287.7   1-0.58057 0.07053 0.09241-0.29098-0.80895 0.95413  0 192.75 163.82   45.36 192.73 163.86   45.43
  -4  -2   2 18113.0   243.9   2 0.03861-0.54867-0.99201 0.79294-0.12011 0.26498  0 376.16 111.94  117.75 376.24 112.11  117.69
  -4  -2   2 16542.4   229.8   2-0.23733-0.27249 0.43606-0.63490 0.86806-0.72295  0 477.84 232.84  354.06 477.97 233.04  354.11
  -4   2  -2 17506.9   311.5   1-0.58289 0.07223-0.79862 0.99738-0.14986 0.00488  0 427.68 142.30  112.79 427.92 142.41  112.71
  -4   2  -2 17834.3   213.0   2 0.08422-0.59421 0.33902-0.14001-0.93700 0.79203  0 474.03 216.46  220.52 474.20 216.63  220.49
  -4   2  -2 17032.9   211.8   2-0.22153-0.28824 0.71850-0.51955 0.65930-0.80435  0 390.50 118.15  333.88 390.71 118.33  333.84
  -4   2   2 18251.3   169.2   1-0.36511-0.14492 0.46093-0.26236-0.80885 0.95403  0 264.70 111.61   20.68 264.89 111.80   20.79
  -4   2   2 16778.0   162.9   1-0.67077 0.16064-0.63438 0.83305-0.38422 0.52936  0 336.18 102.67   95.65 335.92 103.00   95.50
  -4   2   2 19869.8   275.1   2-0.18901-0.32084-0.34855 0.54738 0.91804-0.77294  0 359.58 106.81   40.91 359.65 107.03   40.80
  -4   2   2 16209.6   250.6   2-0.05768-0.45218 0.92721-0.72819-0.37007 0.51504  0 479.79 251.08  269.58 479.88 251.27  269.50
   4  -2  -2 18141.0   242.9   2-0.01576 0.52582-0.98222 0.78315 0.18709-0.33196  0 236.99 391.52   99.83 236.82 391.32   99.73
   4  -2  -2 18798.0   245.5   2 0.10352 0.40647 0.17304-0.37204-0.97946 0.83448  0 160.47 271.60  210.73 160.44 271.52  210.59
   4  -2   2 17852.9   294.6   1-0.15565 0.66648-0.87722 0.67839 0.45415-0.30916  0 193.98 353.76  156.33 193.80 353.70  156.39
   4  -2   2 19006.9   185.8   2-0.14542 0.65537-0.61269 0.41377 0.77683-0.63189  0 209.34 370.89   58.16 209.20 370.72   58.24
   4  -2   2 17676.2   179.2   2 0.08493 0.42513-0.89968 0.70061-0.42820 0.57307  0 166.67 303.09  136.32 166.57 302.97  136.35
   4   2  -2 16304.7   303.2   1-0.15519 0.66522 0.68693-0.48837-0.70996 0.56478  0 429.94 372.01    1.83 430.15 371.84    2.16
   4   2  -2 17946.0   213.9   2 0.12963 0.38046-0.22917 0.42810-0.96472 0.81974  0 222.50 381.88  187.13 222.24 381.53  187.34
   4   2  -2 15072.9   195.3   2-0.10535 0.61521 0.98703-0.78801-0.12115-0.02383  0 162.75 287.84  284.36 162.70 287.64  284.47
  -4  -2  -3 18827.8   356.8   1-0.24796-0.26207 0.59856-0.79713-0.76173 0.54397  0 158.96 217.41   10.00 158.98 217.47   10.08
  -4  -2  -3 18088.2   367.4   1-0.17898-0.33185-0.88495 0.68612 0.42991-0.64739  0 482.36 204.28  154.46 482.56 204.26  154.41
  -4  -2  -3 18138.0   182.9   2-0.00275-0.50731-0.99304 0.79397 0.11773-0.33503  0 476.75 192.43  103.89 476.93 192.60  103.83
  -4  -2  -3 17376.1   182.3   2 0.12505-0.63513-0.11579-0.08314-0.98537 0.76791  0 414.91 120.89  193.79 415.18 121.04  193.96
  -4  -2   3 16328.7   280.8   1-0.63998 0.12985-0.06890-0.12977-0.76530 0.98301  0 194.02 151.44   55.53 194.01 151.51   55.59
  -4  -2   3 17972.1   276.2   2 0.02735-0.53740-0.99828 0.79921-0.05189 0.26919  0 362.24  98.30  113.84 362.29  98.51  113.72
  -4  -2   3 15187.0   254.8   2-0.23275-0.27703 0.57921-0.77816 0.78124-0.56367  0 490.93 251.46  344.65 491.15 251.62  344.52
  -4   2  -3 16293.1   324.1   1-0.58479 0.07413-0.79646 0.99522-0.15388-0.06359  0 451.28 151.56  112.45 451.49 151.67  112.43
  -4   2  -3 17488.4   225.3   2 0.11234-0.62234 0.07716 0.12185-0.99067 0.77321  0 486.10 219.43  205.05 486.22 219.62  205.03
  -4   2  -3 16110.5   223.1   2-0.19751-0.31227 0.86661-0.66766 0.45824-0.67581  0 390.70 107.91  319.22 390.81 108.16  319.40
  -4   2   3 19921.6   305.1   2-0.16767-0.34228-0.49177 0.69068 0.85443-0.63702  0 347.41  95.44   50.07 347.51  95.69   49.89
  -4   2   3 16894.6   282.5   2-0.07837-0.43149 0.96088-0.76186-0.26564 0.48310  0 490.77 267.60  275.96 490.79 267.78  275.91
   4  -2  -3 17894.0   267.7   2-0.00121 0.51127-0.99401 0.79494 0.10931-0.32662  0 247.20 405.40  104.14 246.99 405.21  104.32
   4  -2  -3 18197.8   268.1   2 0.08198 0.42802 0.35565-0.55466-0.93102 0.71355  0 153.33 258.51  221.56 153.32 258.44  221.51
   4  -2   3 18019.6   322.8   1-0.18506 0.69590-0.88678 0.68795 0.42352-0.20605  0 178.29 343.36  154.01 178.14 343.32  153.89
   4  -2   3 18524.2   199.6   2-0.18853 0.69838-0.35215 0.15331 0.91676-0.69911  0 208.87 380.05   41.08 208.78 379.85   41.02
   4  -2   3 17090.4   191.8   2 0.05471 0.45535-0.97355 0.77448-0.22183 0.43914  0 158.98 300.33  123.64 158.86 300.23  123.68
   4   2  -3 16561.9   305.4   1-0.22261 0.73264 0.62446-0.42590-0.74866 0.53090  0 428.07 386.65    8.12 428.24 386.57    7.88
   4   2  -3 16987.4   242.4   2 0.13172 0.37837-0.43771 0.63664-0.88942 0.67196  0 234.08 398.35  174.66 233.87 398.09  174.60
   4   2  -3 15040.6   227.0   2-0.10259 0.61245 0.98535-0.78633-0.13625-0.08121  0 153.95 272.15  283.61 153.88 272.00  283.58
  -4  -2  -4  5251.4   218.9   1-0.20520-0.30483 0.64142-0.83998-0.73924 0.44889  0 147.53 227.51    6.35 147.49 227.56    6.38
  -4  -2  -4  5745.2   269.0   1-0.23545-0.27538-0.89937 0.70054 0.36837-0.65834  0 502.18 216.21  149.62 502.31 216.23  149.55
  -4  -2  -4  5147.7   136.8   2 0.02020-0.53026-0.99974 0.80067-0.01088-0.27885  0 497.03 202.09  111.31 497.20 202.20  111.32
  -4  -2  -4  5662.4   146.0   2 0.10098-0.61098 0.19765-0.39666-0.97506 0.68511  0 410.46 102.66  211.97 410.64 102.88  212.03
  -4  -2   4  4850.9   175.8   1-0.68063 0.17050-0.23333 0.03466-0.69447 0.98475  0 193.22 138.14   66.12 193.15 138.17   66.12
  -4  -2   4  5300.0   205.2   2 0.01741-0.52747-0.99983 0.80076 0.00591 0.28383  0 348.20  83.29  110.18 348.34  83.49  110.35
  -4   2  -4  5409.7   251.0   1-0.59009 0.07943-0.79025 0.98901-0.16525-0.12472  0 477.08 160.83  111.65 477.28 160.90  111.63
  -4   2  -4  4802.1   155.0   2 0.12629-0.63638-0.14233 0.34126-0.98173 0.69179  2 503.42 226.24  192.37 503.74 226.43  192.42
  -4   2  -4  4923.4   166.5   2-0.17363-0.33615 0.94130-0.74236 0.28948-0.57958  0 388.39  92.92  308.74 388.73  93.34  308.69
  -4   2   4  6102.0   221.7   2-0.15103-0.35892-0.58455 0.78346 0.79718-0.50730  0 334.72  82.07   56.00 334.79  82.34   56.22
  -4   2   4  4672.9   203.9   2-0.09493-0.41493 0.97950-0.78047-0.17770 0.46765  2 504.19 286.12  281.15 504.44 286.30  281.14
   4  -2  -4  5479.7   203.6   2 0.01080 0.49925-0.99901 0.79994 0.04320-0.33294  0 257.56 421.61  108.00 257.68 421.34  108.19
   4  -2  -4  5590.4   177.2   2 0.06365 0.44634 0.47650-0.67550-0.87687 0.58692  0 144.85 244.76  228.79 144.85 244.68  229.18
   4  -2   4  5294.5   210.2   1-0.20117 0.71200-0.89129 0.69246 0.40636-0.11639  0 162.17 333.34  152.46 162.05 333.34  152.52
   4  -2   4  5247.0   130.7   2-0.21609 0.72594-0.10172-0.09712 0.97106-0.68087  0 210.09 393.98   26.14 209.97 393.81   26.22
   4  -2   4  5415.8   130.5   2 0.03182 0.47823-0.99641 0.79734-0.07841 0.36815  0 148.24 294.51  115.06 148.09 294.39  115.26
   4   2  -4  4905.3   207.5   1-0.28466 0.79469 0.55865-0.36008-0.77903 0.48868  0 429.35 403.12   13.18 429.42 402.95   13.33
   4   2  -4  5074.3   168.6   2 0.12851 0.38158-0.55885 0.75778-0.81925 0.52931  0 245.64 416.17  166.60 245.39 415.95  166.55
   4   2  -4  5212.5   163.2   2-0.09819 0.60805 0.98222-0.78319-0.16002-0.12993  0 144.35 256.81  282.05 144.31 256.63  282.19
   4   2   4  5329.1    96.9   2-0.23307 0.74292 0.16339 0.03545 0.95864-0.66844  0 155.50 319.17   10.89 155.38 319.02   10.93
   4   2   4  4806.7    93.8   2-0.18306 0.69284 0.91721-0.71826 0.35385-0.06376  0 190.27 375.60  312.69 190.31 375.35  312.68
  -4  -2  -5  6741.2   252.9   1-0.17211-0.33792 0.67222-0.87078-0.72007 0.35713  0 134.50 237.70    3.58 134.47 237.80    3.57
  -4  -2  -5  7273.8   187.0   2 0.07705-0.58704 0.39038-0.58938-0.91743 0.55499  0 405.44  81.41  223.74 405.69  81.60  223.67
  -4  -2   5  6058.0   194.6   1-0.69827 0.18814-0.38952 0.19084-0.60058 0.96342  0 190.32 123.49   76.55 190.20 123.60   76.63
  -4  -2   5  7304.2   254.4   2 0.00821-0.51827-0.99829 0.79922 0.05781 0.30437  0 334.16  66.68  107.27 334.27  66.92  107.34
  -4   2  -5  6370.9   206.1   2-0.15278-0.35700 0.97587-0.77693 0.15597-0.51859  0 385.34  74.44  300.72 385.54  74.70  300.65
  -4   2   5  7620.9   262.5   2-0.13897-0.37098-0.64381 0.84272 0.75246-0.39012  0 321.47  66.81   60.49 321.57  67.07   60.53
   4  -2  -5  6816.6   248.3   2 0.02108 0.48898-0.99965 0.80058-0.01581-0.34636  0 268.84 440.21  111.79 268.91 439.92  111.60
   4  -2  -5  7029.7   213.2   2 0.04986 0.46014 0.55591-0.75491-0.82975 0.46731  0 135.01 230.28  234.58 135.04 230.23  234.53
   4  -2   5  7001.7   247.8   1-0.20794 0.71878-0.89312 0.69428 0.39888-0.03641  0 145.35 323.63  151.96 145.21 323.63  151.93
   4  -2   5  6828.2   166.1   2-0.22974 0.73960 0.09413-0.29296 0.96869-0.60595  0 211.85 411.45   14.99 211.73 411.29   14.94
   4  -2   5  7197.3   164.7   2 0.01392 0.49614-0.99957 0.80050 0.02594 0.33623  0 135.17 287.18  109.00 135.09 287.09  109.18
   4   2  -5  6266.5   232.3   1-0.33920 0.84923 0.49403-0.29547-0.80055 0.43761  0 433.68 421.75   18.22 433.77 421.60   18.34
   4   2  -5  6722.2   228.6   2 0.12447 0.38562-0.63086 0.82979-0.76585 0.40342  0 256.95 436.02  161.22 257.02 435.74  161.40
   4   2  -5  5987.9   190.9   2-0.09294 0.60280 0.97769-0.77867-0.18836-0.17408  0 133.66 241.31  280.48 133.69 241.18  280.51
   4   2   5  7354.9   141.2   2-0.21295 0.72281-0.13529 0.33412 0.96765-0.60491  0 139.47 307.28   28.06 139.39 307.08   28.17
   4   2   5  5980.1   133.1   2-0.18175 0.69153 0.92106-0.72212 0.34440 0.01822  0 194.74 397.56  312.13 194.76 397.30  312.09
  -4  -2  -6  8413.3   291.5   1-0.14751-0.36252 0.69356-0.89213-0.70513 0.26961  0 120.18 248.29    1.49 119.79 248.36    1.52
  -4  -2  -6  9281.4   241.2   2 0.05912-0.56911 0.50375-0.70276-0.86182 0.42690  0 400.69  57.22  230.96 400.86  57.52  230.98
  -4  -2   6  7589.2   219.5   1-0.69305 0.18292-0.52785 0.32918-0.49097 0.92638  0 185.33 107.29   86.71 185.19 107.43   86.75
  -4  -2   6  8659.2   302.2   2-0.00061-0.50944-0.99436 0.79529 0.10601 0.32860  0 319.78  48.31  104.43 319.90  48.56  104.51
  -4   2  -6  7642.3   251.3   2-0.13538-0.37448 0.98955-0.79052 0.04967-0.48460  0 381.90  52.35  294.27 381.91  52.69  294.43
  -4   2   6  9791.5   318.0   2-0.13068-0.37927-0.68122 0.88014 0.72032-0.28551  0 307.66  49.38   63.35 307.77  49.76   63.40
   4  -2  -6  9037.6   302.1   2 0.03038 0.47968-0.99710 0.79803-0.06983-0.36478  0 280.79 461.70  114.77 280.81 461.42  114.76
   4  -2  -6  8787.7   258.5   2 0.03978 0.47021 0.60750-0.80651-0.79332 0.35840  0 124.06 215.09  238.09 123.79 215.05  238.20
   4  -2   6  7612.2   276.1   1-0.20795 0.71879-0.89312 0.69429 0.39886 0.03609  0 127.62 313.93  151.75 127.32 313.97  151.93
   4  -2   6  8118.6   200.0   2-0.23549 0.74534 0.23246-0.43130 0.94367-0.50838  0 213.58 432.00    6.99 213.45 431.77    6.87
   4  -2   6  8536.4   196.7   2-0.00097 0.51102-0.99415 0.79508 0.10797 0.32664  0 120.50 279.12  104.23 120.13 279.07  104.40
   4   2  -6  7203.5   257.1   1-0.38488 0.89491 0.43454-0.23597-0.81428 0.37875  0 441.29 443.25   22.71 441.34 443.17   22.70
   4   2  -6  8186.3   286.3   2 0.12117 0.38892-0.67434 0.87327-0.72841 0.29350  0 269.00 458.31  157.79 269.03 458.03  158.10
   4   2  -6  7750.9   233.9   2-0.08712 0.59698 0.97176-0.77274-0.21931-0.21562  0 122.11 225.45  278.65 121.79 225.35  278.67
   4   2   6  9115.4   182.0   2-0.19407 0.70392-0.31019 0.50903 0.93065-0.49536  0 123.10 296.79   38.41 122.70 296.58   38.47
   4   2   6  7691.9   175.8   2-0.18372 0.69350 0.91531-0.71636 0.35841 0.07673  0 197.86 420.53  312.95 197.82 420.22  312.96
  -4  -2  -7  1276.7   151.0   2 0.04709-0.55709 0.57036-0.76936-0.82005 0.31263  0 396.40  30.03  235.51 396.55  30.15  235.54
  -4  -2   7  1183.3   128.2   1-0.66786 0.15773-0.64380 0.44512-0.37349 0.88147  0 178.25  89.13   96.29 178.23  89.21   96.33
  -4  -2   7  1285.1   192.5   2-0.00911-0.50095-0.98835 0.78928 0.15195 0.35510  0 304.86  27.81  102.00 304.99  27.95  101.81
  -4   2  -7  1106.1   160.7   2-0.12006-0.38980 0.99199-0.79297-0.03917-0.46825  0 377.73  27.12  289.36 378.09  27.02  289.25
  -4   2   7  1263.3   196.1   2-0.12533-0.38462-0.70402 0.90294 0.69903-0.19175  0 293.13  29.97   65.31 293.18  30.08   65.21
   4  -2  -7  61.793 140.447   2 0.03872 0.47134-0.99193 0.79286-0.12076-0.38629  2 293.09 486.92  118.12 293.60 486.46  117.73
   4  -2  -7  1503.7   166.2   2 0.03282 0.47717 0.64052-0.83952-0.76724 0.25983  0 111.14 198.94  240.60 110.82 198.93  240.65
   4  -2   7  1067.0   162.2   1-0.20276 0.71360-0.89178 0.69295 0.40449 0.10296  0 108.45 304.26  152.23 108.02 304.20  152.37
   4  -2   7  1142.8   118.9   2-0.01380 0.52385-0.98418 0.78511 0.17662 0.33042  0 103.34 270.62  100.28 103.12 270.69  100.35
   4   2  -7 810.602 167.076   1-0.42132 0.93135 0.38293-0.18437-0.82210 0.31399  0 452.04 468.51   26.42 452.20 468.72   26.35
   4   2  -7  1203.3   181.9   2 0.11872 0.39136-0.70002 0.89895-0.70419 0.19679  0 281.71 483.87  156.32 281.66 483.66  156.07
   4   2  -7  1009.8   128.9   2-0.08099 0.59085 0.96432-0.76530-0.25204-0.25537  0 108.69 208.71  276.75 108.29 208.86  276.73
   4   2   7  1455.8   119.4   2-0.17951 0.68937-0.41552 0.61435 0.89170-0.38386  0 104.73 286.81   44.94 104.56 286.72   44.95
   4   2   7  1236.8   131.1   2-0.18700 0.69678 0.90511-0.70616 0.38185 0.12582  0 199.74 445.44  314.42 199.71 445.27  314.45
  -4  -2   8 990.034 132.247   1-0.62892 0.11826-0.73394 0.53518-0.25649 0.83642  0 169.37  68.21  105.20 169.36  68.18  105.09
  -4   2   8  1042.9   249.7   2-0.12228-0.38767-0.71667 0.91558 0.68661-0.10686  2 277.39   7.69   66.37 277.56   7.48   66.24
   4  -2  -8  1050.1   152.4   2 0.02839 0.48160 0.66070-0.85970-0.75012 0.17021  0  95.59 181.78  241.88  95.80 181.59  242.19
   4  -2   8 819.606 159.660   1-0.19347 0.70431-0.88920 0.69037 0.41460 0.16534  0  87.01 294.39  153.39  86.86 294.10  153.18
   4  -2   8  1032.6   112.7   2-0.02549 0.53544-0.97105 0.77213 0.23753 0.34223  0  83.70 262.16   96.57  83.78 262.04   96.68
   4  -2   8 935.956 131.419   2-0.23782 0.74765 0.38861-0.58744 0.89018-0.30973  0 215.03 482.88  357.36 215.36 482.80  357.12
   4   2  -8 651.533 193.811   1-0.44890 0.95894 0.34104-0.14247-0.82594 0.24524  0 466.65 499.24   29.38 466.67 499.58   29.23
   4   2  -8 699.230 131.346   2-0.07444 0.58430 0.95539-0.75637-0.28580-0.29410  0  93.03 191.21  274.57  92.81 191.39  274.69
   4   2   8  1107.8   113.0   2-0.16976 0.67962-0.47879 0.67763 0.86136-0.28097  0  84.75 277.35   49.06  84.40 277.34   49.02
   4   2   8 827.696 115.981   2-0.19095 0.70073 0.89181-0.69286 0.41014 0.17005  0 200.11 473.57  316.37 200.40 473.39  316.26
  -4  -2   9  4654.7   240.4   1-0.57885 0.06819-0.80308 0.60432-0.14140 0.79382  0 158.31  43.33  113.26 158.39  43.48  113.31
   4  -2  -9  5194.6   296.7   2 0.02587 0.48412 0.67155-0.87055-0.74051 0.08812  0  78.48 162.57  243.32  78.21 162.63  243.04
   4  -2   9  4641.1   281.2   1-0.18069 0.69153-0.88547 0.68664 0.42812 0.22431  0  63.45 283.51  154.24  63.21 283.44  154.27
   4  -2   9  4975.0   213.5   2-0.03624 0.54619-0.95551 0.75659 0.29272 0.35950  0  61.81 253.27   93.27  61.54 253.28   93.33
   4   2  -9  4381.9   261.4   2-0.06762 0.57748 0.94487-0.74585-0.32038-0.33200  0  75.04 172.48  272.53  74.79 172.46  272.58
   4   2   9  4821.9   204.5   2-0.16348 0.67344-0.51583 0.71475 0.84095-0.18872  0  62.09 268.48   51.53  61.63 268.44   51.50
   4  -2 -10  4424.6   311.3   2 0.02498 0.48501 0.67542-0.87442-0.73701 0.01213  0  57.31 141.40  243.41  57.31 141.47  243.34
   4  -2  10  4142.4   301.7   1-0.16505 0.67589-0.88042 0.68159 0.44454 0.28038  0  36.60 271.97  155.56  36.33 271.86  155.60
   4  -2  10  4608.6   232.4   2-0.04662 0.55657-0.93763 0.73871 0.34451 0.38018  0  35.78 244.41   90.21  35.65 244.37   90.13
   4   2 -10  4490.8   298.9   2-0.06059 0.57045 0.93267-0.73364-0.35562-0.36926  0  53.55 151.62  270.43  53.50 151.56  270.40
   4   2  10  4307.8   220.5   2-0.15989 0.66984-0.53626 0.73518 0.82877-0.10408  0  35.35 259.88   52.80  35.31 259.58   52.87
  -4  -3   0   3.707  71.446   1-0.49562-0.01442 0.26308-0.56092-0.82774 0.82774  0 165.79 196.23   34.39 165.57 196.35   34.44
  -4  -3   0  21.045  55.895   2-0.20245-0.30740-0.23883-0.05942 0.94972-0.94972  0 487.99 222.34   33.89 488.02 222.10   34.21
  -4  -3   0 -31.336  60.395   2 0.11017-0.62026-0.77350 0.47511-0.62414 0.62414  0 389.33 106.48  149.94 389.09 106.47  149.85
  -4   3   0  42.981  75.849   1-0.68353 0.17340-0.58445 0.88246-0.43726 0.43726  0 388.37 105.83   91.39 388.36 105.96   91.26
  -4   3   0 -37.219  71.603   2-0.23392-0.27593 0.18503 0.11322 0.95449-0.95449  0 362.96  97.62    9.45 362.79  97.90    9.66
  -4   3   0 -20.507  68.411   2 0.03275-0.54274 0.64086-0.34236-0.76695 0.76695  0 491.99 251.17  240.57 491.82 251.24  240.67
   4  -3   0  36.519  53.813   1-0.17311 0.68395-0.88310 0.58486 0.43607-0.43607  0 221.96 390.92  154.54 222.36 391.16  154.91
   4  -3   0  41.294  50.008   2-0.10832 0.61827-0.77009 0.47172 0.62867-0.62867  0 234.02 398.44   70.41 233.44 398.57   70.85
   4  -3   0   1.966  41.447   2 0.13191 0.37818-0.35969 0.06130-0.92370 0.92370  0 153.13 272.48  179.25 153.35 272.13  179.49
   4   3   0 -22.548  33.507   2 0.06373 0.44627 0.47603-0.17753-0.87712 0.87712  0 210.59 382.25  229.05 210.57 382.11  229.15
   4   3   0  -2.548  32.095   2-0.18721 0.69699 0.90444-0.60602 0.38334-0.38334  0 157.59 298.23  314.64 157.90 298.22  314.55
  -4  -3  -1 23249.9   393.1   1-0.43841-0.07163 0.35725-0.65510-0.82472 0.75214  0 160.14 206.91   28.01 160.26 206.95   28.12
  -4  -3  -1 24288.9   412.4   1 0.02433-0.53516-0.78694 0.48869 0.61655-0.68905  0 480.34 190.87  171.24 480.55 190.91  171.25
  -4  -3  -1 24642.0   256.4   2-0.16292-0.34703-0.51911 0.22073 0.83904-0.91151  0 488.00 214.26   51.81 488.23 214.51   51.71
  -4  -3  -1 22809.6   252.2   2 0.12519-0.63527-0.61979 0.32139-0.77472 0.70223  0 396.07 107.46  162.17 396.52 107.70  162.21
  -4  -3   1 21798.2   362.5   1-0.55303 0.04300 0.15295-0.45080-0.81900 0.89159  0 169.05 185.33   41.57 169.09 185.37   41.58
  -4  -3   1 22938.1   277.5   2-0.22612-0.28373 0.02964-0.32789 0.97365-0.90110  0 492.24 233.44   18.85 492.47 233.67   18.65
  -4  -3   1 23195.5   285.1   2 0.09279-0.60284-0.86977 0.57116-0.48466 0.55709  0 379.23 100.54  140.00 379.31 100.67  140.02
  -4   3  -1 21644.6   320.0   1-0.66856 0.15843-0.64156 0.93957-0.37606 0.30349  0 411.88 115.29   96.07 411.95 115.63   96.14
  -4   3  -1 22634.1   294.8   2 0.06178-0.57178 0.48782-0.18932-0.87075 0.79827  0 493.54 245.37  229.97 493.68 245.48  229.92
  -4   3  -1 21825.1   293.3   2-0.23772-0.27211 0.40241-0.10415 0.88406-0.95661  0 368.50  97.28  356.11 368.52  97.63  356.25
  -4   3   1 22380.6   244.4   1-0.69798 0.18785-0.46844 0.76645-0.54165 0.61422  0 363.45  95.75   82.18 363.21  96.06   82.27
  -4   3   1 26156.5   336.8   2-0.22245-0.28740-0.02361 0.32187 0.97466-0.90211  0 354.92  94.16   21.83 354.99  94.43   21.72
   4  -3  -1 25440.8   251.1   1-0.06513 0.57596-0.83847 0.54022 0.54104-0.61353  0 242.58 405.26  163.88 242.36 405.09  163.92
   4  -3  -1 24148.4   299.1   2-0.08140 0.59135-0.85662 0.55825 0.50948-0.58195  0 240.41 404.34   79.16 240.16 404.08   79.41
   4  -3  -1 22905.5   291.5   2 0.12617 0.38392-0.13973-0.15866-0.98212 0.90963  0 151.65 264.72  192.71 151.62 264.59  192.57
   4  -3   1 23216.0   316.2   1-0.22996 0.74079-0.89824 0.60000 0.37454-0.30205  0 205.04 378.78  149.90 204.82 378.70  150.03
   4  -3   1 24650.5   280.3   2-0.13811 0.64806-0.64785 0.34947 0.74915-0.67668  0 228.44 397.33   60.90 228.27 397.11   60.83
   4  -3   1 22601.0   268.6   2 0.12789 0.38220-0.57216 0.27376-0.81011 0.88260  0 152.64 277.24  165.73 152.56 277.10  165.62
   4   3  -1 21675.1   378.5   1-0.15509 0.66512 0.68702-0.38917-0.70989 0.63731  0 466.35 350.18    2.04 466.48 350.03    2.15
   4   3  -1 23483.8   254.7   2 0.10275 0.40725 0.18064 0.11787-0.97817 0.90568  0 219.18 390.95  211.00 219.06 390.67  211.04
   4   3  -1 19701.9   232.2   2-0.17010 0.67988 0.94875-0.65033 0.26635-0.33887  0 154.18 287.86  307.19 154.23 287.70  307.28
   4   3   1 23762.1   214.3   2 0.00864 0.50136 0.74179-0.44328-0.67058 0.74306  0 203.86 378.25  248.84 203.82 377.99  248.81
   4   3   1 19540.8   194.2   2-0.20768 0.71746 0.81776-0.51934 0.53679-0.46427  0 158.61 305.91  324.80 158.67 305.80  324.74
  -4  -3  -2  4471.2   199.9   1-0.38475-0.12528 0.43472-0.73257-0.81424 0.66907  0 153.08 217.29   22.95 153.20 217.32   22.68
  -4  -3  -2  5169.4   251.4   1-0.04065-0.47019-0.82572 0.52747 0.56262-0.70760  0 492.39 203.39  165.92 492.60 203.41  165.92
  -4  -3  -2  4554.0   136.9   2-0.11554-0.39441-0.74295 0.44457 0.65930-0.80424  0 494.09 211.42   68.49 494.29 211.61   68.45
  -4  -3  -2  4374.4   143.2   2 0.13209-0.64217-0.40709 0.10870-0.90378 0.75881  0 400.41 103.24  176.58 400.81 103.51  176.54
  -4  -3   2  4293.3   184.9   1-0.60609 0.09605 0.02944-0.32729-0.79485 0.94003  0 170.77 173.81   49.36 170.75 173.86   49.41
  -4  -3   2  4119.3   163.2   2-0.23573-0.27413 0.24080-0.53905 0.94152-0.79642  0 500.57 247.91    6.36 500.67 248.10    6.37
  -4  -3   2  4585.1   177.3   2 0.07612-0.58618-0.92757 0.62896-0.36581 0.51068  0 367.97  91.50  132.24 368.02  91.68  132.43
  -4   3  -2  4185.1   211.9   1-0.65825 0.14812-0.67153 0.96954-0.34023 0.19509  0 435.79 124.62   98.84 435.92 124.83   98.87
  -4   3  -2  4221.3   165.3   2 0.08791-0.59790 0.31064-0.01213-0.94645 0.80148  0 500.11 243.36  218.87 500.21 243.46  218.76
  -4   3  -2  4415.4   170.4   2-0.23167-0.27811 0.59732-0.29890 0.76781-0.91286  0 372.09  92.66  343.09 371.98  92.92  343.21
  -4   3   2  4656.4    94.1   1-0.18190-0.32813 0.66332-0.36547-0.72589 0.87107  0 269.69  94.65    4.32 269.84  94.89    4.40
  -4   3   2  4131.5    89.9   1-0.66641 0.15628-0.16576 0.46377-0.72693 0.87206  0 330.55  86.24   61.88 330.37  86.46   61.75
  -4   3   2  5271.3   203.5   2-0.20670-0.30315-0.19916 0.49741 0.95792-0.81282  0 345.55  87.40   32.23 345.61  87.68   31.89
  -4   3   2  4292.9   184.7   2-0.02214-0.48773 0.84303-0.54450-0.53741 0.68238  0 500.15 272.68  258.61 500.25 272.76  258.57
   4  -3  -2  5150.6   166.2   2-0.05816 0.56811-0.91429 0.61591 0.40086-0.54580  0 248.35 413.28   86.55 248.17 413.07   86.57
   4  -3  -2  4998.7   160.1   2 0.11405 0.39595 0.05645-0.35495-0.99187 0.84690  0 147.62 255.17  203.89 147.65 255.12  203.84
   4  -3   2  4195.6   174.4   1-0.26101 0.77167-0.90382 0.60568 0.33910-0.19412  0 188.37 367.31  147.21 188.29 367.21  147.32
   4  -3   2  5101.8   144.7   2-0.16768 0.67763-0.49168 0.19331 0.85448-0.70954  0 224.95 400.26   49.94 224.81 400.09   49.88
   4  -3   2  4239.4   130.3   2 0.11379 0.39630-0.74513 0.44674-0.65713 0.80211  0 148.96 279.31  152.18 148.90 279.17  152.34
   4   3  -2  4009.4   217.1   1-0.21736 0.72739 0.62966-0.33181-0.74585 0.60067  0 463.78 364.43    7.35 463.77 364.36    7.42
   4   3  -2  4504.7   141.9   2 0.12266 0.38742-0.07025 0.36865-0.98996 0.84499  0 228.62 402.56  196.46 228.38 402.22  196.57
   4   3  -2  3881.9   128.4   2-0.15599 0.66577 0.97194-0.67352 0.17607-0.32112  0 148.57 275.71  301.93 148.56 275.58  301.84
   4   3   2  4361.7   101.8   2-0.04679 0.55665 0.90505-0.60651-0.42273 0.56770  0 199.75 380.10  266.20 199.68 379.89  266.17
   4   3   2  4007.2    96.4   2-0.22714 0.73692 0.65969-0.36127 0.71639-0.57134  0 155.47 308.96  338.52 155.49 308.80  338.57
  -4  -3  -3  8055.6   263.1   1-0.33706-0.17298 0.49670-0.79455-0.79980 0.58204  0 144.36 227.56   18.24 144.45 227.62   18.13
  -4  -3  -3  8263.5   193.7   2-0.07213-0.43783-0.88125 0.58288 0.46711-0.68452  2 505.75 213.33   82.13 506.42 213.46   82.26
  -4  -3  -3  8123.4   183.2   2 0.12758-0.63767-0.17046-0.12793-0.97707 0.75961  0 401.69  93.42  190.80 402.06  93.64  190.78
  -4  -3   3  7584.3   227.4   1-0.64994 0.13981-0.10269-0.19532-0.75302 0.97072  0 170.45 161.59   57.78 170.50 161.65   57.72
  -4  -3   3  8153.1   232.8   2 0.06141-0.57146-0.96214 0.66353-0.26556 0.48287  0 355.77  80.03  126.08 355.86  80.20  126.30
  -4   3  -3  7179.8   255.2   1-0.65222 0.14156-0.68626 0.98440-0.32196 0.10449  0 461.24 133.54  100.18 461.44 133.58  100.26
  -4   3  -3  7182.9   207.3   2-0.21822-0.29156 0.74808-0.44966 0.62670-0.84427  0 373.52  83.70  331.15 373.38  83.91  331.31
  -4   3   3  9145.9   257.7   2-0.19085-0.31900-0.33519 0.63345 0.92262-0.70497  0 334.98  77.95   40.01 335.07  78.17   39.98
   4  -3  -3  8666.0   232.5   2-0.03853 0.54848-0.95178 0.65340 0.30436-0.52176  0 257.03 425.32   92.72 257.17 425.10   92.62
   4  -3  -3  8463.7   213.1   2 0.09927 0.41073 0.21349-0.51200-0.97189 0.75442  0 141.84 244.09  213.13 141.81 244.06  212.97
   4  -3   3  7869.7   239.6   1-0.27675 0.78741-0.90589 0.60775 0.32059-0.10312  0 171.86 356.65  146.14 171.82 356.53  145.93
   4  -3   3  8793.5   185.3   2-0.19320 0.70305-0.31701 0.01876 0.92853-0.71089  0 223.08 407.67   38.99 222.95 407.45   38.88
   4  -3   3  7986.7   174.7   2 0.09419 0.41586-0.86357 0.56497-0.49535 0.71265  0 142.42 278.50  140.81 142.37 278.39  140.74
   4   3  -3  7065.7   256.5   1-0.27488 0.78491 0.56959-0.27174-0.77460 0.55684  0 464.20 380.00   12.41 464.16 379.90   12.46
   4   3  -3  7798.8   195.0   2 0.13040 0.37969-0.25644 0.55483-0.95772 0.74027  0 238.63 416.82  185.76 238.36 416.43  185.72
   4   3  -3  6925.3   179.3   2-0.14412 0.65398 0.98429-0.68576 0.10198-0.31944  0 141.26 262.68  297.46 141.26 262.51  297.48
   4   3   3  7673.0   137.0   2-0.08732 0.59718 0.97198-0.67344-0.21825 0.43571  0 198.37 388.43  278.77 198.29 388.18  278.74
   4   3   3  7056.0   130.1   2-0.23732 0.74715 0.43667-0.13841 0.86775-0.65009  0 148.21 307.33  353.99 148.23 307.14  354.07
  -4  -3  -4 342.872 102.286   1-0.29651-0.21353 0.54507-0.84292-0.78421 0.49386  0 134.21 237.93   14.45 134.05 237.98   14.41
  -4  -3  -4 338.748  89.756   2 0.11502-0.62501 0.04180-0.34031-0.99248 0.70253  0 401.12  78.73  202.86 400.96  78.93  203.00
  -4  -3   4 304.061  87.879   1-0.68113 0.17100-0.23610-0.06191-0.69305 0.98332  0 168.24 148.38   66.35 168.23 148.49   66.30
  -4  -3   4 295.009 117.539   2 0.04819-0.55824-0.98248 0.68387-0.18003 0.46977  0 343.36  66.30  120.89 343.14  66.51  121.21
  -4   3  -4 315.267 148.642   1-0.64987 0.13921-0.69181 0.98995-0.31475 0.02479  0 489.29 142.23  100.59 489.11 142.35  100.80
  -4   3  -4 279.109 104.520   2-0.20081-0.30897 0.85222-0.55380 0.48310-0.77320  0 373.15  70.93  321.36 373.03  70.83  321.05
  -4   3   4 296.959 122.289   2-0.17659-0.33326-0.43491 0.73316 0.88299-0.59280  0 323.45  66.14   46.35 323.54  66.22   46.18
   4  -3  -4 336.912 113.133   2-0.02193 0.53188-0.97558 0.67720 0.21856-0.50843  0 266.83 440.13   98.07 266.99 440.03   97.81
   4  -3  -4 375.086  83.482   2 0.08513 0.42487 0.33215-0.63066-0.93938 0.64943  0 134.16 231.84  220.43 134.29 231.79  220.07
   4  -3   4 294.742  96.782   1-0.28264 0.79329-0.90652 0.60838 0.31358-0.02362  0 155.16 346.64  145.32 155.04 346.39  145.40
   4  -3   4 286.103  71.233   2-0.21182 0.72167-0.14830-0.14995 0.96599-0.67580  0 222.25 419.16   29.11 222.32 419.11   28.92
   4  -3   4 365.803  67.508   2 0.07316 0.43690-0.93562 0.63701-0.34534 0.63508  0 133.48 275.09  131.41 133.11 275.30  131.16
   4   3  -4 392.373 143.288   1-0.32627 0.83630 0.50994-0.21209-0.79593 0.50558  0 467.69 397.22   17.39 467.80 397.27   17.13
   4   3  -4 258.423  81.975   2 0.13208 0.37801-0.38661 0.68501-0.91274 0.62279  0 248.70 433.12  178.00 248.81 433.04  177.82
   4   3  -4 287.424  71.008   2-0.13342 0.64328 0.99033-0.69179 0.03809-0.32804  0 132.50 248.73  293.60 132.59 248.77  293.75
   4   3   4 292.575  50.285   2-0.23452 0.74437 0.20174 0.09651 0.95095-0.66075  0 137.42 302.48    8.53 137.55 302.12    8.68
   4   3   4 308.035  54.054   2-0.11416 0.62402 0.99082-0.69228-0.07246 0.36241  0 198.52 401.82  287.42 198.59 401.55  287.31
  -4  -3  -5  1697.0   179.3   1-0.26360-0.24643 0.58202-0.87987-0.76926 0.40633  0 122.09 248.59   11.46 121.90 248.56   11.45
  -4  -3  -5  1211.3   121.5   2 0.10008-0.61007 0.20598-0.50449-0.97343 0.61099  0 398.77  59.85  212.48 398.83  60.06  212.53
  -4  -3   5 983.423 128.469   1-0.69704 0.18691-0.36487 0.06686-0.61726 0.98010  0 163.92 134.13   74.98 163.96 134.15   74.92
  -4  -3   5  1322.1   162.8   2 0.03614-0.54620-0.99380 0.69520-0.10513 0.46730  0 329.63  50.66  116.64 329.90  50.69  116.81
  -4   3  -5  1130.3   135.8   2-0.18260-0.32718 0.91867-0.62025 0.35030-0.71292  0 371.57  53.62  312.38 371.46  53.77  312.45
  -4   3   5  1597.3   176.1   2-0.16522-0.34473-0.50569 0.80406 0.84675-0.48440  0 310.97  51.87   51.06 311.18  52.04   50.82
   4  -3  -5  1404.3   161.0   2-0.00734 0.51740-0.98979 0.69118 0.14238-0.50455  0 277.91 458.04  102.34 277.73 458.01  102.38
   4  -3  -5  1545.3   144.0   2 0.07273 0.43727 0.41850-0.71701-0.90530 0.54286  0 125.37 218.56  225.50 125.12 218.43  225.44
   4  -3   5  1215.1   147.0   1-0.28163 0.79229-0.90642 0.60828 0.31478 0.04768  0 137.66 336.72  145.37 137.53 336.59  145.49
   4  -3   5  1232.6   126.5   2-0.22394 0.73379-0.00299-0.29526 0.97460-0.61186  0 222.51 434.79   20.54 222.37 434.62   20.53
   4  -3   5  1406.3   114.7   2 0.05386 0.45620-0.97485 0.67625-0.21625 0.57843  0 121.68 270.48  123.19 121.39 270.43  123.34
   4   3  -5  1154.2   172.5   1-0.37056 0.88059 0.45374-0.15589-0.81043 0.44750  0 474.92 417.27   21.03 474.77 416.94   21.31
   4   3  -5  1269.9   152.0   2 0.13112 0.37897-0.47545 0.77385-0.86992 0.50749  0 259.85 452.48  172.28 259.75 452.24  172.16
   4   3  -5  1081.8   127.2   2-0.12356 0.63342 0.99215-0.69361-0.01940-0.34304  0 122.62 234.42  290.26 122.48 234.38  290.40
   4   3   5  1366.7    98.6   2-0.22441 0.73426 0.00392 0.29433 0.97449-0.61175  0 124.72 295.76   19.97 124.48 295.47   20.13
   4   3   5  1125.0   101.5   2-0.13265 0.64251 0.99060-0.69206 0.03346 0.32898  0 199.70 418.92  293.39 199.51 418.76  293.48
  -4  -3  -6 358.720 116.329   1-0.23767-0.27237 0.60921-0.90706-0.75656 0.32103  0 107.91 259.58    9.43 107.92 259.58    9.18
  -4  -3  -6 266.803 118.862   2 0.08623-0.59622 0.32373-0.62224-0.94221 0.50728  0 396.09  37.07  219.52 396.15  37.32  219.56
  -4  -3   6 262.337 103.969   1-0.69718 0.18705-0.48355 0.18555-0.52926 0.96467  0 157.79 118.86   83.33 157.70 118.22   83.39
  -4  -3   6 248.837 165.299   2 0.02488-0.53493-0.99897 0.70036-0.03798 0.47259  0 315.91  32.82  112.56 316.05  32.60  112.89
  -4   3  -6 312.794 139.047   2-0.16484-0.34494 0.95864-0.66022 0.23204-0.66718  0 368.84  32.80  305.40 369.19  32.77  305.21
  -4   3   6 288.820 161.442   2-0.15640-0.35356-0.55556 0.85394 0.81663-0.38182  0 298.24  35.08   54.42 297.93  35.33   54.20
   4  -3  -6  54.390 131.617   2 0.00548 0.50457-0.99735 0.69875 0.07250-0.50710  0 289.73 479.01  105.95 289.39 479.37  106.47
   4  -3  -6 188.470  93.683   2 0.06300 0.44699 0.48043-0.77893-0.87477 0.43984  0 113.83 204.12  228.97 114.19 203.97  229.44
   4  -3   6 261.216 122.784   1-0.27552 0.78618-0.90574 0.60760 0.32205 0.11289  0 119.15 326.98  146.42 118.94 326.96  146.04
   4  -3   6 307.169  91.909   2-0.23075 0.74060 0.11340-0.41165 0.96638-0.53109  0 223.23 454.07   13.60 222.70 453.82   13.83
   4  -3   6 253.994  76.712   2 0.03631 0.47374-0.99369 0.69508-0.10616 0.54077  0 107.42 264.52  116.67 107.33 264.34  116.87
   4   3  -6 224.485 174.332   1-0.40730 0.91733 0.40330-0.10545-0.81943 0.38390  0 485.15 439.86   24.98 485.32 439.85   24.92
   4   3  -6 346.662 151.636   2 0.12950 0.38059-0.53556 0.83395-0.83451 0.39960  0 271.64 474.77  167.92 271.32 474.57  168.15
   4   3  -6 223.332  86.606   2-0.11416 0.62402 0.99081-0.69228-0.07250-0.36243  0 110.54 219.62  286.97 110.82 219.23  287.31
   4   3   6 222.620  65.370   2-0.21211 0.72197-0.14525 0.44351 0.96639-0.53110  0 109.66 287.67   28.97 109.25 287.99   28.74
   4   3   6 153.024  67.951   2-0.14655 0.65641 0.98234-0.68381 0.11629 0.31863  0 200.35 439.11  298.32 200.34 439.24  298.32
  -4  -3  -7 20655.9   461.7   1-0.21849-0.29154 0.62854-0.92639-0.74646 0.23835  0  92.12 271.24    7.50  91.86 271.29    7.52
  -4  -3  -7 19886.3   388.1   2 0.07472-0.58472 0.40509-0.70360-0.91122 0.40381  2 393.23  10.09  224.60 393.47  10.33  224.59
  -4  -3   7 18985.7   373.4   1-0.68264 0.17251-0.58849 0.29049-0.43322 0.94120  0 149.50 100.19   91.49 149.42 100.28   91.59
  -4  -3   7 20562.1   471.6   2 0.01431-0.52436-0.99962 0.70101 0.02370 0.48335  0 301.26  11.51  109.12 301.47  11.82  109.31
  -4   3  -7 19144.9   448.7   2-0.14834-0.36152 0.98058-0.68204 0.12829-0.63571  2 366.57   7.37  298.76 366.73   7.46  299.03
  -4   3   7 22516.8   497.6   2-0.15000-0.35995-0.58955 0.88793 0.79368-0.28640  0 283.43  15.60   56.57 283.66  15.85   56.58
   4  -3  -7 21916.8   430.3   2 0.05562 0.45437 0.52378-0.82229-0.85004 0.34262  0 101.58 188.26  232.33 101.31 188.24  232.33
   4  -3   7 20281.5   449.9   1-0.26542 0.77608-0.90445 0.60630 0.33396 0.17348  0  99.17 317.36  146.98  98.85 317.31  146.93
   4  -3   7 19996.9   354.8   2-0.23450 0.74436 0.20124-0.49949 0.95106-0.44322  0 223.07 477.18    8.84 222.86 476.94    8.71
   4  -3   7 20067.0   343.1   2 0.02025 0.48981-0.99973 0.70113-0.01113 0.51818  0  91.19 257.50  111.11  90.82 257.44  111.34
   4   3  -7 15246.5   428.6   1-0.43656 0.94659 0.36007-0.06222-0.82448 0.31637  0 499.78 467.00   28.28 499.78 467.06   27.92
   4   3  -7 20870.5   456.7   2 0.12764 0.38245-0.57536 0.87375-0.80788 0.30048  0 283.74 501.05  165.40 283.68 500.70  165.39
   4   3  -7 18040.6   380.0   2-0.10507 0.61493 0.98687-0.68834-0.12264-0.38477  0  97.54 203.29  284.38  97.26 203.15  284.38
   4   3   7 21953.2   326.8   2-0.20101 0.71086-0.25127 0.54952 0.94681-0.43898  0  92.19 280.33   34.97  91.81 280.14   34.95
   4   3   7 17925.4   308.6   2-0.15749 0.66727 0.96995-0.67153 0.18548 0.32219  0 200.82 463.58  302.34 200.77 463.20  302.40
  -4  -3  -8 581.209 157.773   1-0.20532-0.30471 0.64130-0.93915-0.73931 0.15861  0  73.51 283.92    6.37  73.38 283.95    6.39
  -4  -3   8 653.424 139.514   1-0.65604 0.14591-0.67719 0.37918-0.33320 0.91375  0 138.90  80.06   99.06 138.96  79.64   99.41
   4  -3  -8 410.924 134.889   2 0.05036 0.45964 0.55321-0.85172-0.83152 0.25162  0  85.47 171.02  233.95  86.15 171.02  234.35
   4  -3   8 556.181 148.317   1-0.25206 0.76271-0.90242 0.60427 0.34945 0.23048  0  76.48 307.59  148.38  76.74 307.43  148.11
   4  -3   8 444.525 134.737   2-0.23641 0.74626 0.26524-0.56349 0.93475-0.35436  2 222.50 503.71    4.78 222.47 504.47    4.92
   4  -3   8 648.404 106.806   2 0.00550 0.50455-0.99736 0.69876 0.07236 0.50712  0  72.05 249.85  106.50  71.62 249.97  106.48
   4   3  -8 450.733 129.619   2-0.09621 0.60607 0.98061-0.68208-0.17070-0.40920  0  81.70 185.58  281.53  81.49 185.86  281.56
   4   3   8 592.254  97.378   2-0.19229 0.70214-0.32414 0.62239 0.92626-0.34587  0  72.02 272.06   39.40  71.79 272.19   39.31
   4   3   8 590.789 118.219   2-0.16708 0.67686 0.95461-0.65619 0.24660 0.33359  0 199.51 491.17  306.43 200.11 491.06  306.09
  -4  -3  -9 374.875 160.743   1-0.19768-0.31235 0.64859-0.94644-0.73502 0.08173  0  52.54 297.79    5.55  51.99 297.99    5.74
  -4  -3   9 156.164 140.943   1-0.61966 0.10900-0.74940 0.45126-0.23330 0.88571  0 126.67  54.76  107.06 126.40  55.30  106.77
   4  -3  -9 424.255 155.521   2 0.04679 0.46321 0.57195-0.87046-0.81895 0.16656  0  68.63 151.99  235.67  68.14 151.91  235.65
   4  -3   9 280.330 160.814   1-0.23588 0.74672-0.89945 0.60121 0.36789 0.28454  0  51.82 297.12  149.43  51.81 297.13  149.51
   4  -3   9 309.221 110.976   2-0.00825 0.51830-0.98906 0.69045 0.14730 0.50462  0  49.06 241.96  101.98  49.14 241.99  102.09
   4   3  -9 310.203 143.765   2-0.08751 0.59737 0.97218-0.67365-0.21725-0.43513  0  62.77 166.87  278.62  62.88 166.94  278.79
   4   3   9 283.615 101.425   2-0.18570 0.69555-0.37303 0.67128 0.90905-0.25611  0  48.65 264.13   42.35  48.64 264.20   42.30
  -4  -3 -10  1098.6   211.6   1-0.19494-0.31509 0.65118-0.94903-0.73346 0.00759  0  27.02 313.93    5.45  26.89 313.95    5.50
  -4  -3  10  1378.1   201.3   1-0.57502 0.06436-0.80719 0.50905-0.13342 0.85833  0 111.00  25.63  113.68 111.01  26.00  113.87
   4  -3 -10  1270.7   213.5   2 0.04476 0.46523 0.58242-0.88092-0.81166 0.08678  0  45.94 130.23  235.97  46.50 130.28  236.39
   4  -3  10  1610.1   227.5   1-0.21736 0.72820-0.89541 0.59716 0.38858 0.33635  0  23.27 286.21  151.25  23.48 286.01  151.12
   4  -3  10  1198.4   160.8   2-0.02153 0.53148-0.97605 0.67767 0.21647 0.50822  0  22.88 233.53   97.99  22.68 233.56   97.93
   4   3 -10  1390.9   208.5   2-0.07894 0.58880 0.96164-0.66311-0.26270-0.46217  0  40.55 145.83  276.43  40.61 145.80  276.09
   4   3  10  1384.3   154.7   2-0.18128 0.69113-0.40391 0.70216 0.89666-0.17117  0  21.97 255.91   44.37  21.55 256.20   44.22
  -4  -4   0  8480.9   265.8   1-0.54362 0.03359 0.17209-0.56922-0.82150 0.82150  0 144.07 205.92   40.30 144.19 205.89   40.35
  -4  -4   0  8550.4   229.6   2 0.12063-0.63072-0.68057 0.28271-0.72269 0.72269  0 376.22  76.54  157.71 376.32  76.75  157.62
  -4   4   0  7917.5   217.1   1-0.69730 0.18717-0.36909 0.76643-0.61445 0.61445  0 400.63  84.03   75.09 400.77  84.28   75.21
  -4   4   0  9811.4   262.4   2-0.23524-0.27461 0.22407 0.17360 0.94576-0.94576  0 345.56  71.40    7.14 345.60  71.71    7.36
   4  -4   0  8700.1   198.9   1-0.29658 0.80724-0.90775 0.51022 0.29671-0.29671  0 213.19 407.70  144.03 213.06 407.54  144.14
   4  -4   0  9959.3   231.8   2-0.12854 0.63849-0.69051 0.29268 0.71181-0.71181  0 247.24 427.90   63.85 247.01 427.66   64.13
   4  -4   0  8795.2   213.6   2 0.13189 0.37820-0.35682-0.04104-0.92482 0.92482  0 136.08 251.88  179.84 136.04 251.76  179.67
   4   4   0  8887.6   189.7   2 0.07004 0.43995 0.43600-0.03799-0.89722 0.89722  0 220.28 413.07  226.49 220.18 412.74  226.55
   4   4   0  7936.2   176.6   2-0.21134 0.72111 0.79627-0.39838 0.56682-0.56682  0 137.17 279.59  326.98 137.27 279.54  326.87
  -4  -4  -1  3161.4   192.1   1-0.49824-0.01179 0.25844-0.65557-0.82763 0.75504  0 139.95 216.73   34.68 140.04 216.67   34.75
  -4  -4  -1  2862.9   177.6   2 0.12900-0.63909-0.54724 0.14938-0.82697 0.75449  0 382.60  76.54  167.40 382.85  76.59  167.35
  -4  -4   1  3180.6   185.7   1-0.58779 0.07776 0.07495-0.47208-0.80553 0.87812  0 146.41 194.78   46.51 146.49 194.80   46.53
  -4  -4   1  3244.7   185.0   2 0.10861-0.61867-0.78295 0.38481-0.61253 0.68496  0 367.86  72.84  149.00 368.00  72.89  148.93
  -4   4  -1  3219.3   198.8   1-0.69820 0.18807-0.46330 0.86065-0.54577 0.47320  0 425.83  93.74   81.99 425.99  93.94   81.90
  -4   4  -1  3164.5   197.3   2-0.23782-0.27201 0.38970 0.00798 0.88971-0.96226  0 350.78  70.19  357.00 350.86  70.55  357.05
  -4   4   1  2935.0   143.4   1-0.67499 0.16486-0.20435 0.60169-0.70896 0.78153  0 374.07  73.82   64.08 374.02  74.21   64.24
  -4   4   1  3828.4   211.3   2-0.22804-0.28182 0.06267 0.33500 0.97163-0.89909  0 338.67  69.30   16.72 338.77  69.49   16.76
   4  -4  -1  3283.9   123.4   1-0.23112 0.74196-0.89849 0.50082 0.37323-0.44573  0 233.72 422.62  149.96 233.50 422.43  149.93
   4  -4  -1  3533.2   165.3   2-0.10545 0.61540-0.77990 0.38206 0.61696-0.68943  0 253.25 432.23   71.68 253.11 431.93   71.74
   4  -4  -1  3437.8   154.5   2 0.12843 0.38166-0.19055-0.20731-0.97324 0.90075  0 135.13 245.56  189.72 135.13 245.46  189.61
   4  -4   1  2996.8   151.7   1-0.32877 0.83943-0.90898 0.51145 0.25626-0.18377  0 195.08 394.50  141.15 195.00 394.41  141.17
   4  -4   1  3404.5   157.7   2-0.15168 0.66163-0.58113 0.18330 0.79955-0.72708  0 242.30 427.27   56.02 242.14 427.06   55.98
   4  -4   1  3201.4   144.9   2 0.13006 0.38002-0.51961 0.12175-0.84444 0.91693  0 134.72 256.11  169.10 134.68 255.99  169.23
   4   4  -1  3112.0   240.6   1-0.19596 0.70599 0.65022-0.25308-0.73404 0.66145  2 504.36 341.99    5.60 504.70 341.99    5.59
   4   4  -1  3339.8   142.6   2 0.09730 0.41270 0.23138 0.16663-0.96799 0.89550  0 227.33 419.21  213.99 227.24 418.90  214.02
   4   4  -1  2803.0   125.0   2-0.19720 0.70698 0.86788-0.46999 0.45595-0.52847  0 135.12 271.60  319.18 135.24 271.52  319.25
   4   4   1  3356.8   130.6   2 0.03545 0.47454 0.62844-0.23043-0.77705 0.84954  0 214.51 410.83  239.88 214.48 410.57  239.75
   4   4   1  2746.3   113.9   2-0.22402 0.73380 0.69452-0.29663 0.68371-0.61118  0 136.71 285.20  335.96 136.74 285.19  335.82
  -4  -4  -2 11367.3   312.0   1-0.45415-0.05588 0.33276-0.72989-0.82645 0.68128  0 133.93 227.27   29.97 134.09 227.31   29.79
  -4  -4  -2 11156.3   245.8   2 0.13207-0.64216-0.38952-0.00834-0.91150 0.76653  0 386.88  71.86  177.76 387.36  72.11  177.64
  -4  -4   2 11015.5   294.6   1-0.62769 0.11756-0.03090-0.36644-0.77785 0.92299  0 146.85 183.18   53.05 146.95 183.21   53.20
  -4  -4   2 10715.8   268.4   2 0.09541-0.60547-0.85801 0.45987-0.50469 0.64956  0 358.14  65.74  141.18 358.29  65.85  141.36
  -4   4  -2 10555.1   295.4   1-0.69398 0.18385-0.52016 0.91751-0.49781 0.35268  0 451.59 102.79   86.13 451.70 103.07   86.16
  -4   4  -2 10816.3   277.0   2-0.23440-0.27538 0.54508-0.14718 0.80495-0.95000  0 354.42  65.35  346.88 354.36  65.58  346.91
  -4   4   2 10902.1   150.1   1-0.56804 0.05801 0.12068 0.27645-0.81410 0.95928  0 340.59  64.11   43.62 340.50  64.38   43.64
  -4   4   2 13617.1   320.8   2-0.21779-0.29206-0.08193 0.47960 0.97255-0.82745  0 330.36  63.89   24.82 330.45  64.17   25.08
   4  -4  -2 13043.6   159.8   1-0.07422 0.58506-0.84297 0.44531 0.53281-0.67780  0 261.58 440.26  163.02 261.71 440.07  163.17
   4  -4  -2 12076.1   287.5   2-0.08390 0.59385-0.84947 0.45164 0.52092-0.66586  0 260.35 439.89   78.56 260.34 439.67   78.63
   4  -4  -2 11875.6   260.1   2 0.12056 0.38953-0.03629-0.36157-0.99204 0.84707  0 132.06 237.35  198.62 132.09 237.32  198.53
   4  -4   2 10267.1   256.6   1-0.34393 0.85459-0.90866 0.51114 0.23675-0.09177  0 177.99 382.64  139.75 177.89 382.50  139.76
   4  -4   2 11794.4   246.7   2-0.17339 0.68324-0.45593 0.05826 0.87296-0.72786  0 238.70 430.41   47.59 238.50 430.17   47.53
   4  -4   2 11956.8   241.2   2 0.12199 0.38810-0.66455 0.26669-0.73722 0.88219  0 130.93 258.21  158.87 130.89 258.10  158.86
   4   4  -2 10606.8   332.1   1-0.25073 0.76076 0.59567-0.19853-0.76310 0.61792  2 503.81 357.38   10.04 503.85 357.38   10.32
   4   4  -2 11997.1   243.5   2 0.11489 0.39511 0.04345 0.35456-0.99243 0.84745  0 235.46 428.81  202.98 235.32 428.46  203.09
   4   4  -2  9605.6   215.8   2-0.18332 0.69310 0.91647-0.51857 0.35565-0.50069  0 130.91 261.78  312.93 131.01 261.69  312.79
   4   4   2 11073.9   202.3   2-0.00277 0.51263 0.78236-0.38431-0.62282 0.76779  0 210.31 413.11  252.44 210.25 412.81  252.46
   4   4   2 10606.9   194.1   2-0.23363 0.74341 0.56203-0.16414 0.79343-0.64839  0 133.31 288.27  345.81 133.37 288.13  345.73
  -4  -4  -3  8444.3   284.5   1-0.41318-0.09685 0.39483-0.79196-0.82060 0.60284  0 126.38 237.87   25.56 126.34 237.91   25.52
  -4  -4  -3  9727.0   246.3   2 0.12971-0.63979-0.22365-0.17421-0.96600 0.74854  0 389.56  62.82  187.71 389.93  63.09  187.67
  -4  -4   3  8553.0   268.0   1-0.66051 0.15038-0.14176-0.25559-0.73731 0.95502  0 145.43 170.93   59.91 145.51 170.94   60.21
  -4  -4   3  9335.0   283.5   2 0.08168-0.59174-0.91071 0.51257-0.40488 0.62219  0 347.31  55.78  134.82 347.45  55.91  134.85
  -4   4  -3  8618.6   316.1   1-0.68917 0.17904-0.55455 0.95189-0.46640 0.24869  0 478.95 111.45   89.19 479.01 111.72   88.84
  -4   4  -3  8765.1   268.5   2-0.22555-0.28423 0.67837-0.28048 0.69924-0.91681  0 356.51  56.58  337.13 356.38  56.81  337.11
  -4   4   3 11037.1   318.5   2-0.20629-0.30357-0.20311 0.60078 0.95718-0.73953  0 320.80  55.69   31.68 320.91  55.95   32.13
   4  -4  -3 10073.0   289.8   2-0.06396 0.57391-0.90129 0.50345 0.42848-0.64588  0 268.62 451.04   84.78 268.68 450.73   84.79
   4  -4  -3  7956.2   234.9   2 0.11061 0.39939 0.09700-0.49501-0.98912 0.77166  0 127.20 227.61  206.22 127.07 227.59  206.18
   4  -4   3  8060.0   246.3   1-0.34889 0.85954-0.90843 0.51090 0.23031-0.01284  0 161.01 371.61  139.22 160.90 371.48  139.29
   4  -4   3  9295.3   230.2   2-0.19220 0.70205-0.32483-0.07284 0.92604-0.70839  0 236.12 437.56   39.27 235.97 437.28   39.35
   4  -4   3  8974.7   217.8   2 0.10887 0.40119-0.78116 0.38301-0.61477 0.83208  0 124.99 258.19  149.06 124.64 258.06  149.10
   4   4  -3  9612.9   240.8   2 0.12493 0.38515-0.11355 0.51141-0.98565 0.76819  0 244.42 441.50  193.82 244.07 441.04  194.09
   4   4  -3  8459.6   216.9   2-0.17013 0.67991 0.94870-0.55080 0.26652-0.48409  0 125.14 250.55  307.16 124.84 250.45  307.29
   4   4   3  9166.2   193.5   2-0.03875 0.54861 0.88651-0.48846-0.46109 0.67855  0 207.47 419.91  263.79 207.41 419.66  263.68
   4   4   3  6658.9   165.4   2-0.23768 0.74751 0.40724-0.00956 0.88185-0.66419  0 127.11 288.54  355.94 126.99 288.38  355.95
  -4  -4  -4 880.551 134.285   1-0.37677-0.13326 0.44545-0.84258-0.81217 0.52182  0 116.87 248.76   22.00 116.79 248.68   21.91
  -4  -4  -4 795.260 128.839   2 0.12247-0.63255-0.06695-0.33091-0.99021 0.70027  0 390.89  49.38  196.66 390.81  49.61  196.76
  -4  -4   4 711.646 126.112   1-0.68415 0.17402-0.25343-0.14392-0.68390 0.97417  0 141.77 157.69   67.26 142.10 157.77   67.44
  -4  -4   4 776.053 158.432   2 0.06855-0.57861-0.94713 0.54899-0.31344 0.60318  0 335.76  43.23  129.18 335.75  43.25  129.20
  -4   4  -4 807.557 146.577   2-0.21331-0.29647 0.78349-0.38560 0.58364-0.87374  0 357.10  44.02  328.28 357.01  44.22  328.10
  -4   4   4 825.711 158.785   2-0.19524-0.31462-0.30011 0.69778 0.93371-0.64352  0 310.03  45.09   38.00 310.26  45.01   37.87
   4  -4  -4 680.641 146.837   2-0.04596 0.55591-0.93887 0.54103 0.34119-0.63107  0 278.32 465.10   90.00 278.04 465.09   90.34
   4  -4  -4 951.732 114.767   2 0.10007 0.40992 0.20600-0.60401-0.97342 0.68347  0 120.33 216.39  212.60 120.15 216.40  212.53
   4  -4   4 568.819 118.202   1-0.34702 0.85768-0.90852 0.51100 0.23275 0.05721  0 143.63 361.29  139.45 143.54 361.11  139.47
   4  -4   4 752.407 106.693   2-0.20687 0.71672-0.19754-0.20013 0.95822-0.66802  0 234.57 448.29   31.63 234.36 448.30   31.80
   4  -4   4 760.442  92.981   2 0.09334 0.41672-0.86737 0.46923-0.48883 0.77857  0 116.10 256.15  140.32 115.86 256.19  140.30
   4   4  -4 781.848 117.725   2 0.12985 0.38023-0.23662 0.63449-0.96288 0.67294  0 253.92 457.15  187.03 253.67 456.90  186.90
   4   4  -4 564.447  92.708   2-0.15772 0.66750 0.96963-0.57173 0.18694-0.47704  0 117.08 238.06  302.52 116.90 238.10  302.49
   4   4   4 702.483  80.894   2-0.23593 0.74578 0.24848 0.14919 0.93947-0.64927  0 117.89 286.18    6.04 117.66 286.09    5.92
   4   4   4 767.394  88.477   2-0.06918 0.57904 0.94740-0.54936-0.31247 0.60242  0 205.86 431.07  272.98 205.70 430.86  273.06
  -4  -4  -5  5419.9   258.2   1-0.34583-0.16421 0.48583-0.88296-0.80273 0.43979  0 105.47 259.75   18.95 105.30 259.80   18.95
  -4  -4  -5  5321.2   253.2   2 0.11320-0.62319 0.06690-0.46491-0.99132 0.62888  0 390.23  31.52  204.44 390.51  31.78  204.44
  -4  -4   5  4854.6   228.9   1-0.69687 0.18674-0.36232-0.03502-0.61894 0.98178  0 136.75 143.43   74.77 136.71 143.39   74.75
  -4  -4   5  5386.7   303.6   2 0.05600-0.56605-0.97156 0.57342-0.23009 0.59227  0 323.23  27.78  124.14 323.26  28.03  124.17
  -4   4  -5  4774.3   275.0   2-0.19868-0.31110 0.86170-0.46381 0.46690-0.82952  0 356.71  27.32  319.78 356.53  27.68  319.97
  -4   4   5  5766.5   305.9   2-0.18541-0.32444-0.37508 0.77275 0.90826-0.54552  0 298.41  31.04   42.43 298.50  31.37   42.43
   4  -4  -5  4187.2   271.8   2-0.02979 0.53974-0.96529 0.56745 0.25949-0.62184  0 288.37 483.22   95.37 288.44 483.00   95.35
   4  -4  -5  5861.1   236.0   2 0.09015 0.41984 0.29185-0.68986-0.95221 0.58977  0 111.74 203.82  217.65 111.36 203.84  217.63
   4  -4   5  5073.2   256.8   1-0.34022 0.85088-0.90879 0.51127 0.24156 0.12089  0 125.70 351.31  140.02 125.39 351.19  140.11
   4  -4   5  5291.8   209.5   2-0.21769 0.72754-0.08315-0.31452 0.97247-0.60973  0 233.54 463.43   25.09 233.34 463.22   25.15
   4  -4   5  5356.4   195.5   2 0.07643 0.43363-0.92689 0.52875-0.36748 0.72965  0 104.96 252.84  132.48 104.59 252.73  132.52
   4   4  -5  4716.3   266.7   2 0.13164 0.37844-0.32947 0.72733-0.93494 0.57252  0 264.16 476.18  181.30 263.99 475.90  181.35
   4   4  -5  4411.3   200.3   2-0.14631 0.65618 0.98255-0.58450 0.11484-0.47727  0 107.43 224.81  298.15 107.12 224.68  298.24
   4   4   5  5385.6   171.5   2-0.23025 0.74010 0.10372 0.29395 0.96759-0.60485  0 106.16 282.26   14.27 105.75 282.12   14.39
   4   4   5  5174.4   181.5   2-0.09370 0.60356 0.97840-0.58035-0.18428 0.54672  0 204.74 446.49  280.84 204.61 446.21  280.75
  -4  -4  -6  3906.1   245.7   1-0.32039-0.18965 0.51704-0.91418-0.79374 0.35821  0  91.95 271.50   16.62  91.77 271.49   16.59
  -4  -4  -6  4137.7   274.9   2 0.10340-0.61340 0.17421-0.57222-0.97926 0.54434  2 389.69   9.15  210.65 389.73   9.41  210.66
  -4  -4   6  3761.0   240.6   1-0.69813 0.18800-0.46498 0.06764-0.54443 0.97984  0 129.26 127.49   81.97 129.28 127.44   82.02
  -4  -4   6  4303.6   323.7   2 0.04397-0.55403-0.98713 0.58899-0.15373 0.58834  0 309.65   9.94  119.60 309.92   9.95  119.66
  -4   4  -6  3461.7   303.8   2-0.18321-0.32657 0.91680-0.51890 0.35485-0.78999  2 355.22   7.13  312.75 355.28   6.86  312.74
  -4   4   6  4693.7   349.0   2-0.17712-0.33273-0.43144 0.82911 0.88458-0.44929  0 285.58  14.74   45.77 285.63  14.90   45.96
   4  -4  -6  4481.8   232.8   2 0.08169 0.42831 0.35779-0.75580-0.93022 0.49530  0 100.97 189.91  221.66 100.59 189.89  221.64
   4  -4   6  3697.5   249.0   1-0.32964 0.84029-0.90897 0.51145 0.25516 0.17978  0 106.30 341.58  141.26 106.02 341.54  141.09
   4  -4   6  3875.4   216.8   2-0.22509 0.73494 0.01391-0.41158 0.97424-0.53895  0 232.74 482.46   19.56 232.55 482.23   19.56
   4  -4   6  4094.2   189.9   2 0.05983 0.45023-0.96501 0.56687-0.25528 0.68989  0  91.21 248.05  125.71  90.79 247.98  125.68
   4   4  -6  4167.5   312.0   2 0.13213 0.37796-0.39809 0.79596-0.90778 0.47287  0 275.20 499.10  177.01 275.14 498.70  177.10
   4   4  -6  3622.5   209.8   2-0.13522 0.64508 0.98962-0.59157 0.04872-0.48365  0  95.61 210.35  294.40  95.45 210.20  294.37
   4   4   6  4214.3   170.9   2-0.22292 0.73278-0.01717 0.41484 0.97468-0.53939  0  91.60 277.06   21.25  91.27 276.95   21.35
   4   4   6  3933.4   185.1   2-0.11373 0.62359 0.99068-0.59264-0.07489 0.50982  0 203.65 465.70  287.17 203.60 465.48  287.17
  -4  -4  -7 486.305 145.654   1-0.30056-0.20947 0.54040-0.93753-0.78590 0.27778  0  76.29 283.70   14.60  75.96 284.02   14.78
  -4  -4   7 520.911 150.217   1-0.68853 0.17840-0.55842 0.16107-0.46271 0.97068  0 119.92 109.57   88.97 119.65 109.42   89.15
   4  -4  -7 470.788 133.960   2 0.07446 0.43554 0.40690-0.80491-0.91043 0.40302  0  87.69 174.44  224.96  87.58 174.41  224.70
   4  -4   7 553.570 149.749   1-0.31607 0.82673-0.90874 0.51122 0.27255 0.23488  0  85.04 331.89  142.36  84.98 331.97  142.36
   4  -4   7 425.973  99.003   2 0.04384 0.46621-0.98726 0.58912-0.15294 0.65999  0  74.30 242.34  119.56  74.35 242.15  119.61
   4   4  -7 279.153 116.386   2-0.12467 0.63453 0.99211-0.59407-0.01299-0.49442  0  81.86 194.56  290.52  81.63 194.50  290.77
   4   4   7 549.427  96.942   2-0.21498 0.72483-0.11321 0.51088 0.97004-0.46220  0  73.63 271.46   26.50  74.11 270.92   26.89
   4   4   7 276.262 107.012   2-0.13022 0.64008 0.99130-0.59325 0.01920 0.48821  0 202.42 488.95  292.68 202.21 488.98  292.65
  -4  -4  -8  3614.4   275.1   1-0.28617-0.22387 0.55696-0.95409-0.77968 0.19898  0  57.57 297.78   13.45  57.43 297.74   13.47
  -4  -4   8  3769.6   281.6   1-0.66859 0.15846-0.64147 0.24413-0.37616 0.95671  0 107.82  88.83   96.24 107.70  88.69   96.13
   4  -4  -8  3941.1   287.2   2 0.06900 0.44100 0.44274-0.84075-0.89399 0.31409  0  72.12 157.11  226.80  71.94 157.13  226.99
   4  -4   8  3316.8   265.4   1-0.29986 0.81052-0.90797 0.51045 0.29270 0.28723  0  62.02 322.28  144.01  61.69 322.28  143.84
   4  -4   8  3376.0   210.8   2 0.02869 0.48136-0.99780 0.59966-0.05982 0.63930  0  54.97 235.65  113.95  54.74 235.50  114.18
   4   4  -8  3146.6   243.1   2-0.11440 0.62426 0.99088-0.59284-0.07114-0.50876  0  65.29 177.49  287.40  65.30 177.32  287.39
   4   4   8  3821.5   198.5   2-0.20814 0.71799-0.18553 0.58320 0.96034-0.37995  0  54.25 264.43   31.14  53.86 264.43   31.10
  -4  -4  -9  6365.0   347.7   1-0.27666-0.23338 0.56755-0.96468-0.77547 0.12218  0  35.79 313.11   12.61  35.63 313.13   12.62
   4  -4  -9  6711.4   348.3   2 0.06508 0.44492 0.46777-0.86578-0.88145 0.22906  0  53.62 137.56  228.62  53.08 137.57  228.61
   4  -4   9  6252.9   347.1   1-0.28135 0.79201-0.90639 0.50887 0.31511 0.33730  0  35.60 312.30  145.44  35.42 312.23  145.52
   4  -4   9  6926.9   283.5   2 0.01396 0.49609-0.99957 0.60143 0.02568 0.62624  0  31.87 228.27  109.25  31.47 228.16  109.20
   4   4  -9  5889.5   320.6   2-0.10436 0.61422 0.98646-0.58841-0.12655-0.52584  0  45.94 158.40  283.89  45.69 158.20  284.15
   4   4   9  6842.3   260.6   2-0.20252 0.71237-0.23823 0.63590 0.94986-0.29692  0  30.44 257.70   34.10  30.05 257.63   34.18
  -4  -5   0  44.613 101.704   1-0.58226 0.07223 0.08801-0.58443-0.80822 0.80822  0 120.25 215.54   45.48 119.77 215.44   45.71
  -4  -5   0 -56.542 122.798   2 0.12401-0.63410-0.63744 0.14012-0.76045 0.76045  0 363.97  43.18  161.10 364.27  43.13  160.91
  -4   5   0 119.166 118.586   1-0.66895 0.15882-0.17676 0.67344-0.72198 0.72198  0 420.77  56.77   62.55 420.81  56.56   62.45
  -4   5   0  14.959 135.874   2-0.23646-0.27339 0.26748 0.22960 0.93410-0.93410  0 328.20  42.38    4.69 328.31  41.97    4.78
   4  -5   0   2.785  76.106   1-0.38360 0.89426-0.90507 0.40817 0.18358-0.18358  0 198.45 426.84  135.42 198.56 426.72  135.95
   4  -5   0  -0.424 123.261   2-0.13742 0.64737-0.65103 0.15374 0.74651-0.74651  0 260.46 461.02   61.04 260.50 461.18   61.07
   4  -5   0  -7.672  71.714   2 0.13196 0.37813-0.37491-0.12242-0.91762 0.91762  0 116.67 231.43  178.57 116.43 231.32  178.55
   4   5   0  30.120  72.281   2 0.06961 0.44038 0.43879 0.05872-0.89589 0.89589  0 228.44 446.50  226.47 228.21 446.53  226.73
   4   5   0  22.350  55.390   2-0.21969 0.72947 0.73511-0.23774 0.64137-0.64137  0 114.37 262.47  332.16 114.80 262.24  332.43
  -4  -5  -1 590.649 128.311   1-0.54665 0.03662 0.16613-0.66255-0.82071 0.74812  0 116.70 226.70   40.84 116.52 226.57   40.74
  -4  -5  -1 682.425 141.387   2 0.12984-0.63992-0.52622 0.02889-0.84038 0.76789  0 370.77  41.80  168.60 370.48  42.08  168.78
  -4  -5   1 765.744 127.215   1-0.61616 0.10603 0.00216-0.49884-0.78762 0.86019  0 121.28 204.02   51.33 121.14 204.04   51.12
  -4  -5   1 710.852 140.018   2 0.11535-0.62544-0.73175 0.23443-0.67174 0.74422  0 356.63  40.51  153.53 356.66  40.61  153.48
  -4   5  -1 649.294 148.137   1-0.68951 0.17938-0.28957 0.78625-0.66387 0.59130  0 447.72  66.55   70.04 447.75  66.40   69.82
  -4   5  -1 604.581 149.644   2-0.23773-0.27210 0.40062 0.09647 0.88487-0.95742  0 333.57  39.88  356.41 333.34  40.16  356.37
  -4   5   1 633.867 112.862   1-0.61880 0.10867-0.00518 0.50186-0.78553 0.85810  0 393.24  46.32   51.88 393.08  46.03   51.58
  -4   5   1 673.653 151.294   2-0.23193-0.27792 0.13687 0.36022 0.96306-0.89051  0 322.01  40.67   12.43 321.96  40.58   12.47
   4  -5  -1 725.414  86.954   1-0.34905 0.85971-0.90842 0.41151 0.23009-0.30258  0 218.81 442.66  139.20 218.75 442.52  139.28
   4  -5  -1 815.702 147.560   2-0.11790 0.62785-0.73379 0.23650 0.66907-0.74154  0 266.26 465.31   67.65 266.43 464.88   67.67
   4  -5  -1 693.115 106.067   2 0.13001 0.38008-0.24205-0.25528-0.96152 0.88903  0 116.13 225.59  186.65 116.00 225.63  186.57
   4  -5   1 650.143 104.952   1-0.39899 0.90964-0.90254 0.40563 0.16198-0.08949  0 180.59 412.63  134.34 180.39 412.83  134.43
   4  -5   1 419.994 113.970   2-0.15619 0.66614-0.55666 0.05937 0.81593-0.74346  0 256.04 460.66   53.92 255.64 461.07   54.27
   4  -5   1 738.937 104.731   2 0.13040 0.37969-0.50605 0.00873-0.85259 0.92507  0 114.74 235.43  169.96 114.70 235.24  170.14
   4   5  -1 772.007 111.138   2 0.09126 0.41873 0.28276 0.21475-0.95484 0.88235  0 234.86 451.89  217.01 234.74 451.70  217.08
   4   5  -1 616.178  89.618   2-0.20912 0.71890 0.80955-0.31218 0.54854-0.62107  0 113.53 255.26  325.59 113.54 255.33  325.57
   4   5   1 743.753  99.796   2 0.04361 0.46638 0.58837-0.09085-0.80742 0.87990  0 222.94 445.25  236.65 222.70 445.18  236.82
   4   5   1 652.562  85.516   2-0.22854 0.73832 0.64286-0.14550 0.73109-0.65857  0 113.64 267.51  339.76 113.70 267.23  339.87
  -4  -5  -2  9727.7   314.9   1-0.51103 0.00100 0.23537-0.73178-0.82671 0.68154  0 111.50 237.60   36.27 111.43 237.58   36.26
  -4  -5  -2  9612.9   293.2   2 0.13211-0.64219-0.40287-0.09445-0.90567 0.76070  0 375.11  36.81  176.90 375.25  37.09  176.81
  -4  -5   2  9579.7   305.5   1-0.64616 0.13603-0.08935-0.40733-0.75796 0.90309  0 120.79 192.23   56.85 120.63 192.19   56.88
  -4  -5   2  9061.7   302.8   2 0.10492-0.61498-0.80771 0.31003-0.58017 0.72504  0 347.64  34.47  146.68 347.75  34.48  146.59
  -4   5  -2  8810.1   325.7   1-0.69703 0.18690-0.36478 0.86146-0.61732 0.47218  0 475.41  75.16   75.16 475.47  75.49   74.91
  -4   5  -2  9841.3   327.7   2-0.23509-0.27469 0.52810-0.03073 0.81599-0.96104  0 336.94  34.43  348.18 336.89  34.70  348.07
  -4   5   2  9365.5   181.8   1-0.49391-0.01612 0.26608 0.23034-0.82780 0.97298  0 360.59  35.00   34.20 360.50  35.34   34.24
  -4   5   2 11094.5   342.8   2-0.22521-0.28464 0.01584 0.48124 0.97418-0.82909  0 314.13  35.73   19.41 314.24  36.10   19.45
   4  -5  -2  9740.9   166.9   1-0.26948 0.78014-0.90499 0.40809 0.32920-0.47418  0 244.69 461.54  146.54 244.52 461.24  146.57
   4  -5  -2  9923.0   321.1   2-0.09859 0.60854-0.80345 0.30616 0.58715-0.73209  0 273.40 472.39   73.93 273.42 472.09   73.95
   4  -5  -2 10315.3   280.5   2 0.12505 0.38503-0.11588-0.38144-0.98536 0.84039  0 113.77 218.29  193.93 113.47 218.23  193.95
   4  -5   2  8247.1   258.3   1-0.40373 0.91439-0.90161 0.40471 0.15526-0.01028  0 163.05 400.46  133.98 162.97 400.31  133.95
   4  -5   2  9583.8   268.6   2-0.17365 0.68351-0.45425-0.04283 0.87378-0.72869  0 251.92 464.83   47.37 251.73 464.49   47.42
   4  -5   2  9442.4   254.0   2 0.12468 0.38541-0.62753 0.13021-0.76854 0.91351  0 111.04 237.52  161.80 110.68 237.42  161.64
   4   5  -2 10386.2   268.9   2 0.10728 0.40271 0.13424 0.36328-0.98513 0.84015  0 242.35 460.70  208.13 242.18 460.33  208.34
   4   5  -2  8424.7   231.9   2-0.19744 0.70721 0.86692-0.36955 0.45768-0.60272  0 110.29 246.76  319.27 110.07 246.74  319.36
   4   5   2 10150.5   239.1   2 0.01446 0.49553 0.71895-0.22143-0.69492 0.83989  0 218.31 448.03  246.90 218.17 447.65  246.87
   4   5   2  8321.0   210.7   2-0.23481 0.74459 0.53510-0.03773 0.81150-0.66645  0 110.28 270.39  347.62 110.08 270.27  347.59
  -4  -5  -3  4198.4   241.6   1-0.47699-0.03304 0.29524-0.79166-0.82783 0.61007  0 104.44 248.73   32.21 104.39 248.70   32.31
  -4  -5  -3  4316.2   257.7   2 0.13080-0.64088-0.27552-0.22180-0.95235 0.73490  0 378.49  27.70  184.60 378.56  27.93  184.59
  -4  -5   3  3933.5   242.5   1-0.67069 0.16055-0.18412-0.31256-0.71853 0.93623  0 118.28 179.63   63.04 118.16 179.69   62.93
  -4  -5   3  3905.2   273.4   2 0.09341-0.60346-0.86706 0.36938-0.48937 0.70667  0 337.81  25.21  140.16 337.79  25.45  140.34
  -4   5  -3  4120.4   278.8   2-0.22853-0.28125 0.64304-0.14567 0.73094-0.94851  0 339.39  25.49  339.86 339.29  25.70  339.86
  -4   5   3  4576.0   289.5   2-0.21706-0.29279-0.09053 0.58762 0.97195-0.75431  0 305.08  28.51   25.56 305.26  28.66   25.58
   4  -5  -3  4634.3   280.9   2-0.08004 0.58999-0.86002 0.36273 0.50394-0.72135  0 281.40 483.20   79.77 281.47 482.92   79.78
   4  -5  -3  4551.0   212.2   2 0.11828 0.39171-0.00240-0.49511-0.99298 0.77551  0 108.97 209.27  200.50 108.83 209.27  200.46
   4  -5   3  3923.2   225.5   1-0.40168 0.91234-0.90202 0.40511 0.15817 0.05930  0 145.70 388.87  133.95 145.56 388.85  134.16
   4  -5   3  4331.7   219.3   2-0.18887 0.69872-0.34959-0.14750 0.91767-0.70002  0 248.82 472.17   40.97 248.72 471.82   40.86
   4  -5   3  4466.8   195.8   2 0.11523 0.39485-0.73282 0.23550-0.67059 0.88805  0 104.60 237.91  153.20 104.30 237.81  153.39
   4   5  -3  4678.1   222.0   2 0.11786 0.39213 0.00281 0.49470-0.99303 0.77556  0 250.63 472.76  200.65 250.45 472.44  200.76
   4   5  -3  3924.1   187.9   2-0.18547 0.69525 0.90992-0.41255 0.37101-0.58859  0 104.76 236.68  313.76 104.52 236.66  313.77
   4   5   3  4303.9   187.6   2-0.01495 0.52481 0.82180-0.32424-0.56958 0.78705  0 214.63 454.58  256.26 214.58 454.28  256.33
   4   5   3  4065.0   164.8   2-0.23759 0.74742 0.41721 0.07988 0.87720-0.65953  0 104.13 271.41  355.21 103.82 271.33  355.32
  -4  -5  -4 14512.4   395.1   1-0.44584-0.06419 0.34583-0.84224-0.82561 0.53526  0  95.44 260.06   28.94  95.39 260.08   28.90
  -4  -5  -4 14034.8   359.5   2 0.12680-0.63688-0.15349-0.34384-0.97998 0.69004  0 380.78  14.07  191.79 380.71  14.37  191.77
  -4  -5   4 13002.7   358.0   1-0.68815 0.17802-0.27964-0.21704-0.66952 0.95979  0 113.97 166.25   68.93 113.69 166.27   69.16
  -4  -5   4 13793.0   392.2   2 0.08129-0.59135-0.91197 0.41430-0.40212 0.69186  0 326.60  13.33  134.63 326.78  13.40  134.68
  -4   5  -4 12630.7   381.9   2-0.21903-0.29075 0.74057-0.24321 0.63528-0.92537  0 340.64  12.53  332.01 340.53  12.73  331.96
  -4   5   4 16577.2   441.8   2-0.20866-0.30119-0.18043 0.67752 0.96120-0.67101  0 294.92  18.00   30.73 295.09  18.24   30.80
   4  -5  -4  17.117 150.524   2-0.06255 0.57250-0.90457 0.40727 0.42172-0.71160  0 290.70 497.37   85.17 290.68 497.45   85.23
   4  -5  -4 15925.3   366.1   2 0.11075 0.39925 0.09542-0.59293-0.98926 0.69931  0 102.55 198.68  205.99 102.23 198.68  206.08
   4  -5   4 11072.8   332.9   1-0.39484 0.90550-0.90329 0.40639 0.16782 0.12214  0 127.79 378.32  134.79 127.61 378.18  134.84
   4  -5   4 14083.1   314.1   2 0.10316 0.40689-0.81815 0.32047-0.56568 0.85542  0  95.89 236.72  145.59  95.54 236.59  145.56
   4   5  -4 13943.7   370.8   2 0.12465 0.38544-0.10809 0.60542-0.98630 0.69635  0 259.49 488.45  194.15 259.36 487.96  194.40
   4   5  -4 12787.3   307.9   2-0.17362 0.68340 0.94132-0.44395 0.28944-0.57954  0  97.19 225.29  308.72  96.95 225.26  308.69
   4   5   4 14285.6   277.5   2-0.23690 0.74675 0.29785 0.19924 0.92475-0.63456  0  95.12 270.54    2.96  94.77 270.39    2.96
   4   5   4 13927.1   288.5   2-0.04274 0.55261 0.89594-0.39838-0.44211 0.73207  0 211.75 465.32  264.95 211.61 465.00  264.92
  -4  -5  -5  6450.6   295.0   1-0.41824-0.09179 0.38747-0.88388-0.82155 0.45862  0  84.27 271.95   25.98  84.30 271.93   26.03
  -4  -5   5  5562.4   273.5   1-0.69754 0.18741-0.37325-0.12343-0.61165 0.97450  0 107.39 151.61   75.44 107.16 151.63   75.50
   4  -5  -5  7179.6   284.7   2 0.10315 0.40684 0.17667-0.67418-0.97885 0.61641  0  93.85 186.58  210.77  93.50 186.56  210.81
   4  -5   5  5547.1   284.4   1-0.38439 0.89505-0.90495 0.40805 0.18249 0.17996  0 109.05 368.18  135.98 108.71 368.10  135.88
   4  -5   5  6446.8   267.4   2-0.21120 0.72106-0.15472-0.34237 0.96512-0.60238  0 244.76 498.72   29.32 244.53 498.42   29.29
   4  -5   5  6538.8   240.7   2 0.08924 0.42081-0.88420 0.38652-0.45851 0.82068  0  84.62 233.98  138.13  84.21 233.93  138.30
   4   5  -5  5835.6   249.6   2-0.16182 0.67160 0.96349-0.46613 0.21330-0.57592  0  87.44 212.65  304.20  87.28 212.57  304.07
   4   5   5  6808.3   214.5   2-0.23396 0.74381 0.18595 0.31114 0.95430-0.59156  0  83.43 268.17    9.61  83.14 268.03    9.61
   4   5   5  5984.3   227.0   2-0.06758 0.57744 0.94480-0.44724-0.32060 0.68304  0 209.18 480.24  272.56 209.04 479.89  272.57
  -4  -5  -6 -88.160 120.633   1-0.39479-0.11525 0.42087-0.91729-0.81671 0.38118  0  71.26 284.26   23.57  70.94 284.52   23.67
  -4  -5   6 -25.741 141.260   1-0.69822 0.18809-0.46281-0.03387-0.54616 0.98157  0  98.52 135.27   82.02  98.42 135.38   81.86
   4  -5  -6  59.897 115.708   2 0.09603 0.41396 0.24219-0.73971-0.96546 0.53054  0  82.83 172.63  214.65  82.51 172.84  214.66
   4  -5   6 124.354 126.332   1-0.37098 0.88164-0.90667 0.40976 0.20082 0.23412  0  88.24 358.45  137.48  88.35 358.40  137.18
   4  -5   6  15.448  88.190   2 0.07434 0.43571-0.93248 0.43480-0.35349 0.78810  0  69.84 230.28  131.52  70.14 230.04  131.66
   4   5  -6 117.205 105.249   2-0.15049 0.66027 0.97842-0.48105 0.14160-0.57674  0  75.60 198.48  300.03  75.40 198.57  299.80
   4   5   6  79.596  78.932   2-0.22935 0.73920 0.08691 0.41018 0.96946-0.53417  0  68.79 264.42   15.29  68.67 264.43   15.36
   4   5   6 -19.855 104.742   2-0.08912 0.59898 0.97390-0.47634-0.20875 0.64368  0 206.15 499.04  279.42 206.45 499.22  279.30
  -4  -5  -7  5172.2   303.4   1-0.37575-0.13428 0.44682-0.94323-0.81189 0.30378  0  55.06 298.28   21.90  54.96 298.18   21.81
  -4  -5   7  4764.0   308.5   1-0.69059 0.18046-0.54595 0.04927-0.47437 0.98235  0  87.61 117.05   88.22  87.24 116.97   88.16
   4  -5  -7  5452.1   304.4   2 0.08991 0.42008 0.29382-0.79133-0.95162 0.44421  0  69.30 157.13  217.71  68.97 157.25  217.75
   4  -5   7  4092.1   290.4   1-0.35511 0.86576-0.90805 0.41115 0.22212 0.28532  0  66.34 348.98  138.76  66.03 348.89  138.70
   4  -5   7  4617.0   237.6   2 0.05952 0.45053-0.96556 0.46788-0.25329 0.76033  0  53.24 225.12  125.50  53.06 224.99  125.56
   4   5  -7  4252.6   270.3   2-0.13952 0.64938 0.98743-0.48987 0.07425-0.58166  0  61.18 183.10  295.76  60.91 182.99  295.86
   4   5   7  5532.8   228.9   2-0.22442 0.73427 0.00404 0.49304 0.97449-0.46665  0  51.52 259.87   20.16  51.14 259.95   20.13
  -4  -5  -8  2308.1   278.6   1-0.36125-0.14878 0.46606-0.96248-0.80764 0.22694  0  35.87 313.39   20.39  35.88 313.34   20.42
  -4  -5   8  2393.1   269.5   1-0.67434 0.16421-0.62206 0.12538-0.39788 0.97842  0  73.31  95.44   94.45  73.37  95.72   94.43
   4  -5  -8  2802.9   298.1   2 0.08496 0.42503 0.33341-0.83092-0.93895 0.35904  0  52.43 139.51  219.97  52.42 139.50  220.15
   4  -5   8  2500.5   276.8   1-0.33702 0.84768-0.90887 0.41197 0.24569 0.33424  0  41.39 339.29  140.34  41.10 339.39  140.41
   4  -5   8  2263.0   220.6   2 0.04475 0.46530-0.98633 0.48866-0.15856 0.73804  0  33.07 218.96  120.01  32.57 218.92  119.94
   4   5  -8  1929.4   215.0   2-0.12867 0.63853 0.99164-0.49408 0.01016-0.59006  0  43.40 165.81  292.05  43.43 165.67  292.13
   4   5   8  2943.8   199.3   2-0.21936 0.72921-0.06293 0.56002 0.97361-0.39322  0  30.43 254.82   23.78  30.12 254.76   23.99
  -4  -6   0 27306.6   520.5   1-0.61368 0.10355 0.00893-0.60495-0.78950 0.78950  0  91.68 225.31   50.74  91.60 225.27   50.69
  -4   6   0 26256.7   426.5   1-0.62293 0.11280-0.01684 0.61286-0.78210 0.78210  0 448.60  19.92   52.15 448.85  20.23   52.31
   4  -6   0 22030.2   355.1   1-0.43878 0.94944-0.89258 0.29629 0.10384-0.10384  0 179.66 450.19  130.18 179.61 450.04  130.35
   4  -6   0 30202.9   524.5   2-0.14052 0.65047-0.63634 0.03959 0.75850-0.75850  0 274.50 501.90   60.05 274.54 501.61   59.98
   4  -6   0 30405.0   478.2   2 0.13211 0.37798-0.40347-0.19332-0.90541 0.90541  0  93.75 210.01  176.78  93.41 209.92  176.77
   4   6   0 29432.3   440.3   2 0.06632 0.44368 0.45969 0.13733-0.88560 0.88560  0 235.29 486.62  227.94 235.11 486.21  228.08
   4   6   0 24448.7   393.0   2-0.22283 0.73261 0.70645-0.10961 0.67177-0.67177  0  89.19 245.17  334.89  89.01 245.17  334.84
  -4  -6  -1  1014.9   162.0   1-0.58595 0.07592 0.07934-0.67504-0.80645 0.73387  0  88.92 236.99   46.39  89.07 236.95   46.25
  -4  -6   1 874.412 157.260   1-0.63936 0.12923-0.06678-0.52924-0.76601 0.83857  0  92.23 213.54   55.44  92.19 213.39   55.46
  -4   6  -1 732.796 192.385   1-0.65821 0.14808-0.13285 0.72887-0.74102 0.66845  0 478.02  29.93   59.53 478.03  30.32   59.64
  -4   6   1 722.287 163.579   1-0.55800 0.04796 0.14248 0.45322-0.81752 0.89011  2 418.55   9.36   42.06 419.13   9.23   42.25
   4  -6  -1 602.738 102.434   1-0.42104 0.93170-0.89763 0.30135 0.13031-0.20280  0 199.58 467.04  132.04 199.59 467.16  132.19
   4  -6  -1 920.346 208.968   2-0.12377 0.63372-0.71055 0.11380 0.69268-0.76514  2 280.55 504.36   65.71 280.57 505.11   65.74
   4  -6  -1 771.360 127.290   2 0.13116 0.37892-0.29367-0.30312-0.94686 0.87438  0  93.48 204.47  183.51  93.27 204.50  183.50
   4  -6   1 644.969 124.329   1-0.44479 0.95545-0.89061 0.29433 0.09473-0.02224  0 161.37 435.40  129.75 161.30 435.10  129.71
   4  -6   1 706.590 183.471   2-0.15647 0.66642-0.55517-0.04158 0.81689-0.74442  0 269.46 501.60   54.28 269.44 501.84   54.17
   4  -6   1 776.455 123.931   2 0.13020 0.37989-0.51259-0.08420-0.84871 0.92119  0  91.72 213.67  169.65  91.36 213.75  169.70
   4   6  -1 635.770 130.044   2 0.08484 0.42515 0.33429 0.26272-0.93864 0.86615  0 241.68 491.02  219.91 241.57 491.06  220.20
   4   6  -1 575.530 109.550   2-0.21445 0.72423 0.77581-0.17897 0.59341-0.66593  0  88.50 238.52  329.02  88.16 238.77  328.81
   4   6   1 771.023 126.474   2 0.04505 0.46494 0.58093 0.01609-0.81271 0.88519  0 229.31 485.37  236.38 229.47 485.29  236.29
   4   6   1 689.930 105.541   2-0.22975 0.73953 0.62625-0.02941 0.74500-0.67248  0  87.39 249.98  341.00  87.52 249.95  341.12
  -4  -6  -2 504.912 136.868   1-0.55778 0.04775 0.14294-0.73863-0.81759 0.67241  0  84.20 248.59   42.47  84.52 248.59   42.22
  -4  -6   2 428.611 145.084   1-0.66176 0.15163-0.14663-0.44939-0.73524 0.88038  0  90.74 201.11   60.75  90.75 201.10   60.52
   4  -6  -2 340.091  84.599   1-0.37980 0.89045-0.90560 0.30931 0.18881-0.33379  0 223.77 487.46  136.34 223.73 487.38  136.33
   4  -6  -2 465.851 119.968   2 0.12832 0.38177-0.18776-0.40903-0.97380 0.82882  0  90.89 197.38  189.45  90.97 197.42  189.77
   4  -6   2 339.635 121.476   1-0.44370 0.95436-0.89098 0.29469 0.09639 0.04859  0 143.41 422.13  130.04 143.50 421.79  129.83
   4  -6   2 500.734 110.021   2 0.12545 0.38464-0.61574 0.01895-0.77790 0.92287  0  86.98 215.96  162.48  87.02 216.00  162.50
   4   6  -2 589.194 136.499   2 0.09931 0.41068 0.21307 0.38394-0.97198 0.82700  0 248.54 499.79  212.65 248.77 499.54  212.94
   4   6  -2 555.233 111.812   2-0.20477 0.71455 0.83341-0.23657 0.51333-0.65837  0  84.83 230.95  323.31  85.06 230.82  323.12
   4   6   2 470.716 116.705   2 0.02130 0.48870 0.69117-0.09415-0.72238 0.86736  0 224.41 488.10  244.65 224.52 488.12  244.60
   4   6   2 417.234  91.199   2-0.23472 0.74450 0.53738 0.05946 0.81002-0.66497  0  83.69 253.10  347.46  83.59 253.13  347.44
  -4  -6  -3 287.965 132.614   1-0.52997 0.01994 0.19910-0.79480-0.82431 0.60655  0  77.74 260.67   38.65  77.92 260.39   38.61
  -4  -6   3 349.627 140.163   1-0.67980 0.16967-0.22876-0.36725-0.69681 0.91451  0  87.31 188.41   65.67  87.30 188.14   65.82
   4  -6  -3 355.676 121.883   2 0.12373 0.38635-0.09016-0.50663-0.98821 0.77075  0  86.08 188.85  195.60  86.50 188.75  195.43
   4  -6   3 410.929 130.160   1-0.43774 0.94840-0.89290 0.29662 0.10540 0.11207  0 125.55 409.69  130.46 125.50 409.74  130.45
   4  -6   3 336.878 111.281   2 0.11786 0.39223-0.70872 0.11193-0.69558 0.91303  0  79.89 216.88  155.51  80.30 216.67  155.37
   4   6  -3 397.828 108.195   2-0.19422 0.70400 0.87982-0.28298 0.43382-0.65139  0  79.83 221.32  317.97  79.69 221.37  317.79
   4   6   3 429.017 121.936   2-0.00334 0.51320 0.78453-0.18746-0.62008 0.83755  0 220.60 494.93  252.38 220.18 495.07  252.66
   4   6   3 312.953  87.042   2-0.23722 0.74705 0.44313 0.15338 0.86450-0.64683  0  77.02 254.85  353.49  77.08 254.71  353.66
  -4  -6  -4   9.900 129.042   1-0.50413-0.00590 0.24791-0.84361-0.82728 0.53693  0  69.15 272.47   35.40  69.18 272.62   35.44
  -4  -6   4  23.397 122.584   1-0.69215 0.18202-0.31164-0.28437-0.65100 0.94128  0  81.70 174.26   71.57  81.73 174.27   71.30
   4  -6  -4-122.559 106.025   2 0.11835 0.39164-0.00339-0.59362-0.99297 0.70301  0  79.04 178.70  199.79  79.73 178.42  200.40
   4  -6   4 -74.805 119.455   1-0.42814 0.93880-0.89574 0.29946 0.11973 0.17023  0 106.56 398.71  131.46 106.76 398.68  131.46
   4  -6   4 109.768  97.072   2 0.10780 0.40225-0.78844 0.19123-0.60559 0.89533  0  71.38 215.93  148.55  71.13 215.85  148.43
   4   6  -4 132.022 108.421   2-0.18338 0.69316 0.91631-0.31947 0.35603-0.64612  0  72.33 210.23  312.63  72.12 210.49  312.81
  -4  -6  -5 351.519 144.978   1-0.48054-0.02950 0.28912-0.88481-0.82795 0.46501  0  58.84 285.35   32.31  58.08 285.51   32.72
  -4  -6   5 113.859 156.334   1-0.69840 0.18827-0.39310-0.20292-0.59808 0.96093  0  73.70 158.84   76.49  73.82 159.11   76.88
   4  -6  -5 233.445 139.949   2 0.11280 0.39719 0.07165-0.66866-0.99103 0.62859  0  70.74 166.23  204.79  70.69 166.31  204.71
   4  -6   5  53.197 142.461   1-0.41566 0.92632-0.89897 0.30268 0.13815 0.22431  0  86.68 388.13  132.63  86.80 388.35  132.74
   4  -6   5 307.326 113.968   2 0.09627 0.41379-0.85404 0.25683-0.51122 0.87340  0  59.44 213.49  141.58  59.19 213.68  141.80
   4   6  -5 188.590 118.333   2-0.17230 0.68208 0.94414-0.34730 0.28093-0.64355  0  61.69 198.08  308.44  62.14 198.15  308.17
   4   6   5 221.141  92.616   2-0.23626 0.74611 0.25883 0.33767 0.93658-0.57384  0  55.75 253.11    5.50  55.74 253.35    5.30
  -4  -6  -6  1310.7   198.7   1-0.46015-0.04988 0.32316-0.91886-0.82694 0.39142  0  44.19 299.49   30.49  44.42 299.38   30.44
  -4  -6   6  1185.6   203.8   1-0.69787 0.18774-0.47175-0.12426-0.53892 0.97433  0  63.34 142.05   82.59  63.49 142.22   82.51
   4  -6  -6  1262.9   188.5   2 0.10726 0.40274 0.13450-0.73152-0.98509 0.55016  0  58.70 152.34  208.33  59.11 152.36  208.35
   4  -6   6  1282.8   203.3   1-0.40070 0.91136-0.90221 0.30593 0.15956 0.27538  0  65.10 378.62  134.25  65.10 378.54  134.25
   4  -6   6  1258.8   156.6   2 0.08315 0.42690-0.90583 0.30862-0.41540 0.85000  0  44.21 210.26  135.53  44.29 210.23  135.52
   4   6  -6  1349.7   183.4   2-0.16111 0.67089 0.96460-0.36776 0.20880-0.64394  0  49.80 184.13  303.65  49.53 184.25  303.80
   4   6   6  1238.1   139.4   2-0.23361 0.74346 0.17695 0.41956 0.95609-0.52080  0  40.76 251.16    9.97  40.58 250.91   10.14
  -4  -6  -7 559.473 183.253   1-0.44296-0.06707 0.35030-0.94600-0.82527 0.31716  0  28.27 314.73   29.13  27.72 314.63   28.60
  -4  -6   7 690.496 208.766   1-0.69059 0.18045-0.54599-0.05003-0.47433 0.98231  0  50.64 123.28   88.40  50.32 123.07   88.17
   4  -6  -7 511.436 178.733   2 0.10221 0.40779 0.18591-0.78293-0.97724 0.46982  0  43.85 136.02  211.46  44.43 136.18  211.35
   4  -6   7 301.005 197.947   1-0.38363 0.89429-0.90506 0.30878 0.18354 0.32389  0  40.93 369.18  135.96  40.99 369.16  135.95
   4  -6   7 625.891 146.861   2 0.06954 0.44051-0.94460 0.34739-0.32077 0.82781  0  26.67 205.25  129.63  25.92 205.61  129.64
   4   6  -7 640.405 163.907   2-0.15013 0.65991 0.97880-0.38196 0.13935-0.64702  0  34.88 168.31  300.07  33.92 168.57  299.67
   4   6   7 571.992 126.047   2-0.23035 0.74020 0.10564 0.49086 0.96736-0.45952  0  22.09 247.49   14.36  21.93 247.54   14.28
  -4  -7   0 183.152 139.565   1-0.63910 0.12897-0.06594-0.62941-0.76630 0.76630  0  58.21 235.42   55.43  58.37 235.84   55.40
   4  -7   0 -76.382 124.038   1-0.47056 0.98121-0.88067 0.18501 0.05466-0.05466  0 156.17 479.53  126.55 156.26 479.40  126.92
   4  -7   0  -3.989 114.146   2 0.13171 0.37838-0.43848-0.25777-0.88904 0.88904  0  66.40 186.57  175.06  65.50 186.66  174.55
   4   7   0 -38.770  89.575   2-0.22364 0.73342 0.69850-0.00218 0.67977-0.67977  0  58.26 227.45  335.58  58.24 227.63  335.49
  -4  -7  -1  1509.3   199.2   1-0.61806 0.10793-0.00311-0.69224-0.78612 0.71355  0  56.32 248.28   51.41  56.33 248.28   51.45
  -4  -7   1  1360.6   196.2   1-0.65825 0.14812-0.13300-0.56235-0.74096 0.81352  0  58.15 223.21   59.63  58.20 223.26   59.65
   4  -7  -1  1014.4   140.6   1-0.46095 0.97161-0.88467 0.18901 0.06982-0.14231  2 176.58 498.67  128.03 176.50 498.43  127.97
   4  -7  -1  1351.1   170.8   2 0.13181 0.37827-0.34545-0.35080-0.92913 0.85665  0  65.28 181.29  180.45  65.53 181.22  180.37
   4  -7   1  1124.5   166.9   1-0.47199 0.98265-0.88005 0.18438 0.05237 0.02012  0 137.54 463.15  126.70 137.45 463.00  126.76
   4  -7   1  1714.0   205.4   2 0.12967 0.38042-0.53093-0.16532-0.83743 0.90992  0  62.98 190.71  168.51  63.14 190.53  168.46
   4   7  -1  1588.5   190.3   2-0.21655 0.72633 0.76080-0.06449 0.61179-0.68432  0  57.63 221.41  330.42  57.59 221.36  330.18
   4   7   1  1382.7   153.9   2-0.22954 0.73932 0.62925 0.06706 0.74253-0.67001  0  56.65 232.36  340.88  56.43 232.42  340.89
  -4  -7  -2  5529.2   305.7   1-0.59606 0.08603 0.05497-0.74995-0.80106 0.65588  0  52.19 260.86   47.66  52.16 260.83   47.80
  -4  -7   2  5048.4   301.6   1-0.67473 0.16460-0.20305-0.49230-0.70959 0.85472  0  55.88 210.24   64.11  55.90 210.26   64.15
   4  -7  -2  5687.7   295.3   2 0.13036 0.37972-0.25507-0.44118-0.95809 0.81312  0  63.64 174.19  185.78  63.25 174.15  185.80
   4  -7   2  3632.3   269.9   1-0.46807 0.97873-0.88174 0.18608 0.05862 0.08636  0 119.28 448.54  127.01 118.93 448.59  127.19
   4  -7   2  5653.4   281.5   2 0.12520 0.38489-0.61968-0.07658-0.77481 0.91978  0  58.53 193.01  162.17  58.34 192.90  162.22
   4   7  -2  4660.2   255.6   2-0.20818 0.71796 0.81495-0.11864 0.54085-0.68590  0  54.60 213.56  325.27  54.56 213.60  325.03
   4   7   2  4836.9   234.0   2-0.23397 0.74374 0.55485 0.14146 0.79837-0.65332  0  52.12 236.02  346.25  52.06 235.83  346.23
  -4  -7  -3  6485.1   331.2   1-0.57420 0.06417 0.10697-0.80195-0.81170 0.59394  0  45.72 273.67   44.52  45.67 273.64   44.51
  -4  -7   3  6194.7   323.6   1-0.68747 0.17734-0.27497-0.42039-0.67214 0.88985  0  51.62 196.64   68.89  51.31 196.62   68.85
   4  -7  -3  6746.2   320.0   2 0.12758 0.38251-0.17030-0.52596-0.97710 0.75964  0  58.95 165.35  190.99  58.59 165.37  190.79
   4  -7   3  4662.3   303.8   1-0.46026 0.97092-0.88495 0.18928 0.07089 0.14658  0 100.32 435.68  127.99 100.02 435.74  128.05
   4  -7   3  6898.4   309.5   2 0.11858 0.39151-0.70153 0.00528-0.70270 0.92016  0  51.40 193.84  156.02  50.98 193.76  155.95
   4   7  -3  5953.4   282.2   2-0.19890 0.70868 0.86077-0.16446 0.46853-0.68610  0  49.25 204.35  320.01  49.04 204.36  320.08
   4   7   3  6036.0   253.3   2-0.23647 0.74630 0.47727 0.21866 0.84634-0.62867  0  45.10 237.84  351.42  44.95 237.83  351.44
  -4  -7  -4  1419.6   204.2   1-0.55311 0.04308 0.15278-0.84776-0.81898 0.52863  0  36.59 287.29   41.63  36.77 287.07   41.59
  -4  -7   4  1228.4   209.7   1-0.69581 0.18568-0.34735-0.34800-0.62865 0.91892  0  44.64 182.18   73.62  44.36 182.00   73.72
   4  -7  -4  1718.6   206.9   2 0.12390 0.38618-0.09318-0.60308-0.98791 0.69797  0  51.24 154.80  195.32  51.42 154.82  195.26
   4  -7   4 948.650 199.778   1-0.44941 0.96006-0.88901 0.19335 0.08773 0.20223  0  80.21 423.83  129.36  80.05 424.15  129.22
   4  -7   4  1567.3   186.4   2 0.11007 0.40002-0.77425 0.07799-0.62324 0.91318  0  41.34 193.07  149.62  40.91 193.15  149.78
   4   7  -4  1117.0   161.5   2-0.18900 0.69878 0.89856-0.20225 0.39606-0.68615  0  40.55 193.75  315.43  40.96 193.59  315.36
   4   7   4  1178.6   146.1   2-0.23773 0.74755 0.40031 0.29563 0.88501-0.59478  0  34.96 238.27  356.47  34.98 238.54  356.39
  -4  -7  -5 17067.5   509.0   1-0.53348 0.02345 0.19225-0.88723-0.82367 0.46074  0  25.11 301.48   38.99  25.17 301.36   39.05
   4  -7  -5 18669.1   499.1   2 0.11981 0.39028-0.02491-0.67135-0.99248 0.63006  0  41.81 142.23  199.26  41.52 142.27  199.18
   4  -7   5 13441.6   435.0   1-0.43600 0.94665-0.89344 0.19778 0.10803 0.25443  0  58.87 413.58  130.59  58.51 413.53  130.64
   4  -7   5 17547.8   444.4   2 0.09986 0.41020-0.83631 0.13957-0.53908 0.90125  0  28.28 191.27  143.65  27.87 191.19  143.70
   4   7  -5 15937.4   435.1   2-0.17881 0.68859 0.92893-0.23262 0.32421-0.68682  0  30.43 181.19  310.80  30.12 181.20  310.83
  -4  -8   0  4579.9   347.3   1-0.65948 0.14935-0.13774-0.65695-0.73899 0.73899  0  17.97 247.84   59.76  17.82 247.78   59.95
   4  -8   0  4686.6   322.7   2 0.13108 0.37901-0.47733-0.31839-0.86889 0.86889  0  30.73 160.38  172.00  30.45 160.23  172.04
   4   8   0  4542.6   274.4   2-0.22307 0.73285 0.70408 0.09171 0.67418-0.67418  0  20.41 208.84  335.12  20.11 208.88  335.04
  -4  -8  -1  52.621 158.186   1-0.64385 0.13372-0.08161-0.71308-0.76078 0.68821  0  16.30 261.35   56.50  16.20 261.31   56.39
  -4  -8   1 207.893 168.339   1-0.67349 0.16336-0.19712-0.59757-0.71243 0.78500  0  17.80 234.09   63.39  16.99 234.14   63.77
  -5   0   0 114.196  71.678   1-0.31877-0.31877 0.51899-0.51899-0.79312 0.79312  0 189.01 134.10   16.38 189.25 133.89   16.44
  -5   0   0  43.207 113.819   1-0.31916-0.31916-0.90882 0.90882 0.26868-0.26868  0 433.62 105.91  142.24 433.96 106.00  142.08
  -5   0  -1 308.834  91.426   1-0.23681-0.40073 0.61008-0.61008-0.75612 0.68353  0 176.86 145.70    9.44 177.09 145.89    9.11
  -5   0  -1 296.986 129.640   1-0.34936-0.28896-0.90840 0.90840 0.22969-0.30218  0 452.47 116.70  138.90 452.46 117.04  139.25
  -5   0   1 277.094  73.540   1-0.41640-0.22114 0.39015-0.39015-0.82121 0.89380  0 200.85 120.60   26.06 200.73 120.88   25.84
  -5   0   1 333.277 111.338   1-0.28846-0.34986-0.90708 0.90708 0.30659-0.23410  0 416.88  94.17  144.86 417.14  94.09  144.88
  -5   0   1 307.407  38.948   2-0.21268-0.42464-0.13826 0.13826 0.96729-0.89474  0 455.50 120.43   28.67 455.83 120.67   28.34
  -5   0   1 252.771  37.200   2-0.23317-0.40405 0.57121-0.57121 0.78699-0.71446  0 487.00 155.46  345.65 487.27 156.06  345.08
  -5   0  -2 -57.256  77.437   1-0.17142-0.46611 0.67284-0.67284-0.71966 0.57448  0 164.12 157.05    3.51 164.16 157.11    3.51
  -5   0  -2  82.414 132.845   1-0.37882-0.25951-0.90573 0.90573 0.19016-0.33514  0 472.95 127.46  136.53 473.18 127.52  136.42
  -5   0   2   2.195  63.505   1-0.52325-0.11429 0.21203-0.21203-0.82538 0.97056  0 211.86 106.69   37.41 211.73 106.65   37.77
  -5   0   2  90.985  98.815   1-0.25775-0.38058-0.90332 0.90332 0.34289-0.19791  0 401.72  80.93  147.66 401.81  81.01  147.61
  -5   0   2  20.790  59.554   2-0.15263-0.48481-0.57619 0.57619 0.80294-0.65800  0 428.58  93.83   55.46 428.39  93.92   55.63
   5   0  -2  10.572  20.274   2 0.13184 0.50577-0.42660 0.42660-0.89478 0.74981  0 170.81 369.40  176.23 171.46 370.18  175.31
   5   0  -2  11.353  22.275   2 0.11035 0.52714 0.09994-0.09994-0.98886 0.84388  0 151.87 337.67  207.00 152.16 338.31  206.34
  -5   0  -3 40619.8   551.6   1-0.40734-0.23098-0.90085 0.90086 0.15010-0.36757  0 496.36 137.52  133.65 496.57 137.60  133.59
  -5   0   3 37470.3   349.9   1-0.62299-0.01467-0.01704 0.01704-0.78204 0.99975  0 222.36  90.69   52.13 222.31  90.79   52.33
  -5   0   3 41783.6   383.5   1-0.22800-0.41054-0.89783 0.89783 0.37672-0.15924  0 387.34  66.17  150.32 387.56  66.44  150.20
  -5   0   3 41724.4   378.0   2-0.12200-0.51544-0.71780 0.71780 0.68548-0.46807  0 408.60  73.52   66.17 408.92  73.80   66.34
   5   0  -3 38164.6   306.7   2 0.11804 0.51956-0.70691 0.70691-0.69738 0.47992  0 191.59 402.54  155.48 191.45 402.26  155.51
   5   0  -3 40286.6   313.2   2 0.06040 0.57709 0.49625-0.49625-0.86608 0.64861  0 134.13 308.29  230.50 134.15 308.14  230.48
  -5   0   4 -13.603  55.675   1-0.68869 0.05102-0.28348 0.28348-0.66735 0.95762  0 232.77  72.89   69.41 232.65  72.99   69.42
  -5   0   4  79.063  85.764   1-0.20002-0.43852-0.89099 0.89099 0.40759-0.11762  0 374.03  49.94  152.39 374.15  50.16  152.62
  -5   0   4 -19.615 103.727   2-0.10498-0.53246-0.78155 0.78155 0.61495-0.32508  0 392.13  53.94   71.50 391.74  54.20   71.89
   5   0  -4 -39.789  56.829   2 0.10813 0.52944-0.78622 0.78622-0.60841 0.31867  0 205.09 426.07  148.65 205.10 426.13  148.63
   5   0  -4 -18.391  46.649   2 0.03392 0.60358 0.63568-0.63568-0.77121 0.48126  0 120.85 288.11  240.13 120.98 287.84  240.29
  -5   0  -5  5023.5   115.1   2 0.04975-0.68724 0.55649-0.55649-0.82936 0.46692  0 488.26  80.24  234.52 488.36  80.46  234.58
  -5   0   5  4610.5   127.9   1-0.69004 0.05237-0.54960 0.54960-0.47094 0.83378  0 243.58  52.37   88.46 243.34  52.58   88.45
  -5   0   5  5242.7   164.7   1-0.17679-0.46176-0.88426 0.88426 0.43224-0.06978  0 361.02  31.56  154.87 360.75  31.79  154.60
  -5   0   5  5276.3   255.1   2-0.09555-0.54189-0.81342 0.81342 0.57377-0.21143  0 375.56  33.37   74.79 375.63  33.60   74.92
   5   0  -5  4941.7   189.9   2 0.10265 0.53492-0.82104 0.82104-0.56156 0.19939  0 217.53 450.48  145.14 217.35 450.14  145.27
   5   0  -5  5007.1   175.3   2 0.01815 0.61934 0.70403-0.70403-0.70994 0.34750  0 108.13 269.98  245.69 107.84 269.84  245.64
  -5   0  -6 -94.307  88.047   2 0.01875-0.65625 0.70177-0.70177-0.71215 0.27723  0 476.74  43.15  245.46 476.93  43.14  245.46
  -5   0   6 -17.289  58.302   1-0.60913-0.02919-0.76528 0.76528-0.20809 0.64303  0 256.30  28.35  108.86 255.79  28.47  108.58
  -5   0   6 -75.333  74.536   1-0.16356-0.47498-0.87992 0.87992 0.44607-0.01112  0 347.06  11.09  156.24 346.23  10.87  155.72
  -5   0   6  83.484 152.266   2-0.09061-0.54683-0.82903 0.82903 0.55182-0.11700  0 359.63  11.31   76.75 359.97  11.17   76.49
   5   0  -6 -21.106  91.927   2 0.09979 0.53778-0.83665 0.83665-0.53856 0.10395  0 229.22 475.93  143.46 228.99 475.99  143.66
   5   0  -6 -57.025  66.213   2 0.00889 0.62860 0.74083-0.74083-0.67163 0.23671  0  93.71 253.07  248.47  93.73 252.57  248.73
   5   0   6   5.178 121.038   1 0.03939 0.59915-0.77693 0.77693 0.62836-0.19340  0 102.17 319.20  172.57 101.97 319.15  172.49
   5   0  -7  6991.6   292.5   2 0.09871 0.53886-0.84207 0.84207-0.53025 0.02321  2 240.85 504.99  142.97 240.48 505.07  143.10
   5   0  -7  6951.5   248.2   2 0.00346 0.63386 0.76026-0.76026-0.64961 0.14220  0  78.26 235.32  250.34  78.02 235.24  250.44
   5   0   7  7588.1   319.5   1 0.02837 0.61018-0.78426 0.78426 0.61978-0.11233  0  82.82 309.02  171.53  82.40 309.11  171.58
   5   0   7  6671.7   128.7   2-0.23487 0.87219 0.21223-0.21223 0.94858-0.44074  0 135.18 424.19    8.15 135.26 424.18    8.06
   5   0   7  7463.8   131.3   2-0.17256 0.80987-0.46117 0.46117 0.87037-0.36253  0  94.61 352.47   47.82  94.20 352.05   47.87
   5   0  -8 110.837 109.352   2 0.00098 0.63634 0.76913-0.76913-0.63909 0.05919  0  59.89 217.61  251.72  60.06 217.45  251.24
   5   0   8  14.267 128.304   1 0.02336 0.61519-0.78757 0.78757 0.61579-0.03585  0  59.78 298.60  171.51  60.51 298.71  171.17
   5   0   8  23.690  59.326   2-0.15473 0.79217-0.56503 0.56503 0.81043-0.23068  0  67.98 336.57   55.07  67.87 337.12   54.85
   5   0  -9 457.582 141.916   2 0.00050 0.63683 0.77085-0.77085-0.63701-0.01537  0  39.10 198.84  251.61  39.13 198.61  251.40
   5   0   9 724.655 180.822   1 0.02338 0.61516-0.78755 0.78755 0.61581 0.03663  0  35.25 287.92  171.38  35.50 287.67  171.17
   5   0   9 445.475  86.892   2-0.14648 0.78391-0.60742 0.60742 0.78076-0.12854  0  40.74 326.84   57.89  40.66 326.78   57.86
   5   0   9 361.454 105.666   2-0.23736 0.87464 0.43393-0.43393 0.86912-0.21611  0 133.71 496.88  354.42 134.15 496.86  354.25
  -5  -1   0 -23.727  67.194   1-0.39253-0.24501 0.42401-0.52329-0.81617 0.81617  0 175.67 145.66   23.53 175.59 145.90   23.45
  -5  -1   0 -36.193 110.359   1-0.18878-0.44977-0.88787 0.78845 0.41959-0.41959  0 454.76 116.86  153.46 454.98 116.62  153.58
  -5   1   0  16.283  66.385   1-0.23049-0.40705 0.61650-0.51722-0.75286 0.75286  0 199.27 120.56    8.49 199.40 120.48    8.56
  -5   1   0   8.678 102.661   1-0.46441-0.17391-0.88328 0.98266 0.06437-0.06437  0 418.82  93.15  127.58 418.93  93.02  127.59
  -5   1   0  -0.802  26.727   2-0.18331-0.45392 0.91651-0.81704 0.35554-0.35554  0 483.97 148.42  312.99 484.06 148.57  312.78
  -5   1   0   6.865  27.793   2-0.23071-0.40652 0.61286-0.51339 0.75576-0.75576  0 462.60 124.50  342.60 463.00 124.82  342.09
  -5  -1  -1 453.571  99.323   1-0.32071-0.31683 0.51666-0.61594-0.79386 0.72127  0 165.56 157.47   16.61 165.69 157.55   16.62
  -5  -1  -1 791.988 147.393   1-0.23327-0.40528-0.89893 0.79951 0.37082-0.44332  0 470.90 128.26  149.68 470.83 128.52  149.74
  -5  -1   1 628.200  95.041   1-0.47211-0.16542 0.30339-0.40267-0.82769 0.90027  0 184.30 133.49   31.63 184.29 133.46   31.77
  -5  -1   1 550.306 126.351   1-0.14221-0.49634-0.87239 0.77297 0.46767-0.39518  0 441.35 103.92  157.70 441.48 103.88  157.51
  -5  -1   1 673.914  54.434   2-0.22727-0.41005 0.04775-0.14716 0.97266-0.90011  0 489.63 151.99   18.25 490.01 152.72   17.61
  -5  -1   1 675.075  54.622   2-0.14739-0.49005-0.60282 0.50337 0.78414-0.71167  0 459.51 118.81   57.67 459.81 119.02   57.53
  -5   1  -1 637.843 131.498   1-0.47358-0.16474-0.87934 0.97872 0.04983-0.12232  0 440.63 103.70  126.56 440.55 103.47  126.58
  -5   1   1 565.303  80.731   1-0.34654-0.29100 0.48493-0.38565-0.80297 0.87555  0 214.62 106.40   19.28 214.47 106.66   19.02
  -5   1   1 687.576 111.177   1-0.46080-0.17752-0.88473 0.98411 0.07005 0.00244  0 397.97  81.62  127.98 398.00  81.82  127.99
  -5   1   1 698.801  67.646   2-0.22271-0.41460-0.02003 0.11945 0.97468-0.90213  0 436.68 101.49   21.72 437.09 101.76   21.51
  -5   1   1 555.356  64.300   2-0.15780-0.47942 0.96946-0.86999 0.18773-0.11520  2 503.92 177.74  302.87 504.63 177.98  302.55
  -5  -1  -2  9576.5   278.8   1-0.25960-0.37794 0.58631-0.68559-0.76737 0.62219  0 154.58 168.44   10.89 154.57 168.59   11.10
  -5  -1  -2  9809.3   339.3   1-0.27550-0.36282-0.90574 0.80636 0.32208-0.46706  0 489.30 139.71  145.90 489.44 139.85  146.04
  -5  -1   2  9059.1   228.0   1-0.55326-0.08428 0.15248-0.25176-0.81894 0.96411  0 191.72 119.84   41.64 191.71 119.97   41.61
  -5  -1   2 10344.5   274.5   1-0.09392-0.54463-0.85219 0.75278 0.51473-0.36974  0 430.00  89.82  161.83 430.34  89.89  161.55
  -5  -1   2 10069.6   173.8   2-0.08900-0.54843-0.83395 0.73449 0.54461-0.39968  0 431.30  91.19   76.92 431.66  91.36   77.00
  -5   1  -2  9043.7   298.7   1-0.48608-0.15224-0.87341 0.97279 0.02967-0.17465  0 463.51 113.14  125.17 463.71 113.29  125.18
  -5   1   2  9247.7   176.3   1-0.48871-0.14883 0.27512-0.17584-0.82793 0.97310  0 230.77  90.97   33.66 230.65  91.16   33.65
  -5   1   2  9581.6   202.7   1-0.46701-0.17131-0.88219 0.98157 0.06030 0.08468  0 376.78  69.52  127.38 376.71  69.80  127.31
  -5   1   2 10470.2   198.2   2-0.18875-0.44856-0.35049 0.44991 0.91735-0.77225  0 417.79  84.08   40.92 418.16  84.32   40.92
   5  -1  -2  8986.6   134.9   2 0.09491 0.54266-0.86035 0.76081-0.50080 0.35593  0 183.43 388.39  141.08 183.28 388.16  141.10
   5  -1  -2  9588.2   136.6   2 0.11778 0.51971 0.00393-0.10344-0.99303 0.84806  0 142.13 320.70  200.96 142.22 320.67  200.82
   5   1  -2  9536.0    87.1   2 0.11884 0.51865-0.01049 0.11000-0.99286 0.84788  0 167.99 369.94  199.80 167.92 369.50  199.99
   5   1  -2  9607.6    86.3   2 0.07131 0.56619 0.42787-0.32837-0.90102 0.75605  0 151.25 342.39  226.09 151.33 342.21  226.03
  -5  -1  -3 350.008 107.138   1-0.20961-0.42793 0.63722-0.73651-0.74163 0.52386  0 142.14 179.29    6.67 142.23 179.15    6.76
  -5  -1   3 564.012  90.314   1-0.62588-0.01179-0.02558-0.07376-0.77950 0.99721  0 197.84 104.77   53.06 197.86 105.18   52.86
  -5  -1   3 524.199 126.534   1-0.04474-0.59380-0.82793 0.72851 0.55904-0.34157  0 421.17  74.33  165.64 421.28  74.32  165.59
  -5  -1   3 576.693  98.724   2-0.06968-0.56776-0.88742 0.78796 0.45567-0.23827  0 411.74  71.02   83.02 411.88  71.05   83.02
  -5   1  -3 462.553 164.386   1-0.50058-0.13774-0.86567 0.96505 0.00546-0.22293  0 489.31 122.42  123.61 489.09 122.64  123.51
  -5   1   3 625.701  75.596   1-0.63513-0.00253-0.05342 0.15276-0.77055 0.98826  0 250.36  73.02   54.82 250.11  73.23   54.61
  -5   1   3 476.985  76.718   1-0.49332-0.14500-0.86967 0.96905 0.01767 0.19980  0 353.40  57.01  124.89 352.91  56.98  124.35
  -5   1   3 500.703  99.282   2-0.16143-0.47601-0.52763 0.62708 0.83400-0.61659  0 400.64  67.28   52.47 401.17  67.20   52.29
   5  -1  -3 426.836  65.199   2 0.08228 0.55529-0.90877 0.80924-0.40911 0.19180  0 198.08 411.32  135.04 197.80 411.33  135.12
   5  -1  -3 419.049  57.316   2 0.08834 0.54916 0.30724-0.40674-0.94752 0.73006  0 129.37 299.39  218.44 129.55 299.21  218.56
   5  -1   3 436.256 102.364   1 0.03051 0.60804-0.78286 0.68344 0.62145-0.40398  0 155.15 361.63  171.73 154.92 361.60  171.76
   5   1  -3 415.047  57.166   2 0.13160 0.50600-0.44698 0.54644-0.88481 0.66736  0 188.34 403.36  174.34 188.70 403.26  174.00
   5   1  -3 508.076  57.000   2 0.01439 0.62310 0.71923-0.61973-0.69462 0.47716  0 132.29 310.30  246.84 132.25 310.25  246.90
  -5  -1  -4  4449.6   232.5   1-0.17017-0.46737 0.67396-0.77325-0.71890 0.42855  0 128.63 189.33    3.32 128.56 189.44    3.41
  -5  -1   4  4276.1   167.3   1-0.67795 0.04029-0.21901 0.11967-0.70172 0.99200  0 202.64  88.67   65.16 202.57  88.83   65.19
  -5  -1   4  5466.2   225.8   1 0.00434-0.64289-0.79960 0.70018 0.60052-0.31055  0 414.18  56.54  169.79 414.45  56.65  169.61
  -5  -1   4  5019.9   219.5   2-0.06146-0.57597-0.90706 0.80760 0.41649-0.12661  0 394.20  51.01   85.49 394.54  51.21   85.57
  -5   1  -4  4740.6   101.7   2-0.03110-0.60623 0.86754-0.76803-0.49640 0.20645  0 480.52  94.36  261.20 480.45  94.62  261.36
  -5   1   4  4401.5    66.5   1-0.68564 0.04798-0.57449 0.67383-0.44706 0.73733  0 284.34  49.98   90.31 284.49  50.35   90.44
  -5   1   4  4881.5    70.5   1-0.59375-0.04457-0.78580 0.88518-0.17315 0.46311  0 314.37  44.77  111.20 314.32  45.14  111.06
   5  -1  -4  4564.1   166.1   2 0.07757 0.56000-0.92358 0.82405-0.37547 0.08573  0 210.47 433.51  132.99 210.25 433.20  133.02
   5  -1  -4  4925.4   158.7   2 0.06492 0.57257 0.46872-0.56822-0.88096 0.59101  0 117.96 281.28  228.74 117.72 281.17  228.67
   5  -1   4  4980.3   242.3   1-0.00242 0.64097-0.80384 0.70443 0.59484-0.30487  0 139.00 351.33  168.98 138.83 351.33  169.05
   5   1  -4  4590.8   156.2   2 0.12638 0.51123-0.59903 0.69849-0.79069 0.50075  0 202.72 427.98  163.81 202.57 427.65  163.71
   5   1  -4  4550.3   147.9   2-0.00699 0.64432 0.79660-0.69709-0.60447 0.31452  0 119.12 289.84  253.84 118.83 289.66  253.81
  -5  -1  -5  1312.6    90.7   2 0.10576-0.74325 0.15070-0.25020-0.98291 0.62047  0 495.05  80.16  209.21 495.05  80.22  209.29
  -5  -1   5  1268.5   134.8   1-0.69888 0.06121-0.41096 0.31163-0.58539 0.94823  0 205.74  70.45   77.97 205.80  70.43   78.13
  -5  -1   5  1345.8   158.7   2-0.05839-0.57905-0.91379 0.81433 0.40197-0.03963  0 378.35  30.31   86.39 378.31  30.42   86.50
  -5   1  -5  1362.9   133.2   2-0.04607-0.59125 0.90348-0.80397-0.42615 0.06371  0 470.08  63.08  265.99 470.37  63.22  265.95
  -5   1   5  1548.9   171.9   2-0.12957-0.50787-0.68608 0.78554 0.71590-0.35355  0 370.16  28.89   63.56 369.88  29.35   63.78
   5  -1  -5  1556.9   152.3   2 0.07628 0.56129-0.92714 0.82760-0.36687 0.00470  0 222.03 456.36  132.45 221.87 456.18  132.49
   5  -1  -5  1364.8   126.8   2 0.04848 0.58901 0.56323-0.66273-0.82488 0.46244  0 105.49 264.24  235.03 105.23 264.17  235.05
   5  -1   5  1328.8   161.8   1-0.02447 0.66301-0.81680 0.71739 0.57640-0.21393  0 121.97 341.43  167.15 121.66 341.40  167.24
   5   1  -5  1480.8   144.5   2 0.12112 0.51649-0.67493 0.77440-0.72787 0.36544  0 214.67 452.05  158.31 214.81 451.94  158.06
   5   1  -5  1305.6   121.2   2-0.01749 0.65482 0.82950-0.72999-0.55824 0.19580  0 105.77 271.52  257.19 105.55 271.50  257.13
  -5  -1  -6  7415.8   191.5   2 0.07047-0.70796 0.43333-0.53283-0.89848 0.46355  0 482.54  41.12  226.27 482.55  41.26  226.38
  -5  -1   6  6993.3   197.9   1-0.68379 0.04613-0.58322 0.48388-0.43851 0.87392  0 207.73  49.45   91.00 207.72  49.49   91.16
  -5  -1   6  8279.9   355.6   2-0.05829-0.57915-0.91400 0.81454 0.40150 0.03331  2 362.59   7.59   86.47 362.60   7.72   86.53
  -5   1  -6  6833.9   222.0   2-0.04768-0.58965 0.90700-0.80749-0.41841-0.01651  0 464.73  32.06  266.41 464.85  32.38  266.45
  -5   1   6  8197.7   359.7   2-0.12137-0.51607-0.72038 0.81984 0.68288-0.24807  2 354.53   7.48   66.56 354.65   7.47   66.55
   5  -1  -6  7218.2   258.9   2 0.07700 0.56057-0.92524 0.82570-0.37149-0.06311  0 233.54 481.87  132.83 233.23 481.56  132.78
   5  -1  -6  8329.6   245.7   2 0.03716 0.60033 0.62029-0.71980-0.78349 0.34856  0  91.73 247.56  239.12  91.53 247.47  239.14
   5  -1   6  8253.5   310.7   1-0.03799 0.67653-0.82427 0.72485 0.56493-0.12997  0 103.46 331.67  166.24 103.07 331.64  166.14
   5  -1   6  7412.3   106.0   2-0.20930 0.84661-0.17401 0.07459 0.96225-0.52695  0 139.15 403.64   30.69 139.41 403.79   30.41
   5  -1   6  7965.0   107.7   2-0.13900 0.77644-0.64369 0.54423 0.75256-0.31774  0 112.26 356.60   60.60 112.02 356.53   60.52
   5   1  -6  7005.0   243.8   2 0.11711 0.52049-0.71595 0.81542-0.68826 0.25334  0 226.63 478.35  154.83 226.36 478.06  154.78
   5   1  -6  7464.4   229.7   2-0.02252 0.65984 0.84413-0.74462-0.53567 0.10074  0  91.51 254.31  258.73  91.28 254.14  258.69
  -5  -1   7 666.514 103.566   1-0.63664-0.00168-0.71974 0.62036-0.27688 0.78432  0 208.22  25.26  103.44 208.45  25.03  103.60
   5  -1  -7 626.078 118.014   2 0.02967 0.60782 0.65496-0.75446-0.75508 0.24767  0  75.94 230.47  241.57  76.01 230.56  241.75
   5  -1   7 773.896 172.364   1-0.04461 0.68315-0.82786 0.72844 0.55916-0.05171  0  82.99 321.93  165.55  82.70 321.87  165.60
   5  -1   7 636.988  75.132   2-0.22951 0.86682 0.08980-0.18922 0.96915-0.46132  0 144.57 438.93   15.07 144.12 438.84   15.19
   5  -1   7 736.699  88.517   2-0.11747 0.75491-0.73547 0.63601 0.66730-0.16001  0  86.95 338.42   67.95  86.87 338.59   67.81
   5   1  -7 609.184 113.479   2-0.02427 0.66160 0.84910-0.74958-0.52768 0.02027  0  75.29 236.82  259.28  75.38 236.82  259.24
   5   1   7 651.509  71.522   2-0.20846 0.84578-0.18241 0.28183 0.96087-0.45303  0  93.87 357.61   31.28  93.77 358.19   30.92
   5  -1  -8  3258.4   223.8   2 0.02504 0.61246 0.67519-0.77469-0.73722 0.15732  0  58.11 213.15  243.30  58.15 212.96  243.32
   5  -1   8  3656.2   286.4   1-0.04563 0.68418-0.82841 0.72899 0.55827 0.02168  0  60.43 311.89  165.44  59.99 311.86  165.51
   5  -1   8  3146.3   164.6   2-0.23527 0.87259 0.22504-0.32445 0.94552-0.36513  0 143.47 471.51    7.39 143.56 471.47    7.31
   5  -1   8  3611.7   146.6   2-0.11114 0.74858-0.75970 0.66024 0.64071-0.06095  0  62.93 327.26   69.92  62.70 327.26   69.92
   5   1  -8  2976.6   219.9   2-0.02389 0.66121 0.84801-0.74850-0.52944-0.05046  0  57.40 219.16  259.23  57.22 219.00  259.12
   5   1   8  3409.9   133.2   2-0.18824 0.82556-0.35425 0.45366 0.91601-0.33562  0  66.76 341.74   41.13  66.38 341.56   41.15
   5   1   8  2634.6   140.0   2-0.23511 0.87233 0.52759-0.42812 0.81632-0.23613  0 132.31 459.49  348.09 132.36 459.24  348.10
   5  -1  -9  -3.859 125.829   2 0.02263 0.61487 0.68552-0.78503-0.72770 0.07531  0  37.00 194.03  244.63  37.22 194.16  244.15
   5  -1   9-123.106 159.219   1-0.04200 0.68054-0.82645 0.72703 0.56144 0.09099  0  34.95 301.24  165.50  34.23 301.37  165.81
   5  -1   9 -25.915  75.973   2-0.11012 0.74756-0.76347 0.66401 0.63639 0.01583  0  36.24 319.10   69.93  36.30 318.50   70.25
   5   1  -9 -14.078 121.034   2-0.02199 0.65932 0.84263-0.74312-0.53805-0.11434  0  36.12 200.21  258.50  36.03 200.16  258.52
   5   1   9  83.402  78.248   2-0.17681 0.81412-0.43348 0.53290 0.88365-0.23071  0  38.91 330.21   46.35  38.70 330.97   46.09
   5   1   9  52.630  97.441   2-0.23303 0.87025 0.57398-0.47451 0.78501-0.13230  0 129.23 496.27  344.85 129.30 496.21  344.89
  -5  -2   0 10202.5   272.4   1-0.45360-0.18394 0.33363-0.53219-0.82640 0.82640  0 158.86 156.71   30.04 158.94 156.83   29.73
  -5  -2   0 11058.6   331.8   1-0.08601-0.55254-0.84854 0.64971 0.52209-0.52209  0 481.95 125.58  162.20 482.22 125.69  162.20
  -5   2   0 10042.5   245.0   1-0.59450-0.04382-0.78487 0.98363-0.17479 0.17479  0 410.21  76.81  110.97 410.46  77.02  110.95
   5  -2   0  9933.5    99.9   2 0.04064 0.59693-0.99035 0.79128-0.13250 0.13250  0 168.68 374.47  118.59 168.71 374.52  118.42
   5  -2   0  9830.8    98.4   2 0.11150 0.52610-0.76390 0.56497-0.63563 0.63563  0 147.69 339.81  150.57 147.57 339.53  150.70
  -5  -2  -1 20548.2   381.2   1-0.39282-0.24472 0.42360-0.62217-0.81624 0.74365  0 150.81 168.17   23.47 150.89 168.29   23.48
  -5  -2  -1 21993.6   441.3   1-0.13708-0.50147-0.87026 0.67143 0.47314-0.54563  0 495.75 138.38  158.00 496.11 138.45  157.96
  -5  -2   1 21039.7   369.5   1-0.51741-0.12013 0.22324-0.42181-0.82610 0.89869  0 165.46 144.55   36.75 165.51 144.63   37.05
  -5  -2   1 21479.8   393.2   1-0.03385-0.60469-0.82199 0.62316 0.56850-0.49601  0 470.94 111.93  166.60 471.22 112.03  166.48
  -5  -2   1 21419.8   207.2   2-0.02412-0.61332-0.97281 0.77390 0.23033-0.15786  0 447.59  94.87   97.05 447.80  95.08   97.11
  -5   2  -1 19723.2   353.1   1-0.58476-0.05356-0.79649 0.99525-0.15383 0.08134  0 435.23  86.75  112.50 435.47  86.86  112.43
  -5   2  -1 19609.6   210.5   2-0.22657-0.41065 0.66643-0.46748 0.71031-0.78283  0 443.14  91.96  337.95 443.23  92.11  338.04
  -5   2   1 21015.4   264.3   1-0.25794-0.37959 0.58807-0.38950-0.76658 0.83916  0 224.58  90.15   10.97 224.44  90.42   10.96
  -5   2   1 22190.1   273.4   2-0.22731-0.41001 0.05061 0.14822 0.97251-0.89996  0 418.17  78.47   17.35 418.46  78.78   17.45
   5  -2  -1 20536.5   204.0   2 0.03318 0.60439-0.99562 0.79655-0.08738 0.01495  0 183.24 393.48  115.82 183.12 393.38  115.79
   5  -2  -1 20881.5   203.7   2 0.13207 0.50554-0.37716 0.17823-0.91668 0.84420  0 138.05 319.20  178.44 137.99 319.00  178.41
   5  -2   1 22452.3   338.9   1 0.04135 0.59719-0.77546 0.57663 0.63004-0.55755  0 188.75 398.53  172.59 188.56 398.41  172.65
  -5  -2  -2  2405.0   180.4   1-0.33824-0.29929 0.49522-0.69379-0.80021 0.65504  0 141.31 179.09   18.11 141.35 179.24   18.25
  -5  -2   2  2172.3   163.0   1-0.57982-0.05772 0.09413-0.29270-0.80929 0.95446  0 170.53 131.68   45.19 170.50 131.56   45.32
  -5  -2   2  2590.0   232.6   1 0.01846-0.65701-0.79072 0.59189 0.61190-0.46691  0 462.70  97.20  171.03 463.03  97.08  170.77
  -5  -2   2  2543.2   144.7   2-0.01663-0.62081-0.98155 0.78264 0.19046-0.04552  0 427.62  76.41   99.40 427.68  76.57   99.49
  -5   2  -2  2394.3   238.4   1-0.58197-0.05635-0.79965 0.99841-0.14792 0.00294  0 461.20  96.05  112.81 461.29  96.08  112.85
  -5   2  -2  2102.4   112.3   2-0.19630-0.44093 0.87161-0.67266 0.44918-0.59423  0 450.54  89.51  318.75 450.61  89.64  318.80
  -5   2   2  2453.6    96.8   1-0.44721-0.19033 0.34369-0.14512-0.82576 0.97094  0 248.82  72.58   29.19 248.51  72.95   29.05
  -5   2   2  2343.1   125.3   1-0.65333 0.01501-0.68360 0.88237-0.32534 0.47033  0 354.69  55.67  100.13 354.54  55.87  100.01
  -5   2   2  2516.6   167.6   2-0.20753-0.42979-0.19148 0.39032 0.95931-0.81421  0 403.99  66.68   31.39 404.30  66.89   31.45
   5  -2  -2  2456.4   112.8   2 0.03429 0.60328-0.99498 0.79591-0.09403-0.05084  0 195.46 410.55  116.09 195.22 410.43  116.17
   5  -2  -2  2367.4   104.3   2 0.12210 0.51551-0.06082-0.13811-0.99065 0.84568  0 129.25 302.14  197.09 129.32 302.00  197.12
   5  -2   2  2265.9   168.0   1-0.01860 0.65715-0.81343 0.61460 0.58136-0.43638  0 171.98 386.49  167.67 171.79 386.41  167.72
   5   2  -2  2431.8    81.2   2 0.11041 0.52708 0.09927 0.09973-0.98892 0.84394  0 174.45 390.02  206.26 174.45 389.75  206.31
   5   2  -2  2345.5    77.1   2-0.01959 0.65692 0.83565-0.63662-0.54892 0.40394  0 137.39 328.64  257.80 137.34 328.48  257.77
  -5  -2  -3  31.710 101.500   1-0.29136-0.34618 0.55094-0.74950-0.78203 0.56427  0 130.05 189.92   13.35 130.33 189.86   13.94
  -5  -2   3  62.124  83.891   1-0.63437-0.00329-0.05108-0.14759-0.77134 0.98904  0 173.90 117.88   54.42 173.90 117.35   54.46
  -5  -2   3  96.049  94.206   2-0.01604-0.62153-0.98193 0.78286 0.18856 0.02875  0 410.44  58.62   99.52 410.18  58.61   99.64
  -5   2  -3  -7.940 155.767   1-0.58379-0.05453-0.79759 0.99635-0.15178-0.06569  0 488.97 104.94  112.48 488.98 104.77  112.58
  -5   2  -3  29.655  67.621   2-0.16375-0.47348 0.96051-0.76156 0.22497-0.44254  0 453.36  79.17  304.85 453.43  79.05  304.79
  -5   2   3 114.827 105.618   2-0.18739-0.44993-0.36078 0.55961 0.91363-0.69599  0 389.85  52.54   41.67 390.05  52.68   41.55
   5  -2  -3 -20.861  59.204   2 0.03777 0.59980-0.99265 0.79358-0.11498-0.10232  0 206.74 428.34  117.51 206.52 428.28  117.39
   5  -2  -3   3.133  47.500   2 0.10424 0.53325 0.16608-0.36508-0.98059 0.76312  0 120.07 286.23  209.97 120.04 286.08  210.19
   5  -2   3  55.117  91.973   1-0.05899 0.69754-0.83535 0.63652 0.54654-0.32906  0 154.66 375.43  164.49 154.96 375.31  164.42
   5   2  -3  88.512  54.563   2 0.12965 0.50796-0.22980 0.42873-0.96456 0.74711  0 189.46 414.80  187.49 189.75 414.83  187.30
   5   2  -3   3.490  43.794   2-0.04330 0.68062 0.89721-0.69818-0.43948 0.22202  0 123.71 305.65  264.78 123.59 305.37  265.09
  -5  -2  -4  1476.5   183.6   1-0.25272-0.38482 0.59360-0.79217-0.76405 0.47370  0 117.99 200.35   10.50 117.75 200.29   10.50
  -5  -2   4  1001.8   121.5   1-0.67497 0.03731-0.20424 0.00557-0.70901 0.99929  0 175.51 102.04   63.92 175.58 101.72   64.23
  -5  -2   4  1163.4   143.7   2-0.01861-0.61882-0.97941 0.78049 0.20104 0.08884  0 393.85  39.71   98.66 393.80  39.81   98.86
  -5   2  -4 901.156  98.411   2-0.13868-0.49865 0.98792-0.78889 0.06921-0.35916  0 453.35  61.79  295.37 453.24  61.82  295.57
  -5   2   4  1211.3   151.2   2-0.17049-0.46683-0.47437 0.67321 0.86366-0.57346  0 375.92  36.25   48.67 375.81  36.37   48.73
   5  -2  -4  1091.3   113.3   2 0.04216 0.59541-0.98889 0.78982-0.14254-0.14720  0 217.39 448.01  119.11 217.43 447.76  119.00
   5  -2  -4  1051.3   113.2   2 0.08667 0.55082 0.32029-0.51930-0.94335 0.65340  0 110.09 270.53  219.37 109.71 270.54  219.35
   5  -2   4  1143.4   144.3   1-0.08540 0.72395-0.84826 0.64943 0.52265-0.23268  0 137.65 365.07  162.17 137.63 364.88  162.25
   5   2  -4  1032.7   122.0   2 0.13208 0.50552-0.40767 0.60660-0.90353 0.61358  0 202.71 437.99  176.39 202.41 437.71  176.50
   5   2  -4 894.149 100.850   2-0.05173 0.68906 0.91547-0.71645-0.39905 0.10910  0 111.44 286.73  267.63 111.18 286.64  267.68
  -5  -2  -5 256.925 126.448   1-0.22179-0.41575 0.62527-0.82384-0.74823 0.38529  0 103.41 210.74    7.70 103.46 210.70    7.81
  -5  -2  -5 215.595  80.244   2 0.12002-0.75763-0.02814-0.17079-0.99237 0.62994  0 487.03  58.46  199.32 487.52  58.71  199.00
  -5  -2   5 280.287 100.755   1-0.69649 0.05882-0.35620 0.15753-0.62292 0.98576  0 175.48  84.22   74.25 175.51  84.26   74.33
  -5  -2   5 239.165 137.345   2-0.02252-0.61492-0.97486 0.77594 0.22168 0.14067  0 378.24  19.14   97.55 378.17  19.38   97.62
  -5   2  -5 237.768 104.136   2-0.11975-0.51757 0.99196-0.79294-0.04093-0.32151  0 451.87  39.40  289.08 451.69  39.52  289.15
  -5   2   5 339.842 153.705   2-0.15757-0.47987-0.54915 0.74807 0.82074-0.45839  0 361.10  17.96   53.57 361.48  17.95   53.76
   5  -2  -5 203.327 100.559   2 0.04711 0.59046-0.98374 0.78467-0.17333-0.18884  0 228.45 469.79  120.70 228.24 469.60  120.81
   5  -2  -5 324.345  83.383   2 0.07190 0.56559 0.42397-0.62297-0.90282 0.54038  0  97.88 254.96  225.81  98.08 255.04  225.79
   5  -2   5 187.230 129.165   1-0.10146 0.74001-0.85557 0.65674 0.50764-0.14518  0 119.66 355.01  160.73 119.42 354.92  160.92
   5  -2   5 280.771  47.403   2-0.18271 0.82003-0.39405 0.19522 0.90074-0.53800  0 152.15 408.03   43.92 152.44 408.27   43.60
   5  -2   5 257.292  43.334   2-0.05608 0.69352-0.91880 0.71988 0.39072-0.02838  0 113.50 341.85   87.53 113.65 342.22   87.22
   5   2  -5 328.623 165.891   1-0.16588 0.80342 0.67780-0.47923-0.71629 0.35336  0 456.28 476.15    3.39 456.42 476.01    3.04
   5   2  -5 168.657  90.531   2 0.13021 0.50740-0.51237 0.71130-0.84883 0.48641  0 214.51 461.54  169.43 214.04 461.47  169.72
   5   2  -5 148.675  67.201   2-0.05439 0.69172 0.92080-0.72177-0.38623 0.02379  0  98.61 269.24  268.47  98.26 269.32  268.48
  -5  -2  -6  6105.1   291.8   1-0.19808-0.43946 0.64822-0.84678-0.73524 0.29972  0  87.63 221.14    5.94  87.28 221.28    5.77
  -5  -2  -6  6386.6   214.7   2 0.09959-0.73708 0.21054-0.40955-0.97250 0.53757  0 481.33  25.47  212.78 481.47  25.64  212.80
  -5  -2   6  5815.0   227.0   1-0.69608 0.05841-0.49835 0.29968-0.51684 0.95225  0 173.76  64.40   84.30 173.74  64.39   84.50
  -5   2  -6  5478.3   248.3   2-0.10461-0.53272 0.98660-0.78758-0.12520-0.30973  0 450.25  12.33  284.06 450.25  12.70  284.23
   5  -2  -6  6693.0   269.5   2 0.05229 0.58528-0.97709 0.77802-0.20629-0.22832  0 239.29 494.93  122.73 239.15 494.58  122.75
   5  -2  -6  6872.1   238.0   2 0.06073 0.57677 0.49412-0.69312-0.86727 0.43235  0  85.01 239.25  230.24  84.78 239.22  230.34
   5  -2   6  6699.6   296.1   1-0.10961 0.74816-0.85918 0.66035 0.49980-0.06484  0 100.28 345.27  160.03  99.86 345.24  160.25
   5  -2   6  6445.4   155.5   2-0.21055 0.84787-0.16137-0.03746 0.96417-0.52888  0 153.95 433.84   29.80 154.04 433.71   29.68
   5  -2   6  6496.9   148.1   2-0.05662 0.69406-0.91764 0.71873 0.39335 0.04146  0  95.03 331.28   87.10  94.75 331.26   87.05
   5   2  -6  5961.9   311.1   1-0.20640 0.84394 0.64033-0.44176-0.73985 0.30433  2 459.19 501.98    6.43 459.29 501.97    6.48
   5   2  -6  6243.0   248.1   2 0.12758 0.51003-0.57657 0.77550-0.80702 0.37211  0 225.34 488.06  165.22 225.25 487.63  165.31
   5   2  -6  6222.0   217.6   2-0.05398 0.69131 0.92006-0.72104-0.38804-0.04688  0  84.30 252.52  268.22  84.04 252.40  268.37
  -5  -2  -7  1510.2   197.7   1-0.18095-0.45659 0.66419-0.86275-0.72534 0.21723  0  68.90 232.10    4.20  68.84 232.29    4.32
  -5  -2   7  1985.0   195.8   1-0.67405 0.03639-0.62308 0.42441-0.39676 0.90474  0 170.37  41.50   94.41 170.33  41.46   94.51
   5  -2  -7  1783.4   188.8   2 0.05253 0.58497 0.54101-0.74001-0.83938 0.33196  0  69.21 222.86  233.39  69.40 222.81  233.51
   5  -2   7  1825.4   217.3   1-0.11161 0.75015-0.86003 0.66120 0.49789 0.00956  0  78.75 335.67  160.00  78.54 335.66  160.08
   5  -2   7  1494.0   140.0   2-0.22421 0.86152 0.00108-0.19992 0.97454-0.46670  0 153.24 460.78   20.37 153.40 460.69   20.30
   5  -2   7  1657.8   119.3   2-0.06079 0.69823-0.90859 0.70967 0.41325 0.09404  0  74.69 322.01   85.91  74.49 322.19   85.78
   5   2  -7  1396.2   168.3   2-0.05176 0.68909 0.91553-0.71651-0.39890-0.10851  0  68.07 235.58  267.59  68.00 235.35  267.69
   5   2   7  1589.9    91.9   2-0.22403 0.86134-0.00176 0.20060 0.97458-0.46674  0  83.99 353.10   20.82  83.80 353.72   20.46
   5   2   7  1396.5    93.7   2-0.22777 0.86500 0.65213-0.45319 0.72308-0.21541  0 129.13 433.85  339.51 129.61 434.27  339.14
  -5  -2  -8  1844.2   227.3   1-0.16967-0.46787 0.67441-0.87297-0.71860 0.13790  0  47.71 243.74    3.28  47.72 243.95    3.36
  -5  -2   8  2242.1   220.3   1-0.63451-0.00381-0.72380 0.52504-0.27115 0.85107  0 165.34  14.19  104.04 165.31  14.26  104.02
   5  -2  -8  2472.3   221.2   2 0.04685 0.59065 0.57164-0.77064-0.81917 0.23927  0  52.04 205.30  235.61  51.50 205.43  235.63
   5  -2   8  2107.2   257.9   1-0.10861 0.74715-0.85875 0.65992 0.50076 0.07919  0  54.83 326.01  160.21  54.83 325.98  160.33
   5  -2   8  1959.7   177.2   2-0.23075 0.86806 0.11338-0.31221 0.96639-0.38600  0 150.48 490.92   14.01 150.67 490.86   13.83
   5  -2   8  2144.3   147.4   2-0.06642 0.70386-0.89542 0.69650 0.44024 0.13951  0  51.94 314.29   84.00  51.91 314.27   84.03
   5   2  -8  2102.8   204.1   2-0.04830 0.68563 0.90822-0.70919-0.41570-0.16420  0  49.63 217.99  266.57  49.50 217.69  266.62
   5   2   8  2071.0   124.6   2-0.20965 0.84696-0.17051 0.36935 0.96279-0.38241  0  58.01 340.44   30.31  57.78 340.54   30.21
   5   2   8  1980.2   141.1   2-0.22371 0.86094 0.69764-0.49870 0.68062-0.10043  0 129.53 469.59  335.55 129.58 469.35  335.57
  -5  -2  -9 13205.9   449.1   1-0.16359-0.47395 0.67983-0.87839-0.71489 0.06161  0  23.64 256.49    2.94  23.20 256.64    2.85
   5  -2  -9 13864.3   412.6   2 0.04320 0.59429 0.59045-0.78946-0.80591 0.15353  0  30.59 186.64  237.01  30.30 186.64  236.97
   5  -2   9 14541.1   467.2   1-0.10151 0.74006-0.85560 0.65676 0.50759 0.14484  0  28.59 315.91  160.94  27.99 315.97  160.92
   5  -2   9 13904.3   291.8   2-0.07300 0.71043-0.87900 0.68008 0.47120 0.18102  0  26.38 307.31   81.99  26.06 307.38   81.99
   5   2  -9 13092.0   386.5   2-0.04390 0.68122 0.89858-0.69956-0.43661-0.21578  0  27.97 199.09  265.25  27.80 198.87  265.28
   5   2   9 14026.7   262.5   2-0.19934 0.83666-0.26563 0.46447 0.94324-0.29030  0  30.66 331.76   35.77  30.21 331.45   35.81
  -5  -3   0 -39.734  92.757   1-0.50415-0.13339 0.24788-0.54573-0.82728 0.82728  0 139.34 166.63   35.64 139.45 166.84   35.44
  -5  -3   0   9.010  71.881   2 0.06167-0.69924-0.96164 0.66303-0.26731 0.26731  0 450.79  75.87  126.55 450.72  76.13  126.40
  -5   3   0 -10.491 107.111   1-0.67611 0.03845-0.61548 0.91349-0.40504 0.40504  0 408.72  56.74   93.43 408.84  57.16   93.86
   5  -3   0  -1.759  68.673   1 0.02009 0.61846-0.78968 0.49143 0.61319-0.61319  0 207.04 428.95  170.93 206.95 429.07  170.90
   5  -3   0  11.188  51.686   2-0.04858 0.68602-0.93388 0.63550 0.35428-0.35428  0 189.31 415.09   89.35 189.04 415.06   89.52
   5  -3   0 -14.848  45.166   2 0.12865 0.50895-0.55551 0.25711-0.82150 0.82150  0 122.97 305.73  166.96 123.17 305.90  166.78
  -5  -3  -1  2110.3   186.2   1-0.45397-0.18357 0.33304-0.63089-0.82643 0.75385  0 132.84 178.26   29.97 132.86 178.35   29.77
  -5  -3  -1  1908.0   114.9   2 0.08055-0.71811-0.91459 0.61598-0.39628 0.32385  0 464.29  82.14  134.30 464.54  82.22  134.33
  -5  -3   1  2090.8   182.9   1-0.55509-0.08245 0.14862-0.44647-0.81840 0.89099  0 144.29 154.68   41.77 144.35 154.77   41.86
  -5  -3   1  1960.5   151.8   2 0.04760-0.68517-0.98317 0.68456-0.17639 0.24882  0 435.40  65.67  120.90 435.64  65.80  120.99
  -5   3  -1  1750.2   211.2   1-0.66181 0.02415-0.66181 0.95982-0.35215 0.27958  0 437.30  66.31   98.03 437.31  66.53   97.97
  -5   3  -1  2021.3   168.8   2-0.23485-0.40238 0.53424-0.23582 0.81206-0.88458  0 419.36  58.97  347.76 419.53  59.12  347.65
  -5   3   1  1910.4   155.2   1-0.69359 0.05593-0.52357 0.82158-0.49478 0.56734  0 378.21  47.11   86.38 378.11  47.39   86.42
  -5   3   1  2170.1   187.3   2-0.23062-0.40669 0.11092 0.18733 0.96670-0.89415  0 400.46  52.61   14.01 400.79  52.76   13.97
   5  -3  -1  2098.8   121.2   2-0.02973 0.66717-0.96536 0.66699 0.25922-0.33169  0 197.79 424.23   95.16 197.54 424.02   95.37
   5  -3  -1  1919.5   107.8   2 0.13166 0.50595-0.33090 0.03250-0.93444 0.86195  0 119.93 295.61  181.14 119.69 295.39  181.26
   5  -3   1  2223.7   162.3   1-0.05921 0.69775-0.83546 0.53722 0.54635-0.47385  0 187.22 414.99  164.27 187.14 414.96  164.40
   5  -3   1  2068.6   101.3   2-0.07261 0.71005-0.88000 0.58163 0.46938-0.39692  0 181.65 410.25   82.14 181.57 410.08   82.11
   5  -3   1  2070.9    96.0   2 0.11260 0.52501-0.75542 0.45702-0.64549 0.71798  0 124.28 314.48  151.37 124.01 314.30  151.44
   5   3  -1  2100.3    78.0   2 0.05930 0.57820 0.50271-0.20420-0.86242 0.78993  0 167.10 394.92  231.08 167.26 394.82  230.91
   5   3  -1  1851.1    71.9   2-0.08740 0.72473 0.97207-0.67353-0.21783 0.14534  0 130.43 333.55  278.90 130.42 333.52  278.76
  -5  -3  -2 176.983 103.822   1-0.40695-0.23059 0.40380-0.70165-0.81935 0.67418  0 125.04 189.60   24.65 124.60 189.39   24.89
  -5  -3  -2 208.221  62.564   2 0.10494-0.74251-0.80763 0.50902-0.58028 0.43541  0 474.17  80.79  146.92 474.49  81.06  146.60
  -5  -3   2 277.993 112.082   1-0.60334-0.03420 0.03653-0.33438-0.79664 0.94182  0 147.69 141.60   48.81 147.55 141.83   48.96
  -5  -3   2 187.127 104.563   2 0.03623-0.67380-0.99374 0.69513-0.10569 0.25056  0 420.00  52.87  117.13 420.37  52.79  116.85
  -5   3  -2 212.407 151.862   1-0.65238 0.01405-0.68589 0.98403-0.32244 0.17745  0 466.15  74.53   99.96 466.14  74.92  100.22
  -5   3  -2 170.257  95.701   2-0.22207-0.41515 0.71357-0.41515 0.66446-0.80951  0 426.25  55.12  334.00 426.04  55.11  334.25
  -5   3   2  88.315  52.963   1-0.39288-0.24466 0.42352-0.12567-0.81626 0.96143  0 265.06  50.78   23.94 264.53  51.15   23.49
  -5   3   2 168.234  59.525   1-0.68821 0.05055-0.28008 0.57809-0.66927 0.81441  0 337.07  38.70   70.04 335.93  38.57   69.19
  -5   3   2  94.564 116.506   2-0.21839-0.41892-0.07469 0.37294 0.97300-0.82790  0 389.72  43.53   24.39 389.23  43.91   24.66
   5  -3  -2 112.826  70.046   2-0.01449 0.65206-0.98350 0.68490 0.18030-0.32517  0 206.58 436.31  100.08 206.68 436.23  100.13
   5  -3  -2  43.404  56.997   2 0.12524 0.51237-0.11952-0.17887-0.98490 0.83993  0 113.97 283.74  193.47 114.13 283.47  193.74
   5  -3   2 181.829 100.613   1-0.10940 0.74795-0.85909 0.56084 0.50000-0.35501  0 168.85 401.75  159.87 168.66 402.36  160.26
   5  -3   2 133.257  49.171   2-0.10234 0.73977-0.79075 0.49237 0.60353-0.45859  0 175.43 409.86   73.18 175.79 410.19   72.75
   5  -3   2 189.099  47.107   2 0.08661 0.55096-0.89373 0.59512-0.44017 0.58504  0 121.80 319.22  137.31 121.55 319.55  137.11
   5   3  -2 144.280  53.919   2 0.10421 0.53328 0.16641 0.13210-0.98053 0.83556  0 180.67 415.22  210.50 181.12 415.30  210.21
   5   3  -2  94.424  45.987   2-0.09451 0.73183 0.97912-0.68059-0.17998 0.03501  0 119.80 312.73  281.58 119.81 313.35  281.01
  -5  -3  -3  33.935 103.877   1-0.36481-0.27273 0.46132-0.75917-0.80876 0.59100  0 114.83 200.57   20.32 114.69 200.17   20.76
  -5  -3  -3  37.120  67.207   2 0.12598-0.76359-0.60706 0.30866-0.78461 0.56715  0 477.94  70.60  163.52 478.51  70.64  163.13
  -5  -3   3  36.127  93.994   1-0.64499 0.00733-0.08540-0.21261-0.75941 0.97711  0 148.88 128.10   56.28 149.06 127.84   56.63
  -5  -3   3  26.180 117.305   2 0.02625-0.66382-0.99859 0.69999-0.04606 0.26336  0 404.87  37.75  113.43 405.27  37.60  113.36
  -5   3  -3  94.385 166.312   1-0.64720 0.00888-0.69781 0.99595-0.30689 0.08942  0 496.31  83.36  101.43 496.43  82.93  101.39
  -5   3  -3 -19.669 101.410   2-0.20331-0.43391 0.84067-0.54225 0.50193-0.71950  0 430.57  45.55  322.08 430.19  45.76  322.34
  -5   3   3 -22.143 128.019   2-0.20420-0.43312-0.22254 0.52079 0.95330-0.73566  0 376.51  32.35   33.73 376.99  31.99   33.27
   5  -3  -3 -24.920  76.022   2-0.00163 0.63920-0.99375 0.69514 0.11162-0.32893  0 216.07 451.43  104.38 216.16 451.26  104.19
   5  -3  -3  90.262  62.646   2 0.11401 0.52348 0.05687-0.35537-0.99185 0.77439  0 106.64 271.17  203.47 106.69 270.70  203.86
   5  -3   3  52.717  95.857   1-0.14102 0.77957-0.87175 0.57350 0.46922-0.25174  0 150.69 390.62  157.50 150.56 390.82  157.63
   5  -3   3  21.507  48.818   2-0.13540 0.77284-0.66033 0.36196 0.73866-0.52126  0 171.28 415.99   62.05 171.81 416.09   61.78
   5  -3   3  26.835  42.576   2 0.05936 0.57821-0.96584 0.66724-0.25224 0.46954  0 115.10 321.34  125.32 115.29 321.07  125.49
   5   3  -3   4.480  64.318   2 0.12281 0.51480-0.07400 0.37239-0.98967 0.77221  0 193.53 434.77  195.92 192.89 434.79  196.37
   5   3  -3  36.842  52.740   2-0.09445 0.73177 0.97907-0.68053-0.18029-0.03717  0 109.74 296.04  281.01 109.52 295.99  280.99
  -5  -3  -4 21019.0   452.4   1-0.32854-0.30900 0.50717-0.80502-0.79677 0.50642  0 103.16 210.76   17.31 102.98 210.86   17.34
  -5  -3  -4 19866.2   244.3   2 0.13187-0.76947-0.35301 0.05461-0.92628 0.63634  0 478.17  51.71  179.84 478.46  52.00  179.90
  -5  -3   4 20032.3   384.8   1-0.67656 0.03889-0.21188-0.08613-0.70525 0.99552  0 148.69 112.41   64.72 148.70 112.51   64.72
  -5  -3   4 21227.5   389.7   2 0.01714-0.65471-0.99982 0.70122 0.00751 0.28223  0 389.98  20.00  110.09 390.46  20.22  110.26
  -5   3  -4 18891.0   320.2   2-0.18227-0.45496 0.91962-0.62120 0.34797-0.63807  0 432.69  30.74  312.13 432.53  31.07  312.31
  -5   3   4 23368.2   428.4   2-0.19092-0.44639-0.33463 0.63288 0.92281-0.63261  0 364.10  17.06   40.14 364.21  17.22   39.95
   5  -3  -4 21490.7   359.8   2 0.00958 0.62799-0.99870 0.70009 0.05011-0.33985  0 226.11 469.37  107.92 225.94 469.14  107.79
   5  -3  -4 23458.2   362.1   2 0.10140 0.53609 0.19362-0.49213-0.97582 0.68587  0  97.81 257.24  211.94  97.52 257.19  211.80
   5  -3   4 20880.0   421.7   1-0.15991 0.79846-0.87869 0.58044 0.44981-0.15984  0 132.28 380.21  156.19 132.11 380.14  156.03
   5  -3   4 21968.8   257.0   2-0.16620 0.80364-0.50056 0.20218 0.84960-0.55972  0 169.41 427.79   50.40 169.27 427.55   50.47
   5  -3   4 21099.5   248.1   2 0.03578 0.60178-0.99404 0.69543-0.10298 0.39272  0 105.95 319.45  116.60 105.48 319.25  116.69
   5   3  -4 19174.1   436.8   1-0.18544 0.82298 0.66005-0.36220-0.72798 0.43763  0 500.99 450.99    4.69 501.02 450.99    4.70
   5   3  -4 20423.4   320.0   2 0.12998 0.50763-0.24100 0.53939-0.96178 0.67184  0 204.27 456.22  186.57 203.95 455.73  186.64
   5   3  -4 19719.6   304.6   2-0.09166 0.72899 0.97647-0.67794-0.19520-0.09475  0  98.73 279.89  280.00  98.44 279.65  280.11
  -5  -3  -5  1393.1   180.8   1-0.29840-0.33914 0.54289-0.84074-0.78500 0.42206  0  89.59 221.51   14.61  89.41 221.65   14.58
  -5  -3  -5  1516.5   181.0   2 0.12540-0.76301-0.12272-0.17568-0.98449 0.62206  0 477.52  27.62  193.46 477.47  27.71  193.56
  -5  -3   5  1539.3   189.2   1-0.69500 0.05733-0.33780 0.03979-0.63472 0.99756  0 146.39  95.33   73.17 146.49  95.43   73.07
  -5   3  -5  1335.4   163.2   2-0.16181-0.47541 0.96350-0.66508 0.21327-0.57589  0 434.16  10.88  303.92 433.97  11.05  304.07
   5  -3  -5  1744.4   202.4   2 0.01949 0.61808-0.99979 0.70118-0.00676-0.35542  0 236.24 490.13  111.19 235.99 490.25  111.08
   5  -3  -5  1572.3   157.8   2 0.08963 0.54786 0.29605-0.59455-0.95096 0.58852  0  86.63 243.02  218.01  86.53 243.03  217.88
   5  -3   5  1415.4   171.6   1-0.16970 0.80825-0.88201 0.58377 0.43960-0.07714  0 113.03 370.15  155.20 112.85 370.11  155.20
   5  -3   5  1426.5   122.3   2-0.19068 0.82799-0.33650 0.03825 0.92218-0.55943  0 167.53 443.77   40.05 167.35 443.64   40.06
   5  -3   5  1530.8   108.1   2 0.01629 0.62128-0.99979 0.70118 0.01239 0.34978  0  92.79 315.52  109.86  92.51 315.39  109.97
   5   3  -5  1062.5   236.5   1-0.22577 0.86330 0.62131-0.32346-0.75033 0.38740  2 503.66 474.32    8.20 504.92 474.82    8.15
   5   3  -5  1386.4   172.9   2 0.13188 0.50573-0.35528 0.65368-0.92541 0.56298  0 214.98 479.24  179.75 214.62 478.86  179.76
   5   3  -5  1357.1   135.4   2-0.08745 0.72478 0.97212-0.67358-0.21758-0.14486  0  86.03 263.96  278.67  86.05 263.63  278.78
  -5  -3  -6  4450.7   276.9   1-0.27443-0.36311 0.57009-0.86794-0.77440 0.33887  0  73.79 232.66   12.40  73.67 232.75   12.42
  -5  -3   6  3772.4   240.1   1-0.69840 0.06073-0.45821 0.16020-0.54980 0.98521  0 142.44  76.19   81.33 142.40  76.03   81.52
   5  -3  -6  4620.3   221.9   2 0.07980 0.55769 0.37140-0.66991-0.92504 0.49011  0  73.73 228.13  222.47  73.55 228.07  222.48
   5  -3   6  4322.7   286.5   1-0.17269 0.81123-0.88297 0.58472 0.43651-0.00156  0  92.67 360.52  154.72  92.28 360.47  154.94
   5  -3   6  4115.9   178.1   2-0.20757 0.84489-0.19105-0.10720 0.95938-0.52409  0 165.31 464.15   31.40 165.17 464.05   31.42
   5  -3   6  4397.2   158.9   2-0.00040 0.63797-0.99449 0.69588 0.10485 0.32976  0  77.07 310.53  104.55  76.75 310.45  104.58
   5   3  -6  4103.5   200.0   2-0.08243 0.71976 0.96614-0.66760-0.24451-0.19041  0  72.22 247.71  277.21  71.96 247.52  277.18
   5   3   6  3670.1   109.7   2-0.20527 0.84250 0.83082-0.53240 0.51730-0.08216  0 130.64 427.58  323.47 130.88 427.38  323.39
  -5  -3  -7  1093.5   182.5   1-0.25617-0.38137 0.58995-0.88780-0.76572 0.25761  0  56.08 244.55   10.57  55.52 244.38   10.80
  -5  -3   7 614.202 151.494   1-0.68690 0.04924-0.56773 0.26973-0.45370 0.96168  0 136.58  53.59   89.96 136.32  53.62   89.90
   5  -3  -7 708.190 140.835   2 0.07168 0.56581 0.42539-0.72390-0.90217 0.39475  0  58.47 212.05  226.10  58.18 212.17  225.88
   5  -3   7 653.562 165.528   1-0.17033 0.80888-0.88222 0.58397 0.43895 0.06850  0  69.61 351.17  155.29  69.83 351.05  155.14
   5  -3   7 575.941 109.929   2-0.21858 0.85589-0.07250-0.22575 0.97312-0.46528  0 161.46 488.65   24.85 162.08 488.61   24.54
   5  -3   7 569.599  93.083   2-0.01478 0.65235-0.98322 0.68461 0.18185 0.32520  0  58.31 304.92  100.08  58.05 305.04  100.04
   5   3  -7 440.290 113.180   2-0.07671 0.71403 0.95863-0.66010-0.27412-0.23329  0  56.00 230.70  275.51  55.70 230.96  275.40
   5   3   7 593.674  73.176   2-0.23049 0.86780 0.10835 0.18991 0.96702-0.45919  0  66.98 344.27   13.78  66.77 343.55   14.12
   5   3   7 638.100  82.414   2-0.20347 0.84069 0.83991-0.54149 0.50314 0.00453  0 130.03 457.47  322.86 130.88 457.70  322.42
  -5  -3  -8  77.582 153.309   1-0.24315-0.39439 0.60357-0.90141-0.75933 0.17864  0  34.55 256.50    9.55  34.36 256.85    9.66
  -5  -3   8 -21.372 155.468   1-0.66114 0.02348-0.66367 0.36566-0.34990 0.93045  0 128.33  27.79   97.89 128.22  27.27   98.14
   5  -3  -8 -99.116 115.045   2 0.06569 0.57181 0.46359-0.76210-0.88361 0.30371  0  39.47 195.50  227.98  39.91 194.99  228.34
   5  -3   8  -4.215 152.565   1-0.16372 0.80226-0.87998 0.58173 0.44591 0.13403  0  45.56 341.61  155.54  44.89 341.65  155.71
   5  -3   8  28.820  80.810   2-0.02777 0.66521-0.96799 0.66962 0.24944 0.33031  0  35.83 299.72   95.89  36.16 299.49   95.96
   5   3  -8  68.779 108.969   2-0.07052 0.70784 0.94951-0.65098-0.30570-0.27420  0  36.43 213.59  273.40  36.66 213.51  273.48
   5   3   8  -8.638  72.138   2-0.22219 0.85951-0.02705 0.32530 0.97463-0.39424  0  42.40 333.94   22.56  42.43 335.18   21.91
   5   3   8  67.612  93.904   2-0.20469 0.84192 0.83379-0.53537 0.51273 0.06746  0 126.04 489.17  323.63 127.41 489.59  323.07
  -5  -4   0  2843.3   209.7   1-0.54634-0.09120 0.16677-0.56390-0.82079 0.82079  0 117.06 176.20   40.90 116.88 176.29   40.69
  -5  -4   0  2966.9   192.6   2 0.09471-0.73228-0.86123 0.46309-0.49931 0.49931  0 436.18  38.32  140.95 436.48  38.42  141.00
  -5   4   0  2858.9   221.4   1-0.69888 0.06122-0.41124 0.80858-0.58519 0.58519  0 415.09  31.14   77.98 415.28  31.37   78.15
   5  -4   0  3432.7   163.9   1-0.08507 0.72361-0.84810 0.45044 0.52296-0.52296  0 202.60 449.69  162.23 202.42 449.47  162.28
   5  -4   0  3051.9   159.0   2-0.08510 0.72254-0.84595 0.44812 0.52643-0.52643  0 202.62 449.94   78.15 202.46 449.67   78.24
   5  -4   0  2940.8   142.4   2 0.13055 0.50705-0.50062 0.10276-0.85577 0.85577  0 102.66 282.85  170.53 102.35 282.69  170.50
   5   4   0  3439.8   120.2   2 0.02710 0.61039 0.66613-0.26812-0.74534 0.74534  0 166.65 419.36  242.73 166.79 419.20  242.62
   5   4   0  2737.0   103.2   2-0.16027 0.79750 0.96588-0.56799 0.20344-0.20344  0 111.32 325.34  303.45 111.10 325.10  303.48
  -5  -4  -1  7569.7   291.9   1-0.50540-0.13213 0.24561-0.64274-0.82719 0.75460  0 111.59 187.87   35.63 111.47 187.93   35.59
  -5  -4  -1  7338.5   219.9   2 0.10923-0.74680-0.77865 0.38051-0.61788 0.54544  0 446.44  40.28  149.29 446.92  40.28  149.33
  -5  -4   1  7705.0   284.1   1-0.58669-0.05085 0.07758-0.47471-0.80609 0.87867  0 120.69 164.04   46.36 120.52 164.05   46.37
  -5  -4   1  7641.4   255.1   2 0.08011-0.71768-0.91596 0.51782-0.39319 0.46562  0 424.33  31.97  133.97 424.57  32.08  134.14
  -5   4  -1  6953.2   289.2   1-0.69632 0.05866-0.49536 0.89270-0.51938 0.44681  0 446.97  40.17   84.20 447.05  40.36   84.27
  -5   4  -1  7197.9   272.3   2-0.23612-0.40116 0.49072-0.09304 0.83871-0.91127  0 400.03  25.60  350.61 400.27  25.99  350.55
  -5   4   1  6963.2   203.9   1-0.68482 0.04716-0.25754 0.65489-0.68169 0.75425  0 379.91  21.85   67.70 379.82  22.16   67.71
  -5   4   1  7111.4   287.5   2-0.23324-0.40408 0.16760 0.23007 0.95787-0.88532  0 383.76  22.51   10.67 383.84  22.90   10.68
   5  -4  -1  8680.2   184.1   1 0.02995 0.60859-0.78322 0.38556 0.62102-0.69352  0 229.05 467.59  171.63 228.88 467.39  171.71
   5  -4  -1  8113.1   226.0   2-0.06490 0.70234-0.89906 0.50122 0.43300-0.50546  0 209.99 456.60   84.34 209.68 456.34   84.50
   5  -4  -1  7961.6   210.3   2 0.13171 0.50590-0.33543-0.06244-0.93281 0.86033  0 100.68 274.70  181.00 100.37 274.55  180.98
   5  -4   1  8062.6   237.9   1-0.15006 0.78861-0.87525 0.47759 0.45980-0.38730  0 180.85 434.37  156.79 180.68 434.24  156.86
   5  -4   1  8402.9   211.3   2-0.10716 0.74460-0.77428 0.37644 0.62371-0.55124  0 196.36 447.26   71.05 196.12 446.91   71.23
   5  -4   1  7762.6   195.5   2 0.12266 0.51495-0.65561 0.25775-0.74507 0.81755  0 102.20 289.22  159.55 101.83 289.04  159.54
   5   4  -1  8085.9   177.8   2 0.06898 0.56851 0.44285-0.04484-0.89394 0.82145  0 176.72 431.15  226.94 176.64 430.76  226.99
   5   4  -1  6641.5   158.5   2-0.14939 0.78671 0.97956-0.58152 0.13469-0.20718  0 106.48 312.24  299.40 106.14 312.02  299.40
   5   4   1  7885.0   137.4   2-0.02512 0.66244 0.85145-0.45341-0.52383 0.59632  0 157.22 411.21  259.64 157.39 411.07  259.50
   5   4   1  6608.6   123.8   2-0.17370 0.81093 0.94114-0.54325 0.28996-0.21743  0 113.84 336.96  308.82 113.68 336.84  308.72
  -5  -4  -2  3785.2   237.4   1-0.46592-0.17162 0.31359-0.71072-0.82740 0.68222  0 104.16 199.14   31.33 104.22 199.25   31.08
  -5  -4  -2  3009.9   194.5   2 0.12213-0.75974-0.66279 0.26493-0.73878 0.59381  0 455.08  36.77  158.93 455.30  37.07  158.99
  -5  -4   2  3704.1   223.0   1-0.62413-0.01353-0.02052-0.37683-0.78105 0.92618  0 122.44 150.95   52.50 122.35 151.05   52.54
  -5  -4   2  3453.1   243.5   2 0.06654-0.70411-0.95162 0.55348-0.29998 0.44485  0 411.51  21.87  128.32 411.85  22.00  128.38
  -5   4  -2  2962.8   288.4   1-0.69071 0.05305-0.54516 0.94250-0.47511 0.32997  0 478.74  48.17   87.99 478.70  48.52   88.10
  -5   4  -2  3185.3   240.0   2-0.22896-0.40826 0.63722-0.23932 0.73589-0.88094  0 406.21  20.77  340.24 406.28  21.02  340.30
  -5   4   2  3303.9    88.5   1-0.30469-0.33285 0.53561-0.13848-0.78758 0.93276  0 274.75  25.08   15.18 274.76  25.47   15.15
  -5   4   2  3238.2    89.8   1-0.56397-0.07357 0.12960 0.26753-0.81556 0.96074  0 324.57  15.38   42.93 324.75  15.75   43.07
  -5   4   2  3742.0   272.5   2-0.22544-0.41188 0.01930 0.37837 0.97407-0.82897  0 373.63  15.67   19.22 373.80  15.74   19.25
   5  -4  -2  4049.7   192.8   2-0.04689 0.68433-0.93712 0.53928 0.34585-0.49079  0 217.83 466.83   90.05 217.61 466.55   90.05
   5  -4  -2  3338.4   163.2   2 0.12784 0.50976-0.17570-0.22216-0.97611 0.83114  0  96.38 264.96  190.46  96.11 264.83  190.48
   5  -4   2  3420.2   200.7   1-0.18865 0.82720-0.88783 0.49016 0.41973-0.27474  0 160.96 421.13  153.52 160.87 420.89  153.59
   5  -4   2  3359.1   160.2   2-0.13030 0.76774-0.68289 0.28506 0.71880-0.57386  0 190.77 448.61   63.47 190.68 448.36   63.53
   5  -4   2  3423.8   146.8   2 0.10838 0.52919-0.78452 0.38638-0.61056 0.75543  0  98.93 293.31  148.89  98.63 293.21  148.79
   5   4  -2  3505.5   155.5   2 0.09788 0.53961 0.22615 0.17186-0.96916 0.82419  0 186.59 445.32  213.82 186.64 445.08  213.72
   5   4  -2  2979.7   133.8   2-0.13983 0.77715 0.98725-0.58920 0.07610-0.22107  0  99.72 298.52  295.98  99.37 298.38  295.97
   5   4   2  3314.9    92.5   2-0.07651 0.71384 0.95836-0.56031-0.27512 0.42009  0 149.06 408.04  275.55 149.32 408.00  275.34
   5   4   2  2987.0    87.4   2-0.19090 0.82813 0.89200-0.49410 0.40975-0.26471  0 112.86 345.51  316.30 112.78 345.43  316.23
  -5  -4  -3 824.198 157.252   1-0.42942-0.20812 0.37088-0.76801-0.82344 0.60567  0  94.86 210.12   27.28  95.13 210.37   27.18
  -5  -4  -3 963.805 127.947   2 0.13014-0.76774-0.51462 0.11675-0.84749 0.63003  0 461.22  27.50  169.60 461.38  27.52  169.57
  -5  -4   3 964.337 158.038   1-0.65610 0.01844-0.12485-0.27249-0.74428 0.96198  0 122.52 137.19   58.93 122.33 137.02   59.13
  -5  -4   3 761.335 165.173   2 0.05412-0.69169-0.97447 0.57633-0.21792 0.43522  2 398.29   8.78  123.51 398.68   8.77  123.44
  -5   4  -3 576.558 146.999   2-0.21696-0.42027 0.75775-0.35986 0.61542-0.83299  0 411.11  11.21  330.37 411.01  11.38  330.45
   5  -4  -3 951.611 133.384   2-0.03094 0.66838-0.96363 0.56579 0.26545-0.48286  0 226.34 480.53   94.85 226.11 480.24   94.99
   5  -4  -3 955.314 110.930   2 0.12041 0.51720-0.03403-0.36383-0.99214 0.77468  0  89.68 253.91  198.67  89.72 253.85  198.66
   5  -4   3 744.729 139.359   1-0.21121 0.84976-0.89393 0.49627 0.39531-0.17784  0 141.49 409.20  151.55 141.56 408.89  151.65
   5  -4   3 786.287  98.358   2-0.15292 0.79036-0.57465 0.17682 0.80398-0.58658  0 186.30 454.30   55.41 186.09 454.26   55.53
   5  -4   3 810.223  91.812   2 0.09048 0.54709-0.87924 0.48110-0.46770 0.68501  0  92.67 295.25  139.00  92.41 295.29  138.90
   5   4  -3  1037.9   114.2   2 0.11496 0.52254 0.04257 0.35544-0.99246 0.77499  0 196.55 461.99  203.02 196.52 461.88  203.04
   5   4  -3 704.410  90.588   2-0.13094 0.76827 0.99111-0.59307 0.02344-0.24090  0  91.04 284.25  293.11  90.95 284.37  292.90
   5   4   3 785.181  70.269   2-0.11428 0.75161 0.99085-0.59281-0.07179 0.28925  0 143.74 412.52  287.48 143.89 412.39  287.35
   5   4   3 788.474  68.817   2-0.21105 0.84827 0.79805-0.40015 0.56443-0.34686  0 107.08 348.60  326.94 107.12 348.83  326.70
  -5  -4  -4  1112.4   176.3   1-0.39682-0.24072 0.41804-0.81517-0.81718 0.52683  0  84.09 221.49   23.80  84.09 221.48   23.88
  -5  -4  -4  1061.9   144.5   2 0.13186-0.76946-0.35129-0.04657-0.92693 0.63699  0 465.44  11.57  179.96 465.49  11.80  180.01
  -5  -4   4  1068.3   168.6   1-0.68042 0.04276-0.23218-0.16516-0.69507 0.98534  0 120.53 121.72   66.39 120.39 121.67   66.04
   5  -4  -4 994.297 138.896   2-0.01677 0.65421-0.98140 0.58357 0.19123-0.48110  0 235.12 497.60   99.45 235.10 497.45   99.44
   5  -4  -4  1138.3   123.5   2 0.11168 0.52581 0.08501-0.48302-0.99010 0.70015  0  81.35 241.81  205.40  81.22 241.78  205.48
   5  -4   4 775.974 148.372   1-0.22309 0.86164-0.89672 0.49906 0.38225-0.09228  0 122.03 398.05  150.67 122.04 397.89  150.63
   5  -4   4 954.479 108.592   2-0.17333 0.81065-0.45629 0.05862 0.87279-0.58259  0 182.33 464.58   47.51 182.18 464.51   47.55
   5  -4   4  1248.8   123.7   2 0.07086 0.56671-0.94143 0.54329-0.32968 0.61942  0  83.47 295.56  130.03  83.22 295.40  130.19
   5   4  -4  1074.6   131.3   2 0.12444 0.51317-0.10311 0.50097-0.98686 0.69691  0 206.43 481.55  194.60 206.17 481.35  194.69
   5   4  -4 804.118 103.789   2-0.12245 0.75978 0.99214-0.59409-0.02577-0.26418  0  81.05 269.84  290.24  80.82 270.06  290.03
   5   4   4  1015.7    85.0   2-0.13800 0.77533 0.98828-0.59023 0.06526 0.22469  0 140.59 424.25  295.44 140.73 424.22  295.34
   5   4   4 886.036  76.635   2-0.22770 0.86493 0.65299-0.25510 0.72233-0.43223  0  96.51 346.73  339.38  96.53 347.07  339.08
  -5  -4  -5  67.298 122.005   1-0.36879-0.26875 0.45608-0.85321-0.80993 0.44699  0  70.69 232.58   21.56  70.92 232.81   21.14
  -5  -4   5 204.363 138.296   1-0.69512 0.05746-0.33924-0.05811-0.63381 0.99666  0 116.77 104.69   73.37 116.44 104.58   73.17
   5  -4  -5 205.338 101.606   2 0.10274 0.53475 0.18072-0.57874-0.97815 0.61571  0  70.45 228.52  211.49  70.59 228.58  211.04
   5  -4   5  46.490 130.555   1-0.22734 0.86588-0.89769 0.50002 0.37746-0.01500  0 101.79 387.93  150.43 101.64 387.66  150.26
   5  -4   5 131.860  97.792   2-0.19026 0.82757-0.33968-0.05799 0.92110-0.55835  0 179.10 479.43   39.95 178.41 479.41   40.26
   5  -4   5 238.579  76.908   2 0.05209 0.58548-0.97737 0.57923-0.20502 0.56719  0  70.70 294.05  122.52  71.08 293.79  122.68
   5   4  -5  79.647 125.827   2 0.12941 0.50820-0.21439 0.61225-0.96814 0.60571  2 215.68 503.54  188.43 215.96 504.32  188.22
   5   4  -5  52.347  76.311   2-0.11412 0.75145 0.99080-0.59276-0.07268-0.28976  0  68.76 255.08  287.50  68.89 255.30  287.30
   5   4   5  76.359  58.596   2-0.15316 0.79039 0.97543-0.57754 0.15833 0.20429  0 138.05 441.35  301.09 138.52 441.59  300.79
   5   4   5  92.086  52.820   2-0.23625 0.87353 0.48589-0.08822 0.84148-0.47870  0  82.16 342.50  351.15  82.25 342.78  350.87
  -5  -4  -6  6844.4   328.2   1-0.34565-0.29189 0.48605-0.88318-0.80267 0.36715  0  55.49 244.53   18.91  55.37 244.58   18.94
  -5  -4   6  5694.0   295.5   1-0.69885 0.06118-0.44287 0.04552-0.56168 0.99709  0 110.76  85.43   80.35 110.37  85.15   80.41
   5  -4  -6  7271.3   281.1   2 0.09449 0.54300 0.25558-0.65359-0.96216 0.52723  0  57.78 214.28  215.47  57.58 214.30  215.46
   5  -4   6  5220.9   303.2   1-0.22585 0.86440-0.89736 0.49970 0.37912 0.05584  0  80.31 378.08  150.34  79.85 378.02  150.39
   5  -4   6  6100.1   243.0   2-0.20319 0.84050-0.23220-0.16547 0.95121-0.51592  0 174.34 499.16   33.96 174.41 498.88   33.82
   5  -4   6  6227.2   211.3   2 0.03438 0.60319-0.99493 0.59679-0.09455 0.52916  0  56.28 291.09  116.05  55.85 290.96  116.20
   5   4  -6  5445.6   233.5   2-0.10589 0.74322 0.98734-0.58929-0.11813-0.31680  0  54.95 240.18  284.69  54.72 239.99  284.64
   5   4   6  5384.0   169.8   2-0.16450 0.80173 0.95922-0.56133 0.22985 0.20529  0 135.28 463.47  305.18 135.50 463.22  305.08
  -5  -4  -7  1379.6   205.4   1-0.32723-0.31031 0.50877-0.90590-0.79629 0.28817  0  37.07 257.18   17.27  37.05 257.09   17.22
  -5  -4   7  1422.6   202.7   1-0.69153 0.05387-0.53944 0.14210-0.48041 0.98839  0 102.05  62.07   87.62 102.08  62.75   87.65
   5  -4  -7  1663.5   182.9   2 0.08761 0.54989 0.31299-0.71100-0.94571 0.43829  0  41.89 198.58  219.00  41.85 198.65  218.91
   5  -4   7  1613.6   227.4   1-0.21987 0.85841-0.89599 0.49833 0.38582 0.12163  0  56.05 368.95  151.01  56.02 368.78  150.90
   5  -4   7  1667.9   160.4   2 0.01791 0.61966-0.99983 0.60169 0.00308 0.50397  0  37.59 287.48  110.48  37.28 287.44  110.51
   5   4  -7  1498.7   167.1   2-0.09771 0.73504 0.98184-0.58380-0.16260-0.34482  0  38.21 223.87  282.36  37.99 223.87  282.04
   5   4   7  1814.5   135.8   2-0.23418 0.87149 0.19201 0.20566 0.95304-0.44521  0  44.66 332.15    9.30  44.44 332.17    9.25
   5   4   7  1449.1   160.5   2-0.17373 0.81096 0.94107-0.54318 0.29017 0.21749  0 131.43 489.13  308.61 131.00 489.03  308.73
  -5  -5   0 -42.338 123.330   1-0.58166-0.05588 0.08942-0.58583-0.80850 0.80850  0  91.04 185.60   45.67  90.70 185.33   45.62
   5  -5   0 -43.083  91.991   1-0.17523 0.81377-0.88377 0.38669 0.43387-0.43387  0 192.89 474.57  155.26 192.46 473.94  154.73
   5  -5   0  50.106 101.962   2-0.10284 0.74028-0.78901 0.29171 0.60572-0.60572  0 214.35 488.22   72.46 214.05 488.04   72.59
   5  -5   0 -59.748  73.855   2 0.13078 0.50682-0.48972-0.00761-0.86202 0.86202  0  79.49 261.04  171.49  79.45 261.39  171.22
   5   5   0  55.875  78.803   2 0.04013 0.59736 0.60576-0.10825-0.79464 0.79464  0 173.67 459.70  238.14 173.98 459.67  238.07
   5   5   0   1.093  58.409   2-0.18890 0.82612 0.89890-0.40154 0.39534-0.39534  0  83.33 305.14  315.00  83.70 304.68  315.31
  -5  -5  -1  8940.2   339.7   1-0.54877-0.08877 0.16180-0.65821-0.82017 0.74758  0  86.18 197.31   41.01  86.15 197.38   41.01
  -5  -5   1  8945.5   329.5   1-0.61353-0.02413 0.00934-0.50602-0.78961 0.86218  0  93.44 172.78   50.67  93.30 172.75   50.66
   5  -5  -1  9759.8   208.8   1-0.08299 0.72154-0.84712 0.35004 0.52487-0.59737  0 221.22 493.85  162.26 221.13 493.82  162.45
   5  -5  -1  8958.5   279.0   2-0.08463 0.72207-0.84734 0.35005 0.52426-0.59673  0 221.00 494.09   78.22 220.78 493.73   78.39
   5  -5  -1  9362.1   259.5   2 0.13190 0.50571-0.35889-0.13843-0.92401 0.85153  0  78.46 254.40  179.63  78.17 254.28  179.54
   5  -5   1  8985.3   272.8   1-0.22468 0.86323-0.89711 0.40003 0.38042-0.30792  0 169.48 457.45  150.34 169.26 457.42  150.49
   5  -5   1  8793.4   267.5   2-0.12176 0.75920-0.71879 0.22150 0.68448-0.61201  0 207.98 486.60   66.28 207.89 486.24   66.42
   5  -5   1  9050.1   247.1   2 0.12548 0.51213-0.61524 0.11791-0.77829 0.85078  0  78.57 267.15  162.60  78.27 266.98  162.54
   5   5  -1  9204.8   234.1   2 0.06877 0.56872 0.44420 0.05332-0.89329 0.82080  0 182.23 468.64  227.01 182.10 468.19  227.08
   5   5  -1  7957.3   206.8   2-0.17677 0.81400 0.93395-0.43659 0.31062-0.38315  0  80.91 294.89  309.99  80.78 294.78  309.99
   5   5   1  9185.6   212.7   2 0.00608 0.63125 0.75070-0.25314-0.66062 0.73311  0 166.39 455.25  249.59 166.38 454.98  249.59
   5   5   1  7547.8   185.1   2-0.20148 0.83871 0.84912-0.35175 0.48827-0.41574  0  84.13 313.10  321.43  84.04 312.95  321.40
  -5  -5  -2  2584.7   240.0   1-0.51612-0.12142 0.22566-0.72207-0.82626 0.68108  0  79.85 209.18   36.74  79.66 209.09   36.89
  -5  -5   2  2356.2   251.1   1-0.64243 0.00477-0.07690-0.41978-0.76248 0.90761  0  94.22 159.50   56.26  93.97 159.45   56.09
  -5   5  -2  2048.4   257.4   1-0.69839 0.06072-0.39261 0.88929-0.59842 0.45329  0 500.00  13.71   76.72 500.11  13.69   76.84
   5  -5  -2  2374.4   214.9   2-0.06714 0.70458-0.89368 0.39638 0.44366-0.58860  2 228.27 503.42   83.77 228.22 503.29   83.81
   5  -5  -2  2314.8   173.8   2 0.12969 0.50792-0.23118-0.26615-0.96423 0.81926  0  74.91 245.52  187.18  74.57 245.68  187.22
   5  -5   2  2385.9   217.9   1-0.25273 0.89106-0.90253 0.40562 0.34867-0.20369  0 148.28 443.02  148.14 148.33 442.93  148.05
   5  -5   2  2280.1   193.1   2-0.14031 0.77775-0.63732 0.14003 0.75772-0.61278  0 202.04 488.53   60.26 202.32 488.47   60.05
   5  -5   2  2394.5   160.6   2 0.11591 0.52170-0.72716 0.22983-0.67662 0.82159  0  74.62 271.16  153.77  74.49 270.91  153.85
   5   5  -2  2504.9   182.9   2 0.09120 0.54629 0.28325 0.21427-0.95470 0.80973  0 190.69 480.72  217.01 190.62 480.43  217.11
   5   5  -2  1894.0   143.2   2-0.16519 0.80242 0.95802-0.46065 0.23432-0.37937  0  75.52 283.77  305.30  75.52 283.65  305.35
   5   5   2  2352.0   143.7   2-0.02926 0.66658 0.86267-0.36512-0.50491 0.64989  0 159.26 454.87  260.89 159.44 454.73  260.79
   5   5   2  1894.5   119.7   2-0.21374 0.85097 0.78060-0.28323 0.58735-0.44231  0  81.57 319.12  328.43  81.38 319.16  328.37
  -5  -5  -3 -32.645 127.318   1-0.48526-0.15227 0.28106-0.77747-0.82796 0.61020  0  70.60 220.60   33.65  71.12 220.75   33.25
  -5  -5   3 173.957 148.447   1-0.66683 0.02917-0.16755-0.32913-0.72613 0.94383  0  92.50 144.99   61.55  92.63 145.13   61.86
   5  -5  -3 168.360 101.737   2 0.12495 0.51266-0.11378-0.38354-0.98562 0.76816  0  68.56 235.79  194.01  68.70 235.71  194.08
   5  -5   3 284.158 137.637   1-0.26760 0.90592-0.90474 0.40784 0.33142-0.11394  0 128.16 430.80  146.52 127.91 430.25  146.74
   5  -5   3  14.936 107.094   2-0.15781 0.79525-0.54781 0.05052 0.82158-0.60417  0 197.43 494.86   53.61 197.22 494.85   53.66
   5  -5   3 179.221  81.804   2 0.10299 0.53458-0.81913 0.32145-0.56429 0.78160  0  67.57 273.28  145.37  68.05 273.17  145.46
   5   5  -3  99.658 106.818   2 0.10706 0.53044 0.13710 0.36042-0.98476 0.76729  0 199.38 496.38  208.47 199.36 496.11  208.50
   5   5  -3 179.353  83.550   2-0.15421 0.79144 0.97418-0.47682 0.16489-0.38246  0  68.13 271.14  301.49  68.06 271.56  301.18
   5   5   3 175.935  76.670   2-0.06239 0.69971 0.93591-0.43835-0.34667 0.56414  0 152.82 459.19  271.02 153.21 459.30  270.95
   5   5   3 141.456  62.030   2-0.22432 0.86154 0.69149-0.19413 0.68667-0.46910  0  75.41 322.37  336.46  75.46 322.93  336.06
  -5  -5  -4  9726.9   369.0   1-0.45710-0.18044 0.32806-0.82448-0.82670 0.53635  0  60.23 232.40   30.05  60.42 232.52   30.11
  -5  -5   4  9124.6   362.6   1-0.68525 0.04759-0.26027-0.23641-0.68021 0.97049  0  89.38 129.45   67.78  89.23 129.49   67.89
   5  -5  -4 10656.7   312.5   2 0.11886 0.51863-0.01074-0.48677-0.99285 0.70290  0  60.68 224.47  199.86  60.38 224.48  199.98
   5  -5   4  8311.8   336.5   1-0.27374 0.91206-0.90553 0.40863 0.32416-0.03420  0 107.56 418.83  145.99 107.21 418.84  146.19
   5  -5   4  9128.0   255.3   2 0.08779 0.54978-0.88981 0.39213-0.44781 0.73755  0  59.09 274.10  137.65  58.70 273.96  137.60
   5   5  -4  8393.6   256.8   2-0.14391 0.78124 0.98445-0.48690 0.10069-0.39064  0  58.62 258.79  297.36  58.25 258.63  297.41
   5   5   4  9084.0   216.1   2-0.09029 0.72761 0.97511-0.47755-0.20252 0.49247  0 147.57 469.30  279.70 147.58 469.01  279.67
   5   5   4  7815.1   186.9   2-0.23223 0.86946 0.58641-0.08904 0.77601-0.48592  0  66.21 324.78  343.92  66.12 324.48  344.00
  -5  -5  -5  2961.3   270.9   1-0.43205-0.20549 0.36692-0.86334-0.82383 0.46090  0  47.34 244.60   27.45  47.34 244.62   27.45
  -5  -5   5  2351.0   282.6   1-0.69625 0.05858-0.35294-0.14374-0.62504 0.98788  0  83.74 112.09   73.99  83.64 112.03   74.10
   5  -5  -5  2937.1   224.4   2 0.11240 0.52510 0.07655-0.57406-0.99071 0.62827  0  50.00 211.88  204.73  49.65 211.85  204.99
   5  -5   5  2258.0   278.7   1-0.27359 0.91191-0.90551 0.40861 0.32433 0.03812  0  85.86 408.40  146.27  85.54 408.41  146.21
   5  -5   5  2451.0   175.2   2 0.07139 0.56617-0.94011 0.44243-0.33331 0.69548  0  46.65 273.51  130.35  46.27 273.50  130.41
   5   5  -5  2248.7   188.9   2-0.13388 0.77120 0.99016-0.49260 0.04079-0.40322  0  46.73 244.90  294.06  46.24 244.90  293.91
   5   5   5  2237.8   165.6   2-0.11325 0.75058 0.99053-0.49298-0.07757 0.44001  0 142.22 483.90  286.97 142.00 483.66  287.02
   5   5   5  2120.3   137.9   2-0.23657 0.87385 0.47353 0.02356 0.84841-0.48563  0  53.36 324.57  351.62  53.20 324.33  351.68
  -5  -5  -6  4236.6   300.8   1-0.41073-0.22681 0.39837-0.89479-0.82012 0.38460  0  31.52 257.32   25.29  31.56 257.34   25.27
  -5  -5   6  4032.6   299.3   1-0.69884 0.06117-0.44337-0.05331-0.56129 0.99670  0  75.75  92.02   80.42  75.61  92.16   80.45
   5  -5  -6  4485.5   271.3   2 0.10601 0.53149 0.14812-0.64563-0.98327 0.54835  0  36.25 197.88  209.26  36.21 197.80  209.14
   5  -5   6  3571.3   302.1   1-0.26864 0.90696-0.90488 0.40798 0.33019 0.10476  0  62.60 398.82  146.60  62.25 398.77  146.65
   5  -5   6  4125.9   209.9   2 0.05521 0.58236-0.97279 0.47511-0.22503 0.65964  0  30.92 272.17  123.77  30.60 271.91  123.87
   5   5  -6  3152.8   223.4   2-0.12416 0.76148 0.99213-0.49458-0.01596-0.41897  0  31.76 230.36  290.62  31.59 230.22  290.60
   5   5   6  3520.4   202.9   2-0.13183 0.76916 0.99086-0.49330 0.02867 0.40626  2 135.93 503.47  293.19 135.78 503.40  293.20
  -5  -6   0 264.974 149.370   1-0.61142-0.02624 0.01503-0.61105-0.79116 0.79116  0  59.54 194.09   50.51  59.80 194.25   50.30
   5  -6   0   7.396  91.364   2 0.13052 0.50709-0.49955-0.09724-0.85639 0.85639  0  52.56 240.22  170.41  52.53 240.19  170.58
   5   6   0  76.705 116.741   2 0.04263 0.59487 0.59335 0.00367-0.80382 0.80382  2 177.74 503.36  236.91 177.14 504.35  237.18
   5   6   0  53.556  80.052   2-0.20067 0.83790 0.85284-0.25600 0.48207-0.48207  0  53.16 287.81  320.85  53.49 287.59  320.98
  -5  -6  -1  2348.8   248.8   1-0.58518-0.05236 0.08116-0.67686-0.80683 0.73425  0  55.91 206.81   46.38  55.99 206.93   46.14
  -5  -6   1  2720.1   259.5   1-0.63615-0.00151-0.05662-0.53940-0.76948 0.84205  0  61.67 181.16   54.70  61.56 181.13   54.81
   5  -6  -1  2436.0   196.5   2 0.13214 0.50546-0.39163-0.20516-0.91059 0.83810  0  51.82 233.67  177.48  51.64 233.49  177.51
   5  -6   1  2064.0   232.8   1-0.28072 0.91904-0.90632 0.31004 0.31586-0.24337  0 153.04 485.92  145.49 152.97 485.93  145.57
   5  -6   1  2320.7   189.3   2 0.12615 0.51146-0.60419 0.00740-0.78679 0.85928  0  51.21 245.43  163.33  50.86 245.48  163.34
   5   6  -1  2073.6   160.4   2-0.19005 0.82728 0.89496-0.29812 0.40364-0.47617  0  51.25 279.19  315.74  51.37 278.91  315.84
   5   6   1  2574.7   205.6   2 0.01642 0.62107 0.71108-0.11406-0.70292 0.77541  0 170.19 500.89  246.01 169.76 500.69  246.22
   5   6   1  1864.0   153.4   2-0.21077 0.84800 0.79972-0.20289 0.56215-0.48963  0  52.88 295.00  326.56  52.93 294.90  326.54
  -5  -6  -2 260.573 142.401   1-0.55888-0.07866 0.14060-0.73630-0.81724 0.67207  0  49.31 219.19   42.56  49.96 219.35   42.37
  -5  -6   2  71.553 158.964   1-0.65825 0.02058-0.13298-0.46304-0.74096 0.88610  0  61.55 167.11   59.50  61.13 167.28   59.65
   5  -6  -2 213.440 117.014   2 0.13102 0.50659-0.28605-0.31074-0.94921 0.80424  0  48.29 225.38  184.07  48.28 225.43  183.96
   5  -6   2 137.380 148.076   1-0.30040 0.93872-0.90800 0.31172 0.29204-0.14706  0 130.54 470.67  143.50 130.60 470.36  143.79
   5  -6   2  86.358 107.205   2 0.11866 0.51895-0.70073 0.10394-0.70349 0.84846  0  46.59 249.40  156.72  46.56 249.36  156.01
   5   6  -2 180.083  96.505   2-0.17938 0.81660 0.92746-0.33062 0.32808-0.47312  0  47.49 268.25  311.48  46.73 269.02  311.07
   5   6   2  16.089 111.476   2-0.01130 0.64863 0.81053-0.21346-0.58559 0.73056  0 162.79 501.62  255.13 162.65 501.50  255.18
   5   6   2 126.380  76.972   2-0.21972 0.85694 0.73487-0.13803 0.64163-0.49658  0  49.38 300.70  332.37  49.49 300.66  332.45
  -5  -6  -3  8211.8   374.4   1-0.53315-0.10439 0.19291-0.78860-0.82374 0.60597  0  41.70 231.75   38.99  41.66 231.72   39.01
  -5  -6   3  8280.9   360.5   1-0.67667 0.03901-0.21243-0.38358-0.70498 0.92268  0  58.66 152.39   65.03  58.53 152.40   64.76
   5  -6  -3  9555.5   318.6   2 0.12828 0.50933-0.18666-0.41013-0.97401 0.75656  0  42.68 215.92  189.77  42.44 215.90  189.84
   5  -6   3  7778.3   336.7   1-0.30959 0.94791-0.90849 0.31221 0.28072-0.06325  0 109.26 456.87  142.77 108.84 456.82  142.96
   5  -6   3  8636.5   282.8   2 0.10834 0.52923-0.78483 0.18762-0.61017 0.82747  0  39.81 252.00  148.86  39.60 251.78  148.76
   5   6  -3  7917.7   262.1   2-0.16860 0.80582 0.95174-0.35490 0.25645-0.47402  0  39.72 258.07  306.77  39.57 257.98  306.68
   5   6   3  7349.7   219.3   2-0.22716 0.86439 0.65960-0.06277 0.71646-0.49889  0  43.13 304.85  338.68  42.99 304.86  338.57
  -5  -6  -4  52.626 146.923   1-0.50937-0.12817 0.23840-0.83410-0.82687 0.53652  0  30.25 244.28   36.48  30.93 244.40   36.06
  -5  -6   4 -48.195 170.348   1-0.69005 0.05239-0.29369-0.30232-0.66149 0.95176  0  53.53 136.13   69.99  53.59 136.09   70.10
   5  -6  -4 -22.851 121.761   2 0.12411 0.51349-0.09707-0.49973-0.98751 0.69757  0  33.76 205.12  194.95  33.98 204.98  195.03
   5  -6   4 167.327 169.317   1-0.31159 0.94992-0.90857 0.31229 0.27823 0.01174  0  86.53 445.04  142.87  86.66 444.87  142.77
   5  -6   4  10.560  95.992   2 0.09621 0.54136-0.85431 0.25710-0.51078 0.80052  0  29.17 253.28  141.58  29.50 253.05  141.77
   5   6  -4  -5.569 101.860   2-0.15792 0.79514 0.96930-0.37246 0.18847-0.47856  0  29.54 246.09  302.52  29.80 245.90  302.59
   5   6   4  74.525  82.884   2-0.23285 0.87008 0.57731 0.01953 0.78262-0.49253  0  33.54 307.24  344.93  33.32 307.66  344.65
  -5  -6  -5  1356.7   216.5   1-0.48772-0.14982 0.27684-0.87254-0.82794 0.46501  0  17.53 257.58   33.64  17.46 257.59   33.53
  -5  -6   5  1182.2   224.4   1-0.69763 0.05996-0.37488-0.22113-0.61056 0.97340  0  46.43 118.26   75.55  46.11 117.89   75.61
   5  -6  -5  1466.1   185.4   2 0.11941 0.51809-0.01875-0.57827-0.99267 0.63023  0  22.63 192.54  199.56  22.55 192.52  199.52
   5  -6   5 998.054 227.052   1-0.30832 0.94664-0.90843 0.31215 0.28229 0.08017  0  63.54 433.90  142.95  63.27 434.20  143.07
   5  -6   5  1398.0   159.4   2 0.08224 0.55533-0.90889 0.31168-0.40884 0.77101  0  16.54 253.33  135.30  16.22 253.18  135.11
   5   6  -5 978.800 146.498   2-0.14759 0.78491 0.98129-0.38422 0.12365-0.48609  0  16.94 233.17  298.58  17.20 232.70  298.76
   5   6   5 816.297 112.495   2-0.23614 0.87342 0.49145 0.10506 0.83828-0.47550  0  20.05 309.44  350.46  19.97 309.31  350.49
  -5  -7   0 -99.194 156.963   1-0.63617-0.00149-0.05667-0.63869-0.76947 0.76947  0  23.12 203.77   54.56  22.51 203.44   54.82
   5  -7   0 -59.032 122.281   2 0.13002 0.50759-0.52101-0.17524-0.84359 0.84359  0  19.29 218.04  169.48  19.44 217.88  169.13
   5   7   0 -37.144  97.759   2-0.20577 0.84300 0.82804-0.13173 0.52154-0.52154  0  17.06 272.24  323.45  17.46 271.82  323.68
  -5  -7  -1  1319.6   223.6   1-0.61582-0.02185 0.00311-0.69846-0.78788 0.71532  0  19.23 216.86   50.96  19.13 216.99   51.06
  -5  -7   1  1240.6   218.3   1-0.65505 0.01739-0.12097-0.57438-0.74584 0.81840  0  23.83 189.69   58.75  23.41 189.47   58.89
   5  -7  -1  1441.4   184.7   2 0.13180 0.50580-0.43017-0.26608-0.89307 0.82059  0  18.80 211.40  175.18  18.75 211.29  175.08
   5  -7   1  1293.0   171.5   2 0.12580 0.51181-0.61009-0.08616-0.78228 0.85477  0  17.41 223.01  163.00  17.34 223.17  162.91
   5   7  -1 990.106 137.921   2-0.19659 0.83381 0.87042-0.17411 0.45135-0.52387  0  15.46 264.13  318.66  15.73 263.58  318.95
   5   7   1 982.114 131.488   2-0.21414 0.85136 0.77795-0.08164 0.59071-0.51819  0  16.45 278.99  328.57  16.28 278.90  328.61
  -6   0   0 45516.3   525.8   1-0.38252-0.38252 0.43768-0.43769-0.81370 0.81370  0 162.60  94.07   22.38 162.56  94.25   22.47
  -6   0   0 47576.8   578.2   1-0.38299-0.38299-0.90516 0.90516 0.18442-0.18442  0 475.08  46.18  136.10 475.26  46.32  136.01
  -6   0  -1 -93.722  98.451   1-0.31100-0.45404 0.52821-0.52821-0.79011 0.71752  0 148.90 107.45   15.98 148.86 107.86   15.73
  -6   0  -1-140.841 198.774   1-0.40143-0.36456-0.90207 0.90207 0.15853-0.23102  0 498.72  57.68  134.08 498.66  57.91  134.18
  -6   0   1  16.435  92.501   1-0.46446-0.30058 0.31596-0.31596-0.82731 0.89990  0 175.84  79.36   31.01 175.91  79.22   30.92
  -6   0   1 115.227 160.239   1-0.36689-0.39910-0.90708 0.90708 0.20640-0.13391  0 453.42  33.40  137.54 453.62  33.38  137.58
  -6   0  -2 315.922 115.581   1-0.25143-0.51362 0.59493-0.59493-0.76344 0.61826  0 134.45 120.12   10.47 134.52 120.31   10.39
  -6   0   2   5.663  88.940   1-0.55178-0.21327 0.15556-0.15556-0.81935 0.96453  0 189.48  62.28   41.53 189.35  62.24   41.41
  -6   0   2 195.412 148.265   1-0.35453-0.41146-0.90809 0.90809 0.22289-0.07790  0 432.78  18.15  138.39 432.96  18.88  138.76
  -6   0  -3   1.465 118.084   1-0.20339-0.56166 0.64316-0.64316-0.73823 0.52047  0 119.02 131.85    6.22 119.24 131.82    6.23
  -6   0   3 127.601  83.583   1-0.63332-0.13187-0.04784 0.04784-0.77241 0.99011  0 203.34  42.69   54.06 203.67  42.70   54.26
  -6   0   3  -2.896 102.425   2-0.16896-0.59582-0.48368 0.48368 0.85878-0.64114  0 481.45  26.76   49.63 481.93  26.83   49.34
  -6   0  -4 346.652 150.748   1-0.16579-0.59925 0.67787-0.67787-0.71624 0.42589  0 102.74 142.60    2.99 102.75 142.67    3.04
  -6   0   4 171.618  80.181   1-0.68950-0.07569-0.28951 0.28951-0.66391 0.95418  0 220.68  19.03   70.41 219.93  19.89   69.82
   6   0  -4 315.785  68.072   2 0.12829 0.63684-0.56367 0.56367-0.81598 0.52604  0 146.41 439.26  166.46 146.63 439.34  166.21
   6   0  -4 331.319  59.850   2 0.08326 0.68173 0.34619-0.34619-0.93446 0.64451  0  87.15 335.67  220.83  87.25 335.61  220.93
   6   0  -5  25.340  83.848   2 0.12153 0.64360-0.67007 0.67007-0.73228 0.36985  0 160.50 472.49  158.65 160.97 472.64  158.43
   6   0  -5 -17.591  64.729   2 0.05948 0.70552 0.50167-0.50167-0.86301 0.50057  0  68.72 310.63  231.13  68.82 311.12  230.84
   6   0  -6  7198.6   283.9   2 0.11678 0.64835-0.71909 0.71909-0.68504 0.25012  2 172.67 505.19  154.38 172.24 505.31  154.52
   6   0  -6  8089.2   233.4   2 0.04473 0.72026 0.58256-0.58256-0.81155 0.37663  0  50.91 290.86  236.39  50.67 290.74  236.41
   6   0  -7 113.017  93.883   2 0.03543 0.72956 0.62856-0.62856-0.77696 0.26954  0  30.97 272.00  239.60  31.00 271.83  239.76
  -6  -1   0 -23.831 105.940   1-0.43584-0.32921 0.36118-0.46046-0.82438 0.82438  0 147.45 107.96   27.84 147.36 107.82   27.85
  -6  -1   0 122.087 197.558   1-0.27198-0.49400-0.90532 0.80594 0.32623-0.32623  0 501.55  56.72  146.33 501.35  57.33  146.35
  -6   1   0  -5.461  93.474   1-0.32214-0.44291 0.51493-0.41565-0.79440 0.79440  0 174.68  79.10   16.49 174.75  78.55   16.75
  -6   1   0 -34.420 162.436   1-0.50167-0.26431-0.86505 0.96443 0.00361-0.00361  0 455.36  32.25  123.46 455.35  32.11  123.38
  -6  -1  -1 -76.693  97.447   1-0.37376-0.39129 0.44948-0.54877-0.81134 0.73875  0 136.08 120.89   21.54 135.97 120.89   21.62
  -6  -1   1 -58.779  94.303   1-0.50328-0.26177 0.24944-0.34873-0.82734 0.89993  0 157.70  93.79   35.03 157.77  93.42   35.34
  -6  -1   1  97.771 186.275   1-0.24184-0.52415-0.90054 0.80116 0.36131-0.28882  0 483.33  43.23  149.53 483.22  43.26  149.01
  -6   1  -1 161.662 102.886   1-0.24193-0.52311 0.60482-0.50554-0.75872 0.68613  0 158.25  92.93    9.54 158.27  92.97    9.55
  -6   1  -1  57.516 185.438   1-0.50472-0.26126-0.86328 0.96266-0.00159-0.07090  0 482.49  42.12  122.95 482.21  42.70  123.02
  -6   1   1  54.106  84.671   1-0.42056-0.34449 0.38406-0.28478-0.82197 0.89455  0 192.05  62.11   26.49 191.94  62.36   26.27
  -6   1   1  30.696 147.540   1-0.50505-0.26093-0.86309 0.96247-0.00215 0.07464  0 429.16  20.46  122.96 429.08  20.33  122.98
  -6  -1  -2  2020.1   198.6   1-0.31944-0.44561 0.51819-0.61747-0.79337 0.64820  0 123.71 132.93   16.44 123.45 133.04   16.50
  -6  -1   2  2125.6   182.8   1-0.57160-0.19345 0.11278-0.21207-0.81274 0.95792  0 167.33  77.41   44.13 167.33  77.52   44.14
  -6  -1   2  2586.6   293.1   1-0.21279-0.55347-0.89432 0.79490 0.39359-0.24861  0 467.25  27.07  151.68 467.26  27.24  151.51
  -6   1  -2  1603.1   197.3   1-0.17889-0.58615 0.66607-0.56679-0.72412 0.57895  0 141.88 105.63    4.02 141.81 105.85    4.14
  -6   1   2  2164.1   142.9   1-0.53426-0.23079 0.19072-0.09143-0.82352 0.96870  0 211.39  43.42   39.07 211.36  43.66   39.15
  -6   1   2  2389.2   157.7   2-0.22184-0.54294-0.03174 0.13115 0.97457-0.82947  0 495.68  43.05   22.12 495.71  43.22   22.18
  -6  -1  -3  5729.3   272.6   1-0.27371-0.49134 0.57087-0.67016-0.77407 0.55631  0 109.92 144.18   12.33 109.63 144.43   12.36
  -6  -1   3  6095.7   230.5   1-0.63346-0.13173-0.04827-0.05106-0.77226 0.98997  0 176.36  59.43   54.18 176.31  59.55   54.29
  -6  -1   3  6187.5   324.4   1-0.18522-0.58103-0.88683 0.78741 0.42335-0.20587  2 452.74   9.11  153.87 453.01   9.13  153.88
  -6  -1   3  6305.9   206.5   2-0.12803-0.63690-0.69271 0.59325 0.70977-0.49236  0 487.68  24.67   64.26 487.89  25.00   64.31
  -6   1   3  5617.2   151.1   1-0.64736-0.11784-0.09346 0.19279-0.75643 0.97414  0 236.43  20.78   57.21 236.23  21.01   57.14
  -6   1   3  6583.2   235.3   2-0.19446-0.57032-0.30636 0.40578 0.93184-0.71420  0 470.23  16.57   38.22 470.57  16.74   38.24
   6  -1  -3  5968.6   111.2   2 0.12278 0.64235-0.65413 0.55466-0.74635 0.52890  0 135.34 414.68  159.74 135.40 414.47  159.65
   6  -1  -3  5858.6   108.3   2 0.12497 0.64016-0.11428 0.01481-0.98556 0.76810  0 101.77 355.61  194.28 101.71 355.74  194.05
  -6  -1  -4 795.678 172.621   1-0.23641-0.52864 0.61050-0.70978-0.75591 0.46556  0  94.18 155.01    9.41  94.38 155.29    9.07
  -6  -1   4 608.511 113.170   1-0.67941-0.08579-0.22667 0.12734-0.69787 0.98814  0 184.79  39.23   65.64 184.77  39.13   65.69
   6  -1  -4 697.096  87.776   2 0.10904 0.65605-0.77998 0.68045-0.61623 0.32649  0 153.43 450.46  149.34 153.52 450.46  149.21
   6  -1  -4 920.586 100.838   2 0.10066 0.66433 0.20065-0.30015-0.97448 0.68453  0  81.82 324.86  212.47  81.74 325.27  212.21
   6   1  -4 657.070  73.793   2 0.13160 0.63353-0.32605 0.42552-0.93615 0.64620  0 141.57 438.32  181.85 142.04 438.33  181.55
   6   1  -4 748.014  89.776   2 0.05434 0.71066 0.53100-0.43150-0.84563 0.55567  0  86.05 340.20  232.85  85.99 340.09  232.82
  -6  -1  -5 10177.3   365.7   1-0.20695-0.55809 0.63979-0.73908-0.74016 0.37722  0  77.58 165.54    6.51  77.33 165.79    6.53
  -6  -1   5 10192.2   255.7   1-0.69889-0.06630-0.41183 0.31250-0.58476 0.94760  0 193.28  15.37   78.08 193.20  15.28   78.19
   6  -1  -5 10357.4   257.0   2 0.10252 0.66257-0.82182 0.72228-0.56045 0.19828  0 166.49 481.56  145.11 166.29 481.11  145.19
   6  -1  -5 11318.1   242.2   2 0.08136 0.68363 0.36014-0.45964-0.92934 0.56690  0  65.20 303.64  221.87  64.94 303.58  221.79
   6   1  -5 10173.8   234.2   2 0.13075 0.63438-0.49108 0.59054-0.86125 0.49882  0 157.05 473.37  171.10 156.87 472.89  171.14
   6   1  -5 10296.8   221.6   2 0.03066 0.73433 0.65047-0.55097-0.75891 0.39648  0  67.06 314.72  241.37  66.92 314.52  241.40
  -6  -1  -6 -36.146 154.185   1-0.18456-0.58048 0.66086-0.76014-0.72747 0.29194  0  58.08 176.19    4.57  58.15 176.11    4.62
   6  -1  -6 121.987  84.031   2 0.06703 0.69796 0.45521-0.55471-0.88786 0.45293  0  47.43 284.96  227.54  47.48 284.47  227.79
   6  -1   6 474.980 174.224   1 0.05134 0.71491-0.76860 0.66919 0.63766-0.20271  0  67.12 369.02  173.64  67.17 368.81  173.47
   6   1  -6 239.733  83.499   2 0.01788 0.74711 0.70514-0.60564-0.70884 0.27392  0  48.45 293.39  245.88  48.41 293.79  245.73
  -6  -1  -7 382.239 182.520   1-0.16854-0.59650 0.67542-0.77470-0.71791 0.20980  0  35.95 186.35    3.46  36.32 186.51    3.27
   6  -1  -7 595.731 115.886   2 0.05711 0.70788 0.51534-0.61484-0.85508 0.34767  0  28.01 266.54  231.61  28.03 266.19  231.76
   6  -1   7 672.699 201.973   1 0.04023 0.72603-0.77622 0.67681 0.62918-0.12173  0  43.76 359.33  172.58  43.80 359.26  172.56
   6   1  -7 666.895 119.089   2 0.01089 0.75411 0.73319-0.63369-0.67994 0.17252  0  28.71 274.31  248.33  28.37 274.73  248.07
  -6  -2   0 983.533 155.325   1-0.48248-0.28257 0.28582-0.48439-0.82796 0.82796  0 129.31 119.63   32.68 129.22 119.58   32.94
  -6   2   0  1052.1   125.1   1-0.25479-0.51026 0.59142-0.39285-0.76505 0.76505  0 183.53  60.14   10.57 183.57  60.26   10.68
  -6   2   0 972.335 178.385   1-0.60784-0.15815-0.76713 0.96589-0.20507 0.20507  0 441.19  13.02  108.63 441.54  13.38  108.80
  -6  -2  -1  1745.7   216.2   1-0.42974-0.33531 0.37040-0.56896-0.82349 0.75090  0 119.99 132.50   27.00 119.70 132.47   27.21
  -6  -2   1  1534.1   163.2   1-0.53761-0.22744 0.18416-0.38273-0.82284 0.89543  0 137.52 105.62   39.51 137.42 105.61   39.57
  -6   2  -1  1436.2   173.8   1-0.16827-0.59678 0.67566-0.47710-0.71775 0.64516  0 163.95  75.57    2.95 163.89  75.62    3.25
  -6   2  -1  1729.5   222.1   1-0.59764-0.16835-0.78089 0.97965-0.18175 0.10925  0 472.61  23.06  110.61 472.66  22.96  110.46
  -6   2   1  1814.5   144.9   1-0.37104-0.39401 0.45311-0.25454-0.81057 0.88316  0 205.70  42.55   21.08 205.85  42.28   21.36
  -6  -2  -2 11297.6   344.1   1-0.38162-0.38343 0.43891-0.63747-0.81346 0.66829  0 108.90 144.28   22.38 108.71 144.47   22.38
  -6  -2   2 11153.9   315.1   1-0.59161-0.17344 0.06576-0.26432-0.80354 0.94871  0 144.23  90.24   47.09 144.24  90.26   47.11
  -6   2  -2 12033.2   426.6   1-0.59368-0.17230-0.78588 0.98465-0.17300 0.02801  2 504.26  31.45  111.11 504.74  31.42  111.08
  -6   2   2 11126.4   192.1   1-0.52402-0.24103 0.21055-0.01199-0.82527 0.97044  0 235.13  20.32   37.78 235.05  20.54   37.87
  -6   2   2 12252.1   268.5   2-0.22682-0.53796 0.04062 0.15822 0.97309-0.82799  0 475.56  17.23   17.97 475.81  17.45   18.02
   6  -2  -2 10737.4   118.8   2 0.10222 0.66286-0.82349 0.62442-0.55805 0.41318  0 129.36 407.97  145.12 129.40 407.78  145.02
   6  -2  -2 11145.4   118.7   2 0.13063 0.63449-0.49544 0.29651-0.85876 0.71379  0 104.66 364.57  170.78 104.28 364.08  170.85
  -6  -2  -3  8528.5   326.4   1-0.33951-0.42553 0.49365-0.69221-0.80065 0.58289  0  96.32 155.70   18.37  96.14 155.86   18.36
  -6  -2   3  8448.6   287.2   1-0.63962-0.12558-0.06775-0.13092-0.76570 0.98341  0 149.86  73.09   55.42 149.86  73.13   55.52
  -6  -2   3  8310.6   396.2   1-0.06917-0.69709-0.84049 0.64166 0.53740-0.31992  2 496.79  12.55  163.76 496.89  12.70  163.58
  -6  -2   3  8682.1   247.1   2-0.07526-0.68967-0.87306 0.67414 0.48177-0.26436  2 487.73   9.58   81.20 488.03   9.71   81.28
   6  -2  -3  8177.5   177.7   2 0.08430 0.68078-0.90189 0.70282-0.42366 0.20636  0 148.63 442.82  136.01 148.37 442.45  136.05
   6  -2  -3  8632.2   170.8   2 0.12576 0.63937-0.13112-0.06781-0.98336 0.76590  0  85.93 332.86  193.22  85.73 332.86  193.07
  -6  -2  -4  1474.4   200.0   1-0.30387-0.46117 0.53656-0.73513-0.78725 0.49690  0  82.01 166.76   14.99  81.86 166.86   15.08
  -6  -2   4  1433.1   160.0   1-0.67638-0.08882-0.21096 0.01229-0.70570 0.99597  0 154.12  53.98   64.55 154.20  53.83   64.66
   6  -2  -4  1513.5   154.9   2 0.07870 0.68638-0.92027 0.72120-0.38329 0.09355  0 161.62 470.32  133.45 161.41 470.05  133.51
   6  -2  -4  1641.5   125.8   2 0.11131 0.65368 0.08894-0.28794-0.98980 0.69985  0  71.05 311.41  205.86  70.94 311.53  205.71
   6  -2   4  1385.3   179.0   1 0.02605 0.74021-0.78582 0.58698 0.61791-0.32794  0 107.90 405.06  171.27 107.60 404.95  171.39
   6   2  -4  1368.7   119.1   2 0.12593 0.63920-0.13468 0.33361-0.98286 0.69291  0 140.72 449.38  192.76 140.51 449.02  192.87
   6   2  -4  1574.3   105.7   2 0.01345 0.75155 0.72298-0.52397-0.69074 0.40079  0  77.40 337.64  247.28  77.30 337.60  247.21
  -6  -2  -5  2311.8   256.4   1-0.27479-0.49026 0.56969-0.76825-0.77456 0.41162  0  65.66 177.62   12.43  65.54 177.61   12.45
  -6  -2   5  1887.4   217.1   1-0.69658-0.06862-0.35749 0.15882-0.62208 0.98492  0 157.47  31.68   74.31 157.41  31.64   74.41
   6  -2  -5  2006.6   195.9   2 0.07716 0.68792-0.92478 0.72571-0.37259 0.01042  0 172.27 498.42  132.93 172.38 498.06  132.84
   6  -2  -5  2412.5   155.1   2 0.09695 0.66804 0.23446-0.43347-0.96728 0.60484  0  55.81 293.17  214.01  55.73 292.88  214.21
   6  -2   5  2312.1   259.5   1 0.00333 0.76292-0.80022 0.60139 0.59970-0.23723  0  87.46 394.54  169.45  87.12 394.62  169.53
   6   2  -5  2120.7   174.1   2 0.13148 0.63365-0.31631 0.51524-0.93950 0.57707  0 154.38 482.88  182.06 154.09 482.50  182.14
   6   2  -5  1976.1   141.5   2-0.00358 0.76837 0.78533-0.58630-0.61907 0.25663  0  58.98 313.77  252.76  58.86 313.60  252.74
  -6  -2  -6  8329.6   368.7   1-0.25184-0.51321 0.59450-0.79307-0.76364 0.32812  0  47.16 188.15   10.41  46.95 188.32   10.42
   6  -2  -6  8797.5   260.3   2 0.08495 0.68004 0.33347-0.53248-0.93893 0.50400  0  39.13 275.28  220.09  38.91 275.22  220.15
   6  -2   6  8170.9   370.0   1-0.01112 0.77738-0.80905 0.61022 0.58763-0.15267  0  65.31 384.89  168.28  64.87 384.93  168.34
   6   2  -6  7711.7   235.2   2-0.01155 0.77634 0.81134-0.61231-0.58447 0.14954  0  40.46 293.83  255.09  40.35 293.45  255.26
  -6  -2  -7 454.789 184.906   1-0.23455-0.53049 0.61239-0.81095-0.75496 0.24685  0  26.12 199.42    8.47  25.48 199.23    8.91
   6  -2  -7 255.601 106.608   2 0.07549 0.68951 0.40113-0.60013-0.91291 0.40549  0  19.89 257.55  224.45  19.74 257.81  224.34
   6  -2   7 145.815 186.309   1-0.01897 0.78523-0.81365 0.61482 0.58105-0.07360  0  40.67 375.55  167.56  40.29 375.67  167.69
   6   2  -7 197.538 101.228   2-0.01501 0.77980 0.82198-0.62296-0.56932 0.06190  0  20.31 274.77  256.34  20.01 274.71  256.35
  -6  -3   0   2.363 120.950   1-0.52313-0.24191 0.21224-0.51009-0.82540 0.82540  0 108.35 130.28   37.46 108.00 129.94   37.76
  -6   3   0 -18.429  93.670   1-0.18246-0.58259 0.66280-0.36495-0.72622 0.72622  0 188.60  38.01    4.50 188.61  38.33    4.45
  -6   3   0 -11.383 120.243   2-0.23515-0.52952 0.52635-0.22793 0.81711-0.81711  2 488.74   9.63  348.44 489.47   9.34  348.19
  -6  -3  -1  8443.0   320.2   1-0.47898-0.28607 0.29175-0.58960-0.82793 0.75534  0 100.12 142.67   32.52  99.91 142.81   32.54
  -6  -3   1  8500.5   307.1   1-0.56811-0.19694 0.12053-0.41838-0.81408 0.88666  0 114.62 115.99   43.63 114.39 116.11   43.65
  -6   3   1  8400.8   199.7   1-0.31551-0.44953 0.52287-0.22502-0.79187 0.86446  0 217.35  17.70   16.13 217.22  17.99   16.14
   6  -3  -1  8081.6   144.8   2 0.04435 0.72074-0.98675 0.68815-0.15605 0.08361  0 133.61 428.89  119.93 133.72 428.87  119.80
   6  -3  -1  7948.3   138.8   2 0.12415 0.64098-0.63550 0.33711-0.76205 0.68957  0  90.18 351.92  161.05  89.85 351.65  161.05
  -6  -3  -2 910.682 180.679   1-0.43745-0.32759 0.35871-0.65656-0.82460 0.67942  0  90.27 154.90   27.96  90.17 154.93   28.02
  -6  -3   2 999.742 167.087   1-0.61091-0.15428 0.01640-0.31441-0.79153 0.93667  0 119.20 100.95   50.40 119.21 100.94   50.22
   6  -3  -2 789.327  88.235   2 0.04184 0.72324-0.98918 0.69058-0.14058-0.00429  0 147.34 450.91  119.04 147.38 451.07  118.89
   6  -3  -2 897.555  99.981   2 0.13208 0.63305-0.38240 0.08400-0.91451 0.76954  0  79.12 330.55  178.28  78.92 330.84  178.08
   6  -3   2  1026.2   157.7   1 0.03285 0.73341-0.78131 0.48306 0.62328-0.47830  0 144.71 448.04  171.82 144.88 448.05  171.95
  -6  -3  -3  2279.8   236.5   1-0.39981-0.36523 0.41383-0.71168-0.81786 0.60010  0  78.51 166.41   24.23  78.59 166.50   24.17
  -6  -3   3  2740.8   238.5   1-0.64849-0.11671-0.09734-0.20067-0.75498 0.97268  0 122.67  84.48   57.36 122.46  84.18   57.39
   6  -3  -3  2194.1   164.2   2 0.04345 0.72163-0.98765 0.68905-0.15051-0.06679  0 158.87 473.06  119.53 158.91 472.95  119.47
   6  -3  -3  2456.2   139.0   2 0.12757 0.63756-0.17019-0.12820-0.97712 0.75966  0  68.16 312.90  190.90  67.89 312.89  190.80
   6  -3   3  2293.7   240.5   1-0.00966 0.77592-0.80819 0.50994 0.58885-0.37137  0 124.58 434.83  168.34 124.25 435.21  168.46
   6   3  -3  2348.0   105.0   2 0.09214 0.67285 0.27547 0.02304-0.95688 0.73942  0 124.45 435.79  216.75 124.43 435.69  216.64
   6   3  -3  2304.8    96.6   2-0.01132 0.77611 0.81059-0.51205-0.58551 0.36804  0  80.79 358.13  255.13  80.58 357.86  255.19
  -6  -3  -4  1026.8   192.0   1-0.36694-0.39811 0.45853-0.75638-0.80939 0.51904  0  65.41 177.68   20.60  65.02 177.74   20.96
  -6  -3   4 902.658 167.774   1-0.67761-0.08758-0.21724-0.08077-0.70260 0.99288  0 124.06  65.25   65.35 124.04  65.35   65.07
   6  -3  -4 770.437 123.541   2 0.04676 0.71832-0.98414 0.68553-0.17114-0.11860  0 168.52 496.58  121.11 169.27 496.57  120.68
   6  -3  -4  1330.6   137.8   2 0.11830 0.64669-0.00263-0.29588-0.99297 0.70302  0  55.82 296.14  200.51  55.56 296.20  200.45
   6  -3   4 885.708 191.126   1-0.03851 0.80477-0.82455 0.52631 0.56447-0.27450  0 103.37 423.63  166.00 103.28 423.72  166.10
   6   3  -4 858.851 101.295   2 0.11778 0.64721 0.00389 0.29462-0.99303 0.70308  0 140.84 470.67  200.54 140.45 470.11  200.82
   6   3  -4 928.657 112.178   2-0.03116 0.79595 0.86771-0.56918-0.49609 0.20614  0  62.04 330.49  261.34  61.95 330.37  261.38
  -6  -3  -5 467.702 169.534   1-0.33917-0.42588 0.49407-0.79192-0.80053 0.43760  0  49.05 188.66   18.44  49.19 188.87   18.33
  -6  -3   5 512.470 162.476   1-0.69512-0.07008-0.33918 0.04117-0.63385 0.99669  0 124.09  43.93   73.41 123.99  43.81   73.16
   6  -3  -5 683.936 107.990   2 0.10814 0.65686 0.12507-0.42357-0.98624 0.62380  0  41.04 280.07  207.66  41.49 279.84  207.80
   6  -3   5 587.722 176.658   1-0.05716 0.82342-0.83446 0.53622 0.54809-0.18563  0  81.54 413.31  164.53  81.32 413.26  164.57
   6   3  -5 557.618 121.434   2 0.12732 0.63781-0.16429 0.46269-0.97816 0.61573  0 151.93 501.81  191.08 151.99 501.40  191.14
   6   3  -5 550.552  92.387   2-0.03843 0.80322 0.88573-0.58720-0.46260 0.10017  0  45.23 308.69  263.91  44.73 309.31  263.58
  -6  -3  -6 317.768 163.373   1-0.31654-0.44851 0.52165-0.81950-0.79226 0.35674  0  30.59 200.02   16.37  30.81 200.13   16.23
  -6  -3   6  66.793 160.307   1-0.69838-0.06682-0.45884 0.16083-0.54931 0.98472  0 122.35  18.75   81.53 122.36  18.60   81.57
   6  -3  -6 154.719  97.835   2 0.09854 0.66645 0.22018-0.51868-0.97047 0.53554  0  25.11 263.26  213.58  25.01 263.61  213.36
   6  -3   6 137.665 172.996   1-0.06796 0.83421-0.83989 0.54164 0.53849-0.10354  0  57.89 403.18  163.53  57.64 403.62  163.68
   6   3  -6 251.305  94.187   2-0.04063 0.80542 0.89099-0.59246-0.45220 0.01728  0  26.57 290.02  264.47  26.35 290.38  264.26
  -6  -4   0  2337.8   243.5   1-0.55874-0.20631 0.14090-0.53803-0.81729 0.81729  0  83.15 139.17   42.38  83.10 139.20   42.35
   6  -4   0  2260.7   144.3   2-0.02165 0.78657-0.97591 0.57808 0.21709-0.21709  0 138.93 462.47   97.93 138.84 462.27   97.90
   6  -4   0  2534.4   128.8   2 0.11795 0.64718-0.70781 0.30995-0.69648 0.69648  0  67.11 334.59  155.47  66.94 334.41  155.45
  -6  -4  -1  3396.3   270.2   1-0.52200-0.24305 0.21439-0.61152-0.82556 0.75297  0  76.32 152.13   37.63  76.21 152.22   37.62
  -6  -4   1  3615.8   267.5   1-0.59500-0.17005 0.05759-0.45472-0.80166 0.87425  0  88.35 125.19   47.60  88.12 125.19   47.63
   6  -4  -1  3120.3   172.2   2-0.00976 0.77484-0.98780 0.58965 0.15545-0.22789  0 148.87 474.88  101.60 148.75 474.75  101.61
   6  -4  -1  3067.6   147.3   2 0.12928 0.63585-0.54125 0.14339-0.83086 0.75838  0  62.69 321.39  167.84  62.36 321.28  167.76
   6  -4   1  3214.5   224.4   1 0.02255 0.74370-0.78809 0.39042 0.61515-0.54266  0 163.48 487.80  171.17 163.34 487.51  171.10
   6  -4   1  3087.8   136.4   2-0.03557 0.80050-0.95659 0.55875 0.28926-0.21679  0 129.00 453.79   93.56 128.93 453.63   93.54
   6  -4   1  3190.9   125.4   2 0.09749 0.66760-0.84816 0.45002-0.52069 0.59313  0  69.33 346.46  142.58  69.07 346.56  142.44
  -6  -4  -2  4941.2   301.2   1-0.48679-0.27825 0.27843-0.67557-0.82795 0.68278  0  67.34 164.52   33.45  67.35 164.63   33.43
  -6  -4   2  5015.4   294.1   1-0.62891-0.13628-0.03453-0.36281-0.77671 0.92184  0  91.53 109.91   53.37  91.33 109.95   53.42
   6  -4  -2  4901.3   212.1   2 0.00073 0.76435-0.99510 0.59696 0.09887-0.24374  0 158.44 490.12  104.98 158.37 490.05  104.93
   6  -4  -2  4779.0   181.9   2 0.13195 0.63318-0.37259-0.02527-0.91857 0.77360  0  55.91 307.81  178.85  55.56 307.82  178.70
   6  -4   2  4971.0   280.6   1-0.03416 0.80042-0.82216 0.42450 0.56823-0.42325  0 139.69 471.82  166.29 139.51 471.79  166.46
   6  -4   2  4676.7   138.7   2-0.05277 0.81770-0.92568 0.52785 0.37460-0.22966  0 119.56 449.47   88.20 119.26 449.18   88.24
   6  -4   2  4648.6   130.7   2 0.06988 0.69520-0.94379 0.54565-0.32306 0.46793  0  68.41 357.08  129.94  68.06 357.29  129.78
   6   4  -2  4953.1   120.3   2 0.04658 0.71841 0.57301-0.17500-0.81822 0.67325  0 111.52 439.08  235.83 111.46 438.97  235.73
   6   4  -2  4261.5   108.0   2-0.05250 0.81730 0.91706-0.51901-0.39528 0.25030  0  72.97 369.53  267.90  72.63 369.25  267.92
  -6  -4  -3  5367.5   322.4   1-0.45411-0.31093 0.33282-0.72995-0.82645 0.60869  0  56.66 176.52   29.87  56.46 176.59   29.79
  -6  -4   3  4984.0   312.0   1-0.65832-0.10688-0.13325-0.26409-0.74085 0.95856  0  92.79  92.78   59.64  92.67  93.13   59.67
   6  -4  -3  5256.3   201.0   2 0.12947 0.63566-0.21616-0.18170-0.96774 0.75028  0  46.79 294.18  188.01  46.65 293.88  188.11
   6  -4   3  5018.8   291.6   1-0.07153 0.83779-0.84166 0.44399 0.53525-0.31778  0 117.27 458.03  163.32 116.88 458.16  163.39
   6  -4   3  4789.1   134.4   2-0.07424 0.83916-0.87575 0.47792 0.47702-0.25961  0 110.57 450.63   81.63 110.39 450.39   81.60
   6  -4   3  4583.1   125.5   2 0.04157 0.72351-0.98943 0.59129-0.13894 0.35624  0  63.57 364.83  118.81  63.19 364.81  118.79
   6   4  -3  4787.8   172.7   2 0.08844 0.67656 0.30563 0.09238-0.94804 0.73057  0 127.89 471.31  218.38 127.68 470.98  218.46
   6   4  -3  4470.9   147.5   2-0.06657 0.83136 0.94314-0.54509-0.32567 0.10820  0  56.25 342.10  272.20  55.95 341.88  272.26
  -6  -4  -4 451.365 175.281   1-0.42467-0.34037 0.37797-0.77510-0.82267 0.53233  0  43.67 188.24   26.62  43.33 188.30   26.69
  -6  -4   4 845.213 192.640   1-0.68113-0.08407-0.23609-0.16125-0.69305 0.98333  0  92.20  74.47   66.44  92.10  74.29   66.30
   6  -4  -4 600.035 111.455   2 0.12330 0.64183-0.08248-0.31538-0.98894 0.69899  0  35.45 280.21  195.62  35.53 279.74  195.88
   6  -4   4 396.607 178.268   1-0.09566 0.86192-0.85298 0.45532 0.51310-0.22313  0  94.47 445.36  160.95  94.12 446.20  161.40
   6  -4   4 623.031  75.777   2-0.09947 0.86439-0.80051 0.40268 0.59100-0.30113  0 102.86 458.35   73.65 102.65 458.34   73.67
   6  -4   4 775.794  93.201   2 0.01651 0.74857-0.99980 0.60166 0.01108 0.27866  0  53.86 368.54  110.27  53.77 368.93  110.05
   6   4  -4 760.807 121.239   2 0.10955 0.65544 0.10953 0.28849-0.98793 0.69798  0 139.37 499.73  206.99 139.61 499.66  206.90
   6   4  -4 499.298  86.863   2-0.06986 0.83466 0.94849-0.55044-0.30901 0.01906  0  40.75 321.04  273.33  40.75 321.09  273.28
  -6  -4  -5  1464.2   219.1   1-0.39910-0.36594 0.41483-0.81196-0.81770 0.45476  0  27.28 199.86   24.38  27.68 200.00   24.10
  -6  -4   5  1471.5   216.3   1-0.69523-0.06997-0.34040-0.05695-0.63308 0.99592  0  89.76  53.31   73.19  89.50  52.75   73.25
   6  -4  -5  1834.5   184.4   2 0.11607 0.64892 0.02801-0.42602-0.99285 0.63041  0  22.24 265.01  202.30  21.80 265.17  202.20
   6  -4   5  1314.6   230.3   1-0.11014 0.87640-0.85941 0.46174 0.49929-0.13683  0  70.77 435.43  160.19  70.37 435.56  160.20
   6  -4   5  1339.9   127.4   2-0.12550 0.89043-0.70331 0.30547 0.69972-0.33738  0  95.02 472.80   65.30  95.18 472.92   65.15
   6  -4   5  1294.9   109.1   2-0.00445 0.76953-0.99189 0.59375 0.12704 0.23513  0  40.16 369.97  103.43  40.00 370.36  103.28
   6   4  -5  1007.1   117.7   2-0.06923 0.83402 0.94748-0.54944-0.31222-0.05022  0  24.41 302.96  272.93  24.44 302.59  273.08
  -6  -5   0 199.372 167.372   1-0.58952-0.17553 0.07081-0.56722-0.80464 0.80464  0  53.83 147.90   46.51  53.67 147.47   46.79
   6  -5   0  42.139  79.715   2 0.12327 0.64186-0.64758 0.15025-0.75196 0.75196  0  36.93 309.04  159.82  37.18 308.30  160.15
  -6  -5  -1 836.787 196.405   1-0.55966-0.20539 0.13894-0.63535-0.81700 0.74441  0  47.64 160.95   42.43  47.65 160.99   42.48
  -6  -5   1  1014.0   201.6   1-0.61865-0.14654-0.00476-0.49192-0.78565 0.85822  0  58.01 133.15   51.44  57.54 133.02   51.55
   6  -5  -1 732.896 109.415   2 0.13007 0.63505-0.51929 0.02196-0.84464 0.77216  0  33.99 298.84  168.97  34.34 298.14  169.25
   6  -5   1 721.062 103.716   2 0.11154 0.65359-0.76360 0.26628-0.63598 0.70846  0  37.51 316.89  150.94  37.16 317.28  150.72
   6   5  -1 986.130 114.728   2 0.01460 0.75039 0.71839-0.22087-0.69549 0.62300  0 101.90 462.91  247.11 102.44 463.18  246.83
   6   5  -1 871.365  95.934   2-0.10586 0.87065 0.98732-0.48976-0.11831 0.04582  0  50.59 367.77  284.84  50.57 368.23  284.63
  -6  -5  -2  3825.9   305.5   1-0.53004-0.23501 0.19897-0.69538-0.82430 0.67913  0  39.55 173.79   38.64  39.45 173.84   38.62
   6  -5  -2  3900.8   199.4   2 0.13207 0.63306-0.38946-0.10786-0.91152 0.76655  0  28.99 287.42  177.62  28.84 287.10  177.64
   6  -5   2  3678.5   294.6   1-0.09191 0.85816-0.85127 0.35419 0.51661-0.37163  2 129.44 500.60  161.51 129.20 501.29  161.72
   6  -5   2  3608.9   172.9   2 0.09537 0.66971-0.85821 0.36053-0.50436 0.64923  0  34.38 324.98  141.34  34.18 324.86  141.34
   6   5  -2  4008.4   180.7   2 0.05530 0.70969 0.52561-0.02810-0.84892 0.70395  0 116.08 487.52  232.43 115.86 487.28  232.46
   6   5  -2  3261.0   145.4   2-0.10640 0.87119 0.98761-0.49005-0.11535-0.02962  0  39.44 346.94  284.79  39.23 346.67  284.81
  -6  -5  -3  4074.0   315.0   1-0.50219-0.26286 0.25141-0.74782-0.82741 0.60965  0  28.63 186.18   35.15  28.90 186.38   35.21
  -6  -5   3  3987.0   335.3   1-0.66816-0.09704-0.17327-0.32341-0.72356 0.94127  0  59.34 100.38   62.14  59.03 100.19   62.23
   6  -5  -3  4106.5   215.0   2 0.13058 0.63454-0.26629-0.23103-0.95501 0.73755  0  21.10 275.06  185.17  20.71 275.19  185.14
   6  -5   3  4983.8   331.5   1-0.12393 0.89019-0.86510 0.36802 0.48604-0.26857  0 104.30 486.93  159.26 104.30 486.54  159.05
   6  -5   3  3698.4   175.5   2 0.07632 0.68876-0.92718 0.42950-0.36677 0.58407  0  28.12 331.19  132.49  27.80 331.12  132.48
   6   5  -3  3647.4   168.8   2-0.10354 0.86833 0.98595-0.48840-0.13105-0.08641  0  27.59 328.27  283.88  27.17 328.14  283.89
  -7   0   0  48.554 142.648   1-0.44628-0.44628 0.34515-0.34515-0.82566 0.82566  0 131.40  39.35   29.11 131.52  39.92   28.95
  -7   0  -1  1135.6   180.3   1-0.38305-0.50951 0.43703-0.43703-0.81380 0.74122  0 115.36  55.99   22.56 115.22  56.09   22.52
  -7   0   1  1011.4   163.6   1-0.51642-0.37613 0.22509-0.22509-0.82622 0.89881  0 147.90  22.11   36.57 148.00  21.21   36.93
  -7   0  -2 -12.431 155.434   1-0.32849-0.56406 0.50723-0.50723-0.79675 0.65157  0  98.74  71.49   16.90  98.42  70.43   17.34
  -7   0  -3 17275.5   467.9   1-0.28296-0.60959 0.56055-0.56055-0.77828 0.56052  0  80.93  83.12   13.15  80.63  83.42   13.18
  -7   0  -4   8.874 188.807   1-0.24602-0.64653 0.60058-0.60058-0.76077 0.47042  0  61.00  94.89    9.66  61.38  95.18    9.91
  -7  -1   0 -91.122 148.627   1-0.48341-0.40914 0.28422-0.38351-0.82797 0.82797  0 113.57  56.25   32.92 113.60  55.88   33.04
  -7   1   0 -56.929 131.415   1-0.40687-0.48568 0.40391-0.30463-0.81934 0.81934  0 146.60  21.29   24.43 146.81  20.31   24.88
  -7  -1  -1 675.831 185.236   1-0.42910-0.46346 0.37136-0.47065-0.82339 0.75080  0 100.03  71.65   26.90  99.93  71.43   27.15
  -7  -1   1 605.074 169.058   1-0.54127-0.35128 0.17683-0.27611-0.82204 0.89463  0 126.59  38.22   40.04 126.59  38.35   40.05
  -7   1  -1 446.863 160.120   1-0.33414-0.55842 0.50031-0.40103-0.79878 0.72619  0 127.02  37.27   18.04 127.18  37.68   17.86
  -7  -1  -2  3825.5   306.4   1-0.38036-0.51219 0.44062-0.53990-0.81313 0.66796  0  85.37  85.36   22.28  85.14  85.30   22.26
  -7  -1   2  4054.8   274.3   1-0.59894-0.29362 0.04779-0.14707-0.79937 0.94454  0 139.17  18.02   48.27 139.11  18.25   48.25
  -7   1  -2  3820.5   282.1   1-0.27423-0.61833 0.57031-0.47103-0.77430 0.62913  0 108.18  53.22   12.30 107.84  52.90   12.40
  -7  -1  -3   1.172 173.739   1-0.33822-0.55433 0.49525-0.59454-0.80021 0.58244  0  69.00  98.35   18.37  68.92  97.95   18.24
  -7   1  -3 156.014 180.297   1-0.22618-0.66637 0.62090-0.52161-0.75055 0.53279  0  88.18  66.70    8.01  88.13  66.33    8.19
  -7  -1  -4  1539.8   239.1   1-0.30288-0.58968 0.53772-0.63700-0.78684 0.49649  0  50.78 109.33   15.06  50.94 109.67   14.99
  -7   1  -4  1410.0   233.2   1-0.18853-0.70403 0.65718-0.55790-0.72977 0.43942  0  67.32  78.00    4.81  67.27  78.23    4.96
  -7  -2   0  5734.9   332.2   1-0.51785-0.37471 0.22243-0.42099-0.82605 0.82605  0  92.91  69.09   37.14  92.68  69.05   37.10
  -7  -2   1  5526.1   315.8   1-0.56562-0.32693 0.12599-0.32456-0.81498 0.88757  0 103.21  52.22   43.33 102.99  52.17   43.30
  -7   2  -1  6641.8   303.4   1-0.28341-0.60914 0.56004-0.36148-0.77848 0.70589  0 135.79  15.06   13.20 135.78  15.49   13.22
  -7  -2  -2 856.004 207.836   1-0.42893-0.46363 0.37162-0.57019-0.82336 0.67818  0  67.75  98.19   27.15  67.86  97.99   27.13
  -7  -2   2 755.002 184.841   1-0.61190-0.28083 0.01376-0.21243-0.79082 0.93595  0 112.28  32.63   50.50 112.26  32.87   50.38
  -7   2  -2 733.454 182.778   1-0.21900-0.67356 0.62804-0.42948-0.74673 0.60155  0 113.53  31.75    7.55 113.45  31.84    7.56
  -7  -2  -3 375.112 177.448   1-0.39078-0.50178 0.42644-0.62500-0.81575 0.59799  0  52.51 110.39   23.39  52.89 110.59   23.28
  -7  -2   3 295.271 176.503   1-0.65269-0.24004-0.11250-0.08617-0.74923 0.96693  2 120.74  10.75   58.44 120.72  10.81   58.35
  -7   2  -3 -60.170 173.612   1-0.16957-0.72299 0.67450-0.47594-0.71854 0.50077  0  91.43  46.81    3.50  91.36  45.82    3.35
  -7  -3   0 -73.747 179.222   1-0.54948-0.34308 0.16033-0.45818-0.81998 0.81998  0  68.11  80.11   41.49  68.10  79.93   41.11
  -7  -3  -1 617.172 204.593   1-0.51053-0.38202 0.23627-0.53412-0.82676 0.75417  0  58.22  95.04   36.43  58.05  94.97   36.20
  -7  -3   1 588.169 196.872   1-0.58869-0.30386 0.07280-0.37065-0.80507 0.87766  0  76.15  62.43   46.64  76.45  63.17   46.67
;
_shelx_hkl_checksum              55593
loop_
_space_group_symop_operation_xyz
'x, y, z'
'-x+1/2, -y, z+1/2'
'-x, y+1/2, -z'
'x+1/2, -y+1/2, -z+1/2'
'-x, -y, -z'
'x-1/2, y, -z-1/2'
'x, -y-1/2, z'
'-x-1/2, y-1/2, z-1/2'
loop_
_atom_site_label
_atom_site_type_symbol
_atom_site_fract_x
_atom_site_fract_y
_atom_site_fract_z
_atom_site_U_iso_or_equiv
_atom_site_adp_type
_atom_site_occupancy
_atom_site_site_symmetry_order
_atom_site_calc_flag
_atom_site_refinement_flags_posn
_atom_site_refinement_flags_adp
_atom_site_refinement_flags_occupancy
O1 O 0.2161(3) 0.0235(4) 0.3339(2) 0.0222(5) Uani 1 1 d . . .
O2 O -0.0054(4) 0.2500 0.0729(3) 0.0200(7) Uani 1 2 d S T P
N1 N 0.1785(5) 0.2500 0.5632(3) 0.0119(7) Uani 1 2 d S T P
P1 P 0.27524(14) 0.2500 0.41891(9) 0.0078(2) Uani 1 2 d S T P
Sr1 Sr 0.34094(5) 0.2500 0.07816(4) 0.01238(13) Uani 1 2 d S T P
Sr2 Sr 0.49359(5) 0.2500 0.69802(3) 0.00812(12) Uani 1 2 d S T P
loop_
_atom_site_aniso_label
_atom_site_aniso_U_11
_atom_site_aniso_U_22
_atom_site_aniso_U_33
_atom_site_aniso_U_23
_atom_site_aniso_U_13
_atom_site_aniso_U_12
O1 0.0244(12) 0.0179(10) 0.0242(11) -0.0079(9) -0.0077(10) 0.0014(9)
O2 0.0104(15) 0.0312(19) 0.0185(15) 0.000 0.0002(12) 0.000
N1 0.0072(15) 0.0214(17) 0.0071(15) 0.000 0.0028(12) 0.000
P1 0.0072(5) 0.0093(4) 0.0070(4) 0.000 -0.0001(4) 0.000
Sr1 0.0088(2) 0.0128(2) 0.0155(2) 0.000 -0.00174(14) 0.000
Sr2 0.0062(2) 0.01164(19) 0.00653(18) 0.000 0.00012(13) 0.000
loop_
_atom_type_symbol
_atom_type_description
_atom_type_scat_dispersion_real
_atom_type_scat_dispersion_imag
_atom_type_scat_source
N N 0.0061 0.0000 'International Tables Vol C Tables 4.2.6.8 and 6.1.1.4'
O O 0.0106 0.0000 'International Tables Vol C Tables 4.2.6.8 and 6.1.1.4'
P P 0.1023 0.0000 'International Tables Vol C Tables 4.2.6.8 and 6.1.1.4'
Sr Sr -1.5307 0.0000 'International Tables Vol C Tables 4.2.6.8 and 6.1.1.4'
loop_
_geom_angle_atom_site_label_1
_geom_angle_atom_site_label_2
_geom_angle_atom_site_label_3
_geom_angle
_geom_angle_site_symmetry_1
_geom_angle_site_symmetry_3
P1 O1 Sr2 158.00(14) . 2_554
P1 O1 Sr2 108.72(12) . 5_656
Sr2 O1 Sr2 93.25(7) 2_554 5_656
P1 O1 Sr1 91.27(9) . 2
Sr2 O1 Sr1 92.04(7) 2_554 2
Sr2 O1 Sr1 84.38(6) 5_656 2
P1 O1 Sr1 91.47(10) . .
Sr2 O1 Sr1 89.40(6) 2_554 .
Sr2 O1 Sr1 84.66(7) 5_656 .
Sr1 O1 Sr1 169.01(9) 2 .
P1 O1 Sr1 75.92(9) . 6_556
Sr2 O1 Sr1 83.02(7) 2_554 6_556
Sr2 O1 Sr1 165.71(9) 5_656 6_556
Sr1 O1 Sr1 81.99(6) 2 6_556
Sr1 O1 Sr1 109.01(7) . 6_556
P1 O2 Sr1 175.88(19) 6_556 .
P1 O2 Sr2 92.77(14) 6_556 6_556
Sr1 O2 Sr2 91.35(10) . 6_556
P1 O2 Sr2 90.41(8) 6_556 2_564
Sr1 O2 Sr2 87.93(7) . 2_564
Sr2 O2 Sr2 113.75(5) 6_556 2_564
P1 O2 Sr2 90.41(8) 6_556 2_554
Sr1 O2 Sr2 87.93(7) . 2_554
Sr2 O2 Sr2 113.75(5) 6_556 2_554
Sr2 O2 Sr2 132.39(11) 2_564 2_554
P1 N1 Sr2 94.36(15) . .
P1 N1 Sr2 176.6(2) . 6_557
Sr2 N1 Sr2 89.03(9) . 6_557
P1 N1 Sr1 86.17(14) . 6_556
Sr2 N1 Sr1 179.46(13) . 6_556
Sr2 N1 Sr1 90.43(10) 6_557 6_556
P1 N1 Sr1 93.96(6) . 2
Sr2 N1 Sr1 90.93(7) . 2
Sr2 N1 Sr1 85.98(6) 6_557 2
Sr1 N1 Sr1 89.03(7) 6_556 2
P1 N1 Sr1 93.96(6) . 2_565
Sr2 N1 Sr1 90.93(7) . 2_565
Sr2 N1 Sr1 85.98(6) 6_557 2_565
Sr1 N1 Sr1 89.03(7) 6_556 2_565
Sr1 N1 Sr1 171.71(13) 2 2_565
O2 P1 O1 107.21(11) 6_656 .
O2 P1 O1 107.21(11) 6_656 7_565
O1 P1 O1 106.96(16) . 7_565
O2 P1 N1 113.12(18) 6_656 .
O1 P1 N1 111.02(11) . .
O1 P1 N1 111.02(11) 7_565 .
O2 P1 Sr1 176.54(12) 6_656 6_556
O1 P1 Sr1 74.68(10) . 6_556
O1 P1 Sr1 74.68(10) 7_565 6_556
N1 P1 Sr1 63.42(13) . 6_556
O2 P1 Sr2 57.38(12) 6_656 .
O1 P1 Sr2 126.47(8) . .
O1 P1 Sr2 126.47(8) 7_565 .
N1 P1 Sr2 55.74(13) . .
Sr1 P1 Sr2 119.16(3) 6_556 .
O2 P1 Sr1 103.13(6) 6_656 2_565
O1 P1 Sr1 149.53(10) . 2_565
O1 P1 Sr1 60.32(8) 7_565 2_565
N1 P1 Sr1 57.624(15) . 2_565
Sr1 P1 Sr1 75.170(19) 6_556 2_565
Sr2 P1 Sr1 73.364(18) . 2_565
O2 P1 Sr1 103.13(6) 6_656 2
O1 P1 Sr1 60.32(8) . 2
O1 P1 Sr1 149.53(10) 7_565 2
N1 P1 Sr1 57.624(15) . 2
Sr1 P1 Sr1 75.170(19) 6_556 2
Sr2 P1 Sr1 73.364(18) . 2
Sr1 P1 Sr1 115.21(3) 2_565 2
O2 P1 Sr1 84.93(12) 6_656 .
O1 P1 Sr1 60.78(9) . .
O1 P1 Sr1 60.78(9) 7_565 .
N1 P1 Sr1 161.95(13) . .
Sr1 P1 Sr1 98.53(3) 6_556 .
Sr2 P1 Sr1 142.30(3) . .
Sr1 P1 Sr1 120.229(16) 2_565 .
Sr1 P1 Sr1 120.229(16) 2 .
O2 P1 Sr2 62.41(5) 6_656 5_666
O1 P1 Sr2 127.16(9) . 5_666
O1 P1 Sr2 45.62(9) 7_565 5_666
N1 P1 Sr2 120.72(5) . 5_666
Sr1 P1 Sr2 118.936(19) 6_556 5_666
Sr2 P1 Sr2 92.96(2) . 5_666
Sr1 P1 Sr2 66.049(9) 2_565 5_666
Sr1 P1 Sr2 164.46(3) 2 5_666
Sr1 P1 Sr2 66.594(16) . 5_666
O2 P1 Sr2 62.41(5) 6_656 5_656
O1 P1 Sr2 45.62(9) . 5_656
O1 P1 Sr2 127.16(9) 7_565 5_656
N1 P1 Sr2 120.72(4) . 5_656
Sr1 P1 Sr2 118.936(19) 6_556 5_656
Sr2 P1 Sr2 92.96(2) . 5_656
Sr1 P1 Sr2 164.46(3) 2_565 5_656
Sr1 P1 Sr2 66.049(9) 2 5_656
Sr1 P1 Sr2 66.594(16) . 5_656
Sr2 P1 Sr2 108.37(3) 5_666 5_656
O2 Sr1 N1 148.93(10) . 6_656
O2 Sr1 N1 87.09(7) . 2_554
N1 Sr1 N1 90.97(7) 6_656 2_554
O2 Sr1 N1 87.09(7) . 2_564
N1 Sr1 N1 90.97(7) 6_656 2_564
N1 Sr1 N1 171.71(13) 2_554 2_564
O2 Sr1 O1 80.83(8) . 2_554
N1 Sr1 O1 72.97(7) 6_656 2_554
N1 Sr1 O1 54.48(7) 2_554 2_554
N1 Sr1 O1 118.63(8) 2_564 2_554
O2 Sr1 O1 80.83(8) . 8_665
N1 Sr1 O1 72.97(7) 6_656 8_665
N1 Sr1 O1 118.63(8) 2_554 8_665
N1 Sr1 O1 54.48(7) 2_564 8_665
O1 Sr1 O1 64.20(8) 2_554 8_665
O2 Sr1 O1 73.43(8) . 7_565
N1 Sr1 O1 133.37(7) 6_656 7_565
N1 Sr1 O1 117.21(8) 2_554 7_565
N1 Sr1 O1 66.55(8) 2_564 7_565
O1 Sr1 O1 153.58(2) 2_554 7_565
O1 Sr1 O1 116.101(9) 8_665 7_565
O2 Sr1 O1 73.43(8) . .
N1 Sr1 O1 133.37(7) 6_656 .
N1 Sr1 O1 66.55(8) 2_554 .
N1 Sr1 O1 117.21(8) 2_564 .
O1 Sr1 O1 116.102(9) 2_554 .
O1 Sr1 O1 153.58(2) 8_665 .
O1 Sr1 O1 50.77(8) 7_565 .
O2 Sr1 O1 150.96(6) . 4
N1 Sr1 O1 52.12(6) 6_656 4
N1 Sr1 O1 117.77(8) 2_554 4
N1 Sr1 O1 69.50(8) 2_564 4
O1 Sr1 O1 125.04(4) 2_554 4
O1 Sr1 O1 98.01(6) 8_665 4
O1 Sr1 O1 81.37(5) 7_565 4
O1 Sr1 O1 101.58(5) . 4
O2 Sr1 O1 150.96(6) . 6_656
N1 Sr1 O1 52.12(6) 6_656 6_656
N1 Sr1 O1 69.50(8) 2_554 6_656
N1 Sr1 O1 117.77(8) 2_564 6_656
O1 Sr1 O1 98.01(6) 2_554 6_656
O1 Sr1 O1 125.04(4) 8_665 6_656
O1 Sr1 O1 101.58(5) 7_565 6_656
O1 Sr1 O1 81.37(5) . 6_656
O1 Sr1 O1 48.30(8) 4 6_656
O2 Sr1 P1 179.34(8) . 6_656
N1 Sr1 P1 30.41(7) 6_656 6_656
N1 Sr1 P1 92.88(7) 2_554 6_656
N1 Sr1 P1 92.88(7) 2_564 6_656
O1 Sr1 P1 98.61(5) 2_554 6_656
O1 Sr1 P1 98.61(5) 8_665 6_656
O1 Sr1 P1 107.16(5) 7_565 6_656
O1 Sr1 P1 107.16(5) . 6_656
O1 Sr1 P1 29.40(4) 4 6_656
O1 Sr1 P1 29.40(4) 6_656 6_656
O2 Sr1 P1 74.85(4) . 2_554
N1 Sr1 P1 89.00(4) 6_656 2_554
N1 Sr1 P1 28.42(6) 2_554 2_554
N1 Sr1 P1 143.59(7) 2_564 2_554
O1 Sr1 P1 28.42(4) 2_554 2_554
O1 Sr1 P1 91.03(4) 8_665 2_554
O1 Sr1 P1 133.50(5) 7_565 2_554
O1 Sr1 P1 87.96(4) . 2_554
O1 Sr1 P1 134.12(4) 4 2_554
O1 Sr1 P1 90.30(4) 6_656 2_554
P1 Sr1 P1 104.829(19) 6_656 2_554
O1 Sr2 O1 74.49(10) 2 8_666
O1 Sr2 O1 153.56(5) 2 3_656
O1 Sr2 O1 100.61(7) 8_666 3_656
O1 Sr2 O1 100.61(7) 2 5_656
O1 Sr2 O1 153.56(5) 8_666 5_656
O1 Sr2 O1 71.98(10) 3_656 5_656
O1 Sr2 N1 75.79(8) 2 .
O1 Sr2 N1 75.79(8) 8_666 .
O1 Sr2 N1 128.98(6) 3_656 .
O1 Sr2 N1 128.98(6) 5_656 .
O1 Sr2 O2 122.04(7) 2 6_656
O1 Sr2 O2 122.04(7) 8_666 6_656
O1 Sr2 O2 82.95(7) 3_656 6_656
O1 Sr2 O2 82.95(7) 5_656 6_656
N1 Sr2 O2 59.74(10) . 6_656
O1 Sr2 N1 80.32(8) 2 6_657
O1 Sr2 N1 80.32(8) 8_666 6_657
O1 Sr2 N1 73.24(7) 3_656 6_657
O1 Sr2 N1 73.24(7) 5_656 6_657
N1 Sr2 N1 149.85(10) . 6_657
O2 Sr2 N1 150.40(10) 6_656 6_657
O1 Sr2 O2 71.08(7) 2 2
O1 Sr2 O2 141.55(8) 8_666 2
O1 Sr2 O2 117.84(8) 3_656 2
O1 Sr2 O2 52.53(7) 5_656 2
N1 Sr2 O2 79.63(6) . 2
O2 Sr2 O2 66.25(5) 6_656 2
N1 Sr2 O2 109.70(6) 6_657 2
O1 Sr2 O2 141.55(8) 2 2_565
O1 Sr2 O2 71.08(7) 8_666 2_565
O1 Sr2 O2 52.53(7) 3_656 2_565
O1 Sr2 O2 117.84(8) 5_656 2_565
N1 Sr2 O2 79.63(6) . 2_565
O2 Sr2 O2 66.25(5) 6_656 2_565
N1 Sr2 O2 109.70(6) 6_657 2_565
O2 Sr2 O2 132.39(11) 2 2_565
O1 Sr2 P1 99.48(6) 2 .
O1 Sr2 P1 99.48(6) 8_666 .
O1 Sr2 P1 106.96(5) 3_656 .
O1 Sr2 P1 106.96(5) 5_656 .
N1 Sr2 P1 29.89(7) . .
O2 Sr2 P1 29.85(7) 6_656 .
N1 Sr2 P1 179.75(8) 6_657 .
O2 Sr2 P1 70.36(6) 2 .
O2 Sr2 P1 70.36(6) 2_565 .
O1 Sr2 P1 162.41(5) 2 5_666
O1 Sr2 P1 88.38(5) 8_666 5_666
O1 Sr2 P1 25.66(5) 3_656 5_666
O1 Sr2 P1 92.96(5) 5_656 5_666
N1 Sr2 P1 104.23(4) . 5_666
O2 Sr2 P1 70.43(4) 6_656 5_666
N1 Sr2 P1 93.11(5) 6_657 5_666
O2 Sr2 P1 126.46(6) 2 5_666
O2 Sr2 P1 27.18(6) 2_565 5_666
P1 Sr2 P1 87.04(2) . 5_666
O1 Sr2 P1 88.38(5) 2 5_656
O1 Sr2 P1 162.41(5) 8_666 5_656
O1 Sr2 P1 92.96(5) 3_656 5_656
O1 Sr2 P1 25.66(5) 5_656 5_656
N1 Sr2 P1 104.23(4) . 5_656
O2 Sr2 P1 70.43(4) 6_656 5_656
N1 Sr2 P1 93.11(5) 6_657 5_656
O2 Sr2 P1 27.18(6) 2 5_656
O2 Sr2 P1 126.46(6) 2_565 5_656
P1 Sr2 P1 87.04(2) . 5_656
P1 Sr2 P1 108.37(3) 5_666 5_656
loop_
_geom_bond_atom_site_label_1
_geom_bond_atom_site_label_2
_geom_bond_distance
_geom_bond_site_symmetry_2
O1 P1 1.571(2) .
O1 Sr2 2.519(2) 2_554
O1 Sr2 2.594(2) 5_656
O1 Sr1 2.869(2) 2
O1 Sr1 2.946(2) .
O1 Sr1 3.087(2) 6_556
O2 P1 1.570(3) 6_556
O2 Sr1 2.476(3) .
O2 Sr2 2.657(3) 6_556
O2 Sr2 3.0464(13) 2_564
O2 Sr2 3.0464(13) 2_554
N1 P1 1.575(3) .
N1 Sr2 2.612(3) .
N1 Sr2 2.689(3) 6_557
N1 Sr1 2.783(3) 6_556
N1 Sr1 2.7946(3) 2
N1 Sr1 2.7946(3) 2_565
P1 O2 1.570(3) 6_656
P1 O1 1.571(2) 7_565
P1 Sr1 3.1046(11) 6_556
P1 Sr2 3.1507(10) .
P1 Sr1 3.3011(6) 2_565
P1 Sr1 3.3011(6) 2
P1 Sr1 3.3743(10) .
P1 Sr2 3.4371(6) 5_666
P1 Sr2 3.4371(6) 5_656
Sr1 N1 2.783(3) 6_656
Sr1 N1 2.7946(3) 2_554
Sr1 N1 2.7946(3) 2_564
Sr1 O1 2.869(2) 2_554
Sr1 O1 2.869(2) 8_665
Sr1 O1 2.946(2) 7_565
Sr1 O1 3.087(2) 4
Sr1 O1 3.087(2) 6_656
Sr1 P1 3.1046(11) 6_656
Sr1 P1 3.3010(6) 2_554
Sr2 O1 2.519(2) 2
Sr2 O1 2.519(2) 8_666
Sr2 O1 2.594(2) 3_656
Sr2 O1 2.594(2) 5_656
Sr2 O2 2.657(3) 6_656
Sr2 N1 2.689(3) 6_657
Sr2 O2 3.0464(13) 2
Sr2 O2 3.0464(13) 2_565
Sr2 P1 3.4372(6) 5_666
Sr2 P1 3.4372(6) 5_656
