#------------------------------------------------------------------------------
#$Date: 2016-02-04 01:09:58 +0200 (Thu, 04 Feb 2016) $
#$Revision: 175493 $
#$URL: svn://www.crystallography.net/cod/cif/4/34/45/4344556.cif $
#------------------------------------------------------------------------------
#
# This file is available in the Crystallography Open Database (COD),
# http://www.crystallography.net/
#
# All data on this site have been placed in the public domain by the
# contributors.
#
data_4344556
loop_
_publ_author_name
'Marchuk, Alexey'
'Schultz, Peter'
'Hoch, Constantin'
'Oeckler, Oliver'
'Schnick, Wolfgang'
_publ_section_title
;
 M2PO3N (M = Ca, Sr): ortho-Oxonitridophosphates with \b-K2SO4 Structure
 Type.
;
_journal_issue                   2
_journal_name_full               'Inorganic chemistry'
_journal_page_first              974
_journal_page_last               982
_journal_paper_doi               10.1021/acs.inorgchem.5b02647
_journal_volume                  55
_journal_year                    2016
_chemical_formula_sum            'N O3 P Sr2'
_chemical_formula_weight         268.22
_chemical_name_systematic
;
Strontium oxonitridophosphate
;
_space_group_crystal_system      orthorhombic
_space_group_IT_number           62
_space_group_name_Hall           '-P 2ac 2n'
_space_group_name_H-M_alt        'P n m a'
_symmetry_space_group_name_Hall  '-P 2ac 2n'
_symmetry_space_group_name_H-M   'P n m a'
_audit_creation_method           SHELXL-2014
_cell_angle_alpha                90
_cell_angle_beta                 90
_cell_angle_gamma                90
_cell_formula_units_Z            4
_cell_length_a                   7.1519(5)
_cell_length_b                   5.5778(3)
_cell_length_c                   9.8132(7)
_cell_measurement_temperature    300
_cell_volume                     391.47(4)
_computing_structure_refinement  'SHELXL-2014 (Sheldrick, 2014)'
_diffrn_ambient_temperature      300
_diffrn_measured_fraction_theta_full 1.000
_diffrn_measured_fraction_theta_max 1.000
_diffrn_measurement_device_type  'Bruker CCD'
_diffrn_radiation_type           MoK\a
_diffrn_radiation_wavelength     0.71073
_diffrn_reflns_av_R_equivalents  0.0790
_diffrn_reflns_av_unetI/netI     0.0264
_diffrn_reflns_laue_measured_fraction_full 1.000
_diffrn_reflns_laue_measured_fraction_max 1.000
_diffrn_reflns_limit_h_max       9
_diffrn_reflns_limit_h_min       -9
_diffrn_reflns_limit_k_max       6
_diffrn_reflns_limit_k_min       -7
_diffrn_reflns_limit_l_max       12
_diffrn_reflns_limit_l_min       -13
_diffrn_reflns_number            6650
_diffrn_reflns_point_group_measured_fraction_full 1.000
_diffrn_reflns_point_group_measured_fraction_max 1.000
_diffrn_reflns_theta_full        25.242
_diffrn_reflns_theta_max         28.266
_diffrn_reflns_theta_min         3.525
_exptl_absorpt_coefficient_mu    27.514
_exptl_absorpt_correction_T_max  0.7457
_exptl_absorpt_correction_T_min  0.5429
_exptl_absorpt_correction_type   multi-scan
_exptl_absorpt_process_details   Platon
_exptl_crystal_colour            colorless
_exptl_crystal_density_diffrn    4.551
_exptl_crystal_description       block
_exptl_crystal_F_000             488
_exptl_crystal_size_max          0.73
_exptl_crystal_size_mid          0.36
_exptl_crystal_size_min          0.27
_refine_diff_density_max         0.599
_refine_diff_density_min         -0.881
_refine_diff_density_rms         0.244
_refine_ls_extinction_method     none
_refine_ls_goodness_of_fit_ref   1.180
_refine_ls_hydrogen_treatment    undef
_refine_ls_matrix_type           full
_refine_ls_number_parameters     40
_refine_ls_number_reflns         533
_refine_ls_number_restraints     0
_refine_ls_restrained_S_all      1.180
_refine_ls_R_factor_all          0.0226
_refine_ls_R_factor_gt           0.0203
_refine_ls_shift/su_max          0.001
_refine_ls_shift/su_mean         0.000
_refine_ls_structure_factor_coef Fsqd
_refine_ls_weighting_details
'w=1/[\s^2^(Fo^2^)+(0.0198P)^2^+0.5680P] where P=(Fo^2^+2Fc^2^)/3'
_refine_ls_weighting_scheme      calc
_refine_ls_wR_factor_gt          0.0468
_refine_ls_wR_factor_ref         0.0476
_reflns_Friedel_coverage         0.000
_reflns_number_gt                495
_reflns_number_total             533
_reflns_threshold_expression     'I > 2\s(I)'
_cod_data_source_file            ic5b02647_si_008.cif
_cod_data_source_block           Sr2PO3N_300K
_cod_database_code               4344556
_shelx_space_group_comment
;
The symmetry employed for this shelxl refinement is uniquely defined
by the following loop, which should always be used as a source of
symmetry information in preference to the above space-group names.
They are only intended as comments.
;
_shelxl_version_number           2014-3
_shelx_res_file
;
TITL Pnma in Pnma
CELL 0.71073   7.1519   5.5778   9.8132  90.000  90.000  90.000
ZERR    4.00   0.0005   0.0003   0.0007   0.000   0.000   0.000
LATT  1
SYMM 0.5-X, -Y, 0.5+Z
SYMM -X, 0.5+Y, -Z
SYMM 0.5+X, 0.5-Y, 0.5-Z
SFAC N O P SR
UNIT 4 12 4 8
MERG 4
ACTA
L.S. 20
BOND
FMAP 2
PLAN 20
OMIT 0 60

WGHT    0.019800    0.568000
FVAR       1.62281
O1    2    0.216206    0.023935    0.333994    11.00000    0.02482    0.01927 =
         0.02730   -0.00877   -0.00672    0.00171
O2    2   -0.005463    0.250000    0.072858    10.50000    0.01025    0.03245 =
         0.02100    0.00000    0.00152    0.00000
N1    1    0.178130    0.250000    0.562855    10.50000    0.00899    0.02260 =
         0.00714    0.00000    0.00453    0.00000
P1    3    0.275211    0.250000    0.418940    10.50000    0.00728    0.00994 =
         0.00827    0.00000   -0.00045    0.00000
SR1   4    0.340919    0.250000    0.078249    10.50000    0.00932    0.01387 =
         0.01793    0.00000   -0.00156    0.00000
SR2   4    0.493609    0.250000    0.698149    10.50000    0.00655    0.01300 =
         0.00819    0.00000    0.00017    0.00000
HKLF 4 1 0 1 0 1 0 0 0 0 -1

REM  Pnma in Pnma
REM R1 =  0.0203 for     495 Fo > 4sig(Fo)  and  0.0226 for all     533 data
REM     40 parameters refined using      0 restraints

END

WGHT      0.0198      0.5680

REM Highest difference peak  0.599,  deepest hole -0.881,  1-sigma level  0.244
Q1    1   0.1532  0.0452  0.5760  11.00000  0.05    0.60
Q2    1   0.3582  0.0629  0.0798  11.00000  0.05    0.59
Q3    1   0.1545  0.0477  0.2789  11.00000  0.05    0.55
Q4    1   0.2260  0.0752  0.6701  11.00000  0.05    0.53
Q5    1   0.1864  0.2500  0.4937  10.50000  0.05    0.53
Q6    1   0.5384  0.2500  0.7722  10.50000  0.05    0.50
Q7    1   0.2320 -0.0658  0.4245  11.00000  0.05    0.50
Q8    1   0.2870  0.0590  0.4032  11.00000  0.05    0.48
Q9    1   0.5599  0.2500  0.6472  10.50000  0.05    0.45
Q10   1   0.5004  0.0927  0.7031  11.00000  0.05    0.44
Q11   1  -0.0183 -0.0261  0.0779  11.00000  0.05    0.42
Q12   1   0.1248 -0.0068  0.4079  11.00000  0.05    0.41
Q13   1   0.0275  0.0568  0.1912  11.00000  0.05    0.41
Q14   1   0.0489 -0.0011  0.3287  11.00000  0.05    0.41
Q15   1   0.2618  0.0272  0.2236  11.00000  0.05    0.41
Q16   1   0.3627 -0.0628  0.3212  11.00000  0.05    0.40
Q17   1   0.0569  0.0615  0.5527  11.00000  0.05    0.40
Q18   1   0.2147  0.0269  0.1804  11.00000  0.05    0.39
Q19   1   0.2628  0.2500  0.5169  10.50000  0.05    0.38
Q20   1   0.0817  0.0697  0.0945  11.00000  0.05    0.37
;
_shelx_res_checksum              51570
_shelx_hkl_file
;
   0   0  -2  23.147  18.834   1-0.56549 0.56549-0.82156 0.82156-0.07244-0.07244  0 330.87 276.86  115.14 330.78 277.07  115.85
   0   0  -2  16.257  20.488   2 0.03278-0.03278-0.99683 0.99683-0.07245-0.07245  0 325.20 283.17  116.13 325.34 282.88  115.25
   0   0  -2   2.477  19.950   2-0.11659 0.11659 0.99053-0.99053-0.07247-0.07247  0 284.24 227.06  288.13 284.50 226.92  287.73
   0   0   2  22.900  19.118   1-0.48702 0.48702-0.87038 0.87038 0.07244 0.07244  0 270.82 239.52  126.15 270.74 239.57  125.70
   0   0   2  38.363  21.420   2 0.00732-0.00732-0.99735 0.99735 0.07245 0.07245  0 274.49 234.06  106.71 274.65 233.97  106.82
   0   0   2  24.587  21.116   2-0.14202 0.14202 0.98721-0.98721 0.07247 0.07247  0 314.83 290.12  295.92 315.06 290.01  296.17
   0   0  -3 -12.860  26.765   1-0.58251 0.58251-0.80553 0.80553-0.10866-0.10866  0 347.34 287.33  113.58 347.18 287.43  113.38
   0   0  -3  10.928  31.910   2 0.03894-0.03894-0.99331 0.99331-0.10867-0.10867  0 338.79 296.26  118.13 338.99 296.27  117.37
   0   0  -3   4.950  29.129   2-0.11000 0.11000 0.98797-0.98797-0.10871-0.10871  0 276.89 211.14  285.58 276.75 211.24  285.61
   0   0   3 -10.755  23.996   1-0.46501 0.46501-0.87861 0.87861 0.10866 0.10866  0 256.11 230.24  128.49 256.25 230.40  128.18
   0   0   3 -24.479  29.965   2 0.00062-0.00062-0.99408 0.99408 0.10867 0.10867  0 261.83 222.13  104.68 262.10 222.14  104.71
   0   0   3  11.331  30.998   2-0.14819 0.14819 0.98297-0.98297 0.10871 0.10871  0 323.17 306.83  298.63 322.98 306.88  298.30
   0   0  -4  6209.1   134.7   1-0.59872 0.59872-0.78775 0.78775-0.14487-0.14487  0 364.53 298.64  111.17 364.54 298.62  110.89
   0   0  -4  8370.4   163.8   2 0.04497-0.04497-0.98842 0.98842-0.14490-0.14490  0 353.52 310.56  119.45 353.44 310.48  119.49
   0   0  -4  6994.5   153.1   2-0.10325 0.10325 0.98404-0.98404-0.14494-0.14494  0 268.63 195.13  283.48 268.79 195.21  283.49
   0   0   4  8226.2   146.6   1-0.44204 0.44204-0.88522 0.88522 0.14487 0.14487  0 241.74 220.91  130.82 241.68 220.99  130.67
   0   0   4  8022.4   158.5   2-0.00620 0.00620-0.98943 0.98943 0.14490 0.14490  0 249.44 210.13  102.57 249.29 210.22  102.58
   0   0   4  7709.1   158.9   2-0.15421 0.15421 0.97734-0.97734 0.14499 0.14499  0 331.21 324.74  300.43 331.21 324.66  300.41
   0   0  -5  -2.031  50.092   1-0.61384 0.61384-0.76838 0.76838-0.18109-0.18109  0 383.17 310.83  109.18 383.21 310.84  108.39
   0   0  -5  17.917  55.676   2 0.05090-0.05090-0.98214 0.98214-0.18112-0.18112  0 368.68 325.81  122.14 368.95 325.77  121.63
   0   0  -5  28.826  56.112   2-0.09642 0.09642 0.97871-0.97871-0.18118-0.18118  0 260.63 178.97  281.56 260.51 178.60  281.36
   0   0   5 -14.276  34.592   1-0.41797 0.41797-0.89023 0.89023 0.18109 0.18109  0 226.55 211.19  133.37 226.84 211.20  133.17
   0   0   5  37.348  44.576   2-0.01316 0.01316-0.98337 0.98337 0.18112 0.18112  0 236.60 198.41  100.61 236.06 198.04  100.43
   0   0   5   1.513  52.321   2-0.16017 0.16017 0.97031-0.97031 0.18124 0.18124  0 340.17 343.83  302.51 339.84 343.63  302.56
   0   0  -6 14218.8   248.3   1-0.62786 0.62786-0.74737 0.74737-0.21731-0.21731  0 403.29 324.56  106.04 403.54 324.47  105.86
   0   0  -6 15619.6   279.4   2 0.05667-0.05667-0.97445 0.97445-0.21734-0.21734  0 385.68 342.62  123.85 385.91 342.47  123.78
   0   0  -6 13510.8   253.9   2-0.08949 0.08949 0.97197-0.97197-0.21742-0.21742  0 251.96 161.07  278.89 251.80 161.17  279.20
   0   0   6 14993.5   244.7   1-0.39282 0.39282-0.89357 0.89357 0.21731 0.21731  0 211.56 200.73  135.85 211.55 200.86  135.70
   0   0   6 15281.5   269.2   2-0.01990 0.01990-0.97586 0.97586 0.21747 0.21747  0 222.28 185.36   98.17 222.17 185.44   98.25
   0   0   6 14447.3   271.4   2-0.16596 0.16596 0.96185-0.96185 0.21749 0.21749  0 349.03 364.28  305.06 349.02 364.17  304.72
   0   0  -7  38.661  80.578   1-0.64102 0.64102-0.72444 0.72444-0.25353-0.25353  0 426.00 340.15  103.67 426.00 340.00  103.29
   0   0  -7  -9.410  92.202   2 0.06239-0.06239-0.96530 0.96530-0.25357-0.25357  0 404.91 361.26  124.91 404.73 361.04  125.94
   0   0  -7   9.449  63.928   2-0.08243 0.08243 0.96378-0.96378-0.25365-0.25365  0 242.38 142.27  277.37 242.55 142.60  277.03
   0   0   7  37.624  55.220   1-0.36663 0.36663-0.89516 0.89516 0.25353 0.25353  0 195.29 189.52  139.18 195.63 189.71  138.26
   0   0   7 -82.998  57.300   2-0.02692 0.02692-0.96690 0.96690 0.25371 0.25371  0 207.07 172.06   96.46 207.43 172.31   96.08
   0   0   7 -51.971  88.653   2-0.17168 0.17168 0.95192-0.95192 0.25374 0.25374  0 359.01 386.67  306.61 358.91 386.78  306.91
   0   0  -8 52300.4   533.7   1-0.65287 0.65288-0.69986 0.69986-0.28975-0.28975  0 451.05 358.12  100.71 451.29 358.00  100.70
   0   0  -8 63736.8   643.2   2 0.06801-0.06801-0.95467 0.95467-0.28979-0.28979  0 425.86 382.21  127.89 426.09 382.06  128.13
   0   0  -8 55971.8   595.8   2-0.07534 0.07534 0.95409-0.95409-0.28989-0.28989  0 232.69 122.39  274.91 232.56 122.53  274.84
   0   0   8 60270.9   565.3   1-0.33933 0.33933-0.89493 0.89493 0.28975 0.28975  0 178.76 177.37  141.00 178.86 177.51  140.86
   0   0   8 64570.8   637.2   2-0.03408 0.03408-0.95643 0.95643 0.28996 0.28996  0 191.58 158.30   94.00 191.51 158.38   93.88
   0   0   8 57872.6   615.6   2-0.17722 0.17722 0.94048-0.94048 0.28998 0.28998  0 369.81 412.25  309.10 369.77 412.12  309.12
   0   0  -9 128.757 146.258   1-0.66422 0.66422-0.67249 0.67249-0.32645-0.32645  0 480.34 379.40   98.20 480.53 379.57   97.97
   0   0  -9 -21.873 141.291   2 0.07337-0.07337-0.94251 0.94251-0.32602-0.32602  0 451.16 406.26  130.49 450.82 406.38  130.34
   0   0  -9  70.929  95.980   2-0.06809 0.06809 0.94287-0.94287-0.32613-0.32613  0 221.65  99.97  272.50 221.61 100.44  272.62
   0   0   9  17.400  81.478   1-0.31082 0.31082-0.89283 0.89283 0.32597 0.32597  0 160.99 164.07  143.48 160.89 163.89  143.50
   0   0   9  76.169  96.460   2-0.04138 0.04138-0.94439 0.94439 0.32620 0.32620  0 173.82 143.55   91.53 174.11 143.42   91.65
   0   0   9  97.235 143.283   2-0.18270 0.18270 0.92747-0.92747 0.32623 0.32623  0 381.74 441.01  311.42 381.91 441.06  311.35
   0   0 -10 12659.4   423.3   2 0.07875-0.07875-0.92875 0.92875-0.36224-0.36224  0 480.11 435.38  132.57 480.33 435.26  132.58
   0   0 -10 11873.8   355.9   2-0.06074 0.06074 0.93006-0.93006-0.36236-0.36236  0 209.51  75.49  270.38 209.39  75.65  270.38
   0   0  10 12748.4   330.7   1-0.28112 0.28112-0.88870 0.88870 0.36218 0.36218  0 141.15 148.26  146.08 141.34 148.40  146.20
   0   0  10 13142.1   366.7   2-0.04881 0.04881-0.93073 0.93073 0.36245 0.36245  0 154.79 127.00   89.38 154.70 127.06   89.39
   0   0  10 12539.8   424.0   2-0.18804 0.18804 0.91282-0.91282 0.36248 0.36248  0 395.42 474.95  313.62 395.76 474.93  313.62
   0   0 -11 141.569 162.663   2-0.05321 0.05321 0.91558-0.91558-0.39860-0.39860  0 195.09  46.80  268.43 195.47  47.24  268.10
   0   0  11 148.343 136.463   1-0.25011 0.25011-0.88245 0.88245 0.39840 0.39840  0 119.68 130.31  148.52 119.66 130.36  148.96
   0   0  11 136.672 144.801   2-0.05633 0.05633-0.91535 0.91535 0.39869 0.39869  0 132.51 108.91   87.61 132.66 108.83   87.09
   0   0 -12  2298.9   262.7   2-0.04548 0.04548 0.89936-0.89936-0.43483-0.43483  0 179.38  14.07  265.59 179.22  13.81  265.78
   0   0  12  2310.9   264.1   1-0.21768 0.21768-0.87385 0.87385 0.43474 0.43474  0  94.99 108.52  152.02  95.01 108.79  151.79
   0   0  12  2195.8   246.1   2-0.06397 0.06397-0.89819 0.89819 0.43494 0.43494  0 107.42  88.27   85.01 107.00  88.06   84.75
   0   0  13 143.467 186.277   1-0.18341 0.18341-0.86287 0.86287 0.47097 0.47097  0  66.12  81.80  154.94  66.42  82.37  154.71
   0   0  13  -2.375 209.304   2-0.07176 0.07176-0.87911 0.87911 0.47118 0.47118  0  75.05  63.22   81.92  76.45  63.81   82.36
   0  -1   0-4.44324  9.8840   1-0.61990 0.61990-0.04967-0.04967-0.78311 0.78311  0 278.75 267.85   52.46 278.71 268.35   52.51
   0  -1   0   4.165  11.206   2-0.22257 0.22257-0.04972-0.04972 0.97365-0.97365  0 315.11 276.53   23.47 315.32 276.52   23.55
   0  -1   0-5.21940  9.3596   2 0.12447-0.12447-0.04975-0.04975-0.99098 0.99098  0 287.34 237.54  198.55 287.10 237.70  198.12
   0   1   0   9.638  11.141   1-0.58068 0.58068 0.04965 0.04965-0.81262 0.81262  0 322.01 247.07   47.13 322.14 246.95   46.16
   0   1   0   6.830  10.611   2-0.22948 0.22948 0.04972 0.04972 0.97204-0.97204  0 284.48 239.88   18.08 284.29 239.78   17.83
   0   1   0  -5.963  10.528   2 0.11704-0.11704 0.04976 0.04976-0.99188 0.99188  0 312.61 278.69  203.89 312.32 278.52  203.81
   0  -1  -1  54.888  16.203   1-0.28748 0.28748 0.51430-0.61361-0.80799 0.73541  0 278.38 277.58   14.00 278.37 277.64   14.28
   0  -1  -1  65.762  19.360   2-0.14139 0.14139-0.63161 0.53214 0.76228-0.83477  0 321.29 279.45   59.95 321.14 279.32   59.94
   0  -1  -1  65.085  19.412   2 0.05363-0.05363 0.53698-0.63650-0.84189 0.76941  0 286.40 231.78  233.60 286.47 231.68  233.59
   0  -1   1  49.352  17.115   1-0.69822 0.69822-0.47029 0.37095-0.53973 0.61228  0 270.18 259.10   80.97 270.63 259.17   80.97
   0  -1   1  49.598  18.634   2 0.12813-0.12813-0.63258 0.53308-0.76382 0.83630  0 281.37 235.03  161.59 281.31 234.91  161.64
   0  -1   1  45.170  18.549   2-0.23913 0.23913 0.52100-0.62048 0.81937-0.74688  0 316.20 282.96  349.11 316.28 283.19  348.88
   0   1  -1  51.487  20.048   1-0.69460 0.69460-0.37303 0.47237-0.61513 0.54258  0 331.01 256.52   74.05 330.87 256.46   73.92
   0   1  -1  50.967  19.216   2 0.13334-0.13334-0.53268 0.63217-0.83575 0.76327  0 318.28 281.69  168.60 318.33 281.57  168.70
   0   1  -1  68.929  20.044   2-0.23393 0.23393 0.62122-0.52175 0.74790-0.82040  0 283.27 233.53  341.72 283.41 233.56  341.79
   0   1   1  78.904  17.363   1-0.17774 0.17774 0.62916-0.52985-0.75668 0.82926  0 322.55 237.14    4.68 322.48 237.34    4.72
   0   1   1  55.220  19.458   2-0.16119 0.16119-0.53035 0.62983 0.83232-0.75983  0 278.43 237.12   53.15 278.69 237.30   52.79
   0   1   1  59.233  19.642   2 0.03339-0.03339 0.63702-0.53750-0.77012 0.84260  0 313.10 284.79  240.65 312.99 284.81  240.76
   0  -1  -2  1138.9    45.7   1-0.17227 0.17227-0.85883 0.75945 0.48243-0.62735  0 331.86 288.23  155.90 331.88 288.22  155.66
   0  -1  -2  1203.1    57.6   2-0.07575 0.07575-0.86872 0.76924 0.48947-0.63445  0 331.42 288.18   81.02 331.48 288.21   81.13
   0  -1  -2  1074.3    54.5   2-0.00033 0.00033 0.77145-0.87097-0.63629 0.49134  0 281.52 220.04  251.80 281.64 219.99  251.83
   0  -1   2 817.318  52.188   1-0.66896 0.66896-0.65868 0.55933-0.34445 0.48953  0 258.72 249.99   96.70 258.90 250.06   96.64
   0  -1   2  1116.5    56.3   2 0.09649-0.09649-0.86691 0.76734-0.48904 0.63394  0 271.46 226.74  140.77 271.54 226.76  140.73
   0  -1   2  1024.8    54.8   2-0.22164 0.22164 0.75107-0.85055 0.62190-0.47691  0 321.20 295.79  331.27 321.35 295.75  331.37
   0   1  -2 905.640  53.411   1-0.69409 0.69409-0.53987 0.63921-0.47621 0.33112  0 344.02 266.21   86.23 344.06 266.20   86.37
   0   1  -2  1103.0    55.6   2 0.11500-0.11500-0.76605 0.86554-0.63241 0.48745  0 328.66 290.63  150.84 328.70 290.63  150.86
   0   1  -2  1059.8    54.9   2-0.20414 0.20414 0.85370-0.75423 0.47908-0.62407  0 278.34 221.75  320.92 278.52 221.78  321.19
   0   1   2  1147.7    47.5   1-0.00286 0.00286-0.77182 0.87120 0.63583-0.49092  0 269.60 228.92  170.00 269.77 228.99  169.69
   0   1   2  1203.1    57.4   2-0.10866 0.10866-0.76672 0.86620 0.63272-0.48774  0 268.85 229.21   70.99 269.02 229.26   70.86
   0   1   2  1069.2    55.4   2-0.03346 0.03346 0.87050-0.77099-0.49103 0.63597  0 317.92 297.38  262.19 317.91 297.23  262.10
   0  -1  -3 24529.0   208.4   1-0.34825 0.34825-0.89524 0.79587 0.27797-0.49528  0 345.43 298.90  139.71 345.37 298.84  140.02
   0  -1  -3 25806.3   247.4   2-0.03688 0.03688-0.95196 0.85248 0.30398-0.52145  0 343.95 299.86   93.01 343.94 299.86   93.02
   0  -1  -3 22481.4   231.9   2-0.02668 0.02668 0.85267-0.95219-0.52176 0.30435  0 275.04 206.01  260.05 275.18 206.05  260.02
   0  -1   3 21158.0   220.3   1-0.62580 0.62580-0.75066 0.65129-0.21186 0.42917  0 245.95 240.91  105.99 245.86 240.97  106.24
   0  -1   3 25991.5   250.3   2 0.07014-0.07014-0.95015 0.85059-0.30379 0.52114  0 260.04 216.58  128.99 260.19 216.64  128.98
   0  -1   3 20909.2   224.6   2-0.20853 0.20853 0.83299-0.93247 0.51248-0.29500  0 328.03 311.01  323.49 328.09 310.96  323.46
   0   1  -3 20274.3   216.4   1-0.68345 0.68345-0.60544 0.70478-0.40785 0.19022  0 359.50 276.41   92.07 359.49 276.43   91.83
   0   1  -3 25355.5   246.3   2 0.10060-0.10060-0.84820 0.94776-0.52004 0.30270  0 341.11 302.41  142.99 341.12 302.34  142.81
   0   1  -3 21231.5   226.9   2-0.17841 0.17841 0.93791-0.83844 0.29749-0.51497  0 271.85 207.75  309.67 271.98 207.80  309.58
   0   1   3 25673.3   213.1   1-0.13693 0.13693-0.84462 0.94400 0.51755-0.30018  0 257.55 219.58  158.70 257.81 219.69  158.63
   0   1   3 25813.7   248.0   2-0.08268 0.08268-0.84997 0.94945 0.52030-0.30283  0 257.50 219.13   78.90 257.74 219.19   79.02
   0   1   3 21831.4   228.1   2-0.07265 0.07265 0.95009-0.85058-0.30339 0.52080  0 324.51 312.50  273.91 324.51 312.40  274.02
   0  -1  -4 22811.9   232.1   1-0.44421 0.44421-0.88468 0.78532 0.14148-0.43122  0 361.17 310.46  130.36 361.09 310.36  130.43
   0  -1  -4 24819.8   278.1   2-0.01212 0.01212-0.98428 0.88472 0.17618-0.46597  0 357.84 313.16  101.05 357.76 313.07  100.73
   0  -1  -4 21317.8   260.1   2-0.03902 0.03902 0.88416-0.98368-0.46555 0.17566  0 267.78 190.84  263.95 267.90 190.91  263.78
   0  -1   4 20749.6   250.4   1-0.58475 0.58475-0.80323 0.70386-0.11354 0.40329  0 232.08 231.57  112.98 232.03 231.63  113.05
   0  -1   4 23231.9   268.6   2 0.05004-0.05004-0.98315 0.88359-0.17579 0.46558  0 248.17 205.54  120.88 248.02 205.61  121.31
   0  -1   4 21244.8   259.6   2-0.20145 0.20145 0.86535-0.96482 0.45890-0.16891  0 335.66 327.93  320.01 335.70 327.87  319.84
   0   1  -4 20261.4   247.2   1-0.67720 0.67720-0.63118 0.73052-0.37818 0.08800  0 376.60 287.39   93.93 376.56 287.38   94.10
   0   1  -4 23994.9   275.1   2 0.09322-0.09322-0.88062 0.98019-0.46456 0.17477  0 354.90 315.78  139.03 354.88 315.68  139.11
   0   1  -4 20738.1   258.0   2-0.15860 0.15860 0.97234-0.87286 0.17149-0.46147  0 264.53 192.64  301.97 264.67 192.71  301.98
   0   1   4 23869.9   237.0   1-0.19478 0.19478-0.86674 0.96612 0.45915-0.16932  0 244.58 209.99  153.99 244.53 210.09  153.75
   0   1   4 24188.8   273.2   2-0.07039 0.07039-0.88259 0.98207 0.46485-0.17489  0 245.71 208.18   83.00 245.57 208.21   82.78
   0   1   4 22413.1   265.2   2-0.09773 0.09773 0.97982-0.88031-0.17433 0.46422  0 332.00 329.38  281.90 332.00 329.26  281.75
   0  -1  -5 40221.5   344.4   1-0.50489 0.50489-0.86217 0.76280 0.04181-0.40400  0 378.62 323.15  123.69 378.55 323.05  123.62
   0  -1  -5 40073.9   392.5   2 0.00610-0.00610-0.99684 0.89727 0.07919-0.44143  0 373.12 327.93  106.38 372.99 327.81  106.43
   0  -1  -5 37424.1   381.3   2-0.04427 0.04427 0.89640-0.99592-0.44102 0.07866  0 259.90 174.71  265.34 260.06 174.81  265.38
   0  -1   5 36952.7   361.9   1-0.54665 0.54665-0.83664 0.73727-0.03481 0.39699  0 217.66 221.90  118.34 217.60 221.98  118.41
   0  -1   5 41227.8   397.2   2 0.03390-0.03390-0.99629 0.89673-0.07904 0.44128  0 235.29 193.88  115.65 235.14 193.96  115.64
   0  -1   5 37891.4   383.2   2-0.19835 0.19835 0.87791-0.97738 0.43581-0.07333  0 343.99 346.42  318.28 344.01 346.37  318.32
   0   1  -5 35156.6   354.3   1-0.67524 0.67524-0.63822 0.73756-0.36976 0.00704  0 395.02 299.34   94.92 395.34 299.33   94.74
   0   1  -5 40001.7   393.4   2 0.08990-0.08990-0.89332 0.99288-0.44034 0.07810  0 370.03 330.62  137.49 369.99 330.51  137.54
   0   1  -5 37753.4   383.1   2-0.14265 0.14265 0.98684-0.88732 0.07617-0.43853  0 256.61 176.60  296.39 256.80 176.68  296.39
   0   1   5 41909.3   351.6   1-0.21790 0.21790-0.87392 0.97330 0.43450-0.07221  0 230.51 199.93  151.99 230.46 200.04  151.77
   0   1   5 42544.0   401.4   2-0.06517 0.06517-0.89533 0.99481 0.44061-0.07817  0 232.84 196.58   84.27 232.70 196.63   84.38
   0   1   5 34851.0   367.0   2-0.11577 0.11577 0.99028-0.89076-0.07711 0.43947  0 340.17 347.86  287.46 340.14 347.71  287.46
   0  -1  -6  1238.5   116.8   1-0.54811 0.54811-0.83556 0.73619-0.03764-0.39698  0 397.60 337.34  117.96 397.82 337.26  118.22
   0  -1  -6  1279.5   134.2   2 0.02018-0.02018-0.99980 0.90023 0.00026-0.43495  0 389.69 344.39  110.91 389.82 344.18  111.02
   0  -1  -6  1316.3   110.4   2-0.04552 0.04552 0.89945-0.99896-0.43465-0.00018  0 251.76 157.52  265.69 251.64 157.65  265.80
   0  -1   6  1282.2   108.8   1-0.51030 0.51030-0.85939 0.76003 0.03219 0.40243  0 202.50 211.74  122.68 202.54 211.83  122.96
   0  -1   6  1260.8   112.4   2 0.02027-0.02027-0.99979 0.90023-0.00026 0.43495  0 221.62 181.61  110.91 221.49 181.70  111.05
   0  -1   6  1223.9   133.0   2-0.19759 0.19759 0.88080-0.98027 0.43029 0.00468  0 353.09 366.77  317.79 353.04 366.66  317.96
   0   1  -6  1128.7   121.0   1-0.67620 0.67620-0.63481 0.73415-0.37385-0.06141  0 415.78 312.58   94.40 416.10 312.62   94.43
   0   1  -6  1392.2   135.7   2 0.08896-0.08895-0.89647 0.99604-0.43409-0.00060  0 386.35 347.11  136.91 386.66 346.97  137.13
   0   1  -6  1163.1   110.3   2-0.12912 0.12912 0.99163-0.89211-0.00186-0.43297  0 248.37 159.61  292.15 248.32 159.62  291.84
   0   1   6  1412.2    94.4   1-0.22297 0.22297-0.87543 0.97481 0.42885 0.00590  0 215.85 189.27  151.23 215.75 189.35  151.32
   0   1   6  1350.8   110.9   2-0.06384 0.06384-0.89848 0.99796 0.43435 0.00059  0 219.08 184.45   84.98 219.04 184.46   84.79
   0   1   6  1254.2   137.9   2-0.12978 0.12978 0.99154-0.89203 0.00188 0.43295  0 349.00 368.09  292.35 348.98 367.96  292.06
   0  -1  -7  3622.3   165.5   1-0.58085 0.58085-0.80720 0.70783-0.10508-0.40197  0 419.05 353.60  113.69 419.29 353.43  113.63
   0  -1  -7  3935.3   204.1   2 0.03195-0.03195-0.99720 0.89764-0.06756-0.43958  0 408.56 362.70  115.15 408.69 362.55  114.97
   0  -1  -7  3301.4   162.4   2-0.04462 0.04462 0.89718-0.99669-0.43941-0.06790  0 242.75 139.09  265.49 242.59 139.24  265.49
   0  -1   7  3497.6   163.6   1-0.47532 0.47532-0.87501 0.77565 0.09180 0.41526  0 186.59 200.84  127.11 186.67 200.97  127.03
   0  -1   7  4050.1   178.6   2 0.00822-0.00822-0.99769 0.89812 0.06746 0.43967  0 206.95 168.61  107.26 206.91 168.78  107.12
   0  -1   7  3668.9   196.8   2-0.19832 0.19832 0.87802-0.97750 0.43559 0.07188  0 363.02 389.23  318.33 362.91 389.16  318.31
   0   1  -7  3094.1   173.5   1-0.67891 0.67891-0.62468 0.72402-0.38583-0.12198  0 439.10 327.71   93.58 439.32 327.69   93.52
   0   1  -7  3590.5   194.4   2 0.08962-0.08962-0.89407 0.99363-0.43887-0.06826  0 405.07 365.55  137.39 405.31 365.46  137.44
   0   1  -7  3159.6   163.7   2-0.11720 0.11720 0.99070-0.89119-0.06907-0.43823  0 239.24 141.18  287.79 239.18 141.31  287.93
   0   1   7  3809.9   150.5   1-0.21784 0.21784-0.87390 0.97328 0.43457 0.07264  0 200.27 177.67  151.99 200.29 177.78  151.78
   0   1   7  3752.4   169.9   2-0.06486 0.06486-0.89608 0.99556 0.43914 0.06829  0 204.50 171.55   84.45 204.41 171.61   84.48
   0   1   7  3292.4   196.3   2-0.14155 0.14155 0.98747-0.88796 0.06971 0.43760  0 358.63 390.55  296.05 358.61 390.43  296.01
   0  -1  -8  2737.1   182.7   1-0.60726 0.60726-0.77718 0.67782-0.16500-0.41449  0 443.23 372.48  109.46 443.48 372.33  109.50
   0  -1  -8  2861.8   217.7   2 0.04220-0.04220-0.99086 0.89129-0.12812-0.45146  0 430.08 383.58  118.50 430.21 383.49  118.51
   0  -1  -8  2647.4   172.8   2-0.04205 0.04205 0.89132-0.99084-0.45142-0.12836  0 232.86 119.01  264.73 232.75 119.19  264.71
   0  -1   8  2661.5   157.8   1-0.44102 0.44102-0.88547 0.78611 0.14644 0.43306  0 169.73 189.06  130.69 169.78 189.14  130.77
   0  -1   8  2910.6   179.7   2-0.00295 0.00295-0.99177 0.89221 0.12797 0.45162  0 191.15 154.80  103.54 191.10 154.94  103.58
   0  -1   8  2669.5   219.5   2-0.20001 0.20001 0.87139-0.97086 0.44797 0.13200  0 373.89 414.54  319.04 373.83 414.51  319.12
   0   1  -8  2281.1   189.6   1-0.68249 0.68249-0.60972 0.70906-0.40305-0.17730  0 465.50 345.20   92.13 465.75 345.20   92.20
   0   1  -8  2957.2   224.4   2 0.09135-0.09135-0.88790 0.98747-0.45088-0.12871  0 426.43 386.58  137.90 426.55 386.53  138.22
   0   1  -8  2431.6   172.3   2-0.10620 0.10620 0.98591-0.88640-0.12920-0.45057  0 229.33 121.25  284.41 229.24 121.40  284.41
   0   1   8  2919.6   158.6   1-0.20570 0.20570-0.87028 0.96966 0.44755 0.13211  0 183.80 164.90  153.22 183.93 165.04  152.81
   0   1   8  2794.3   175.6   2-0.06743 0.06743-0.88990 0.98938 0.45115 0.12877  0 188.60 157.90   83.71 188.56 157.90   83.69
   0   1   8  2542.7   215.0   2-0.15183 0.15183 0.97976-0.88028 0.13047 0.44950  0 369.26 415.93  299.58 369.28 415.79  299.55
   0  -1  -9  1455.6   166.6   1-0.62882 0.62882-0.74582 0.64646-0.21986-0.43207  0 471.36 395.00  105.63 471.32 394.82  105.68
   0  -1  -9  1588.7   196.2   2 0.05132-0.05132-0.98164 0.88207-0.18372-0.46831  0 455.28 407.95  121.79 455.24 407.79  121.78
   0  -1  -9  1258.2   149.8   2-0.03840 0.03840 0.88269-0.98220-0.46839-0.18386  0 221.96  97.02  263.59 221.91  97.04  263.59
   0  -1   9  1581.2   155.9   1-0.40670 0.40670-0.89194 0.79257 0.19759 0.45434  0 151.56 175.87  134.14 151.60 176.02  134.31
   0  -1   9  1498.1   178.0   2-0.01361 0.01361-0.98292 0.88335 0.18352 0.46851  0 173.67 139.85   99.88 173.73 139.96  100.28
   0  -1   9  1427.8   194.9   2-0.20230 0.20230 0.86178-0.96125 0.46520 0.18726  0 386.06 443.50  320.32 386.12 443.56  320.26
   0   1  -9  1319.2   183.8   1-0.68646 0.68646-0.59083 0.69017-0.42390-0.22899  0 496.35 366.02   90.64 496.39 366.01   90.57
   0   1  -9  1612.2   201.4   2 0.09366-0.09366-0.87885 0.97841-0.46782-0.18421  0 451.07 411.09  139.38 451.25 411.01  139.33
   0   1  -9  1488.2   178.3   2-0.09579 0.09580 0.97816-0.87864-0.18448-0.46777  0 218.31  99.28  281.29 218.27  99.41  281.16
   0   1   9  1643.0   157.5   1-0.18881 0.18881-0.86472 0.96410 0.46541 0.18671  0 166.33 150.72  154.30 166.37 150.72  154.26
   0   1   9  1448.6   177.6   2-0.07110 0.07110-0.88081 0.98029 0.46810 0.18431  0 171.22 143.11   82.59 171.14 143.10   82.57
   0   1   9  1803.5   201.9   2-0.16094 0.16094 0.96927-0.86980 0.18604 0.46642  0 381.12 444.91  302.70 381.20 444.82  302.84
   0  -1 -10 725.159 203.720   1-0.64696 0.64696-0.71265 0.61328-0.27124-0.45313  2 503.31 422.26  102.08 503.99 422.39  102.03
   0  -1 -10 931.550 219.497   2 0.05960-0.05960-0.96998 0.87041-0.23578-0.48870  0 485.40 437.07  125.18 485.23 436.75  124.88
   0  -1 -10 589.338 151.494   2-0.03393 0.03393 0.87169-0.97120-0.48889-0.23583  0 209.58  71.88  261.87 209.80  72.12  262.24
   0  -1  10 638.279 131.002   1-0.37202 0.37202-0.89497 0.79561 0.24623 0.47814  0 131.64 161.19  138.18 131.68 161.14  137.74
   0  -1  10 899.179 157.020   2-0.02345 0.02345-0.97148 0.87200 0.23595 0.48894  0 154.31 123.38   96.87 154.32 123.46   97.15
   0  -1  10 549.388 210.266   2-0.20508 0.20508 0.84962-0.94910 0.48588 0.23908  0 400.05 477.25  321.52 400.25 477.66  321.65
   0   1 -10 935.635 222.271   2 0.09639-0.09639-0.86735 0.96691-0.48828-0.23620  0 480.70 440.22  140.72 480.74 440.22  140.68
   0   1 -10 576.523 148.643   2-0.08584 0.08584 0.96788-0.86837-0.23629-0.48843  0 205.91  74.65  277.87 205.95  74.68  278.07
   0   1  10 799.121 140.228   1-0.16810 0.16810-0.85726 0.95663 0.48668 0.23789  0 147.22 134.21  156.10 147.23 134.35  156.01
   0   1  10 699.817 152.743   2-0.07555 0.07555-0.86925 0.96873 0.48856 0.23633  0 151.75 126.72   81.27 151.67 126.86   81.20
   0   1  10 346.080 209.492   2-0.16925 0.16925 0.95639-0.85691 0.23808 0.48688  0 394.94 478.90  304.87 394.86 478.85  305.97
   0  -1 -11 573.251 181.981   2-0.02885 0.02885 0.85851-0.95803-0.51198-0.28522  0 196.30  43.75  259.86 195.94  43.42  260.69
   0  -1  11 602.491 158.224   1-0.33680 0.33680-0.89482 0.79546 0.29301 0.50380  0 109.81 143.91  141.34 109.51 143.91  141.10
   0  -1  11 624.327 168.020   2-0.03317 0.03317-0.95783 0.85835 0.28540 0.51198  0 132.05 104.95   94.51 132.18 105.06   94.15
   0   1 -11 369.910 169.678   2-0.07620 0.07620 0.95533-0.85581-0.28555-0.51164  0 191.93  45.95  274.86 191.88  46.25  275.10
   0   1  11 484.222 145.750   1-0.14424 0.14424-0.84775 0.94712 0.51041 0.28662  0 126.07 115.23  158.30 126.06 115.22  158.01
   0   1  11 540.490 166.681   2-0.08074 0.08074-0.85541 0.95489 0.51162 0.28577  0 129.84 108.95   79.67 129.51 108.76   79.61
   0  -1 -12 474.014 207.465   2-0.02326 0.02326 0.84325-0.94276-0.53702-0.33265  2 179.78   9.86  258.62 179.72   9.57  258.97
   0  -1  12 522.866 169.935   1-0.30073 0.30073-0.89166 0.79230 0.33837 0.53087  0  84.40 123.34  144.35  84.24 123.42  144.42
   0  -1  12 425.239 189.068   2-0.04274 0.04274-0.94199 0.84251 0.33290 0.53698  0 106.15  83.92   90.85 106.44  84.04   91.23
   0   1 -12 314.461 212.021   2-0.06671 0.06671 0.94060-0.84109-0.33290-0.53677  0 174.96  12.27  272.60 175.38  12.75  272.21
   0   1  12 359.231 167.896   1-0.11762 0.11762-0.83600 0.93538 0.53598 0.33351  0 102.26  92.80  159.98 102.06  92.21  160.23
   0   1  12 205.455 184.886   2-0.08632 0.08632-0.83940 0.93888 0.53662 0.33325  0 104.11  88.43   77.54 103.66  88.08   77.89
   0   1  13  7950.6   386.1   1-0.08866 0.08866-0.82175 0.92113 0.56291 0.37903  0  74.10  63.54  162.61  74.16  63.84  162.64
   0   1  13  7618.6   453.0   2-0.09234 0.09234-0.82120 0.92068 0.56312 0.37924  0  73.09  63.89   75.88  72.74  63.88   76.01
   0  -2   0 209.757  34.357   1-0.63686 0.63686-0.09934-0.09934-0.76456 0.76456  0 257.27 278.87   56.13 257.70 278.80   55.70
   0  -2   0 220.508  36.495   2-0.21840 0.21840-0.09944-0.09944 0.97078-0.97078  0 331.65 296.11   26.37 331.67 296.16   26.41
   0  -2   0 465.970  49.676   2 0.12748-0.12748-0.09949-0.09949-0.98684 0.98684  0 274.38 217.56  194.93 274.47 217.57  195.25
   0   2   0 264.845  39.160   1-0.55832 0.55832 0.09931 0.09931-0.82366 0.82366  0 345.41 235.25   43.13 345.52 235.33   42.98
   0   2   0 245.120  37.250   2-0.23237 0.23237 0.09944 0.09944 0.96753-0.96753  0 268.79 221.88   15.09 268.84 221.82   14.96
   0   2   0 295.204  39.875   2 0.11274-0.11274 0.09952 0.09952-0.98863 0.98863  0 325.29 300.15  206.65 325.41 300.15  206.69
   0  -2  -1  3932.6    89.2   1-0.51034 0.51034 0.19360-0.39222-0.83790 0.76532  0 259.66 288.20   37.05 259.86 288.10   36.87
   0  -2  -1  3890.2    98.9   2-0.17765 0.17765-0.43483 0.23596 0.88282-0.95539  0 336.12 296.95   46.47 336.19 296.95   46.51
   0  -2  -1  4052.4    99.4   2 0.09811-0.09811 0.23906-0.43810-0.96604 0.89356  0 275.19 213.50  215.00 275.27 213.51  214.83
   0  -2   1  3232.4    87.0   1-0.69173 0.69173-0.34435 0.14567-0.63477 0.70731  0 251.25 269.64   72.07 251.15 269.61   71.93
   0  -2   1  3799.9    98.2   2-0.23807 0.23807 0.23153-0.43040 0.94325-0.87068  0 331.05 300.85    7.01 331.02 300.79    7.24
   0  -2   1  4082.1   100.7   2 0.13561-0.13561-0.43664 0.23765-0.88936 0.96184  0 270.01 216.82  175.07 270.13 216.81  175.02
   0   2  -1  3178.9    90.5   1-0.65429 0.65429-0.15748 0.35617-0.73967 0.66713  0 353.13 245.01   59.34 353.11 245.07   59.45
   0   2  -1  4220.5   102.8   2 0.13350-0.13350-0.23774 0.43673-0.96211 0.88963  0 330.12 301.37  187.02 330.10 301.28  187.16
   0   2  -1  4048.6   101.8   2-0.24108 0.24108 0.43000-0.23117 0.87005-0.94257  0 269.22 217.47  355.01 269.37 217.53  354.85
   0   2   1  3920.0    87.3   1-0.36654 0.36654 0.41656-0.21794-0.83194 0.90451  0 343.04 225.41   21.70 343.04 225.45   21.62
   0   2   1  4428.0   104.3   2-0.20460 0.20460-0.23415 0.43302 0.95043-0.87786  0 264.61 221.37   34.04 264.77 221.39   34.28
   0   2   1  4201.6   102.2   2 0.07047-0.07047 0.43890-0.23987-0.89577 0.96825  0 324.49 304.54  226.92 324.50 304.40  227.12
   0  -2  -2 40628.2   270.8   1-0.34035 0.34035 0.45073-0.64935-0.82523 0.68008  0 256.68 297.70   19.00 256.92 297.60   19.12
   0  -2  -2 36713.8   298.4   2-0.13094 0.13094-0.67881 0.47985 0.72254-0.86752  0 344.09 302.41   63.51 344.10 302.41   63.53
   0  -2  -2 37706.2   303.3   2 0.06307-0.06307 0.48353-0.68257-0.87305 0.72810  0 272.86 205.19  230.02 272.97 205.18  230.01
   0  -2   2 26812.8   257.3   1-0.69626 0.69626-0.51639 0.31770-0.49856 0.64365  0 241.76 260.52   84.45 241.66 260.49   84.51
   0  -2   2 36259.8   299.5   2 0.12449-0.12449-0.67921 0.48022-0.72331 0.86827  0 262.62 211.99  158.04 262.76 212.02  158.09
   0  -2   2 33293.3   286.3   2-0.24046 0.24046 0.46804-0.66687 0.85036-0.70531  0 333.68 310.16  352.40 333.69 310.12  352.39
   0   2  -2 22361.1   236.4   1-0.68877 0.68877-0.32201 0.52069-0.64955 0.50446  0 364.46 254.88   70.19 364.48 254.92   70.39
   0   2  -2 37085.1   301.6   2 0.13487-0.13487-0.47942 0.67841-0.86716 0.72220  0 338.15 307.13  172.03 338.16 307.05  172.25
   0   2  -2 34568.2   293.5   2-0.23037 0.23037 0.66800-0.46906 0.70760-0.85259  0 266.70 208.98  338.06 266.85 209.04  338.24
   0   2   2 40606.2   314.7   2-0.17091 0.17091-0.47686 0.67573 0.86220-0.71706  0 257.33 216.83   48.96 257.62 216.88   49.22
   0   2   2 35198.3   292.2   2 0.02270-0.02270 0.68359-0.48456-0.72951 0.87446  0 326.83 313.53  244.26 326.85 313.40  244.35
   0  -2  -3 46962.8   313.5   1-0.18959 0.18959 0.61786-0.81647-0.76309 0.54537  0 249.88 307.41    5.99 249.74 307.29    5.73
   0  -2  -3 48377.6   318.7   1-0.09673 0.09673-0.82583 0.62707 0.55556-0.77293  0 355.17 311.43  162.14 355.07 311.34  161.98
   0  -2  -3 44365.3   359.8   2-0.09074 0.09074-0.82615 0.62719 0.55609-0.77356  0 354.74 311.34   76.47 354.74 311.34   76.51
   0  -2  -3 44603.8   362.2   2 0.03501-0.03501 0.62959-0.82863-0.77614 0.55870  0 268.39 193.86  240.06 268.52 193.91  240.20
   0  -2   3 37438.3   332.9   1-0.67701 0.67701-0.63187 0.43319-0.37735 0.59498  0 230.44 251.38   93.94 230.33 251.34   94.17
   0  -2   3 46027.4   369.4   2 0.10531-0.10531-0.82469 0.62556-0.55569 0.77304  0 253.49 204.49  145.10 253.27 204.53  145.29
   0  -2   3 45541.3   367.0   2-0.23474 0.23474 0.60948-0.80842 0.75726-0.53977  0 338.52 322.85  342.74 338.57 322.82  342.66
   0   2  -3 38087.8   338.3   1-0.69765 0.69765-0.41845 0.61714-0.58153 0.36390  0 378.67 265.15   76.94 378.59 265.20   77.16
   0   2  -3 46209.8   369.4   2 0.12872-0.12872-0.62396 0.82295-0.77078 0.55334  0 348.73 316.29  162.08 348.74 316.21  162.28
   0   2  -3 42140.1   355.2   2-0.21241 0.21241 0.81225-0.61330 0.54327-0.76075  0 262.07 197.64  325.70 262.25 197.70  325.60
   0   2   3 49045.2   378.0   2-0.14333 0.14333-0.62257 0.82153 0.76933-0.55186  0 248.39 209.53   59.01 248.26 209.60   59.27
   0   2   3 41911.3   350.1   2-0.01825 0.01825 0.82895-0.62992-0.55903 0.77645  0 331.41 326.03  257.42 331.40 325.88  257.45
   0  -2  -4 14040.9   194.4   1-0.25488 0.25488-0.88353 0.68480 0.39296-0.68271  0 367.31 323.45  148.56 367.18 323.30  148.54
   0  -2  -4 14805.5   239.9   2-0.05892 0.05892-0.90973 0.71077 0.41099-0.70095  0 367.45 322.82   86.01 367.43 322.79   86.30
   0  -2  -4 12770.9   223.0   2 0.01573-0.01573 0.71194-0.91098-0.70206 0.41215  0 262.52 180.54  246.72 262.65 180.58  246.65
   0  -2   4 11103.2   204.1   1-0.64797 0.64797-0.71055 0.51182-0.27432 0.56407  0 217.83 242.06  101.92 217.80 242.12  101.81
   0  -2   4 13033.9   222.3   2 0.08565-0.08565-0.90783 0.70869-0.41051 0.70030  0 242.55 195.25  135.60 242.39 195.30  135.62
   0  -2   4 12344.9   221.0   2-0.22835 0.22835 0.69013-0.88908 0.68671-0.39673  0 344.90 338.11  336.49 344.91 338.05  336.49
   0   2  -4 10841.9   205.9   1-0.69816 0.69817-0.47329 0.67198-0.53718 0.24700  0 394.71 276.06   81.01 395.01 276.08   81.19
   0   2  -4 13558.3   230.3   2 0.12203-0.12203-0.70588 0.90487-0.69774 0.40782  0 361.31 327.96  156.04 361.26 327.84  155.97
   0   2  -4  8258.5   185.9   2-0.19354 0.19354 0.89538-0.69643 0.40105-0.69103  0 256.27 184.31  315.91 256.26 184.41  316.07
   0   2   4 13693.1   225.3   2-0.12457 0.12457-0.70571 0.90466 0.69747-0.40751  0 237.55 200.50   65.72 237.42 200.54   65.67
   0   2   4 12984.4   224.8   2-0.05051 0.05051 0.91000-0.71097-0.41151 0.70140  0 337.50 341.15  267.04 337.44 340.99  267.28
   0  -2  -5 16900.0   234.4   1-0.36511 0.36511-0.89519 0.69647 0.25558-0.61776  0 382.26 336.79  138.34 382.13 336.64  138.41
   0  -2  -5 18123.1   289.5   2-0.03394 0.03394-0.95664 0.75768 0.28930-0.65175  0 382.04 336.41   94.01 382.00 336.38   93.92
   0  -2  -5  8143.9   201.1   2 0.00350-0.00350 0.75804-0.95707-0.65220 0.28984  0 255.77 165.58  250.64 255.75 165.67  250.61
   0  -2   5 15277.2   262.1   1-0.61535 0.61535-0.76628 0.56755-0.18484 0.54702  0 204.21 232.45  107.98 204.21 232.56  108.12
   0  -2   5 16761.2   274.7   2 0.06790-0.06790-0.95489 0.75576-0.28908 0.65132  0 230.49 184.79  127.96 230.35 184.88  128.09
   0  -2   5 15997.1   274.9   2-0.22347 0.22347 0.73555-0.93450 0.63955-0.27707  0 352.42 355.54  332.80 352.42 355.50  332.72
   0   2  -5 14013.5   254.2   1-0.69715 0.69715-0.50271 0.70139-0.51114 0.14842  0 413.37 287.90   83.37 413.65 287.90   83.44
   0   2  -5 17554.7   285.3   2 0.11679-0.11679-0.75199 0.95098-0.64874 0.28634  0 375.63 341.73  152.05 375.56 341.61  152.10
   0   2  -5 15089.4   261.1   2-0.17598 0.17598 0.94319-0.74424 0.28183-0.64431  0 249.39 169.49  308.72 249.22 169.56  308.62
   0   2   5 16711.2   229.8   1 0.01749-0.01749-0.75829 0.95705 0.65168-0.28939  0 227.68 188.25  171.29 227.69 188.37  171.36
   0   2   5 16744.5   272.6   2-0.11252 0.11252-0.75250 0.95146 0.64891-0.28646  0 225.52 190.24   69.62 225.41 190.29   69.60
   0   2   5 15626.4   271.4   2-0.07563 0.07563 0.95451-0.75548-0.28843 0.65079  0 344.66 358.52  275.06 344.61 358.35  274.93
   0  -2  -6 11739.6   222.0   1-0.44400 0.44400-0.88474 0.68601 0.14180-0.57642  0 399.37 351.81  130.40 399.54 351.60  130.46
   0  -2  -6 13123.2   279.8   2-0.01428 0.01428-0.98225 0.78312 0.18702-0.62171  0 398.26 352.07  100.09 398.48 351.94  100.08
   0  -2  -6 11673.3   253.7   2-0.00384 0.00384 0.78338-0.98241-0.62153 0.18670  0 248.17 149.16  253.15 248.01 149.25  252.93
   0  -2   6 10654.6   237.5   1-0.58134 0.58134-0.80671 0.60799-0.10612 0.54074  0 189.59 222.42  113.56 189.63 222.51  113.56
   0  -2   6 12143.1   259.1   2 0.05177-0.05177-0.98109 0.78196-0.18649 0.62118  0 217.36 173.33  122.00 217.26 173.43  121.94
   0  -2   6 10587.8   257.4   2-0.22039 0.22039 0.76048-0.95943 0.61081-0.17584  0 360.99 375.27  330.55 360.98 375.20  330.53
   0   2  -6  9490.8   239.2   1-0.69627 0.69627-0.51629 0.71498-0.49865 0.06339  0 434.44 301.00   84.49 434.77 301.01   84.50
   0   2  -6 12639.8   276.1   2 0.11342-0.11342-0.77741 0.97640-0.61869 0.18381  0 391.51 357.61  149.98 391.79 357.48  149.83
   0   2  -6 10273.6   241.1   2-0.16011 0.16011 0.97039-0.77144 0.18085-0.61582  0 241.46 153.20  302.60 241.31 153.30  302.54
   0   2   6 12113.7   220.1   1-0.02121 0.02121-0.78351 0.98227 0.62102-0.18627  0 214.48 177.07  168.00 214.51 177.20  168.19
   0   2   6 12817.9   264.5   2-0.10532 0.10532-0.77830 0.97725 0.61900-0.18406  0 212.36 178.98   72.00 212.30 179.04   71.90
   0   2   6 11234.5   262.8   2-0.09575 0.09575 0.97811-0.77909-0.18473 0.61956  0 352.83 378.18  281.07 352.76 377.98  281.15
   0  -2  -7  2241.2   164.0   1-0.50255 0.50255-0.86333 0.66460 0.04589-0.55295  0 419.36 368.98  124.29 419.52 368.80  123.90
   0  -2  -7  2592.3   191.6   2 0.00256-0.00256-0.99517 0.79604 0.09810-0.60524  0 417.22 370.06  104.89 417.35 369.95  105.33
   0  -2  -7  2191.4   154.5   2-0.00770 0.00770 0.79615-0.99518-0.60505 0.09774  0 239.51 131.16  253.89 239.41 131.24  254.15
   0  -2   7  2210.8   144.6   1-0.54693 0.54693-0.83643 0.63771-0.03535 0.54241  0 173.91 211.72  118.35 174.00 211.81  118.37
   0  -2   7  2240.8   157.8   2 0.03712-0.03712-0.99451 0.79538-0.09784 0.60498  0 203.14 160.89  116.72 202.98 160.98  116.73
   0  -2   7  1965.2   187.0   2-0.21863 0.21863 0.77286-0.97181 0.59572-0.08825  0 370.73 397.55  329.32 370.63 397.48  329.40
   0   2  -7  2017.5   178.0   1-0.69604 0.69604-0.51922 0.71791-0.49592-0.01188  0 458.61 315.92   84.72 458.82 315.86   84.73
   0   2  -7  2393.4   194.4   2 0.11101-0.11101-0.79006 0.98919-0.60289 0.09576  0 410.00 375.88  148.63 410.31 375.79  148.65
   0   2  -7  2004.1   150.7   2-0.14568 0.14568 0.98488-0.78586 0.09370-0.60101  0 232.69 135.36  297.42 232.57 135.51  297.42
   0   2   7  2332.5   124.4   1-0.04111 0.04111-0.79566 0.99442 0.60434-0.09714  0 200.10 164.84  166.51 200.19 165.05  166.55
   0   2   7  2658.7   162.7   2-0.10154 0.10154-0.79127 0.99023 0.60297-0.09555  0 198.03 166.76   73.27 197.99 166.82   73.11
   0   2   7  2000.1   184.4   2-0.11245 0.11245 0.98907-0.79004-0.09534 0.60265  0 361.97 400.33  286.38 361.91 400.18  286.39
   0  -2  -8  1487.4   180.5   1-0.54790 0.54790-0.83572 0.63699-0.03723-0.54227  0 442.40 389.18  117.98 442.43 388.91  118.24
   0  -2  -8  1782.0   184.5   2 0.01692-0.01692-0.99967 0.80054 0.01946-0.59905  0 439.13 390.92  110.04 439.15 390.81  109.91
   0  -2  -8  1412.7   159.3   2-0.00912 0.00912 0.80075-0.99977-0.59893 0.01916  0 230.06 111.38  254.66 229.88 111.34  254.59
   0  -2   8  1719.9   151.5   1-0.51188 0.51188-0.85855 0.65982 0.02940 0.55010  0 157.13 200.25  122.68 157.14 200.21  122.77
   0  -2   8  1671.3   170.3   2 0.02362-0.02362-0.99953 0.80040-0.01942 0.59900  0 187.24 147.40  112.16 187.33 147.43  112.17
   0  -2   8  1761.5   185.7   2-0.21803 0.21803 0.77694-0.97588 0.59062-0.01065  0 381.78 423.00  329.27 381.56 422.91  329.03
   0   2  -8  1327.2   168.6   1-0.69640 0.69640-0.51449 0.71317-0.50032-0.08003  0 486.34 333.05   84.34 486.59 333.07   84.36
   0   2  -8  1649.9   183.9   2 0.11042-0.11042-0.79460 0.99373-0.59701 0.01743  0 431.36 396.91  147.90 431.61 396.96  148.22
   0   2  -8  1653.8   172.2   2-0.13227 0.13227 0.99108-0.79205 0.01617-0.59595  0 222.91 115.72  293.16 222.79 115.89  292.89
   0   2   8  1789.5   143.3   1-0.04838 0.04838-0.79990 0.99866 0.59818-0.01852  0 184.65 151.32  166.28 184.68 151.56  165.95
   0   2   8  1754.1   164.7   2-0.10019 0.10019-0.79586 0.99482 0.59713-0.01722  0 182.36 153.48   73.54 182.28 153.56   73.54
   0   2   8  1772.1   183.1   2-0.12661 0.12661 0.99182-0.79279-0.01642 0.59620  0 372.29 425.78  290.98 372.25 425.53  291.00
   0  -2  -9  7552.0   292.6   1-0.58361 0.58361-0.80441 0.60568-0.11105-0.54088  0 468.83 413.24  113.09 469.06 412.94  113.22
   0  -2  -9  8295.4   353.6   2 0.02914-0.02914-0.99824 0.79911-0.05156-0.60047  0 464.80 415.50  114.21 464.84 415.36  114.03
   0  -2  -9  6985.7   273.8   2-0.00876 0.00876 0.79959-0.99862-0.60048-0.05177  0 219.34  88.98  254.48 219.22  89.11  254.48
   0  -2   9  6856.7   255.4   1-0.47661 0.47662-0.87453 0.67580 0.08967 0.56226  0 138.56 187.29  127.14 138.74 187.40  126.88
   0  -2   9  8137.6   296.5   2 0.01114-0.01114-0.99861 0.79948 0.05144 0.60059  0 170.03 132.47  108.19 170.00 132.57  108.05
   0  -2   9  7424.5   344.1   2-0.21830 0.21830 0.77512-0.97406 0.59291 0.05955  0 393.84 452.48  328.87 394.06 452.40  329.20
   0   2  -9  8047.9   346.4   2 0.11062-0.11062-0.79330 0.99243-0.59870-0.05333  0 456.25 421.97  147.90 456.59 421.90  148.35
   0   2  -9  6920.3   272.5   2-0.11991 0.11991 0.99131-0.79229-0.05400-0.59825  0 211.93  93.85  288.74 211.85  94.00  288.81
   0   2   9  8160.6   249.9   1-0.04646 0.04646-0.79879 0.99755 0.59981 0.05230  0 167.64 136.07  165.69 167.82 136.31  166.11
   0   2   9  8138.7   288.6   2-0.10057 0.10057-0.79453 0.99349 0.59884 0.05356  0 164.79 138.98   73.40 164.82 139.04   73.41
   0   2   9  5886.7   328.6   2-0.13893 0.13893 0.98879-0.78976 0.05477 0.59748  0 383.96 455.25  294.88 383.98 454.90  295.14
   0  -2 -10  6772.0   319.1   1-0.61270 0.61270-0.76996 0.57123-0.17821-0.54616  0 500.26 442.74  108.64 500.50 442.53  108.58
   0  -2 -10  7685.6   409.8   2 0.04030-0.04030-0.99233 0.79320-0.11685-0.60763  0 495.96 445.31  118.18 495.86 444.98  117.85
   0  -2 -10  6961.2   314.3   2-0.00706 0.00706 0.79408-0.99311-0.60777-0.11695  0 207.22  63.68  253.73 207.16  63.86  253.95
   0  -2  10  6923.3   273.9   1-0.44097 0.44097-0.88548 0.68676 0.14651 0.57785  0 118.60 172.83  130.77 118.39 172.93  130.78
   0  -2  10  7339.8   313.4   2-0.00085 0.00085-0.99318 0.79404 0.11662 0.60786  0 150.49 115.90  104.27 150.47 116.07  104.24
   0  -2  10  7057.9   405.4   2-0.21921 0.21921 0.76879-0.96774 0.60075 0.12420  0 408.43 487.41  329.81 408.63 487.30  329.78
   0   2 -10  6971.0   413.3   2 0.11139-0.11139-0.78757 0.98670-0.60608-0.11840  0 486.42 452.07  149.18 486.65 451.97  148.88
   0   2 -10  6966.8   311.9   2-0.10815 0.10815 0.98703-0.78800-0.11862-0.60610  0 199.51  69.04  285.26 199.44  69.18  285.03
   0   2  10  7637.3   269.3   1-0.03765 0.03765-0.79362 0.99238 0.60725 0.11733  0 149.01 118.47  167.16 149.31 118.73  166.83
   0   2  10  8180.5   323.2   2-0.10230 0.10230-0.78869 0.98765 0.60622 0.11868  0 145.16 122.93   72.82 145.16 122.96   72.87
   0   2  10  7108.6   413.6   2-0.15010 0.15010 0.98134-0.78231 0.12019 0.60453  0 397.35 489.96  299.19 397.56 489.70  298.98
   0  -2 -11  3891.8   312.2   2-0.00434 0.00434 0.78504-0.98406-0.61944-0.17776  0 193.38  34.36  252.86 193.26  34.60  253.09
   0  -2  11  3808.3   264.6   1-0.40457 0.40457-0.89222 0.69349 0.20066 0.59615  0  95.73 156.26  134.47  95.56 156.23  134.53
   0  -2  11  3933.3   301.4   2-0.01236 0.01236-0.98405 0.78492 0.17745 0.61947  0 128.42  97.51  100.62 128.06  97.43  100.66
   0   2 -11  3288.5   292.6   2-0.09683 0.09683 0.97907-0.78004-0.17901-0.61819  0 185.17  40.45  281.48 185.08  40.45  281.48
   0   2  11  3826.4   254.0   1-0.02361 0.02361-0.78499 0.98375 0.61905 0.17798  0 128.57  98.05  167.88 128.64  97.99  167.99
   0   2  11  4112.2   307.6   2-0.10507 0.10507-0.77918 0.97814 0.61793 0.17945  0 122.86 104.86   72.00 122.60 104.86   71.99
   0  -2  12 13384.7   413.4   1-0.36726 0.36726-0.89514 0.69641 0.25269 0.61655  0  69.35 136.26  138.14  69.30 136.43  138.20
   0  -2  12 12660.6   462.3   2-0.02336 0.02336-0.97160 0.77264 0.23546 0.63441  0 102.18  75.83   96.83 101.85  75.81   97.18
   0   2  12 13423.3   383.9   1-0.00492 0.00492-0.77315 0.97191 0.63420 0.23529  0 105.12  72.78  169.47 105.11  72.94  169.52
   0   2  12 14473.4   490.5   2-0.10873 0.10873-0.76648 0.96544 0.63300 0.23687  0  96.56  84.16   70.82  96.15  84.07   70.84
   0  -3   0  76.346  33.698   1-0.65191 0.65191-0.14901-0.14901-0.74351 0.74351  0 236.46 289.46   58.57 236.52 289.52   58.90
   0  -3   0 -16.911  43.202   2-0.21369 0.21369-0.14915-0.14915 0.96545-0.96545  0 349.06 317.51   29.54 349.15 317.37   29.30
   0  -3   0 -12.656  45.607   2 0.13013-0.13013-0.14924-0.14924-0.98020 0.98020  0 261.53 197.02  192.70 261.44 197.01  192.36
   0   3   0 -14.607  40.106   1-0.53385 0.53385 0.14896 0.14896-0.83236 0.83236  0 370.84 222.46   39.59 370.83 222.50   39.77
   0   3   0  29.370  35.997   2-0.23488 0.23488 0.14915 0.14915 0.96051-0.96051  0 252.93 203.54   11.93 252.99 203.61   12.09
   0   3   0 -14.333  42.457   2 0.10800-0.10800 0.14928 0.14928-0.98288 0.98288  0 339.54 323.30  208.93 339.27 323.38  209.57
   0  -3  -1 65242.2   406.0   1-0.58505 0.58505 0.03952-0.33745-0.81004 0.73746  0 239.55 299.11   46.98 239.51 298.99   46.81
   0  -3  -1 77707.4   486.1   2-0.18615 0.18615-0.37855 0.08024 0.90667-0.97924  0 353.28 317.41   43.02 353.30 317.38   42.98
   0  -3  -1 76788.7   487.4   2 0.11427-0.11427 0.08227-0.38082-0.99004 0.91756  0 262.64 193.56  205.80 262.76 193.58  205.69
   0  -3   1 58634.2   417.1   1-0.68803 0.68803-0.31677 0.01874-0.65290 0.72544  0 230.64 280.33   69.90 230.58 280.24   70.03
   0  -3   1 72502.1   471.4   2-0.23117 0.23117 0.07794-0.37625 0.96979-0.89722  0 347.90 321.38   15.92 347.85 321.31   16.20
   0  -3   1 73204.2   476.0   2 0.13592-0.13592-0.38020 0.08171-0.91486 0.98734  0 257.39 197.01  178.57 257.61 197.04  178.57
   0   3  -1 60067.8   418.6   1-0.61419 0.61419-0.03407 0.33210-0.78842 0.71588  0 378.39 232.52   51.43 378.30 232.63   51.51
   0   3  -1 72706.9   473.9   2 0.12648-0.12648-0.08201 0.38049-0.98857 0.91609  0 343.61 323.94  196.08 343.58 323.81  196.26
   0   3  -1 75602.9   481.8   2-0.24138 0.24138 0.37554-0.07730 0.89482-0.96735  0 254.21 199.94  358.18 254.02 200.00  358.29
   0   3   1 68643.9   415.5   1-0.40586 0.40586 0.36221-0.06428-0.83910 0.91167  0 367.22 212.12   25.47 367.17 212.22   25.49
   0   3   1 78252.4   488.0   2-0.22022 0.22022-0.07855 0.37686 0.97228-0.89971  0 249.58 203.96   24.98 249.44 203.98   25.21
   0   3   1 68943.9   458.6   2 0.07940-0.07940 0.38163-0.08308-0.92090 0.99337  0 337.72 327.06  223.46 337.69 326.90  223.49
   0  -3  -2 13156.4   188.1   1-0.49266 0.49266 0.22521-0.52313-0.84057 0.69543  0 239.07 308.84   35.04 239.04 308.69   34.79
   0  -3  -2 14062.2   225.2   2-0.15288 0.15288-0.57491 0.27648 0.80380-0.94878  0 360.20 321.19   55.99 360.18 321.17   55.86
   0  -3  -2 13389.8   220.6   2 0.09323-0.09323 0.27950-0.57806-0.95561 0.81065  0 261.62 186.87  217.12 261.73 186.92  217.25
   0  -3   2 10093.0   188.6   1-0.69831 0.69831-0.45381 0.15579-0.55355 0.69864  0 222.31 271.11   79.98 222.25 271.07   79.74
   0  -3   2 13065.9   218.8   2-0.23919 0.23919 0.26942-0.56772 0.93285-0.78770  0 349.22 329.09    5.00 349.17 328.98    4.99
   0  -3   2 13019.6   214.7   2 0.13142-0.13142-0.57620 0.27772-0.80667 0.95163  0 251.60 193.94  165.72 251.44 193.98  165.71
   0   3  -2 10792.9   199.3   1-0.65830 0.65830-0.17239 0.47042-0.73275 0.58766  0 388.77 242.65   60.23 389.02 242.74   60.42
   0   3  -2 13156.6   219.3   2 0.13456-0.13456-0.27753 0.57602-0.95125 0.80629  0 350.61 328.11  185.13 350.58 328.00  184.80
   0   3  -2 12417.8   209.8   2-0.23717 0.23718 0.56752-0.26910 0.78846-0.93345  0 252.82 193.07  345.78 252.67 193.11  345.66
   0   3   2 13881.9   197.1   1-0.23912 0.23912 0.56800-0.27008-0.78753 0.93267  0 367.78 201.33   10.09 367.71 201.38    9.99
   0   3   2 13546.6   218.0   2-0.20000 0.20000-0.27333 0.57164 0.94090-0.79576  0 243.63 201.22   36.58 243.52 201.27   36.60
   0   3   2 12651.5   214.9   2 0.04539-0.04539 0.57953-0.28098-0.81369 0.95864  0 338.67 334.41  236.57 338.66 334.24  236.55
   0  -3  -3 20466.5   240.7   1-0.39117 0.39117 0.38303-0.68095-0.83682 0.61910  0 235.24 318.90   23.72 235.18 318.77   24.02
   0  -3  -3 21006.7   288.4   2-0.12008 0.12008-0.72368 0.42524 0.67961-0.89708  0 369.68 328.25   66.90 369.64 328.23   67.14
   0  -3  -3 19818.3   280.7   2 0.07231-0.07231 0.42774-0.72629-0.90101 0.68357  0 258.59 177.41  226.39 258.72 177.46  226.40
   0  -3   3 16405.2   255.7   1-0.69146 0.69146-0.56091 0.26289-0.45525 0.67288  0 212.16 261.93   88.01 212.07 261.87   88.07
   0  -3   3 18382.0   268.1   2 0.12013-0.12013-0.72359 0.42510-0.67970 0.89714  0 243.45 188.33  154.49 243.29 188.39  154.51
   0  -3   3 19280.3   278.8   2-0.24123 0.24123 0.41239-0.71064 0.87849-0.66091  0 352.75 340.06  355.92 352.72 340.00  355.98
   0   3  -3 16626.8   259.0   1-0.68020 0.68020-0.26936 0.56739-0.68174 0.46411  0 402.34 253.09   67.07 402.58 253.19   66.82
   0   3  -3 20375.4   285.2   2 0.13587-0.13587-0.42389 0.72237-0.89547 0.67803  0 360.01 335.53  176.00 359.98 335.43  175.83
   0   3  -3 19277.9   274.7   2-0.22605 0.22605 0.71254-0.41412 0.66422-0.88171  0 249.55 183.53  334.73 249.41 183.58  334.67
   0   3   3 20861.2   282.9   2-0.17987 0.17987-0.42044 0.71875 0.88931-0.67160  0 235.65 195.94   45.60 235.55 196.00   45.60
   0   3   3 20111.7   281.6   2 0.01172-0.01172 0.72782-0.42926-0.68567 0.90310  0 341.74 345.10  247.97 341.72 344.94  247.98
   0  -3  -4  54.641  43.153   1-0.29894 0.29894 0.50099-0.79892-0.81218 0.52188  0 228.34 329.45   15.00 228.35 329.29   15.31
   0  -3  -4  60.910  59.176   1-0.09975 0.09975-0.82733 0.52919 0.55279-0.84262  0 381.57 337.93  161.46 381.63 338.20  161.73
   0  -3  -4  44.628  68.516   2-0.09016 0.09016-0.82791 0.52947 0.55356-0.84352  0 381.16 338.11   76.60 381.42 338.12   76.69
   0  -3  -4 -19.721  51.091   2 0.05469-0.05469 0.53105-0.82961-0.84557 0.55566  0 254.44 165.66  233.36 254.13 165.71  233.19
   0  -3   4  66.461  51.497   1-0.67363 0.67363-0.64376 0.34573-0.36304 0.65322  0 200.38 252.50   95.51 200.46 252.55   95.25
   0  -3   4  59.119  52.736   2 0.10498-0.10498-0.82650 0.52780-0.55307 0.84286  0 233.41 180.65  145.28 233.48 180.81  145.11
   0  -3   4  61.521  72.595   2-0.23944 0.23944 0.51170-0.81012 0.82513-0.53514  0 357.82 353.75  349.46 357.97 353.86  349.50
   0   3  -4  62.956  70.594   1-0.69040 0.69040-0.33435 0.63237-0.64153 0.35135  0 418.35 264.00   71.59 418.77 264.16   71.23
   0   3  -4  39.067  66.792   2 0.13358-0.13358-0.52587 0.82435-0.84001 0.55009  0 371.50 345.31  168.91 371.54 345.64  169.16
   0   3  -4  37.353  51.322   2-0.21199 0.21199 0.81465-0.51623 0.53981-0.82980  0 244.69 171.89  325.53 244.60 171.85  325.36
   0   3   4  53.923  52.440   2-0.16256 0.16256-0.52290 0.82133 0.83675-0.54679  0 225.54 188.81   52.47 225.85 188.75   52.28
   0   3   4   2.579  66.584   2-0.01882 0.01882 0.83053-0.53199-0.55665 0.84654  0 346.60 358.51  258.14 346.47 358.54  257.61
   0  -3  -5  2426.5   114.1   1-0.22590 0.22590 0.58175-0.87968-0.78137 0.41850  0 219.20 340.60    8.99 219.14 340.44    8.84
   0  -3  -5  2220.1   123.4   1-0.23219 0.23219-0.87795 0.57981 0.41868-0.78096  0 393.57 352.45  150.58 393.65 352.35  150.52
   0  -3  -5  2503.2   163.2   2-0.06405 0.06405-0.89800 0.59956 0.43532-0.79777  0 395.17 350.58   84.72 395.43 350.55   84.72
   0  -3  -5  2238.4   133.2   2 0.04120-0.04120 0.60029-0.89884-0.79872 0.43633  0 248.40 151.91  237.90 248.27 151.97  238.04
   0  -3   5  2069.7   130.0   1-0.64937 0.64937-0.70759 0.40950-0.27862 0.64080  0 187.68 243.08  101.42 187.64 243.07  101.50
   0  -3   5  2279.3   137.9   2 0.08904-0.08904-0.89616 0.59747-0.43470 0.79694  0 222.40 171.56  137.28 222.30 171.63  137.17
   0  -3   5  1701.3   152.4   2-0.23660 0.23660 0.57867-0.87709 0.78049-0.41801  0 364.62 370.40  345.13 364.67 370.36  344.88
   0   3  -5  1866.3   151.2   1-0.69488 0.69488-0.37618 0.67421-0.61289 0.25017  0 437.52 276.03   74.20 437.61 276.02   74.14
   0   3  -5  2727.2   164.9   2 0.13046-0.13046-0.59429 0.89278-0.79360 0.43120  0 384.91 358.55  164.38 385.21 358.42  164.42
   0   3  -5  1843.7   125.9   2-0.19670 0.19670 0.88414-0.58572 0.42381-0.78629  0 238.62 158.21  317.61 238.48 158.23  317.54
   0   3   5  2463.0   137.9   2-0.14950 0.14950-0.59226 0.89070 0.79176-0.42931  0 214.79 179.81   56.95 214.72 179.89   57.08
   0   3   5  2024.0   149.3   2-0.04518 0.04518 0.89869-0.60015-0.43625 0.79861  0 352.67 375.01  266.15 352.60 374.85  265.69
   0  -3  -6 401.764  72.831   1-0.17222 0.17222 0.63433-0.93225-0.75364 0.31819  0 207.96 352.51    4.28 208.05 352.49    4.25
   0  -3  -6 531.696  95.634   1-0.33590 0.33590-0.89478 0.59669 0.29417-0.72879  0 408.68 368.60  140.91 408.81 368.38  141.18
   0  -3  -6 373.318 110.953   2-0.04170 0.04170-0.94384 0.64540 0.32777-0.76271  0 411.82 365.52   91.52 411.80 365.56   91.55
   0  -3  -6 315.137  85.228   2 0.03151-0.03151 0.64552-0.94407-0.76309 0.32823  0 241.39 136.18  241.46 241.28 136.36  241.40
   0  -3   6 446.790  85.766   1-0.62137 0.62137-0.75755 0.45946-0.20004 0.63467  0 173.39 233.00  107.21 173.52 233.11  107.06
   0  -3   6 414.661  89.985   2 0.07357-0.07357-0.94203 0.64333-0.32736 0.76204  0 209.63 160.96  130.06 209.78 161.11  130.42
   0  -3   6 385.362 113.609   2-0.23385 0.23385 0.62246-0.92088 0.74690-0.31193  0 372.77 389.36  341.70 372.73 389.57  341.70
   0   3  -6 348.564 105.674   1-0.69677 0.69677-0.40137 0.69940-0.59448 0.15922  0 459.37 289.43   75.53 459.40 289.13   75.93
   0   3  -6 461.959 111.570   2 0.12767-0.12767-0.63905 0.93754-0.75849 0.32361  0 401.10 373.69  161.37 401.08 373.76  161.16
   0   3  -6 377.583  85.251   2-0.18155 0.18155 0.93039-0.63197 0.31845-0.75343  0 231.38 142.82  311.14 231.20 142.82  310.87
   0   3   6 280.437  84.253   2-0.14009 0.14009-0.63771 0.93615 0.75743-0.32249  0 202.18 169.80   59.86 202.19 169.69   60.40
   0   3   6 267.818 107.700   2-0.06787 0.06787 0.94251-0.64397-0.32720 0.76203  0 359.96 394.06  273.15 359.99 393.91  272.56
   0  -3  -7 39182.1   435.3   1-0.41716 0.41716-0.89037 0.59227 0.18228-0.68934  0 426.80 387.09  133.07 426.93 386.88  133.25
   0  -3  -7 37513.9   509.9   2-0.02242 0.02242-0.97278 0.67434 0.23066-0.73808  0 430.63 383.33   97.40 430.91 383.34   97.47
   0  -3  -7 34851.1   478.9   2 0.02496-0.02496 0.67411-0.97267-0.73821 0.23086  0 233.37 118.64  243.64 233.21 118.77  243.60
   0  -3   7 33743.1   473.9   1-0.59094 0.59094-0.79663 0.49854-0.12718 0.63423  0 158.01 222.42  111.96 158.08 222.50  112.11
   0  -3   7 37567.7   499.6   2 0.05878-0.05878-0.97128 0.67259-0.23055 0.73768  0 195.96 149.16  124.53 195.86 149.28  124.56
   0  -3   7 35881.5   503.0   2-0.23182 0.23182 0.65000-0.94842 0.72371-0.21624  0 382.16 411.80  339.66 382.17 411.78  339.63
   0   3  -7 31825.4   471.6   1-0.69747 0.69747-0.41446 0.71249-0.58460 0.07679  0 484.56 303.88   76.97 484.75 303.94   76.87
   0   3  -7 38832.8   522.5   2 0.12552-0.12552-0.66735 0.96584-0.73409 0.22673  0 419.18 392.03  159.02 419.48 391.90  159.01
   0   3  -7 35600.9   488.2   2-0.16687 0.16687 0.96037-0.66195 0.22327-0.73074  0 222.96 125.41  305.17 222.81 125.54  305.07
   0   3   7 38668.1   501.7   2-0.13377 0.13377-0.66645 0.96489 0.73345-0.22602  0 188.25 158.18   62.59 188.20 158.25   62.57
   0   3   7 32689.0   479.4   2-0.08725 0.08725 0.96950-0.67096-0.22904 0.73635  0 368.74 416.24  278.51 368.61 415.97  278.51
   0  -3  -8 753.661 140.009   1-0.48092 0.48092-0.87287 0.57477 0.08259-0.66208  0 448.38 409.10  126.26 448.44 408.69  126.40
   0  -3  -8 700.645 170.876   2-0.00589 0.00589-0.98966 0.69097 0.14328-0.72286  0 453.15 404.24  102.73 453.26 404.23  102.68
   0  -3  -8 989.716 140.943   2 0.02092-0.02092 0.69098-0.98954-0.72257 0.14275  0 224.05  98.84  244.72 224.02  98.98  244.94
   0  -3   8 723.954 123.355   1-0.55896 0.55896-0.82709 0.52900-0.05904 0.63853  0 141.31 211.05  116.66 141.15 211.02  116.76
   0  -3   8 733.794 131.957   2 0.04463-0.04463-0.98874 0.69005-0.14281 0.72239  0 180.34 136.12  118.89 180.34 136.06  119.37
   0  -3   8 794.263 175.969   2-0.23054 0.23054 0.66599-0.96441 0.70944-0.12948  0 392.99 437.53  337.87 393.16 437.59  338.40
   0   3  -8 803.200 173.957   2 0.12406-0.12406-0.68400 0.98249-0.71885 0.13901  0 441.18 413.79  158.16 441.06 413.44  157.72
   0   3  -8 915.165 136.825   2-0.15288 0.15288 0.97873-0.68030 0.13684-0.71681  0 213.41 106.02  300.16 213.23 106.15  299.93
   0   3   8 869.368 138.112   2-0.12987 0.12987-0.68337 0.98181 0.71843-0.13851  0 172.69 145.22   64.08 172.58 145.50   63.89
   0   3   8 687.609 171.189   2-0.10415 0.10415 0.98462-0.68608-0.14026 0.72003  0 378.72 441.95  284.17 378.61 441.65  283.76
   0  -3  -9 701.073 173.122   1-0.53206 0.53206-0.84668 0.54858-0.00698-0.64496  0 473.66 434.95  120.43 473.84 435.01  120.30
   0  -3  -9 640.371 206.366   2 0.00908-0.00908-0.99799 0.69929 0.06275-0.71478  0 480.18 429.83  106.88 480.12 429.48  107.39
   0  -3  -9 644.631 144.757   2 0.01888-0.01888 0.69933-0.99788-0.71455 0.06225  0 213.57  76.40  245.59 213.54  76.51  245.62
   0  -3   9 663.992 132.584   1-0.52547 0.52547-0.85080 0.55270 0.00509 0.64684  0 122.37 198.27  121.22 122.44 198.37  121.12
   0  -3   9 704.533 147.600   2 0.03109-0.03109-0.99756 0.69886-0.06255 0.71458  0 162.85 121.08  114.61 162.90 121.26  114.68
   0  -3   9 860.968 208.347   2-0.22989 0.22989 0.67351-0.97193 0.70252-0.05006  0 405.90 467.94  338.16 406.04 467.99  337.81
   0   3  -9 783.915 207.114   2 0.12337-0.12337-0.69213 0.99061-0.71115 0.05883  0 466.66 439.30  156.88 466.72 439.23  157.07
   0   3  -9 707.250 145.735   2-0.13948 0.13948 0.98852-0.68998 0.05801-0.71026  0 202.52  84.21  295.39 202.31  84.24  295.33
   0   3   9 752.114 143.258   2-0.12792 0.12792-0.69162 0.99006 0.71084-0.05843  0 155.06 131.41   64.54 154.99 131.28   64.54
   0   3   9 621.213 207.019   2-0.11898 0.11898 0.99113-0.69259-0.05920 0.71145  0 390.10 471.95  288.66 390.26 471.86  288.51
   0  -3 -10  2364.0   257.8   1-0.57314 0.57314-0.81469 0.51660-0.08826-0.63611  2 503.58 467.14  115.37 504.38 467.50  114.77
   0  -3 -10  2383.8   258.3   2 0.01842-0.01842 0.70120-0.99976-0.71272-0.01205  0 201.64  50.72  246.19 201.45  50.65  245.77
   0  -3  10  2009.5   217.1   1-0.49078 0.49078-0.86878 0.57069 0.06600 0.65837  0 101.51 184.07  125.30 101.48 184.12  125.27
   0  -3  10  2196.3   244.6   2 0.01830-0.01830-0.99976 0.70107 0.01162 0.71286  0 143.08 104.41  109.87 143.04 104.54  110.36
   0  -3  10  2149.2   311.8   2-0.22979 0.22979 0.67454-0.97296 0.70157 0.02339  2 421.10 503.91  338.17 421.36 504.48  337.73
   0   3 -10  2441.6   305.5   2 0.12322-0.12322-0.69378 0.99226-0.70957-0.01523  0 498.01 471.10  156.66 498.06 470.87  156.94
   0   3 -10  2178.5   262.2   2-0.12681 0.12681 0.99181-0.69327-0.01529-0.70944  0 189.86  59.07  291.36 189.65  59.07  291.06
   0   3  10  2320.0   245.6   2-0.12753 0.12753-0.69327 0.99171 0.70930 0.01559  0 135.03 115.19   64.70 134.93 115.29   64.67
   0  -3 -11  4559.5   340.7   2 0.01922-0.01922 0.69795-0.99650-0.71589-0.08136  0 187.47  20.28  245.54 187.31  20.30  245.50
   0  -3  11  4497.7   287.6   1-0.45513 0.45513-0.88170 0.58361 0.12431 0.67250  0  77.67 167.60  129.32  77.64 167.71  129.25
   0  -3  11  4979.8   339.2   2 0.00579-0.00579-0.99671 0.69801 0.08086 0.71606  0 120.14  85.15  106.12 120.10  85.45  106.33
   0   3 -11  4379.0   341.4   2-0.11455 0.11455 0.98988-0.69133-0.08380-0.71340  0 174.92  29.54  287.38 174.81  29.62  287.07
   0   3  11  5036.7   328.1   2-0.12839 0.12839-0.68966 0.98810 0.71266 0.08472  0 112.06  97.10   64.40 111.68  97.04   64.38
   0  -3  12-105.405 171.021   1-0.41839 0.41839-0.89016 0.59206 0.18047 0.68877  0  50.43 148.75  132.81  49.92 148.22  133.12
   0  -3  12  22.354 205.821   2-0.00642 0.00642-0.98925 0.69055 0.14612 0.72326  0  93.16  63.06  103.22  92.89  63.10  102.51
   0   3  12  73.482 192.090   2-0.13028 0.13028-0.68164 0.98008 0.71999 0.14988  0  84.59  76.04   63.38  84.17  75.83   63.75
   0  -4   0 20878.9   280.0   1-0.66500 0.66500-0.19868-0.19869-0.71993 0.71993  0 214.77 300.99   61.85 214.76 300.85   62.14
   0  -4   0 25976.0   334.3   2-0.20850 0.20850-0.19887-0.19887 0.95759-0.95759  0 368.39 340.85   31.95 368.36 340.80   32.22
   0  -4   0 24394.3   320.8   2 0.13226-0.13226-0.19899-0.19899-0.97104 0.97104  0 247.87 175.45  189.44 247.69 175.50  189.45
   0   4   0 22161.3   291.3   1-0.50759 0.50759 0.19862 0.19862-0.83840 0.83840  0 398.75 207.81   36.47 398.97 207.92   36.54
   0   4   0 26807.3   334.9   2-0.23692 0.23692 0.19887 0.19887 0.95096-0.95096  0 236.44 184.68    9.00 236.32 184.73    9.18
   0   4   0 23214.8   317.1   2 0.10273-0.10273 0.19904 0.19904-0.97459 0.97459  0 354.35 349.12  212.43 354.30 348.96  212.48
   0  -4  -1  4353.3   135.9   1-0.62470 0.62470-0.06322-0.33415-0.77830 0.70575  0 218.19 310.71   53.32 218.13 310.58   53.37
   0  -4  -1  4947.5   170.5   2-0.18716 0.18716-0.37142-0.02632 0.90940-0.98198  0 372.50 340.48   42.51 372.48 340.47   42.54
   0  -4  -1  5187.3   163.1   2 0.12262-0.12262-0.02499-0.37308-0.99214 0.91966  0 249.47 172.27  199.54 249.29 172.31  199.52
   0  -4   1  3882.4   137.2   1-0.68900 0.68900-0.32369-0.07368-0.64846 0.72101  0 209.04 291.48   70.46 209.06 291.39   70.50
   0  -4   1  5322.5   173.0   2-0.22416 0.22416-0.02775-0.36999 0.97416-0.90159  0 366.66 344.54   21.91 366.67 344.49   22.28
   0  -4   1  5576.6   169.0   2 0.13590-0.13590-0.37276-0.02522-0.91792 0.99040  0 244.25 175.94  178.92 244.08 175.96  179.03
   0   4  -1  4516.8   156.8   1-0.57769 0.57769 0.05647 0.34076-0.81430 0.74173  0 406.52 218.41   45.71 406.73 218.53   45.72
   0   4  -1  5023.5   170.8   2 0.11901-0.11901 0.02491 0.37316-0.99258 0.92010  0 358.65 349.24  202.28 358.61 349.10  202.39
   0   4  -1  5267.8   163.1   2-0.24136 0.24136 0.36913 0.02853 0.89749-0.97002  0 237.67 181.28  358.82 237.58 181.39  358.69
   0   4   1  4968.9   153.6   1-0.40835 0.40835 0.35861 0.03862-0.83943 0.91201  0 394.20 196.93   25.97 394.42 197.05   25.74
   0   4   1  5145.3   161.7   2-0.22821 0.22821 0.02792 0.36982 0.97321-0.90064  0 233.08 185.51   18.99 233.00 185.55   19.08
   0   4   1  5016.1   172.6   2 0.08053-0.08053 0.37386 0.02421-0.92398 0.99646  0 352.35 352.33  222.99 352.30 352.18  223.01
   0  -4  -2 23377.6   287.3   1-0.56997 0.56997 0.07388-0.47112-0.81833 0.67319  0 218.93 320.81   44.66 218.96 320.64   44.61
   0  -4  -2 27517.7   355.6   2-0.16144 0.16144-0.52893 0.13101 0.83317-0.97815  0 379.02 343.41   52.73 378.98 343.40   52.69
   0  -4  -2 26902.7   347.0   2 0.10959-0.10959 0.13325-0.53133-0.98500 0.84005  0 249.15 166.39  208.71 248.96 166.44  208.64
   0  -4   2 19737.1   295.1   1-0.69812 0.69812-0.43329 0.03592-0.56999 0.71508  0 201.31 282.15   78.01 201.30 282.08   78.24
   0  -4   2 25095.8   342.0   2-0.23386 0.23386 0.12643-0.52417 0.96402-0.81887  0 367.28 351.53   13.34 367.23 351.45   13.41
   0  -4   2 26114.4   343.7   2 0.13342-0.13342-0.53034 0.13236-0.83722 0.98218  0 238.69 173.84  168.98 238.51 173.87  168.86
   0   4  -2 22940.8   326.0   1-0.62340 0.62340-0.05949 0.45686-0.77964 0.63455  0 417.37 228.91   53.01 417.56 229.07   53.14
   0   4  -2 22825.6   328.1   2 0.12923-0.12923-0.13255 0.53053-0.98271 0.83775  0 365.30 352.65  193.08 365.17 352.50  193.34
   0   4  -2 24336.5   333.7   2-0.23904 0.23904 0.52340-0.12550 0.81787-0.96286  0 236.98 175.23  348.82 236.86 175.30  348.71
   0   4   2 25584.1   306.6   1-0.28275 0.28275 0.51972-0.12249-0.80619 0.95134  0 393.15 185.43   14.14 393.37 185.56   13.85
   0   4   2 27210.5   349.0   2-0.21571 0.21571-0.12790 0.52564 0.96804-0.82290  0 227.79 183.77   28.01 227.67 183.84   28.07
   0   4   2 25434.4   345.0   2 0.05435-0.05435 0.53292-0.13485-0.84442 0.98937  0 352.50 358.90  233.22 352.46 358.72  233.32
   0  -4  -3 18358.0   259.7   1-0.50606 0.50606 0.20139-0.59862-0.83866 0.62094  0 217.01 331.34   36.31 217.03 331.16   36.36
   0  -4  -3 20376.6   323.8   2-0.13489 0.13489-0.66154 0.26362 0.73768-0.95515  0 387.65 349.42   61.86 387.96 349.41   62.19
   0  -4  -3 18697.6   303.5   2 0.09493-0.09493 0.26562-0.66369-0.95939 0.74196  0 247.02 157.97  216.43 246.85 158.04  216.41
   0  -4   3 15076.2   275.2   1-0.69543 0.69543-0.52626 0.12889-0.48930 0.70693  0 191.82 272.83   84.99 191.80 272.75   85.29
   0  -4   3 20275.9   325.8   2-0.23872 0.23872 0.25451-0.65225 0.93714-0.71943  0 369.94 361.62    6.00 369.85 361.51    5.87
   0  -4   3 17417.5   295.5   2 0.12596-0.12596-0.66204 0.26406-0.73881 0.95625  0 231.29 169.41  159.38 231.13 169.47  159.42
   0   4  -3 16519.5   294.3   1-0.65189 0.65189-0.14894 0.54631-0.74354 0.52591  0 431.08 239.67   59.08 431.25 239.81   58.90
   0   4  -3 19368.0   318.7   2 0.13423-0.13423-0.26353 0.66151-0.95527 0.73783  0 374.07 359.10  185.61 374.01 358.98  185.63
   0   4  -3 17371.3   295.8   2-0.23162 0.23162 0.65268-0.25479 0.72136-0.93885  0 234.54 166.74  339.45 234.42 166.82  339.43
   0   4   3 19875.6   278.0   1-0.14197 0.14197 0.66176-0.26453-0.73615 0.95387  0 395.64 173.06    1.99 395.92 173.09    1.70
   0   4   3 20500.3   317.8   2-0.20172 0.20172-0.25863 0.65638 0.94468-0.72696  0 220.59 179.80   35.78 220.49 179.85   35.73
   0   4   3 18751.7   314.2   2 0.02688-0.02688 0.66573-0.26766-0.74570 0.96314  0 354.58 368.63  242.96 354.52 368.44  242.95
   0  -4  -4  1106.2    99.4   1-0.44051 0.44051 0.31081-0.70804-0.84223 0.55193  0 212.45 342.37   28.90 212.49 342.30   29.04
   0  -4  -4  1277.8   131.3   1 0.00026-0.00026-0.76979 0.37228 0.63829-0.92812  0 402.58 355.84  169.72 402.75 355.72  169.95
   0  -4  -4  1328.1   153.7   2-0.10882 0.10882-0.76614 0.36823 0.63339-0.92335  0 399.28 358.34   70.71 399.33 358.32   70.81
   0  -4  -4  1356.2   123.6   2 0.08115-0.08115 0.36954-0.76762-0.92566 0.63575  0 243.31 147.20  222.70 243.19 147.30  222.74
   0  -4   4 877.541 105.670   1-0.68380 0.68380-0.60380 0.20643-0.40968 0.69986  0 180.83 263.40   92.06 180.76 263.37   91.68
   0  -4   4  1142.4   123.9   2 0.11505-0.11505-0.76564 0.36766-0.63289 0.92281  0 222.13 163.08  151.15 222.09 163.06  150.89
   0   4  -4  1098.7   124.8   1-0.66898 0.66898-0.21495 0.61232-0.71152 0.42135  0 447.62 250.93   63.34 447.84 251.04   63.21
   0   4  -4 999.564 124.177   2 0.13588-0.13588-0.36606 0.76404-0.92062 0.63070  0 384.79 368.35  179.28 385.09 368.38  179.44
   0   4  -4  1114.4   122.8   2-0.22116 0.22116 0.75474-0.35684 0.61762-0.90761  0 230.49 155.98  331.28 230.41 156.12  331.04
   0   4   4  1389.4   125.4   2-0.18850 0.18850-0.36159 0.75934 0.91308-0.62280  0 211.65 173.79   41.99 211.58 173.87   41.94
   0   4   4  1020.3   121.3   2 0.00020-0.00020 0.76960-0.37154-0.63853 0.92842  0 358.37 381.32  251.66 358.32 381.16  251.66
   0  -4  -5 10992.1   224.4   1-0.38013 0.38013 0.39824-0.79547-0.83481 0.47194  0 205.57 354.40   23.11 205.57 354.21   22.93
   0  -4  -5 11349.6   245.4   1-0.13003 0.13003-0.84160 0.44408 0.52421-0.88650  0 412.26 371.24  158.86 412.33 371.03  159.20
   0  -4  -5 11577.0   296.7   2-0.08439 0.08439-0.84501 0.44709 0.52805-0.89050  0 412.96 370.11   78.42 413.22 370.08   78.48
   0  -4  -5 11202.0   269.9   2 0.06909-0.06909 0.44764-0.84571-0.89154 0.52915  0 238.28 134.27  227.71 238.12 134.39  227.68
   0  -4   5  8668.2   239.9   1-0.66591 0.66591-0.66780 0.27043-0.33257 0.69529  0 168.33 253.83   97.45 168.27 253.75   97.52
   0  -4   5 11294.6   274.3   2 0.10154-0.10154-0.84354 0.44528-0.52738 0.88962  0 211.63 154.85  143.05 211.47 154.90  143.32
   0  -4   5 10908.4   292.3   2-0.24108 0.24108 0.42947-0.82713 0.87031-0.50768  0 380.58 390.64  355.13 380.48 390.58  354.89
   0   4  -5  9083.4   266.1   1-0.67880 0.67880-0.26196 0.65933-0.68601 0.32329  0 467.40 262.99   66.18 467.54 263.09   66.33
   0   4  -5 10406.3   284.6   2 0.13553-0.13553-0.44300 0.84098-0.88622 0.52382  0 398.17 380.70  174.55 398.46 380.63  174.61
   0   4  -5  9520.8   255.2   2-0.20870 0.20870 0.83213-0.43424 0.51381-0.87629  0 225.10 143.23  323.62 224.98 143.38  323.55
   0   4   5 11809.9   276.0   2-0.17697 0.17697-0.43916 0.83691 0.88081-0.51795  0 201.14 166.11   46.85 201.04 166.17   46.79
   0   4   5 10024.3   276.4   2-0.02465 0.02465 0.84715-0.44909-0.53079 0.89315  0 363.73 397.10  259.38 363.64 396.90  259.40
   0  -4  -6  7933.4   210.2   1-0.32978 0.32978 0.46398-0.86121-0.82217 0.38673  0 196.50 367.35   18.02 196.51 367.17   18.14
   0  -4  -6  7894.9   224.9   1-0.24330 0.24330-0.88078 0.48326 0.40625-0.84099  0 425.22 388.71  149.64 425.26 388.54  149.55
   0  -4  -6  8181.6   290.2   2-0.06211 0.06211-0.90250 0.50458 0.42619-0.86113  0 429.57 384.72   85.20 429.81 384.72   85.32
   0  -4  -6  7537.0   248.5   2 0.05950-0.05950 0.50444-0.90252-0.86139 0.42653  0 231.92 119.21  231.40 231.79 119.31  231.40
   0  -4   6  6783.9   234.0   1-0.64314 0.64314-0.72036 0.32290-0.25972 0.69434  0 154.39 243.84  102.93 154.49 243.84  102.85
   0  -4   6  7539.2   250.6   2 0.08775-0.08775-0.90072 0.50245-0.42545 0.86014  0 199.51 145.06  136.57 199.37 145.13  136.58
   0  -4   6  7657.5   285.8   2-0.24002 0.24002 0.48396-0.88162 0.84153-0.40638  0 387.93 409.71  351.34 388.22 409.70  351.34
   0   4  -6  6290.9   260.7   1-0.68444 0.68444-0.29381 0.69118-0.66725 0.23199  0 490.65 276.24   68.37 490.78 276.34   68.47
   0   4  -6  7605.2   283.1   2 0.13438-0.13438-0.49894 0.89692-0.85615 0.42127  0 414.04 395.88  170.85 414.34 395.82  170.97
   0   4  -6  7725.2   254.3   2-0.19533 0.19533 0.88914-0.49124 0.41386-0.84884  0 218.30 128.48  316.81 218.23 128.60  316.90
   0   4   6  8052.3   253.5   2-0.16757 0.16757-0.49515 0.89306 0.85250-0.41756  0 188.98 156.87   50.43 188.92 156.94   50.43
   0   4   6  7291.6   273.2   2-0.04714 0.04714 0.90301-0.50495-0.42703 0.86186  0 370.51 415.95  266.27 370.40 415.76  266.29
   0  -4  -7  1020.0   114.1   1-0.29020 0.29020 0.51117-0.90840-0.80901 0.30099  0 185.54 381.62   14.55 185.51 381.50   14.52
   0  -4  -7  1150.5   150.0   1-0.33748 0.33748-0.89486 0.49740 0.29213-0.79919  0 441.64 409.09  140.94 441.73 408.91  141.03
   0  -4  -7  1009.0   178.4   2-0.04212 0.04212-0.94310 0.54518 0.32983-0.83726  0 449.22 402.65   91.41 449.57 402.66   91.42
   0  -4  -7 941.393 135.909   2 0.05222-0.05222 0.54455-0.94262-0.83710 0.32976  0 224.31 101.76  234.39 224.19 101.97  234.11
   0  -4   7 778.277 122.274   1-0.61715 0.61715-0.76372 0.36627-0.18934 0.69640  0 139.00 233.24  107.67 139.04 233.26  107.81
   0  -4   7  1080.1   140.7   2 0.07386-0.07386-0.94133 0.54307-0.32930 0.83643  0 185.69 133.73  130.52 185.63 133.79  130.54
   0  -4   7  1048.9   180.6   2-0.23910 0.23910 0.52181-0.91971 0.81887-0.31140  0 397.60 432.34  349.15 397.68 432.33  348.82
   0   4  -7 933.770 176.786   2 0.13314-0.13314-0.53841 0.93639-0.83210 0.32474  0 432.97 414.41  167.90 433.11 414.32  168.31
   0   4  -7 874.644 135.496   2-0.18170 0.18170 0.93001-0.53212 0.31947-0.82694  0 210.25 111.68  311.15 210.11 111.65  310.93
   0   4   7  1203.4   147.7   2-0.16032 0.16032-0.53516 0.93308 0.82940-0.32197  0 175.04 146.13   52.83 175.09 146.18   53.11
   0   4   7 877.489 166.248   2-0.06746 0.06746 0.94185-0.54379-0.32920 0.83651  0 378.77 438.26  272.39 378.63 438.14  272.44
   0  -4  -8  6310.2   226.9   1-0.26225 0.26225 0.54302-0.94026-0.79771 0.21712  0 172.62 397.83   12.01 172.65 397.66   12.02
   0  -4  -8  5941.7   268.7   1-0.41542 0.41542-0.89065 0.49320 0.18482-0.76432  0 461.71 433.44  133.38 461.78 433.08  133.43
   0  -4  -8  6835.3   352.5   2-0.02414 0.02414-0.97059 0.57267 0.23951-0.81943  0 473.13 424.49   96.76 473.31 424.49   96.93
   0  -4  -8  6523.3   285.1   2 0.04693-0.04693 0.57175-0.96982-0.81909 0.23927  0 215.35  81.90  236.08 215.25  82.03  236.00
   0  -4   8  5306.4   247.2   1-0.58863 0.58863-0.79913 0.40167-0.12205 0.70155  0 122.02 221.79  112.41 121.82 221.83  112.46
   0  -4   8  6369.3   284.5   2 0.06015-0.06015-0.96908 0.57082-0.23929 0.81887  0 170.18 120.67  125.06 170.06 120.79  125.09
   0  -4   8  6052.5   355.0   2-0.23805 0.23805 0.54760-0.94550 0.80216-0.22220  0 408.76 459.14  347.20 408.99 459.12  347.06
   0   4  -8  6090.9   344.4   2 0.13195-0.13195-0.56513 0.96311-0.81438 0.23454  0 455.23 436.79  166.40 455.52 436.81  166.48
   0   4  -8  5395.7   262.7   2-0.16814 0.16814 0.95832-0.56042 0.23099-0.81096  0 200.78  92.16  305.61 200.60  92.27  305.54
   0   4   8  6374.5   277.8   2-0.15532 0.15532-0.56223 0.96015 0.81226-0.23235  0 159.42 133.79   55.15 159.37 133.86   54.97
   0   4   8  5770.3   344.0   2-0.08556 0.08556 0.96755-0.56949-0.23775 0.81753  0 388.36 464.92  277.73 388.48 464.69  277.99
   0  -4  -9 10407.7   287.1   1-0.24395 0.24395 0.56290-0.96013-0.78971 0.13654  0 157.87 416.32   10.33 157.84 416.24   10.41
   0  -4  -9  9214.3   349.2   1-0.47919 0.47919-0.87354 0.47608 0.08544-0.73737  0 486.16 462.67  126.63 486.33 462.51  126.59
   0  -4  -9 10647.7   457.6   2-0.00822 0.00822-0.98777 0.58951 0.15569-0.80772  0 501.97 451.13  102.19 502.06 451.01  101.94
   0  -4  -9 10091.2   356.4   2 0.04350-0.04350 0.58893-0.98700-0.80701 0.15471  0 204.84  58.70  237.27 204.79  58.99  237.22
   0  -4   9  9024.0   318.4   1-0.55819 0.55819-0.82772 0.43026-0.05750 0.70944  0 102.68 209.16  116.94 102.50 209.23  116.86
   0  -4   9 10135.5   360.3   2 0.04669-0.04669-0.98680 0.58853-0.15510 0.80713  0 152.37 105.78  119.88 152.31 105.88  120.10
   0  -4   9  9701.9   453.7   2-0.23737 0.23737 0.56356-0.96146 0.79124-0.13877  0 422.43 491.29  346.17 422.60 491.25  345.94
   0   4  -9 10462.1   454.8   2 0.13112-0.13112-0.58193 0.97991-0.80260 0.15028  0 482.34 464.39  165.28 482.67 464.40  165.30
   0   4  -9  8559.3   335.2   2-0.15480 0.15480 0.97678-0.57888 0.14812-0.80058  0 189.64  69.89  300.67 189.44  69.97  300.60
   0   4   9 10773.6   358.9   2-0.15204 0.15204-0.57924 0.97716 0.80085-0.14844  0 141.39 119.73   55.96 141.39 119.82   56.16
   0   4   9  9331.9   448.9   2-0.10186 0.10186 0.98306-0.58500-0.15236 0.80461  0 400.05 496.63  283.02 400.25 496.49  283.05
   0  -4 -10  7942.4   296.6   1-0.23423 0.23423 0.57312-0.97036-0.78528 0.05954  0 140.94 438.24    9.62 140.91 438.05    9.57
   0  -4 -10  7010.0   357.9   2 0.04163-0.04163 0.59821-0.99628-0.80026 0.07548  0 192.66  31.95  238.20 192.51  32.02  237.89
   0  -4  10  7126.5   328.8   1-0.52579 0.52579-0.85060 0.45314 0.00451 0.71986  0  80.72 195.02  121.20  80.58 195.05  121.08
   0  -4  10  7888.3   359.5   2 0.03340-0.03340-0.99654 0.59827-0.07612 0.80059  0 131.85  88.66  115.44 131.83  88.74  115.47
   0   4 -10  6672.4   356.5   2-0.14171 0.14171 0.98738-0.58933 0.07065-0.79537  0 176.45  43.86  295.87 176.37  44.05  296.07
   0   4  10  8086.8   356.3   2-0.15029 0.15029-0.58826 0.98618 0.79458-0.06968  0 121.01 103.74   57.01 120.60 103.71   56.79
   0  -4 -11 972.175 187.154   1-0.23208 0.23208 0.57536-0.97260-0.78428-0.01403  0 121.34 464.72    9.44 121.37 464.31    9.38
   0  -4  11 996.767 197.395   1-0.49174 0.49174-0.86836 0.47090 0.06438 0.73242  0  55.03 178.37  125.34  55.29 178.69  125.16
   0  -4  11  1180.1   226.9   2 0.02051-0.02051-0.99979 0.60152-0.00167 0.79859  0 107.74  68.61  110.85 107.79  68.72  111.13
   0   4 -11  1111.1   239.5   2-0.12896 0.12896 0.99165-0.59359-0.00282-0.79437  0 160.76  13.30  291.60 160.67  13.24  291.79
   0   4  11  1073.6   226.4   2-0.14979 0.14979-0.59079 0.98871 0.79280 0.00459  0  96.49  85.11   57.05  96.18  85.03   56.97
   0  -5   0  52.632  55.424   1-0.67606 0.67606-0.24836-0.24836-0.69373 0.69373  0 191.84 313.05   65.48 191.88 313.22   65.42
   0  -5   0  41.848  85.451   2-0.20290 0.20290-0.24859-0.24859 0.94712-0.94712  0 390.23 367.49   35.54 390.12 367.52   35.14
   0  -5   0  28.774  67.390   2 0.13382-0.13382-0.24874-0.24874-0.95928 0.95928  0 232.70 152.03  186.63 232.87 152.44  186.51
   0   5   0  10.292  79.058   1-0.47929 0.47929 0.24827 0.24827-0.84181 0.84181  0 430.90 190.84   33.57 431.12 190.72   33.26
   0   5   0  21.122  65.220   2-0.23856 0.23856 0.24859 0.24859 0.93877-0.93877  0 218.10 164.53    6.45 218.33 164.69    6.23
   0   5   0 -53.051  86.878   2 0.09696-0.09696 0.24880 0.24880-0.96369 0.96369  0 371.08 378.12  214.91 371.09 377.96  215.41
   0  -5  -1 922.181  99.255   1-0.65071 0.65071-0.14479-0.35192-0.74540 0.67285  0 195.48 323.39   58.60 195.55 323.32   58.63
   0  -5  -1 953.986 124.242   2-0.18510 0.18510-0.38581-0.11137 0.90382-0.97639  0 394.12 367.15   43.38 394.41 366.98   43.43
   0  -5  -1  1188.9   121.3   2 0.12808-0.12808-0.11042-0.38705-0.98560 0.91312  0 234.74 149.21  194.59 234.64 149.29  194.62
   0  -5   1 845.242  98.964   1-0.69194 0.69194-0.34618-0.15053-0.63354 0.70608  0 186.10 303.56   72.13 186.20 303.45   72.05
   0  -5   1  1158.8   128.3   2-0.21716 0.21716-0.11235-0.38483 0.96965-0.89708  0 387.88 371.17   27.03 388.09 371.15   27.17
   0  -5   1  1034.7   120.2   2 0.13597-0.13597-0.38690-0.11058-0.91204 0.98452  0 229.58 153.16  178.29 229.30 153.19  178.15
   0   5  -1 960.963 119.213   1-0.54226 0.54226 0.13230 0.36424-0.82973 0.75716  0 439.49 201.92   40.79 439.58 201.97   40.85
   0   5  -1  1090.6   128.7   2 0.11175-0.11175 0.11022 0.38737-0.98760 0.91513  0 375.43 378.16  207.36 375.52 377.95  207.31
   0   5  -1 867.506 107.616   2-0.24138 0.24138 0.38387 0.11320 0.89128-0.96381  0 219.71 161.44  358.13 219.74 161.43  357.77
   0   5   1 852.459 110.090   1-0.39617 0.39617 0.37601 0.12053-0.83766 0.91023  0 425.83 178.94   24.43 425.71 179.06   24.52
   0   5   1  1059.1   121.0   2-0.23309 0.23309 0.11290 0.38428 0.96588-0.89331  0 215.19 165.81   13.95 215.10 165.81   14.18
   0   5   1 896.841 123.981   2 0.07849-0.07849 0.38784 0.10975-0.91838 0.99086  0 368.68 381.04  224.15 368.71 381.06  223.88
   0  -5  -2 18237.1   294.6   1-0.61632 0.61632-0.03982-0.45690-0.78649 0.64140  0 197.04 334.08   52.00 197.06 333.86   51.88
   0  -5  -2 21237.1   364.6   2-0.16395 0.16395-0.51506 0.01766 0.84133-0.98631  0 400.68 369.52   51.80 400.98 369.51   51.75
   0  -5  -2 21816.5   358.3   2 0.11945-0.11945 0.01927-0.51686-0.99265 0.84770  0 234.88 143.64  202.04 234.71 143.73  202.06
   0  -5   2 15723.6   298.7   1-0.69817 0.69817-0.43552-0.06119-0.56822 0.71331  0 178.66 293.97   78.34 178.69 293.89   78.40
   0  -5   2 20405.1   358.9   2-0.22730 0.22730 0.01448-0.51166 0.97372-0.82857  0 387.92 377.94   20.09 388.21 377.87   19.86
   0  -5   2 21327.2   354.0   2 0.13390-0.13390-0.51633 0.01886-0.84585 0.99081  0 224.14 151.59  169.83 224.00 151.67  169.80
   0   5  -2 17261.6   323.5   1-0.58774 0.58774 0.03318 0.46336-0.80837 0.66322  0 450.91 212.87   47.02 451.03 213.08   47.22
   0   5  -2 20931.9   362.8   2 0.12222-0.12222-0.01917 0.51676-0.99232 0.84736  0 382.12 381.17  200.05 382.10 381.05  199.85
   0   5  -2 19217.4   338.0   2-0.23924 0.23924 0.51068-0.01361 0.82581-0.97086  0 219.48 155.59  349.62 219.44 155.73  349.56
   0   5   2 19186.6   313.0   1-0.29431 0.29431 0.50641-0.00987-0.81051 0.95566  0 423.37 166.45   15.16 423.50 166.63   14.89
   0   5   2 19724.9   339.2   2-0.22515 0.22515-0.01463 0.51181 0.97422-0.82907  0 210.17 164.67   21.51 210.06 164.73   21.53
   0   5   2 20039.7   355.4   2 0.05699-0.05699 0.51846-0.02087-0.85320 0.99816  0 368.37 387.49  232.28 368.32 387.31  232.33
   0  -5  -3  6415.8   185.9   1-0.57550 0.57550 0.06157-0.55811-0.81548 0.59776  0 196.32 345.19   45.37 196.40 345.01   45.40
   0  -5  -3  7070.5   252.6   2-0.14173 0.14173-0.63005 0.13266 0.76351-0.98098  0 409.72 375.09   60.00 409.96 375.06   59.83
   0  -5  -3  7291.3   230.1   2 0.10951-0.10951 0.13407-0.63166-0.98490 0.76747  0 233.34 135.74  208.75 233.17 135.83  208.69
   0  -5   3  5558.4   202.1   1-0.69636 0.69636-0.51503 0.01831-0.49982 0.71745  0 169.44 284.46   84.35 169.48 284.37   84.40
   0  -5   3  6537.6   244.7   2-0.23383 0.23383 0.12591-0.62309 0.96409-0.74637  0 390.09 387.78   13.40 390.30 387.64   13.44
   0  -5   3  6932.8   226.3   2 0.12826-0.12826-0.63076 0.13329-0.76530 0.98274  0 217.18 147.94  162.15 217.00 148.01  161.77
   0   5  -3  5752.9   229.3   1-0.61909 0.61909-0.04742 0.54414-0.78389 0.56626  0 465.51 224.08   51.93 465.60 224.28   52.37
   0   5  -3  7385.9   256.4   2 0.12927-0.12927-0.13323 0.63071-0.98262 0.76518  0 390.62 387.31  192.91 390.87 387.19  193.30
   0   5  -3  6465.0   221.7   2-0.23383 0.23383 0.62274-0.12537 0.74667-0.96416  0 217.54 147.64  341.76 217.40 147.73  341.68
   0   5   3  6679.5   215.3   1-0.17890 0.17890 0.62807-0.13153-0.75731 0.97504  0 424.37 152.96    5.06 424.52 153.07    4.81
   0   5   3  7108.9   227.7   2-0.21574 0.21574-0.12766 0.62484 0.96807-0.75036  0 203.35 161.51   28.00 203.26 161.55   28.06
   0   5   3  6260.3   242.1   2 0.03407-0.03407 0.63392-0.13633-0.77264 0.99008  0 369.78 396.90  240.51 369.74 396.66  240.53
   0  -5  -4 23342.6   334.5   1-0.53141 0.53141 0.15389-0.65042-0.83302 0.54272  0 193.31 357.14   39.44 193.37 356.93   39.46
   0  -5  -4 24972.7   421.4   2-0.11917 0.11917-0.72726 0.22986 0.67594-0.96590  0 421.22 383.59   67.39 421.53 383.62   67.44
   0  -5  -4 26531.0   417.7   2 0.09912-0.09912 0.23071-0.72830-0.96796 0.67805  0 230.26 125.48  214.34 230.09 125.60  214.34
   0  -5   4 21383.5   378.9   1-0.68762 0.68762-0.58464 0.08793-0.43056 0.72073  0 158.66 274.94   90.01 158.68 274.83   90.05
   0  -5   4 25127.4   427.4   2-0.23761 0.23761 0.21918-0.71636 0.94631-0.65602  0 394.12 400.64    8.14 394.32 400.52    7.97
   0  -5   4 24830.5   407.2   2 0.11973-0.11973-0.72715 0.22968-0.67595 0.96587  0 208.48 142.28  153.85 208.35 142.36  154.21
   0   5  -4 20110.2   383.6   1-0.64050 0.64050-0.11082 0.60753-0.75992 0.46974  0 483.26 235.69   56.33 483.36 235.88   56.43
   0   5  -4 24978.9   423.9   2 0.13341-0.13341-0.22876 0.72623-0.96430 0.67438  0 401.68 396.49  187.70 401.96 396.36  187.70
   0   5  -4 23342.1   398.2   2-0.22556 0.22556 0.71747-0.22010 0.65906-0.94904  0 213.96 137.46  334.20 213.87 137.58  334.25
   0   5   4 26517.7   417.1   2-0.20586 0.20586-0.22299 0.72017 0.95284-0.66255  0 194.82 156.39   33.60 194.73 156.45   33.63
   0   5   4 24965.0   421.0   2 0.01092-0.01092 0.73086-0.23327-0.68244 0.97235  0 372.97 409.35  248.17 372.92 409.20  248.24
   0  -5  -5 10223.4   241.9   1-0.48770 0.48770 0.23382-0.73036-0.84112 0.47825  0 188.07 370.05   34.08 188.12 369.83   34.22
   0  -5  -5 11232.9   281.5   1-0.06241 0.06241-0.80784 0.31094 0.58609-0.94838  0 437.68 394.14  165.00 437.71 393.96  164.80
   0  -5  -5 10182.2   317.6   2-0.09706 0.09706-0.80612 0.30872 0.58374-0.94619  0 435.52 395.20   74.46 435.83 395.25   74.52
   0  -5  -5 11057.2   299.3   2 0.08953-0.08953 0.30885-0.80644-0.94689 0.58450  0 225.73 112.96  218.90 225.58 113.05  219.02
   0  -5   5  8397.9   263.2   1-0.67329 0.67329-0.64489 0.14818-0.36166 0.72438  0 146.30 265.19   95.21 146.30 265.08   95.35
   0  -5   5 10136.9   320.1   2-0.23957 0.23957 0.29425-0.79143 0.92522-0.56236  0 400.02 416.78    3.48 400.21 416.65    3.49
   0  -5   5 10959.8   304.0   2 0.10877-0.10877-0.80504 0.30721-0.58317 0.94541  0 198.18 134.75  147.26 198.02 134.85  147.23
   0   5  -5  8355.1   298.4   1-0.65465 0.65465-0.15889 0.65560-0.73905 0.37633  2 504.48 248.08   59.49 504.75 248.25   59.54
   0   5  -5 10533.8   331.0   2 0.13512-0.13512-0.30582 0.80329-0.94245 0.58005  0 415.21 408.72  183.20 415.53 408.66  183.10
   0   5  -5  9402.8   282.6   2-0.21537 0.21537 0.79454-0.29717 0.56774-0.93022  0 208.95 125.13  327.39 208.84 125.28  327.35
   0   5   5 12122.9   312.1   2-0.19666 0.19666-0.30021 0.79739 0.93338-0.57052  0 184.55 149.51   38.01 184.48 149.55   38.21
   0   5   5  9572.7   313.0   2-0.01169 0.01169 0.80886-0.31129-0.58788 0.95024  0 377.80 425.14  255.39 377.68 424.90  255.39
   0  -5  -6  93.070  83.372   1-0.44769 0.44769 0.29963-0.79617-0.84249 0.40705  0 180.74 384.23   29.82 180.70 384.06   29.81
   0  -5  -6 111.478 120.618   1-0.17377 0.17377-0.85938 0.36248 0.48090-0.91565  0 449.22 413.31  155.57 449.05 413.56  155.53
   0  -5  -6  21.444 153.259   2-0.07603 0.07603-0.86798 0.37058 0.49075-0.92568  0 453.32 410.15   81.36 453.28 410.23   81.05
   0  -5  -6 157.480 107.850   2 0.08109-0.08109 0.37000-0.86759-0.92549 0.49062  0 219.61  98.32  223.17 219.67  98.10  222.77
   0  -5   6 125.485  93.295   1-0.65439 0.65439-0.69635 0.19953-0.29474 0.72936  0 132.08 254.98  100.55 132.41 255.04  100.34
   0  -5   6  48.059 103.173   2 0.09660-0.09660-0.86643 0.36860-0.48987 0.92456  0 186.33 125.76  139.90 186.03 125.53  140.79
   0   5  -6  47.199 158.037   2 0.13588-0.13588-0.36599 0.86346-0.92065 0.48577  0 431.87 424.41  179.63 431.93 424.36  179.45
   0   5  -6  37.636  95.829   2-0.20377 0.20377 0.85538-0.35801 0.47624-0.91121  0 202.52 110.89  319.89 202.34 110.73  321.00
   0   5   6  49.027 102.842   2-0.18862 0.18862-0.36070 0.85788 0.91341-0.47798  0 172.44 141.04   42.11 172.44 140.94   41.88
   0   5   6  88.888 152.800   2-0.03306 0.03306 0.86949-0.37192-0.49284 0.92768  0 384.08 444.13  262.17 384.10 444.24  261.97
   0  -5  -7  8487.6   251.5   1-0.41337 0.41337 0.35133-0.84787-0.84006 0.33204  0 171.16 400.04   26.26 171.22 399.91   26.25
   0  -5  -7  8718.2   306.1   1-0.27266 0.27266-0.88715 0.39033 0.37232-0.87938  0 464.11 436.71  147.00 464.08 436.46  146.96
   0  -5  -7  8953.4   395.7   2-0.05649 0.05649-0.91502 0.41762 0.39944-0.90686  0 474.32 428.94   87.17 474.46 428.98   87.04
   0  -5  -7  8453.8   309.9   2 0.07407-0.07407 0.41646-0.91405-0.90613 0.39879  0 212.47  80.47  225.73 212.31  80.53  225.69
   0  -5   7  7389.3   278.4   1-0.63204 0.63204-0.74046 0.24363-0.22858 0.73564  0 116.76 244.41  105.04 116.63 244.42  105.07
   0  -5   7  8703.7   319.2   2 0.08407-0.08407-0.91327 0.41543-0.39859 0.90573  0 172.32 114.33  134.81 172.20 114.41  134.87
   0  -5   7  7324.2   368.5   2-0.24131 0.24131 0.39675-0.89382 0.88564-0.37796  0 417.67 459.97  357.15 417.78 460.05  356.96
   0   5  -7  8287.9   378.8   2 0.13590-0.13590-0.41162 0.90909-0.90117 0.39381  0 451.41 443.99  176.53 451.70 443.98  176.60
   0   5  -7  7858.5   307.2   2-0.19151 0.19151 0.90211-0.40474 0.38668-0.89415  0 194.39  93.58  315.26 194.30  93.76  315.15
   0   5   7  8777.4   312.7   2-0.18199 0.18199-0.40664 0.90382 0.89528-0.38728  0 158.53 130.58   44.72 158.47 130.62   44.73
   0   5   7  7433.6   367.5   2-0.05296 0.05296 0.91506-0.41748-0.39983 0.90714  0 392.01 467.78  267.87 392.18 467.63  268.02
   0  -5  -8  3626.5   214.9   1-0.38632 0.38632 0.38977-0.88631-0.83596 0.25537  0 159.64 418.21   23.63 159.64 417.99   23.54
   0  -5  -8  3956.7   305.3   1-0.35818 0.35818-0.89530 0.39848 0.26485-0.84435  0 483.17 464.40  138.98 483.36 464.19  139.07
   0  -5  -8  3685.0   377.7   2-0.03833 0.03833-0.94958 0.45218 0.31119-0.89110  0 500.37 452.53   92.54 500.43 452.44   92.57
   0  -5  -8  3880.6   274.2   2 0.06861-0.06861 0.45058-0.94817-0.89010 0.31028  0 203.51  59.94  227.69 203.40  59.97  227.87
   0  -5   8  3647.1   237.1   1-0.60685 0.60685-0.77770 0.28088-0.16403 0.74353  0  98.90 232.92  109.57  98.78 232.94  109.57
   0  -5   8  3863.7   268.4   2 0.07116-0.07116-0.94788 0.45005-0.31058 0.89016  0 156.44 101.17  129.36 156.27 101.32  129.40
   0  -5   8  3596.4   399.5   2-0.24109 0.24109 0.42898-0.92606 0.87055-0.29034  0 429.65 488.74  355.16 429.87 488.79  354.92
   0   5  -8  3611.7   385.0   2 0.13555-0.13555-0.44507 0.94255-0.88518 0.30534  0 475.54 468.23  174.41 475.73 468.36  174.47
   0   5  -8  3355.2   264.1   2-0.17882 0.17882 0.93695-0.43958 0.30026-0.88022  0 184.71  73.87  310.17 184.59  73.99  309.75
   0   5   8  3798.0   265.8   2-0.17679 0.17679-0.44033 0.93752 0.88026-0.29968  0 142.54 118.71   47.08 142.31 118.49   46.87
   0   5   8  3347.2   364.2   2-0.07129 0.07129 0.94800-0.45043-0.31018 0.88996  0 402.16 496.10  273.62 402.18 495.95  273.60
   0  -5  -9 997.276 154.966   1-0.36658 0.36658 0.41651-0.91305-0.83195 0.17878  0 145.98 439.32   21.53 145.92 438.95   21.62
   0  -5  -9  1136.1   200.3   2 0.06465-0.06465 0.47449-0.97208-0.87789 0.22559  0 192.90  35.73  229.46 192.73  35.77  229.43
   0  -5   9 978.581 173.580   1-0.57906 0.57906-0.80898 0.31216-0.10123 0.75316  0  78.84 220.33  114.11  78.46 220.30  113.89
   0  -5   9 904.474 198.407   2 0.05809-0.05809-0.97232 0.47449-0.22631 0.87834  0 137.31  85.57  123.88 137.81  85.96  124.31
   0   5  -9  1073.9   201.8   2-0.16595 0.16595 0.96187-0.46450 0.21742-0.86989  0 173.18  50.96  304.62 172.93  50.81  304.72
   0   5   9  1001.1   188.8   2-0.17303 0.17303-0.46382 0.96100 0.86887-0.21572  0 123.79 104.27   47.79 123.53 104.35   48.37
   0  -5 -10  8049.2   323.8   1-0.35418 0.35418 0.43293-0.92947-0.82893 0.10319  0 129.68 464.18   20.40 129.74 463.92   20.43
   0  -5 -10  8763.9   441.0   2 0.06197-0.06197 0.48993-0.98752-0.86956 0.14478  2 180.13   7.13  230.48 179.91   6.95  230.44
   0  -5  10  7675.2   363.3   1-0.54928 0.54928-0.83468 0.33786-0.03992 0.76429  0  55.19 206.01  118.17  55.02 206.05  118.06
   0  -5  10  8720.8   407.7   2 0.04517-0.04517-0.98828 0.49045-0.14582 0.87030  0 116.56  67.80  119.52 116.23  67.94  119.55
   0   5 -10  7528.9   413.3   2-0.15310 0.15310 0.97850-0.48113 0.13822-0.86318  0 158.98  23.40  299.86 158.91  23.40  300.01
   0   5  10  8356.4   395.4   2-0.17059 0.17059-0.47880 0.97598 0.86119-0.13547  0 101.74  87.85   49.37 101.46  87.80   49.35
   0  -5 -11  1133.8   201.9   1-0.34845 0.34845 0.44033-0.93687-0.82746 0.02914  0 110.73 494.74   20.49 110.63 494.48   19.89
   0  -5  11  1359.2   227.1   1-0.51727 0.51727-0.85559 0.35877 0.01981 0.77699  0  27.48 189.29  122.34  27.61 189.56  122.12
   0  -5  11  1321.9   271.9   2 0.03218-0.03218-0.99710 0.49927-0.06892 0.86585  0  90.57  46.50  115.40  90.48  46.50  115.05
   0   5  11  1242.7   263.2   2-0.16906 0.16906-0.48639 0.98379 0.85723-0.05985  0  75.64  68.59   50.21  75.28  68.33   49.85
   0  -6   0 43497.0   507.6   1-0.68512 0.68512-0.29803-0.29803-0.66467 0.66467  0 167.16 327.31   68.98 167.20 327.14   68.75
   0  -6   0 55564.8   620.2   2-0.19690 0.19690-0.29831-0.29831 0.93394-0.93394  0 415.36 399.04   38.02 415.66 399.00   38.10
   0  -6   0 54240.8   602.1   2 0.13499-0.13499-0.29848-0.29848-0.94482 0.94482  0 216.54 126.90  183.57 216.41 126.99  183.54
   0   6   0 49465.9   557.5   1-0.44877 0.44877 0.29792 0.29792-0.84252 0.84252  0 469.09 169.40   30.02 469.20 169.59   29.92
   0   6   0 54999.8   604.7   2-0.23964 0.23964 0.29831 0.29831 0.92390-0.92390  0 198.47 142.73    3.01 198.40 142.83    3.25
   0   6   0 52472.4   604.6   2 0.09081-0.09081 0.29855 0.29855-0.95006 0.95006  0 390.14 412.06  218.34 390.42 411.93  218.40
   0  -6  -1  1465.7   132.6   1-0.66920 0.66920-0.21591-0.38015-0.71103 0.63848  0 171.09 338.00   63.11 171.16 337.77   63.27
   0  -6  -1  1982.3   220.1   2-0.18128 0.18128-0.41138-0.18524 0.89326-0.96583  0 420.15 398.49   45.32 420.28 398.35   45.03
   0  -6  -1  1880.8   168.6   2 0.13170-0.13170-0.18463-0.41233-0.97394 0.90146  0 218.43 123.70  189.91 218.34 123.75  190.29
   0  -6   1  1660.0   147.1   1-0.69494 0.69494-0.37697-0.21909-0.61233 0.68487  0 161.36 317.05   74.09 161.43 316.93   74.20
   0  -6   1  1918.3   222.3   2-0.20997 0.20997-0.18597-0.41065 0.95986-0.88729  0 413.17 402.77   31.41 413.28 402.72   31.44
   0  -6   1  1630.8   165.0   2 0.13589-0.13589-0.41226-0.18471-0.90087 0.97335  0 212.90 128.05  176.57 212.81 127.98  176.56
   0   6  -1  1635.1   196.4   1-0.50671 0.50671 0.20021 0.39564-0.83855 0.76597  0 478.59 181.57   36.19 478.73 181.73   36.43
   0   6  -1  1595.4   175.7   2 0.10431-0.10431 0.18433 0.41278-0.97731 0.90484  0 395.09 412.10  211.64 395.17 411.91  211.62
   0   6  -1  1838.1   168.3   2-0.24124 0.24124 0.40962 0.18686 0.87978-0.95230  0 199.98 139.45  356.30 199.92 139.53  356.15
   0   6   1  1593.4   183.7   1-0.37596 0.37596 0.40392 0.19193-0.83397 0.90654  0 462.81 156.66   22.46 462.78 156.87   22.53
   0   6   1  2021.6   172.1   2-0.23646 0.23646 0.18674 0.40988 0.95353-0.88096  0 195.21 144.12    9.70 195.18 144.22    9.89
   0   6   1  1785.8   218.9   2 0.07458-0.07458 0.41312 0.18399-0.90762 0.98009  0 387.44 415.16  225.43 387.66 415.04  225.47
   0  -6  -2 658.844 107.650   1-0.64726 0.64726-0.13299-0.46307-0.75058 0.60549  0 173.04 349.15   57.82 173.19 349.01   57.86
   0  -6  -2 587.840 148.467   2-0.16312 0.16312-0.51974-0.07714 0.83861-0.98359  0 426.96 400.66   51.84 427.26 400.80   52.07
   0  -6  -2 657.857 119.281   2 0.12609-0.12609-0.07590-0.52107-0.98911 0.84415  0 218.65 118.19  196.56 218.69 118.26  196.61
   0  -6   2 462.687 103.815   1-0.69829 0.69829-0.45099-0.14506-0.55587 0.70096  0 154.10 307.03   79.51 153.89 307.00   79.53
   0  -6   2 796.817 157.342   2-0.22014 0.22014-0.07944-0.51717 0.97223-0.82708  0 412.76 409.22   24.87 413.09 409.56   25.26
   0  -6   2 580.480 117.100   2 0.13376-0.13376-0.52082-0.07615-0.84312 0.98808  0 207.76 126.81  169.54 207.56 126.82  169.50
   0   6  -2 546.684 153.705   1-0.55117 0.55117 0.11426 0.48159-0.82653 0.68139  0 491.37 193.51   42.00 491.45 193.60   42.02
   0   6  -2 645.423 147.413   2 0.11485-0.11485 0.07569 0.52141-0.99050 0.84554  0 401.95 415.10  205.33 402.08 415.02  205.31
   0   6  -2 688.984 123.326   2-0.23930 0.23930 0.51586 0.08098 0.82257-0.96756  0 199.89 133.77  349.39 199.73 133.84  349.22
   0   6   2 502.825 127.651   1-0.28899 0.28899 0.51257 0.08328-0.80855 0.95370  0 459.53 143.00   14.42 459.50 143.17   14.41
   0   6   2 655.725 116.671   2-0.23129 0.23129 0.08009 0.51653 0.96958-0.82444  0 190.38 143.60   16.40 190.21 143.53   16.08
   0   6   2 857.743 161.902   2 0.05623-0.05623 0.52266 0.07445-0.85068 0.99564  0 386.58 421.23  232.58 386.87 421.34  232.62
   0  -6  -3 586.458 101.363   1-0.62079 0.62079-0.05215-0.54391-0.78224 0.56461  0 173.38 361.06   52.62 173.22 360.99   52.66
   0  -6  -3 943.936 166.910   2-0.14402 0.14402-0.61928 0.02240 0.77185-0.98932  0 436.59 406.20   58.85 436.80 406.38   59.03
   0  -6  -3 810.648 134.532   2 0.11914-0.11914 0.02331-0.62042-0.99260 0.77517  0 217.56 110.47  201.90 217.43 110.37  202.30
   0  -6   3 611.999 114.397   1-0.69606 0.69606-0.51893-0.07713-0.49620 0.71383  0 144.68 297.27   85.09 144.66 297.18   84.71
   0  -6   3 595.314 159.137   2-0.22749 0.22749 0.01726-0.61388 0.97363-0.75591  0 414.85 419.77   19.77 414.98 419.60   19.70
   0  -6   3 568.806 120.256   2 0.12890-0.12890-0.61999 0.02302-0.77395 0.99139  0 200.59 123.55  162.60 200.65 123.58  162.56
   0   6  -3 632.497 161.677   2 0.12250-0.12250-0.02316 0.62027-0.99220 0.77477  0 410.98 421.44  199.56 411.22 421.30  199.62
   0   6  -3 702.819 129.893   2-0.23448 0.23448 0.61298-0.01614 0.75450-0.97199  0 198.01 126.02  342.44 197.98 126.02  342.40
   0   6   3 607.259 142.438   1-0.19073 0.19073 0.61676-0.02091-0.76370 0.98142  0 459.36 127.96    5.68 459.40 128.08    5.83
   0   6   3 715.208 125.661   2-0.22493 0.22493-0.01747 0.61409 0.97422-0.75650  0 183.47 141.06   21.66 183.49 140.88   21.69
   0   6   3 671.974 160.395   2 0.03649-0.03649 0.62275-0.02564-0.78157 0.99901  0 387.69 430.94  239.56 387.86 430.85  239.70
   0  -6  -4-111.635  75.926   1-0.59158 0.59158 0.02399-0.61984-0.80589 0.51559  0 171.21 374.17   48.30 171.27 373.96   47.80
   0  -6  -4  27.345 149.597   2-0.12423 0.12423-0.70706 0.11018 0.69616-0.98612  0 449.34 415.47   64.88 449.13 415.19   65.78
   0  -6  -4 -26.836 104.237   2 0.11172-0.11172 0.11056-0.70766-0.98757 0.69766  0 214.66 100.46  206.90 214.69 100.17  207.33
   0  -6   4 -36.900  91.876   1-0.68836 0.68836-0.58044-0.01562-0.43502 0.72520  0 133.67 287.64   89.59 133.75 287.39   89.69
   0  -6   4  -2.561 148.181   2-0.23250 0.23250 0.10170-0.69832 0.96727-0.67698  0 418.76 433.01   15.02 418.89 432.97   14.83
   0  -6   4 -77.491  93.411   2 0.12190-0.12190-0.70714 0.11017-0.69649 0.98641  0 192.33 118.52  154.89 192.05 118.31  155.87
   0   6  -4 -31.996 157.605   2 0.12805-0.12805-0.10981 0.70678-0.98567 0.69575  0 422.71 430.74  194.45 422.84 430.90  194.66
   0   6  -4  74.268 107.242   2-0.22752 0.22752 0.69851-0.10167 0.67847-0.96845  0 194.64 116.29  335.46 194.66 115.98  335.82
   0   6   4  23.976  96.360   2-0.21798 0.21798-0.10326 0.69988 0.97047-0.68019  0 174.90 136.22   26.32 175.01 136.31   26.64
   0   6   4  17.959 153.487   2 0.01609-0.01609 0.71050-0.11340-0.70351 0.99342  0 390.54 443.49  246.41 390.66 443.77  246.53
   0  -6  -5 546.871 106.820   1-0.56161 0.56161 0.09232-0.68817-0.82224 0.45937  0 167.02 388.32   43.36 167.17 388.17   43.43
   0  -6  -5 540.965 167.297   1-0.02301 0.02301-0.78462 0.18835 0.61955-0.98183  0 470.51 423.16  168.33 470.62 423.16  168.04
   0  -6  -5 500.622 183.912   2-0.10432 0.10432-0.78179 0.18491 0.61476-0.97720  0 464.32 427.33   71.88 464.60 427.44   72.23
   0  -6  -5 737.795 142.340   2 0.10429-0.10429 0.18459-0.78170-0.97727 0.61488  0 210.62  87.20  211.52 210.45  87.49  211.63
   0  -6   5 367.958 118.465   1-0.67603 0.67603-0.63544 0.03938-0.37310 0.73582  0 121.39 277.70   94.45 121.11 277.44   94.49
   0  -6   5 504.696 191.602   2-0.23591 0.23591 0.17294-0.76956 0.95626-0.59341  0 424.77 449.78   10.65 424.92 449.99   10.70
   0  -6   5 661.647 142.961   2 0.11235-0.11235-0.78102 0.18362-0.61432 0.97656  0 181.89 110.93  149.49 181.65 111.08  149.49
   0   6  -5 485.149 193.312   2 0.13163-0.13163-0.18296 0.77993-0.97427 0.61187  0 437.23 444.05  190.44 437.23 444.01  190.39
   0   6  -5 499.007 132.815   2-0.21884 0.21884 0.77140-0.17456 0.59754-0.96002  0 190.06 103.66  329.58 189.73 103.66  329.54
   0   6   5 585.178 134.114   2-0.21099 0.21099-0.17612 0.77274 0.96149-0.59863  0 164.90 129.76   30.95 164.68 129.88   30.87
   0   6   5 690.310 186.570   2-0.00423 0.00423 0.78469-0.18760-0.61987 0.98224  0 395.36 460.47  253.42 395.24 460.27  253.06
   0  -6  -6  2486.5   186.3   1-0.53253 0.53253 0.15153-0.74738-0.83274 0.39729  0 160.86 404.26   39.63 160.96 404.00   39.61
   0  -6  -6  2284.2   272.9   1-0.12761 0.12761-0.84052 0.24424 0.52654-0.96128  0 481.08 446.26  159.31 481.00 445.72  159.40
   0  -6  -6  2808.8   286.7   2-0.08493 0.08493-0.84344 0.24657 0.53046-0.96540  0 483.52 443.33   78.38 483.81 443.61   78.32
   0  -6  -6  2738.2   242.0   2 0.09735-0.09735 0.24552-0.84263-0.96449 0.52963  0 204.82  71.84  215.17 204.66  72.12  215.22
   0  -6   6  2150.9   197.1   1-0.65976 0.65976-0.68408 0.08803-0.31104 0.74630  0 106.80 267.29   99.13 106.60 267.16   99.10
   0  -6   6  2402.8   266.2   2-0.23807 0.23807 0.23126-0.82787 0.94332-0.50789  0 433.03 470.93    7.29 433.18 471.13    7.25
   0  -6   6  2816.4   239.4   2 0.10182-0.10182-0.84215 0.24476-0.52954 0.96422  0 169.57 101.77  143.47 169.41 101.85  143.46
   0   6  -6  2588.6   271.2   2 0.13366-0.13366-0.24302 0.83999-0.96077 0.52589  0 454.96 461.37  186.64 454.89 461.10  186.85
   0   6  -6  2267.3   232.6   2-0.20877 0.20877 0.83178-0.23494 0.51435-0.94933  0 183.35  88.93  323.68 183.18  88.89  323.59
   0   6   6  2675.5   234.0   2-0.20438 0.20438-0.23612 0.83274 0.94999-0.51456  0 152.45 121.64   34.27 152.36 121.60   34.40
   0   6   6  2313.1   256.6   2-0.02404 0.02404 0.84543-0.24835-0.53354 0.96837  0 401.39 480.88  259.23 401.62 480.94  259.21
   0  -6  -7  1218.7   149.8   1-0.50656 0.50656 0.20048-0.79632-0.83857 0.33056  0 152.62 421.71   36.39 152.60 421.93   36.42
   0  -6  -7  1222.4   229.9   1-0.22562 0.22562-0.87617 0.27989 0.42594-0.93314  0 495.31 472.75  151.01 495.32 472.59  151.09
   0  -6  -7  1356.8   194.6   2 0.09136-0.09136 0.29424-0.89135-0.95135 0.44401  0 197.23  53.73  218.28 197.28  53.76  218.14
   0  -6   7  1133.4   168.6   1-0.63989 0.63989-0.72657 0.13039-0.25027 0.75733  0  90.31 256.49  103.47  90.21 256.42  103.53
   0  -6   7  1344.6   278.0   2-0.23937 0.23937 0.27762-0.87424 0.93039-0.42239  0 443.94 497.29    4.43 443.92 497.20    4.49
   0  -6   7  1345.1   200.2   2 0.09047-0.09047-0.89123 0.29384-0.44443 0.95156  0 155.34  90.55  138.00 155.13  90.56  137.80
   0   6  -7  1226.0   271.8   2 0.13485-0.13485-0.29093 0.88790-0.94719 0.43983  0 476.56 482.98  184.18 476.57 482.97  183.99
   0   6  -7  1062.6   180.4   2-0.19767 0.19767 0.88050-0.28366 0.43086-0.93833  0 174.64  71.47  317.87 174.88  71.34  318.00
   0   6   7  1512.1   201.7   2-0.19868 0.19868-0.28408 0.88070 0.93799-0.42999  0 138.03 111.52   37.40 137.87 111.42   37.24
   0  -6  -8 15331.9   362.6   1-0.48464 0.48464 0.23908-0.83492-0.84141 0.26081  0 141.86 442.93   34.21 142.04 442.64   33.87
   0  -6  -8 15372.3   455.4   2 0.08644-0.08644 0.33203-0.92914-0.93930 0.35948  0 188.23  31.73  220.46 188.10  31.86  220.43
   0  -6   8 13745.1   408.6   1-0.61714 0.61714-0.76374 0.16755-0.18931 0.76881  0  71.36 244.78  107.96  71.23 244.81  107.81
   0  -6   8 16464.9   470.3   2 0.07848-0.07848-0.92949 0.33210-0.36039 0.93998  0 138.52  76.91  132.46 138.39  76.95  132.47
   0   6  -8 14623.2   459.8   2-0.18602 0.18602 0.91872-0.32187 0.34836-0.92833  0 164.77  50.57  313.18 164.58  50.60  312.73
   0   6   8 17019.0   465.4   2-0.19396 0.19396-0.32121 0.91783 0.92693-0.34636  0 121.22  99.14   39.45 120.81  99.14   39.48
   0  -6  -9  29.997 150.646   1-0.46773 0.46773 0.26753-0.86337-0.84241 0.18925  0 129.13 467.26   31.91 129.08 467.07   31.97
   0  -6   9  26.109 150.713   1-0.59179 0.59179-0.79569 0.19950-0.12908 0.78101  0  48.94 231.95  111.56  49.28 231.99  111.98
   0  -6   9 156.435 200.809   2 0.06624-0.06624-0.95822 0.36083-0.27825 0.93028  0 118.78  60.64  126.86 118.68  60.64  127.43
   0   6  -9 193.338 201.919   2-0.17382 0.17382 0.94770-0.35085 0.26769-0.92016  0 152.19  26.25  307.57 151.97  25.85  307.76
   0   6   9  -1.739 184.809   2-0.19026 0.19026-0.34880 0.94542 0.91768-0.26454  0 100.18  84.22   41.46 100.64  84.48   41.15
   0  -6 -10  5766.3   330.8   1-0.45603 0.45603 0.28641-0.88226-0.84262 0.11688  0 113.51 496.58   30.69 113.34 496.67   30.70
   0  -6  10  4783.3   352.6   1-0.56412 0.56412-0.82275 0.22656-0.06963 0.79400  0  23.62 217.52  116.00  23.56 217.53  116.04
   0  -6  10  5736.6   420.5   2 0.05366-0.05366-0.97864 0.38125-0.19844 0.92291  0  95.99  41.25  122.63  95.15  40.97  122.65
   0  -7   0  52.173  91.625   1-0.69212 0.69212-0.34770-0.34770-0.63252 0.63252  0 139.53 343.64   72.45 139.84 343.38   72.16
   0  -7   0  41.947 161.900   2-0.19037 0.19037-0.34803-0.34803 0.91795-0.91795  0 447.07 437.68   41.52 446.89 437.64   41.10
   0  -7   0  88.535 113.832   2 0.13567-0.13567-0.34823-0.34823-0.92754 0.92754  0 197.47  97.88  180.55 197.58  98.01  180.53
   0   7   0 -43.880 175.154   2 0.08424-0.08424 0.34831 0.34831-0.93359 0.93359  0 413.74 453.54  220.89 413.60 453.32  221.43
   0  -7  -1  1443.0   160.7   1-0.68228 0.68228-0.28108-0.41432-0.67490 0.60236  0 144.10 355.01   67.66 144.10 354.77   67.61
   0  -7  -1  2251.5   233.7   2-0.17630 0.17630-0.44343-0.25262 0.87880-0.95137  0 451.83 436.91   46.83 452.05 436.97   47.06
   0  -7  -1  2066.4   210.9   2 0.13393-0.13393-0.25227-0.44419-0.95834 0.88586  0 199.78  94.62  185.89 199.69  94.58  186.30
   0  -7   1  1866.8   176.4   1-0.69738 0.69738-0.41261-0.28278-0.58601 0.65855  0 133.74 332.65   76.66 133.81 332.52   76.74
   0  -7   1  2048.9   235.2   2-0.20237 0.20237-0.25318-0.44288 0.94602-0.87345  0 444.06 441.65   35.23 444.14 441.59   35.41
   0  -7   1  1875.4   207.8   2 0.13552-0.13552-0.44417-0.25229-0.88563 0.95811  0 193.99  99.26  174.56 193.87  99.24  174.54
   0   7  -1  1866.2   229.5   2 0.09659-0.09659 0.25190 0.44473-0.96292 0.89044  0 418.66 453.36  215.60 418.87 453.40  215.60
   0   7  -1  2262.5   219.1   2-0.24093 0.24093 0.44179 0.25411 0.86416-0.93669  0 177.17 114.62  354.21 177.26 114.83  354.10
   0   7   1  2228.4   212.6   2-0.23870 0.23870 0.25409 0.44196 0.93726-0.86469  0 172.52 119.82    6.01 172.35 119.94    5.90
   0   7   1  1675.8   229.5   2 0.06952-0.06952 0.44498 0.25165-0.89284 0.96532  0 410.28 456.67  227.46 410.40 456.56  227.51
   0  -7  -2  8049.9   268.3   1-0.66883 0.66883-0.21431-0.48108-0.71186 0.56677  0 146.44 367.13   62.98 146.53 366.92   63.17
   0  -7  -2  8905.2   378.1   2-0.16019 0.16019-0.53586-0.16050 0.82897-0.97395  0 459.61 439.56   52.84 459.87 439.64   53.16
   0  -7  -2  9569.5   329.0   2 0.13060-0.13060-0.15966-0.53681-0.97849 0.83353  0 200.27  88.73  191.82 200.18  88.82  191.75
   0  -7   2  7580.9   274.4   1-0.69814 0.69814-0.47467-0.22073-0.53600 0.68109  0 126.23 322.20   81.25 126.01 322.06   81.30
   0  -7   2  9442.1   401.9   2-0.21240 0.21240-0.16222-0.53383 0.96362-0.81848  0 443.59 448.96   30.24 443.74 448.94   30.06
   0  -7   2  8838.6   319.6   2 0.13320-0.13320-0.53673-0.15973-0.83317 0.97813  0 188.63  98.21  168.43 188.48  98.30  168.43
   0   7  -2  8614.5   383.9   2 0.10700-0.10700 0.15918 0.53745-0.98143 0.83648  0 426.11 456.91  209.90 426.42 456.87  210.15
   0   7  -2  9113.1   326.5   2-0.23867 0.23867 0.53237 0.16395 0.81217-0.95716  0 177.25 108.89  348.02 177.12 108.95  348.10
   0   7   2  8472.2   357.4   1-0.27375 0.27375 0.53027 0.16488-0.80242 0.94756  2 503.90 112.61   13.01 504.07 112.78   13.04
   0   7   2 10094.1   329.6   2-0.23551 0.23551 0.16339 0.53267 0.95804-0.81290  0 167.25 119.42   11.01 167.28 119.53   11.26
   0   7   2  8898.1   387.8   2 0.05337-0.05337 0.53839 0.15823-0.84100 0.98596  0 408.99 463.30  233.66 409.26 463.27  233.69
   0  -7  -3 10691.3   300.3   1-0.65193 0.65193-0.14907-0.54632-0.74348 0.52585  0 146.99 380.34   59.03 147.08 380.06   58.91
   0  -7  -3 12118.9   435.9   2-0.14336 0.14336-0.62243-0.07393 0.76944-0.98690  0 470.24 445.63   59.23 470.56 445.81   59.26
   0  -7  -3 11636.6   360.8   2 0.12594-0.12594-0.07330-0.62316-0.98933 0.77189  0 199.23  80.58  196.74 199.10  80.71  196.76
   0  -7   3  9562.9   313.1   1-0.69483 0.69483-0.53290-0.16250-0.48295 0.70058  0 116.69 311.97   85.83 116.47 311.84   85.81
   0  -7   3 11916.2   428.8   2-0.22027 0.22027-0.07795-0.61810 0.97232-0.75460  0 445.40 459.69   24.97 445.68 459.82   25.18
   0  -7   3 11667.2   359.0   2 0.12878-0.12878-0.62305-0.07342-0.77151 0.98895  0 181.57  95.17  162.28 181.39  95.22  162.34
   0   7  -3 12295.5   432.1   2 0.11508-0.11508 0.07304 0.62359-0.99067 0.77324  0 436.17 463.88  205.27 436.45 463.86  205.15
   0   7  -3 12229.9   368.7   2-0.23423 0.23423 0.61683 0.07949 0.75144-0.96893  0 175.48 100.81  342.26 175.40 100.91  342.12
   0   7   3 11322.9   357.9   1-0.18709 0.18709 0.62026 0.07490-0.76176 0.97948  2 502.88  95.39    5.52 503.00  95.51    5.52
   0   7   3 12936.3   371.2   2-0.23122 0.23122 0.07877 0.61729 0.96971-0.75199  0 160.43 117.05   16.19 160.37 117.14   16.16
   0   7   3 11353.6   433.3   2 0.03590-0.03590 0.62551 0.07112-0.77939 0.99682  0 409.77 473.65  239.72 410.01 473.47  239.90
   0  -7  -4  2197.7   199.5   1-0.63286 0.63286-0.08721-0.60819-0.76934 0.47916  0 145.55 394.74   54.81 145.70 394.45   54.91
   0  -7  -4  2435.9   276.8   2-0.12569 0.12569-0.70090 0.00454 0.70210-0.99206  0 484.11 455.33   64.86 484.49 455.65   65.28
   0  -7  -4  2762.5   256.2   2 0.12051-0.12051 0.00449-0.70111-0.99270 0.70279  0 196.40  69.70  201.21 196.37  69.94  201.21
   0  -7   4  1671.0   199.1   1-0.68720 0.68720-0.58690-0.10850-0.42814 0.71832  0 105.37 301.79   90.13 105.10 301.68   90.24
   0  -7   4  2540.2   277.9   2-0.22605 0.22605-0.00231-0.69375 0.97411-0.68383  0 449.88 474.60   20.72 449.94 474.47   20.82
   0  -7   4  2317.1   238.0   2 0.12251-0.12251-0.70102 0.00456-0.70254 0.99246  0 172.62  90.04  156.40 172.52  90.01  156.36
   0   7  -4  2003.8   268.8   2 0.12116-0.12116-0.00446 0.70108-0.99262 0.70271  0 449.34 474.93  200.68 449.24 474.61  200.70
   0   7  -4  2174.4   250.8   2-0.22804 0.22804 0.69325 0.00306 0.68366-0.97365  0 171.92  90.43  335.87 172.01  90.55  336.24
   0   7   4  2220.7   231.0   2-0.22638 0.22638 0.00234 0.69371 0.97404-0.68375  0 151.63 112.70   20.56 151.58 112.83   20.55
   0   7   4  2274.8   269.7   2 0.01771-0.01771 0.70407-0.00745-0.70990 0.99982  0 412.70 487.77  246.23 412.73 487.55  246.00
   0  -7  -5 26709.4   448.6   1-0.61284 0.61284-0.03043-0.66497-0.78962 0.42690  0 142.19 410.71   51.28 142.30 410.41   51.28
   0  -7  -5 28390.2   627.8   2-0.10777 0.10777-0.76990 0.07354 0.62900-0.99145  2 501.88 469.39   71.08 502.22 469.53   71.14
   0  -7  -5 32344.5   584.9   2 0.11510-0.11510 0.07279-0.76941-0.99068 0.62830  0 192.28  56.44  204.86 192.12  56.53  205.14
   0  -7   5 24838.2   499.6   1-0.67577 0.67577-0.63634-0.05906-0.37202 0.73474  0  92.02 291.59   94.56  91.77 291.42   94.57
   0  -7   5 28063.0   625.6   2-0.23034 0.23034 0.06360-0.75965 0.97103-0.60817  0 456.49 493.41   16.99 456.72 493.51   17.03
   0  -7   5 29574.1   563.2   2 0.11453-0.11453-0.76947 0.07300-0.62833 0.99073  0 161.88  82.61  150.57 161.75  82.66  150.55
   0   7  -5 28486.4   631.1   2 0.12588-0.12588-0.07231 0.76878-0.98941 0.62701  0 465.05 489.64  196.94 465.34 489.65  196.82
   0   7  -5 27811.3   545.2   2-0.22039 0.22039 0.76048-0.06416 0.61082-0.97330  0 166.98  77.59  330.58 166.86  77.70  330.53
   0   7   5 29993.1   556.1   2-0.22135 0.22135-0.06465 0.76070 0.97305-0.61019  0 140.84 106.46   24.38 140.78 106.54   24.41
   0  -7  -6  1497.5   179.4   1-0.59316 0.59316 0.02019-0.71534-0.80483 0.36939  0 136.78 428.67   48.09 136.91 428.52   48.05
   0  -7  -6  1418.5   215.5   2 0.10980-0.10980 0.13101-0.82764-0.98528 0.55042  0 186.37  39.99  208.54 186.15  40.07  208.51
   0  -7   6  1322.1   186.4   1-0.66093 0.66093-0.68111-0.01429-0.31505 0.75031  0  76.72 280.89   99.11  76.30 280.89   98.81
   0  -7   6  1525.8   223.5   2 0.10474-0.10474-0.82779 0.13083-0.55117 0.98586  0 148.91  73.13  144.72 148.76  73.08  144.97
   0   7  -6  1665.4   220.9   2-0.21136 0.21136 0.81811-0.12179 0.53482-0.96979  0 159.91  62.17  324.86 159.88  62.12  325.01
   0   7   6  1703.5   227.7   2-0.21629 0.21629-0.12177 0.81782 0.96871-0.53328  0 128.33  98.42   28.04 127.74  98.21   27.71
   0  -7  -7 133.228 140.960   1-0.57487 0.57487 0.06299-0.75815-0.81582 0.30780  0 129.33 448.79   45.69 129.26 449.31   45.31
   0  -7  -7 450.241 202.521   2 0.10484-0.10484 0.17934-0.87597-0.97818 0.47084  0 178.15  19.56  211.39 178.33  20.07  211.33
   0  -7   7 307.671 142.087   1-0.64275 0.64275-0.72111 0.02556-0.25859 0.76565  0  59.04 270.01  102.79  58.58 269.88  102.93
   0  -7   7 230.424 191.126   2 0.09422-0.09422-0.87650 0.17953-0.47209 0.97923  0 133.36  60.67  139.54 133.46  61.05  139.61
   0   7  -7 111.140 179.233   2-0.20122 0.20122 0.86629-0.16998 0.45721-0.96468  0 151.13  43.57  319.63 150.82  43.30  319.73
   0   7   7  24.531 173.572   2-0.21170 0.21170-0.16912 0.86518 0.96259-0.45459  0 112.16  87.96   30.40 112.12  87.69   30.46
   0  -7  -8  2854.8   277.7   1-0.55913 0.55913 0.09760-0.79275-0.82331 0.24272  0 119.40 473.67   42.99 119.21 473.77   43.09
   0  -7   8  2613.2   286.7   1-0.62184 0.62184-0.75685 0.06130-0.20125 0.78074  0  37.80 257.96  107.05  37.75 258.02  106.98
   0  -7   8  3194.8   364.2   2 0.08321-0.08321-0.91594 0.21898-0.39259 0.97218  0 115.64  46.23  134.50 115.22  46.26  134.49
   0   7  -8  3333.7   379.4   2-0.19044 0.19044 0.90551-0.20920 0.37918-0.95915  0 139.85  20.93  314.67 139.38  20.69  314.67
   0   7   8  2981.6   346.3   2-0.20759 0.20759-0.20725 0.90330 0.95601-0.37544  0  94.27  74.98   32.82  93.45  74.74   32.71
   0  -8   0  7334.0   299.5   1-0.69652 0.69652-0.39737-0.39737-0.59746 0.59746  0 108.59 363.22   75.69 108.48 363.02   75.65
   0  -8   0  7867.6   473.4   2-0.18331 0.18331-0.39775-0.39775 0.89900-0.89900  0 486.78 487.36   43.82 487.15 487.54   44.18
   0  -8   0  8388.2   358.2   2 0.13595-0.13595-0.39798-0.39798-0.90726 0.90726  0 175.40  63.72  177.48 175.29  63.81  177.46
   0   8   0  8585.4   363.6   2-0.24131 0.24131 0.39766 0.39766 0.88523-0.88523  0 148.83  90.04  357.17 148.74  90.08  356.90
   0  -8  -1 163.474 125.937   1-0.69153 0.69153-0.34263-0.45211-0.63592 0.56337  0 112.84 375.65   71.55 113.09 375.51   71.81
   0  -8  -1  70.077 259.838   2-0.17046 0.17046-0.47958-0.31591 0.86078-0.93335  0 493.24 487.18   48.82 493.30 487.06   49.40
   0  -8  -1 386.824 168.839   2 0.13528-0.13528-0.31576-0.48020-0.93915 0.86667  0 177.09  59.76  182.57 177.54  59.99  182.50
   0  -8   1  49.407 126.047   1-0.69830 0.69830-0.45139-0.34335-0.55554 0.62809  0 101.82 351.33   79.37 102.02 351.30   79.56
   0  -8   1 175.965 248.888   2-0.19459 0.19459-0.31635-0.47914 0.92847-0.85590  0 483.79 491.74   39.47 483.94 491.99   39.18
   0  -8   1 116.731 151.036   2 0.13485-0.13485-0.48020-0.31575-0.86673 0.93921  0 171.20  65.03  173.18 171.33  65.25  172.20
   0   8  -1 258.320 161.846   2-0.24024 0.24024 0.47801 0.31731 0.84486-0.91739  0 150.92  86.50  352.17 150.45  86.02  351.74
   0   8   1 216.721 153.030   2-0.23996 0.23996 0.31736 0.47813 0.91744-0.84487  0 144.96  91.54    1.91 145.28  91.67    2.10
   0  -8  -2  4820.6   271.3   1-0.68350 0.68350-0.28818-0.50656-0.67066 0.52557  0 115.94 389.30   68.08 115.88 388.94   68.09
   0  -8  -2  4669.2   452.8   2-0.15585 0.15585-0.55943-0.23641 0.81409-0.95907  2 502.29 490.57   55.04 502.49 490.37   54.78
   0  -8  -2  4670.1   321.7   2 0.13344-0.13344-0.23587-0.56008-0.96258 0.81762  0 178.00  53.46  186.88 178.11  53.71  187.27
   0  -8   2  4236.0   264.6   1-0.69712 0.69712-0.50375-0.29099-0.51015 0.65524  0  93.97 340.21   83.50  93.72 340.11   83.52
   0  -8   2  4695.5   457.8   2-0.20419 0.20419-0.23772-0.55777 0.94963-0.80449  0 483.34 500.30   34.47 483.49 500.29   34.50
   0  -8   2  4910.9   323.8   2 0.13223-0.13223-0.56012-0.23584-0.81779 0.96275  0 165.84  64.46  167.18 165.62  64.40  166.82
   0   8  -2  4838.0   314.8   2-0.23771 0.23771 0.55619 0.23960 0.79633-0.94132  0 150.29  79.57  346.51 150.22  79.67  346.46
   0   8   2  4795.4   309.0   2-0.23830 0.23830 0.23925 0.55624 0.94126-0.79612  0 139.93  91.36    6.98 139.89  91.47    6.78
   0  -8  -3  4738.2   251.5   1-0.67332 0.67332-0.23522-0.55952-0.70094 0.48331  0 116.91 403.95   64.57 116.77 403.70   64.54
   0  -8  -3  6094.5   349.3   2 0.13064-0.13064-0.16041-0.63555-0.97837 0.76093  0 177.13  44.90  191.89 177.00  44.81  191.71
   0  -8   3  4581.2   278.5   1-0.69241 0.69241-0.55381-0.24093-0.46245 0.68009  0  83.62 329.43   87.44  83.51 329.28   87.49
   0  -8   3  5096.6   326.5   2 0.12792-0.12792-0.63565-0.16031-0.76130 0.97874  0 158.17  61.19  161.42 158.06  61.24  161.41
   0   8  -3  5831.4   348.0   2-0.23332 0.23332 0.63004 0.16575 0.74068-0.95817  0 148.34  70.96  341.30 148.32  71.03  341.14
   0   8   3  6638.5   345.6   2-0.23560 0.23560 0.16544 0.63005 0.95767-0.73995  0 132.37  88.95   11.29 132.54  89.16   11.14
   0  -8  -4 511.272 155.705   1-0.66159 0.66159-0.18502-0.60972-0.72668 0.43651  0 115.85 419.86   61.38 115.70 420.11   61.24
   0  -8  -4 831.381 205.620   2 0.12700-0.12700-0.09101-0.70495-0.98772 0.69780  0 174.32  33.29  195.59 174.16  33.10  195.74
   0  -8   4 411.442 157.474   1-0.68440 0.68440-0.60104-0.19370-0.41273 0.70291  0  71.41 318.77   91.45  71.23 318.62   91.45
   0  -8   4 603.791 200.950   2 0.12210-0.12210-0.70518-0.09078-0.69844 0.98836  0 148.57  55.79  156.52 148.53  55.72  156.03
   0   8  -4 546.425 199.203   2-0.22756 0.22756 0.69811 0.09768 0.67887-0.96885  0 145.06  60.00  336.18 144.55  59.84  335.85
   0   8   4 745.432 189.247   2-0.23227 0.23227 0.09757 0.69792 0.96774-0.67746  0 123.19  84.85   15.00 123.06  84.75   15.07
   0  -8  -5 826.353 170.333   1-0.64895 0.64895-0.13872-0.65602-0.74808 0.38536  0 112.73 438.29   58.28 112.63 438.64   58.24
   0  -8  -5 822.711 231.961   2 0.12308-0.12308-0.02883-0.76713-0.99198 0.62958  0 169.38  17.85  199.41 169.52  18.23  199.32
   0  -8   5 964.058 186.199   1-0.67323 0.67323-0.64509-0.14965-0.36141 0.72413  0  56.57 308.03   95.33  56.67 307.96   95.37
   0  -8   5  1071.2   230.1   2 0.11479-0.11479-0.76758-0.02837-0.63058 0.99298  0 137.06  47.96  150.59 136.84  47.78  150.72
   0   8  -5 940.089 220.613   2-0.22055 0.22055 0.75931 0.03648 0.61221-0.97469  0 138.50  45.65  330.60 138.75  45.83  330.63
   0   8   5 952.938 209.446   2-0.22880 0.22880 0.03678 0.75871 0.97278-0.60992  0 111.76  78.38   18.65 111.26  78.21   18.58
   0  -8  -6 740.686 177.684   1-0.63623 0.63623-0.09741-0.69733-0.76532 0.33006  0 107.20 460.88   55.71 107.39 459.98   55.57
   0  -8   6 530.544 174.818   1-0.65911 0.65911-0.68570-0.10904-0.30883 0.74410  0  39.23 297.21   99.35  39.57 297.07   99.26
   0  -8   6 907.335 249.418   2 0.10576-0.10576-0.82214 0.02561-0.55937 0.99406  0 122.42  37.15  145.61 122.50  37.19  145.55
   0   8  -6 519.641 230.981   2-0.21227 0.21227 0.81307-0.01728 0.54208-0.97706  0 130.90  28.55  325.53 130.80  28.63  325.52
   0   8   6 717.117 214.315   2-0.22502 0.22502-0.01634 0.81183 0.97422-0.53879  0  96.95  69.38   21.59  96.80  69.35   21.63
   0  -8  -7 217.872 185.909   1-0.62429 0.62429-0.06203-0.73271-0.77873 0.27092  0 100.00 483.92   53.34  99.82 484.92   53.30
   0  -8   7 237.336 158.323   1-0.64196 0.64196-0.72264-0.07227-0.25627 0.76332  0  19.48 285.84  103.46  19.68 285.71  103.10
   0  -8   7 140.369 241.035   2 0.09603-0.09603-0.86888 0.07236-0.48561 0.99275  0 105.73  23.74  141.21 105.37  23.63  140.50
   0   8  -7  40.001 255.285   2-0.20289 0.20289 0.85921-0.06342 0.46967-0.97714  2 120.35   8.10  321.20 120.29   7.49  320.56
   0   8   7   3.839 213.800   2-0.22160 0.22160-0.06153 0.85702 0.97319-0.46519  0  78.88  57.70   24.44  79.26  57.95   24.23
   0  -9   0  12.829 146.692   1-0.69837 0.69837-0.44704-0.44704-0.55896 0.55896  0  70.53 388.08   79.51  71.04 387.87   79.25
   0  -9   0   7.714 213.930   2 0.13551-0.13551-0.44773-0.44773-0.88384 0.88384  0 147.08  20.58  175.20 147.67  21.49  174.30
   0   9   0  39.905 194.233   2-0.24084 0.24084 0.44737 0.44737 0.86131-0.86131  0 115.90  55.49  354.18 115.58  55.55  353.74
   0  -9  -1 13414.8   435.5   1-0.69680 0.69680-0.40177-0.49231-0.59418 0.52164  0  76.15 402.17   76.23  76.10 401.88   75.96
   0  -9  -1 16625.8   539.8   2 0.13591-0.13591-0.37648-0.51897-0.91640 0.84392  0 150.31  17.22  178.82 150.10  17.11  178.80
   0  -9   1 12905.9   418.2   1-0.69769 0.69769-0.49222-0.40186-0.52052 0.59307  0  64.02 375.19   82.65  63.95 374.90   82.64
   0  -9   1 15867.1   521.0   2 0.13382-0.13382-0.51899-0.37646-0.84424 0.91672  0 143.48  23.26  169.62 143.35  23.24  169.62
   0   9  -1 15691.7   521.9   2-0.23926 0.23926 0.51711 0.37815 0.82180-0.89429  0 117.56  50.71  349.26 117.17  50.88  349.14
   0   9   1 15220.7   505.4   2-0.24138 0.24138 0.37785 0.51688 0.89385-0.82132  0 112.03  57.67  358.22 111.75  57.76  358.15
   0  -9  -2  1289.3   217.6   1-0.69316 0.69316-0.35722-0.53686-0.62603 0.48094  0  79.01 417.69   73.27  79.16 417.26   72.82
   0  -9  -2  1821.9   275.8   2 0.13514-0.13514-0.30695-0.58850-0.94208 0.79712  2 150.51   9.63  182.86 150.62   9.89  183.03
   0  -9   2  1144.6   228.0   1-0.69445 0.69445-0.53660-0.35748-0.47937 0.62446  0  54.77 362.86   86.02  54.82 362.72   86.11
   0  -9   2  1160.5   254.2   2 0.13077-0.13077-0.58861-0.30685-0.79777 0.94273  0 137.31  22.37  165.20 137.05  22.34  164.83
   0   9  -2  1481.6   255.6   2-0.23619 0.23619 0.58503 0.31024 0.77586-0.92085  0 117.23  43.99  344.48 116.87  43.79  344.42
   0   9   2  1481.7   250.2   2-0.23983 0.23983 0.31003 0.58490 0.91998-0.77484  0 105.89  57.10    2.55 105.83  57.23    2.54
   0  -9  -3  1452.7   227.0   1-0.68766 0.68766-0.31421-0.57987-0.65452 0.43689  0  80.19 434.63   69.93  80.23 434.36   69.85
   0  -9   3  1312.7   227.2   1-0.68851 0.68851-0.57963-0.31446-0.43588 0.65351  0  43.58 351.14   90.14  43.45 351.09   89.62
   0  -9   3  1796.9   278.9   2 0.12654-0.12654-0.65502-0.24043-0.74494 0.96238  0 128.72  18.77  159.71 128.63  18.75  159.96
   0   9  -3  1801.2   279.2   2-0.23183 0.23183 0.64989 0.24538 0.72381-0.94130  0 114.56  33.95  339.61 114.48  34.03  339.64
   0   9   3  1512.0   254.7   2-0.23847 0.23847 0.24535 0.64957 0.93965-0.72193  0  97.88  54.68    6.23  97.64  54.85    6.42
   0  -9  -4 228.302 188.696   1-0.68099 0.68099-0.27369-0.62039-0.67922 0.38905  0  79.45 453.31   66.89  79.22 453.70   67.11
   0  -9   4  84.426 168.361   1-0.67985 0.67985-0.62082-0.27326-0.39036 0.68054  0  29.14 340.05   93.60  29.62 339.77   93.18
   0  -9   4  40.984 241.356   2 0.12085-0.12085-0.71695-0.17850-0.68657 0.97649  0 117.69  11.97  155.57 117.88  12.41  155.06
   0   9  -4  46.197 241.852   2-0.22628 0.22628 0.71044 0.18482 0.66638-0.95637  0 109.87  21.25  335.19 109.87  21.29  334.84
   0   9   4 387.068 235.222   2-0.23640 0.23640 0.18514 0.70978 0.95385-0.66357  0  86.85  49.94    9.56  86.92  49.98    9.98
  -1   0   0  -1.201  14.421   1-0.06383-0.06383-0.80862 0.80862 0.58485-0.58485  0 322.33 235.28  165.01 322.15 235.43  164.69
  -1   0   0 7.82288  5.7042   2-0.06375-0.06375-0.89871 0.89871 0.43389-0.43389  0 321.54 235.44   85.04 321.55 235.30   84.82
  -1   0   0 1.69526  5.3587   2-0.06372-0.06372 0.93547-0.93547-0.34761 0.34761  0 328.82 245.10  271.85 328.75 244.96  271.30
  -1   0  -1  2309.5    62.3   1-0.28637 0.15873-0.88955 0.88955 0.35593-0.42837  0 334.55 244.72  146.07 334.54 244.76  145.73
  -1   0  -1  2255.1    35.8   2 0.06339-0.19092-0.96351 0.96351-0.26005 0.18760  0 335.27 248.13  126.25 335.27 248.16  126.33
  -1   0  -1  1971.0    33.7   2-0.14904 0.02159 0.98226-0.98226 0.11380-0.18627  0 320.41 228.37  298.60 320.46 228.42  298.60
  -1   0   1  1989.3    39.9   1-0.55423 0.42674 0.10791-0.10791-0.82534 0.89791  0 283.63 226.80   42.22 283.78 226.82   42.43
  -1   0   1  2278.0    50.4   2-0.00516-0.12236-0.99023 0.99023 0.13937-0.06692  0 308.69 223.36  103.23 308.75 223.43  102.91
  -1   0   1  1937.2    47.1   2-0.11874-0.00870 0.99108-0.99108-0.06052 0.13299  0 336.68 260.87  288.30 336.67 260.85  288.43
   1   0  -1  2180.0    41.4   1-0.39205 0.51954 0.38181-0.38181-0.83697 0.76440  0 316.72 289.76   24.02 316.79 289.69   24.11
   1   0  -1  2257.9    49.8   2 0.03517 0.09235-0.99563 0.99563-0.08655 0.01410  0 290.05 291.68  115.60 290.10 291.60  116.08
   1   0  -1  1923.3    46.3   2-0.07668 0.20413 0.95601-0.95601-0.28314 0.21067  0 264.67 255.77  274.57 264.80 255.75  275.25
   1   0   1  2131.4    60.4   1-0.18309 0.31076-0.86276 0.86276 0.47130-0.39884  0 267.19 270.22  155.07 267.31 270.24  154.74
   1   0   1  2218.4    34.5   2-0.01032 0.13784-0.98597 0.98597 0.16662-0.09417  0 265.93 267.76  101.20 266.06 267.76  101.30
   1   0   1  2014.4    33.1   2-0.20889 0.33630 0.83116-0.83116 0.51531-0.44281  0 278.86 286.23  323.67 279.01 286.18  323.65
  -1   0  -2   7.122  28.974   1-0.39277 0.26513-0.89358 0.89358 0.21738-0.36225  0 349.57 253.99  135.52 349.47 254.34  135.71
  -1   0  -2   5.034  18.999   2 0.04944-0.17696-0.98384 0.98384-0.17208 0.02718  0 348.75 260.54  121.48 349.03 260.72  121.09
  -1   0  -2  14.140  18.842   2-0.12646-0.00099 0.99182-0.99182-0.01731-0.12763  0 312.63 212.59  291.50 312.71 212.50  290.94
  -1   0   2  16.092  16.804   1-0.69472 0.56722-0.53392 0.53392-0.48196 0.62705  0 277.54 217.29   85.63 277.66 217.47   85.89
  -1   0   2  14.236  24.900   2-0.00263-0.12490-0.99199 0.99199 0.12625 0.01864  0 296.11 211.38  103.40 295.97 211.37  103.68
  -1   0   2   7.841  23.590   2-0.13167 0.00423 0.99121-0.99121 0.01273 0.13222  0 345.26 277.60  293.23 345.05 277.35  292.69
   1   0  -2   5.470  15.759   1-0.66737 0.79488-0.20809 0.20809-0.71506 0.56997  0 323.37 299.56   62.44 323.21 299.77   62.76
   1   0  -2   0.179  22.835   2-0.09118 0.21863 0.97372-0.97372-0.20868 0.06373  0 257.38 240.27  279.91 257.26 240.50  279.73
   1   0   2  11.958  22.239   1-0.27432 0.40197-0.88746 0.88746 0.37036-0.22548  0 253.82 260.95  147.04 254.23 261.07  146.81
   1   0   2  14.249  14.893   2-0.00377 0.13130-0.99126 0.99126 0.13189 0.01301  0 253.71 255.81  103.55 253.74 255.91  103.35
   1   0   2   3.110  17.478   2-0.17620 0.30361 0.94270-0.94270 0.28330-0.13831  0 286.03 302.48  308.62 286.25 302.39  308.71
  -1   0  -3 138162.    735.   1-0.45658 0.32894-0.88127 0.88127 0.12204-0.33935  0 365.87 264.33  128.95 365.92 264.34  129.10
  -1   0  -3 141662.    962.   2 0.04998-0.17750-0.98323 0.98323-0.17541-0.04194  0 363.74 273.89  120.77 363.60 273.86  121.29
  -1   0  -3 105798.    571.   2-0.11555-0.01190 0.99021-0.99021-0.07833-0.13909  0 304.88 196.17  287.36 304.95 196.29  287.39
  -1   0   3 126635.    817.   2-0.00578-0.12174-0.98975 0.98975 0.14269 0.07465  0 283.04 199.07  102.77 283.17 199.18  102.71
  -1   0   3 113660.    655.   2-0.14053 0.01308 0.98803-0.98803 0.06369 0.15373  0 353.90 294.53  295.83 353.85 294.49  295.66
   1   0  -3 86299.1   344.0   1-0.69830 0.82580-0.45171 0.45171-0.55528 0.33765  0 336.05 310.72   79.54 336.12 310.67   79.58
   1   0  -3 129647.    819.   2 0.04115 0.08637-0.99168 0.99168-0.12194-0.09540  0 315.55 318.41  118.01 315.53 318.30  118.14
   1   0  -3 112987.    512.   2-0.09276 0.22020 0.97531-0.97531-0.20044-0.01698  0 249.62 225.18  280.03 249.48 225.20  280.21
   1   0   3 116607.    709.   1-0.30932 0.43696-0.89267 0.89267 0.32782-0.11051  0 240.60 251.95  143.73 240.48 251.97  143.64
   1   0   3 123524.    924.   2-0.00721 0.13474-0.98861 0.98861 0.15032 0.06703  0 241.45 244.29  101.74 241.30 244.33  102.26
  -1   0  -4 -25.920  45.813   1-0.50139 0.37375-0.86389 0.86389 0.04789-0.33763  0 383.77 275.13  125.07 383.83 274.97  124.03
  -1   0  -4  -0.202  37.402   2 0.05334-0.18086-0.97907 0.97907-0.19643-0.09336  0 379.45 287.61  121.81 379.22 287.70  122.53
  -1   0  -4 -33.409  37.786   2-0.10679-0.02066 0.98626-0.98626-0.12601-0.16388  0 297.03 179.63  284.57 297.12 179.60  284.60
  -1   0   4  24.918  27.337   1-0.56778 0.44014-0.81956 0.81956-0.07713 0.36688  0 252.84 198.25  115.66 252.68 198.24  115.53
  -1   0   4   3.504  45.168   2-0.01063-0.11690-0.98568 0.98568 0.16828 0.12151  0 270.31 186.65  101.41 270.19 186.74  101.20
  -1   0   4  -1.899  44.306   2-0.14805 0.02061 0.98308-0.98308 0.10787 0.18202  0 363.11 312.64  299.15 363.18 312.52  298.25
   1   0  -4  25.653  35.251   1-0.69432 0.82182-0.53783 0.53783-0.47819 0.18801  0 351.39 322.70   86.35 351.46 322.53   86.21
   1   0  -4  -1.269  43.583   2 0.04628 0.08125-0.98721 0.98721-0.15259-0.13720  0 329.11 333.38  119.31 329.05 332.96  119.95
   1   0  -4  31.845  34.976   2-0.09040 0.21784 0.97293-0.97293-0.21270-0.07719  0 241.32 209.16  280.15 241.33 209.64  279.48
   1   0   4  47.115  36.931   1-0.32033 0.44797-0.89372 0.89372 0.31410-0.02435  0 226.28 242.72  142.44 226.27 242.76  142.63
   1   0   4 -13.353  30.047   2-0.01256 0.14009-0.98386 0.98386 0.17848 0.11131  0 228.81 232.75   99.79 228.50 232.80  100.59
  -1   0  -5 15682.2   253.4   1-0.53616 0.40852-0.84399 0.84399-0.01463-0.34755  0 403.15 286.57  120.01 403.38 286.53  119.77
  -1   0  -5 16867.0   250.2   2 0.05771-0.18524-0.97291 0.97291-0.22388-0.13835  0 395.92 302.59  124.05 396.14 302.51  124.16
  -1   0  -5 14720.2   235.2   2-0.09877-0.02868 0.98068-0.98068-0.16886-0.19351  0 289.04 162.04  282.02 289.15 162.20  282.08
  -1   0   5 15758.2   205.6   1-0.51624 0.38860-0.85617 0.85617 0.02165 0.34053  0 238.67 187.81  121.97 238.60 187.93  122.25
  -1   0   5 17541.6   271.8   2-0.01615-0.11135-0.98008 0.98008 0.19797 0.16448  0 256.69 173.78   99.39 256.90 173.88   99.41
  -1   0   5 14475.8   248.6   2-0.15497 0.02757 0.97659-0.97659 0.14916 0.21332  0 373.29 331.84  300.82 373.19 331.79  300.66
   1   0  -5 12431.1   188.2   1-0.69017 0.81768-0.56957 0.56957-0.44638 0.08366  0 368.48 335.73   88.99 368.51 335.65   88.79
   1   0  -5 16603.4   264.9   2 0.05159 0.07593-0.98131 0.98131-0.18540-0.17683  0 343.53 349.00  122.07 343.43 348.83  121.88
   1   0  -5 14782.7   245.2   2-0.08630 0.21374 0.96841-0.96841-0.23394-0.12842  0 232.85 193.58  278.07 232.74 193.61  278.21
   1   0   5 15764.9   250.1   1-0.31885 0.44649-0.89359 0.89359 0.31595 0.04623  0 211.59 233.22  142.99 211.55 233.28  142.77
   1   0   5 16108.4   238.9   2-0.01849 0.14598-0.97749 0.97749 0.21015 0.15230  0 215.30 221.10   98.75 215.19 221.13   98.68
   1   0   5  8377.2   180.4   2-0.17334 0.30074 0.94866-0.94866 0.26455 0.09792  0 308.03 355.74  307.58 308.09 355.73  307.57
  -1   0  -6  -9.090  76.322   1-0.56444 0.43680-0.82247 0.82247-0.07029-0.36433  0 425.01 299.32  117.10 424.98 299.29  116.00
  -1   0  -6  22.546  68.009   2 0.06251-0.19004-0.96508 0.96508-0.25439-0.18030  0 414.62 318.69  125.52 414.83 318.59  125.99
  -1   0  -6 -22.259  63.549   2-0.09104-0.03641 0.97358-0.97358-0.20941-0.22542  0 280.63 143.65  279.69 280.91 143.82  279.68
  -1   0   6  62.181  47.480   1-0.47182 0.34418-0.87629 0.87629 0.09749 0.33713  0 223.79 177.17  127.59 223.91 176.91  127.42
  -1   0   6  17.373  61.450   2-0.02225-0.10524-0.97302 0.97302 0.22963 0.20531  0 242.83 160.60   97.51 243.05 160.47   97.52
  -1   0   6  37.596  76.872   2-0.16140 0.03399 0.96865-0.96865 0.18887 0.24610  0 384.04 352.67  303.73 384.08 352.62  303.01
   1   0  -6  27.351  54.889   1-0.68888 0.81638-0.57750 0.57750-0.43810 0.00284  0 387.06 350.41   89.37 387.22 350.41   89.45
   1   0  -6 -53.778  72.876   2 0.05699 0.07054-0.97398 0.97398-0.21933-0.21536  0 359.21 366.11  123.49 358.99 366.29  123.89
   1   0  -6 -29.333  54.010   2-0.08121 0.20865 0.96222-0.96222-0.25989-0.17494  0 223.68 177.23  276.50 223.57 176.87  276.66
   1   0   6  -1.586  54.857   1-0.30992 0.43756-0.89273 0.89273 0.32707 0.10755  0 196.28 223.08  143.57 196.21 223.36  143.59
   1   0   6   4.402  49.560   2-0.02491 0.15241-0.96959 0.96959 0.24346 0.19148  0 201.28 209.14   96.54 201.13 209.28   96.70
   1   0   6  24.883  68.462   2-0.17691 0.30432 0.94116-0.94116 0.28796 0.14701  0 315.92 376.35  308.54 315.75 376.23  308.99
  -1   0  -7 18542.3   334.4   1-0.58836 0.46072-0.79942 0.79942-0.12149-0.38557  0 448.99 313.88  112.48 449.19 313.71  112.50
  -1   0  -7 21380.2   350.7   2 0.06752-0.19505-0.95567 0.95567-0.28658-0.22055  0 435.67 336.48  127.86 435.85 336.36  127.94
  -1   0  -7 18757.0   328.6   2-0.08339-0.04405 0.96498-0.96498-0.24871-0.25859  0 272.18 123.91  277.25 272.30 124.11  277.33
  -1   0   7 20519.2   289.8   1-0.43141 0.30377-0.88767 0.88767 0.16100 0.34606  0 208.53 164.70  131.98 208.57 164.88  131.78
  -1   0   7 20254.8   347.0   2-0.02865-0.09884-0.96450 0.96450 0.26253 0.24490  0 228.55 146.15   95.56 228.44 146.28   95.54
  -1   0   7 19069.9   354.0   2-0.16756 0.04015 0.95922-0.95922 0.22766 0.27981  0 395.83 375.60  305.34 396.10 375.56  305.33
   1   0  -7 16633.5   275.9   1-0.68967 0.81717-0.57275 0.57275-0.44308-0.06473  0 407.51 367.36   89.00 407.90 367.30   89.05
   1   0  -7 21102.6   367.4   2 0.06244 0.06509-0.96521 0.96521-0.25390-0.25323  0 376.18 385.99  126.14 376.08 385.81  125.96
   1   0  -7 19605.2   341.7   2-0.07559 0.20303 0.95445-0.95445-0.28865-0.21865  0 213.74 159.06  275.15 213.65 159.15  274.91
   1   0   7 20697.7   337.9   1-0.29616 0.42380-0.89099 0.89099 0.34415 0.16291  0 180.01 212.73  144.91 180.06 212.82  144.85
   1   0   7 20922.8   333.6   2-0.03165 0.15914-0.96015 0.96015 0.27768 0.22975  0 186.17 196.99   94.65 186.09 197.03   94.62
   1   0   7 18522.8   325.6   2-0.18106 0.30847 0.93160-0.93160 0.31519 0.19229  0 323.74 398.98  310.73 323.80 398.80  310.67
  -1   0  -8 -60.144 116.028   1-0.60918 0.48154-0.77468 0.77468-0.16963-0.40987  0 476.66 330.21  109.68 476.80 330.45  109.18
  -1   0  -8 -21.329 109.769   2 0.07244-0.19996-0.94473 0.94473-0.31976-0.25982  0 460.02 356.36  129.67 459.91 356.39  129.96
  -1   0  -8  49.504 110.119   2-0.07587-0.05158 0.95486-0.95486-0.28722-0.29256  0 263.03 102.67  275.44 263.19 102.65  275.00
  -1   0   8 -32.059  67.602   1-0.39284 0.26520-0.89357 0.89357 0.21728 0.36222  0 192.41 151.41  135.27 192.41 151.59  135.70
  -1   0   8 -54.913  87.137   2-0.03532-0.09217-0.95447 0.95447 0.29621 0.28371  0 212.57 131.01   93.54 212.75 131.03   93.49
  -1   0   8 -57.514 124.641   2-0.17354 0.04613 0.94826-0.94826 0.26586 0.31411  0 409.34 401.21  307.53 409.63 401.32  307.65
   1   0  -8 108.807 107.615   1-0.69159 0.81909-0.56005 0.56005-0.45612-0.12423  0 430.91 387.16   88.36 431.09 387.02   88.00
   1   0  -8 -21.956 117.919   2 0.06787 0.05965-0.95495 0.95495-0.28889-0.29070  0 395.20 407.96  128.07 395.28 408.03  128.08
   1   0  -8  85.763  85.541   2-0.06949 0.19694 0.94515-0.94515-0.31917-0.26061  0 203.00 140.02  273.42 202.77 140.08  273.05
   1   0   8 -77.309  71.167   1-0.27860 0.40624-0.88827 0.88827 0.36517 0.21432  0 163.00 201.37  146.34 162.85 201.40  146.42
   1   0   8  47.902  73.866   2-0.03861 0.16610-0.94915 0.94915 0.31246 0.26746  0 170.07 184.22   92.59 169.76 184.22   92.50
   1   0   8  42.794 107.058   2-0.18549 0.31290 0.92019-0.92019 0.34473 0.23524  0 332.03 424.02  313.21 332.34 424.09  312.50
  -1   0  -9 892.056 174.011   2 0.07749-0.20502-0.93217 0.93217-0.35364-0.29839  0 488.22 379.57  131.86 488.19 379.49  132.05
  -1   0  -9 805.416 134.074   2-0.06827-0.05918 0.94317-0.94317-0.32524-0.32701  0 253.57  79.14  273.20 253.37  78.83  272.68
  -1   0   9 727.905 107.583   1-0.35511 0.22747-0.89531 0.89531 0.26894 0.38300  0 175.17 136.63  139.30 175.14 136.55  139.37
  -1   0   9 787.499 138.176   2-0.04223-0.08526-0.94289 0.94289 0.33041 0.32200  0 195.55 114.32   91.31 195.68 114.43   91.39
  -1   0   9 863.631 181.850   2-0.17933 0.05193 0.93575-0.93575 0.30365 0.34881  0 425.07 431.00  309.99 425.12 430.83  309.96
   1   0  -9 611.679 138.302   1-0.69389 0.82139-0.54172 0.54172-0.47441-0.17849  0 457.39 410.55   86.58 457.52 410.56   86.52
   1   0  -9 808.800 175.670   2 0.07310 0.05443-0.94316 0.94316-0.32419-0.32784  0 416.98 433.53  129.90 417.29 433.86  130.23
   1   0  -9 894.777 139.659   2-0.06305 0.19050 0.93429-0.93429-0.35090-0.30135  0 190.73 119.09  271.37 190.68 119.22  271.10
   1   0   9 649.766 118.546   1-0.25826 0.38590-0.88429 0.88429 0.38903 0.26291  0 144.20 188.53  148.17 144.27 188.79  148.23
   1   0   9 740.062 120.294   2-0.04574 0.17323-0.93653 0.93653 0.34760 0.30481  0 151.72 170.46   90.36 151.78 170.64   90.32
   1   0   9 653.440 159.886   2-0.18995 0.31736 0.90704-0.90704 0.37576 0.27670  0 341.51 453.04  314.46 341.59 452.97  314.46
  -1   0 -10 -54.868 124.241   2-0.06062-0.06682 0.92985-0.92985-0.36291-0.36182  0 242.81  51.48  269.84 242.59  51.89  270.35
  -1   0  10  29.133  96.267   1-0.31765 0.19001-0.89349 0.89349 0.31746 0.40691  0 156.51 119.03  142.53 156.46 119.24  142.88
  -1   0  10  45.277 126.642   2-0.04933-0.07816-0.92971 0.92971 0.36498 0.35991  0 176.45  95.93   88.88 176.72  96.04   89.23
  -1   0  10  96.755 207.636   2-0.18497 0.05757 0.92162-0.92162 0.34117 0.38379  0 443.12 464.96  311.88 443.28 465.53  312.28
   1   0 -10 -78.817 168.498   1-0.69607 0.82357-0.51885 0.51885-0.49627-0.22917  0 488.39 439.12   84.38 488.46 439.44   84.70
   1   0 -10 141.509 202.955   2 0.07837 0.04915-0.92978 0.92978-0.35967-0.36481  0 443.22 464.72  131.89 443.28 464.65  132.42
   1   0 -10  79.754 130.770   2-0.05638 0.18383 0.92183-0.92183-0.38348-0.34124  0 176.78  95.65  268.88 177.01  95.97  269.06
   1   0  10  36.595 111.115   1-0.23547 0.36314-0.87881 0.87881 0.41502 0.30955  0 123.62 174.59  150.45 123.81 174.54  150.24
   1   0  10 -97.828  97.752   2-0.05306 0.18056-0.92223 0.92223 0.38299 0.34190  0 131.40 155.96   88.46 131.64 155.99   88.09
   1   0  10 -60.840 178.615   2-0.19449 0.32190 0.89209-0.89209 0.40785 0.31710  0 351.82 486.32  316.56 351.77 486.66  316.51
  -1   0 -11 21769.0   508.3   2-0.05285-0.07460 0.91484-0.91484-0.40034-0.39686  0 230.64  20.55  267.83 230.50  20.69  267.99
  -1   0  11 24963.7   444.5   1-0.27975 0.15211-0.88847 0.88847 0.36381 0.43299  0 135.57  98.71  146.28 135.83  98.87  146.32
  -1   0  11 26268.3   550.0   2-0.05657-0.07092-0.91484 0.91484 0.39984 0.39755  0 155.32  75.22   86.88 155.23  75.24   87.01
   1   0 -11 23546.8   608.9   2 0.08360 0.04393-0.91474 0.91474-0.39529-0.40164  2 474.69 502.49  134.65 474.92 502.44  134.66
   1   0 -11 23497.4   527.4   2-0.04942 0.17687 0.90771-0.90771-0.41669-0.38051  0 161.32  69.42  266.97 161.26  69.48  266.95
   1   0  11 24284.9   485.1   1-0.21054 0.33821-0.87172 0.87172 0.44246 0.35457  0 101.17 158.08  152.36 101.02 158.15  152.40
   1   0  11 25398.3   512.1   2-0.06052 0.18801-0.90617 0.90617 0.41856 0.37882  0 109.05 139.90   85.78 108.64 139.89   85.81
  -1   0  12 -30.451 144.312   1-0.24111 0.11344-0.88024 0.88024 0.40871 0.46077  0 112.19  73.59  150.35 112.46  74.17  149.75
  -1   0  12  23.056 187.668   2-0.06396-0.06353-0.89820 0.89820 0.43491 0.43497  0 130.48  51.44   84.95 130.26  51.17   84.75
   1   0 -12 -10.475 185.381   2-0.04228 0.16973 0.89184-0.89184-0.45037-0.41930  0 142.86  38.94  265.19 142.66  38.61  264.77
   1   0  12  23.631 153.630   1-0.18335 0.31101-0.86285 0.86285 0.47104 0.39845  0  75.27 138.98  155.18  74.99 138.76  154.72
   1   0  12 -40.238 151.426   2-0.06810 0.19560-0.88826 0.88826 0.45426 0.41561  0  81.96 121.91   83.41  81.81 121.86   83.48
  -1  -1   0  11.685  24.822   1-0.39577 0.26828 0.37659-0.47590-0.83759 0.83759  0 262.97 247.13   24.35 263.13 246.92   24.48
  -1  -1   0   3.159  14.062   2-0.23583 0.10837 0.17088-0.27031 0.95665-0.95665  0 340.78 257.88   10.52 340.74 257.61   10.82
  -1  -1   0  -3.968  14.103   2 0.13510-0.26261-0.30459 0.20510-0.94285 0.94285  0 313.05 220.65  182.51 313.06 220.70  183.17
  -1   1   0 0.07361 14.6194   1-0.65084 0.52320-0.70438 0.80374-0.28330 0.28330  0 321.97 224.62  101.59 321.81 224.41  101.16
  -1   1   0  -5.453  16.249   2-0.21427 0.08681-0.14325 0.24268 0.96621-0.96621  0 307.64 219.58   28.57 307.51 219.37   28.96
  -1   1   0  -3.111  15.396   2 0.09625-0.22374 0.25473-0.15521-0.96221 0.96221  0 340.04 263.46  215.50 340.31 263.40  215.76
   1  -1   0   5.596  14.546   1-0.54802 0.67566-0.83563 0.73626-0.03746 0.03746  0 278.96 290.25  119.52 278.97 290.20  118.23
   1  -1   0  13.516  15.349   2-0.18717 0.31463-0.37133 0.27189 0.90944-0.90944  0 291.39 295.95   42.42 291.43 295.79   42.53
   1  -1   0   3.585  17.231   2 0.11929 0.00821 0.02139-0.12091-0.99263 0.99263  0 261.52 253.36  202.05 261.42 253.18  202.19
   1   1   0  21.517  23.608   1-0.29312 0.42061 0.50779-0.40848-0.81008 0.81008  0 339.35 269.45   15.09 339.33 269.48   14.79
   1   1   0  -0.130  14.024   2 0.12289 0.00462-0.02604 0.12553-0.99208 0.99208  0 286.09 294.12  199.68 285.90 294.00  199.48
   1   1   0  25.777  15.830   2-0.24095 0.36836 0.44014-0.34072 0.86500-0.86500  0 261.29 258.90  354.53 261.17 258.84  354.21
  -1  -1  -1  1729.0    66.1   1-0.18003 0.05254 0.62700-0.72631-0.75793 0.68536  0 257.69 256.14    4.98 257.88 256.13    4.91
  -1  -1  -1  1771.9    48.2   2-0.15704 0.02955-0.55288 0.45340 0.81833-0.89082  0 344.83 257.54   54.06 344.88 257.62   54.33
  -1  -1  -1  1759.2    47.4   2 0.07533-0.20282 0.40825-0.50777-0.90976 0.83728  0 314.38 217.03  224.91 314.39 217.05  225.17
  -1  -1   1  1496.6    57.3   1-0.59432 0.46683 0.01737-0.11668-0.80404 0.87662  0 262.81 237.67   48.03 263.00 237.68   48.23
  -1  -1   1  1644.1    53.7   2 0.11501-0.24252-0.76599 0.66650-0.63248 0.70496  0 304.93 215.09  151.35 304.99 215.15  150.86
  -1  -1   1  1742.6    55.7   2-0.23106 0.10366 0.65951-0.75898 0.71531-0.64281  0 343.93 267.24  338.79 343.97 267.28  338.91
  -1   1  -1  1470.8    55.5   1-0.61516 0.48752-0.76655 0.86591-0.18436 0.11193  0 337.61 233.59  108.03 337.61 233.61  108.16
  -1   1  -1  1638.7    51.1   2 0.13565-0.26316-0.34491 0.44440-0.92878 0.85630  0 344.51 263.45  180.82 344.48 263.42  180.73
  -1   1  -1  1556.4    50.5   2-0.24043 0.11302 0.46947-0.37006 0.84958-0.92211  0 308.61 215.66  352.23 308.74 215.74  352.30
  -1   1   1  1509.1    22.5   1-0.63875 0.51125-0.10527 0.20461-0.76218 0.83472  0 306.34 215.17   56.23 306.41 215.24   56.08
  -1   1   1  1843.4    58.8   2-0.14745 0.01996-0.60262 0.70210 0.78428-0.71179  0 300.26 214.92   58.00 300.33 215.01   57.82
  -1   1   1  1613.5    56.0   2 0.01851-0.14600 0.70085-0.60133-0.71307 0.78555  0 342.62 271.88  245.81 342.59 271.81  245.74
   1  -1  -1 544.338  15.025   1-0.54949 0.67713-0.83453 0.73516-0.04033-0.03211  2 293.41 300.15  118.06 293.70 300.05  118.03
   1  -1  -1  1808.8    58.8   2 0.05502 0.07247 0.52928-0.62880-0.84666 0.77418  0 259.27 245.49  232.86 259.41 245.40  233.07
   1  -1   1  1433.6    55.2   1-0.53208 0.65972-0.84667 0.74730-0.00701 0.07945  0 264.46 280.73  120.13 264.59 280.75  120.29
   1  -1   1  1571.2    49.6   2-0.23784 0.36530 0.22657-0.32601 0.94451-0.87194  0 290.02 299.51    7.62 290.12 299.40    7.53
   1  -1   1  1639.6    50.4   2 0.13139-0.00388-0.57681 0.47731-0.80625 0.87873  0 257.50 253.25  165.67 257.72 253.21  165.66
   1   1  -1  1577.3    58.5   1-0.50810 0.63559 0.19767-0.09837-0.83830 0.76573  0 339.47 279.30   36.59 339.49 279.25   36.60
   1   1  -1 162.161  21.601   2 0.13069-0.00318-0.59004 0.68953-0.79673 0.72425  2 293.30 300.19  164.75 293.72 300.07  164.73
   1   1  -1  1518.0    53.1   2-0.21135 0.33876 0.81816-0.71868 0.53474-0.60724  0 258.18 249.89  325.20 258.34 249.89  325.00
   1   1   1  1814.8    47.8   2-0.20010 0.32756-0.27248 0.37192 0.94112-0.86855  0 257.22 258.83   36.44 257.48 258.80   36.55
   1   1   1  1656.2    46.0   2 0.02675 0.10074 0.66628-0.56676-0.74522 0.81770  0 284.54 297.70  243.62 284.61 297.58  242.99
  -1  -1  -2 25192.8   233.2   1-0.12783 0.00016-0.84062 0.74124 0.52633-0.67124  0 355.76 265.62  159.35 355.71 265.63  159.39
  -1  -1  -2 24963.3   192.7   2-0.07767-0.04982-0.86358 0.76410 0.49819-0.64317  0 355.30 265.53   80.45 355.29 265.59   80.54
  -1  -1  -2 23816.4   188.4   2 0.00947-0.13696 0.73633-0.83585-0.67656 0.53160  0 310.05 205.65  248.80 310.10 205.69  248.71
  -1  -1   2 21115.8   194.2   1-0.68742 0.55992-0.31258 0.21323-0.65555 0.80064  0 257.29 228.42   69.98 257.54 228.43   69.74
  -1  -1   2 23526.2   211.1   2 0.08329-0.21082-0.91570 0.81613-0.39315 0.53804  0 293.93 205.48  134.46 294.04 205.55  134.52
  -1  -1   2 23286.1   209.9   2-0.21162 0.08422 0.81666-0.91613 0.53692-0.39193  0 350.51 281.33  325.02 350.54 281.35  325.15
  -1   1  -2 22230.4   216.5   1-0.60624 0.47859-0.77849 0.87786-0.16256 0.01769  0 354.12 242.95  109.98 354.13 243.00  109.67
  -1   1  -2 25799.8   205.0   2 0.12535-0.25286-0.66929 0.76879-0.73235 0.58739  0 354.27 270.65  159.00 354.27 270.63  158.86
  -1   1  -2 22396.6   191.8   2-0.21568 0.08827 0.79242-0.69294 0.57057-0.71557  0 304.93 205.12  327.59 305.04 205.21  327.56
  -1   1   2 24602.3   220.2   2-0.10333-0.02417-0.78519 0.88467 0.61058-0.46560  0 289.91 206.20   72.55 290.04 206.30   72.54
  -1   1   2 22827.9   212.2   2-0.03717-0.09028 0.87973-0.78022-0.47401 0.61896  0 348.47 285.06  263.04 348.41 284.98  263.23
   1  -1  -2 20772.5    80.9   1-0.60680 0.73444-0.77777 0.67841-0.16391 0.01903  0 308.07 310.52  109.60 308.16 310.48  109.58
   1  -1  -2 25800.6   224.6   2-0.05874 0.18624-0.91012 0.81064 0.41016-0.55514  0 308.58 310.37   86.17 308.64 310.32   86.35
   1  -1   2 24769.4   199.7   2 0.09947 0.02805-0.85361 0.75404-0.51133 0.65623  0 249.39 246.84  141.96 249.22 246.84  142.22
   1   1  -2 20068.3   188.9   1-0.63063 0.75813-0.08050 0.17984-0.77190 0.62681  0 345.70 289.46   54.36 345.69 289.46   54.48
   1   1  -2 22356.3   204.7   2-0.18130 0.30871 0.93100-0.83152 0.31682-0.46181  0 252.64 237.09  311.12 252.52 237.08  310.77
   1   1   2 26573.6   241.4   1 0.02492 0.10274-0.75319 0.85257 0.65733-0.51242  0 249.08 250.66  171.97 248.97 250.70  171.97
   1   1   2 25486.5   192.6   2-0.13447 0.26197-0.66337 0.76285 0.73611-0.59113  0 248.56 251.62   62.18 248.40 251.60   62.33
   1   1   2 23987.6   187.7   2-0.04935 0.17679 0.90755-0.80803-0.41704 0.56198  0 288.48 309.34  267.23 288.55 309.19  266.93
  -1  -1  -3 320.399  52.445   1-0.25927 0.13163-0.88450 0.78514 0.38786-0.60517  0 369.20 276.07  148.34 369.24 275.96  148.14
  -1  -1  -3 328.447  44.886   2-0.03382-0.09368-0.95683 0.85735 0.28866-0.50613  0 368.46 276.94   93.83 368.54 276.86   93.95
  -1  -1  -3 246.677  41.161   2-0.02245-0.10500 0.84098-0.94049-0.54060 0.32319  0 303.94 191.27  259.30 303.76 191.32  258.73
  -1  -1   3 203.679  36.829   1-0.69472 0.56722-0.53397 0.43462-0.48192 0.69955  0 248.51 218.88   86.19 248.36 219.04   85.90
  -1  -1   3 273.363  48.753   2 0.06022-0.18774-0.96898 0.86942-0.23967 0.45702  0 281.85 194.51  124.89 282.08 194.52  125.11
  -1  -1   3 237.974  45.885   2-0.20024 0.07283 0.87047-0.96995 0.44964-0.23216  0 358.61 297.31  318.88 358.51 297.39  319.23
  -1   1  -3 230.243  50.427   1-0.60797 0.48033-0.77626 0.87563-0.16671-0.05061  0 371.57 252.72  109.18 371.63 252.76  109.38
  -1   1  -3 279.663  43.287   2 0.11049-0.23801-0.79419 0.89376-0.59754 0.38020  0 366.88 281.22  148.26 367.05 281.35  148.26
  -1   1  -3 211.512  40.767   2-0.18761 0.06020 0.91420-0.81473 0.35922-0.57671  0 298.97 191.51  313.41 299.11 191.45  313.41
  -1   1   3 232.277  25.956   1-0.20824 0.08057-0.87107 0.97045 0.44483-0.22746  0 277.12 196.38  152.50 277.31 196.48  152.59
  -1   1   3 228.000  47.325   2-0.08093-0.04656-0.85488 0.95436 0.51247-0.29500  0 278.44 195.77   79.55 278.48 195.78   79.55
  -1   1   3 258.060  48.487   2-0.07182-0.05563 0.94882-0.84930-0.30755 0.52497  0 355.97 300.46  273.72 355.91 300.51  273.76
   1  -1  -3 232.977  25.970   1-0.61147 0.73911-0.77163 0.67227-0.17519-0.04212  0 323.78 321.72  109.01 323.72 321.68  108.79
   1  -1  -3 293.093  49.560   2-0.02755 0.15504-0.96604 0.86657 0.25690-0.47437  0 320.40 322.47   95.64 320.48 322.41   95.88
   1  -1  -3 215.683  40.050   2-0.01826 0.14571 0.82898-0.92850-0.55898 0.34156  0 247.55 219.76  257.42 247.62 219.81  257.45
   1  -1   3 214.822  39.468   1-0.49325 0.62089-0.86769 0.76833 0.06183 0.15548  0 235.87 262.55  124.98 235.88 262.42  124.98
   1  -1   3 240.097  36.430   2 0.07067 0.05686-0.94898 0.84942-0.30731 0.52465  0 238.55 237.70  129.23 238.46 237.70  129.20
   1   1  -3 221.079  41.117   1-0.67879 0.80629-0.26187 0.36121-0.68606 0.46843  0 356.38 300.21   66.32 356.42 300.25   66.32
   1   1  -3 297.152  48.353   2 0.09853 0.02899-0.85799 0.95756-0.50413 0.28678  0 316.47 323.16  141.66 316.60 323.24  141.74
   1   1  -3 220.566  39.391   2-0.16016 0.28757 0.97032-0.87085 0.18117-0.39866  0 245.60 222.88  302.61 245.53 222.94  302.55
   1   1   3 310.866  45.612   1-0.06895 0.19662-0.81143 0.91081 0.58037-0.36300  0 237.90 241.61  164.19 237.81 241.55  164.26
   1   1   3 256.880  37.099   2-0.09914 0.22663-0.79935 0.89883 0.59264-0.37517  0 237.29 241.86   73.87 237.26 241.88   73.87
   1   1   3  -1.694  25.558   2-0.08828 0.21573 0.97065-0.87114-0.22370 0.44111  2 293.57 324.13  278.62 294.37 324.14  278.83
  -1  -1  -4 19548.9   254.7   1-0.35255 0.22491-0.89529 0.79593 0.27231-0.56206  0 384.88 287.11  139.67 385.11 287.05  139.61
  -1  -1  -4 13802.8   204.4   2-0.00769-0.11984-0.98822 0.88865 0.15285-0.44265  0 383.40 289.75  101.80 383.49 289.70  102.11
  -1  -1  -4 16658.4   222.6   2-0.03683-0.09062 0.87891-0.97842-0.47557 0.18568  0 296.57 175.41  262.80 296.66 175.51  263.12
  -1  -1   4 15344.7   204.3   1-0.66556 0.53806-0.66878 0.56943-0.33130 0.62148  0 237.16 209.28   97.58 237.01 209.34   97.61
  -1  -1   4 18384.4   252.1   2 0.04275-0.17027-0.99041 0.89084-0.13141 0.42120  0 269.42 182.59  118.72 269.56 182.71  118.70
  -1  -1   4 17436.1   245.3   2-0.19481 0.06740 0.89100-0.99047 0.41009-0.12011  0 367.44 314.85  316.83 367.44 314.84  316.65
  -1   1  -4 16574.0   243.3   1-0.61444 0.48680-0.76755 0.86692-0.18257-0.10717  0 390.12 263.11  108.01 390.40 263.12  108.28
  -1   1  -4 19431.0   242.4   2 0.10123-0.22876-0.84508 0.94465-0.52496 0.23517  0 381.68 294.00  142.84 381.64 293.96  143.15
  -1   1  -4 15835.1   220.3   2-0.16523 0.03783 0.96300-0.86353 0.21290-0.50288  0 292.14 175.96  304.48 292.24 176.08  304.45
  -1   1   4 18874.9   173.7   1-0.27035 0.14271-0.88672 0.98608 0.37502-0.08527  0 262.43 186.38  147.02 262.68 186.53  147.16
  -1   1   4 19382.6   260.5   2-0.06990-0.05760-0.88383 0.98331 0.46257-0.17261  0 266.04 184.20   82.99 266.18 184.30   82.93
  -1   1   4 13233.4   218.6   2-0.09523-0.03221 0.97765-0.87813-0.18744 0.47733  0 364.53 317.73  281.14 364.48 317.64  280.98
   1  -1  -4 16119.7   160.9   1-0.62378 0.75142-0.75388 0.65452-0.20628-0.08346  0 339.88 333.99  106.73 339.92 333.90  106.63
   1  -1  -4 18262.9   251.9   2-0.00657 0.13410-0.98913 0.88956 0.14689-0.43668  0 333.45 336.21  102.41 333.40 336.09  102.46
   1  -1  -4 15415.4   229.6   2-0.03133 0.15878 0.86502-0.96453-0.50076 0.21087  0 240.26 205.11  261.43 240.15 205.14  261.45
   1  -1   4 16046.8   237.0   1-0.47188 0.59952-0.87627 0.77690 0.09740 0.19235  0 221.29 253.22  127.34 221.23 253.27  127.41
   1  -1   4 19091.2   237.2   2 0.04905 0.07848-0.98427 0.88471-0.16970 0.45949  0 226.67 227.42  121.07 226.55 227.44  120.95
   1  -1   4 17104.3   228.8   2-0.21430 0.34171 0.80102-0.90049 0.55897-0.26899  2 305.45 341.19  326.84 305.53 341.11  326.72
   1   1  -4 14620.2   202.3   1-0.69401 0.82151-0.36561 0.46495-0.62023 0.33005  0 370.25 311.96   73.30 370.25 311.93   73.41
   1   1  -4 18122.7   249.7   2 0.09180 0.03573-0.88619 0.98576-0.45414 0.16435  0 329.66 337.44  138.32 329.66 337.31  138.43
   1   1  -4 16243.2   234.2   2-0.14422 0.27167 0.98589-0.88637 0.08500-0.37488  0 237.93 208.00  296.96 237.83 208.02  296.91
   1   1   4 19120.1   249.7   1-0.12243 0.25009-0.83822 0.93760 0.53142-0.24159  0 225.34 232.11  159.96 225.28 232.18  159.83
   1   1   4 19563.4   236.0   2-0.08223 0.20972-0.85125 0.95073 0.51828-0.22832  0 225.21 231.29   78.94 225.09 231.29   79.15
  -1  -1  -5  2929.1   134.0   1-0.42178 0.29414-0.88955 0.79019 0.17548-0.53766  0 402.93 299.19  133.11 403.16 299.14  132.78
  -1  -1  -5  2816.3   129.8   2 0.01079-0.13831-0.99851 0.89895 0.05341-0.41565  0 399.97 304.00  108.00 400.16 303.98  107.93
  -1  -1  -5  2537.9   124.8   2-0.04289-0.08455 0.89326-0.99278-0.44749 0.08512  0 289.04 158.48  264.99 289.10 158.58  264.96
  -1  -1   5  2865.2   109.8   1-0.62484 0.49720-0.75216 0.65280-0.20935 0.57153  0 224.38 199.17  106.32 224.37 199.26  106.42
  -1  -1   5  2752.7   136.0   2 0.02839-0.15592-0.99848 0.89892-0.04720 0.40944  0 256.48 170.16  114.14 256.52 170.22  113.78
  -1  -1   5  2653.7   137.1   2-0.19281 0.06541 0.89783-0.99730 0.39590-0.03342  0 377.32 333.78  315.72 377.26 333.76  315.74
  -1   1  -5  2681.2   136.0   1-0.62317 0.49553-0.75483 0.85419-0.20468-0.15750  0 410.57 274.36  106.93 410.79 274.29  106.74
  -1   1  -5  3077.8   133.5   2 0.09654-0.22407-0.86667 0.96624-0.48945 0.12721  0 397.75 308.17  140.74 398.02 308.10  140.76
  -1   1  -5  2321.3   124.0   2-0.14753 0.02008 0.98350-0.88398 0.10473-0.46709  0 284.69 159.34  298.11 284.85 159.47  298.07
  -1   1   5  2898.1    92.2   1-0.28139 0.15375-0.88875 0.98811 0.36187 0.00031  0 248.02 175.83  146.04 247.98 175.97  146.17
  -1   1   5  3004.3   130.1   2-0.06508-0.06241-0.89554 0.99502 0.44020-0.07775  0 253.48 171.97   84.38 253.28 172.07   84.41
  -1   1   5  2673.3   140.0   2-0.11269-0.01476 0.98917-0.88966-0.09403 0.45639  0 374.10 336.47  286.49 373.99 336.34  286.47
   1  -1  -5  2493.5    95.4   1-0.63642 0.76406-0.73291 0.63355-0.24043-0.12176  0 357.10 347.54  104.07 357.08 347.46  104.22
   1  -1  -5  2922.3   141.9   2 0.00952 0.11801-0.99813 0.89856 0.06045-0.42269  0 347.58 351.60  107.51 347.48 351.43  107.52
   1  -1  -5  2673.8   122.0   2-0.03754 0.16498 0.88063-0.98015-0.47231 0.10995  0 232.04 189.62  263.28 231.98 189.64  263.34
   1  -1   5  2736.0   125.2   1-0.44950 0.57714-0.88328 0.78391 0.13330 0.22888  0 206.26 243.84  129.93 206.18 243.91  129.87
   1  -1   5  2987.0   122.5   2 0.03204 0.09548-0.99716 0.89760-0.06811 0.43035  0 213.84 216.49  115.13 213.72 216.54  115.00
   1  -1   5  2728.3   129.9   2-0.20928 0.33669 0.82915-0.92862 0.51838-0.15590  0 312.40 359.42  323.75 312.48 359.32  323.86
   1   1  -5  2260.9   111.7   1-0.69781 0.82532-0.42252 0.52186-0.57839 0.21567  0 386.16 324.86   77.36 386.49 324.81   77.46
   1   1  -5  2921.4   142.7   2 0.08875 0.03878-0.89720 0.99677-0.43261 0.07037  0 343.76 353.10  137.20 343.74 352.88  137.04
   1   1  -5  2778.5   125.3   2-0.13101 0.25846 0.99134-0.89183 0.00891-0.37128  0 229.53 192.31  292.47 229.48 192.39  292.47
   1   1   5  2917.1   122.9   1-0.15097 0.27864-0.85054 0.94992 0.50378-0.14149  0 211.77 222.39  157.39 211.74 222.49  157.45
   1   1   5  2703.8   114.0   2-0.07431 0.20181-0.87251 0.97199 0.48291-0.12047  0 212.19 220.23   81.58 212.09 220.22   81.58
   1   1   5  1167.4    97.1   2-0.12771 0.25516 0.99176-0.89224-0.01019 0.37255  0 307.85 359.50  291.32 307.89 359.34  291.36
  -1  -1  -6 17982.6   301.4   1-0.47508 0.34744-0.87510 0.77574 0.09218-0.52680  0 423.27 312.66  127.00 423.50 312.54  127.05
  -1  -1  -6 18292.1   295.1   2 0.02469-0.15222-0.99936 0.89980-0.02579-0.40890  0 418.63 319.81  112.54 418.78 319.71  112.53
  -1  -1  -6 15610.0   274.5   2-0.04455-0.08289 0.89703-0.99655-0.43971 0.00488  0 281.06 140.29  265.46 281.16 140.45  265.47
  -1  -1   6 15703.4   250.7   1-0.58211 0.45447-0.80593 0.70657-0.10780 0.54242  0 210.54 188.32  113.35 210.53 188.43  113.44
  -1  -1   6 18074.0   306.0   2 0.01624-0.14377-0.99960 0.90003 0.02326 0.41143  0 242.97 156.86  109.70 242.85 157.02  109.68
  -1  -1   6 16881.0   305.6   2-0.19287 0.06546 0.89763-0.99711 0.39631 0.03867  0 387.78 354.45  316.01 388.10 354.43  315.77
  -1   1  -6 16570.1   297.6   1-0.63277 0.50513-0.73921 0.83858-0.23058-0.20404  0 433.10 286.66  105.09 433.30 286.61  104.93
  -1   1  -6 18858.9   303.4   2 0.09469-0.22221-0.87458 0.97414-0.47555 0.04087  0 416.08 323.88  139.86 416.35 323.82  139.84
  -1   1  -6 15924.8   283.4   2-0.13262 0.00518 0.99100-0.89149 0.01819-0.45302  0 276.80 141.43  293.00 276.93 141.59  293.01
  -1   1   6 18216.8   230.6   1-0.27499 0.14735-0.88758 0.98694 0.36957 0.06505  0 233.03 164.41  146.95 233.03 164.58  146.75
  -1   1   6 18621.6   309.7   2-0.06384-0.06365-0.89849 0.99797 0.43432 0.00061  0 239.81 158.99   85.00 239.68 159.07   84.79
  -1   1   6 15372.0   296.7   2-0.12658-0.00087 0.99182-0.89230-0.01660 0.45144  0 384.38 357.02  291.09 384.55 356.87  290.99
   1  -1  -6 15078.6   217.4   1-0.64839 0.77603-0.70968 0.61032-0.27558-0.15904  0 375.49 362.81  101.78 375.47 362.72  101.72
   1  -1  -6 19655.5   325.8   2 0.02231 0.10521-0.99968 0.90011-0.01193-0.42276  0 363.11 368.74  111.80 362.90 368.54  111.73
   1  -1  -6 16660.1   293.3   2-0.03980 0.16724 0.88603-0.98554-0.46192 0.02709  0 223.17 173.16  264.16 223.06 173.21  264.02
   1  -1   6 17016.8   292.5   1-0.42587 0.55351-0.88881 0.78944 0.16928 0.26534  0 190.52 234.11  132.23 190.52 234.18  132.36
   1  -1   6 18374.5   291.1   2 0.01803 0.10950-0.99975 0.90018 0.01317 0.42152  0 200.05 205.08  110.01 199.97 205.15  110.27
   1  -1   6 16709.0   286.1   2-0.20697 0.33438 0.84069-0.94016 0.50040-0.06542  0 319.81 379.57  322.69 319.90 379.44  322.63
   1   1  -6 13760.4   243.6   1-0.69830 0.82580-0.45170 0.55104-0.55529 0.12003  0 404.70 339.31   79.60 405.07 339.25   79.58
   1   1  -6 18092.1   312.7   2 0.08806 0.03946-0.89963 0.99920-0.42768-0.00701  0 359.13 370.39  136.73 359.08 370.21  136.72
   1   1  -6 15845.2   285.8   2-0.11961 0.24706 0.99126-0.89174-0.05568-0.37915  0 220.55 175.87  288.77 220.44 175.92  288.71
   1   1   6 17386.2   286.0   1-0.16370 0.29137-0.85557 0.95495 0.49113-0.05638  0 197.22 212.16  156.33 197.25 212.27  156.38
   1   1   6 17592.7   281.9   2-0.07144 0.19893-0.87992 0.97940 0.46973-0.03479  0 198.30 208.71   82.42 198.22 208.73   82.46
   1   1   6 16010.3   276.9   2-0.14032 0.26777 0.98813-0.88862 0.06247 0.37237  0 315.21 379.77  295.62 315.22 379.57  295.59
  -1  -1  -7  1402.4   170.4   1-0.51792 0.39028-0.85522 0.75586 0.01864-0.52570  0 446.41 327.99  121.96 446.54 327.78  122.04
  -1  -1  -7  1253.1   152.4   2 0.03629-0.16381-0.99499 0.89542-0.09315-0.41398  0 439.78 337.36  116.44 439.85 337.27  116.46
  -1  -1  -7  1151.7   126.6   2-0.04364-0.08381 0.89496-0.99447-0.44402-0.06329  0 272.71 120.56  265.26 272.77 120.85  265.19
  -1  -1   7  1341.6   108.9   1-0.53977 0.41213-0.84154 0.74217-0.02145 0.52851  0 195.56 176.59  119.23 195.69 176.71  119.31
  -1  -1   7  1387.4   140.8   2 0.00504-0.13256-0.99637 0.89680 0.08502 0.42211  0 228.40 142.84  105.90 228.34 142.94  106.09
  -1  -1   7  1082.8   136.8   2-0.19420 0.06680 0.89310-0.99257 0.40578 0.10169  0 399.97 377.25  316.41 400.18 377.34  316.38
  -1   1  -7  1379.3   160.5   1-0.64282 0.51518-0.72097 0.82034-0.25880-0.24826  0 458.41 300.57  102.81 458.56 300.52  102.92
  -1   1  -7  1510.0   161.3   2 0.09460-0.22213-0.87492 0.97449-0.47494-0.03220  0 437.04 341.55  139.82 437.13 341.43  139.80
  -1   1  -7  1342.8   153.8   2-0.11975-0.00769 0.99129-0.89177-0.05488-0.45242  0 268.37 122.18  289.20 268.53 122.23  288.76
  -1   1   7  1300.1    99.8   1-0.25977 0.13213-0.88461 0.98397 0.38729 0.11977  0 217.51 151.90  148.11 217.62 152.09  148.10
  -1   1   7  1445.7   135.8   2-0.06481-0.06269-0.89620 0.99568 0.43890 0.06853  0 225.24 145.16   84.48 225.20 145.18   84.49
  -1   1   7  1370.7   146.6   2-0.13823 0.01078 0.98910-0.88959 0.05067 0.45663  0 396.02 379.69  294.79 396.30 379.67  294.90
   1  -1  -7  1292.7   126.7   1-0.65992 0.78743-0.68368 0.58434-0.31158-0.19623  0 395.43 380.34   99.23 395.77 380.28   99.06
   1  -1  -7  1338.8   143.7   2 0.03327 0.09425-0.99660 0.89704-0.07534-0.43179  0 380.11 388.05  115.38 380.01 387.87  115.42
   1  -1  -7  1269.5   131.5   2-0.03955 0.16700 0.88545-0.98496-0.46305-0.04425  0 213.37 155.65  264.14 213.33 155.65  263.95
   1  -1   7  1308.5   126.2   1-0.40125 0.52889-0.89264 0.79328 0.20541 0.30165  0 174.02 223.72  135.09 174.06 223.90  134.86
   1  -1   7  1353.4   128.7   2 0.00553 0.12200-0.99659 0.89702 0.08232 0.42481  0 185.10 193.15  106.29 185.14 193.19  106.25
   1  -1   7  1262.3   155.2   2-0.20648 0.33388 0.84308-0.94255 0.49657 0.01090  0 327.77 401.82  322.40 327.82 401.83  322.37
   1   1  -7  1121.0   119.5   1-0.69828 0.82578-0.46338 0.56272-0.54561 0.03780  0 425.98 355.73   80.43 426.12 355.76   80.45
   1   1  -7  1426.6   172.5   2 0.08882 0.03870-0.89694 0.99651-0.43314-0.07400  0 376.13 389.75  136.91 376.03 389.72  137.07
   1   1  -7  1282.2   132.2   2-0.10917 0.23662 0.98757-0.88805-0.11312-0.39418  0 210.69 158.48  285.39 210.58 158.37  285.35
   1   1   7  1261.1   121.7   1-0.16586 0.29352-0.85640 0.95578 0.48895 0.01825  0 181.70 201.33  156.00 181.77 201.34  156.20
   1   1   7  1404.6   124.6   2-0.07148 0.19898-0.87981 0.97929 0.46993 0.03750  0 183.15 196.80   82.39 183.27 196.75   82.45
   1   1   7  1455.1   161.3   2-0.15089 0.27834 0.98062-0.88110 0.12497 0.38234  0 323.05 402.10  299.28 323.00 402.03  299.26
  -1  -1  -8  7352.1   263.6   1-0.55333 0.42569-0.83158 0.73222-0.04786-0.53164  0 472.91 345.58  117.52 473.01 345.47  117.52
  -1  -1  -8  7803.5   279.0   2 0.04634-0.17387-0.98714 0.88757-0.15299-0.42659  0 464.10 357.32  120.14 464.15 357.21  119.97
  -1  -1  -8  6744.5   255.4   2-0.04107-0.08638 0.88903-0.98854-0.45600-0.12377  0 263.72  99.15  264.40 263.81  99.37  264.41
  -1  -1   8  7007.0   213.0   1-0.49768 0.37004-0.86566 0.76630 0.05427 0.52522  0 179.61 163.65  124.39 179.72 163.79  124.47
  -1  -1   8  7327.3   255.4   2-0.00549-0.12204-0.98998 0.89041 0.14110 0.43848  0 212.82 127.58  103.01 212.73 127.73  102.80
  -1  -1   8  7011.9   284.6   2-0.19636 0.06896 0.88544-0.98491 0.42124 0.15873  0 413.63 403.23  317.41 413.84 403.14  317.37
  -1   1  -8  6523.3   264.3   1-0.65255 0.52491-0.70058 0.79995-0.28872-0.29078  0 487.34 316.62  100.71 487.43 316.53  100.77
  -1   1  -8  7342.4   271.9   2 0.09568-0.22320-0.87040 0.96997-0.48295-0.09663  0 460.86 361.56  140.27 461.09 361.45  140.33
  -1   1  -8  6846.0   266.8   2-0.10803-0.01941 0.98697-0.88745-0.11928-0.46049  0 259.34 100.78  284.80 259.51 100.98  284.99
  -1   1   8  7865.1   202.0   1-0.23952 0.11185-0.87984 0.97922 0.41050 0.16916  0 201.41 137.96  149.99 201.51 138.14  149.88
  -1   1   8  8111.2   262.7   2-0.06728-0.06021-0.89027 0.98975 0.45043 0.12948  0 209.71 130.03   83.77 209.60 130.17   83.74
  -1   1   8  7052.0   287.9   2-0.14859 0.02115 0.98264-0.88312 0.11111 0.46867  0 409.37 405.49  298.45 409.60 405.41  298.44
   1  -1  -8  6268.6   209.1   1-0.66975 0.79725-0.65626 0.55692-0.34749-0.23286  0 417.54 400.83   96.42 417.97 400.77   96.42
   1  -1  -8  7764.7   288.1   2 0.04298 0.08455-0.99021 0.89064-0.13281-0.44677  0 399.23 410.26  118.78 399.34 410.03  118.79
   1  -1  -8  6797.2   242.8   2-0.03762 0.16507 0.88085-0.98036-0.47190-0.10788  0 202.67 136.54  263.31 202.62 136.64  263.37
   1  -1   8  7092.0   234.6   1-0.37534 0.50298-0.89486 0.79549 0.24156 0.33794  0 156.41 212.74  137.36 156.52 212.83  137.41
   1  -1   8  7543.5   242.5   2-0.00597 0.13350-0.98961 0.89004 0.14368 0.43590  0 168.98 180.42  102.63 168.93 180.54  102.65
   1  -1   8  7359.2   267.8   2-0.20719 0.33459 0.83966-0.93914 0.50204 0.07793  0 336.34 427.27  322.75 336.37 427.08  322.74
   1   1  -8  5636.0   225.1   1-0.69827 0.82578-0.46357 0.56291-0.54545-0.03490  0 449.82 375.11   80.42 450.19 375.05   80.46
   1   1  -8  7526.5   289.8   2 0.09061 0.03692-0.89071 0.99028-0.44545-0.13413  0 394.89 412.24  137.82 395.12 412.04  137.87
   1   1  -8  6908.1   242.8   2-0.09933 0.22678 0.98113-0.88162-0.16587-0.41391  0 199.74 139.30  282.27 199.71 139.43  282.25
   1   1   8  7333.4   232.5   1-0.16053 0.28820-0.85437 0.95375 0.49424 0.08542  0 165.05 189.30  156.67 165.14 189.44  156.64
   1   1   8  8118.5   248.4   2-0.07340 0.20089-0.87489 0.97437 0.47872 0.10119  0 167.07 184.14   81.74 166.98 184.14   81.86
   1   1   8  6925.3   256.9   2-0.16018 0.28758 0.97030-0.87083 0.18127 0.39869  0 331.34 427.53  302.60 331.36 427.33  302.56
  -1  -1  -9  -8.390 147.132   1-0.58276 0.45512-0.80528 0.70591-0.10920-0.54273  2 503.18 366.25  113.62 503.99 366.47  113.35
  -1  -1  -9 -35.750 145.960   2 0.05515-0.18267-0.97663 0.87706-0.20774-0.44429  0 492.37 380.07  124.21 492.78 380.23  123.20
  -1  -1  -9 -88.080  98.066   2-0.03735-0.09010 0.88018-0.97970-0.47316-0.17909  0 254.36  75.13  264.21 254.14  75.47  263.28
  -1  -1   9  18.141  93.960   1-0.45638 0.32874-0.88133 0.78197 0.12235 0.52958  0 162.57 149.34  129.43 162.42 149.31  129.12
  -1  -1   9 -22.888 105.206   2-0.01547-0.11206-0.98103 0.88146 0.19326 0.45877  0 195.59 111.06   98.89 195.69 111.05   99.70
  -1  -1   9 239.538 167.833   2-0.19904 0.07163 0.87525-0.97472 0.44083 0.21164  0 429.82 432.71  318.48 429.56 432.82  318.65
  -1   1  -9 162.652 155.952   2 0.09752-0.22504-0.86234 0.96191-0.49684-0.15519  0 488.93 384.47  141.38 489.32 384.69  141.25
  -1   1  -9  34.693  98.026   2-0.09708-0.03037 0.97927-0.87975-0.17779-0.47446  0 249.68  77.15  281.68 249.71  77.30  281.55
  -1   1   9  -9.602  77.985   1-0.21561 0.08794-0.87324 0.97262 0.43700 0.21512  0 184.49 122.37  151.47 184.46 122.31  151.97
  -1   1   9 -39.500 106.438   2-0.07082-0.05667-0.88151 0.98099 0.46682 0.18559  0 192.60 113.85   82.59 192.52 113.73   82.65
  -1   1   9 145.276 164.065   2-0.15788 0.03048 0.97323-0.87375 0.16705 0.48542  0 425.15 435.32  301.41 424.91 435.08  301.72
   1  -1  -9  97.436 124.255   1-0.67842 0.80592-0.62657 0.52723-0.38361-0.26929  0 443.16 425.00   94.40 443.16 425.29   93.69
   1  -1  -9  75.093 161.609   2 0.05171 0.07581-0.98116 0.88159-0.18615-0.46588  0 421.38 435.84  120.90 421.61 435.86  121.92
   1  -1  -9  13.329 107.467   2-0.03453 0.16198 0.87320-0.97271-0.48614-0.16611  0 190.79 115.97  263.16 190.63 115.76  262.42
   1  -1   9 106.192  98.221   1-0.34839 0.47603-0.89524 0.79588 0.27779 0.37414  0 137.57 200.55  140.58 137.54 200.66  140.00
   1  -1   9  33.480  96.261   2-0.01656 0.14405-0.97963 0.88015 0.20010 0.45230  0 150.81 166.91   98.84 151.00 166.92   99.28
   1  -1   9 109.861 147.399   2-0.20871 0.33611 0.83209-0.93157 0.51387 0.13860  0 345.83 455.97  323.56 345.71 456.04  323.55
   1   1  -9 126.732 147.156   1-0.69831 0.82581-0.45553 0.55487-0.55214-0.10075  0 478.09 398.05   80.24 478.11 398.08   79.86
   1   1  -9  87.516 159.334   2 0.09295 0.03458-0.88171 0.98127-0.46255-0.18948  0 416.80 438.05  137.90 417.09 438.07  138.98
   1   1  -9  42.250  98.701   2-0.08988 0.21733 0.97239-0.87287-0.21537-0.43688  0 187.49 118.68  280.16 187.55 118.64  279.32
   1   1   9  63.947  92.873   1-0.14975 0.27742-0.85004 0.94942 0.50499 0.14713  0 147.17 176.11  157.41 147.05 176.20  157.55
   1   1   9  99.832  96.957   2-0.07660 0.20409-0.86646 0.96594 0.49333 0.15907  0 149.24 170.66   80.72 148.97 170.71   80.87
   1   1   9  40.799 140.187   2-0.16848 0.29588 0.95774-0.85827 0.23314 0.41933  0 340.36 456.59  304.84 340.38 456.27  305.67
  -1  -1 -10  1375.7   181.0   2-0.03283-0.09462 0.86888-0.96839-0.49394-0.23079  0 243.48  48.17  261.64 243.48  48.33  261.90
  -1  -1  10  1361.2   154.5   1-0.41538 0.28774-0.89066 0.79130 0.18488 0.53949  0 143.37 132.65  133.36 143.44 132.67  133.43
  -1  -1  10  1167.5   177.6   2-0.02483-0.10266-0.96970 0.87022 0.24304 0.48185  0 176.90  92.46   97.00 176.71  92.48   96.72
  -1  -1  10  1400.5   248.5   2-0.20205 0.07465 0.86282-0.96229 0.46338 0.26158  0 447.73 467.55  320.41 448.09 467.75  320.14
  -1   1 -10 964.224 162.622   2-0.08665-0.04080 0.96882-0.86930-0.23213-0.49259  0 238.92  50.06  277.84 238.85  50.41  278.32
  -1   1  10  1453.3   162.6   1-0.18851 0.06084-0.86462 0.96400 0.46572 0.25885  0 166.11 104.06  154.33 166.15 103.96  154.28
  -1   1  10  1610.2   192.0   2-0.07515-0.05235-0.87033 0.96981 0.48671 0.23819  0 173.63  95.52   81.42 173.50  95.44   81.32
  -1   1  10  1521.5   255.7   2-0.16626 0.03885 0.96137-0.86190 0.21937 0.50559  0 442.98 470.31  305.17 442.91 469.97  304.84
   1  -1 -10  1011.9   189.7   1-0.68572 0.81323-0.59458 0.49524-0.41983-0.30561  0 472.12 455.41   90.75 472.29 455.33   90.89
   1  -1 -10  1581.5   250.7   2 0.05972 0.06781-0.96979 0.87023-0.23651-0.48797  0 447.96 467.02  125.17 448.04 466.81  124.92
   1  -1 -10  1021.4   169.2   2-0.03056 0.15800 0.86300-0.96252-0.50428-0.22045  0 176.94  92.11  260.88 177.02  92.38  261.21
   1  -1  10  1315.4   159.6   1-0.32033 0.44797-0.89372 0.79435 0.31410 0.41027  0 116.79 186.98  142.64 116.71 187.02  142.63
   1  -1  10  1253.4   160.6   2-0.02667 0.15417-0.96725 0.86777 0.25244 0.47246  0 130.83 152.20   95.83 130.87 152.24   96.15
   1  -1  10  1431.6   225.7   2-0.21079 0.33819 0.82124-0.92071 0.53023 0.19473  0 356.18 490.51  324.60 356.11 490.01  324.69
   1   1 -10  1303.6   245.0   2 0.09569 0.03183-0.87034 0.96990-0.48307-0.24141  0 442.81 469.31  140.42 443.03 469.19  140.34
   1   1 -10  1099.8   171.0   2-0.08068 0.20813 0.96154-0.86202-0.26256-0.46217  0 173.71  95.25  276.46 173.77  95.43  276.50
   1   1  10  1006.9   145.1   1-0.13463 0.26230-0.84363 0.94301 0.51978 0.20479  0 127.11 161.17  159.17 127.13 161.18  158.82
   1   1  10  1179.1   157.5   2-0.08084 0.20833-0.85514 0.95462 0.51206 0.21284  0 128.77 156.23   79.67 128.77 156.22   79.58
   1   1  10  1147.2   214.0   2-0.17601 0.30341 0.94312-0.84365 0.28202 0.44294  0 350.41 490.66  309.23 350.38 490.17  308.63
  -1  -1 -11 293.872 168.603   2-0.02767-0.09978 0.85533-0.95484-0.51734-0.27985  0 231.39  16.23  260.38 231.48  16.78  260.33
  -1  -1  11 216.631 130.438   1-0.37418 0.24654-0.89487 0.79551 0.24329 0.55352  0 122.20 112.97  137.56 122.31 113.27  137.53
  -1  -1  11 164.904 163.306   2-0.03415-0.09334-0.95632 0.85684 0.29032 0.50706  0 155.19  71.53   94.08 155.13  71.43   93.85
  -1   1 -11 264.766 166.700   2-0.07663-0.05082 0.95593-0.85642-0.28342-0.51378  0 226.48  19.12  275.49 226.62  19.19  275.23
  -1   1  11 200.019 128.860   1-0.15884 0.03117-0.85371 0.95309 0.49594 0.30109  0 146.02  81.85  157.40 146.04  82.29  156.79
  -1   1  11 185.896 168.825   2-0.08020-0.04729-0.85692 0.95640 0.50917 0.28821  0 152.41  75.28   80.12 151.90  74.77   79.78
   1  -1 -11 -28.997 147.327   2-0.02590 0.15334 0.85052-0.95003-0.52531-0.27189  0 161.42  66.03  259.58 161.29  65.67  259.78
   1  -1  11 297.653 138.745   1-0.29097 0.41861-0.89025 0.79089 0.35041 0.44639  0  92.99 171.37  145.32  93.36 171.38  145.31
   1  -1  11 362.261 147.474   2-0.03650 0.16399-0.95258 0.85310 0.30209 0.49530  0 107.55 136.08   92.83 107.78 136.03   93.13
   1   1 -11 132.903 165.526   2-0.07172 0.19917 0.94867-0.84915-0.30804-0.48916  0 158.12  69.15  273.71 157.83  68.95  273.73
   1   1  11 103.184 135.602   1-0.11586 0.24353-0.83518 0.93456 0.53763 0.25940  0 104.59 143.69  160.35 104.81 143.76  160.38
   1   1  11 244.606 145.081   2-0.08567 0.21317-0.84129 0.94077 0.53375 0.26364  0 105.62 140.12   77.80 105.62 140.25   78.09
  -1  -1  12  2837.6   249.8   1-0.33245 0.20481-0.89461 0.79524 0.29859 0.57065  0  98.17  89.69  141.48  98.28  89.89  141.50
  -1  -1  12  2797.4   347.9   2-0.04337-0.08412-0.94086 0.84138 0.33601 0.53386  0 130.08  46.92   90.86 130.08  47.04   91.04
  -1   1  12  2675.9   260.9   1-0.12693-0.00074-0.84021 0.93959 0.52719 0.34229  0 123.51  55.70  159.46 123.49  55.91  159.46
  -1   1  12  2181.8   274.9   2-0.08565-0.04185-0.84137 0.94085 0.53364 0.33624  0 126.58  50.41   77.84 126.72  50.75   78.09
   1  -1 -12  2663.0   287.3   2-0.02066 0.14811 0.83587-0.93538-0.54854-0.32113  0 142.66  34.12  258.32 142.67  34.36  258.18
   1  -1  12  2558.0   291.0   1-0.26024 0.38788-0.88470 0.78534 0.38675 0.48249  0  66.71 152.75  148.11  66.64 152.96  148.06
   1  -1  12  2462.4   286.7   2-0.04617 0.17367-0.93571 0.83623 0.34973 0.52015  0  81.14 117.77   89.81  80.82 117.77   90.18
   1   1 -12  2662.5   279.5   2-0.06278 0.19023 0.93381-0.83430-0.35221-0.51745  0 139.12  37.99  271.39 138.96  37.96  271.02
   1   1  12  2415.8   282.8   1-0.09420 0.22187-0.82456 0.92394 0.55787 0.31161  0  79.40 123.08  162.06  79.29 123.08  162.19
   1   1  12  2495.2   282.2   2-0.09110 0.21859-0.82505 0.92453 0.55767 0.31220  0  78.23 122.24   76.36  78.55 122.31   76.40
  -1  -2   0 33025.4   278.9   1-0.51286 0.38537 0.18897-0.38759-0.83742 0.83742  0 244.08 257.42   37.00 244.00 257.34   37.17
  -1  -2   0 33832.6   252.7   2-0.22663 0.09918 0.00497-0.20384 0.97397-0.97397  0 358.08 276.94   20.35 358.09 276.95   20.40
  -1  -2   0 34646.1   256.9   2 0.13332-0.26083-0.22578 0.02679-0.96501 0.96501  0 300.34 200.15  188.13 300.39 200.21  187.88
  -1   2   0 27578.3   204.5   1-0.68537 0.55786-0.29957 0.49826-0.66373 0.66373  0 338.76 212.06   69.11 338.73 212.18   68.86
  -1   2   0 36305.0   275.3   2-0.22589 0.09843-0.00449 0.20337 0.97414-0.97414  0 291.74 201.01   21.10 291.86 201.09   20.94
  -1   2   0 35336.8   270.6   2 0.10195-0.22944 0.20565-0.00662-0.97330 0.97330  0 354.46 285.13  213.06 354.39 285.08  212.86
   1  -2   0 25259.2   196.8   1-0.68812 0.81562-0.58185 0.38316-0.43353 0.43353  0 263.40 300.93   89.99 263.58 300.86   89.81
   1  -2   0 35439.8   270.8   2-0.20051 0.32797-0.26879 0.06992 0.94210-0.94210  0 306.64 315.56   35.82 306.71 315.49   36.34
   1  -2   0 31267.0   254.1   2 0.12513 0.00238-0.06017-0.13882-0.99031 0.99031  0 249.17 233.66  197.48 248.99 233.61  197.52
   1   2   0 32737.6   277.9   1-0.38710 0.51459 0.38870-0.19008-0.83610 0.83610  0 361.77 258.33   23.66 361.72 258.35   23.62
   1   2   0 29905.6   236.9   2-0.23969 0.36715 0.29390-0.09503 0.92530-0.92530  0 246.16 241.34    3.53 246.00 241.30    3.52
  -1  -2  -1 55986.1   371.6   1-0.38142 0.25393 0.39648-0.59509-0.83506 0.76248  0 242.13 266.60   23.00 242.07 266.57   23.06
  -1  -2  -1 61153.5   342.1   2-0.18792 0.06046-0.36572 0.16685 0.91156-0.98413  0 361.65 275.96   41.89 361.69 276.01   42.19
  -1  -2  -1 60045.2   339.9   2 0.10942-0.23691 0.13497-0.33401-0.98479 0.91231  0 302.36 197.37  208.88 302.38 197.42  208.74
  -1  -2   1 51788.9   355.7   1-0.61775 0.49025-0.04374-0.15495-0.78516 0.85770  0 242.27 248.23   52.00 242.18 248.20   52.13
  -1  -2   1 58078.8   349.3   2 0.13303-0.26054-0.54122 0.34223-0.83029 0.90277  0 294.62 197.80  167.97 294.71 197.87  168.12
  -1   2  -1 46083.3   303.2   1-0.69779 0.57029-0.48632 0.68501-0.52591 0.45337  0 352.45 221.44   81.85 352.40 221.53   82.18
  -1   2  -1 58326.9   351.1   2 0.12872-0.25623-0.12242 0.32141-0.98410 0.91162  0 358.21 284.49  194.10 358.16 284.43  193.92
  -1   2   1 49307.5   232.7   1-0.56077 0.43328 0.09411 0.10451-0.82260 0.89518  0 328.21 202.51   43.13 328.25 202.60   43.32
  -1   2   1 60271.6   368.5   2-0.19528 0.06782-0.31105 0.50992 0.93012-0.85754  0 286.58 199.34   39.06 286.73 199.43   38.86
  -1   2   1 55080.9   351.4   2 0.05938-0.18688 0.50511-0.30608-0.86101 0.93348  0 354.62 290.89  231.41 354.57 290.81  231.44
   1  -2  -1 40788.1   213.3   1-0.69481 0.82231-0.37541 0.17672-0.61344 0.54090  0 272.89 310.79   74.01 273.07 310.69   74.09
   1  -2  -1 60770.6   368.4   2-0.15712 0.28462-0.55247 0.35351 0.81859-0.89108  0 311.90 317.79   53.82 311.96 317.76   54.30
   1  -2  -1 59794.3   365.7   2 0.09586 0.03163 0.25794-0.45698-0.96139 0.88891  0 248.99 228.47  216.06 248.82 228.41  215.96
   1  -2   1 41488.8   288.7   1-0.65830 0.78580-0.68771 0.48903-0.30609 0.37863  0 251.82 291.41   99.42 251.71 291.32   99.46
   1  -2   1 53777.6   351.8   2-0.22974 0.35720 0.05385-0.25272 0.97176-0.89919  2 304.91 318.51   17.62 304.84 318.43   17.59
   1  -2   1 52120.5   331.4   2 0.13596-0.00845-0.39704 0.19805-0.90768 0.98016  0 245.96 234.42  177.48 245.79 234.38  177.52
   1   2  -1 52584.0   355.6   1-0.51763 0.64512 0.18012 0.01850-0.83643 0.76386  0 363.97 268.45   37.92 363.92 268.45   37.75
   1   2  -1 54751.6   337.6   2-0.23608 0.36349 0.58689-0.38794 0.77449-0.84698  0 245.51 235.58  344.24 245.38 235.58  344.29
   1   2   1 55302.6   365.3   1-0.22468 0.35217 0.58300-0.38439-0.78079 0.85336  0 364.07 248.23    8.96 364.04 248.21    8.74
   1   2   1 60131.7   338.1   2-0.22177 0.34923-0.05951 0.25838 0.97328-0.90071  0 243.15 242.36   23.80 243.01 242.34   24.11
  -1  -2  -2  5512.3   128.4   1-0.25498 0.12749 0.55106-0.74968-0.79455 0.64940  0 236.79 275.88   11.35 236.69 275.82   11.38
  -1  -2  -2  6277.1   126.4   2-0.13745 0.00995-0.64981 0.45086 0.74756-0.89254  0 369.42 280.23   60.72 369.42 280.29   61.30
  -1  -2  -2  5785.0   122.4   2 0.07370-0.20120 0.41881-0.61785-0.90508 0.76012  0 300.85 189.63  226.29 300.90 189.68  225.83
  -1  -2   2  5015.6   121.1   1-0.67838 0.55087-0.25975 0.06107-0.68726 0.83235  0 237.05 239.01   65.92 236.94 239.00   66.18
  -1  -2   2  5323.1   125.9   2 0.11754-0.24505-0.74599 0.54700-0.65551 0.80047  0 286.18 191.62  152.63 286.27 191.69  152.62
  -1  -2   2  6117.6   134.5   2-0.23815 0.11075 0.54519-0.74414 0.80377-0.65878  0 362.91 294.16  347.07 362.85 294.19  347.22
  -1   2  -2  5136.1   126.3   1-0.68965 0.56215-0.57284 0.77152-0.44299 0.29790  0 368.05 230.88   89.02 367.99 230.97   89.06
  -1   2  -2  6495.3   133.8   2 0.13597-0.26348-0.38478 0.58377-0.91294 0.76798  0 365.74 288.68  177.80 365.76 288.65  178.28
  -1   2  -2  5126.6   121.5   2-0.23534 0.10793 0.59976-0.40082 0.76479-0.90978  0 291.98 190.50  343.32 292.11 190.59  343.36
  -1   2   2  5866.1    79.4   1-0.17345 0.04596 0.63318-0.43457-0.75432 0.89947  0 324.04 192.39    4.51 324.03 192.46    4.35
  -1   2   2  6376.0   140.1   2-0.16281 0.03531-0.52150 0.72046 0.83757-0.69259  0 278.71 193.88   52.02 278.83 194.01   52.19
  -1   2   2  5770.0   134.4   2 0.01538-0.14287 0.71329-0.51426-0.70070 0.84565  0 357.97 300.89  246.84 357.92 300.81  246.76
   1  -2  -2  5247.1    75.6   1-0.59781 0.72530 0.00881-0.20743-0.80159 0.65644  0 276.74 320.92   48.89 276.90 320.79   48.77
   1  -2  -2  6333.1   139.7   2-0.11448 0.24197-0.74521 0.54625 0.65693-0.80191  0 320.05 324.31   69.16 320.07 324.25   68.96
   1  -2  -2  6086.4   133.6   2 0.06312 0.06437 0.48324-0.68228-0.87321 0.72825  0 246.04 219.61  229.99 245.88 219.58  229.99
   1  -2   2  4775.1   117.5   1-0.62607 0.75371-0.75024 0.55151-0.21256 0.35744  0 238.86 282.14  106.02 238.80 282.15  106.20
   1  -2   2  5718.5   127.5   2-0.24001 0.36747 0.32145-0.52032 0.91600-0.77086  0 306.05 326.39    2.14 306.10 326.25    1.85
   1  -2   2  5722.0   123.1   2 0.12655 0.00096-0.65484 0.45585-0.74509 0.89005  0 239.56 231.05  160.12 239.41 231.04  159.97
   1   2  -2  4846.2   126.0   1-0.60234 0.72985-0.00312 0.20181-0.79823 0.65315  0 370.40 278.84   49.45 370.34 278.87   49.53
   1   2  -2  5951.3   132.6   2 0.13407-0.00656-0.51120 0.71019-0.84894 0.70398  0 312.08 325.77  169.96 312.11 325.64  170.15
   1   2  -2  5610.4   124.8   2-0.21903 0.34643 0.77006-0.57111 0.59920-0.74419  0 242.02 226.09  329.74 241.93 226.12  329.66
   1   2   2  5883.3   118.5   2-0.18959 0.31705-0.35372 0.55259 0.91594-0.77079  0 236.66 238.89   41.37 236.56 238.87   41.45
  -1  -2  -3 289.939  50.744   1-0.15259 0.02511 0.65228-0.85089-0.74246 0.52474  0 228.64 285.24    2.65 228.61 285.25    2.59
  -1  -2  -3 360.139  61.602   1-0.08688-0.04079-0.82083 0.62207 0.56452-0.78190  0 380.94 288.25  162.63 380.94 288.31  162.79
  -1  -2  -3 332.003  52.725   2-0.09313-0.03437-0.81875 0.61979 0.56654-0.78401  0 380.50 288.49   76.07 380.51 288.41   75.76
  -1  -2  -3 275.599  50.226   2 0.04280-0.17029 0.59236-0.79140-0.80453 0.58710  0 296.88 178.36  237.46 296.96 178.36  237.47
  -1  -2   3 290.510  49.122   1-0.69815 0.57065-0.43461 0.23593-0.56894 0.78657  0 229.04 229.69   78.19 228.93 229.65   78.33
  -1  -2   3 393.240  62.666   2 0.09741-0.22494-0.86281 0.66368-0.49605 0.71339  0 275.94 183.07  141.27 276.08 183.03  141.20
  -1  -2   3 233.986  56.443   2-0.23062 0.10322 0.66504-0.86399 0.71030-0.49282  0 369.16 307.94  338.48 369.09 307.93  338.47
  -1   2  -3 390.145  63.699   1-0.68150 0.55399-0.61403 0.81271-0.39816 0.18053  0 384.90 240.77   92.63 385.19 240.70   92.58
  -1   2  -3 306.739  55.372   2 0.13250-0.26001-0.55404 0.75303-0.82188 0.60444  0 376.53 296.66  166.85 376.48 296.57  167.24
  -1   2  -3 169.950  48.729   2-0.21879 0.09138 0.77177-0.57282 0.59709-0.81457  0 288.47 179.56  329.52 288.34 179.68  329.50
  -1   2   3 362.647  61.679   2-0.13786 0.01036-0.64795 0.84691 0.74910-0.53163  0 268.85 185.89   60.87 269.10 186.00   61.16
  -1   2   3 260.509  57.430   2-0.02176-0.10568 0.83902-0.63999-0.54366 0.76108  0 363.70 314.05  258.52 363.51 313.93  258.52
   1  -2  -3 287.122  32.270   1-0.36593 0.49342 0.41737-0.61599-0.83180 0.61408  0 272.29 331.13   21.66 272.45 331.08   21.56
   1  -2  -3 328.529  40.945   1-0.21848 0.34614-0.87408 0.67532 0.43387-0.65125  0 329.42 334.35  151.91 329.33 334.36  151.72
   1  -2  -3 317.234  59.907   2-0.07898 0.20647-0.86029 0.66133 0.50365-0.72112  0 330.47 333.85   80.40 330.33 333.95   80.16
   1  -2  -3 212.962  47.068   2 0.03699 0.09050 0.62040-0.81944-0.78341 0.56598  0 241.08 208.21  240.15 240.99 208.28  239.52
   1  -2   3 236.582  50.023   1-0.59538 0.72302-0.79164 0.59291-0.13723 0.35454  0 225.20 273.02  111.37 225.18 273.00  111.42
   1  -2   3 314.681  48.262   2 0.10722 0.02030-0.81378 0.61465-0.57120 0.78854  0 230.78 224.65  145.85 230.59 224.74  146.38
   1  -2   3 292.596  54.336   2-0.23961 0.36702 0.49871-0.69754 0.83299-0.61541  0 309.82 338.04  350.42 309.68 337.98  350.36
   1   2  -3 197.967  53.428   1-0.64978 0.77729-0.14159 0.34028-0.74682 0.52918  0 380.19 289.92   58.28 380.42 289.77   58.42
   1   2  -3 328.276  58.159   2 0.12721 0.00030-0.64539 0.84438-0.75319 0.53575  0 322.65 335.89  160.60 322.62 335.98  160.68
   1   2  -3 306.284  49.216   2-0.19957 0.32698 0.87314-0.67419 0.44474-0.66223  0 236.65 214.22  319.16 236.61 214.32  318.91
   1   2   3 291.469  44.221   2-0.15920 0.28669-0.54126 0.74022 0.82565-0.60818  0 227.56 232.31   53.51 227.54 232.33   53.53
  -1  -2  -4  3706.0   136.2   1-0.20646 0.07879-0.87052 0.67176 0.44674-0.73657  0 394.03 300.03  152.96 394.21 299.99  152.75
  -1  -2  -4  3526.2   128.1   2-0.05855-0.06894-0.91054 0.71158 0.40926-0.69922  0 393.90 299.21   86.35 394.13 299.22   86.41
  -1  -2  -4  3420.6   127.7   2 0.02129-0.14878 0.68945-0.88849-0.72402 0.43411  0 291.44 164.51  245.01 291.51 164.59  244.82
  -1  -2   4  2717.9   112.2   1-0.69071 0.56320-0.56608 0.36739-0.44998 0.74015  0 218.97 220.01   88.40 218.83 220.00   88.50
  -1  -2   4  3266.7   137.6   2 0.07874-0.20627-0.92877 0.72964-0.36219 0.65198  0 264.56 172.72  132.54 264.71 172.79  132.58
  -1  -2   4  3457.1   140.4   2-0.22400 0.09659 0.73113-0.93008 0.64441-0.35443  0 376.91 323.94  332.89 376.89 323.93  333.10
  -1   2  -4  3036.4   134.5   1-0.67686 0.54936-0.63241 0.83109-0.37672 0.08654  0 403.83 250.83   94.19 404.05 250.93   94.21
  -1   2  -4  3385.7   132.0   2 0.12662-0.25413-0.65398 0.85297-0.74584 0.45592  0 389.39 307.25  160.15 389.67 307.21  160.04
  -1   2  -4  3166.2   127.6   2-0.19965 0.07224 0.87283-0.67389 0.44531-0.73529  0 282.92 166.26  318.82 283.05 166.36  318.95
  -1   2   4  3709.4   145.7   2-0.12084-0.00665-0.72069 0.91965 0.68265-0.39269  0 257.88 176.18   67.04 258.07 176.28   66.90
  -1   2   4  2912.6   134.0   2-0.05138-0.07606 0.91183-0.71280-0.40734 0.69723  0 370.82 329.59  267.56 370.74 329.46  267.55
   1  -2  -4  3503.1    88.3   1-0.16835 0.29584 0.63792-0.83654-0.75148 0.46118  0 262.36 341.82    4.01 262.47 341.69    3.92
   1  -2  -4  3422.4    85.6   1-0.41348 0.54112-0.89094 0.69221 0.18778-0.47753  0 340.61 347.00  133.79 340.51 346.89  133.63
   1  -2  -4  3577.7   144.3   2-0.05084 0.17833-0.92673 0.72777 0.37227-0.66223  0 342.31 346.15   88.81 342.28 346.08   88.77
   1  -2  -4  3225.7   125.2   2 0.01868 0.10881 0.70013-0.89917-0.71377 0.42386  0 234.89 195.22  246.14 234.73 195.24  245.68
   1  -2   4  2824.7   120.2   1-0.56575 0.69339-0.82134 0.62261-0.07297 0.36271  0 211.07 263.85  116.06 211.02 263.83  115.82
   1  -2   4  3339.5   123.2   2 0.08673 0.04080-0.90423 0.70510-0.41814 0.70793  0 220.18 216.49  135.94 220.09 216.51  136.11
   1  -2   4  3251.7   131.7   2-0.23497 0.36237 0.60584-0.80478 0.76010-0.47012  0 314.63 352.59  343.20 314.67 352.53  342.92
   1   2  -4  2746.9   122.7   1-0.67378 0.80129-0.23742 0.43610-0.69975 0.40957  0 393.26 301.48   64.68 393.58 301.46   64.69
   1   2  -4  3649.5   142.0   2 0.12046 0.00705-0.72055 0.91954-0.68286 0.39294  0 334.62 348.78  154.78 334.62 348.61  154.76
   1   2  -4  2924.8   120.0   2-0.18142 0.30882 0.93071-0.73176 0.31760-0.60758  0 230.07 200.91  310.97 229.98 200.94  310.82
   1   2   4  3618.4   121.0   2-0.13745 0.26494-0.64980 0.84876 0.74757-0.45762  0 216.91 223.89   61.00 216.81 223.87   61.30
   1   2   4  3186.1   126.9   2-0.05930 0.18674 0.92739-0.72836-0.36937 0.65925  2 305.68 352.92  269.88 305.67 352.72  269.95
  -1  -2  -5 429.795  82.987   1-0.30149 0.17385-0.89176 0.69303 0.33745-0.69963  0 410.22 312.76  144.37 410.22 312.75  144.35
  -1  -2  -5 414.500  78.796   2-0.03204-0.09545-0.95954 0.76058 0.27974-0.64219  0 409.87 312.22   94.41 410.06 312.18   94.50
  -1  -2  -5 449.008  78.472   2 0.00764-0.13514 0.74312-0.94216-0.66912 0.30673  0 284.89 148.86  248.84 285.08 148.95  249.30
  -1  -2   5 435.612  70.789   1-0.66764 0.54013-0.66260 0.46391-0.33945 0.70217  0 207.32 209.94   96.95 207.13 209.94   97.02
  -1  -2   5 558.515  80.943   2 0.06197-0.18950-0.96602 0.76689-0.25093 0.61317  0 252.59 161.22  126.03 252.43 161.36  125.78
  -1  -2   5 503.421  89.180   2-0.21939 0.09199 0.76749-0.96644 0.60235-0.23987  0 385.85 342.12  330.14 386.06 341.97  329.89
  -1   2  -5 435.192  89.697   1-0.67534 0.54784-0.63787 0.83655-0.37019 0.00747  0 424.70 261.75   94.66 424.90 261.91   94.71
  -1   2  -5 531.518  83.244   2 0.12139-0.24890-0.71180 0.91079-0.69182 0.32941  0 404.87 320.05  155.44 405.09 320.06  155.48
  -1   2  -5 451.560  79.309   2-0.18126 0.05385 0.93111-0.73216 0.31652-0.67900  0 276.56 151.08  310.69 276.66 151.13  310.75
  -1   2   5 499.282  78.923   2-0.10988-0.01761-0.76217 0.96113 0.63798-0.27554  0 246.13 165.27   70.42 245.99 165.28   70.45
  -1   2   5 454.266  89.016   2-0.07495-0.05249 0.95353-0.75450-0.29184 0.65420  0 379.39 347.14  274.70 379.34 347.17  274.72
   1  -2  -5 452.018  56.947   1-0.50904 0.63668-0.86005 0.66132 0.03441-0.39659  0 355.07 361.00  123.18 354.97 360.95  123.11
   1  -2  -5 533.102  89.983   2-0.02843 0.15592-0.96482 0.76586 0.26137-0.62382  0 356.04 360.55   95.68 355.78 360.41   95.61
   1  -2  -5 526.942  77.183   2 0.00678 0.12067 0.74618-0.94521-0.66571 0.30335  0 227.35 180.64  249.64 227.39 180.82  249.56
   1  -2   5 425.429  75.174   1-0.53670 0.66434-0.84363 0.64490-0.01565 0.37783  0 196.27 254.46  119.69 196.22 254.53  119.71
   1  -2   5 530.856  74.141   2 0.06810 0.05943-0.95449 0.75535-0.29038 0.65262  0 208.18 206.98  128.29 208.20 207.05  128.17
   1  -2   5 523.758  86.319   2-0.23026 0.35767 0.66924-0.86818 0.70647-0.34399  0 320.69 369.60  338.13 320.68 369.54  338.15
   1   2  -5 377.125  80.482   1-0.68543 0.81294-0.30000 0.49868-0.66346 0.30074  0 409.66 314.49   68.72 409.48 314.33   68.89
   1   2  -5 530.529  89.755   2 0.11545 0.01205-0.76266 0.96165-0.63641 0.27401  0 348.05 363.36  150.98 348.04 363.32  151.16
   1   2  -5 387.259  69.958   2-0.16515 0.29255 0.96314-0.76419 0.21235-0.57483  0 222.39 186.37  304.46 222.34 186.35  304.42
   1   2   5 454.879  69.902   1 0.02846 0.09921-0.75073 0.94949 0.66000-0.29771  0 206.80 211.32  172.01 206.65 211.28  172.26
   1   2   5 549.236  71.001   2-0.12319 0.25069-0.71128 0.91024 0.69203-0.32958  0 204.83 214.20   65.99 204.73 214.25   66.12
   1   2   5 428.019  80.278   2-0.08458 0.21203 0.96638-0.76736-0.24279 0.60515  0 311.54 370.02  277.69 311.56 369.92  277.68
  -1  -2  -6 14258.5   275.1   1-0.37756 0.24992-0.89474 0.69601 0.23851-0.67313  0 428.83 327.17  136.94 429.00 327.04  137.20
  -1  -2  -6 15055.4   288.2   2-0.01150-0.11603-0.98487 0.78574 0.17289-0.60758  0 428.16 327.09  101.14 428.28 326.99  100.93
  -1  -2  -6 13789.5   278.0   2-0.00063-0.12681 0.77248-0.97151-0.63503 0.20020  0 277.78 131.46  252.05 277.89 131.62  251.92
  -1  -2   6 12994.5   252.7   1-0.63646 0.50882-0.73285 0.53412-0.24052 0.67514  0 194.14 199.23  104.02 194.18 199.33  104.22
  -1  -2   6 14801.7   289.4   2 0.04692-0.17445-0.98656 0.78743-0.15652 0.59121  0 239.37 148.69  119.89 239.23 148.81  120.18
  -1  -2   6 14382.1   301.3   2-0.21657 0.08917 0.78674-0.98569 0.57804-0.14307  0 396.28 362.19  327.90 396.59 362.20  328.10
  -1   2  -6 12056.7   276.1   1-0.67612 0.54862-0.63511 0.83379-0.37350-0.06176  0 448.02 273.91   94.45 448.20 273.96   94.46
  -1   2  -6 14023.6   282.3   2 0.11769-0.24520-0.74471 0.94370-0.65693 0.22205  0 422.68 335.12  152.74 422.90 335.02  152.73
  -1   2  -6 12772.3   272.3   2-0.16439 0.03698 0.96431-0.76536 0.20756-0.64253  0 269.38 134.02  303.86 269.48 134.17  304.13
  -1   2   6 14321.6   202.4   1-0.00569-0.12197-0.77365 0.97241 0.63358-0.19884  0 236.11 151.13  169.33 236.17 151.33  169.46
  -1   2   6 14407.3   287.1   2-0.10332-0.02417-0.78520 0.98416 0.61056-0.17562  0 233.05 153.04   72.56 232.93 153.14   72.54
  -1   2   6 12506.8   283.6   2-0.09418-0.03327 0.97667-0.77764-0.19299 0.62783  0 389.04 367.30  280.71 389.27 367.15  280.66
   1  -2  -6 13593.7   205.0   1-0.56510 0.69274-0.82190 0.62318-0.07164-0.36299  0 371.59 377.06  115.98 371.56 376.92  115.91
   1  -2  -6 14524.4   300.5   2-0.01038 0.13790-0.98591 0.78678 0.16695-0.60163  0 370.99 376.97  100.91 370.87 376.82  101.28
   1  -2  -6 14081.8   284.6   2-0.00057 0.12802 0.77227-0.97130-0.63529 0.20046  0 219.18 165.01  251.92 219.07 165.08  251.90
   1  -2   6 13238.7   274.5   1-0.50759 0.63523-0.86081 0.66208 0.03696 0.39766  0 180.61 244.87  123.17 180.65 244.91  123.29
   1  -2   6 14416.2   274.3   2 0.05122 0.07630-0.98176 0.78262-0.18311 0.61780  0 195.16 196.55  121.77 195.06 196.60  121.74
   1  -2   6 14291.7   283.7   2-0.22675 0.35416 0.70598-0.90492 0.67096-0.23598  0 327.46 389.07  335.23 327.49 388.94  335.21
   1   2  -6 10702.8   245.0   1-0.69104 0.81854-0.33856 0.53725-0.63863 0.20336  0 427.85 328.73   71.49 428.16 328.68   71.53
   1   2  -6 15492.3   308.7   2 0.11170 0.01583-0.78548 0.98461-0.60872 0.17404  0 363.08 380.36  149.05 363.01 380.25  149.08
   1   2  -6 12783.5   270.7   2-0.15060 0.27805 0.98089-0.78186 0.12318-0.55802  0 213.85 170.49  298.91 213.76 170.56  299.15
   1   2   6 14358.2   267.4   1-0.00328 0.13094-0.77209 0.97085 0.63550-0.20076  0 193.47 200.54  169.78 193.53 200.66  169.66
   1   2   6 15038.1   276.5   2-0.11433 0.24183-0.74577 0.94473 0.65632-0.22138  0 191.48 203.75   69.00 191.41 203.76   69.01
   1   2   6 12818.8   269.5   2-0.10447 0.23192 0.98484-0.78581-0.13851 0.57334  0 318.16 389.67  284.03 318.15 389.45  283.86
  -1  -2  -7  2423.5   196.3   1-0.43919 0.31155-0.88592 0.68719 0.14923-0.65629  0 450.56 343.47  131.17 450.75 343.32  130.97
  -1  -2  -7  2842.8   193.2   2 0.00573-0.13325-0.99668 0.79755 0.08122-0.58836  0 449.36 344.24  106.14 449.42 344.10  106.31
  -1  -2  -7  2529.2   183.1   2-0.00506-0.12239 0.78744-0.98647-0.61637 0.10906  0 269.98 112.31  253.25 270.04 112.44  253.32
  -1  -2   7  2135.4   139.5   1-0.60110 0.47346-0.78489 0.58616-0.15040 0.65745  0 179.70 187.73  110.47 179.77 187.82  110.51
  -1  -2   7  2534.1   167.4   2 0.03310-0.16063-0.99668 0.79755-0.07434 0.58147  0 225.15 135.04  115.30 225.01 135.10  115.36
  -1  -2   7  2419.4   206.1   2-0.21522 0.08782 0.79544-0.99438 0.56653-0.05906  0 408.36 384.94  326.90 408.61 384.98  327.27
  -1   2  -7  2193.1   187.2   1-0.67842 0.55091-0.62658 0.82527-0.38359-0.12421  0 474.48 287.47   94.07 474.60 287.50   93.69
  -1   2  -7  2615.4   189.5   2 0.11549-0.24300-0.76237 0.96136-0.63676 0.12940  0 443.26 352.27  150.87 443.47 352.28  151.19
  -1   2  -7  2108.7   180.2   2-0.14909 0.02164 0.98222-0.78319 0.11410-0.62141  0 261.48 115.24  298.68 261.59 115.40  298.62
  -1   2   7  2681.5   118.0   1-0.03412-0.09355-0.79151 0.99027 0.61020-0.10300  0 221.63 137.94  167.01 221.71 138.17  167.12
  -1   2   7  2731.7   170.1   2-0.09993-0.02757-0.79673 0.99569 0.59602-0.08859  0 218.89 139.76   73.65 218.77 139.83   73.62
  -1   2   7  2519.2   205.4   2-0.11037-0.01707 0.98815-0.78912-0.10670 0.61401  0 400.53 389.88  286.15 400.63 389.74  285.73
   1  -2  -7  2372.6   143.2   1-0.60220 0.72984-0.78354 0.58481-0.15304-0.35402  0 389.95 395.49  110.24 390.17 395.33  110.33
   1  -2  -7  2617.1   206.2   2 0.00524 0.12228-0.99646 0.79733 0.08389-0.59103  0 387.79 395.97  105.90 387.97 395.88  106.16
   1  -2  -7  2497.8   165.4   2-0.00462 0.13207 0.78599-0.98501-0.61823 0.11092  0 209.82 147.80  253.23 209.73 147.92  253.18
   1  -2   7  2216.3   155.0   1-0.47853 0.60617-0.87380 0.67507 0.08653 0.42053  0 164.02 234.77  126.73 164.12 234.80  126.67
   1  -2   7  2711.2   160.2   2 0.03594 0.09158-0.99519 0.79606-0.09111 0.59825  0 180.62 185.23  115.86 180.57 185.25  116.34
   1  -2   7  2341.5   185.6   2-0.22458 0.35198 0.72618-0.92512 0.64980-0.14232  0 335.05 411.10  333.51 335.07 411.01  333.52
   1   2  -7  2199.2   193.1   1-0.69349 0.82099-0.36033 0.55902-0.62389 0.11608  0 449.64 345.14   72.96 449.86 345.11   73.04
   1   2  -7  2686.2   207.4   2 0.11006 0.01747-0.79694 0.99607-0.59395 0.08681  0 379.81 399.73  147.91 379.80 399.65  148.00
   1   2  -7  2063.5   155.7   2-0.13726 0.26471 0.98951-0.79048 0.04502-0.55233  0 204.28 153.42  294.58 204.14 153.46  294.57
   1   2   7  2514.4   145.0   1-0.02123 0.14890-0.78352 0.98228 0.62100-0.11380  0 179.03 189.13  168.05 179.10 189.20  168.19
   1   2   7  2644.1   157.3   2-0.10941 0.23690-0.76406 0.96301 0.63581-0.12838  0 176.84 192.45   70.62 176.77 192.49   70.62
   1   2   7  2455.4   190.5   2-0.12064 0.24808 0.99144-0.79241-0.04996 0.55726  0 325.49 411.76  288.83 325.38 411.57  289.04
  -1  -2  -8  5085.1   249.9   1-0.48955 0.36191-0.86931 0.67058 0.06807-0.64756  0 476.13 362.51  125.35 476.20 362.34  125.41
  -1  -2  -8  5111.4   266.9   2 0.02003-0.14756-0.99980 0.80067 0.00107-0.58065  0 474.14 364.02  111.18 474.09 363.87  110.97
  -1  -2  -8  5103.9   256.5   2-0.00680-0.12065 0.79324-0.99227-0.60887 0.02909  0 261.36  90.94  253.74 261.46  91.09  253.87
  -1  -2   8  4859.6   206.3   1-0.56359 0.43595-0.82320 0.62447-0.06856 0.64806  0 163.94 175.05  116.13 164.00 175.16  116.12
  -1  -2   8  5271.3   237.5   2 0.02040-0.14792-0.99979 0.80066-0.00099 0.58057  0 209.60 119.91  111.21 209.54 120.06  111.09
  -1  -2   8  4909.8   280.3   2-0.21495 0.08755 0.79709-0.99604 0.56431 0.01566  0 422.22 410.98  327.32 422.44 410.96  327.11
  -1   2  -8  4320.2   247.6   1-0.68158 0.55407-0.61369 0.81237-0.39855-0.18180  2 504.61 302.99   92.61 505.17 303.11   92.55
  -1   2  -8  4589.0   251.5   2 0.11444-0.24195-0.77013 0.96912-0.62754 0.04770  0 467.31 372.40  150.42 467.51 372.31  150.49
  -1   2  -8  4588.1   215.2   2-0.13494 0.00749 0.99035-0.79132 0.03158-0.61135  0 252.93  94.39  294.20 252.82  94.48  293.79
  -1   2   8  5205.5   171.6   1-0.04427-0.08340-0.79751 0.99627 0.60167-0.02202  0 206.21 123.08  166.11 206.38 123.35  166.29
  -1   2   8  5299.1   237.0   2-0.09877-0.02873-0.80057 0.99953 0.59105-0.01113  0 203.38 125.14   74.01 203.30 125.20   73.99
  -1   2   8  4480.2   279.1   2-0.12426-0.00319 0.99180-0.79278-0.02973 0.60951  0 413.55 415.70  290.09 413.74 415.57  290.22
   1  -2  -8  4319.0   190.5   1-0.62921 0.75685-0.74517 0.54644-0.22093-0.35857  0 410.77 417.08  105.65 411.07 416.94  105.61
   1  -2  -8  4963.0   272.2   2 0.01866 0.10886-0.99978 0.80065 0.00958-0.58916  0 407.36 418.25  110.46 407.53 418.05  110.48
   1  -2  -8  4725.3   221.7   2-0.00627 0.13371 0.79149-0.99052-0.61114 0.03137  0 199.27 128.94  253.76 199.24 129.07  253.70
   1  -2   8  4663.9   211.5   1-0.44913 0.57678-0.88338 0.68465 0.13387 0.44563  0 146.29 223.88  129.92 146.36 223.96  129.91
   1  -2   8  4674.3   211.3   2 0.02203 0.10550-0.99970 0.80057-0.01029 0.58988  0 164.68 172.97  111.62 164.55 172.99  111.63
   1  -2   8  4838.2   257.6   2-0.22347 0.35087 0.73558-0.93453 0.63952-0.05955  0 343.49 436.39  332.70 343.48 436.28  332.72
   1   2  -8  3857.1   236.1   1-0.69431 0.82181-0.36987 0.56855-0.61736 0.03701  0 474.90 364.34   73.69 475.16 364.26   73.70
   1   2  -8  4443.7   265.2   2 0.10947 0.01805-0.80066 0.99979-0.58903 0.00945  0 398.59 422.30  147.61 398.88 422.15  147.65
   1   2  -8  4209.7   214.5   2-0.12508 0.25253 0.99183-0.79280-0.02507-0.55470  0 193.45 134.76  290.50 193.36 134.76  290.49
   1   2   8  4799.5   199.6   1-0.02898 0.15665-0.78828 0.98703 0.61464-0.03498  0 163.18 176.46  167.53 163.27 176.62  167.55
   1   2   8  4971.2   213.9   2-0.10718 0.23467-0.77200 0.97096 0.62652-0.04661  0 160.56 180.37   71.24 160.60 180.38   71.33
   1   2   8  4412.4   244.3   2-0.13424 0.26169 0.99057-0.79154 0.02752 0.55226  0 333.36 437.04  293.57 333.30 436.82  293.56
  -1  -2  -9 26591.9   529.7   1-0.53180 0.40416-0.84685 0.64812-0.00649-0.64545  2 505.79 385.23  120.27 506.23 385.14  120.33
  -1  -2  -9 27858.3   519.9   2 0.03250-0.16002-0.99696 0.79783-0.07077-0.58126  2 503.45 387.20  114.85 503.54 387.11  115.16
  -1  -2  -9 26442.5   463.6   2-0.00664-0.12080 0.79273-0.99176-0.60954-0.04271  0 252.20  66.81  253.88 252.03  67.04  253.82
  -1  -2   9 25345.7   426.5   1-0.52469 0.39705-0.85127 0.65254 0.00653 0.64540  0 146.50 160.88  121.13 146.64 160.99  121.22
  -1  -2   9 29196.6   506.0   2 0.00852-0.13605-0.99779 0.79866 0.06583 0.58620  0 192.57 103.23  107.19 192.51 103.43  107.21
  -1  -2   9 24787.7   511.8   2-0.21551 0.08810 0.79365-0.99260 0.56892 0.08354  0 438.34 441.12  327.43 438.59 441.14  327.44
  -1   2  -9 27602.8   508.6   2 0.11432-0.24183-0.77098 0.96997-0.62651-0.02581  0 495.92 396.01  150.37 496.13 395.94  150.42
  -1   2  -9 22416.6   432.9   2-0.12197-0.00548 0.99162-0.79259-0.04252-0.60973  0 243.27  70.67  289.48 243.12  70.90  289.48
  -1   2   9 29351.5   382.3   1-0.04236-0.08531-0.79640 0.99516 0.60329 0.04883  0 189.80 106.13  166.25 190.02 106.40  166.45
  -1   2   9 29061.4   503.9   2-0.09927-0.02822-0.79889 0.99785 0.59323 0.05918  0 186.25 108.88   73.84 186.20 108.99   73.83
  -1   2   9 24986.6   515.7   2-0.13644 0.00899 0.98983-0.79080 0.04024 0.61201  0 428.79 445.79  294.29 428.97 445.61  294.30
   1  -2  -9 23807.8   374.9   1-0.65002 0.77766-0.70615 0.50742-0.28076-0.37117  0 434.46 443.06  101.16 434.73 442.87  101.35
   1  -2  -9 27961.5   531.2   2 0.03028 0.09724-0.99784 0.79871-0.05823-0.59380  0 430.24 444.52  114.40 430.34 444.25  114.42
   1  -2  -9 26599.5   481.1   2-0.00617 0.13361 0.79117-0.99020-0.61157-0.04068  0 187.43 108.03  253.70 187.36 108.14  253.67
   1  -2   9 19686.7   410.1   1-0.41906 0.54670-0.89004 0.69131 0.17949 0.47245  0 126.99 212.01  133.02 127.03 212.10  133.06
   1  -2   9 28525.7   477.4   2 0.00916 0.11837-0.99802 0.79888 0.06231 0.58972  0 146.70 159.55  107.37 146.68 159.69  107.42
   1  -2   9 24664.7   479.4   2-0.22324 0.35065 0.73744-0.93639 0.63745 0.01501  0 352.89 465.78  332.56 352.87 465.62  332.56
   1   2  -9 21557.3   441.5   1-0.69432 0.82182-0.36995 0.56863-0.61730-0.03559  2 504.65 387.14   73.84 505.09 387.22   73.70
   1   2  -9 27519.5   527.6   2 0.10976 0.01777-0.79887 0.99800-0.59141-0.06063  0 420.74 448.85  147.77 421.04 448.71  147.82
   1   2  -9 24366.8   463.0   2-0.11357 0.24102 0.98952-0.79049-0.08919-0.56306  0 181.26 113.96  286.79 181.18 114.07  286.75
   1   2   9 27904.5   447.8   1-0.02887 0.15653-0.78821 0.98696 0.61473 0.03738  0 145.64 162.38  167.55 145.83 162.54  167.56
   1   2   9 27093.8   459.9   2-0.10695 0.23445-0.77280 0.97176 0.62557 0.02683  0 142.55 167.27   71.39 142.55 167.30   71.40
   1   2   9 24469.0   475.3   2-0.14626 0.27370 0.98447-0.78544 0.09712 0.55513  0 342.06 466.41  297.64 342.01 466.09  297.62
  -1  -2 -10 812.731 168.193   2-0.00508-0.12236 0.78751-0.98654-0.61628-0.10845  0 241.56  39.01  252.83 241.51  39.49  253.32
  -1  -2  10 686.911 149.416   1-0.48475 0.35711-0.87132 0.67259 0.07623 0.64814  0 127.09 144.54  126.21 127.30 144.82  125.96
  -1  -2  10  1034.3   183.7   2-0.00290-0.12463-0.99181 0.79268 0.12771 0.59677  0 173.35  84.59  103.59 173.43  84.69  103.59
  -1  -2  10  1175.5   260.9   2-0.21665 0.08924 0.78626-0.98521 0.57867 0.14629  0 457.64 476.59  327.87 457.82 477.00  328.15
  -1   2 -10 872.045 165.835   2-0.10971-0.01774 0.98782-0.78879-0.11032-0.61440  0 232.32  43.95  285.49 232.23  43.89  285.52
  -1   2  10  1039.3   134.9   1-0.03204-0.09563-0.79026 0.98902 0.61193 0.11264  0 172.35  86.46  167.33 172.35  86.63  167.29
  -1   2  10  1194.5   184.1   2-0.10103-0.02646-0.79296 0.99192 0.60084 0.12406  0 166.82  90.59   73.37 166.98  90.79   73.27
  -1   2  10 739.562 249.514   2-0.14755 0.02010 0.98348-0.78445 0.10486 0.61986  0 446.99 481.55  298.37 447.10 481.40  298.07
   1  -2 -10 747.787 177.172   1-0.66675 0.79425-0.66517 0.46649-0.33614-0.38930  0 462.24 475.20   97.41 462.43 475.00   97.26
   1  -2 -10 977.632 244.142   2 0.04100 0.08653-0.99181 0.79267-0.12100-0.60348  0 457.52 475.88  117.89 457.63 475.94  118.09
   1  -2 -10 886.617 175.238   2-0.00475 0.13219 0.78640-0.98543-0.61770-0.10702  0 173.49  84.23  252.88 173.75  84.51  253.22
   1  -2  10  1019.5   156.2   1-0.38817 0.51581-0.89399 0.69527 0.22382 0.50054  0 105.78 198.75  136.22 105.67 198.89  136.16
   1  -2  10 726.504 146.831   2-0.00320 0.13073-0.99166 0.79253 0.12882 0.59566  0 126.64 144.90  103.53 126.39 145.04  103.53
   1  -2  10 997.482 232.980   2-0.22370 0.35110 0.73367-0.93262 0.64162 0.08333  0 363.45 500.16  332.73 363.52 500.32  332.88
   1   2 -10 754.294 248.400   2 0.11069 0.01683-0.79286 0.99199-0.59927-0.12521  0 447.39 481.00  147.89 447.42 480.75  148.39
   1   2 -10 993.415 173.173   2-0.10252 0.22997 0.98354-0.78451-0.14882-0.57590  0 167.29  90.79  283.32 167.21  90.78  283.26
   1   2  10 886.496 154.047   1-0.02255 0.15022-0.78434 0.98310 0.61992 0.10465  0 126.40 146.50  167.96 126.42 146.46  168.08
   1   2  10  1103.4   163.0   2-0.10822 0.23571-0.76830 0.96726 0.63087 0.09403  0 121.94 152.86   70.65 122.11 153.00   71.00
   1   2  10 886.886 215.370   2-0.15693 0.28433 0.97437-0.77543 0.16116 0.56380  0 351.96 500.37  301.42 351.82 500.69  301.37
  -1  -2 -11  2308.6   288.0   2-0.00240-0.12505 0.77852-0.97755-0.62761-0.16958  2 229.70   7.39  252.48 229.58   7.24  252.48
  -1  -2  11  2407.8   230.8   1-0.44412 0.31648-0.88470 0.68598 0.14161 0.65519  0 105.63 125.95  130.32 105.45 125.91  130.44
  -1  -2  11  2555.5   258.8   2-0.01405-0.11348-0.98249 0.78336 0.18580 0.61113  0 151.57  63.07   99.87 151.60  63.25  100.15
  -1   2 -11  2433.3   289.3   2-0.09793-0.02952 0.97999-0.78096-0.17331-0.62389  0 220.02  12.38  281.75 219.79  12.27  281.81
  -1   2  11  2391.6   216.8   1-0.01574-0.11193-0.78005 0.97880 0.62552 0.17151  0 152.79  63.17  168.51 152.90  62.99  168.64
  -1   2  11  2312.4   286.3   2-0.10381-0.02368-0.78354 0.98250 0.61261 0.18477  0 145.13  69.93   72.40 144.99  70.00   72.39
   1  -2 -11  2148.3   243.3   2-0.00225 0.12970 0.77802-0.97705-0.62823-0.16896  0 157.96  57.25  252.44 157.88  57.29  252.43
   1  -2  11  2366.9   234.3   1-0.35641 0.48405-0.89531 0.69658 0.26721 0.52960  0  81.58 183.70  139.17  81.58 183.75  139.24
   1  -2  11  2474.5   263.6   2-0.01498 0.14250-0.98154 0.78241 0.19068 0.60625  0 103.27 128.63   99.71 103.03 128.65   99.86
   1   2 -11  2506.9   289.8   2-0.09188 0.21932 0.97443-0.77540-0.20504-0.59215  0 150.83  63.99  280.18 150.92  64.04  279.94
   1   2  11  2256.4   250.9   1-0.01125 0.13892-0.77721 0.97597 0.62914 0.16789  0 104.67 127.63  168.97 104.49 127.68  169.00
   1   2  11  2643.6   272.6   2-0.11059 0.23808-0.75960 0.95856 0.64092 0.15647  0  98.66 137.11   70.32  98.58 137.14   70.22
  -1  -2  12  2506.9   289.0   1-0.40254 0.27490-0.89248 0.69375 0.20356 0.66568  0  80.30 102.97  134.69  80.37 103.30  134.73
  -1  -2  12  2909.5   302.4   2-0.02454-0.10295-0.97008 0.77112 0.24156 0.62832  0 126.40  38.36   97.01 126.07  38.13   96.81
  -1   2  12  2803.4   271.1   1 0.00603-0.13370-0.76599 0.96475 0.64282 0.22667  0 130.99  33.66  170.45 131.15  34.09  170.42
  -1   2  12  2826.0   296.8   2-0.10745-0.02005-0.77105 0.97001 0.62764 0.24223  0 119.17  45.50   70.85 119.21  45.74   71.25
   1  -2 -12  3041.2   356.4   2 0.00109 0.12636 0.76653-0.96556-0.64221-0.22746  0 139.02  25.08  251.38 138.95  25.14  251.38
   1  -2  12  2716.6   270.3   1-0.32361 0.45125-0.89402 0.69530 0.30983 0.55941  0  53.81 166.01  142.19  53.87 165.98  142.32
   1  -2  12  2432.7   292.1   2-0.02608 0.15358-0.96804 0.76908 0.24945 0.62043  0  75.55 109.99   96.08  75.54 109.93   96.34
   1   2 -12  2511.5   285.1   2-0.08146 0.20891 0.96254-0.76351-0.25860-0.61107  0 131.73  32.82  276.68 131.47  32.54  276.73
   1   2  12  2951.2   300.8   1 0.00439 0.12328-0.76708 0.96584 0.64154 0.22795  0  79.35 105.35  170.29  79.23 105.16  170.29
   1   2  12  3023.7   324.4   2-0.11392 0.24142-0.74729 0.94625 0.65465 0.21522  0  71.27 119.25   69.33  70.89 119.20   69.14
  -1  -3   0  45.013  37.087   1-0.57233 0.44484 0.06867-0.36660-0.81715 0.81715  0 223.56 267.86   44.51 223.63 267.88   44.94
  -1  -3   0  -6.955  41.394   2-0.21989 0.09243-0.08243-0.21588 0.97204-0.97204  0 376.98 297.85   25.62 377.09 297.84   25.43
  -1  -3   0   9.600  43.159   2 0.13337-0.26088-0.23345-0.06503-0.96318 0.96318  0 287.54 178.60  187.59 287.45 178.88  187.42
  -1   3   0 -20.129  35.404   1-0.63563 0.50813-0.09565 0.39368-0.76605 0.76605  0 361.32 198.63   55.64 361.46 198.36   55.46
  -1   3   0  20.738  45.964   2-0.23115 0.10369 0.07762 0.22069 0.96982-0.96982  0 275.91 181.93   16.44 275.91 182.20   16.22
  -1   3   0  11.679  44.318   2 0.10041-0.22790 0.21938 0.07918-0.97046 0.97046  0 369.44 308.64  213.45 369.76 308.39  213.67
   1  -3   0   4.903  30.513   1-0.69813 0.82563-0.47497 0.17694-0.53575 0.53575  0 244.34 312.16   81.62 244.15 311.99   81.32
   1  -3   0  -4.827  45.777   2-0.20128 0.32874-0.26238-0.03592 0.94374-0.94374  0 322.59 336.90   35.97 322.86 337.00   35.96
   1  -3   0  28.863  37.650   2 0.12867-0.00116-0.12151-0.17697-0.98421 0.98421  0 235.81 213.62  193.52 235.88 213.71  193.98
   1   3   0  14.563  51.661   1-0.41241 0.53990 0.35272-0.05480-0.83994 0.83994  0 386.99 246.31   26.51 387.31 246.36   26.15
   1   3   0 -11.112  32.118   2-0.23939 0.36685 0.27867 0.01964 0.93007-0.93007  0 230.27 223.64    4.69 230.18 223.72    4.43
   1   3   0  20.157  44.334   2 0.10991 0.01758 0.12956 0.16899-0.98546 0.98546  0 310.44 338.57  207.86 310.45 338.67  208.43
  -1  -3  -1  4490.9   131.9   1-0.49019 0.36270 0.22952-0.52744-0.84086 0.76828  0 223.38 277.27   34.50 223.37 277.16   34.50
  -1  -3  -1  5198.2   138.6   2-0.19311 0.06565-0.32769 0.02939 0.92484-0.99741  0 380.66 296.60   40.06 380.66 296.60   39.87
  -1  -3  -1  4817.8   135.3   2 0.12053-0.24802 0.00423-0.30278-0.99270 0.92022  0 289.57 176.20  200.98 289.66 176.28  201.20
  -1  -3   1  4261.8   130.5   1-0.63670 0.50920-0.09887-0.19916-0.76475 0.83729  0 221.07 258.74   55.67 221.02 258.66   55.66
  -1  -3   1  4652.8   135.9   2-0.23487 0.10741 0.14882-0.44713 0.96057-0.88800  0 376.82 303.14   11.99 376.73 303.13   12.10
  -1  -3   1  4725.1   135.4   2 0.13537-0.26288-0.45663 0.15814-0.87930 0.95178  0 282.59 177.76  173.81 282.69 177.84  173.73
  -1   3  -1  4000.1   124.0   1-0.68063 0.55313-0.27169 0.56972-0.68039 0.60784  0 373.75 207.95   67.19 373.67 208.07   66.98
  -1   3  -1  4598.5   138.0   2-0.23978 0.11232 0.30683-0.00853 0.92106-0.99364  0 277.68 179.21    3.06 277.80 179.31    2.73
  -1   3  -1  4598.3   137.0   2 0.12113-0.24862-0.00395 0.30251-0.99263 0.92015  0 373.62 307.60  200.98 373.52 307.53  200.73
  -1   3   1  4453.1   107.0   1-0.52674 0.39925 0.16290 0.13502-0.83427 0.90685  0 352.31 188.23   38.98 352.26 188.33   38.87
  -1   3   1  4985.0   144.5   2-0.21444 0.08698-0.14152 0.43983 0.96643-0.89386  0 271.42 181.59   29.00 271.58 181.67   28.86
  -1   3   1  5041.3   145.3   2 0.07128-0.19877 0.43378-0.13523-0.89819 0.97067  0 369.05 313.19  227.16 368.97 313.07  226.79
   1  -3  -1  3536.4    92.1   1-0.68871 0.81621-0.32159 0.02357-0.64981 0.57727  0 251.97 322.11   70.29 251.89 321.95   70.36
   1  -3  -1  4909.5   143.4   2-0.17214 0.29960-0.46944 0.17114 0.86602-0.93859  0 327.46 338.28   49.02 327.56 338.20   48.74
   1  -3  -1  5081.4   138.6   2 0.11245 0.01504 0.10265-0.40121-0.98834 0.91586  0 236.60 209.50  206.99 236.45 209.49  206.87
   1  -3   1  3499.5   111.2   1-0.68769 0.81519-0.58424 0.28621-0.43099 0.50353  0 234.28 302.45   90.01 234.19 302.36   90.01
   1  -3   1  4972.9   141.6   2-0.22305 0.35051-0.04361-0.25470 0.97383-0.90126  0 320.69 339.81   23.01 320.68 339.73   23.20
   1  -3   1  4936.7   134.3   2 0.13571-0.00820-0.35217 0.05369-0.92604 0.99852  0 232.97 214.80  180.04 232.84 214.78  180.29
   1   3  -1  4091.2   138.1   1-0.50783 0.63532 0.19817 0.09975-0.83835 0.76578  0 390.46 256.84   36.52 390.72 256.87   36.57
   1   3  -1  4897.2   138.6   2 0.12799-0.00048-0.10878 0.40726-0.98579 0.91331  0 315.34 340.56  194.73 315.37 340.42  194.72
   1   3  -1  4839.8   132.4   2-0.23983 0.36724 0.49123-0.19299 0.83736-0.90989  0 230.48 219.13  350.94 230.41 219.20  350.86
   1   3   1  4733.4   140.9   1-0.29308 0.42057 0.50783-0.20991-0.81007 0.88264  0 387.38 235.69   14.97 387.61 235.76   14.78
   1   3   1  4826.6   129.4   2-0.22928 0.35674 0.04666 0.25165 0.97224-0.89967  0 227.50 225.12   17.99 227.39 225.12   18.00
   1   3   1  4912.4   136.7   2 0.08034 0.04715 0.37517-0.07662-0.92347 0.99595  0 308.01 341.18  222.84 308.03 341.00  223.09
  -1  -3  -2 418.066  59.259   1-0.40136 0.27387 0.36865-0.66657-0.83846 0.69331  0 220.38 286.74   25.16 220.32 286.63   25.03
  -1  -3  -2 420.801  63.142   2-0.15867 0.03118-0.54411 0.24567 0.82387-0.96885  0 387.04 299.02   53.70 387.39 299.25   53.72
  -1  -3  -2 304.764  58.365   2 0.10071-0.22820 0.21676-0.51531-0.97102 0.82606  0 289.28 170.00  213.51 289.41 170.09  213.52
  -1  -3   2 373.925  55.703   1-0.67783 0.55033-0.25696-0.04107-0.68885 0.83394  0 215.81 249.36   65.99 215.82 249.43   65.99
  -1  -3   2 370.080  63.714   2 0.12790-0.25541-0.63593 0.33745-0.76107 0.90603  0 275.55 173.72  161.38 275.67 173.65  161.39
  -1   3  -2 284.072  62.334   1-0.69538 0.56787-0.38218 0.68021-0.60860 0.46351  0 388.33 217.85   74.62 388.30 217.69   74.57
  -1   3  -2 454.723  67.869   2 0.13241-0.25992-0.20294 0.50142-0.97020 0.82524  0 380.23 310.45  189.30 380.27 310.43  189.22
  -1   3  -2 369.497  65.307   2-0.23924 0.11183 0.51096-0.21272 0.82564-0.97069  0 277.19 173.23  349.61 277.36 173.23  349.54
  -1   3   2 334.165  45.269   1-0.32232 0.19483 0.47313-0.17520-0.81991 0.96506  0 347.25 177.58   17.54 347.17 177.76   17.45
  -1   3   2 351.749  67.300   2-0.19385 0.06640-0.32201 0.62032 0.92668-0.78153  0 264.90 178.05   39.45 265.04 178.11   39.52
  -1   3   2 439.941  71.525   2 0.03880-0.16629 0.61184-0.31328-0.79003 0.93499  0 370.96 321.44  239.15 370.88 321.34  238.89
   1  -3  -2 183.596  37.414   1-0.64278 0.77028-0.11813-0.17990-0.75689 0.61180  0 256.04 332.59   57.63 256.19 332.31   56.90
   1  -3  -2 435.528  70.856   2-0.13983 0.26732-0.63889 0.34046 0.75648-0.90146  0 334.63 343.05   60.44 334.56 343.00   60.48
   1  -3  -2 423.048  61.285   2 0.09190 0.03559 0.29006-0.58861-0.95259 0.80763  0 234.87 202.42  217.65 234.76 202.37  217.89
   1  -3   2 270.978  55.702   1-0.66766 0.79516-0.66254 0.36451-0.33953 0.48462  0 222.69 293.02   96.98 222.75 293.00   97.01
   1  -3   2 372.291  65.836   2-0.23513 0.36259 0.15472-0.45303 0.95957-0.81443  0 320.83 346.24   11.68 320.89 346.31   11.76
   1  -3   2 411.651  58.763   2 0.13249-0.00498-0.55418 0.25570-0.82178 0.96674  0 227.47 212.97  166.88 227.38 212.85  167.23
   1   3  -2 376.870  72.832   1-0.57584 0.70333 0.06081 0.23712-0.81530 0.67015  0 397.51 267.30   45.29 397.61 267.61   45.45
   1   3  -2 326.062  65.460   2 0.13509-0.00758-0.30402 0.60251-0.94304 0.79808  0 322.70 346.08  182.88 322.66 345.87  183.21
   1   3  -2 473.744  62.026   2-0.23116 0.35856 0.65836-0.35994 0.71633-0.86132  0 228.34 211.48  339.17 228.24 211.58  339.00
   1   3   2 454.189  70.649   1-0.16105 0.28854 0.64462-0.34670-0.74734 0.89249  0 391.38 224.86    3.20 391.60 224.74    3.31
   1   3   2 447.829  58.983   2-0.21199 0.33945-0.16629 0.46460 0.96302-0.81788  0 222.12 223.46   29.97 222.02 223.32   30.30
   1   3   2 499.152  66.912   2 0.04414 0.08335 0.58576-0.28721-0.80928 0.95423  0 308.02 347.53  236.75 308.04 347.40  237.00
  -1  -3  -3 238.497  58.039   1-0.31796 0.19047 0.47845-0.77637-0.81853 0.60081  0 214.76 296.42   17.27 214.66 296.33   17.05
  -1  -3  -3 236.618  70.138   1 0.02947-0.15714-0.75002 0.45188 0.66076-0.87813  0 399.61 301.87  172.26 399.45 301.90  172.34
  -1  -3  -3 233.686  63.249   2-0.12380-0.00370-0.70883 0.41039 0.69444-0.91190  0 397.06 305.25   66.08 397.24 305.37   65.92
  -1  -3  -3 213.161  61.474   2 0.07947-0.20696 0.38120-0.67975-0.92107 0.70364  0 286.95 160.71  223.56 287.07 160.69  223.47
  -1  -3   3 228.199  57.075   1-0.69638 0.56888-0.39525 0.09722-0.59902 0.81666  0 208.31 239.95   75.46 208.35 240.05   75.49
  -1  -3   3 239.717  68.295   2 0.11504-0.24255-0.76577 0.46728-0.63275 0.85019  0 266.73 166.98  150.61 266.87 166.95  150.88
  -1  -3   3 147.797  66.353   2-0.24047 0.11306 0.46757-0.76582 0.85062-0.63304  0 384.03 324.23  351.88 384.09 324.03  352.42
  -1   3  -3 174.050  68.989   1-0.69839 0.57089-0.44966 0.74769-0.55683 0.33920  0 405.09 227.80   79.33 405.05 227.53   79.44
  -1   3  -3 245.717  67.631   2 0.13575-0.26326-0.35901 0.65750-0.92341 0.70597  0 389.84 316.81  180.18 389.86 316.68  179.87
  -1   3  -3 224.462  65.193   2-0.23010 0.10270 0.67107-0.37264 0.70479-0.92227  0 274.65 163.76  338.28 274.90 163.98  338.01
  -1   3   3 226.955  70.470   2-0.17434 0.04688-0.45572 0.75403 0.87288-0.65517  0 256.66 171.86   48.06 256.66 172.03   47.85
  -1   3   3 163.752  68.037   2 0.00720-0.13469 0.74474-0.44619-0.66731 0.88474  0 375.33 332.65  248.91 375.05 332.77  249.44
   1  -3  -3 125.793  36.454   1-0.55256 0.68005 0.11139-0.40931-0.82600 0.60828  0 256.04 343.34   42.24 256.11 343.10   42.20
   1  -3  -3 265.777  73.019   2-0.10917 0.23666-0.76491 0.46647 0.63482-0.85229  0 343.85 350.85   70.72 343.74 350.95   70.70
   1  -3  -3 193.329  52.177   2 0.07183 0.05566 0.43032-0.72887-0.89981 0.68238  0 231.40 192.69  226.73 231.18 192.79  226.57
   1  -3   3 229.681  58.273   1-0.64315 0.77079-0.72034 0.42224-0.25976 0.47707  0 210.30 283.71  102.72 210.27 283.88  102.85
   1  -3   3 193.478  64.555   2-0.23990 0.36735 0.31248-0.61079 0.91913-0.70142  0 323.29 356.64    2.45 323.13 356.35    2.39
   1  -3   3 247.967  57.089   2 0.12166 0.00585-0.70942 0.41094-0.69421 0.91165  0 219.99 208.40  156.19 219.78 208.35  155.68
   1   3  -3 188.735  69.756   1-0.62021 0.74772-0.05054 0.34857-0.78280 0.56517  0 407.81 278.77   53.08 407.75 278.79   52.56
   1   3  -3 268.460  70.096   2 0.13553-0.00802-0.44652 0.74501-0.88445 0.66701  0 332.06 354.61  174.42 331.99 354.49  174.38
   1   3  -3 234.812  56.920   2-0.21786 0.34527 0.77807-0.47965 0.58919-0.80668  0 224.26 201.59  329.15 224.24 201.61  328.92
   1   3   3 247.406  52.497   2-0.19210 0.31956-0.33524 0.63355 0.92234-0.70463  0 214.27 218.87   40.30 214.40 218.86   40.33
   1   3   3 241.593  63.193   2 0.00819 0.11930 0.74111-0.44255-0.67134 0.88877  0 310.12 357.42  248.83 310.05 357.43  249.12
  -1  -3  -4 65150.8   510.9   1-0.24742 0.11993 0.55920-0.85712-0.79125 0.50096  0 206.78 306.49   10.99 206.74 306.39   10.72
  -1  -3  -4 68838.5   525.7   1-0.09129-0.03638-0.82309 0.52495 0.56052-0.85035  0 410.15 314.45  162.39 410.27 314.36  162.43
  -1  -3  -4 68562.9   526.1   2-0.09180-0.03570-0.82289 0.52445 0.56073-0.85069  0 409.57 314.38   76.03 409.87 314.42   76.18
  -1  -3  -4 66175.6   518.8   2 0.06077-0.18826 0.49723-0.79578-0.86549 0.57558  0 283.01 148.52  231.07 283.09 148.63  230.91
  -1  -3   4 53476.5   488.4   1-0.69670 0.56920-0.51034 0.21232-0.50414 0.79432  0 199.02 230.41   83.93 198.95 230.41   84.04
  -1  -3   4 64874.2   539.1   2 0.09931-0.22683-0.85439 0.55569-0.51006 0.79985  0 256.55 158.18  142.06 256.63 158.26  142.14
  -1  -3   4 62064.8   525.6   2-0.23766 0.11026 0.55727-0.85569 0.79559-0.50561  0 390.57 338.68  346.36 390.90 338.72  346.38
  -1   3  -4 52584.8   486.9   1-0.69765 0.57014-0.48991 0.78793-0.52276 0.23259  0 423.76 237.63   82.39 423.99 237.73   82.45
  -1   3  -4 66470.7   530.8   2 0.13510-0.26261-0.47147 0.76996-0.87147 0.58155  0 401.80 325.89  172.80 402.09 325.84  172.77
  -1   3  -4 62532.3   518.8   2-0.21659 0.08918 0.78665-0.48823 0.57816-0.86815  0 270.70 152.12  328.01 270.87 152.26  328.11
  -1   3   4 73062.0   572.6   2-0.15793 0.03043-0.54815 0.84659 0.82133-0.53138  0 246.87 163.89   54.03 246.73 164.00   54.00
  -1   3   4 59310.5   518.6   2-0.02134-0.10611 0.83782-0.53928-0.54553 0.83542  0 381.17 347.07  258.34 381.04 346.92  258.39
   1  -3  -4 62057.1   352.8   1-0.43735 0.56484 0.31568-0.61361-0.84207 0.55177  0 251.58 354.64   28.88 251.48 354.43   28.71
   1  -3  -4 66090.7   365.3   1-0.17356 0.30123-0.85931 0.56117 0.48111-0.77094  0 353.51 362.58  155.66 353.36 362.44  155.55
   1  -3  -4 70856.7   565.4   2-0.08160 0.20910-0.85301 0.55457 0.51548-0.80544  0 354.88 361.78   79.19 354.86 361.71   79.35
   1  -3  -4 66997.5   548.2   2 0.05512 0.07237 0.52875-0.82730-0.84699 0.55708  0 226.19 181.20  233.05 226.04 181.21  233.03
   1  -3   4 54405.4   497.2   1-0.61674 0.74438-0.76431 0.46622-0.18831 0.47806  0 196.81 274.67  107.94 196.83 274.70  107.88
   1  -3   4 66829.7   530.7   2 0.10633 0.02119-0.81891 0.52021-0.56398 0.85377  0 210.46 201.80  146.00 210.33 201.83  145.87
   1  -3   4 62765.8   516.6   2-0.24111 0.36851 0.42720-0.72545 0.87142-0.58131  0 326.99 369.64  355.01 327.00 369.52  355.03
   1   3  -4 53690.8   490.0   1-0.64790 0.77541-0.13514 0.43317-0.74964 0.45946  0 420.75 290.66   58.00 420.96 290.71   58.00
   1   3  -4 70196.8   557.0   2 0.13291-0.00540-0.54413 0.84262-0.82840 0.53848  0 343.05 365.94  168.01 343.07 365.80  167.92
   1   3  -4 55875.8   496.3   2-0.20280 0.33021 0.85961-0.56119 0.46899-0.75897  0 218.78 189.72  320.59 218.69 189.77  320.51
   1   3   4 72209.1   537.0   2-0.17416 0.30162-0.45684 0.75514 0.87234-0.58205  0 204.92 212.34   48.11 204.87 212.34   47.92
   1   3   4 61569.8   497.2   2-0.02405 0.15150 0.84548-0.54694-0.53346 0.82335  0 313.61 370.81  259.02 313.63 370.59  259.22
  -1  -3  -5  4198.9   160.5   1-0.19180 0.06431 0.61572-0.91365-0.76426 0.40139  0 196.97 317.13    6.02 196.88 317.00    5.92
  -1  -3  -5  4334.3   177.4   1-0.19689 0.06922-0.86744 0.56931 0.45692-0.81921  0 424.14 328.16  153.65 424.28 328.11  153.57
  -1  -3  -5  4284.3   180.8   2-0.06407-0.06343-0.89796 0.59952 0.43540-0.79785  0 425.01 326.01   84.73 425.17 326.02   84.72
  -1  -3  -5  3932.7   171.3   2 0.04625-0.17374 0.57517-0.87372-0.81673 0.45434  0 277.74 134.17  236.08 277.85 134.30  236.24
  -1  -3   5  3491.7   151.4   1-0.68387 0.55637-0.60348 0.30545-0.41004 0.77276  0 187.98 220.35   91.65 187.86 220.38   91.66
  -1  -3   5  4230.6   170.8   2 0.08388-0.21141-0.91385 0.61515-0.39730 0.75954  0 245.35 147.89  134.80 245.16 147.98  134.79
  -1  -3   5  4024.9   191.7   2-0.23425 0.10684 0.61651-0.91493 0.75169-0.38922  0 399.13 355.89  342.05 399.38 355.90  342.14
  -1   3  -5  3383.2   178.5   1-0.69656 0.56906-0.51234 0.81036-0.50231 0.13959  0 445.19 248.52   84.07 445.35 248.63   84.19
  -1   3  -5  4320.9   184.4   2 0.13272-0.26023-0.54886 0.84735-0.82531 0.46291  0 416.57 337.63  167.55 416.86 337.59  167.60
  -1   3  -5  3631.9   175.0   2-0.20125 0.07384 0.86620-0.56778 0.45738-0.81986  0 265.42 138.17  319.78 265.53 138.32  319.74
  -1   3   5  4199.4   173.1   2-0.14577 0.01828-0.61085 0.90929 0.77821-0.41576  0 235.65 154.15   58.41 235.51 154.27   58.42
  -1   3   5  3920.2   186.7   2-0.04613-0.08132 0.90079-0.60225-0.43180 0.79416  0 388.52 363.86  266.14 388.72 363.70  265.98
   1  -3  -5  4115.4   111.7   1-0.33056 0.45805 0.46301-0.76093-0.82241 0.45954  0 243.45 366.68   18.18 243.32 366.46   18.21
   1  -3  -5  4548.7   128.1   1-0.33832 0.46596-0.89489 0.59680 0.29105-0.65323  0 363.44 377.24  141.01 363.22 377.14  140.95
   1  -3  -5  4473.2   197.6   2-0.05759 0.18508-0.91264 0.61420 0.40469-0.76714  0 367.90 375.12   86.72 367.86 375.04   86.70
   1  -3  -5  4016.4   165.7   2 0.04220 0.08529 0.59543-0.89398-0.80230 0.43991  0 219.75 167.85  238.03 219.58 167.88  237.69
   1  -3   5  3367.2   155.3   1-0.58920 0.71684-0.79852 0.50043-0.12331 0.48550  0 182.45 265.34  112.34 182.46 265.39  112.37
   1  -3   5  4180.6   164.1   2 0.09003 0.03750-0.89287 0.59417-0.44123 0.80346  0 199.43 193.67  137.58 199.31 193.71  137.59
   1  -3   5  3939.8   181.2   2-0.23935 0.36675 0.50744-0.80568 0.82778-0.46515  0 332.06 385.60  349.74 332.11 385.51  349.78
   1   3  -5  3141.4   175.0   1-0.66443 0.79193-0.19635 0.49437-0.72110 0.35838  0 436.98 303.65   61.98 437.18 303.71   61.98
   1   3  -5  4226.3   188.5   2 0.12960-0.00209-0.60898 0.90746-0.78253 0.42013  0 355.81 379.79  163.27 355.86 379.65  163.37
   1   3  -5  3449.2   158.0   2-0.18771 0.31511 0.91390-0.61548 0.35994-0.72242  0 211.88 176.21  313.50 211.82 176.28  313.45
   1   3   5  4419.1   161.5   2-0.15954 0.28703-0.53942 0.83785 0.82679-0.46434  0 193.75 204.28   53.38 193.68 204.32   53.40
   1   3   5  3444.6   165.2   2-0.05151 0.17895 0.91208-0.61354-0.40676 0.76912  0 318.36 386.90  267.60 318.36 386.61  267.58
  -1  -3  -6 10290.0   241.3   1-0.15092 0.02343 0.65382-0.95174-0.74145 0.30600  0 185.38 328.42    2.45 185.34 328.39    2.45
  -1  -3  -6 10838.4   261.8   1-0.28637 0.15873-0.88955 0.59146 0.35594-0.79056  0 441.37 343.67  145.97 441.42 343.50  145.73
  -1  -3  -6 11292.7   279.7   2-0.04059-0.08690-0.94576 0.64733 0.32231-0.75724  0 443.16 340.12   92.16 443.34 340.14   91.89
  -1  -3  -6 10743.3   271.3   2 0.03577-0.16326 0.62609-0.92464-0.77893 0.34406  0 271.45 117.63  239.86 271.59 117.79  239.94
  -1  -3   6  8968.2   237.6   1-0.66230 0.53480-0.67763 0.37960-0.31965 0.75491  0 175.29 209.76   98.37 175.24 209.75   98.47
  -1  -3   6 10823.6   269.6   2 0.06892-0.19645-0.95276 0.65406-0.29580 0.73049  0 232.71 136.12  128.45 232.52 136.24  128.50
  -1  -3   6 10890.2   292.2   2-0.23147 0.10407 0.65451-0.95293 0.71975-0.28478  0 409.24 375.71  339.27 409.53 375.71  339.29
  -1   3  -6  9754.0   266.7   1-0.69574 0.56823-0.52285 0.82087-0.49253 0.05726  0 469.38 260.47   85.02 469.65 260.54   85.02
  -1   3  -6 11012.6   283.3   2 0.13010-0.25761-0.60057 0.89905-0.78892 0.35404  0 434.12 352.00  164.11 434.36 351.90  163.97
  -1   3  -6  9689.4   266.3   2-0.18578 0.05837 0.91940-0.62098 0.34667-0.78165  0 258.95 122.07  312.70 259.08 122.26  312.62
  -1   3   6 10779.1   270.7   2-0.13697 0.00947-0.65198 0.95042 0.74576-0.31082  0 223.07 142.94   61.47 223.01 143.08   61.47
  -1   3   6  9363.0   276.5   2-0.06767-0.05977 0.94220-0.64366-0.32814 0.76298  0 397.82 383.42  272.51 398.01 383.21  272.50
   1  -3  -6 10819.8   184.2   1-0.24979 0.37728 0.55666-0.85459-0.79230 0.35685  0 232.84 379.77   10.98 232.73 379.54   10.92
   1  -3  -6 10648.8   194.1   1-0.44742 0.57506-0.88384 0.58575 0.13652-0.57114  0 376.58 394.22  130.03 376.44 393.99  130.09
   1  -3  -6 10510.8   290.7   2-0.03686 0.16435-0.95200 0.65356 0.30388-0.73882  0 382.77 391.06   93.05 382.82 391.04   93.02
   1  -3  -6 10550.6   268.2   2 0.03284 0.09466 0.63954-0.93810-0.76805 0.33319  0 211.97 152.80  241.15 211.90 152.89  240.95
   1  -3   6  8861.6   245.1   1-0.56092 0.68856-0.82546 0.52737-0.06314 0.49777  0 167.07 255.75  116.44 167.08 255.81  116.49
   1  -3   6 10081.4   251.1   2 0.07393 0.05360-0.94117 0.64247-0.32975 0.76443  0 186.85 184.24  130.56 186.76 184.30  130.57
   1  -3   6 10216.4   274.8   2-0.23749 0.36489 0.56104-0.85947 0.79299-0.35801  0 338.27 404.44  346.11 338.31 404.34  346.12
   1   3  -6  8897.9   254.7   1-0.67403 0.80153-0.23856 0.53659-0.69913 0.26386  0 456.33 318.15   64.77 456.59 318.21   64.77
   1   3  -6 10787.5   286.1   2 0.12684 0.00067-0.65113 0.94962-0.74829 0.31341  0 370.46 396.28  159.89 370.44 396.12  160.25
   1   3  -6  9006.7   247.7   2-0.17298 0.30039 0.94939-0.65097 0.26216-0.69714  0 203.81 161.19  307.47 203.74 161.28  307.42
   1   3   6 10968.0   257.0   2-0.14905 0.27654-0.59450 0.89294 0.79016-0.35522  0 181.05 194.97   57.01 180.98 195.00   57.24
   1   3   6  9349.5   254.6   2-0.07456 0.20201 0.95294-0.65440-0.29383 0.72866  0 324.09 405.74  274.61 324.07 405.46  274.60
  -1  -3  -7  1667.2   184.2   1-0.36171 0.23407-0.89526 0.59717 0.26015-0.76721  0 462.29 361.57  138.68 462.05 361.27  138.74
  -1  -3  -7  1687.0   205.1   2-0.02061-0.10689-0.97502 0.67659 0.22114-0.72857  0 464.80 356.91   98.38 464.80 356.88   98.03
  -1  -3  -7  1371.4   152.4   2 0.02857-0.15606 0.65838-0.95693-0.75215 0.24480  0 264.34  98.82  242.38 264.39  99.04  242.38
  -1  -3   7  1276.7   139.3   1-0.63449 0.50685-0.73623 0.43814-0.23533 0.74238  0 161.11 198.40  104.56 161.27 198.42  104.59
  -1  -3   7  1662.8   166.7   2 0.05461-0.18213-0.97737 0.67867-0.20436 0.71150  0 218.76 122.92  122.91 218.64 123.00  123.00
  -1  -3   7  1460.7   176.0   2-0.22949 0.10209 0.67785-0.97627 0.69847-0.19100  0 421.39 398.51  337.49 421.52 398.49  337.47
  -1   3  -7  1318.0   166.4   1-0.69557 0.56806-0.52478 0.82281-0.49071-0.01710  0 497.35 273.69   85.34 497.62 273.87   85.17
  -1   3  -7  1338.6   158.0   2 0.12803-0.25554-0.63399 0.93248-0.76267 0.25531  0 454.83 369.05  161.45 455.00 368.98  161.54
  -1   3  -7  1340.4   150.0   2-0.17054 0.04314 0.95405-0.65563 0.24638-0.75385  0 251.89 103.89  306.54 251.66 104.03  306.47
  -1   3   7  1612.1   162.6   2-0.13113 0.00363-0.67798 0.97642 0.72329-0.21587  0 209.18 130.24   63.48 209.16 130.44   63.47
  -1   3   7  1639.3   177.1   2-0.08628-0.04117 0.96839-0.66984-0.23405 0.74136  0 408.86 405.73  278.36 409.01 405.78  278.21
   1  -3  -7  1584.6   110.1   1-0.19456 0.32205 0.61305-0.91098-0.76571 0.25769  0 220.51 394.30    6.18 220.39 394.02    6.15
   1  -3  -7  1503.1   140.7   1-0.52077 0.64841-0.85359 0.55550 0.01351-0.52056  0 392.33 413.94  121.67 392.49 413.64  121.69
   1  -3  -7  1886.5   213.9   2-0.01892 0.14641-0.97701 0.67857 0.21237-0.71980  0 399.93 410.08   98.53 400.09 410.01   98.55
   1  -3  -7  1438.6   159.1   2 0.02640 0.10109 0.66780-0.96635-0.74388 0.23653  0 202.96 136.22  243.34 202.97 136.14  243.11
   1  -3   7  1160.2   141.6   1-0.53191 0.65955-0.84678 0.54868-0.00670 0.51375  0 150.42 245.72  120.15 150.53 245.78  120.31
   1  -3   7  1337.1   148.0   2 0.05858 0.06894-0.97157 0.67287-0.22941 0.73654  0 172.63 173.67  124.44 172.63 173.69  124.49
   1  -3   7  1495.3   165.7   2-0.23554 0.36294 0.59642-0.89484 0.76734-0.25986  0 345.52 426.43  343.63 345.53 426.29  343.60
   1   3  -7  1265.1   160.5   1-0.67951 0.80701-0.26565 0.56367-0.68389 0.17608  0 479.40 334.78   66.59 479.55 334.81   66.57
   1   3  -7  1560.1   173.6   2 0.12464 0.00287-0.67758 0.97607-0.72481 0.21745  0 386.91 415.48  157.90 387.12 415.52  158.22
   1   3  -7  1320.8   154.6   2-0.15902 0.28642 0.97181-0.67339 0.17408-0.68155  0 194.55 144.63  302.33 194.42 144.66  302.13
   1   3   7  1595.8   150.7   2-0.14175 0.26924-0.62994 0.92838 0.76360-0.25617  0 166.72 184.68   59.66 166.68 184.59   59.82
   1   3   7  1290.3   151.6   2-0.09407 0.22152 0.97657-0.67802-0.19356 0.70087  0 330.62 427.55  280.69 330.63 427.37  280.62
  -1  -3  -8 -25.044 139.442   1-0.42509 0.29745-0.88896 0.59087 0.17044-0.74993  0 486.18 381.97  132.61 486.58 382.10  132.44
  -1  -3  -8 -92.399 138.907   2-0.00359-0.12393-0.99139 0.69269 0.13093-0.71051  0 490.29 376.29  103.59 490.20 376.56  103.40
  -1  -3  -8 -11.462 119.746   2 0.02413-0.15162 0.67763-0.97618-0.73501 0.15519  0 256.08  77.72  242.85 256.28  77.74  243.88
  -1  -3   8 146.648  92.889   1-0.60299 0.47535-0.78256 0.48447-0.15489 0.73439  0 145.34 185.89  110.39 145.49 185.90  110.20
  -1  -3   8  77.124 105.310   2 0.04105-0.16857-0.99177 0.69307-0.12130 0.70089  0 203.18 108.35  118.57 203.29 108.17  118.11
  -1  -3   8  61.493 161.317   2-0.22828 0.10088 0.69081-0.98923 0.68606-0.10609  0 435.68 424.81  337.15 435.65 424.96  336.44
  -1   3  -8  67.802 143.223   2 0.12659-0.25410-0.65441 0.95289-0.74547 0.16563  0 479.20 389.36  161.19 479.52 389.30  160.00
  -1   3  -8  48.649 100.006   2-0.15599 0.02859 0.97545-0.67703 0.15543-0.73540  0 243.40  83.16  301.52 243.19  83.32  301.03
  -1   3   8 -86.254 101.691   2-0.12756 0.00007-0.69314 0.99158 0.70943-0.12951  0 193.35 115.92   64.41 193.78 116.22   64.66
  -1   3   8 -36.892 159.663   2-0.10262-0.02482 0.98361-0.68506-0.14828 0.72806  0 421.91 431.55  282.89 421.99 432.05  283.29
   1  -3  -8  54.914  70.250   1-0.16048 0.28797 0.64514-0.94307-0.74702 0.16643  0 206.75 410.81    3.49 206.68 410.37    3.26
   1  -3  -8  39.185 103.064   1-0.57269 0.70033-0.81511 0.51701-0.08732-0.49217  0 411.20 437.22  114.53 411.28 436.86  114.84
   1  -3  -8 -14.122 157.583   2-0.00324 0.13076-0.99157 0.69287 0.12952-0.70910  0 420.54 432.30  103.50 420.09 432.38  103.49
   1  -3  -8  11.635  98.512   2 0.02243 0.10506 0.68474-0.98330-0.72844 0.14862  0 192.56 117.16  243.89 192.71 117.42  244.44
   1  -3   8  -0.971  87.629   1-0.50201 0.62965-0.86359 0.56550 0.04681 0.53268  0 132.70 235.30  123.61 132.54 235.08  123.96
   1  -3   8  -2.744  89.977   2 0.04396 0.08356-0.98935 0.69065-0.13876 0.71834  0 156.42 161.97  119.58 156.74 161.89  119.13
   1  -3   8  24.179 142.341   2-0.23413 0.36154 0.61824-0.91667 0.75030-0.17034  0 353.94 451.93  342.54 353.82 451.91  342.01
   1   3  -8 -14.044 143.892   2 0.12330 0.00421-0.69295 0.99144-0.71036 0.13052  0 406.41 438.49  157.53 406.37 438.47  157.01
   1   3  -8 -78.120  96.831   2-0.14578 0.27323 0.98481-0.68627 0.09430-0.67408  0 183.83 126.08  297.28 183.76 126.21  297.46
   1   3   8   3.616  84.969   2-0.13708 0.26457-0.65149 0.94993 0.74617-0.16626  0 150.36 173.04   60.79 150.59 173.10   61.43
   1   3   8  43.041 142.967   2-0.11090 0.23835 0.98839-0.68985-0.10381 0.68359  0 338.23 452.84  284.83 338.06 452.87  285.90
  -1  -3  -9 195.439 126.474   2 0.02176-0.14926 0.68750-0.98606-0.72585 0.07355  0 247.38  53.91  245.22 247.14  53.35  244.66
  -1  -3   9 140.451 109.964   1-0.56873 0.44109-0.81871 0.52062-0.07909 0.73102  0 127.71 172.11  115.47 127.83 171.90  115.40
  -1  -3   9 371.859 142.573   2 0.02803-0.15555-0.99859 0.69989-0.04507 0.69710  0 186.26  91.25  114.17 186.16  91.42  113.66
  -1  -3   9 217.140 207.498   2-0.22776 0.10035 0.69613-0.99455 0.68083-0.02837  0 452.04 455.87  335.88 452.50 456.16  336.01
  -1   3  -9 188.728 126.721   2-0.14206 0.01461 0.98718-0.68864 0.07271-0.72496  0 233.49  59.66  295.86 233.63  59.66  296.19
  -1   3   9 194.263 135.936   2-0.12584-0.00165-0.70030 0.99873 0.70267-0.05027  0 176.30 100.14   65.06 176.54 100.19   65.23
  -1   3   9 123.028 207.891   2-0.11714-0.01031 0.99069-0.69214-0.06944 0.72169  0 437.48 463.20  287.49 437.42 463.09  287.91
   1  -3  -9 190.828 139.087   1-0.61044 0.73808-0.77302 0.47492-0.17267-0.47926  0 432.87 464.96  109.63 433.12 464.85  108.97
   1  -3  -9 153.969 200.489   2 0.01092 0.11661-0.99855 0.69985 0.05267-0.70470  0 443.94 459.64  107.45 443.88 459.45  107.97
   1  -3  -9 118.966 118.247   2 0.02034 0.10715 0.69336-0.99191-0.72030 0.06800  0 180.97  96.17  244.89 180.88  96.30  245.13
   1  -3   9 209.195 116.798   1-0.47141 0.59905-0.87644 0.57834 0.09816 0.55377  0 112.77 223.43  127.38 112.75 223.44  127.46
   1  -3   9 270.274 123.867   2 0.02993 0.09760-0.99798 0.69928-0.05613 0.70816  0 138.73 148.71  114.48 138.73 148.74  114.30
   1  -3   9 186.584 182.246   2-0.23332 0.36072 0.63007-0.92849 0.74066-0.08819  0 363.44 481.88  342.20 363.33 482.11  341.13
   1   3  -9 314.859 203.919   2 0.12259 0.00492-0.70020 0.99869-0.70334 0.05102  0 429.16 466.10  155.89 429.05 466.03  156.43
   1   3  -9 228.252 132.913   2-0.13305 0.26050 0.99089-0.69235 0.02065-0.67290  0 171.41 105.62  292.88 171.45 105.50  293.16
   1   3   9 119.424 107.700   2-0.13457 0.26206-0.66294 0.96138 0.73648-0.08407  0 132.10 160.57   62.28 132.37 160.43   62.30
   1   3   9  98.914 180.400   2-0.12553 0.25298 0.99183-0.69329-0.02255 0.67480  0 346.46 483.27  289.83 346.49 482.88  290.64
  -1  -3 -10  2623.5   268.7   2 0.02108-0.14857 0.69035-0.98890-0.72317-0.00160  0 236.82  24.91  244.66 236.74  25.03  244.89
  -1  -3  10  2344.9   216.7   1-0.53228 0.40464-0.84653 0.54844-0.00739 0.73176  0 108.00 155.95  120.16 107.90 155.93  120.27
  -1  -3  10  2556.6   267.9   2 0.01581-0.14333-0.99954 0.70085 0.02571 0.69876  0 166.82  72.08  109.50 166.76  72.31  109.54
  -1  -3  10  2557.2   324.9   2-0.22781 0.10041 0.69557-0.99399 0.68138 0.04358  0 472.58 493.41  335.87 472.95 493.76  336.05
  -1   3 -10  2566.7   266.0   2-0.12877 0.00132 0.99167-0.69312-0.00391-0.72082  0 222.70  32.23  291.71 222.60  32.17  291.73
  -1   3  10  2521.4   272.3   2-0.12560-0.00190-0.70129 0.99973 0.70172 0.02317  0 156.90  81.90   64.85 156.94  81.92   65.31
  -1   3  10  2407.7   319.6   2-0.13011 0.00266 0.99149-0.69295 0.00374 0.72098  2 455.83 500.26  291.88 456.08 500.51  292.17
   1  -3 -10  2098.8   213.6   1-0.63898 0.76662-0.72826 0.43017-0.24766-0.47671  2 458.43 499.75  103.63 458.71 499.50  103.71
   1  -3 -10  2770.1   323.1   2 0.02351 0.10402-0.99955 0.70085-0.01879-0.70569  0 472.64 492.61  111.88 472.72 492.66  112.13
   1  -3 -10  2392.9   260.3   2 0.01979 0.10770 0.69561-0.99416-0.71815-0.00663  0 167.03  71.84  244.88 167.11  72.14  245.31
   1  -3  10  2329.8   219.6   1-0.44010 0.56774-0.88569 0.58760 0.14783 0.57654  0  90.89 210.57  130.66  90.64 210.47  130.87
   1  -3  10  2504.0   249.2   2 0.01683 0.11069-0.99966 0.70096 0.01992 0.70456  0 118.42 133.98  109.68 118.09 134.03  109.88
   1   3 -10  2560.6   313.4   2 0.12249 0.00502-0.70125 0.99973-0.70231-0.02249  0 456.28 500.00  155.88 456.38 499.78  156.34
   1   3 -10  2205.1   258.1   2-0.12101 0.24845 0.99150-0.69295-0.04790-0.67682  0 157.14  81.68  288.87 157.12  81.93  289.16
   1   3  10  2678.4   235.4   2-0.13369 0.26119-0.66681 0.96525 0.73313-0.00824  0 111.90 146.32   62.59 111.50 146.35   62.60
  -1  -3  11 787.621 188.695   1-0.49387 0.36623-0.86741 0.56932 0.06077 0.73604  0  85.09 137.25  124.63  85.06 137.29  124.91
  -1  -3  11 735.195 208.798   2 0.00376-0.13128-0.99575 0.69705 0.09203 0.70490  0 144.79  50.63  105.72 144.39  50.22  105.68
  -1   3  11 796.723 209.901   2-0.12656-0.00094-0.69733 0.99577 0.70549 0.09190  0 134.39  60.64   65.04 134.27  60.78   64.99
   1  -3 -11 640.483 197.960   2 0.02049 0.10700 0.69277-0.99132-0.72087-0.07638  0 150.91  43.73  245.42 150.85  43.98  245.08
   1  -3  11 451.697 163.209   1-0.40776 0.53540-0.89179 0.59370 0.19608 0.60073  0  65.15 195.61  134.36  65.54 195.67  134.21
   1  -3  11 676.711 181.817   2 0.00399 0.12353-0.99587 0.69717 0.09074 0.70618  0  94.76 117.45  106.07  94.13 117.40  105.76
   1   3 -11 601.368 197.980   2-0.10932 0.23677 0.98764-0.68910-0.11230-0.68490  0 140.23  54.63  285.42 140.22  54.56  285.40
   1   3  11 401.890 162.892   2-0.13417 0.26167-0.66470 0.96314 0.73497 0.06242  0  87.30 130.59   62.39  87.21 130.50   62.44
  -1  -3  12  4650.9   327.2   1-0.45408 0.32644-0.88201 0.58392 0.12596 0.74329  0  58.27 114.80  129.35  58.42 114.97  129.37
  -1  -3  12  4470.2   422.3   2-0.00804-0.11948-0.98792 0.68922 0.15474 0.71463  0 118.35  23.89  102.21 117.92  24.01  102.00
   1  -3 -12  4464.3   406.2   2 0.02221 0.10529 0.68567-0.98423-0.72757-0.14216  0 131.36  10.20  244.53 131.23  10.34  244.52
   1  -3  12  3896.4   310.2   1-0.37426 0.50190-0.89487 0.59678 0.24318 0.62606  0  36.46 178.18  137.46  36.33 178.31  137.53
   1  -3  12  4111.7   354.1   2-0.00853 0.13605-0.98751 0.68881 0.15732 0.71206  0  65.97  98.10  101.75  65.58  98.16  101.85
   1   3 -12  4376.8   398.2   2-0.09792 0.22536 0.97998-0.68144-0.17335-0.69632  0 120.12  22.15  281.78 119.78  22.02  281.81
   1   3  12  4269.1   346.3   2-0.13576 0.26325-0.65764 0.95608 0.74100 0.12888  0  58.81 112.37   61.99  58.37 112.34   61.90
  -1  -4   0  7832.6   192.4   1-0.61017 0.48267-0.02336-0.37401-0.79192 0.79192  0 202.11 278.89   50.98 202.08 278.80   50.82
  -1  -4   0  8432.5   203.9   2-0.21352 0.08607-0.15087-0.24688 0.96522-0.96522  0 398.07 320.89   29.30 398.38 320.90   29.40
  -1  -4   0  9049.0   210.2   2 0.13420-0.26171-0.26241-0.13557-0.95558 0.95558  0 273.90 156.20  185.74 274.02 156.30  185.70
  -1   4   0  7886.0   175.2   1-0.58908 0.46159 0.03001 0.36722-0.80752 0.80752  0 387.41 182.23   47.31 387.66 182.41   47.42
  -1   4   0  8726.7   212.8   2-0.23465 0.10719 0.14410 0.25365 0.96134-0.96134  0 259.15 162.21   12.23 259.33 162.32   12.38
  -1   4   0  7971.3   204.1   2 0.09676-0.22425 0.25044 0.14763-0.96328 0.96328  0 386.60 334.12  215.48 386.86 334.02  215.51
   1  -4   0  6617.2   158.4   1-0.69832 0.82583-0.44321 0.04584-0.56206 0.56206  0 223.31 324.10   79.02 223.27 323.99   78.96
   1  -4   0  8572.4   210.6   2-0.19881 0.32627-0.28301-0.11474 0.93829-0.93829  0 340.29 361.11   37.00 340.33 361.00   37.18
   1  -4   0  9138.4   207.3   2 0.13137-0.00386-0.17733-0.22065-0.97534 0.97534  0 221.92 193.09  190.91 221.78 193.07  190.72
   1   4   0  8161.1   207.1   1-0.41313 0.54062 0.35167 0.04556-0.84003 0.84003  0 416.29 232.83   26.01 416.46 232.92   26.22
   1   4   0  8693.4   195.7   2-0.23960 0.36706 0.29608 0.10167 0.92462-0.92462  0 213.38 205.70    3.29 213.29 205.70    3.38
   1   4   0  8452.8   203.8   2 0.10412 0.02337 0.18610 0.21197-0.97700 0.97700  0 323.67 364.60  211.74 323.68 364.40  211.72
  -1  -4  -1 22729.5   313.8   1-0.55634 0.42885 0.10348-0.50072-0.82448 0.75191  0 202.81 288.43   42.98 202.88 288.31   42.71
  -1  -4  -1 25719.7   330.9   2-0.19244 0.06498-0.33269-0.06506 0.92319-0.99576  0 401.74 319.43   40.02 402.10 319.48   40.17
  -1  -4  -1 24033.8   321.5   2 0.12675-0.25426-0.08667-0.31131-0.98814 0.91566  0 276.27 153.61  196.00 276.37 153.71  195.99
  -1  -4   1 21018.3   309.9   1-0.65271 0.52520-0.15183-0.24554-0.74224 0.81478  0 199.00 269.52   58.94 199.02 269.40   59.09
  -1  -4   1 24146.9   325.8   2-0.22800 0.10054 0.02474-0.42249 0.97335-0.90077  0 397.17 325.68   18.84 397.45 325.67   19.27
  -1  -4   1 23418.5   321.5   2 0.13567-0.26318-0.43187 0.03390-0.89167 0.96415  0 269.54 155.83  175.21 269.67 155.95  175.33
  -1   4  -1 20850.1   287.6   1-0.64295 0.51544-0.11868 0.51605-0.75666 0.68412  0 399.22 192.37   57.16 399.44 192.55   56.94
  -1   4  -1 24564.4   334.1   2-0.23995 0.11249 0.31647 0.08127 0.91775-0.99032  0 261.16 159.34    2.00 261.32 159.43    2.15
  -1   4  -1 24735.6   333.6   2 0.11426-0.24175 0.08239 0.31568-0.99003 0.91755  0 390.49 333.17  205.72 390.77 333.08  205.69
  -1   4   1 22912.0   267.8   1-0.49554 0.36805 0.22017 0.17706-0.84022 0.91279  0 378.76 171.66   35.00 378.68 171.80   35.12
  -1   4   1 17250.3   282.2   2-0.22446 0.09700-0.02376 0.42151 0.97419-0.90162  0 255.25 162.29   22.00 255.37 162.43   22.05
  -1   4   1 22817.5   325.3   2 0.07430-0.20179 0.41495-0.01688-0.90681 0.97928  0 385.23 338.35  225.59 385.49 338.22  225.59
   1  -4  -1 18947.6   240.5   1-0.68976 0.81727-0.32938-0.06799-0.64478 0.57224  0 230.28 334.38   71.00 230.25 334.20   70.89
   1  -4  -1 25489.1   341.1   2-0.17639 0.30385-0.44284 0.04509 0.87908-0.95165  0 344.81 361.75   46.85 344.83 361.67   47.03
   1  -4  -1 23968.8   327.1   2 0.12131 0.00618-0.00647-0.39160-0.99259 0.92012  0 222.88 189.27  200.65 222.73 189.27  200.58
   1  -4   1 17969.8   263.6   1-0.69449 0.82199-0.53619 0.13882-0.47977 0.55232  0 214.37 314.28   85.89 214.35 314.15   86.07
   1  -4   1 22466.0   319.5   2-0.21659 0.34405-0.11851-0.27923 0.96904-0.89647  0 337.92 363.81   27.50 337.90 363.69   27.53
   1  -4   1 24058.9   324.3   2 0.13570-0.00819-0.35125-0.04672-0.92639 0.99887  0 218.89 194.31  180.25 218.78 194.32  180.34
   1   4  -1 21057.3   315.2   1-0.49024 0.61773 0.22942 0.16781-0.84085 0.76828  0 420.68 243.91   34.43 420.86 243.98   34.51
   1   4  -1 23387.3   320.2   2 0.12034 0.00716 0.00677 0.39131-0.99271 0.92023  0 328.41 365.82  201.23 328.42 365.62  201.34
   1   4  -1 24014.1   320.5   2-0.24064 0.36804 0.45893-0.06128 0.85526-0.92779  0 213.96 201.65  353.01 213.92 201.68  352.98
   1   4   1 23221.0   321.8   1-0.31868 0.44617 0.47757-0.08034-0.81876 0.89133  0 415.19 221.58   17.01 415.38 221.67   17.12
   1   4   1 23123.6   308.9   2-0.23378 0.36124 0.12490 0.27284 0.96423-0.89166  0 210.64 207.30   13.45 210.56 207.31   13.49
   1   4   1 22852.1   312.7   2 0.08129 0.04620 0.36862 0.02945-0.92602 0.99850  0 320.99 366.87  222.70 321.00 366.64  222.69
  -1  -4  -2  6879.1   184.9   1-0.49539 0.36790 0.22042-0.61766-0.84024 0.69509  0 201.22 298.18   35.01 201.25 298.04   35.10
  -1  -4  -2  7300.9   200.3   2-0.16626 0.03877-0.50180 0.10388 0.84885-0.99383  0 408.30 321.31   51.00 408.57 321.34   50.87
  -1  -4  -2  7327.9   198.0   2 0.11464-0.24213 0.07806-0.47614-0.99034 0.84538  0 276.67 148.05  205.45 276.77 148.16  205.44
  -1  -4   2  5635.8   175.8   1-0.68120 0.55369-0.27481-0.12256-0.67856 0.82365  0 193.73 260.11   67.03 193.76 260.05   67.19
  -1  -4   2  6387.6   196.5   2-0.23614 0.10868 0.17846-0.57620 0.95519-0.81005  0 398.78 333.66   10.26 399.04 333.65   10.37
  -1  -4   2  6431.9   194.9   2 0.13120-0.25871-0.58055 0.18257-0.80359 0.94855  0 263.31 152.78  165.32 263.42 152.92  165.40
  -1   4  -2  5859.5   185.9   1-0.67177 0.54427-0.22734 0.62471-0.70501 0.55992  0 413.59 202.32   64.00 413.77 202.52   64.03
  -1   4  -2  6692.1   200.2   2 0.12599-0.25350-0.07414 0.47212-0.98926 0.84430  0 397.05 335.49  196.73 397.30 335.38  196.71
  -1   4  -2  6544.0   200.1   2-0.24026 0.11285 0.47708-0.07942 0.84538-0.99043  0 261.16 153.80  351.77 261.38 153.92  351.80
  -1   4   2  6479.7   151.2   1-0.35242 0.22493 0.43521-0.03798-0.82849 0.97363  0 373.05 160.37   20.18 372.95 160.53   20.27
  -1   4   2  7371.3   199.7   2-0.21131 0.08385-0.17298 0.57073 0.96199-0.81685  0 249.65 159.86   30.68 249.54 159.95   30.69
  -1   4   2  6635.7   203.5   2 0.04886-0.17635 0.56213-0.16406-0.82560 0.97056  0 386.23 345.77  235.27 386.52 345.63  235.33
   1  -4  -2  5543.5   132.8   1-0.66416 0.79166-0.19525-0.20212-0.72164 0.57656  0 234.80 345.12   61.99 234.75 344.94   61.91
   1  -4  -2  6880.7   204.1   2-0.15101 0.27851-0.58461 0.18669 0.79713-0.94211  0 351.41 365.65   56.52 351.42 365.58   56.54
   1  -4  -2  6715.6   189.7   2 0.10825 0.01925 0.14686-0.54493-0.98322 0.83826  0 221.89 183.01  209.44 221.77 183.03  209.43
   1  -4   2  5266.5   161.7   1-0.68218 0.80968-0.61111 0.21374-0.40148 0.54657  0 203.98 304.71   92.15 203.92 304.62   92.32
   1  -4   2  6931.1   200.3   2-0.22874 0.35620 0.03592-0.43366 0.97282-0.82768  0 337.54 369.85   18.66 337.52 369.75   18.62
   1  -4   2  6770.9   187.1   2 0.13404-0.00653-0.51193 0.11395-0.84850 0.99347  0 213.86 193.15  169.89 213.75 193.14  170.10
   1   4  -2  5696.4   194.4   1-0.54870 0.67619 0.11934 0.27789-0.82746 0.68231  0 428.34 255.12   41.68 428.45 255.22   41.69
   1   4  -2  6957.5   201.9   2 0.13029-0.00278-0.15275 0.55073-0.97964 0.83468  0 335.11 370.29  191.89 335.11 370.13  192.16
   1   4  -2  6342.2   181.6   2-0.23534 0.36274 0.59979-0.20190 0.76476-0.90976  0 212.56 195.02  343.38 212.50 195.05  343.36
   1   4   2  6775.2   194.6   1-0.21142 0.33891 0.59639-0.19916-0.77435 0.91949  0 417.48 209.87    7.65 417.68 209.91    7.60
   1   4   2  7495.1   189.6   2-0.22349 0.35095-0.03802 0.43576 0.97396-0.82882  0 205.75 206.40   23.21 205.70 206.41   22.87
   1   4   2  6286.9   187.5   2 0.05391 0.07358 0.53549-0.13741-0.84282 0.98778  0 320.26 372.59  233.47 320.28 372.36  233.49
  -1  -4  -3  2796.9   133.7   1-0.43338 0.30589 0.32175-0.71898-0.84182 0.62410  0 197.22 308.28   28.05 197.29 308.16   28.29
  -1  -4  -3  3322.8   165.6   2-0.13848 0.01098-0.64511 0.24719 0.75144-0.96890  0 417.72 326.34   60.78 417.95 326.37   60.95
  -1  -4  -3  2931.5   153.5   2 0.10044-0.22793 0.21911-0.61718-0.97052 0.75308  0 275.25 139.69  213.72 275.38 139.80  213.65
  -1  -4   3  2782.9   141.9   1-0.69575 0.56824-0.38693-0.01044-0.60516 0.82280  0 186.52 250.60   74.75 186.50 250.57   74.90
  -1  -4   3  2976.9   166.3   2-0.23972 0.11226 0.30283-0.70058 0.92240-0.70469  0 402.79 344.68    3.01 402.96 344.62    2.98
  -1  -4   3  1749.2   132.5   2 0.12246-0.24997-0.70159 0.30361-0.70198 0.91942  0 255.47 147.34  156.08 255.51 147.50  156.32
  -1   4  -3  2547.7   152.4   1-0.68599 0.55848-0.30354 0.70091-0.66127 0.44364  0 430.42 212.40   69.07 430.58 212.54   69.13
  -1   4  -3  3246.3   169.2   2 0.13260-0.26011-0.20816 0.60614-0.96907 0.75163  0 406.21 340.81  189.00 406.46 340.78  188.91
  -1   4  -3  2822.6   162.3   2-0.23434 0.10693 0.61520-0.21730 0.75274-0.97023  0 259.56 145.48  341.87 259.68 145.62  342.24
  -1   4   3  3052.5   118.1   1-0.16980 0.04231 0.63657-0.23934-0.75229 0.97001  0 371.04 148.06    4.00 370.95 148.13    4.04
  -1   4   3  3209.1   155.8   2-0.19721 0.06975-0.29591 0.69365 0.93464-0.71692  0 242.09 155.04   37.76 241.98 155.16   37.95
  -1   4   3  2894.7   168.3   2 0.02256-0.15005 0.68421-0.28614-0.72893 0.94637  0 389.45 356.22  244.39 389.72 356.10  244.40
   1  -4  -3  2642.1   101.9   1-0.61942 0.74692-0.04835-0.34902-0.78357 0.56594  0 236.38 356.43   52.40 236.29 356.28   52.42
   1  -4  -3  3073.9   169.0   2-0.12541 0.25290-0.70208 0.30416 0.70097-0.91844  0 360.12 372.58   64.88 360.09 372.55   65.38
   1  -4  -3  2983.5   148.8   2 0.09391 0.03359 0.27404-0.67211-0.95712 0.73969  0 219.14 174.44  217.03 219.04 174.51  216.92
   1  -4   3  2346.0   128.9   1-0.66459 0.79209-0.67149 0.27412-0.32776 0.54539  0 192.21 295.40   98.09 192.20 295.28   97.87
   1  -4   3  3175.7   167.8   2-0.23576 0.36322 0.16937-0.56711 0.95694-0.73922  0 338.98 379.16   10.79 338.92 379.01   10.91
   1  -4   3  2887.5   141.7   2 0.12706 0.00045-0.64828 0.25030-0.75073 0.96817  0 206.89 189.72  160.42 206.79 189.74  160.47
   1   4  -3  2712.1   163.8   1-0.59064 0.71813 0.02626 0.37098-0.80651 0.58879  0 439.00 266.69   47.65 439.18 266.82   47.66
   1   4  -3  2972.0   164.8   2 0.13469-0.00718-0.28314 0.68112-0.94957 0.73213  0 343.80 377.90  184.41 343.79 377.74  184.46
   1   4  -3  2616.3   137.7   2-0.22594 0.35334 0.71359-0.31570 0.66313-0.88061  0 209.47 186.26  334.62 209.32 186.25  334.58
   1   4   3  3171.8   145.1   2-0.21063 0.33809-0.17960 0.57735 0.96092-0.74321  0 198.88 203.25   30.99 198.81 203.22   31.07
   1   4   3  2651.3   152.3   2 0.02496 0.10253 0.67408-0.27600-0.73824 0.95567  0 321.28 381.61  243.59 321.31 381.42  243.60
  -1  -4  -4  2813.9   140.7   1-0.37538 0.24789 0.40470-0.80194-0.83385 0.54355  0 191.07 318.85   22.50 191.15 318.74   22.47
  -1  -4  -4  3058.8   166.1   1-0.01307-0.11460-0.77836 0.38084 0.62768-0.91751  0 432.81 331.15  169.14 432.83 331.01  168.85
  -1  -4  -4  3345.5   182.6   2-0.11106-0.01644-0.75789 0.35997 0.64286-0.93282  0 430.01 334.34   69.99 430.23 334.33   70.07
  -1  -4  -4  2903.4   164.1   2 0.08651-0.21400 0.33149-0.72956-0.93949 0.64957  0 272.35 128.66  220.41 272.44 128.79  220.40
  -1  -4   4  2470.5   144.6   1-0.69781 0.57031-0.48565 0.08828-0.52650 0.81667  0 177.47 240.86   82.20 177.41 240.86   82.13
  -1  -4   4  3005.9   160.3   2 0.11041-0.23794-0.79467 0.39641-0.59691 0.88671  0 246.25 139.83  148.28 246.04 139.98  148.22
  -1  -4   4  3116.3   187.8   2-0.24131 0.11390 0.39796-0.79562 0.88510-0.59500  0 408.95 358.53  357.14 409.04 358.50  356.89
  -1   4  -4  2610.0   171.3   1-0.69297 0.56546-0.35535 0.75272-0.62732 0.33714  0 449.87 222.73   72.75 449.98 222.87   72.69
  -1   4  -4  3019.3   178.4   2 0.13528-0.26279-0.31578 0.71376-0.93914 0.64922  0 418.03 349.13  182.44 418.29 349.11  182.50
  -1   4  -4  2322.6   161.1   2-0.22455 0.09714 0.72646-0.32856 0.64949-0.93947  0 256.45 134.73  333.55 256.48 134.86  333.50
  -1   4   4  3396.4   166.5   2-0.18420 0.05674-0.39171 0.78946 0.90146-0.61118  0 232.96 148.26   43.72 232.84 148.32   43.80
  -1   4   4  2711.0   181.2   2-0.00281-0.12464 0.77990-0.38184-0.62589 0.91578  0 394.65 369.59  252.59 394.83 369.43  252.61
   1  -4  -4  2867.1   107.8   1-0.55948 0.68697 0.09685-0.49409-0.82316 0.53287  0 234.71 368.61   43.06 234.71 368.39   43.14
   1  -4  -4  3074.6   127.2   1-0.02233 0.15000-0.78420 0.38669 0.62010-0.90993  0 374.07 381.30  168.08 373.90 381.15  168.10
   1  -4  -4  3260.4   185.8   2-0.10070 0.22819-0.79408 0.39616 0.59942-0.88937  0 370.89 382.52   72.90 370.81 382.42   73.37
   1  -4  -4  3182.2   162.5   2 0.08055 0.04694 0.37374-0.77181-0.92403 0.63412  0 214.89 163.90  222.91 214.72 163.91  223.00
   1  -4   4  2488.6   144.3   1-0.64306 0.77070-0.72052 0.32306-0.25949 0.54923  0 179.36 286.14  102.93 179.40 286.10  102.87
   1  -4   4  2990.3   175.8   2-0.23936 0.36682 0.27719-0.67494 0.93052-0.64024  0 341.97 391.61    4.53 341.95 391.39    4.52
   1  -4   4  3031.1   153.4   2 0.11620 0.01131-0.75657 0.35859-0.64351 0.93343  0 198.13 184.36  151.73 198.03 184.36  151.70
   1   4  -4  2404.5   173.5   1-0.61942 0.74693-0.04835 0.44572-0.78357 0.49339  0 453.04 278.94   52.19 453.12 279.13   52.42
   1   4  -4  3030.1   183.4   2 0.13597-0.00846-0.38388 0.78186-0.91332 0.62340  0 354.33 388.40  177.90 354.31 388.25  178.34
   1   4  -4  2799.8   153.0   2-0.21430 0.34171 0.80101-0.40312 0.55898-0.84896  0 204.63 175.40  327.15 204.55 175.48  326.72
   1   4   4  3496.7   158.4   2-0.19744 0.32490-0.29403 0.69177 0.93518-0.64490  0 190.12 198.09   37.73 190.03 198.09   37.84
   1   4   4  2962.2   168.3   2-0.00310 0.13055 0.78089-0.38284-0.62466 0.91455  0 323.83 393.90  252.73 323.85 393.62  252.70
  -1  -4  -5 200.651  72.441   1-0.32536 0.19787 0.46944-0.86667-0.82083 0.45796  0 183.13 329.72   18.19 182.94 329.97   17.73
  -1  -4  -5 133.677 104.248   1-0.11704-0.01063-0.83573 0.43821 0.53652-0.89881  0 445.30 345.98  160.51 445.17 346.01  160.28
  -1  -4  -5 159.248 102.190   2-0.08539-0.04210-0.84212 0.44420 0.53249-0.89494  0 445.30 344.86   78.45 445.46 345.11   78.17
  -1  -4  -5  88.307  94.041   2 0.07403-0.20152 0.41670-0.81477-0.90603 0.54364  0 268.40 115.17  226.21 268.15 115.29  225.70
  -1  -4   5  93.192  73.627   1-0.69008 0.56258-0.57016 0.17279-0.44577 0.80849  0 166.77 230.79   89.07 166.60 230.77   88.83
  -1  -4   5 104.886  80.094   2 0.09708-0.22461-0.86428 0.46602-0.49355 0.85579  0 235.36 130.51  140.90 235.22 130.63  141.03
  -1  -4   5  58.875 110.407   2-0.24046 0.11305 0.46796-0.86561 0.85041-0.48778  0 416.86 375.01  351.88 417.03 375.22  352.40
  -1   4  -5 160.138 103.351   1-0.69593 0.56842-0.38938 0.78675-0.60338 0.24066  0 472.47 233.60   75.32 472.33 233.80   75.08
  -1   4  -5 186.665 110.733   2 0.13595-0.26346-0.39812 0.79610-0.90720 0.54480  0 432.84 360.24  177.27 432.88 360.30  177.45
  -1   4  -5 208.642  82.779   2-0.21249 0.08508 0.81185-0.41395 0.54384-0.90631  0 251.79 121.90  326.17 251.91 121.76  325.64
  -1   4   5  91.906  84.619   2-0.17309 0.04563-0.46347 0.86122 0.86904-0.50619  0 222.22 139.41   47.85 222.21 139.64   48.35
  -1   4   5 148.124 111.116   2-0.02642-0.10103 0.85196-0.45390-0.52295 0.88531  0 401.88 385.81  260.14 401.85 385.77  259.94
   1  -4  -5  88.496  50.441   1-0.49287 0.62036 0.22484-0.62207-0.84055 0.47768  0 229.92 381.20   34.61 229.98 381.43   34.81
   1  -4  -5 147.127  73.030   1-0.19335 0.32102-0.86627 0.46875 0.46065-0.82293  0 379.93 396.94  153.52 379.95 396.94  153.87
   1  -4  -5 128.268 121.326   2-0.07773 0.20523-0.86341 0.46549 0.49848-0.86093  0 383.51 395.29   79.89 383.63 395.22   80.52
   1  -4  -5 157.255  80.897   2 0.06890 0.05859 0.44878-0.84685-0.89098 0.52859  0 208.99 151.38  227.60 208.94 151.38  227.76
   1  -4   5  47.980  73.819   1-0.61930 0.74694-0.76061 0.36315-0.19477 0.55695  0 165.15 276.66  107.48 165.39 276.76  107.43
   1  -4   5 145.660  78.133   2 0.10268 0.02485-0.83835 0.44009-0.53537 0.89761  0 187.69 177.54  143.60 187.54 177.31  143.87
   1   4  -5  61.003  99.096   1-0.63892 0.76643-0.10582 0.50319-0.76196 0.39924  0 470.47 292.18   56.47 470.36 292.46   56.11
   1   4  -5  45.169 106.242   2 0.13534-0.00783-0.45867 0.85665-0.87824 0.51584  0 366.78 401.55  172.90 366.76 401.65  173.60
   1   4  -5  53.434  71.999   2-0.20130 0.32871 0.86596-0.46807 0.45780-0.82028  0 198.49 162.78  320.15 198.30 162.90  319.77
   1   4   5 104.586  70.728   2-0.18569 0.31315-0.38170 0.77945 0.90544-0.54258  0 179.41 191.46   43.45 179.47 191.27   43.18
   1   4   5 142.013  98.808   2-0.02903 0.15648 0.85899-0.46093-0.51117 0.87353  0 327.76 409.47  260.68 327.65 408.98  260.74
  -1  -4  -6 11880.9   279.6   1-0.28433 0.15684 0.51792-0.91515-0.80680 0.37135  0 172.78 342.25   14.05 172.82 342.11   14.00
  -1  -4  -6 11658.9   296.3   1-0.21140 0.08374-0.87198 0.47446 0.44154-0.87628  0 460.98 363.21  152.30 461.00 363.07  152.33
  -1  -4  -6 12142.0   322.7   2-0.06203-0.06546-0.90267 0.50475 0.42584-0.86078  0 463.73 358.68   85.15 463.96 358.70   85.34
  -1  -4  -6 11367.4   309.0   2 0.06384-0.19133 0.47899-0.87706-0.87550 0.44063  0 262.55  99.20  229.74 262.68  99.33  229.71
  -1  -4   6 10379.3   279.7   1-0.67425 0.54675-0.64165 0.24428-0.36561 0.80087  0 154.16 220.13   95.02 154.14 220.12   95.06
  -1  -4   6 11717.9   303.3   2 0.08358-0.21110-0.91481 0.51655-0.39514 0.82983  0 223.17 119.45  134.65 223.00 119.55  134.65
  -1  -4   6 11834.1   338.3   2-0.23925 0.11184 0.51757-0.91547 0.82151-0.38654  0 426.89 395.03  348.89 427.14 395.04  349.11
  -1   4  -6  9188.3   304.3   1-0.69726 0.56976-0.41015 0.80752-0.58788 0.15262  0 498.03 245.56   76.57 498.17 245.68   76.56
  -1   4  -6 10871.3   316.5   2 0.13533-0.26284-0.45907 0.85705-0.87803 0.44315  0 450.27 374.46  173.52 450.54 374.41  173.57
  -1   4  -6 10368.8   279.2   2-0.19904 0.07163 0.87526-0.47736 0.44081-0.87578  0 246.24 106.09  318.72 246.08 106.30  318.65
  -1   4   6 13200.1   321.2   2-0.16395 0.03646-0.51505 0.91297 0.84133-0.40640  0 210.19 129.19   51.80 210.11 129.30   51.75
  -1   4   6  9702.2   312.7   2-0.04783-0.07962 0.90452-0.50646-0.42375 0.85858  0 410.53 405.38  266.49 410.69 405.20  266.50
   1  -4  -6 11337.3   206.7   1-0.43006 0.55755 0.32677-0.72400-0.84158 0.40614  0 222.58 395.95   28.00 222.56 395.74   27.95
   1  -4  -6 11643.6   223.2   1-0.32851 0.45615-0.89437 0.49691 0.30363-0.73825  0 389.52 415.34  141.95 389.70 415.12  141.87
   1  -4  -6 12211.0   342.1   2-0.05691 0.18440-0.91411 0.51619 0.40145-0.83639  0 398.52 411.14   87.10 398.75 411.04   86.91
   1  -4  -6 11383.1   300.4   2 0.05965 0.06785 0.50364-0.90171-0.86185 0.42699  0 201.86 136.81  231.29 201.77 136.90  231.34
   1  -4   6  9163.5   269.0   1-0.59375 0.72139-0.79350 0.39604-0.13349 0.56811  0 150.02 267.16  111.80 150.11 267.17  111.67
   1  -4   6 11649.9   296.9   2 0.08845 0.03908-0.89827 0.50000-0.43045 0.86514  0 175.45 168.67  137.00 175.38 168.73  136.90
   1  -4   6 11278.1   317.3   2-0.24116 0.36857 0.42183-0.81949 0.87401-0.43886  0 352.22 425.72  355.39 352.17 425.60  355.38
   1   4  -6  9810.3   299.0   1-0.65168 0.77918-0.14819 0.54556-0.74388 0.30862  0 491.12 307.26   59.11 491.25 307.36   58.85
   1   4  -6 12445.5   339.9   2 0.13402-0.00651-0.51264 0.91062-0.84808 0.41320  0 381.29 418.18  169.85 381.24 418.06  170.05
   1   4  -6 10377.5   287.5   2-0.18797 0.31538 0.91303-0.51513 0.36200-0.79698  0 190.70 148.44  313.66 190.62 148.51  313.59
   1   4   6 12631.2   298.4   2-0.17581 0.30327-0.44649 0.84424 0.87735-0.44192  0 167.23 183.01   47.14 167.15 183.01   47.26
   1   4   6 10461.7   299.0   2-0.05232 0.17977 0.91377-0.51571-0.40286 0.83769  0 332.61 427.85  268.01 332.56 427.55  267.83
  -1  -4  -7  4114.7   195.6   1-0.25345 0.12596 0.55272-0.94995-0.79389 0.28587  0 160.83 355.54   11.14 160.79 355.43   11.24
  -1  -4  -7  4546.4   267.2   1-0.29397 0.16633-0.89068 0.49322 0.34679-0.85385  0 480.76 382.89  145.20 480.71 382.73  145.04
  -1  -4  -7  4183.8   272.3   2-0.04122-0.08627-0.94467 0.54676 0.32541-0.83284  0 486.20 375.54   91.69 486.29 375.46   91.70
  -1  -4  -7  2597.5   217.9   2 0.05615-0.18364 0.52311-0.92118-0.85041 0.34307  0 256.31  80.63  232.72 256.09  80.77  232.65
  -1  -4   7  4014.7   204.4   1-0.65241 0.52477-0.70090 0.30345-0.28826 0.79532  0 140.06 208.76  100.93 140.09 208.76  100.80
  -1  -4   7  5067.0   246.3   2 0.06999-0.19752-0.95047 0.55220-0.30284 0.80997  0 209.43 106.61  129.01 209.31 106.69  128.93
  -1  -4   7  4436.6   294.8   2-0.23784 0.11044 0.55226-0.95016 0.79902-0.29155  0 439.19 418.35  346.70 439.37 418.32  346.73
  -1   4  -7  4419.3   277.6   2 0.13427-0.26178-0.50278 0.90076-0.85392 0.34656  0 471.68 391.85  170.69 471.79 391.78  170.71
  -1   4  -7  3897.3   217.0   2-0.18522 0.05782 0.92094-0.52305 0.34287-0.85034  0 239.17  88.17  312.43 239.02  88.35  312.38
  -1   4   7  4747.7   240.3   2-0.15724 0.02975-0.55184 0.94976 0.81899-0.31157  0 196.44 117.08   54.03 196.42 117.20   54.25
  -1   4   7  3502.9   276.7   2-0.06732-0.06013 0.94161-0.54355-0.32991 0.83722  0 421.50 428.41  272.39 421.54 428.21  272.39
   1  -4  -7  3859.4   151.0   1-0.37746 0.50495 0.40188-0.79911-0.83428 0.32626  0 212.94 411.89   22.80 212.91 411.63   22.67
   1  -4  -7  4169.1   186.9   1-0.43063 0.55827-0.88784 0.49038 0.16216-0.66922  0 402.50 436.65  131.92 402.70 436.39  131.86
   1  -4  -7  4280.2   288.5   2-0.03803 0.16553-0.95007 0.55215 0.30972-0.81715  0 416.33 430.38   92.65 416.55 430.34   92.66
   1  -4  -7  4445.6   235.0   2 0.05259 0.07490 0.54258-0.94065-0.83836 0.33102  0 193.27 120.35  234.16 193.17 120.40  233.98
   1  -4   7  3905.8   208.2   1-0.56678 0.69442-0.82044 0.42299-0.07506 0.58212  0 133.35 257.11  115.80 133.42 257.16  115.67
   1  -4   7  4329.9   220.8   2 0.07417 0.05336-0.94059 0.54233-0.33134 0.83847  0 161.49 158.67  130.66 161.40 158.73  130.67
   1  -4   7  3683.6   266.1   2-0.24049 0.36790 0.46641-0.86407 0.85125-0.34357  0 359.18 448.06  352.51 359.13 447.88  352.50
   1   4  -7  4512.0   288.7   2 0.13265-0.00514-0.55047 0.94845-0.82425 0.31689  0 397.88 438.09  167.42 398.13 437.94  167.49
   1   4  -7  3736.5   225.1   2-0.17454 0.30194 0.94623-0.54833 0.27238-0.77985  0 181.55 132.15  307.89 181.48 132.25  308.04
   1   4   7  4518.9   217.7   2-0.16806 0.29555-0.49231 0.89023 0.85404-0.34661  0 153.01 173.40   50.16 153.01 173.47   50.24
   1   4   7  3892.1   264.0   2-0.07299 0.20043 0.95060-0.55254-0.30172 0.80903  0 338.62 449.90  273.83 338.52 449.66  274.12
  -1  -4  -8  1036.6   137.7   1-0.23108 0.10359 0.57641-0.97364-0.78381 0.20322  0 146.86 370.42    9.26 146.84 370.32    9.29
  -1  -4  -8  1131.2   193.4   1-0.36594 0.23830-0.89517 0.49772 0.25447-0.83396  2 504.15 406.13  138.26 504.93 406.18  138.33
  -1  -4  -8 943.973 153.286   2 0.05058-0.17807 0.55322-0.95129-0.83150 0.25168  0 248.52  59.24  235.22 248.40  59.24  234.71
  -1  -4   8 914.290 139.101   1-0.62601 0.49837-0.75033 0.35287-0.21241 0.79190  0 124.35 196.21  106.22 124.04 196.28  106.21
  -1  -4   8  1129.7   167.9   2 0.05656-0.18409-0.97462 0.57635-0.21661 0.79620  0 194.09  91.97  124.17 193.93  91.87  123.73
  -1  -4   8 991.275 219.211   2-0.23679 0.10938 0.57514-0.97304 0.78303-0.20307  0 454.12 445.89  345.39 454.22 445.88  345.13
  -1   4  -8 985.410 214.240   2 0.13333-0.26084-0.53291 0.93089-0.83560 0.25576  0 497.55 413.03  168.62 497.47 412.99  168.69
  -1   4  -8 930.500 152.152   2-0.17123 0.04382 0.95277-0.55488 0.25081-0.83078  0 230.89  67.77  306.73 230.74  67.56  306.73
  -1   4   8  1090.7   164.7   2-0.15255 0.02505-0.57664 0.97456 0.80263-0.22271  0 180.87 103.19   55.99 180.95 103.26   55.98
  -1   4   8 860.606 215.596   2-0.08478-0.04266 0.96663-0.56857-0.24175 0.82153  0 434.95 455.80  277.59 434.71 455.56  277.75
   1  -4  -8  1236.5   132.3   1-0.33826 0.46575 0.45336-0.85060-0.82464 0.24405  0 201.29 429.79   18.76 201.38 429.73   18.93
   1  -4  -8 410.874 128.956   1-0.50629 0.63393-0.86147 0.46401 0.03923-0.61873  0 419.12 461.84  123.48 418.94 461.84  123.44
   1  -4  -8  1144.0   221.4   2-0.02107 0.14856-0.97447 0.57655 0.22352-0.80344  0 437.82 454.17   97.63 437.69 453.82   97.88
   1  -4  -8  1151.3   170.4   2 0.04744 0.08005 0.56913-0.96720-0.82088 0.24106  0 183.05 101.49  235.70 183.02 101.57  235.82
   1  -4   8 927.812 148.323   1-0.53851 0.66615-0.84241 0.44495-0.01906 0.59856  0 115.26 246.64  119.38 115.02 246.53  119.47
   1  -4   8  1186.5   163.1   2 0.06005 0.06748-0.96926 0.57100-0.23859 0.81817  0 145.64 147.34  124.86 145.42 147.26  125.04
   1  -4   8 972.695 206.737   2-0.23965 0.36706 0.49730-0.89496 0.83382-0.25362  0 367.59 474.52  350.50 367.47 474.42  350.45
   1   4  -8-194.232 168.405   2 0.13143-0.00392-0.57590 0.97388-0.80689 0.22705  0 418.18 462.22  165.45 418.00 462.00  165.73
   1   4  -8  1095.7   157.9   2-0.16136 0.28877 0.96869-0.57080 0.18867-0.76864  0 170.75 113.61  302.88 170.72 113.83  303.00
   1   4   8  1162.6   152.9   2-0.16231 0.28980-0.52429 0.92221 0.83593-0.25601  0 136.64 162.60   52.37 136.80 162.56   52.37
   1   4   8 954.193 197.310   2-0.09131 0.21876 0.97386-0.57580-0.20800 0.78778  0 345.60 476.35  279.74 345.53 475.95  279.77
  -1  -4  -9 11634.1   339.1   1-0.21673 0.08924 0.59105-0.98829-0.77697 0.12380  0 130.74 387.40    8.00 130.76 387.29    8.06
  -1  -4  -9 10706.8   363.7   2 0.04678-0.17427 0.57248-0.97056-0.81858 0.16628  0 239.59  33.93  235.84 239.46  34.12  236.06
  -1  -4   9 10427.4   333.4   1-0.59623 0.46859-0.79066 0.39321-0.13915 0.79108  0 105.90 182.18  111.27 105.76 182.30  111.29
  -1  -4   9 11323.1   387.0   2 0.04350-0.17102-0.98976 0.59150-0.13593 0.78796  0 176.60  74.72  118.76 176.52  74.84  118.97
  -1  -4   9 10252.1   482.1   2-0.23597 0.10857 0.58886-0.98675 0.77302-0.12056  0 472.10 478.88  343.86 472.36 478.99  344.15
  -1   4  -9  9433.7   348.4   2-0.15748 0.03007 0.97371-0.57582 0.16456-0.81702  0 221.22  43.25  301.63 221.04  43.36  301.57
  -1   4   9 11946.1   390.8   2-0.14954 0.02204-0.59206 0.98998 0.79190-0.13949  0 163.37  87.11   57.10 163.33  87.20   57.06
  -1   4   9  9338.3   460.5   2-0.10062-0.02683 0.98214-0.58408-0.15900 0.81125  0 450.55 488.52  282.66 450.71 488.41  282.66
   1  -4  -9 10783.7   258.2   1-0.31141 0.43890 0.48636-0.88359-0.81638 0.16322  0 188.19 451.03   16.46 188.11 450.77   16.45
   1  -4  -9 10347.3   315.0   1-0.56324 0.69088-0.82351 0.42605-0.06783-0.58410  0 438.34 493.09  116.10 438.52 492.82  116.17
   1  -4  -9 11034.9   470.8   2-0.00589 0.13341-0.98967 0.59141 0.14323-0.79526  0 462.94 482.57  102.69 463.05 482.40  102.68
   1  -4  -9 11099.9   377.1   2 0.04408 0.08341 0.58603-0.98410-0.80909 0.15679  0 171.14  79.82  236.88 171.07  79.97  237.02
   1  -4   9  9753.4   334.2   1-0.50881 0.63645-0.86018 0.46272 0.03482 0.61711  0  94.63 234.97  123.18  94.53 234.98  123.14
   1  -4   9  9127.3   341.3   2 0.04618 0.08135-0.98731 0.58904-0.15197 0.80400  0 127.27 134.04  120.16 127.06 134.17  119.91
   1   4  -9 10892.7   472.5   2 0.13060-0.00309-0.59171 0.98969-0.79550 0.14318  0 441.54 491.52  164.54 441.77 491.45  164.61
   1   4  -9  9691.4   357.3   2-0.14852 0.27597 0.98270-0.58464 0.11066-0.76291  0 158.19  92.76  298.45 158.14  92.86  298.41
   1   4   9 11674.9   357.4   2-0.15852 0.28602-0.54493 0.94285 0.82336-0.17095  0 118.62 150.22   54.16 118.16 150.21   53.78
  -1  -4 -10  87.277 136.045   1-0.20957 0.08208 0.59825-0.99549-0.77342 0.04768  0 111.77 407.61    8.29 112.19 407.05    7.44
  -1  -4  10  74.726 145.359   1-0.56358 0.43594-0.82321 0.42576-0.06853 0.79290  0  84.90 166.49  117.16  84.84 166.36  116.12
  -1  -4  10 185.417 183.876   2 0.03068-0.15821-0.99772 0.59945-0.06014 0.78462  0 156.38  55.05  114.59 156.51  55.04  114.54
  -1   4 -10  99.742 170.041   2-0.14405 0.01661 0.98600-0.58794 0.08401-0.80873  0 209.86  15.49  296.59 209.74  14.90  296.85
  -1   4  10 -16.152 168.008   2-0.14799 0.02049-0.59999 0.99791 0.78620-0.06131  0 142.63  68.22   56.83 143.01  68.58   57.63
   1  -4 -10  41.932 115.048   1-0.29570 0.42319 0.50479-0.90202-0.81102 0.08528  0 173.03 475.66   14.96 173.10 475.76   15.02
   1  -4 -10 125.422 170.707   2 0.04224 0.08526 0.59526-0.99333-0.80242 0.07765  0 156.92  54.79  237.64 156.91  54.85  237.68
   1  -4  10 159.776 145.632   1-0.47813 0.60577-0.87395 0.47649 0.08719 0.63718  0  71.88 222.17  127.11  71.37 222.16  126.71
   1  -4  10  40.787 149.831   2 0.03251 0.09502-0.99696 0.59869-0.07084 0.79532  0 105.38 119.23  115.32 105.73 119.22  115.16
   1   4 -10 132.274 173.468   2-0.13588 0.26333 0.99003-0.59198 0.03700-0.76172  0 142.77  68.24  293.87 143.19  68.64  294.11
   1   4  10 133.999 152.558   2-0.15638 0.28387-0.55661 0.95453 0.81592-0.09103  0  96.76 136.24   54.50  96.52 136.22   54.58
  -1  -4 -11  3638.0   297.2   1-0.20867 0.08118 0.59915-0.99638-0.77297-0.02535  0  90.86 430.41    7.30  90.55 430.65    7.36
  -1  -4  11  3261.1   286.4   1-0.52845 0.40081-0.84896 0.45151-0.00037 0.79718  0  60.61 147.75  121.18  60.52 147.71  120.75
  -1  -4  11  3795.6   367.0   2 0.01833-0.14585-0.99977 0.60150 0.01148 0.78544  0 133.15  31.62  110.37 133.10  31.66  110.37
  -1   4  11  4433.1   377.5   2-0.14762 0.02013-0.60180 0.99972 0.78488 0.01250  0 119.66  46.92   57.83 119.17  46.71   57.76
   1  -4 -11  3863.8   375.4   2 0.04163 0.08587 0.59823-0.99630-0.80024 0.00299  0 139.90  25.16  238.20 139.90  25.14  237.90
   1  -4  11  4016.3   299.5   1-0.44632 0.57396-0.88414 0.48668 0.13823 0.65857  0  44.72 207.50  130.30  44.68 207.53  130.21
   1  -4  11  3739.2   332.6   2 0.01926 0.10826-0.99980 0.60153 0.00545 0.79148  0  81.14 102.06  110.74  80.56 101.92  110.72
   1   4 -11  3451.2   373.8   2-0.12373 0.25117 0.99178-0.59372-0.03273-0.76447  0 125.45  40.04  290.38 125.23  40.14  290.05
   1   4  11  3898.2   325.8   2-0.15554 0.28303-0.56106 0.95898 0.81303-0.01564  0  71.18 120.31   54.69  70.99 120.19   54.89
  -1  -5   0 -10.089  60.863   1-0.63742 0.50992-0.10110-0.39561-0.76386 0.76386  0 179.09 290.44   56.10 179.13 290.48   55.81
  -1  -5   0 -51.299  82.725   2-0.20709 0.07963-0.21184-0.28534 0.95511-0.95511  0 423.25 346.88   32.78 422.94 347.01   32.98
  -1  -5   0 -42.378  84.888   2 0.13501-0.26252-0.29968-0.19779-0.94444 0.94444  0 259.67 131.91  183.04 259.75 131.78  183.47
  -1   5   0  10.212  77.565   1-0.54617 0.41868 0.12440 0.37214-0.82839 0.82839  0 417.92 162.98   41.45 417.91 163.32   41.36
  -1   5   0 -19.581  64.264   2-0.23711 0.10965 0.20414 0.29304 0.94979-0.94979  0 241.53 141.05    9.16 241.65 140.89    8.87
  -1   5   0  58.202  95.150   2 0.09207-0.21956 0.28872 0.20887-0.95298 0.95298  0 406.63 363.00  218.16 406.42 363.05  217.80
   1  -5   0  -9.592  57.537   1-0.69833 0.82584-0.44398-0.05273-0.56144 0.56144  0 200.90 337.55   79.05 201.02 337.31   79.02
   1  -5   0 -17.609  86.735   2-0.19479 0.32225-0.31486-0.18232 0.92893-0.92893  0 359.81 388.54   39.44 359.76 388.54   39.09
   1  -5   0  61.981  69.981   2 0.13348-0.00597-0.23087-0.26661-0.96379 0.96379  0 206.12 170.95  188.16 206.29 171.11  187.58
   1   5   0  28.749  89.491   1-0.40193 0.52942 0.36783 0.12870-0.83854 0.83854  0 450.07 217.44   25.41 450.37 217.25   25.09
   1   5   0 -62.072  57.216   2-0.24007 0.36753 0.32647 0.17071 0.91421-0.91421  0 194.81 186.76    1.40 194.87 186.79    1.54
   1   5   0 -49.937  82.944   2 0.09799 0.02950 0.24002 0.25757-0.96581 0.96581  0 338.11 393.55  215.19 338.08 393.69  214.89
  -1  -5  -1 19771.4   330.0   1-0.60088 0.47339 0.00117-0.49771-0.79934 0.72677  0 180.50 300.49   49.02 180.59 300.34   49.26
  -1  -5  -1 20215.9   345.5   2-0.18937 0.06191-0.35529-0.14189 0.91537-0.98794  0 426.60 345.46   41.52 426.95 345.50   41.55
  -1  -5  -1 22321.3   360.6   2 0.13068-0.25819-0.16133-0.33614-0.97821 0.90573  0 262.10 128.96  191.71 262.23 129.12  191.66
  -1  -5   1 17893.7   321.8   1-0.66623 0.53873-0.20377-0.29294-0.71736 0.78991  0 175.62 280.91   62.41 175.67 280.79   62.47
  -1  -5   1 21448.1   356.8   2-0.22081 0.09335-0.07164-0.42554 0.97268-0.90011  0 421.33 351.63   25.00 421.58 351.62   24.81
  -1  -5   1 12118.9   275.3   2 0.13564-0.26314-0.43483-0.06265-0.89024 0.96272  0 255.53 131.74  174.85 255.58 131.90  175.14
  -1   5  -1 19212.4   316.0   1-0.60187 0.47438-0.00132 0.49786-0.79860 0.72602  0 429.81 173.82   49.26 429.94 174.10   49.42
  -1   5  -1 20667.2   357.7   2 0.10744-0.23493 0.15489 0.34270-0.98207 0.90960  0 410.36 362.19  209.99 410.60 362.08  209.90
  -1   5   1 19354.2   289.5   1-0.46377 0.33628 0.27401 0.22253-0.84252 0.91509  0 408.35 151.80   31.47 408.56 151.98   31.54
  -1   5   1 23313.7   367.1   2-0.23069 0.10323 0.06942 0.42776 0.97055-0.89798  0 237.99 141.33   16.71 237.87 141.43   16.69
  -1   5   1 21587.5   369.2   2 0.07338-0.20087 0.42090 0.07669-0.90413 0.97661  0 404.36 367.17  226.00 404.59 367.05  225.97
   1  -5  -1 16986.3   267.5   1-0.69308 0.82058-0.35642-0.14029-0.62658 0.55404  0 207.66 348.16   72.98 207.67 347.96   72.76
   1  -5  -1 18989.7   346.7   2-0.17626 0.30372-0.44367-0.05351 0.87869-0.95126  0 364.28 388.93   46.84 364.34 388.91   47.08
   1  -5  -1 20837.4   347.6   2 0.12717 0.00034-0.09390-0.40357-0.98743 0.91495  0 207.62 167.47  195.59 207.50 167.48  195.57
   1  -5   1 16315.6   286.8   1-0.69590 0.82341-0.52086 0.02415-0.49439 0.56694  0 192.61 327.30   84.99 192.64 327.13   84.86
   1  -5   1 21926.4   365.8   2-0.21018 0.33764-0.18395-0.31323 0.96020-0.88763  0 357.14 391.39   31.17 357.10 391.29   31.33
   1  -5   1 22218.9   357.0   2 0.13589-0.00838-0.36946-0.12801-0.91926 0.99174  0 203.32 172.49  179.23 203.25 172.52  179.23
   1   5  -1 19603.0   347.0   1-0.46806 0.59555 0.26699 0.22955-0.84240 0.76983  0 455.71 228.96   31.94 455.81 229.08   32.01
   1   5  -1 19838.9   343.9   2 0.11292 0.01457 0.09745 0.40015-0.98881 0.91634  0 342.86 394.85  206.53 342.84 394.64  206.57
   1   5  -1 21397.5   347.1   2-0.24068 0.36808 0.45680 0.04028 0.85640-0.92892  0 195.72 182.94  353.17 195.73 183.00  353.12
   1   5   1 19519.3   339.3   1-0.32274 0.45023 0.47266 0.02388-0.82002 0.89259  0 448.06 205.01   17.45 448.16 205.12   17.48
   1   5   1 21071.4   340.2   2-0.23666 0.36412 0.19187 0.30531 0.95246-0.87989  0 192.19 188.56    9.59 192.13 188.57    9.59
   1   5   1 20098.0   343.8   2 0.07903 0.04846 0.38414 0.11345-0.91988 0.99236  0 335.13 396.15  223.64 335.11 395.91  223.65
  -1  -5  -2  3536.8   168.7   1-0.55878 0.43129 0.09833-0.59487-0.82346 0.67831  0 179.83 310.70   43.00 179.91 310.52   43.05
  -1  -5  -2  3941.1   200.0   2-0.16810 0.04061-0.49205-0.00535 0.85418-0.99916  0 433.28 346.93   50.18 433.60 347.01   50.22
  -1  -5  -2  3897.4   199.3   2 0.12307-0.25058-0.02869-0.46879-0.99198 0.84702  0 262.93 123.64  199.26 263.03 123.81  199.33
  -1  -5   2  3361.1   166.0   1-0.68592 0.55841-0.30308-0.19364-0.66156 0.80665  0 170.22 271.30   68.98 170.25 271.20   69.10
  -1  -5   2  3596.6   199.6   2-0.22990 0.10244 0.05646-0.55364 0.97158-0.82643  0 422.43 359.28   17.39 422.67 359.27   17.44
  -1  -5   2  3801.9   175.9   2 0.13229-0.25980-0.55869 0.06121-0.81876 0.96372  0 249.85 129.46  167.17 249.73 129.57  166.92
  -1   5  -2  3212.2   179.2   1-0.63734 0.50983-0.10084 0.59755-0.76396 0.61887  0 444.57 184.26   56.15 444.71 184.49   55.79
  -1   5  -2  3457.2   198.1   2 0.11881-0.24630 0.02754 0.47005-0.99254 0.84758  0 417.06 364.26  202.49 417.29 364.18  202.54
  -1   5  -2  3811.7   178.9   2-0.24037 0.11297 0.47194 0.02513 0.84823-0.99328  0 244.08 132.51  351.97 244.04 132.64  352.14
  -1   5   2  3682.2   159.4   1-0.35032 0.22283 0.43793 0.05861-0.82795 0.97309  0 401.94 139.63   20.00 402.11 139.80   20.07
  -1   5   2  4274.7   186.1   2-0.22214 0.09468-0.05502 0.55220 0.97346-0.82832  0 232.47 139.56   23.76 232.38 139.64   23.85
  -1   5   2  3998.0   215.5   2 0.05238-0.17987 0.54368-0.04609-0.83765 0.98261  0 404.89 374.23  234.27 405.05 374.13  234.05
   1  -5  -2  3004.2   129.4   1-0.67827 0.80577-0.25918-0.23753-0.68759 0.54250  0 212.35 359.40   65.99 212.34 359.25   66.14
   1  -5  -2  3728.6   205.2   2-0.15524 0.28273-0.56264 0.06524 0.81200-0.95698  0 370.94 392.43   54.86 370.91 392.40   55.00
   1  -5  -2  3863.9   181.0   2 0.11836 0.00913 0.03319-0.53078-0.99242 0.84746  0 207.06 161.61  203.02 206.94 161.64  202.87
   1  -5   2  2825.3   147.3   1-0.68714 0.81464-0.58725 0.09053-0.42777 0.57286  0 182.78 317.47   90.20 182.76 317.35   90.27
   1  -5   2  4107.6   208.4   2-0.22182 0.34928-0.05884-0.43834 0.97331-0.82817  0 356.35 397.32   24.01 356.29 397.20   24.07
   1  -5   2  4049.4   178.7   2 0.13432-0.00681-0.50091 0.00344-0.85501 0.99997  0 198.48 171.80  170.73 198.38 171.79  170.84
   1   5  -2  3557.7   200.7   1-0.52030 0.64779 0.17511 0.32143-0.83584 0.69069  0 464.37 240.85   38.09 464.43 240.95   38.08
   1   5  -2  3985.2   205.9   2 0.12346 0.00405-0.03444 0.53191-0.99175 0.84679  0 349.41 398.91  199.02 349.41 398.76  199.00
   1   5  -2  3709.0   173.3   2-0.23679 0.36420 0.57507-0.07771 0.78308-0.92807  0 194.74 176.81  344.87 194.70 176.86  345.13
   1   5   2  3717.4   193.3   1-0.23254 0.36003 0.57488-0.07834-0.78450 0.92964  0 449.15 192.27    9.37 449.22 192.38    9.42
   1   5   2  4068.3   178.2   2-0.23022 0.35768 0.06161 0.43557 0.97119-0.82604  0 187.53 188.19   16.83 187.46 188.21   17.14
   1   5   2  3791.0   194.8   2 0.05671 0.07078 0.51999-0.02240-0.85229 0.99724  0 333.90 401.59  232.40 333.89 401.40  232.44
  -1  -5  -3 160.779  75.203   1-0.51409 0.38660 0.18671-0.68325-0.83717 0.61945  0 176.87 321.31   37.34 177.10 321.15   37.32
  -1  -5  -3 267.749 108.199   2-0.14503 0.01753-0.61446 0.11707 0.77550-0.99297  0 443.35 351.76   58.57 443.14 351.54   58.68
  -1  -5  -3 217.309 103.363   2 0.11353-0.24102 0.09062-0.58821-0.98939 0.77196  0 262.27 115.78  205.87 262.22 115.82  206.17
  -1  -5   3  79.079  73.480   1-0.69642 0.56892-0.39588-0.10083-0.59856 0.81619  0 162.57 261.52   76.07 162.96 261.54   75.54
  -1  -5   3 217.926 112.974   2-0.23567 0.10821 0.16705-0.66423 0.95737-0.73966  0 426.03 369.93   10.98 426.06 369.90   11.04
  -1  -5   3 170.019  83.959   2 0.12562-0.25313-0.66613 0.16866-0.73518 0.95262  0 242.33 124.75  158.89 242.28 124.94  159.11
  -1   5  -3 170.406 106.159   1-0.65951 0.53201-0.17699 0.67370-0.73056 0.51293  0 462.21 194.83   61.13 462.22 194.84   60.72
  -1   5  -3 218.611 112.733   2 0.12676-0.25427-0.08681 0.58428-0.98813 0.77069  0 426.68 369.59  194.90 426.55 369.29  195.98
  -1   5  -3 208.966  86.127   2-0.23592 0.10851 0.58983-0.09246 0.77230-0.98979  0 242.87 124.75  344.46 242.77 124.71  344.08
  -1   5   3 127.624  80.989   1-0.21015 0.08266 0.59767-0.10113-0.77371 0.99143  0 398.93 126.17    7.59 398.80 126.32    7.49
  -1   5   3 236.531  90.028   2-0.21225 0.08479-0.16369 0.66087 0.96341-0.74569  0 225.12 135.65   29.99 225.26 135.67   30.15
  -1   5   3 204.229 119.742   2 0.03012-0.15761 0.65157-0.15398-0.75799 0.97542  0 407.67 384.24  242.15 407.61 384.23  241.86
   1  -5  -3  96.289  58.973   1-0.65382 0.78133-0.15582-0.34089-0.74043 0.52280  0 214.72 371.22   59.70 214.77 371.30   59.34
   1  -5  -3 174.770 114.559   2-0.13360 0.26110-0.66721 0.16981 0.73279-0.95026  0 379.52 398.99   62.65 379.55 398.96   62.63
   1  -5  -3 186.213  84.837   2 0.10844 0.01905 0.14491-0.64250-0.98349 0.76605  0 204.89 153.80  209.49 204.73 153.67  209.32
   1  -5   3 176.269  76.921   1-0.67351 0.80102-0.64414 0.14743-0.36257 0.58020  0 171.31 307.78   95.35 171.51 307.81   95.29
   1  -5   3 290.167 113.041   2-0.22975 0.35721 0.05403-0.55121 0.97175-0.75403  0 357.22 406.28   17.67 357.24 406.30   17.58
   1  -5   3 212.784  85.410   2 0.12901-0.00150-0.61837 0.12090-0.77522 0.99266  0 191.34 168.92  162.59 191.71 169.04  162.68
   1   5  -3 228.455 116.311   1-0.56017 0.68766 0.09539 0.40115-0.82287 0.60514  0 476.05 253.14   43.39 476.30 253.19   43.24
   1   5  -3 132.350 112.269   2 0.13012-0.00261-0.14919 0.64667-0.98021 0.76277  0 358.12 405.97  191.89 357.87 405.95  192.36
   1   5  -3  98.208  81.129   2-0.22956 0.35697 0.67709-0.17972 0.69918-0.91666  0 192.09 168.67  338.16 192.02 168.69  337.53
   1   5   3 109.835 106.136   1-0.13491 0.26240 0.66793-0.17139-0.73189 0.94962  0 453.53 178.77    1.37 453.55 178.69    1.11
   1   5   3 228.100  79.528   2-0.22200 0.34946-0.05674 0.55392 0.97340-0.75568  0 180.93 185.81   23.58 180.89 185.85   23.95
   1   5   3 222.079 107.121   2 0.03279 0.09471 0.63977-0.14218-0.76787 0.98530  0 334.26 410.41  240.61 334.23 410.09  240.97
  -1  -5  -4 20147.5   347.2   1-0.47008 0.34259 0.26366-0.76020-0.84233 0.55203  0 172.10 332.59   32.02 172.20 332.44   32.23
  -1  -5  -4 21463.7   372.6   1 0.03491-0.16258-0.74615 0.24925 0.66487-0.95469  0 461.99 351.23  173.01 461.97 351.00  172.79
  -1  -5  -4 21205.7   389.0   2-0.12153-0.00597-0.71796 0.22056 0.68540-0.97536  0 455.45 359.00   66.67 455.70 359.06   66.67
  -1  -5  -4 22035.9   395.5   2 0.10344-0.23093 0.19246-0.69006-0.97584 0.68593  0 259.85 105.13  212.14 259.96 105.28  212.09
  -1  -5   4 17498.8   349.7   1-0.69798 0.57048-0.48050-0.01621-0.53098 0.82115  0 153.84 251.75   81.97 153.86 251.67   81.74
  -1  -5   4 21684.2   405.3   2-0.23881 0.11135 0.25812-0.75530 0.93613-0.64585  0 431.59 383.63    5.72 431.75 383.57    5.66
  -1  -5   4 21967.6   387.1   2 0.11637-0.24388-0.75528 0.25780-0.64499 0.93491  0 233.49 118.08  151.93 233.31 118.19  151.81
  -1   5  -4 17443.3   361.2   1-0.67307 0.54557-0.23329 0.73000-0.70182 0.41164  0 482.74 205.19   64.31 482.81 205.40   64.42
  -1   5  -4 21446.0   401.7   2 0.13169-0.25920-0.18432 0.68180-0.97400 0.68408  0 438.32 377.46  190.23 438.56 377.42  190.31
  -1   5  -4 19722.5   368.6   2-0.22826 0.10086 0.69097-0.19360 0.68590-0.97588  0 240.25 114.26  336.44 240.08 114.39  336.42
  -1   5   4 21685.9   390.4   2-0.20223 0.07477-0.25435 0.75153 0.94573-0.65545  0 216.62 129.53   35.42 216.52 129.65   35.48
  -1   5   4 20313.0   400.6   2 0.00792-0.13541 0.74211-0.24452-0.67023 0.96014  0 412.06 397.61  248.90 412.30 397.48  249.21
   1  -5  -4 18491.6   268.1   1-0.62064 0.74814-0.05173-0.44498-0.78239 0.49221  0 214.78 384.59   52.78 214.76 384.34   52.64
   1  -5  -4 22759.8   418.3   2-0.11187 0.23936-0.75493 0.25753 0.64620-0.93615  0 390.04 408.61   70.09 390.35 408.58   69.81
   1  -5  -4 22283.7   393.5   2 0.09817 0.02932 0.23849-0.73608-0.96617 0.67626  0 201.06 143.56  214.96 200.93 143.60  214.80
   1  -5   4 17335.3   342.5   1-0.65595 0.78359-0.69269 0.19587-0.29984 0.58959  0 158.93 298.50   99.93 158.99 298.43   99.97
   1  -5   4 20170.4   390.2   2-0.23496 0.36241 0.15075-0.64793 0.96025-0.66996  0 359.85 418.71   12.05 359.75 418.57   11.99
   1  -5   4 22159.2   386.8   2 0.12073 0.00678-0.71807 0.22059-0.68542 0.97534  0 183.33 164.36  154.99 183.24 164.41  154.97
   1   5  -4 18153.4   380.4   1-0.58954 0.71703 0.02893 0.46761-0.80722 0.51693  0 491.58 265.85   47.38 491.62 266.04   47.49
   1   5  -4 21601.4   404.3   2 0.13370-0.00619-0.24442 0.74189-0.96041 0.67049  0 368.33 416.44  186.76 368.30 416.26  186.77
   1   5  -4 18820.6   360.1   2-0.22024 0.34764 0.76143-0.26406 0.60969-0.89968  0 187.72 158.46  330.48 187.69 158.56  330.44
   1   5   4 23200.1   386.0   2-0.21275 0.34021-0.15871 0.65589 0.96413-0.67385  0 172.52 181.61   30.11 172.46 181.62   29.86
   1   5   4 19496.8   374.3   2 0.00861 0.11888 0.73953-0.24194-0.67307 0.96298  0 336.06 422.33  249.02 336.04 422.09  248.98
  -1  -5  -5  6390.5   229.4   1-0.42927 0.30178 0.32797-0.82451-0.84152 0.47865  0 165.15 344.73   28.00 165.25 344.55   27.87
  -1  -5  -5  6521.4   261.5   1-0.06266-0.06500-0.80798 0.31108 0.58587-0.94816  0 473.38 367.99  164.86 473.30 367.80  164.78
  -1  -5  -5  6383.5   279.5   2-0.09846-0.02904-0.80158 0.30418 0.58972-0.95217  0 471.32 369.52   73.85 471.55 369.60   74.09
  -1  -5  -5  5260.2   250.0   2 0.09371-0.22120 0.27564-0.77323-0.95668 0.59429  0 256.38  91.96  216.86 256.33  92.10  217.02
  -1  -5   5  4944.2   216.1   1-0.69218 0.56468-0.55574 0.05902-0.46048 0.82320  0 143.03 241.51   87.66 143.00 241.45   87.65
  -1  -5   5  6018.3   285.8   2-0.24012 0.11266 0.33040-0.82758 0.91279-0.54993  0 439.63 400.48    1.27 439.71 400.44    1.30
  -1  -5   5  6209.8   249.3   2 0.10499-0.23252-0.82643 0.32860-0.55316 0.91540  0 222.92 109.30  144.87 222.75 109.42  145.11
  -1   5  -5  6125.4   278.7   2 0.13424-0.26175-0.26426 0.76173-0.95506 0.59266  0 453.41 388.67  185.55 453.58 388.65  185.59
  -1   5  -5  6255.7   245.8   2-0.21844 0.09104 0.77414-0.27677 0.59414-0.95661  0 236.06 101.49  329.31 235.95 101.63  329.29
  -1   5   5  6901.2   260.9   2-0.19316 0.06571-0.32726 0.82444 0.92498-0.56212  0 206.27 121.55   39.74 206.19 121.69   39.84
  -1   5   5  5718.0   286.6   2-0.01369-0.11376 0.81521-0.31764-0.57900 0.94136  0 418.77 414.05  255.90 418.89 413.85  256.03
   1  -5  -5  5655.9   169.0   1-0.58198 0.70947 0.04665-0.54319-0.81186 0.44899  0 212.31 398.81   46.28 212.33 398.61   46.35
   1  -5  -5  6425.8   208.2   1-0.09783 0.22550-0.82638 0.32948 0.55455-0.91684  0 403.34 421.85  161.91 403.35 421.50  161.89
   1  -5  -5  6142.8   285.5   2-0.09083 0.21832-0.82588 0.32848 0.55648-0.91893  0 403.23 421.45   76.42 403.48 421.38   76.48
   1  -5  -5  6342.2   247.7   2 0.08884 0.03865 0.31407-0.81166-0.94523 0.58284  0 195.64 131.33  219.33 195.58 131.44  219.34
   1  -5   5  5267.2   221.6   1-0.63576 0.76340-0.73409 0.23726-0.23858 0.60077  0 145.02 289.02  104.28 145.08 289.00  104.36
   1  -5   5  6071.3   278.7   2-0.23804 0.36550 0.23028-0.72746 0.94356-0.58071  0 363.88 434.16    7.20 363.81 434.18    7.31
   1  -5   5  6546.1   249.4   2 0.10972 0.01780-0.79907 0.30124-0.59114 0.95338  0 173.09 157.95  147.78 172.96 158.04  147.80
   1   5  -5  6810.9   297.2   2 0.13535-0.00784-0.32057 0.81804-0.93751 0.57511  0 380.83 429.86  181.89 380.77 429.76  182.21
   1   5  -5  5489.3   237.9   2-0.20934 0.33675 0.82884-0.33147 0.51884-0.88132  0 181.79 146.36  324.16 181.78 146.48  323.90
   1   5   5  6988.0   243.7   2-0.20359 0.33104-0.24271 0.73989 0.94850-0.58564  0 162.24 175.68   34.83 162.17 175.71   34.79
   1   5   5  5595.1   259.6   2-0.01486 0.14231 0.81880-0.32123-0.57389 0.93625  0 339.20 437.67  256.37 339.17 437.35  256.40
  -1  -5  -6  8237.2   254.2   1-0.39356 0.26607 0.37969-0.87623-0.83723 0.40178  0 156.24 357.87   24.20 156.26 357.73   24.26
  -1  -5  -6  8553.0   329.0   1-0.15519 0.02753-0.85225 0.35535 0.49958-0.93433  0 488.47 387.22  157.00 488.44 387.02  157.09
  -1  -5  -6  8248.5   342.5   2-0.07652-0.05097-0.86666 0.36927 0.49299-0.92792  0 490.94 383.28   81.00 491.17 383.38   80.90
  -1  -5  -6  9069.9   295.7   2 0.08523-0.21272 0.34114-0.83873-0.93614 0.50127  0 251.60  76.03  221.21 251.43  76.19  220.99
  -1  -5   6  7499.2   265.0   1-0.67958 0.55207-0.62193 0.12522-0.38908 0.82434  0 130.33 230.77   93.04 130.31 230.66   93.28
  -1  -5   6  8671.3   300.8   2 0.09285-0.22038-0.88208 0.38425-0.46185 0.89654  0 210.89  98.55  138.77 210.72  98.67  138.94
  -1  -5   6  7822.6   337.8   2-0.24138 0.11397 0.38599-0.88306 0.89037-0.45521  0 449.91 420.82  357.68 450.06 420.83  357.64
  -1   5  -6  8365.6   337.9   2 0.13544-0.26295-0.32755 0.82502-0.93508 0.50020  0 471.81 403.24  181.81 472.08 403.25  181.78
  -1   5  -6  7527.8   278.4   2-0.20705 0.07965 0.84032-0.34295 0.50100-0.93597  0 230.64  86.16  322.74 230.46  86.31  322.67
  -1   5   6  9361.1   307.2   2-0.18535 0.05789-0.38408 0.88126 0.90451-0.46908  0 194.29 111.70   43.21 194.17 111.82   43.32
  -1   5   6  8341.1   342.8   2-0.03422-0.09323 0.87242-0.37485-0.48755 0.92239  0 427.57 434.15  262.30 427.68 433.92  262.33
   1  -5  -6  7834.7   197.8   1-0.54189 0.66938 0.13304-0.62958-0.82985 0.39441  0 207.39 414.63   40.89 207.43 414.43   40.80
   1  -5  -6  8331.6   238.1   1-0.23530 0.36297-0.87877 0.38187 0.41521-0.84996  0 410.24 441.92  150.18 410.20 441.66  150.25
   1  -5  -6  8221.6   345.3   2-0.07081 0.19831-0.88153 0.38413 0.46679-0.90173  0 419.03 437.77   82.62 419.29 437.69   82.65
   1  -5  -6  8877.8   301.4   2 0.08062 0.04687 0.37323-0.87082-0.92423 0.48936  0 188.76 117.03  222.76 188.71 117.13  222.97
   1  -5   6  6562.0   256.1   1-0.61316 0.74080-0.76933 0.27251-0.17934 0.61396  0 129.53 279.34  108.48 129.68 279.35  108.51
   1  -5   6  7771.8   322.3   2-0.23968 0.36714 0.29345-0.79063 0.92544-0.49001  0 369.44 453.55    3.53 369.34 453.46    3.54
   1  -5   6  8650.1   292.5   2 0.09738 0.03015-0.86297 0.36514-0.49578 0.93046  0 160.99 149.94  141.09 160.86 150.00  141.18
   1   5  -6  8647.1   347.0   2 0.13592-0.00841-0.37964 0.87711-0.91510 0.48022  0 395.28 446.84  178.54 395.58 446.78  178.60
   1   5  -6  7869.8   284.1   2-0.19746 0.32487 0.88128-0.38392 0.42936-0.86433  0 174.37 132.31  318.00 174.28 132.40  317.90
   1   5   6  8898.8   286.2   2-0.19550 0.32296-0.30933 0.80651 0.93064-0.49521  0 149.99 168.20   38.82 149.93 168.23   38.76
   1   5   6  7404.3   313.5   2-0.03703 0.16448 0.87940-0.38182-0.47465 0.90948  0 343.56 456.59  263.03 343.51 456.29  263.18
  -1  -5  -7 14104.2   332.6   1-0.36432 0.23683 0.41962-0.91616-0.83138 0.32336  0 145.14 372.51   21.39 145.25 372.33   21.40
  -1  -5  -7 14703.6   380.0   2 0.07799-0.20548 0.39121-0.88880-0.91699 0.40965  0 245.43  57.11  224.01 245.27  57.30  224.09
  -1  -5   7 11543.9   334.3   1-0.66168 0.53418-0.67918 0.18246-0.31764 0.82545  0 116.04 219.21   98.59 115.71 219.11   98.62
  -1  -5   7 14150.9   387.9   2 0.08034-0.20787-0.92428 0.42645-0.37317 0.88030  0 197.13  85.71  133.15 196.97  85.88  133.27
  -1  -5   7 13745.1   451.7   2-0.24110 0.11370 0.42753-0.92460 0.87126-0.36358  0 462.96 445.36  355.27 463.06 445.38  355.01
  -1   5  -7 14786.9   446.0   2 0.13591-0.26342-0.37613 0.87360-0.91655 0.40919  0 494.49 421.72  178.77 494.73 421.69  178.82
  -1   5  -7 12788.7   363.7   2-0.19467 0.06727 0.89147-0.39410 0.40913-0.91660  0 223.73  67.96  316.64 223.59  68.19  316.59
  -1   5   7 15026.9   395.1   2-0.17886 0.05140-0.42705 0.92423 0.88636-0.37836  0 180.45  99.94   46.04 180.35  99.99   46.02
  -1   5   7 12293.9   430.7   2-0.05334-0.07411 0.91584-0.41826-0.39799 0.90530  0 438.62 458.29  267.89 438.73 458.13  268.14
   1  -5  -7 13209.6   256.5   1-0.50445 0.63194 0.20428-0.70082-0.83893 0.33091  0 200.23 432.55   36.10 200.28 432.30   36.17
   1  -5  -7 13903.5   295.3   1-0.34961 0.47725-0.89526 0.39844 0.27619-0.78325  0 420.46 465.82  139.93 420.57 465.45  139.89
   1  -5  -7 14323.0   444.5   2-0.05224 0.17973-0.92391 0.42652 0.37902-0.88644  0 437.97 458.07   88.27 438.23 458.04   88.34
   1  -5  -7 14210.7   382.2   2 0.07379 0.05370 0.41822-0.91581-0.90534 0.39800  0 180.32 100.40  225.73 180.21 100.47  225.80
   1  -5   7 11621.4   340.4   1-0.58857 0.71621-0.79920 0.30238-0.12191 0.62897  0 112.81 269.29  112.42 112.59 269.32  112.47
   1  -5   7 14330.2   377.3   2 0.08458 0.04294-0.91163 0.41380-0.40222 0.90936  0 146.85 140.25  134.87 146.75 140.33  135.10
   1   5  -7 14514.0   445.4   2 0.13586-0.00835-0.42416 0.92163-0.89534 0.38798  0 412.90 468.02  175.73 413.18 467.87  175.81
   1   5  -7 12305.1   357.2   2-0.18520 0.31260 0.92100-0.42364 0.34271-0.85018  0 165.20 116.10  312.45 165.09 116.18  312.37
   1   5   7 15214.5   373.2   2-0.18864 0.31610-0.36053 0.85771 0.91347-0.40547  0 135.68 159.22   41.99 135.61 159.23   41.87
   1   5   7 12793.9   394.6   2-0.05749 0.18494 0.92397-0.42640-0.37812 0.88543  0 349.08 479.63  269.39 349.00 479.32  269.40
  -1  -5  -8  1907.6   205.1   1-0.34170 0.21421 0.44902-0.94556-0.82561 0.24501  0 132.09 388.82   19.31 132.03 388.86   19.25
  -1  -5  -8  1319.6   184.0   2 0.07224-0.19973 0.42820-0.92579-0.90079 0.32097  0 237.93  35.22  226.49 237.80  34.94  226.43
  -1  -5   8  1439.6   174.0   1-0.63914 0.51150-0.72797 0.23115-0.24812 0.82761  0  99.40 206.54  103.66  99.14 206.58  103.68
  -1  -5   8  1775.1   212.3   2 0.06773-0.19526-0.95524 0.45741-0.28797 0.86755  0 181.32  70.80  127.88 181.28  70.79  128.02
  -1  -5   8  1393.1   276.3   2-0.24066 0.11326 0.45743-0.95450 0.85606-0.27585  0 479.00 474.99  352.86 479.23 475.03  353.08
  -1   5  -8  1277.7   183.4   2-0.18179 0.05438 0.92979-0.43242 0.32006-0.90003  0 215.30  46.71  311.19 215.21  46.84  310.97
  -1   5   8  1770.6   210.1   2-0.17391 0.04645-0.45842 0.95560 0.87156-0.29098  0 164.58  85.99   47.82 164.45  86.02   48.03
  -1   5   8  1404.5   268.8   2-0.07104-0.05641 0.94760-0.45003-0.31145 0.89123  0 452.50 487.32  273.55 452.55 487.50  273.52
   1  -5  -8  1344.3   155.7   1-0.47268 0.60017 0.25934-0.75588-0.84221 0.26162  0 191.04 452.89   32.49 191.07 452.84   32.52
   1  -5  -8  1507.3   180.2   1-0.44211 0.56975-0.88520 0.38838 0.14476-0.72425  0 433.88 494.24  130.64 434.13 494.00  130.66
   1  -5  -8  1426.3   273.5   2-0.03493 0.16242-0.95510 0.45770 0.29423-0.87415  0 461.31 483.40   93.61 461.21 483.42   93.61
   1  -5  -8  1709.9   202.2   2 0.06849 0.05901 0.45135-0.94894-0.88972 0.30989  0 169.92  80.97  228.18 169.91  81.12  227.92
   1  -5   8  1484.6   178.8   1-0.56235 0.68999-0.82426 0.32744-0.06603 0.64552  0  93.46 258.55  116.36  93.47 258.68  116.29
   1  -5   8  1562.7   183.9   2 0.07136 0.05617-0.94744 0.44961-0.31188 0.89146  0 130.43 128.93  129.49 130.33 128.94  129.48
   1   5  -8  1530.8   269.4   2 0.13537-0.00786-0.45660 0.95407-0.87931 0.29947  0 434.18 494.30  174.17 434.27 493.96  173.73
   1   5  -8  1356.6   186.9   2-0.17260 0.30000 0.95015-0.45278 0.25967-0.83964  0 153.71  97.22  307.40 154.01  97.47  307.27
   1   5   8  1680.5   186.0   2-0.18319 0.31065-0.39853 0.89572 0.89867-0.31810  0 118.97 148.68   43.98 118.91 148.70   44.23
  -1  -5  -9 306.873 142.940   1-0.32557 0.19808 0.46919-0.96573-0.82089 0.16773  0 116.51 407.99   17.74 116.41 407.92   17.75
  -1  -5  -9 209.451 173.025   2 0.06800-0.19549 0.45431-0.95190-0.88825 0.23595  2 228.84   8.56  227.84 228.85   8.38  228.11
  -1  -5   9 123.103 134.301   1-0.61293 0.48529-0.76965 0.27283-0.17877 0.83070  0  79.62 192.61  109.14  79.82 192.49  108.55
  -1  -5   9 316.411 179.572   2 0.05496-0.18249-0.97689 0.47905-0.20658 0.85861  0 162.90  52.73  122.88 163.19  52.99  123.13
  -1   5  -9 309.053 177.374   2-0.16869 0.04128 0.95737-0.46000 0.23450-0.88696  0 205.14  22.06  305.59 205.16  21.51  305.75
  -1   5   9 366.786 182.681   2-0.17036 0.04291-0.48015 0.97733 0.86049-0.20734  0 146.23  69.81   49.57 146.02  69.60   49.44
   1  -5  -9 368.414 117.736   1-0.44811 0.57560 0.29897-0.79551-0.84251 0.18934  0 179.94 476.95   29.92 179.90 477.03   29.85
   1  -5  -9 263.578 174.599   2 0.06463 0.06286 0.47462-0.97221-0.87782 0.22552  0 157.69  58.60  229.55 157.53  58.52  229.44
   1  -5   9 231.765 138.904   1-0.53453 0.66217-0.84507 0.34825-0.01158 0.66352  0  71.81 246.98  119.91  71.87 247.15  119.98
   1  -5   9   6.034 157.220   2 0.05794 0.06958-0.97255 0.47472-0.22535 0.87738  0 110.94 115.59  124.58 111.16 115.60  124.25
   1   5  -9 238.786 169.100   2-0.16002 0.28743 0.97050-0.47314 0.18032-0.83278  0 140.66  75.50  303.18 140.71  75.78  302.50
   1   5   9 114.235 152.259   2-0.17910 0.30656-0.42548 0.92266 0.88707-0.23393  0  99.80 136.35   45.51  99.39 136.47   45.92
  -1  -5 -10  -4.286 162.678   1-0.31562 0.18813 0.48128-0.97782-0.81777 0.09203  0  97.73 430.99   16.62  97.95 430.40   16.83
  -1  -5  10  55.782 152.530   1-0.58350 0.45586-0.80452 0.30770-0.11081 0.83517  0  56.87 176.33  113.26  57.34 176.37  113.23
  -1  -5  10 141.731 206.236   2 0.04232-0.16985-0.99076 0.49293-0.12885 0.85333  0 141.97  31.94  119.20 142.13  31.96  118.55
  -1   5  10 371.807 209.426   2-0.16786 0.04036-0.49349 0.99089 0.85340-0.12851  0 123.96  49.59   50.46 124.55  50.30   50.32
   1  -5 -10 272.355 205.840   2 0.06201 0.06548 0.48968-0.98728-0.86969 0.14491  0 142.68  31.68  231.20 142.57  31.78  230.42
   1  -5  10  58.163 151.702   1-0.50506 0.63270-0.86209 0.36526 0.04153 0.68284  0  47.32 234.46  124.12  47.12 234.36  123.60
   1  -5  10  42.650 174.382   2 0.04462 0.08290-0.98875 0.49092-0.14277 0.86725  0  87.78  99.60  120.23  88.62 100.05  119.37
   1   5 -10 105.067 198.421   2-0.14756 0.27500 0.98347-0.48590 0.10490-0.82962  0 124.23  50.09  298.39 124.74  50.36  298.08
   1   5  10 135.472 160.825   2-0.17634 0.30380-0.44315 0.94033 0.87893-0.15322  0  76.75 122.55   47.14  76.37 122.30   47.05
  -1  -6   0 520.249 102.019   1-0.65791 0.53041-0.17093-0.42513-0.73344 0.73344  0 154.01 303.42   60.20 154.08 303.39   60.32
  -1  -6   0 642.598 146.250   2-0.20047 0.07301-0.26910-0.32752 0.94202-0.94202  0 452.23 377.79   36.33 452.32 377.74   36.36
  -1  -6   0 668.094 116.852   2 0.13561-0.26312-0.34107-0.25590-0.93021 0.93021  0 244.30 104.50  181.18 244.20 104.45  180.97
  -1   6   0 744.060 137.292   1-0.50486 0.37737 0.20354 0.39231-0.83886 0.83886  0 453.73 139.36   36.32 453.66 139.69   36.21
  -1   6   0 646.578 119.330   2-0.23899 0.11153 0.26087 0.33575 0.93533-0.93533  0 222.17 117.03    5.43 222.24 117.20    5.50
  -1   6   0 595.752 147.401   2 0.08662-0.21412 0.33066 0.26645-0.93977 0.93977  0 429.70 397.10  220.00 429.54 397.09  220.35
   1  -6   0 486.914  93.198   1-0.69829 0.82580-0.46104-0.13502-0.54757 0.54757  0 176.82 352.91   80.39 176.95 352.59   80.28
   1  -6   0 672.295 144.338   2-0.18976 0.31722-0.35246-0.24415 0.91638-0.91638  0 382.10 421.19   41.04 382.17 421.13   41.38
   1  -6   0 584.405 116.539   2 0.13469-0.00718-0.28333-0.31364-0.94952 0.94952  0 189.07 146.86  184.51 188.84 147.11  184.45
   1   6   0 552.000 141.774   1-0.38350 0.51099 0.39362 0.20223-0.83546 0.83546  0 491.18 198.12   23.39 491.13 198.19   23.26
   1   6   0 726.288 144.054   2 0.09157 0.03592 0.29261 0.30450-0.95184 0.95184  0 354.24 428.12  218.27 354.21 428.05  218.04
  -1  -6  -1  4528.0   202.4   1-0.63281 0.50531-0.08707-0.50898-0.76939 0.69685  0 155.90 313.93   54.79 156.01 313.76   54.90
  -1  -6  -1  4730.9   252.3   2-0.18492 0.05746-0.38673-0.20989 0.90346-0.97603  0 456.37 376.09   43.43 456.75 376.12   43.49
  -1  -6  -1  5000.7   224.8   2 0.13339-0.26089-0.22789-0.36908-0.96451 0.89203  0 246.95 101.48  188.19 246.80 101.58  187.75
  -1  -6   1  4573.7   204.4   1-0.67747 0.54997-0.25512-0.34093-0.68989 0.76243  0 150.15 293.42   65.80 150.26 293.31   65.87
  -1  -6   1  4754.5   258.6   2-0.21327 0.08582-0.15341-0.44321 0.96487-0.89230  0 450.30 382.36   29.53 450.54 382.39   29.55
  -1  -6   1  5542.1   230.4   2 0.13544-0.26295-0.45245-0.14452-0.88144 0.95392  0 240.17 104.78  173.84 240.05 104.89  174.00
  -1   6  -1  4351.0   228.0   1-0.55991 0.43242 0.09594 0.49990-0.82298 0.75040  0 466.52 151.02   43.11 466.64 151.26   43.20
  -1   6  -1  4768.0   261.4   2 0.10032-0.22781 0.22021 0.37690-0.97028 0.89780  0 434.02 396.31  213.71 434.14 396.15  213.72
  -1   6  -1  5176.7   227.1   2-0.24137 0.11397 0.37360 0.22288 0.89563-0.96816  0 224.33 114.04  358.43 224.32 114.23  358.41
  -1   6   1  4672.3   228.7   1-0.43030 0.30281 0.32642 0.26943-0.84160 0.91418  0 443.37 127.18   28.31 443.50 127.35   27.97
  -1   6   1  4834.1   225.2   2-0.23489 0.10743 0.14933 0.44729 0.96048-0.88791  0 218.58 117.90   11.99 218.54 118.08   12.08
  -1   6   1  4825.4   271.2   2 0.07026-0.19775 0.44022 0.15689-0.89514 0.96762  0 427.06 401.12  226.90 427.26 401.07  227.20
   1  -6  -1  4105.8   175.1   1-0.69610 0.82360-0.39176-0.20429-0.60164 0.52910  0 183.50 363.98   75.15 183.54 363.83   75.25
   1  -6  -1  5068.0   268.4   2-0.17375 0.30120-0.45941-0.13721 0.87107-0.94364  0 386.73 421.49   47.86 387.04 421.41   48.09
   1  -6  -1  5525.6   233.2   2 0.13106-0.00355-0.16992-0.42704-0.97670 0.90422  0 190.35 143.46  190.89 190.24 143.48  191.16
   1  -6   1  3739.8   187.5   1-0.69558 0.82309-0.52461-0.07144-0.49086 0.56340  0 168.80 342.09   84.99 168.75 341.93   85.15
   1  -6   1  4676.9   262.8   2-0.20338 0.33084-0.24446-0.35215 0.94809-0.87552  0 379.29 424.11   35.02 379.22 424.03   34.89
   1  -6   1  5439.1   229.9   2 0.13596-0.00845-0.39764-0.19933-0.90742 0.97990  0 185.74 148.65  177.47 185.69 148.67  177.48
   1   6  -1  4041.2   245.9   1-0.44230 0.56980 0.30803 0.28782-0.84231 0.76974  0 497.71 210.95   29.10 497.84 211.03   29.23
   1   6  -1  4629.6   256.1   2 0.10527 0.02222 0.17527 0.42184-0.97888 0.90640  0 359.29 429.11  211.27 359.19 428.94  211.09
   1   6  -1  4743.7   214.7   2-0.24040 0.36780 0.47082 0.12567 0.84885-0.92137  0 175.25 162.63  352.07 175.23 162.70  352.21
   1   6   1  4734.9   247.5   1-0.31437 0.44186 0.48280 0.11305-0.81736 0.88993  0 487.74 184.79   16.90 487.80 184.92   16.72
   1   6   1  5330.2   221.8   2-0.23868 0.36614 0.25330 0.34332 0.93748-0.86491  0 171.42 168.40    6.17 171.40 168.41    5.95
   1   6   1  4880.2   255.3   2 0.07493 0.05256 0.41085 0.18625-0.90862 0.98109  0 350.92 430.48  225.24 350.91 430.34  225.33
  -1  -6  -2 421.767  98.719   1-0.60353 0.47602-0.00614-0.58991-0.79732 0.65223  0 156.03 324.76   50.15 155.97 324.56   49.72
  -1  -6  -2 353.137 142.963   2-0.16649 0.03900-0.50046-0.09642 0.84960-0.99458  0 464.04 377.68   51.03 463.95 377.55   50.78
  -1  -6  -2 512.138 114.346   2 0.12849-0.25600-0.11805-0.47892-0.98466 0.83970  0 248.06  96.04  194.41 247.86  96.18  194.18
  -1  -6   2 373.643 101.783   1-0.69077 0.56326-0.33725-0.25881-0.63961 0.78470  0 144.78 283.34   71.37 144.57 283.33   71.43
  -1  -6   2 552.399 148.494   2-0.22294 0.09548-0.04505-0.55157 0.97379-0.82865  0 450.97 390.27   23.51 451.35 390.13   23.28
  -1  -6   2 551.104 121.824   2 0.13236-0.25987-0.55706-0.03991-0.81986 0.96482  0 234.32 102.92  166.89 234.32 102.98  167.03
  -1   6  -2 578.763 152.392   1-0.59893 0.47144 0.00602 0.58982-0.80078 0.65563  0 482.58 162.29   48.58 482.52 162.27   48.95
  -1   6  -2 617.351 156.822   2 0.11141-0.23890 0.11389 0.48322-0.98723 0.84227  0 441.18 398.33  207.49 441.29 398.30  207.52
  -1   6  -2 584.875 120.199   2-0.24004 0.11264 0.48299 0.11350 0.84208-0.98713  0 225.02 108.58  351.47 224.88 108.75  351.41
  -1   6   2 433.371 118.389   1-0.33432 0.20683 0.45832 0.13753-0.82351 0.96866  0 435.98 114.18   18.68 436.10 113.97   18.56
  -1   6   2 479.408 115.686   2-0.22912 0.10166 0.04407 0.55255 0.97240-0.82726  0 213.14 116.63   17.92 213.16 116.72   18.15
  -1   6   2 578.564 156.599   2 0.05228-0.17978 0.54419 0.05291-0.83733 0.98228  0 427.26 408.16  234.35 427.35 408.20  234.09
   1  -6  -2 487.011  95.259   1-0.68817 0.81567-0.31776-0.27829-0.65226 0.50718  0 188.37 375.92   69.91 188.40 375.89   70.10
   1  -6  -2 585.065 152.247   2-0.15565 0.28314-0.56048-0.03640 0.81341-0.95839  0 394.02 425.09   55.11 393.91 424.82   54.85
   1  -6  -2 559.815 113.404   2 0.12528 0.00223-0.06251-0.53446-0.99015 0.84519  0 190.34 137.80  197.48 189.95 137.77  197.38
   1  -6   2 513.514 103.039   1-0.68809 0.81559-0.58200-0.01405-0.43337 0.57845  0 159.11 331.87   90.14 159.08 331.76   89.82
   1  -6   2 580.578 153.812   2-0.21456 0.34202-0.14027-0.45635 0.96659-0.82144  0 378.11 430.46   29.04 378.11 430.14   28.79
   1  -6   2 435.534 109.748   2 0.13417-0.00666-0.50770-0.08927-0.85102 0.99598  0 180.72 148.21  170.41 180.79 148.24  170.38
   1   6  -2 467.833 146.511   2 0.11582 0.01168 0.06441 0.53270-0.99118 0.84622  0 366.26 433.18  204.67 366.00 433.04  204.66
   1   6  -2 424.337 107.658   2-0.23699 0.36440 0.57114 0.02570 0.78590-0.93089  0 174.25 156.58  345.41 174.41 156.73  345.41
   1   6   2 572.570 146.842   1-0.23603 0.36352 0.57124 0.02461-0.78611 0.93126  0 488.04 170.56    9.56 487.86 170.77    9.72
   1   6   2 685.014 116.070   2-0.23474 0.36219 0.14593 0.45069 0.96104-0.81590  0 166.79 168.33   12.23 166.75 168.41   12.27
   1   6   2 504.417 146.970   2 0.05596 0.07153 0.52411 0.07300-0.84981 0.99476  0 349.23 436.21  232.69 349.28 435.91  232.72
  -1  -6  -3 20511.0   382.0   1-0.57187 0.44438 0.06969-0.66554-0.81738 0.59966  0 153.83 336.17   45.00 154.02 335.96   44.88
  -1  -6  -3 22570.8   445.2   2-0.14690 0.01941-0.60532 0.00844 0.78231-0.99978  0 473.96 382.02   57.82 474.22 382.09   58.02
  -1  -6  -3 23665.4   425.1   2 0.12202-0.24952-0.01643-0.58067-0.99239 0.77496  0 247.60  87.99  200.02 247.39  88.17  200.01
  -1  -6   3 18621.3   382.8   1-0.69751 0.57001-0.41538-0.18068-0.58390 0.80153  0 136.93 273.47   76.98 137.02 273.38   76.94
  -1  -6   3 20419.4   430.9   2-0.22963 0.10217 0.05206-0.64868 0.97189-0.75417  0 454.43 400.96   18.14 454.64 401.00   17.69
  -1  -6   3 21602.3   412.0   2 0.12683-0.25434-0.65130 0.05433-0.74815 0.96559  0 227.21  98.66  159.88 227.02  98.80  160.24
  -1   6  -3 17997.0   397.4   1-0.62575 0.49825-0.06623 0.66229-0.77720 0.55957  0 501.61 172.72   53.51 501.72 173.01   53.57
  -1   6  -3 21507.1   440.9   2 0.11971-0.24721 0.01584 0.58127-0.99268 0.77525  0 450.91 403.68  202.17 451.16 403.61  201.87
  -1   6  -3 20077.9   399.0   2-0.23623 0.10883 0.58417 0.01267 0.77649-0.99398  0 223.97 100.65  344.53 223.81 100.80  344.48
  -1   6   3 20630.7   341.3   1-0.21897 0.09148 0.58879 0.00706-0.77806 0.99578  0 431.54  98.74    8.11 431.64  98.97    8.25
  -1   6   3 21878.1   417.8   2-0.22245 0.09499-0.05116 0.64777 0.97360-0.75589  0 206.26 113.12   23.61 206.15 113.25   23.63
  -1   6   3 21118.8   448.5   2 0.03302-0.16051 0.63873-0.04162-0.76872 0.98616  0 429.39 418.63  241.00 429.58 418.49  240.89
   1  -6  -3 18485.1   305.1   1-0.67452 0.80202-0.24088-0.35517-0.69786 0.48023  0 191.33 389.16   64.99 191.39 388.92   64.92
   1  -6  -3 20708.5   436.7   2-0.13691 0.26440-0.65248 0.05560 0.74534-0.96281  0 402.65 431.47   61.45 402.96 431.46   61.50
   1  -6  -3 22285.7   423.6   2 0.11823 0.00926 0.03486-0.63197-0.99237 0.77494  0 188.11 129.83  203.00 187.98 129.89  202.96
   1  -6   3 17252.1   355.9   1-0.67662 0.80413-0.63330 0.03724-0.37566 0.59329  0 147.90 322.05   94.18 147.93 321.91   94.29
   1  -6   3 22296.2   443.5   2-0.22303 0.35049-0.04393-0.55269 0.97382-0.75611  0 378.87 439.61   23.00 378.75 439.52   23.21
   1  -6   3 21657.2   411.2   2 0.12959-0.00208-0.60903 0.01207-0.78248 0.99993  0 174.24 145.81  163.30 174.13 145.88  163.36
   1   6  -3 21036.6   437.1   2 0.12356 0.00395-0.03590 0.63287-0.99169 0.77425  0 374.70 440.58  199.05 374.66 440.40  198.91
   1   6  -3 21487.8   411.5   2-0.23093 0.35833 0.66108-0.06424 0.71389-0.93138  0 172.00 148.74  338.99 171.94 148.81  338.79
   1   6   3 20412.8   408.7   1-0.15037 0.27786 0.65432-0.05847-0.74112 0.95884  0 491.16 155.38    2.40 491.27 155.44    2.41
   1   6   3 22594.9   410.0   2-0.22923 0.35669 0.04582 0.55080 0.97229-0.75458  0 160.26 166.53   17.93 160.22 166.56   18.05
   1   6   3 20423.5   423.9   2 0.03548 0.09201 0.62743-0.03032-0.77786 0.99530  0 349.16 445.02  239.85 349.12 444.76  240.04
  -1  -6  -4 106.362  92.282   1-0.53949 0.41200 0.13784-0.73368-0.83064 0.54034  0 149.99 348.08   40.47 149.97 348.15   40.49
  -1  -6  -4  55.214 151.955   2-0.12641-0.00108-0.69793 0.10105 0.70492-0.99488  0 487.52 389.75   64.83 487.82 389.79   65.04
  -1  -6  -4  74.657 105.882   2 0.11500-0.24250 0.07387-0.67098-0.99061 0.70070  0 245.28  77.08  204.93 245.55  77.53  205.20
  -1  -6   4  84.190  93.919   1-0.69772 0.57021-0.48825-0.10781-0.52422 0.81439  0 127.38 263.25   82.59 127.64 263.23   82.33
  -1  -6   4-116.859 151.308   2-0.23432 0.10686 0.13588-0.73250 0.96262-0.67233  0 460.60 415.34   12.42 460.38 415.16   12.86
  -1  -6   4  19.890 105.728   2 0.11905-0.24656-0.73312 0.13615-0.66960 0.95952  0 218.33  92.68  153.43 218.18  92.41  153.71
  -1   6  -4 -50.088 158.614   2 0.12581-0.25332-0.07118 0.66815-0.98950 0.69958  0 463.90 411.89  196.60 464.01 412.19  196.88
  -1   6  -4 101.082 110.086   2-0.22981 0.10241 0.67436-0.07751 0.70173-0.99172  0 221.31  90.82  337.71 221.33  90.45  337.75
  -1   6   4  56.659 113.609   2-0.21513 0.08767-0.13408 0.73069 0.96734-0.67705  0 197.42 107.76   28.51 197.49 107.69   28.43
  -1   6   4 -51.694 155.561   2 0.01328-0.14077 0.72150-0.12439-0.69229 0.98220  0 434.20 432.24  248.16 434.05 432.21  247.45
   1  -6  -4 -30.573  69.656   1-0.65605 0.78355-0.16399-0.43206-0.73669 0.44651  0 192.22 403.52   59.51 192.40 403.21   59.87
   1  -6  -4 -28.153 156.869   2-0.11767 0.24516-0.73306 0.13618 0.66991-0.95987  0 414.55 441.60   67.52 414.38 441.45   67.93
   1  -6  -4 -17.519 102.131   2 0.11082 0.01667 0.12011-0.71722-0.98656 0.69664  0 184.56 119.61  207.67 184.43 119.91  207.88
   1  -6   4 -29.754  90.360   1-0.66184 0.78934-0.67877 0.08272-0.31818 0.60836  0 135.29 312.34   98.54 135.31 312.24   98.58
   1  -6   4   2.512 150.387   2-0.22897 0.35643 0.04173-0.63835 0.97254-0.68225  0 380.94 452.10   18.39 381.11 452.37   18.29
   1  -6   4  30.727 100.262   2 0.12275 0.00476-0.69862 0.10165-0.70489 0.99481  0 165.74 141.95  156.60 165.64 141.63  156.55
   1   6  -4 110.898 163.745   2 0.12874-0.00123-0.12290 0.71986-0.98403 0.69411  0 385.41 451.33  193.38 385.39 451.13  193.90
   1   6  -4 -59.732 103.127   2-0.22317 0.35058 0.73897-0.14213 0.63570-0.92569  0 167.58 138.66  332.47 167.79 138.87  332.42
   1   6   4  46.228  96.262   2-0.22305 0.35051-0.04362 0.64024 0.97383-0.68354  0 151.72 162.80   23.38 151.78 162.93   23.20
   1   6   4 -24.071 140.715   2 0.01429 0.11320 0.71758-0.12047-0.69633 0.98624  0 350.18 457.30  246.85 350.42 457.09  247.12
  -1  -6  -5  2289.5   180.9   1-0.50836 0.38087 0.19721-0.79306-0.83826 0.47539  0 143.70 361.59   36.69 143.86 361.39   36.63
  -1  -6  -5  2480.9   286.7   2-0.10581-0.02169-0.77661 0.17974 0.62103-0.98348  2 504.30 400.67   71.94 505.18 400.82   71.75
  -1  -6  -5  2363.6   216.3   2 0.10781-0.23530 0.15120-0.74831-0.98261 0.62022  0 242.33  64.30  210.03 242.31  64.10  209.69
  -1  -6   5  2432.6   198.2   1-0.69231 0.56481-0.55475-0.04130-0.46147 0.82419  0 116.67 252.93   87.55 116.39 252.78   87.57
  -1  -6   5  2773.1   309.4   2-0.23716 0.10971 0.20583-0.80244 0.94942-0.58656  0 468.84 433.20    8.69 468.79 433.01    8.77
  -1  -6   5  2491.4   225.8   2 0.10930-0.23682-0.80175 0.20435-0.58758 0.94982  0 207.84  83.81  147.55 207.62  83.82  147.54
  -1   6  -5  2336.4   243.9   2 0.12987-0.25738-0.14556 0.74253-0.98079 0.61839  0 479.92 424.23  192.49 480.24 424.26  192.58
  -1   6  -5  2566.5   225.7   2-0.22153 0.09413 0.75191-0.15507 0.62093-0.98341  0 217.46  77.37  331.13 217.37  77.51  331.29
  -1   6   5  2422.6   224.5   2-0.20795 0.08049-0.20398 0.80059 0.95664-0.59378  0 187.29 100.06   32.47 187.09 100.08   32.51
  -1   6   5  3034.9   316.5   2-0.00629-0.12115 0.79158-0.19449-0.61103 0.97339  0 440.90 449.85  253.67 440.74 449.53  253.71
   1  -6  -5  2441.5   153.1   1-0.63383 0.76133-0.09013-0.50592-0.76821 0.40549  0 191.36 419.10   54.98 191.35 419.04   55.10
   1  -6  -5  2882.5   228.4   1-0.04358 0.17125-0.79711 0.20084 0.60225-0.96454  0 433.29 453.32  166.28 433.21 452.97  166.35
   1  -6  -5  2818.0   311.3   2-0.09851 0.22601-0.80140 0.20452 0.58997-0.95241  0 428.24 454.93   74.24 428.46 455.03   74.07
   1  -6  -5  2478.1   224.5   2 0.10347 0.02403 0.19223-0.78933-0.97588 0.61349  0 179.18 107.59  211.89 179.24 107.69  212.08
   1  -6   5  2337.8   197.2   1-0.64392 0.77156-0.71882 0.12263-0.26204 0.62422  0 121.51 302.71  102.65 121.23 302.66  102.69
   1  -6   5  2940.3   307.5   2-0.23321 0.36067 0.11517-0.71179 0.96558-0.60273  0 385.02 469.06   14.30 385.07 468.89   14.05
   1  -6   5  2693.8   226.1   2 0.11375 0.01376-0.77511 0.17814-0.62151 0.98391  0 155.31 135.58  149.88 155.27 135.57  150.04
   1   6  -5  2949.2   306.0   2 0.13215-0.00464-0.19599 0.79296-0.97166 0.60926  0 398.24 465.45  189.56 398.44 465.49  189.63
   1   6  -5  2464.4   213.1   2-0.21378 0.34118 0.80438-0.20754 0.55432-0.91680  0 162.07 126.79  326.44 161.93 126.89  326.38
   1   6   5  2711.5   209.2   2-0.21639 0.34384-0.12073 0.71735 0.96881-0.60596  0 141.55 157.53   27.70 141.37 157.58   27.65
   1   6   5  2423.2   280.0   2-0.00677 0.13422 0.79314-0.19605-0.60900 0.97136  0 353.18 473.52  254.21 353.11 473.10  253.86
  -1  -6  -6 -37.639  99.495   1-0.47993 0.35244 0.24717-0.84302-0.84176 0.40632  0 135.66 376.20   33.61 135.66 376.02   33.33
  -1  -6  -6  13.255 125.317   2 0.10087-0.22836 0.21534-0.81245-0.97132 0.53645  0 237.71  47.75  212.85 237.70  47.63  213.43
  -1  -6   6 197.278 107.479   1-0.68129 0.55379-0.61489 0.01883-0.39718 0.83244  0 103.23 241.84   92.49 103.12 241.77   92.65
  -1  -6   6 108.492 212.169   2-0.23903 0.11157 0.26253-0.85915 0.93485-0.49942  0 479.86 455.16    5.50 480.05 454.97    5.40
  -1  -6   6 111.163 135.800   2 0.09850-0.22603-0.85813 0.26074-0.50389 0.93858  0 195.50  73.44  140.89 195.40  73.01  141.72
  -1   6  -6  93.746 215.061   2 0.13257-0.26008-0.20727 0.80424-0.96926 0.53438  0 500.65 440.67  188.58 500.49 440.24  188.97
  -1   6  -6  31.064 130.817   2-0.21163 0.08422 0.81666-0.21981 0.53692-0.97190  0 211.88  61.59  325.43 211.91  61.79  325.15
  -1   6   6  -7.885 139.062   2-0.20142 0.07396-0.26120 0.85782 0.94404-0.50861  0 174.78  90.40   36.13 174.84  90.39   35.88
  -1   6   6  16.641 220.610   2-0.02541-0.10203 0.84919-0.25211-0.52747 0.96231  0 449.43 470.73  259.54 449.90 471.14  259.63
   1  -6  -6 133.507  92.188   1-0.60987 0.73738-0.02257-0.57349-0.79218 0.35692  0 188.31 436.73   50.73 188.22 436.83   50.77
   1  -6  -6  43.359 149.220   1-0.17237 0.30004-0.85886 0.26259 0.48233-0.91707  0 438.18 476.21  155.56 437.97 476.00  155.65
   1  -6  -6  64.254 225.297   2-0.07992 0.20741-0.85770 0.26082 0.50791-0.94284  0 445.71 472.97   80.00 445.69 472.77   79.87
   1  -6  -6 122.101 134.622   2 0.09664 0.03085 0.25148-0.84858-0.96303 0.52816  0 172.31  93.00  215.54 172.34  93.05  215.57
   1  -6   6  84.263 117.144   1-0.62372 0.75136-0.75398 0.15779-0.20612 0.64075  0 104.93 293.24  107.11 105.35 292.88  106.64
   1  -6   6 -14.526 203.061   2-0.23605 0.36351 0.17620-0.77282 0.95563-0.52020  0 390.69 489.75   10.22 390.78 489.65   10.51
   1  -6   6  41.962 125.011   2 0.10270 0.02482-0.83823 0.24083-0.53556 0.97025  0 143.14 127.81  144.06 142.80 127.74  143.88
   1   6  -6  73.936 205.553   2 0.13402-0.00651-0.25560 0.85257-0.95745 0.52257  0 414.29 483.75  186.42 414.16 483.98  186.10
   1   6  -6 -34.376 118.370   2-0.20320 0.33061 0.85787-0.26103 0.47198-0.90695  0 154.70 112.80  320.58 154.27 112.70  320.71
   1   6   6  64.008 117.167   2-0.21007 0.33753-0.18496 0.78158 0.96003-0.52460  0 128.79 150.62   31.25 128.81 150.56   31.39
   1   6   6 -11.715 182.109   2-0.02729 0.15473 0.85431-0.25722-0.51905 0.95388  0 357.06 493.00  260.49 357.10 493.26  260.21
  -1  -6  -7  6427.5   268.6   1-0.45523 0.32774 0.28769-0.88353-0.84262 0.33460  0 125.36 392.59   30.63 125.22 392.45   30.61
  -1  -6  -7  6425.0   319.1   2 0.09477-0.22226 0.26693-0.86404-0.95904 0.45170  0 231.81  27.62  216.54 231.68  27.70  216.49
  -1  -6   7  5483.6   277.9   1-0.66573 0.53822-0.66832 0.07227-0.33189 0.83970  0  87.86 230.07   97.51  87.63 229.99   97.57
  -1  -6   7  6924.7   458.0   2-0.23978 0.11232 0.30718-0.90380 0.92095-0.41295  0 494.70 482.21    2.69 494.67 482.00    2.71
  -1  -6   7  6789.1   343.4   2 0.08706-0.21458-0.90311 0.30571-0.42049 0.92763  0 181.35  59.72  136.21 181.25  59.85  136.26
  -1   6  -7  5879.5   315.3   2-0.20055 0.07314 0.86921-0.27237 0.45194-0.95941  0 204.95  42.78  319.44 204.87  42.86  319.38
  -1   6   7  6748.6   336.9   2-0.19583 0.06838-0.30673 0.90334 0.93143-0.42343  0 160.58  78.40   38.59 160.49  78.46   38.60
  -1   6   7  5880.6   439.0   2-0.04373-0.08371 0.89518-0.29809-0.44355 0.95086  0 461.58 497.59  265.24 461.85 497.78  265.22
   1  -6  -7  5966.3   221.5   1-0.58642 0.71391 0.03632-0.63216-0.80920 0.30118  0 183.02 457.44   46.96 183.14 457.31   47.02
   1  -6  -7  6392.1   455.4   2-0.06198 0.18947-0.90279 0.30591 0.42559-0.93301  0 466.72 495.56   85.19 466.81 495.34   85.36
   1  -6  -7  6324.7   323.3   2 0.09078 0.03672 0.29884-0.89595-0.94998 0.44263  0 163.61  75.59  218.43 163.63  75.72  218.41
   1  -6   7  5232.7   275.4   1-0.60134 0.72898-0.78458 0.18840-0.15104 0.65809  0  87.59 282.81  110.42  87.45 282.75  110.47
   1  -6   7  5894.6   318.4   2 0.09106 0.03647-0.88903 0.29163-0.44870 0.95583  0 128.41 117.98  138.09 128.12 118.04  138.08
   1   6  -7  6183.6   321.5   2-0.19201 0.31942 0.90050-0.30366 0.39017-0.89764  0 144.85  96.01  315.45 144.68  96.08  315.37
   1   6   7  6729.6   306.6   2-0.20429 0.33175-0.23690 0.83351 0.94981-0.44181  0 114.20 141.86   34.39 113.89 141.88   34.45
  -1  -6  -8 283.329 141.791   1-0.43514 0.30765 0.31906-0.91490-0.84193 0.26134  0 111.92 411.22   28.64 112.41 411.23   28.48
  -1  -6   8  98.104 129.103   1-0.64573 0.51809-0.71517 0.11899-0.26752 0.84701  0  69.55 217.01  102.51  69.87 217.18  102.30
  -1  -6   8 209.354 176.897   2 0.07523-0.20276-0.93795 0.34055-0.33852 0.91810  0 164.78  43.72  130.88 164.77  43.93  131.11
  -1   6  -8 228.620 190.472   2-0.18877 0.06137 0.91065-0.31381 0.36753-0.94750  0 195.91  20.18  314.19 196.05  20.21  313.94
  -1   6   8 -38.181 173.009   2-0.19121 0.06375-0.34181 0.93843 0.92011-0.33954  0 143.85  64.20   40.54 143.69  64.05   40.72
   1  -6  -8 252.030 121.574   1-0.56523 0.69272 0.08424-0.68009-0.82062 0.24003  0 175.92 481.46   44.04 176.00 481.19   43.94
   1  -6  -8 320.116 182.491   2 0.08599 0.04150 0.33559-0.93270-0.93807 0.35825  0 152.79  54.82  220.45 152.84  55.21  220.65
   1  -6   8 384.816 141.648   1-0.57698 0.70462-0.81100 0.21482-0.09679 0.67629  0  66.64 272.08  114.45  67.14 272.06  114.20
   1  -6   8 -65.142 153.319   2 0.07882 0.04870-0.92855 0.33116-0.36274 0.94232  0 110.77 106.29  131.85 110.79 106.34  132.62
   1   6  -8-101.793 162.826   2-0.18028 0.30769 0.93350-0.33665 0.30997-0.88994  0 132.81  76.49  310.54 132.86  76.57  310.35
   1   6   8 121.210 155.662   2-0.19949 0.32695-0.27749 0.87411 0.93979-0.35922  0  96.44 131.41   36.61  96.25 131.44   36.85
  -1  -6  -9 818.204 197.741   1-0.41989 0.29240 0.34188-0.93772-0.84072 0.18756  0  96.76 433.18   27.00  96.81 433.21   26.90
  -1  -6   9  1063.6   193.2   1-0.62225 0.49461-0.75622 0.16003-0.20232 0.85425  0  49.20 202.81  107.14  48.86 202.81  106.90
  -1  -6   9 690.344 239.379   2 0.06317-0.19070-0.96391 0.36651-0.25863 0.91066  0 145.27  24.38  125.87 145.49  24.77  126.25
  -1   6   9 684.937 219.718   2-0.18764 0.06018-0.36774 0.96436 0.91080-0.25766  0 123.82  46.53   42.39 123.89  46.72   42.32
   1  -6  -9 778.330 228.983   2 0.08217 0.04532 0.36302-0.96013-0.92815 0.27585  0 139.42  30.49  222.41 139.56  30.81  222.34
   1  -6   9 594.978 172.111   1-0.55097 0.67861-0.83341 0.23722-0.04321 0.69514  0  43.91 260.50  118.11  43.81 260.49  117.84
   1  -6   9 792.833 210.292   2 0.06630 0.06122-0.95811 0.36071-0.27864 0.93067  0  90.43  92.34  127.43  90.24  92.34  127.46
   1   6  -9 632.561 217.166   2-0.16828 0.29569 0.95808-0.36123 0.23189-0.88435  0 118.24  53.47  306.20 118.37  53.53  305.59
   1   6   9  1170.5   208.7   2-0.19567 0.32313-0.30801 0.90463 0.93104-0.27790  0  75.92 119.17   38.57  75.27 119.01   38.68
  -1  -6 -10 687.127 216.412   1-0.40965 0.28216 0.35674-0.95259-0.83960 0.11386  0  78.11 459.99   26.34  77.94 459.57   25.87
  -1  -6  10 511.639 192.094   1-0.59553 0.46789-0.79146 0.19528-0.13757 0.86194  0  23.89 186.25  112.15  23.99 186.26  111.40
   1  -6  10 502.614 196.764   1-0.52305 0.65069-0.85225 0.25606 0.00950 0.71487  0  16.34 247.58  122.13  16.65 247.64  121.42
   1  -6  10 760.332 234.343   2 0.05341 0.07412-0.97897 0.38157-0.19688 0.92136  0  65.80  75.34  122.61  65.57  75.51  122.56
   1   6 -10 614.176 243.430   2-0.15611 0.28352 0.97532-0.37847 0.15616-0.88112  0 100.18  25.59  300.85 100.51  25.97  301.07
  -1  -7   0-105.612  95.661   1-0.67346 0.54596-0.23591-0.45949-0.70057 0.70057  0 125.82 318.36   64.18 126.06 318.20   64.59
  -1  -7   0  -2.887 178.567   2-0.19356 0.06610-0.32425-0.37180 0.92596-0.92596  0 489.08 415.50   39.54 488.98 415.47   39.66
  -1  -7   0  64.034 122.367   2 0.13597-0.26348-0.38480-0.31167-0.91293 0.91293  0 226.60  73.05  178.45 226.68  72.94  178.28
  -1   7   0  65.209 160.172   1-0.46363 0.33614 0.27424 0.42091-0.84252 0.84252  0 497.40 109.21   32.26 497.58 109.11   31.52
  -1   7   0   8.475 116.977   2-0.23994 0.11248 0.31576 0.38029 0.91800-0.91800  0 200.18  90.12    2.55 200.32  90.18    2.19
  -1   7   0  45.161 181.076   2 0.08041-0.20790 0.37470 0.32193-0.92365 0.92365  0 458.18 438.92  224.17 457.97 438.66  223.06
   1  -7   0  66.380 100.203   1-0.69775 0.82526-0.48732-0.20807-0.52503 0.52503  0 150.49 370.44   82.38 150.24 370.69   82.26
   1  -7   0   4.519 174.705   2-0.18395 0.31141-0.39338-0.30267 0.90078-0.90078  0 408.88 461.47   43.47 409.10 461.27   43.90
   1  -7   0  81.517 112.538   2 0.13555-0.00804-0.33509-0.36138-0.93239 0.93239  0 168.87 120.26  182.18 168.58 120.05  181.33
   1   7   0  22.531 164.446   2 0.08477 0.04272 0.34447 0.35216-0.93496 0.93496  0 373.11 469.68  220.87 373.00 469.97  221.19
   1   7   0  47.913 111.969   2-0.24128 0.36869 0.40379 0.29211 0.88246-0.88246  0 150.60 144.31  357.18 150.39 144.16  356.52
  -1  -7  -1  2422.1   205.0   1-0.65660 0.52909-0.16603-0.52937-0.73574 0.66320  0 128.31 329.40   60.01 128.40 329.28   60.00
  -1  -7  -1  2554.4   304.6   2-0.17945 0.05199-0.42321-0.27284 0.88808-0.96065  0 494.04 413.80   45.70 494.04 413.78   45.78
  -1  -7  -1  2935.0   232.0   2 0.13482-0.26233-0.28975-0.40672-0.94756 0.87508  0 229.55  69.62  183.87 229.44  69.77  184.06
  -1  -7   1  2493.6   197.5   1-0.68639 0.55888-0.30614-0.38926-0.65966 0.73220  0 121.79 307.63   69.19 121.81 307.51   69.30
  -1  -7   1  2516.0   248.5   2-0.20546 0.07800-0.22659-0.46946 0.95207-0.87950  0 486.77 420.35   34.03 486.80 420.33   33.84
  -1  -7   1  3048.4   228.6   2 0.13488-0.26239-0.47866-0.21781-0.86758 0.94006  0 222.52  73.53  172.33 222.41  73.65  172.30
  -1   7  -1  2373.5   252.3   2 0.09299-0.22048 0.28140 0.41523-0.95507 0.88260  0 463.18 437.98  216.89 463.24 437.86  217.36
  -1   7  -1  2677.9   237.3   2-0.24124 0.11383 0.41086 0.28504 0.87921-0.95173  0 202.36  86.84  355.87 202.43  86.98  356.07
  -1   7   1  2460.2   244.1   1-0.39470 0.26721 0.37810 0.31706-0.83741 0.90999  0 485.89  95.33   24.22 485.92  95.54   24.37
  -1   7   1  2892.3   232.1   2-0.23768 0.11022 0.22135 0.47471 0.94579-0.87322  0 196.60  91.30    8.16 196.53  91.35    7.84
  -1   7   1  2818.5   265.1   2 0.06582-0.19331 0.46751 0.22911-0.88153 0.95401  0 455.16 442.81  229.17 455.26 442.81  228.97
   1  -7  -1  2302.7   180.8   1-0.69807 0.82558-0.43156-0.26383-0.57136 0.49881  0 156.91 382.93   77.84 156.97 382.81   78.11
   1  -7  -1  2010.6   233.6   2-0.16946 0.29695-0.48402-0.21234 0.85849-0.93098  0 414.08 461.40   49.78 414.51 461.61   49.69
   1  -7  -1  2837.4   235.1   2 0.13354-0.00603-0.23914-0.45733-0.96176 0.88928  0 170.16 116.17  186.89 170.15 116.28  187.08
   1  -7   1  1979.2   175.6   1-0.69407 0.82157-0.54009-0.15531-0.47599 0.54854  0 141.89 359.58   86.31 141.99 359.36   86.39
   1  -7   1  2813.9   303.7   2-0.19641 0.32387-0.30219-0.39386 0.93279-0.86022  0 405.61 464.52   38.15 405.79 464.45   38.33
   1  -7   1  2793.3   221.6   2 0.13567-0.00816-0.43164-0.26482-0.89178 0.96426  0 165.39 121.80  175.33 165.28 121.79  175.34
   1   7  -1  2508.4   299.2   2 0.09734 0.03015 0.24559 0.45104-0.96447 0.89200  0 378.44 471.03  215.20 378.43 470.95  215.22
   1   7  -1  2547.9   218.9   2-0.23975 0.36715 0.49436 0.20154 0.83554-0.90807  0 151.66 140.02  350.74 151.52 140.09  350.65
   1   7   1  2444.5   208.5   2-0.23988 0.36734 0.31154 0.38451 0.91945-0.84688  0 147.47 145.95    2.43 147.46 146.06    2.45
   1   7   1  2498.7   293.2   2 0.06966 0.05783 0.44395 0.25268-0.89334 0.96582  0 369.34 472.46  227.39 369.26 472.37  227.44
  -1  -7  -2 17433.4   386.3   1-0.63649 0.50899-0.09821-0.59719-0.76501 0.61992  0 128.80 341.12   55.64 128.83 340.95   55.62
  -1  -7  -2 19867.5   488.9   2-0.16313 0.03564-0.51968-0.17668 0.83864-0.98362  2 501.96 415.28   51.80 502.29 415.39   52.06
  -1  -7  -2 20126.1   433.1   2 0.13219-0.25969-0.19700-0.49947-0.97145 0.82649  0 230.79  63.81  189.60 230.67  64.02  189.57
  -1  -7   2 17590.0   404.6   1-0.69479 0.56728-0.37516-0.32024-0.61362 0.75871  0 115.92 297.21   74.02 115.69 297.06   74.07
  -1  -7   2 18774.6   481.1   2-0.21516 0.08770-0.13371-0.56235 0.96738-0.82224  0 487.30 428.55   28.38 487.47 428.59   28.41
  -1  -7   2 20292.3   440.8   2 0.13181-0.25932-0.56819-0.12828-0.81227 0.95723  0 216.73  71.80  166.27 216.59  71.98  166.27
  -1   7  -2 18794.3   486.7   2 0.10361-0.23110 0.19091 0.50572-0.97612 0.83117  0 471.05 440.47  212.17 471.23 440.39  212.00
  -1   7  -2 20082.5   446.8   2-0.23946 0.11205 0.50388 0.19203 0.82992-0.97497  0 203.11  80.96  349.83 203.07  81.19  350.01
  -1   7   2 17535.3   385.3   1-0.31011 0.18262 0.48792 0.20724-0.81595 0.96110  0 477.36  80.00   16.28 477.36  80.39   16.33
  -1   7   2 21670.3   457.2   2-0.23409 0.10663 0.13109 0.56497 0.96334-0.81819  0 191.13  90.15   13.12 191.07  90.28   13.14
  -1   7   2 18432.8   498.8   2 0.04990-0.17739 0.55673 0.13989-0.82919 0.97415  0 454.85 450.47  235.00 455.06 450.38  234.96
   1  -7  -2 16415.7   338.2   1-0.69465 0.82216-0.37364-0.32176-0.61469 0.46961  0 161.96 396.17   73.99 162.08 395.92   73.96
   1  -7  -2 19301.3   483.5   2-0.15364 0.28114-0.57098-0.12538 0.80646-0.95144  0 421.74 465.38   55.55 422.04 465.29   55.58
   1  -7  -2 19838.2   438.8   2 0.13003-0.00252-0.14710-0.54937-0.98054 0.83558  0 170.04 110.29  192.49 170.00 110.39  192.48
   1  -7   2 16231.7   370.0   1-0.68676 0.81427-0.58925-0.10615-0.42562 0.57070  0 132.09 348.84   90.40 132.18 348.63   90.44
   1  -7   2 20604.2   496.2   2-0.20690 0.33436-0.21363-0.48243 0.95475-0.80961  0 404.17 471.07   32.99 404.42 471.03   33.08
   1  -7   2 21681.8   455.0   2 0.13360-0.00609-0.52543-0.17104-0.84029 0.98525  0 160.28 121.49  169.15 160.20 121.55  169.19
   1   7  -2 19668.5   482.1   2 0.10785 0.01965 0.15085 0.54578-0.98266 0.83770  0 385.39 475.57  209.61 385.73 475.40  209.67
   1   7  -2 19686.5   428.1   2-0.23651 0.36391 0.58043 0.11588 0.77920-0.92420  0 150.81 133.92  344.74 150.75 134.00  344.75
   1   7   2 21163.4   435.8   2-0.23767 0.36513 0.22112 0.47493 0.94584-0.80070  0 142.66 146.29    7.99 142.65 146.35    7.86
   1   7   2 19153.7   475.2   2 0.05305 0.07444 0.54012 0.15650-0.83991 0.98487  0 367.26 478.52  233.74 367.26 478.33  233.81
  -1  -7  -3 486.807 129.945   1-0.61420 0.48670-0.03408-0.66131-0.78841 0.57078  0 127.24 353.34   51.61 127.32 353.34   51.51
  -1  -7  -3 637.670 155.151   2 0.12803-0.25554-0.10955-0.58692-0.98570 0.76826  0 230.47  55.87  194.55 230.44  55.61  194.67
  -1  -7   3 557.305 129.224   1-0.69830 0.57079-0.44169-0.25371-0.56328 0.78091  0 108.00 286.63   78.63 107.67 286.65   78.85
  -1  -7   3 411.445 214.368   2-0.22267 0.09521-0.04842-0.64764 0.97369-0.75598  0 491.26 440.63   23.57 491.01 440.36   23.47
  -1  -7   3 633.764 152.445   2 0.12687-0.25438-0.65079-0.04568-0.74859 0.96603  0 209.01  67.55  159.87 209.19  67.94  160.28
  -1   7  -3 671.064 225.972   2 0.11214-0.23963 0.10605 0.59057-0.98802 0.77058  0 481.83 446.21  206.89 482.27 446.41  207.06
  -1   7  -3 935.204 168.343   2-0.23583 0.10842 0.59147 0.10485 0.77107-0.98856  0 202.24  72.82  343.73 202.01  72.86  343.96
  -1   7   3 567.042 171.607   1-0.21069 0.08320 0.59713 0.09802-0.77398 0.99170  0 471.73  63.35    7.63 471.67  63.25    7.54
  -1   7   3 697.100 157.293   2-0.22935 0.10189 0.04767 0.64839 0.97218-0.75446  0 183.94  87.24   17.58 183.92  87.04   17.94
  -1   7   3 618.763 231.616   2 0.03282-0.16031 0.63962 0.05700-0.76799 0.98542  0 457.29 461.55  240.54 457.23 461.49  240.96
   1  -7  -3 454.374 113.238   1-0.68775 0.81525-0.31483-0.38057-0.65413 0.43650  0 165.36 410.42   69.68 165.52 410.32   69.89
   1  -7  -3 464.269 215.463   2-0.13700 0.26450-0.65183-0.04453 0.74589-0.96336  0 431.86 472.54   61.50 432.02 472.60   61.46
   1  -7  -3 667.966 152.302   2 0.12523 0.00228-0.06177-0.63469-0.99020 0.77276  0 168.11 102.38  197.46 168.15 102.36  197.42
   1  -7   3 642.797 135.286   1-0.67628 0.80378-0.63454-0.06086-0.37417 0.59180  0 120.82 338.41   94.32 120.78 338.35   94.41
   1  -7   3 555.087 216.512   2-0.21547 0.34293-0.13050-0.56555 0.96775-0.75004  0 404.89 480.90   27.96 404.96 481.30   28.22
   1  -7   3 694.307 150.011   2 0.12932-0.00181-0.61341-0.08305-0.77910 0.99654  0 153.17 119.29  162.88 153.29 119.36  163.04
   1   7  -3 381.174 209.545   2 0.11591 0.01158 0.06331 0.63332-0.99124 0.77381  0 394.56 483.47  204.54 395.07 483.49  204.59
   1   7  -3 745.519 151.777   2-0.23106 0.35847 0.65948 0.03683 0.71533-0.93282  0 148.17 125.80  339.18 148.28 125.98  338.91
   1   7   3 725.163 142.169   2-0.23430 0.36176 0.13554 0.56051 0.96267-0.74495  0 136.14 144.90   12.56 135.89 144.80   12.88
   1   7   3 577.389 198.826   2 0.03499 0.09251 0.62973 0.06690-0.77603 0.99346  0 366.54 487.53  240.39 366.73 487.84  240.21
  -1  -7  -4  44.546 108.813   1-0.59108 0.46359 0.02520-0.72035-0.80622 0.51593  0 124.05 366.52   47.55 123.85 366.84   47.72
  -1  -7  -4 234.592 143.832   2 0.12315-0.25066-0.02988-0.66659-0.99194 0.70202  0 228.77  43.66  198.86 228.78  44.37  199.26
  -1  -7   4 127.476 122.010   1-0.69707 0.56956-0.50465-0.19074-0.50933 0.79951  0  97.81 275.86   83.42  97.71 276.12   83.59
  -1  -7   4 198.932 218.101   2-0.22818 0.10072 0.02744-0.72349 0.97323-0.68295  0 497.32 455.78   19.08 497.45 455.93   19.11
  -1  -7   4 208.630 145.708   2 0.12001-0.24752-0.72468 0.02822-0.67855 0.96847  0 200.49  61.33  153.88 200.13  61.53  154.42
  -1   7  -4 144.327 226.853   2 0.11869-0.24619 0.02898 0.66765-0.99251 0.70260  0 496.50 455.92  202.57 496.76 456.20  202.62
  -1   7  -4-157.307 138.018   2-0.23007 0.10266 0.67146 0.02486 0.70442-0.99441  0 199.62  62.18  338.17 199.51  62.00  337.97
  -1   7   4  74.492 138.372   2-0.22421 0.09675-0.02710 0.72315 0.97417-0.68388  0 174.59  81.52   22.28 174.97  81.63   22.24
  -1   7   4 101.247 231.930   2 0.01514-0.14263 0.71427-0.01764-0.69971 0.98962  0 462.26 476.85  245.88 461.93 476.53  246.84
   1  -7  -4 140.592 101.395   1-0.67778 0.80529-0.25670-0.43870-0.68899 0.39882  0 167.16 426.45   65.43 167.22 426.28   65.98
   1  -7  -4 112.682 225.673   2-0.11982 0.24732-0.72470 0.02835 0.67856-0.96852  0 444.78 483.62   67.10 444.77 483.77   67.23
   1  -7  -4 233.475 141.058   2 0.11980 0.00769 0.01474-0.71137-0.99269 0.70278  0 164.67  92.06  201.82 164.51  91.93  201.80
   1  -7   4   1.119 108.474   1-0.66297 0.79047-0.67586-0.01954-0.32201 0.61218  0 107.66 328.57   98.58 107.73 328.33   98.30
   1  -7   4 -37.274 212.357   2-0.22214 0.34960-0.05493-0.64113 0.97347-0.68318  0 407.48 495.82   24.13 407.38 495.45   23.85
   1  -7   4  17.106 127.492   2 0.12327 0.00424-0.69326-0.00320-0.71007 0.99999  0 144.01 115.14  156.49 144.44 115.21  156.98
   1   7  -4  49.586 216.304   2 0.12192 0.00557-0.01502 0.71165-0.99243 0.70252  0 406.62 495.31  200.45 406.69 495.43  200.09
   1   7  -4  30.811 131.276   2-0.22413 0.35153 0.73006-0.03374 0.64558-0.93557  0 143.76 115.71  333.41 144.01 115.83  333.19
   1   7   4 255.228 130.481   2-0.22994 0.35740 0.05717 0.63889 0.97152-0.68124  0 127.29 141.58   17.46 127.12 141.48   17.40
   1   7   4 252.718 209.160   2 0.01616 0.11133 0.71023-0.01361-0.70378 0.99369  0 368.16 501.22  246.58 367.71 501.27  246.51
  -1  -7  -5  5857.0   267.1   1-0.56817 0.44068 0.07786-0.77301-0.81922 0.45635  0 118.31 381.85   44.32 118.23 381.65   44.35
  -1  -7  -5  7142.2   338.7   2 0.11779-0.24528 0.04036-0.73699-0.99222 0.62983  0 225.73  29.75  203.31 225.60  29.88  203.28
  -1  -7   5  5583.0   281.7   1-0.69111 0.56360-0.56340-0.13199-0.45271 0.81543  0  85.90 265.37   88.07  85.67 265.30   88.28
  -1  -7   5  6655.4   341.5   2 0.11120-0.23873-0.78881 0.09185-0.60449 0.96673  0 189.38  52.69  148.72 189.18  52.68  148.77
  -1   7  -5  5728.8   327.5   2-0.22275 0.09535 0.74235-0.04603 0.63190-0.99438  0 195.45  48.07  331.86 195.39  48.32  332.13
  -1   7   5  7074.0   340.1   2-0.21904 0.09158-0.09220 0.78826 0.97135-0.60849  0 164.21  73.97   26.00 164.12  74.01   26.00
  -1   7   5  5200.0   439.3   2-0.00270-0.12475 0.77953-0.08293-0.62636 0.98872  0 469.05 495.86  252.54 469.22 495.86  252.57
   1  -7  -5  5045.4   225.1   1-0.66561 0.79311-0.20116-0.49423-0.71868 0.35596  0 167.03 444.63   62.25 167.12 444.27   62.30
   1  -7  -5  5847.9   337.6   1-0.01852 0.14619-0.78184 0.08618 0.62321-0.98550  0 471.10 494.92  168.41 471.01 494.84  168.41
   1  -7  -5  6572.7   445.9   2-0.10234 0.22984-0.78854 0.09218 0.60641-0.96885  0 460.47 499.14   72.71 460.70 499.20   72.85
   1  -7  -5  6510.8   330.5   2 0.11432 0.01317 0.08173-0.77835-0.99008 0.62769  0 159.23  79.01  205.71 159.16  79.11  205.66
   1  -7   5  5548.4   282.8   1-0.64667 0.77432-0.71324 0.01769-0.27037 0.63255  0  93.17 318.60  102.07  92.99 318.46  102.09
   1  -7   5  6091.7   319.9   2 0.11533 0.01218-0.76363 0.06717-0.63527 0.99767  0 133.63 109.21  151.06 133.54 109.13  151.07
   1   7  -5  5917.5   311.0   2-0.21584 0.34325 0.79139-0.09507 0.57194-0.93442  0 138.02 103.53  327.74 137.85 103.49  327.66
   1   7   5  5794.6   289.9   2-0.22532 0.35278-0.01232 0.70838 0.97421-0.61135  0 116.50 136.37   21.31 116.15 136.40   21.39
  -1  -7  -6  7782.2   304.6   1-0.54666 0.41917 0.12340-0.81855-0.82821 0.39277  0 110.43 398.45   41.40 110.35 398.22   41.43
  -1  -7  -6  9074.3   395.2   2 0.11262-0.24011 0.10075-0.79738-0.98852 0.55365  0 221.16  12.00  206.83 221.00  12.02  206.76
  -1  -7   6  7599.9   326.6   1-0.68066 0.55316-0.61752-0.07788-0.39417 0.82943  0  71.68 254.05   93.09  71.33 253.94   92.89
  -1  -7   6  8706.3   390.2   2 0.10158-0.22910-0.84337 0.14641-0.52764 0.96233  0 176.46  41.11  143.31 176.32  41.26  143.33
  -1   7  -6  8130.3   373.7   2-0.21392 0.08652 0.80354-0.10722 0.55549-0.99046  0 189.79  31.36  326.54 189.60  31.50  326.46
  -1   7   6  9266.6   394.2   2-0.21387 0.08641-0.14737 0.84342 0.96568-0.53025  0 151.25  63.94   29.02 151.15  64.01   29.20
   1  -7  -6  7476.5   253.4   1-0.65223 0.77973-0.15014-0.54526-0.74300 0.30774  0 165.17 465.17   59.03 165.24 464.88   58.98
   1  -7  -6  8585.4   384.4   2 0.10905 0.01844 0.13870-0.83533-0.98431 0.54945  0 152.05  63.46  208.99 151.90  63.54  208.96
   1  -7   6  6944.6   315.8   1-0.62818 0.75582-0.74686 0.05131-0.21815 0.65277  0  76.35 308.59  105.92  76.14 308.49  105.80
   1  -7   6  8057.5   359.6   2 0.10547 0.02206-0.82379 0.12683-0.55699 0.99168  0 120.74 101.11  145.37 120.27 101.10  145.38
   1   7  -6  7983.0   359.8   2-0.20642 0.33382 0.84336-0.14704 0.49612-0.93110  0 129.59  88.58  322.40 129.62  88.67  322.34
   1   7   6  8956.7   362.6   2-0.22077 0.34822-0.07214 0.76820 0.97266-0.53723  0 103.25 129.55   25.21 102.81 129.54   24.84
  -1  -7  -7  1083.9   199.7   1-0.52753 0.40004 0.16139-0.85654-0.83407 0.32605  0 100.21 417.20   39.30 100.05 417.14   38.97
  -1  -7   7 797.339 179.311   1-0.66622 0.53871-0.66668-0.02871-0.33419 0.84200  0  54.27 241.89   97.32  54.43 241.80   97.41
  -1  -7   7 914.065 226.651   2 0.09119-0.21871-0.88853 0.19157-0.44967 0.95680  0 161.18  26.62  138.24 161.22  27.05  138.14
  -1   7  -7 963.168 223.017   2-0.20385 0.07645 0.85499-0.15868 0.47690-0.98437  0 182.00  10.93  321.49 181.94  10.92  321.04
  -1   7   7 886.874 226.744   2-0.20914 0.08168-0.19289 0.88894 0.95867-0.45067  0 136.04  51.76   32.12 135.70  51.46   31.86
   1  -7  -7 926.424 151.378   1-0.63879 0.76629-0.10538-0.59001-0.76213 0.25433  0 161.59 489.58   56.43 161.55 488.95   56.08
   1  -7  -7 958.832 223.374   2 0.10415 0.02335 0.18590-0.88252-0.97703 0.46969  0 142.69  44.81  211.99 142.51  44.78  211.71
   1  -7   7 874.173 184.367   1-0.60761 0.73525-0.77672 0.08117-0.16586 0.67291  0  56.89 298.28  109.49  56.86 298.21  109.44
   1  -7   7 840.918 202.159   2 0.09481 0.03271-0.87404 0.17707-0.47652 0.98365  0 104.58  90.83  139.62 104.45  90.89  139.90
   1   7  -7 840.675 205.788   2-0.19612 0.32352 0.88633-0.19001 0.41948-0.92695  0 119.10  70.88  317.26 119.13  71.00  317.26
   1   7   7  1046.1   200.6   2-0.21624 0.34370-0.12228 0.81833 0.96865-0.46065  0  87.12 120.70   28.05  86.70 120.78   27.74
  -1  -7  -8  8648.3   374.9   1-0.51137 0.38388 0.19171-0.88686-0.83770 0.25711  0  87.16 439.41   37.34  87.06 439.12   36.99
  -1  -7   8  8093.2   366.5   1-0.64798 0.52034-0.71054 0.01499-0.27433 0.85383  0  34.96 228.69  101.72  34.70 228.58  101.81
  -1  -7   8  8492.8   466.9   2 0.08013-0.20765-0.92489 0.22793-0.37170 0.95128  2 143.56   9.52  133.26 143.34   9.52  133.18
  -1   7   8  9573.0   468.2   2-0.20514 0.07768-0.22936 0.92542 0.95148-0.37091  0 117.81  36.02   33.98 117.31  35.96   34.00
   1  -7  -8  9363.4   466.6   2 0.09989 0.02760 0.22392-0.92055-0.96947 0.38965  0 130.65  22.16  213.80 130.60  22.19  213.94
   1  -7   8  7508.4   377.8   1-0.58489 0.71254-0.80308 0.10753-0.11385 0.69335  0  34.74 287.48  113.14  34.61 287.42  113.03
   1  -7   8  8865.0   436.6   2 0.08362 0.04391-0.91468 0.21771-0.39544 0.97502  0  86.07  78.36  134.64  85.47  78.30  134.67
   1   7  -8  7700.8   424.2   2-0.18524 0.31264 0.92090-0.22458 0.34297-0.92294  0 106.27  49.80  312.46 105.92  49.94  312.39
   1   7   8  9583.3   425.5   2-0.21232 0.33978-0.16296 0.85901 0.96352-0.38294  0  67.69 110.00   29.99  67.30 109.97   30.10
  -1  -8   0  6332.7   294.3   1-0.68506 0.55756-0.29769-0.49705-0.66488 0.66488  0  93.80 336.09   68.82  93.65 335.87   68.73
  -1  -8   0  6665.0   337.0   2 0.13569-0.26320-0.42993-0.36603-0.89261 0.89261  0 206.28  35.11  175.45 206.19  35.18  175.45
  -1   8   0  6426.8   505.8   2 0.07351-0.20100 0.42005 0.37609-0.90452 0.90452  0 494.53 492.23  226.18 494.78 492.24  225.91
   1  -8   0  5603.8   280.5   1-0.69603 0.82354-0.51927-0.27547-0.49588 0.49588  0 119.81 393.30   84.99 119.69 392.98   84.73
   1  -8   0  7676.5   355.0   2 0.13597-0.00846-0.38641-0.40955-0.91225 0.91225  0 144.25  88.35  178.29 144.29  88.43  178.18
   1   8   0  7831.6   341.9   2-0.24086 0.36826 0.44645 0.34887 0.86178-0.86178  0 122.28 118.33  353.74 122.00 118.38  353.80
  -1  -8  -1  5624.3   278.1   1-0.67411 0.54661-0.23896-0.55578-0.69891 0.62636  0  96.55 348.13   65.18  96.41 347.95   64.79
  -1  -8  -1  6504.4   336.3   2 0.13568-0.26319-0.34879-0.44717-0.92733 0.85485  0 209.20  31.48  180.53 209.10  31.54  180.49
  -1  -8   1  5307.3   280.7   1-0.69313 0.56562-0.35687-0.43787-0.62627 0.69882  0  89.07 324.53   73.13  88.89 324.38   72.80
  -1  -8   1  6555.9   340.0   2 0.13409-0.26160-0.51033-0.28563-0.84946 0.92194  0 201.85  35.99  170.27 201.68  36.18  170.20
  -1   8  -1  6235.8   496.3   2 0.08539-0.21288 0.33999 0.45615-0.93654 0.86407  0 500.86 491.60  221.18 501.07 491.69  220.92
  -1   8  -1  6230.9   337.7   2-0.24078 0.11337 0.45097 0.34434 0.85945-0.93197  0 176.68  54.54  353.55 176.73  54.67  353.50
  -1   8   1  6224.0   338.4   2-0.23958 0.11212 0.28830 0.50719 0.92708-0.85451  0 170.68  59.67    4.01 170.55  59.70    3.85
  -1   8   1  5002.3   498.3   2 0.06030-0.18780 0.49989 0.29625-0.86399 0.93646  0 491.27 496.66  231.32 491.57 496.75  231.09
   1  -8  -1  4128.5   248.9   1-0.69815 0.82566-0.47393-0.32081-0.53663 0.46409  0 126.77 406.42   81.30 126.69 406.32   81.24
   1  -8  -1  6293.7   335.7   2 0.13509-0.00758-0.30398-0.49198-0.94305 0.87057  0 145.98  84.25  183.28 145.99  84.34  183.21
   1  -8   1  4958.8   263.2   1-0.69114 0.81865-0.56314-0.23160-0.45298 0.52553  0 111.19 380.99   88.24 111.09 380.68   88.26
   1  -8   1  6503.1   339.8   2 0.13514-0.00763-0.46931-0.32665-0.87263 0.94511  0 140.80  90.37  173.18 140.74  90.37  172.91
   1   8  -1  6137.6   324.3   2-0.23902 0.36642 0.52413 0.27166 0.81741-0.88991  0 123.48 113.91  348.69 123.08 113.97  348.66
  -1  -8  -2 204.963 139.743   1-0.66079 0.53328-0.18189-0.61285-0.72820 0.58312  0  97.23 360.76   61.50  97.17 360.79   61.04
  -1  -8  -2  -3.036 164.457   2 0.13437-0.26188-0.26924-0.52672-0.95365 0.80869  0 210.25  24.52  185.49 210.48  25.15  185.29
  -1  -8   2  25.114 141.888   1-0.69752 0.57002-0.41551-0.37923-0.58379 0.72888  0  82.17 313.40   77.11  82.17 313.19   76.95
  -1  -8   2 -78.710 163.112   2 0.13082-0.25832-0.58775-0.20821-0.79839 0.94335  0 195.79  34.71  164.62 195.56  34.57  164.89
  -1   8  -2  95.632 165.298   2-0.23872 0.11131 0.53120 0.26459 0.81292-0.95791  0 176.93  47.88  347.85 177.19  48.21  348.18
  -1   8   2  65.888 162.214   2-0.23731 0.10985 0.21012 0.58537 0.94844-0.80329  0 164.90  58.60    8.58 164.84  58.79    8.52
   1  -8  -2 -40.541 122.077   1-0.69797 0.82547-0.42800-0.36674-0.57416 0.42907  0 131.91 421.34   78.33 132.14 420.95   77.85
   1  -8  -2 -72.647 153.059   2 0.13327-0.00576-0.22423-0.57173-0.96538 0.82042  0 145.84  78.34  187.61 145.86  78.00  187.97
   1  -8   2  41.436 122.768   1-0.68353 0.81104-0.60504-0.18970-0.40829 0.55338  0 101.08 368.79   92.18 100.79 369.20   91.79
   1  -8   2 -57.848 152.435   2 0.13266-0.00515-0.55028-0.24568-0.82438 0.96934  0 134.83  89.98  166.87 135.28  90.23  167.50
   1   8  -2 270.601 157.461   2-0.23541 0.36282 0.59851 0.19728 0.76575-0.91074  0 122.36 107.58  343.59 122.33 107.58  343.45
   1   8   2-175.592 135.238   2-0.23963 0.36709 0.29057 0.50492 0.92636-0.78122  0 113.90 121.09    3.42 113.69 120.97    3.72
  -1  -8  -3  3608.0   255.5   1-0.64567 0.51817-0.12764-0.66710-0.75287 0.53524  0  95.97 374.84   57.52  95.92 374.68   57.52
  -1  -8  -3  3967.0   328.0   2 0.13205-0.25956-0.19347-0.60249-0.97218 0.75474  0 210.47  15.75  189.98 210.31  15.78  189.78
  -1  -8   3  3924.8   267.8   1-0.69818 0.57067-0.47264-0.32210-0.53774 0.75537  0  73.48 302.27   81.32  73.38 302.16   81.14
  -1  -8   3  3152.7   304.2   2 0.12611-0.25362-0.66033-0.13563-0.74031 0.95775  0 187.85  30.43  159.58 187.72  30.35  159.55
  -1   8  -3  4067.3   332.3   2-0.23486 0.10745 0.60758 0.18821 0.75874-0.97623  0 176.25  39.17  342.70 176.10  39.16  342.80
  -1   8   3  4050.2   320.2   2-0.23436 0.10690 0.13678 0.65871 0.96248-0.74476  0 157.41  55.66   12.66 157.21  55.54   12.81
   1  -8  -3  3105.3   232.0   1-0.69539 0.82289-0.38233-0.41241-0.60849 0.39086  0 135.90 437.57   74.58 135.98 437.21   74.58
   1  -8  -3  4174.7   318.0   2 0.13013-0.00262-0.14928-0.64668-0.98020 0.76276  0 143.95  69.22  192.38 143.89  69.32  192.36
   1  -8   3  3119.6   250.0   1-0.67339 0.80089-0.64457-0.15017-0.36204 0.57968  0  88.95 358.56   95.31  88.74 358.29   95.32
   1  -8   3  3929.1   312.1   2 0.12850-0.00100-0.62717-0.16879-0.76821 0.98565  0 127.88  87.88  162.25 127.83  88.00  162.04
   1   8  -3  3811.1   312.2   2-0.23036 0.35777 0.66806 0.12772 0.70755-0.92503  0 119.85  99.05  338.30 119.63  99.08  338.24
   1   8   3  4070.8   294.1   2-0.23752 0.36498 0.21665 0.57884 0.94691-0.72920  0 106.67 119.54    8.28 106.44 119.57    8.12
  -1  -8  -4 164.966 141.180   1-0.62955 0.50204-0.07729-0.71745-0.77311 0.48293  0  92.31 389.78   54.45  92.54 389.91   54.28
  -1  -8   4 128.114 142.723   1-0.69534 0.56784-0.52731-0.26743-0.48831 0.77849  0  62.25 291.04   86.10  62.43 291.08   85.37
  -1  -8   4  97.478 189.034   2 0.11979-0.24730-0.72660-0.06935-0.67653 0.96645  0 177.59  22.98  153.87 178.05  23.47  154.26
  -1   8  -4-210.740 186.073   2-0.22944 0.10203 0.67849 0.11730 0.69786-0.98784  0 173.10  27.11  338.18 173.28  27.22  337.42
  -1   8   4 518.685 196.442   2-0.23071 0.10325 0.06980 0.72569 0.97052-0.68023  0 148.06  50.69   17.02 147.62  49.92   16.67
   1  -8  -4 120.604 131.341   1-0.69099 0.81849-0.33816-0.45658-0.63890 0.34872  0 138.11 455.62   71.45 138.17 455.68   71.50
   1  -8  -4 148.311 183.819   2 0.12640 0.00111-0.08062-0.71534-0.98870 0.69878  0 140.61  57.91  196.38 140.01  58.08  196.34
   1  -8   4  33.040 132.394   1-0.66080 0.78831-0.68145-0.11329-0.31459 0.60476  0  75.36 348.18   98.56  74.80 347.82   98.84
   1  -8   4  69.197 163.792   2 0.12279 0.00472-0.69821-0.09774-0.70528 0.99520  0 118.14  83.45  156.60 118.23  83.64  156.59
   1   8  -4 184.938 177.841   2-0.22396 0.35136 0.73147 0.06432 0.64404-0.93403  0 115.09  88.25  334.19 114.87  88.27  333.07
   1   8   4 105.558 159.095   2-0.23483 0.36229 0.14797 0.64752 0.96071-0.67042  0  96.83 116.22   12.44  96.91 116.32   12.15
  -1  -8  -5 159.601 155.899   1-0.61335 0.48584-0.03179-0.76295-0.78917 0.42646  0  86.86 407.16   52.26  86.93 406.92   51.36
  -1  -8   5 204.688 162.219   1-0.68860 0.56109-0.57909-0.21565-0.43645 0.79917  0  48.90 279.76   89.57  49.07 279.77   89.58
  -1  -8   5 463.292 223.484   2 0.11169-0.23922-0.78553-0.01100-0.60866 0.97090  0 166.19  14.21  149.47 166.19  13.77  149.07
  -1   8  -5 398.067 219.225   2-0.22272 0.09531 0.74266 0.05313 0.63155-0.99403  0 168.48  11.57  331.84 168.62  12.04  332.10
  -1   8   5  62.100 199.790   2-0.22700 0.09954 0.01013 0.78536 0.97384-0.61099  0 135.60  41.62   20.62 135.78  41.77   20.11
   1  -8  -5 301.530 147.318   1-0.68486 0.81237-0.29645-0.49829-0.66564 0.30292  0 138.81 476.76   68.61 138.74 476.69   68.65
   1  -8  -5 398.237 209.598   2 0.12224 0.00525-0.01950-0.77664-0.99231 0.62992  0 134.12  44.33  199.51 133.96  43.86  199.83
   1  -8   5 171.924 156.315   1-0.64555 0.77319-0.71552-0.07939-0.26699 0.62918  0  58.84 337.51  102.44  58.83 337.56  102.33
   1  -8   5 439.097 195.252   2 0.11552 0.01199-0.76219-0.03376-0.63696 0.99936  0 105.98  76.95  150.86 106.30  77.13  151.20
   1   8  -5 275.958 186.924   2-0.21639 0.34380 0.78790 0.00789 0.57653-0.93901  0 108.11  75.16  326.84 107.95  74.99  327.99
   1   8   5 201.709 170.882   2-0.23162 0.35908 0.08582 0.70967 0.96901-0.60616  0  85.42 111.39   16.14  84.86 111.13   15.75
  -1  -8  -6 565.149 192.396   1-0.59795 0.47046 0.00846-0.80292-0.80149 0.36604  0  78.79 426.71   49.05  78.97 426.36   48.80
  -1  -8   6 672.323 180.758   1-0.67818 0.55068-0.62749-0.16725-0.38253 0.81779  0  33.29 267.96   93.63  32.99 267.94   93.77
  -1   8   6 656.106 240.426   2-0.22320 0.09575-0.04171 0.83720 0.97388-0.53845  0 121.27  30.83   23.02 121.42  30.94   23.09
   1  -8  -6 664.626 177.482   1-0.67822 0.80573-0.25895-0.53579-0.68772 0.25245  2 137.67 501.50   66.27 137.70 501.36   66.13
   1  -8  -6 869.162 243.714   2 0.11830 0.00919 0.03396-0.83011-0.99240 0.55753  0 125.86  26.74  202.55 125.80  26.47  202.91
   1  -8   6 924.175 190.337   1-0.62824 0.75588-0.74676-0.04815-0.21832 0.65294  0  40.51 327.15  105.66  40.30 327.33  105.79
   1  -8   6 858.314 239.161   2 0.10644 0.02108-0.81830 0.02177-0.56485 0.99954  0  91.69  68.50  146.22  91.54  68.35  145.93
   1   8  -6 583.483 216.002   2-0.20774 0.33514 0.83697-0.04118 0.50629-0.94127  0  98.56  58.52  322.84  98.57  58.81  323.03
   1   8   6 873.636 212.080   2-0.22843 0.35588 0.03110 0.76439 0.97306-0.53764  0  70.57 104.13   19.06  70.01 104.00   18.90
  -1  -9   0  10.113 164.179   1-0.69317 0.56567-0.35728-0.53680-0.62599 0.62599  0  55.28 357.43   72.47  54.63 358.00   72.82
  -1   9   0  -9.574 215.990   2-0.24116 0.11375 0.42210 0.47263 0.87389-0.87389  0 143.26  19.05  354.84 142.75  19.18  355.36
   1  -9   0 -49.867 156.958   1-0.69230 0.81980-0.55486-0.33922-0.46136 0.46136  0  83.26 421.26   87.44  83.28 421.65   87.58
   1  -9   0   9.502 209.060   2 0.13560-0.00809-0.43750-0.45796-0.88894 0.88894  0 113.96  49.83  175.20 113.90  49.77  174.97
   1   9   0 -11.674 192.728   2-0.23985 0.36725 0.49059 0.40414 0.83773-0.83773  0  86.81  87.72  351.21  86.74  87.59  350.90
  -1  -9  -1 209.005 166.945   1-0.68663 0.55912-0.30771-0.58637-0.65868 0.58613  0  57.68 371.35   69.44  57.85 371.43   69.41
  -1  -9   1 467.873 178.694   1-0.69712 0.56962-0.40752-0.48656-0.58987 0.66241  0  49.11 345.42   76.32  49.27 345.29   76.37
  -1   9  -1 414.857 229.608   2-0.23978 0.11238 0.49302 0.40171 0.83632-0.90885  0 145.73  15.33  350.59 145.12  14.67  350.74
   1  -9  -1 241.525 172.960   1-0.69613 0.82364-0.51802-0.37606-0.49704 0.42450  0  90.77 437.18   85.30  90.76 436.74   84.64
   1  -9  -1 412.838 227.961   2 0.13588-0.00837-0.36587-0.52959-0.92069 0.84821  0 115.86  45.36  179.52 115.72  45.16  179.45
   1  -9   1 189.405 171.065   1-0.68637 0.81387-0.59131-0.30277-0.42338 0.49593  0  74.02 407.91   90.63  73.98 407.96   90.61
   1  -9   1 314.708 215.752   2 0.13412-0.00661-0.50944-0.38601-0.84999 0.92247  0 109.45  51.67  170.37 109.97  51.98  170.26
   1   9  -1 199.579 201.868   2-0.23764 0.36504 0.55784 0.33742 0.79520-0.86769  0  87.16  82.54  346.56  87.80  82.67  346.34
   1   9   1 235.819 197.654   2-0.24115 0.36856 0.42291 0.47182 0.87349-0.80097  0  82.61  89.88  354.81  83.29  90.31  355.31
  -1  -9  -2  1395.1   225.0   1-0.67836 0.55085-0.25963-0.63445-0.68733 0.54225  0  59.00 385.81   65.98  58.84 386.02   66.17
  -1  -9   2  1435.2   233.6   1-0.69831 0.57080-0.45764-0.43645-0.55040 0.69548  0  41.58 333.11   80.27  41.66 333.12   80.02
  -1   9   2  1570.8   268.7   2-0.23949 0.11203 0.28360 0.61132 0.92855-0.78341  0 131.97  19.44    3.85 132.24  19.71    4.14
   1  -9  -2  1334.3   213.6   1-0.69796 0.82546-0.48140-0.41268-0.53020 0.38511  0  96.38 453.92   81.74  96.56 453.59   81.81
   1  -9  -2  1678.6   272.5   2 0.13495-0.00744-0.29626-0.59920-0.94553 0.80057  0 116.04  38.17  183.57 115.47  38.01  183.67
   1  -9   2  1045.7   199.4   1-0.67835 0.80585-0.62684-0.26724-0.38329 0.52838  0  62.92 395.32   94.20  62.77 395.43   93.71
   1  -9   2  1300.4   252.1   2 0.13122-0.00371-0.58000-0.31545-0.80397 0.94894  0 104.11  51.91  165.38 103.89  51.85  165.44
   1   9  -2  1487.8   255.4   2-0.23384 0.36124 0.62265 0.27261 0.74674-0.89173  0  87.66  76.08  342.21  86.80  75.61  341.69
  -1  -9  -3 688.865 206.417   1-0.66874 0.54124-0.21393-0.68015-0.71205 0.49442  0  57.78 401.51   62.90  57.55 402.00   63.14
  -1  -9   3 795.706 194.290   1-0.69694 0.56943-0.50675-0.38734-0.50743 0.72506  0  31.97 321.18   83.59  31.68 321.24   83.76
  -1   9   3 887.438 255.529   2-0.23760 0.11014 0.21895 0.67597 0.94636-0.72865  0 123.74  15.76    7.68 123.79  16.13    7.98
   1  -9  -3 539.428 187.734   1-0.69836 0.82586-0.44594-0.44815-0.55985 0.34222  0 100.85 472.47   78.88 100.78 472.69   79.17
   1  -9  -3 801.534 253.859   2 0.13346-0.00595-0.23012-0.66533-0.96397 0.74653  0 112.87  27.73  188.21 113.08  28.08  187.62
   1  -9   3 718.527 207.529   1-0.66817 0.79567-0.66102-0.23306-0.34146 0.55909  0  49.51 383.84   97.18  49.57 383.66   96.87
   1  -9   3 496.379 227.660   2 0.12704 0.00047-0.64756-0.24789-0.75135 0.96879  0  95.47  49.17  160.55  95.52  49.32  160.52
   1   9  -3 765.670 246.491   2-0.22893 0.35633 0.68396 0.21130 0.69267-0.91015  0  83.50  66.01  336.61  83.52  66.16  336.99
   1   9   3 759.348 224.373   2-0.23965 0.36711 0.29190 0.60303 0.92594-0.70823  0  70.40  89.54    4.00  69.32  89.17    3.64
  -2   0   0 156443.    838.   1-0.12767-0.12767-0.84054 0.84054 0.52648-0.52648  0 345.57 210.89  159.44 345.62 211.02  159.40
  -2   0   0 178331.    671.   2-0.12749-0.12749-0.69342 0.69342 0.70916-0.70916  0 345.85 211.59   64.74 345.91 211.72   64.68
  -2   0   0 134574.    568.   2-0.12745-0.12745 0.99178-0.99178-0.01169 0.01169  0 360.02 229.87  291.38 359.98 229.95  291.27
  -2   0  -1  10.494  36.885   1-0.25076-0.00452-0.88260 0.88260 0.39766-0.47010  0 357.95 220.56  148.69 358.07 220.44  148.90
  -2   0  -1 7.67674  7.7893   2 0.13409-0.38911-0.25840 0.25840-0.95668 0.88420  0 359.86 223.93  186.85 359.89 223.96  185.94
  -2   0  -1 6.71974  8.0287   2-0.11566-0.13923 0.99025-0.99025-0.07768 0.00520  0 351.59 213.52  288.08 351.73 213.49  287.42
  -2   0   1  23.876  25.715   1-0.37514 0.12016 0.40503-0.40503-0.83380 0.90637  0 264.98 204.41   22.63 265.18 204.67   22.45
  -2   0   1  14.388  20.456   2-0.04292-0.21207-0.94168 0.94168 0.33376-0.26127  0 332.03 199.13   91.03 332.18 199.30   91.18
  -2   0   1  14.117  20.093   2-0.13261-0.12229 0.99100-0.99100 0.01809 0.05438  0 368.82 246.57  293.08 368.73 246.69  293.01
   2   0  -1   4.066  17.841   2 0.06359 0.19146-0.96316 0.96316-0.26131 0.18886  0 266.91 312.35  126.46 266.77 312.36  126.41
   2   0  -1   6.088  14.797   2-0.01958 0.27447 0.83273-0.83273-0.55334 0.48087  0 238.03 270.25  258.30 237.97 270.23  257.84
   2   0   1  26.205  30.456   1-0.03500 0.29034-0.79204 0.79204 0.60946-0.53700  0 247.19 291.97  167.41 246.92 292.02  167.05
  -2   0  -2  3936.8   117.3   1-0.33578 0.08050-0.89478 0.89478 0.29432-0.43920  0 372.89 229.95  141.02 372.87 229.99  141.19
  -2   0  -2  4077.2    68.4   2 0.09259-0.34764-0.88313 0.88313-0.45990 0.31500  0 374.82 236.55  138.92 374.81 236.57  138.81
  -2   0  -2  3604.9    65.1   2-0.11151-0.14339 0.98867-0.98867-0.10050-0.04444  0 343.68 196.60  286.02 343.66 196.72  286.09
  -2   0   2  3670.3    77.8   1-0.61628 0.36127-0.03971 0.03971-0.78653 0.93162  0 267.97 194.51   51.94 268.14 194.58   51.87
  -2   0   2  4007.1    96.9   2-0.02629-0.22870-0.96776 0.96776 0.25049-0.10551  0 318.72 186.69   96.16 318.82 186.84   96.27
  -2   0   2  3566.9    92.4   2-0.13860-0.11629 0.98894-0.98894 0.05286 0.09209  0 378.07 263.72  294.67 377.97 263.74  295.03
   2   0  -2  3728.7    78.6   1-0.29213 0.54711 0.50894-0.50894-0.80972 0.66457  0 333.69 324.72   14.74 333.73 324.61   14.70
   2   0  -2  3987.3    94.2   2 0.05416 0.20089-0.97797 0.97797-0.20158 0.05669  0 279.12 326.33  122.96 279.20 326.20  122.84
   2   0  -2  3297.9    83.8   2-0.05450 0.30939 0.91816-0.91816-0.39244 0.24749  0 230.24 254.69  268.44 230.11 254.63  268.49
   2   0   2  3984.1   114.0   1-0.12919 0.38452-0.84122 0.84122 0.52503-0.38011  0 235.00 282.75  159.17 234.82 282.76  159.27
   2   0   2  4076.3    61.6   2-0.05537 0.31036-0.91739 0.91739 0.39411-0.24913  0 233.64 280.20   87.29 233.52 280.14   87.38
   2   0   2  1954.7    46.0   2-0.22964 0.48445 0.67625-0.67625 0.69997-0.55498  0 255.72 313.12  337.58 255.78 313.02  337.60
  -2   0  -3  -6.040  50.982   1-0.39842 0.14314-0.89297 0.89297 0.20943-0.42675  0 389.27 239.52  135.60 389.54 239.80  135.14
  -2   0  -3   6.353  27.647   2 0.07671-0.33176-0.93422 0.93422-0.34834 0.13100  0 390.57 249.44  131.74 390.65 249.57  131.72
  -2   0  -3  15.062  29.951   2-0.10515-0.14974 0.98527-0.98527-0.13485-0.08257  0 335.81 179.92  284.36 335.83 179.67  284.08
  -2   0   3 -17.049  27.275   1-0.69835 0.44335-0.44566 0.44566-0.56008 0.77771  0 264.74 184.29   79.02 264.77 184.34   79.15
  -2   0   3  -0.697  39.839   2-0.02262-0.23237-0.97252 0.97252 0.23170-0.01423  0 305.56 174.10   96.81 305.60 174.12   97.40
  -2   0   3   0.727  38.681   2-0.14479-0.11011 0.98551-0.98551 0.08838 0.12904  0 388.06 281.33  296.75 387.88 281.39  297.11
   2   0  -3  13.975  29.309   1-0.49685 0.75183 0.21785-0.21785-0.84005 0.62232  0 337.41 336.00   35.12 337.47 335.91   35.27
   2   0  -3  32.963  33.667   2 0.05324 0.20181-0.97919 0.97919-0.19584-0.02150  0 291.60 340.48  122.42 291.65 340.55  122.50
   2   0  -3   3.328  31.581   2-0.06615 0.32104 0.93965-0.93965-0.33568 0.11826  0 222.19 239.42  272.52 222.10 239.37  272.04
   2   0   3 -23.572  34.150   1-0.18200 0.43733-0.86237 0.86237 0.47243-0.25506  0 221.82 273.57  154.45 221.80 273.62  154.83
   2   0   3   7.147  21.669   2-0.03622 0.29121-0.95303 0.95303 0.30070-0.08323  0 220.52 268.21   93.69 220.48 267.89   93.22
   2   0   3   1.851  26.606   2-0.20699 0.46180 0.84061-0.84061 0.50052-0.28304  0 262.85 330.79  322.44 262.84 330.70  322.64
  -2   0  -4 546.657  85.095   1-0.44728 0.19200-0.88388 0.88388 0.13674-0.42649  0 407.95 250.03  130.34 408.12 250.05  130.11
  -2   0  -4 499.068  58.152   2 0.07263-0.32768-0.94427 0.94427-0.32106 0.03127  0 407.76 263.20  130.15 407.76 263.13  130.03
  -2   0  -4 465.944  58.232   2-0.09847-0.15642 0.98044-0.98044-0.17042-0.11947  0 328.13 161.74  282.34 328.13 162.03  281.99
  -2   0   4 379.480  46.808   1-0.66427 0.40926-0.67236 0.67236-0.32663 0.61680  0 256.58 173.52   98.08 256.48 173.72   97.96
  -2   0   4 510.862  72.600   2-0.02354-0.23145-0.97137 0.97137 0.23640 0.05356  0 292.29 160.80   97.30 292.32 161.00   97.12
  -2   0   4 401.024  69.328   2-0.15080-0.10409 0.98070-0.98070 0.12441 0.16548  0 398.40 299.79  298.82 398.59 299.91  299.22
   2   0  -4 382.465  47.861   1-0.60934 0.86434-0.02116 0.02116-0.79263 0.50245  0 346.89 348.58   50.64 346.88 348.52   50.68
   2   0  -4 406.163  66.243   2 0.05527 0.19979-0.97646 0.97646-0.20849-0.08130  2 304.82 355.99  122.82 304.48 355.90  123.25
   2   0  -4 464.984  60.131   2-0.06967 0.32457 0.94544-0.94544-0.31827 0.02838  0 213.65 223.97  272.98 213.66 224.03  273.11
   2   0   4 482.129  72.567   1-0.21034 0.46567-0.87166 0.87166 0.44269-0.15286  0 208.10 264.36  152.38 208.00 264.45  152.42
   2   0   4 499.924  54.267   2-0.03338 0.28837-0.95751 0.95751 0.28645 0.00351  0 207.36 256.45   93.52 207.37 256.39   94.09
   2   0   4 486.932  55.398   2-0.19764 0.45245 0.88063-0.88063 0.43061-0.14062  0 269.28 348.74  318.55 269.36 348.77  317.98
  -2   0  -5  -7.685  76.362   1-0.48712 0.23184-0.87034 0.87034 0.07228-0.43446  0 428.81 261.22  125.42 428.82 261.08  125.69
  -2   0  -5 -14.225  52.048   2 0.07280-0.32785-0.94388 0.94388-0.32217-0.04007  0 426.54 277.55  129.67 426.55 277.50  130.10
  -2   0  -5  -2.858  52.140   2-0.09162-0.16327 0.97417-0.97417-0.20638-0.15598  0 320.51 143.71  278.66 320.47 143.53  279.86
  -2   0   5 -21.161  33.008   1-0.60242 0.34714-0.78327 0.78327-0.15355 0.51573  0 245.85 162.72  110.49 245.52 162.52  110.30
  -2   0   5 -12.138  62.896   2-0.02662-0.22837-0.96731 0.96731 0.25219 0.11026  0 278.92 147.29   96.48 278.81 147.29   96.17
  -2   0   5  -7.540  66.019   2-0.15683-0.09798 0.97449-0.97449 0.16056 0.20192  0 410.03 319.67  300.85 410.28 319.67  301.33
   2   0  -5  -3.068  45.248   1-0.65787 0.91288-0.17077 0.17077-0.73351 0.37080  0 360.01 362.40   60.59 360.08 362.68   60.31
   2   0  -5  48.266  67.181   2 0.05863 0.19642-0.97151 0.97151-0.22963-0.13261  0 317.78 372.58  124.53 317.93 372.61  124.51
   2   0  -5  15.700  47.326   2-0.06939 0.32429 0.94499-0.94499-0.31964-0.04272  0 204.33 208.53  274.21 204.63 208.33  273.02
   2   0   5  69.525  57.562   1-0.22329 0.47863-0.87552 0.87552 0.42849-0.06621  0 193.22 254.94  151.49 193.45 255.13  151.30
   2   0   5  23.989  38.039   2-0.03522 0.29021-0.95463 0.95463 0.29570 0.06675  0 193.67 245.04   93.59 193.71 245.10   93.52
   2   0   5   6.624  49.134   2-0.19444 0.44925 0.89227-0.89227 0.40749-0.04501  0 275.81 368.15  316.47 275.71 367.94  316.49
  -2   0  -6 32866.6   430.8   1-0.52073 0.26545-0.85361 0.85361 0.01358-0.44820  0 451.91 273.24  121.98 452.05 273.17  121.70
  -2   0  -6 34150.0   379.0   2 0.07487-0.32993-0.93884 0.93884-0.33610-0.09859  0 447.30 293.03  131.00 447.54 292.98  130.96
  -2   0  -6 29618.1   356.2   2-0.08463-0.17026 0.96645-0.96645-0.24251-0.19232  0 312.69 123.63  277.75 312.75 123.83  277.70
  -2   0   6 32191.4   301.6   1-0.54228 0.28700-0.83979 0.83979-0.02624 0.46086  0 232.82 150.21  119.00 232.81 150.39  118.99
  -2   0   6 34666.8   431.4   2-0.03093-0.22405-0.96121 0.96121 0.27408 0.16086  0 264.67 132.58   95.00 264.86 132.79   94.84
  -2   0   6 29424.3   398.4   2-0.16267-0.09214 0.96685-0.96685 0.19683 0.23815  0 423.14 341.07  303.55 423.31 341.06  303.49
   2   0  -6 23510.3   265.2   1-0.67766 0.93267-0.25606 0.25606-0.68935 0.25409  0 375.78 378.87   65.99 375.85 378.80   65.93
   2   0  -6 34354.3   425.8   2 0.06267 0.19238-0.96480 0.96480-0.25540-0.17929  0 332.35 391.30  126.06 332.30 391.09  126.05
   2   0  -6 29226.3   387.1   2-0.06701 0.32191 0.94110-0.94110-0.33141-0.10343  0 194.89 192.02  272.23 194.85 192.04  272.30
   2   0   6 32752.3   425.0   1-0.22626 0.48159-0.87634 0.87635 0.42524 0.00951  0 178.09 245.48  150.99 178.05 245.50  151.04
   2   0   6 33737.9   366.5   2-0.03915 0.29414-0.94823 0.94823 0.31517 0.11977  0 179.28 233.82   92.25 179.23 233.80   92.33
   2   0   6 29088.0   346.9   2-0.19422 0.44903 0.89304-0.89304 0.40590 0.02908  0 281.86 388.89  316.38 281.97 388.70  316.38
  -2   0  -7 -83.019  94.366   1-0.54982 0.29454-0.83427 0.83427-0.04098-0.46608  0 478.75 286.94  117.59 478.51 286.74  117.99
  -2   0  -7  24.699  87.059   2 0.07797-0.33302-0.93088 0.93088-0.35692-0.15022  0 471.35 309.94  132.03 471.46 309.99  132.25
  -2   0  -7 -33.576  82.115   2-0.07750-0.17740 0.95723-0.95723-0.27875-0.22855  0 304.73 103.02  276.31 304.91 102.52  275.52
  -2   0   7  -8.534  53.865   1-0.48689 0.23161-0.87044 0.87044 0.07266 0.43439  0 218.76 136.93  125.73 218.92 137.04  125.72
  -2   0   7 -34.268  76.791   2-0.03602-0.21897-0.95336 0.95336 0.29968 0.20775  0 250.30 116.59   92.82 250.21 117.21   93.28
  -2   0   7  -1.131 107.936   2-0.16847-0.08634 0.95774-0.95774 0.23311 0.27436  0 437.92 364.57  305.43 438.03 364.66  305.67
   2   0  -7  36.064  78.281   1-0.68573 0.94074-0.30190 0.30190-0.66229 0.15449  0 394.13 397.48   69.27 393.95 397.41   69.02
   2   0  -7  15.478 102.407   2 0.06712 0.18794-0.95649 0.95649-0.28395-0.22319  0 348.04 411.56  128.01 347.94 411.87  127.78
   2   0  -7 -59.584  67.055   2-0.06334 0.31823 0.93479-0.93479-0.34951-0.15779  0 184.30 174.95  270.87 184.13 174.89  271.18
   2   0   7  26.957  74.168   1-0.22218 0.47751-0.87520 0.87520 0.42972 0.07748  0 161.75 235.41  152.07 161.62 235.36  151.39
   2   0   7  -6.119  59.130   2-0.04418 0.29917-0.93939 0.93939 0.33998 0.16744  0 163.71 222.01   90.35 163.64 222.33   90.79
   2   0   7  28.544  84.712   2-0.19562 0.45043 0.88811-0.88811 0.41593 0.09154  0 288.37 411.44  317.56 288.24 411.56  317.03
  -2   0  -8 43602.7   523.9   2 0.08167-0.33672-0.92061 0.92061-0.38185-0.19773  0 498.97 329.10  133.88 499.23 329.05  133.81
  -2   0  -8 37083.6   484.6   2-0.07033-0.18457 0.94648-0.94648-0.31500-0.26478  0 296.72  78.86  273.26 296.80  79.11  273.31
  -2   0   8 42845.7   421.6   1-0.43615 0.18087-0.88663 0.88663 0.15384 0.42565  0 203.87 121.87  131.09 203.97 122.04  131.29
  -2   0   8 42025.9   547.3   2-0.04168-0.21330-0.94387 0.94387 0.32769 0.25223  0 234.72 100.11   91.57 234.61 100.29   91.56
  -2   0   8 38624.9   549.6   2-0.17409-0.08072 0.94714-0.94714 0.26947 0.31050  0 454.77 391.28  308.08 454.95 391.28  307.87
   2   0  -8 27712.3   359.3   1-0.68890 0.94391-0.32300 0.32300-0.64891 0.06856  0 414.09 419.38   70.38 414.55 419.32   70.45
   2   0  -8 38360.2   536.6   2 0.07163 0.18342-0.94659 0.94659-0.31439-0.26519  0 365.45 436.01  129.61 365.29 435.67  129.63
   2   0  -8 37693.3   518.2   2-0.05880 0.31369 0.92646-0.92646-0.37177-0.20801  0 172.26 156.48  269.80 172.23 156.54  269.80
   2   0   8 41591.5   543.2   1-0.21295 0.46829-0.87245 0.87245 0.43987 0.13979  0 143.88 224.46  152.15 143.91 224.50  152.20
   2   0   8 43533.5   503.3   2-0.04995 0.30494-0.92849 0.92849 0.36798 0.21194  0 146.66 210.53   89.00 146.62 210.52   89.04
   2   0   8 -10.246  91.207   2-0.19796 0.45277 0.87942-0.87942 0.43293 0.14704  2 293.96 437.25  319.31 294.57 437.18  318.14
  -2   0  -9 -46.400 137.490   2-0.06297-0.19193 0.93413-0.93413-0.35132-0.30093  0 288.26  52.51  271.43 288.30  52.84  271.07
  -2   0   9   0.824  78.349   1-0.38805 0.13276-0.89401 0.89401 0.22400 0.42793  0 187.92 105.12  136.11 187.89 104.97  136.17
  -2   0   9  57.818 117.924   2-0.04774-0.20724-0.93274 0.93274 0.35737 0.29503  0 217.82  81.88   89.42 217.68  81.59   89.71
  -2   0   9 126.668 175.648   2-0.17966-0.07515 0.93498-0.93498 0.30582 0.34664  0 474.54 421.92  311.17 474.78 421.95  310.09
   2   0  -9  86.400 125.307   1-0.68960 0.94460-0.32813 0.32813-0.64559-0.00730  0 438.17 445.33   70.64 438.11 445.63   70.81
   2   0  -9  11.559 165.367   2 0.07637 0.17868-0.93511 0.93511-0.34603-0.30600  0 384.71 463.65  131.54 385.05 463.53  131.58
   2   0  -9  52.860 106.479   2-0.05357 0.30847 0.91631-0.91631-0.39687-0.25538  0 158.54 136.56  268.51 158.83 136.56  268.21
   2   0   9   6.267  95.605   1-0.19950 0.45483-0.86830 0.86830 0.45416 0.19796  0 124.52 212.56  154.09 124.57 212.62  153.34
   2   0   9-112.044  81.107   2-0.05618 0.31117-0.91567 0.91567 0.39799 0.25441  0 127.59 198.18   86.74 127.74 198.20   87.13
  -2   0 -10 13143.3   421.7   2-0.05551-0.19938 0.92013-0.92013-0.38766-0.33706  0 279.11  22.55  268.86 279.21  22.77  268.80
  -2   0  10 14960.0   317.0   1-0.34162 0.08634-0.89502 0.89502 0.28677 0.43760  0 170.19  84.77  140.69 170.40  85.00  140.65
  -2   0  10 15773.0   424.9   2-0.05416-0.20083-0.91996 0.91996 0.38825 0.33665  0 199.03  60.45   87.77 198.93  60.55   87.75
  -2   0  10 14832.7   500.7   2-0.18512-0.06969 0.92121-0.92121 0.34219 0.38277  0 498.46 458.24  312.39 498.64 458.33  312.34
   2   0 -10 10496.7   342.6   1-0.68874 0.94375-0.32185 0.32185-0.64965-0.07579  0 465.05 477.86   70.34 465.52 478.01   70.38
   2   0 -10 15282.7   484.3   2 0.08119 0.17386-0.92201 0.92201-0.37855-0.34593  0 407.96 497.11  133.57 408.15 496.90  133.60
   2   0 -10 13664.7   390.2   2-0.04778 0.30267 0.90441-0.90441-0.42399-0.30073  0 143.52 114.34  266.49 143.48 114.40  266.48
   2   0  10 14756.0   387.9   1-0.18274 0.43807-0.86263 0.86263 0.47167 0.25290  0 103.31 199.28  154.82 103.10 199.35  154.77
   2   0  10 15555.7   373.6   2-0.06279 0.31777-0.90094 0.90094 0.42938 0.29552  0 106.79 185.15   84.97 106.44 185.13   85.11
   2   0  10 14871.5   424.9   2-0.20413 0.45894 0.85374-0.85374 0.47901 0.24595  0 307.79 500.80  320.95 307.77 500.58  321.18
  -2   0  11  45.724 121.870   1-0.29586 0.04058-0.89094 0.89094 0.34451 0.45230  0 151.06  61.13  144.40 151.09  61.11  144.87
  -2   0  11 -21.035 173.843   2-0.06082-0.19416-0.90548 0.90548 0.42001 0.37737  0 177.96  36.95   85.94 177.69  36.34   85.71
   2   0 -11 137.611 156.225   2-0.04178 0.29667 0.89068-0.89068-0.45271-0.34449  0 125.64  89.38  264.56 125.60  89.32  264.62
   2   0  11  -7.188 141.497   1-0.16315 0.41849-0.85535 0.85535 0.49168 0.30535  0  78.65 184.17  156.57  78.85 184.15  156.43
   2   0  11 -33.152 122.688   2-0.06972 0.32471-0.88426 0.88426 0.46176 0.33563  0  81.91 171.10   81.73  82.00 171.05   82.99
  -2   0  12 425.053 167.825   1-0.24981-0.00548-0.88238 0.88238 0.39874 0.47050  0 129.29  31.77  149.52 129.38  31.84  148.98
  -2   0  12 414.682 230.799   2-0.06772-0.18727-0.88921 0.88921 0.45246 0.41741  2 153.39   8.33   83.59 153.00   7.85   83.60
   2   0 -12 273.474 210.137   2-0.03531 0.29021 0.87516-0.87516-0.48254-0.38713  0 105.03  60.62  261.85 104.28  60.11  262.66
   2   0  12 301.959 168.530   1-0.14096 0.39629-0.84636 0.84636 0.51363 0.35586  0  50.80 166.12  158.45  50.90 166.32  158.29
   2   0  12 455.931 173.017   2-0.07694 0.33193-0.86556 0.86556 0.49486 0.37501  0  53.65 155.42   80.66  53.27 155.52   80.77
  -2  -1   0   6.091  27.755   1-0.32827 0.07329 0.46585-0.56516-0.82172 0.82172  0 243.59 225.23   18.18 243.63 225.31   18.00
  -2  -1   0   2.786  16.832   2-0.23815-0.01677 0.23405-0.33349 0.94261-0.94261  0 369.32 237.99    6.98 369.17 237.99    7.09
  -2  -1   0   1.674  16.033   2 0.12332-0.37834-0.69267 0.59317-0.71064 0.71064  0 340.65 201.18  157.02 340.59 201.21  157.03
  -2   1   0  35.015  27.269   1-0.48594 0.23066-0.87083 0.97020 0.07425-0.07425  0 338.70 199.58  125.48 338.62 199.70  125.83
  -2   1   0  19.623  20.200   2-0.21193-0.04299-0.16684 0.26627 0.96294-0.96294  0 332.21 196.69   30.51 332.18 196.64   30.33
  -2   1   0  16.173  21.315   2 0.05650-0.31148 0.52117-0.42166-0.85158 0.85158  0 371.57 247.68  232.54 371.40 247.58  232.52
   2  -1   0   2.992  26.389   1-0.18967 0.44500-0.86502 0.76564 0.46451-0.46451  0 263.16 312.69  154.28 263.64 312.63  154.18
   2  -1   0  -8.439  19.824   2-0.12602 0.38101-0.69955 0.60007 0.70338-0.70338  0 266.83 314.98   64.74 266.79 314.93   65.17
   2  -1   0  17.199  15.414   2 0.12490 0.13012-0.05645-0.04305-0.99056 0.99056  0 235.55 269.27  197.59 235.65 269.24  197.73
   2   1   0  16.365  15.908   2 0.11411 0.14087 0.08404 0.01548-0.98991 0.98991  0 258.68 308.99  206.07 258.69 309.02  205.79
   2   1   0   5.548  11.465   2-0.19736 0.45217 0.88166-0.78218 0.42863-0.42863  0 238.05 279.08  317.82 238.14 278.94  317.86
  -2  -1  -1  77.202  34.083   1-0.18371-0.07127 0.62351-0.72282-0.75992 0.68735  0 237.16 234.68    5.33 236.83 234.65    5.22
  -2  -1  -1  89.799  43.754   1-0.02621-0.22913-0.78658 0.68721 0.61693-0.68938  0 370.34 231.55  167.64 370.23 231.56  167.78
  -2  -1  -1  82.656  18.528   2-0.14861-0.10637-0.59666 0.49718 0.78861-0.86110  0 370.82 234.06   57.45 370.77 234.14   57.39
  -2  -1  -1  77.035  18.349   2 0.11994-0.37492 0.01285-0.11237-0.99270 0.92022  0 344.86 201.03  201.47 344.87 200.90  201.70
  -2  -1   1  64.033  30.414   1-0.48766 0.23268 0.23389-0.33320-0.84112 0.91369  0 247.13 215.68   33.99 247.19 215.75   34.21
  -2  -1   1  81.872  26.699   2 0.08454-0.33959-0.91178 0.81222-0.40188 0.47432  0 330.26 193.16  135.26 330.13 192.96  135.08
  -2  -1   1  60.417  25.912   2-0.22870-0.02611 0.68641-0.78589 0.69031-0.61782  0 374.57 250.66  336.51 374.75 250.67  336.79
  -2   1  -1  61.411  35.640   1-0.50478 0.24950-0.86222 0.96159 0.04200-0.11444  0 354.92 208.76  124.25 355.01 208.87  123.63
  -2   1  -1  63.663  22.680   2 0.12148-0.37646-0.00880 0.10832-0.99255 0.92008  0 373.80 244.45  200.41 373.68 244.59  200.45
  -2   1  -1  75.435  23.716   2-0.24116-0.01365 0.42212-0.32270 0.87388-0.94640  0 335.71 195.52  355.41 335.65 195.49  355.36
  -2   1   1  79.728  22.008   1-0.47004 0.21476-0.87690 0.97626 0.10056-0.02812  0 322.84 190.38  127.64 322.84 190.45  127.62
  -2   1   1  92.272  29.829   2-0.15291-0.10208-0.57478 0.67426 0.80390-0.73141  0 323.46 190.69   55.80 323.52 190.79   55.85
  -2   1   1  97.966  30.789   2-0.01078-0.24412 0.80599-0.70648-0.59183 0.66430  0 374.94 257.89  254.50 375.04 257.83  255.11
   2  -1  -1  99.337  29.257   2-0.06568 0.32067-0.89411 0.79463 0.44300-0.51549  0 274.74 321.68   84.32 274.86 321.77   84.23
   2  -1  -1  79.744  23.658   2 0.07126 0.18372 0.43389-0.53341-0.89814 0.82567  0 232.37 259.67  226.66 232.48 259.79  226.80
   2  -1   1  82.369  31.427   1-0.28920 0.54448-0.88999 0.79062 0.35255-0.28011  0 249.43 302.94  145.34 249.48 302.82  145.47
   2  -1   1  82.271  23.198   2-0.20463 0.45955-0.23387 0.13443 0.95049-0.87792  0 263.51 315.60   33.90 263.40 315.55   34.27
   2  -1   1  64.062  17.425   2 0.12821 0.12681-0.63145 0.53196-0.76474 0.83722  0 234.04 272.15  162.01 233.92 272.16  161.72
   2   1  -1  75.399  38.046   1-0.27678 0.53176 0.52687-0.42757-0.80362 0.73104  0 358.20 303.88   13.30 357.89 303.86   13.31
   2   1  -1  80.162  26.148   2 0.13299 0.12203-0.54225 0.64175-0.82962 0.75714  0 268.66 318.66  167.93 268.56 318.63  168.05
   2   1  -1  53.660  18.645   2-0.16317 0.41798 0.96614-0.86667 0.19987-0.27237  0 233.21 266.77  303.58 233.04 266.67  303.67
   2   1   1  68.688  13.652   2-0.02617 0.28107 0.85128-0.75176-0.52406 0.59654  0 254.52 308.48  259.78 254.46 308.43  259.87
  -2  -1  -2 22621.6   267.5   1-0.14634-0.10899-0.84863 0.74925 0.50835-0.65326  0 381.83 241.45  157.90 381.79 241.51  157.84
  -2  -1  -2 23302.6   171.4   2-0.05580-0.19919-0.91649 0.81701 0.39615-0.54112  0 381.16 240.77   87.06 381.12 240.87   87.25
  -2  -1  -2 21713.7   165.4   2 0.04441-0.29939 0.58441-0.68393-0.81024 0.66529  0 341.45 189.95  236.96 341.42 190.04  236.90
  -2  -1   2 19240.7   208.4   1-0.61777 0.36276-0.04380-0.05555-0.78514 0.93022  0 247.01 206.05   52.00 246.88 206.06   52.13
  -2  -1   2 20586.2   208.5   2 0.05903-0.31408-0.97089 0.87133-0.23212 0.37702  0 317.87 181.97  124.76 317.95 182.08  124.66
  -2  -1   2 17027.8   190.3   2-0.21028-0.04453 0.82393-0.92340 0.52624-0.38125  0 382.76 266.15  324.38 382.85 266.23  324.41
  -2   1  -2 20014.7   237.3   1-0.52400 0.26872-0.85168 0.95105 0.00777-0.15265  0 372.31 218.02  121.14 372.25 218.12  121.30
  -2   1  -2 21503.8   183.5   2 0.13542-0.39044-0.45389 0.55338-0.88071 0.73575  0 382.60 249.49  173.98 382.64 249.52  173.91
  -2   1  -2 19374.0   175.3   2-0.21760-0.03721 0.77986-0.68038 0.58692-0.73191  0 333.53 186.34  328.88 333.57 186.49  328.76
  -2   1   2 17974.0    71.6   1-0.68128 0.42627-0.27527 0.37461-0.67829 0.82338  0 292.68 181.73   66.79 292.83 181.86   67.22
  -2   1   2 21012.8    78.2   1-0.48114 0.22586-0.87278 0.97214 0.08222 0.06265  0 306.76 180.81  126.60 306.86 180.97  126.37
  -2   1   2 21107.9   219.7   2-0.11257-0.14242-0.75233 0.85181 0.64909-0.50412  0 312.39 181.21   69.75 312.50 181.35   69.58
  -2   1   2 18269.5   204.0   2-0.05412-0.20078 0.91740-0.81789-0.39427 0.53921  0 382.02 271.87  268.36 381.90 271.87  268.38
   2  -1  -2 22235.3   221.8   2-0.03096 0.28595-0.96117 0.86169 0.27421-0.41919  0 285.08 332.51   95.39 285.18 332.43   94.84
   2  -1  -2 21083.2   214.9   2 0.02629 0.22869 0.66827-0.76779-0.74345 0.59850  0 226.94 247.49  242.59 226.83 247.39  243.14
   2  -1   2 19589.6   233.8   1-0.33077 0.58605-0.89451 0.79514 0.30075-0.15587  0 235.42 293.48  141.67 235.28 293.43  141.66
   2  -1   2 20904.9   176.3   2-0.23914 0.49405 0.26715-0.36658 0.93351-0.78837  0 265.04 324.65    5.01 265.13 324.49    5.12
   2  -1   2 20704.3   174.5   2 0.08998 0.16507-0.89303 0.79346-0.44091 0.58581  0 226.81 267.76  137.64 226.66 267.71  137.57
   2   1  -2 19939.2   215.0   1-0.42232 0.67730 0.33826-0.23896-0.84096 0.69582  0 358.31 314.61   26.69 358.27 314.54   27.15
   2   1  -2 21354.3   209.0   2 0.11635 0.13867-0.75546 0.85496-0.64478 0.49982  0 279.76 331.00  151.85 279.86 330.86  151.80
   2   1  -2 18560.5   194.0   2-0.14514 0.40003 0.98527-0.88575 0.09046-0.23541  0 226.37 252.72  297.16 226.29 252.66  297.23
   2   1   2 22747.7   159.9   2-0.18784 0.44276-0.36629 0.46573 0.91134-0.76620  0 228.33 276.06   42.06 228.22 275.97   42.23
   2   1   2 20363.9   152.1   2-0.09876 0.35366 0.98068-0.88116-0.16886 0.31381  0 257.57 319.93  282.03 257.78 319.79  282.08
  -2  -1  -3 26949.6   315.3   1-0.24295-0.01239-0.88069 0.78131 0.40665-0.62402  0 395.77 251.71  149.66 396.00 251.76  149.59
  -2  -1  -3 27365.7   228.1   2-0.01397-0.24109-0.98257 0.88300 0.18538-0.40272  0 395.20 251.73  100.02 395.44 251.77  100.17
  -2  -1  -3 25601.7   220.8   2-0.00092-0.25398 0.77346-0.87297-0.63385 0.41643  0 335.20 174.85  251.62 335.17 174.98  252.01
  -2  -1   3 21725.1   230.5   1-0.68596 0.43096-0.30338 0.20404-0.66137 0.87900  0 242.85 196.04   68.71 242.70 196.09   69.12
  -2  -1   3 26698.1   275.5   2 0.04154-0.29659-0.99138 0.89181-0.12428 0.34162  0 305.18 169.96  117.91 305.27 170.11  118.28
  -2  -1   3 24079.8   261.4   2-0.19972-0.05509 0.87254-0.97202 0.44585-0.22836  0 391.91 283.11  319.30 392.22 283.18  318.98
  -2   1  -3 24572.0   295.0   1-0.54288 0.28760-0.83936 0.93873-0.02738-0.18993  0 390.44 227.52  119.09 390.72 227.58  118.91
  -2   1  -3 26368.1   236.7   2 0.12549-0.38051-0.66774 0.76723-0.73374 0.51630  0 395.44 258.96  159.28 395.72 258.97  158.98
  -2   1  -3 22136.7   218.4   2-0.18731-0.06749 0.91505-0.81557 0.35722-0.57471  0 328.44 172.87  313.06 328.47 173.00  313.28
  -2   1   3 25950.8   277.3   2-0.09022-0.16477-0.82773 0.92721 0.55383-0.33636  0 300.39 170.13   76.74 300.53 170.26   76.67
  -2   1   3 24133.5   267.2   2-0.08196-0.17294 0.96318-0.86367-0.25605 0.47347  0 390.31 287.94  277.20 390.51 287.94  276.89
   2  -1  -3 25268.1   269.5   2-0.00061 0.25550 0.77239-0.87191-0.63514 0.41773  0 220.03 233.77  252.10 219.95 233.71  251.91
   2  -1   3 24255.1   292.2   1-0.34700 0.60228-0.89521 0.79585 0.27961-0.06230  0 221.00 284.26  139.92 220.89 284.23  140.13
   2  -1   3 24840.4   224.6   2 0.05916 0.19589-0.97068 0.87112-0.23297 0.45032  0 216.49 259.58  124.89 216.38 259.55  124.71
   2  -1   3 23395.2   219.7   2-0.23836 0.49317 0.54018-0.63965 0.80709-0.58960  0 269.38 338.34  347.60 269.51 338.22  347.57
   2   1  -3 23486.3   239.6   1-0.53143 0.78641 0.15385-0.05454-0.83301 0.61529  0 363.44 326.08   39.35 363.32 326.00   39.46
   2   1  -3 22436.2   249.7   2-0.13248 0.38738 0.99103-0.89152 0.01739-0.23481  0 218.87 238.15  293.12 218.77 238.13  292.97
   2   1   3 25734.1   305.6   1-0.00208 0.25742-0.77132 0.87070 0.63645-0.41908  0 217.03 263.09  169.91 216.96 263.11  169.75
   2   1   3 27211.1   219.9   2-0.13576 0.39075-0.65764 0.75712 0.74099-0.52353  0 216.84 266.12   61.98 216.74 266.07   61.90
   2   1   3 22958.1   204.4   2-0.12478 0.37968 0.99182-0.89231-0.02678 0.24420  0 263.06 335.32  290.31 263.19 335.16  290.39
  -2  -1  -4  1695.2   125.7   1-0.32022 0.06493-0.89371 0.79434 0.31424-0.60399  0 412.52 262.56  143.05 412.71 262.53  142.64
  -2  -1  -4  1615.9    91.0   2 0.00955-0.26460-0.99813 0.89857 0.06030-0.35009  0 411.81 264.40  107.53 411.97 264.40  107.53
  -2  -1  -4  1444.8    87.4   2-0.02191-0.23298 0.83945-0.93897-0.54299 0.25310  0 328.22 158.08  258.56 328.23 158.20  258.56
  -2  -1   4  1474.2    77.5   1-0.69713 0.44212-0.50314 0.40380-0.51075 0.80092  0 235.46 185.64   83.31 235.30 185.69   83.48
  -2  -1   4  1503.9   107.1   2 0.02790-0.28295-0.99863 0.89906-0.04432 0.33411  0 292.19 157.32  113.63 292.31 157.38  113.61
  -2  -1   4  1511.1   106.5   2-0.19463-0.06018 0.89161-0.99109 0.40883-0.11885  0 402.51 301.30  316.71 402.70 301.34  316.57
  -2   1  -4  1543.1   121.7   1-0.56095 0.30567-0.82543 0.92480-0.06321-0.22653  0 410.51 237.41  116.47 410.68 237.45  116.48
  -2   1  -4  1624.6    94.0   2 0.11556-0.37058-0.76190 0.86139-0.63731 0.34739  0 411.27 270.73  151.19 411.41 270.76  151.23
  -2   1  -4  1453.8    91.6   2-0.16332-0.09149 0.96591-0.86644 0.20085-0.49083  0 322.19 157.02  303.83 322.17 157.22  303.73
  -2   1   4  1560.3    47.6   1-0.35601 0.10073-0.89531 0.99467 0.26774 0.02201  0 279.16 160.16  139.18 279.39 160.32  139.28
  -2   1   4  1618.9   111.5   2-0.07838-0.17661-0.86192 0.96140 0.50095-0.21099  0 287.80 157.94   80.01 287.96 158.12   80.34
  -2   1   4  1586.6   112.9   2-0.10177-0.15312 0.98300-0.88348-0.15285 0.44273  0 400.35 305.57  283.25 400.43 305.55  283.02
   2  -1  -4  1414.7    47.5   1-0.59698 0.85196 0.01085-0.11016-0.80218 0.51189  0 321.51 359.11   48.63 321.58 358.97   48.64
   2  -1  -4 835.369  93.432   2 0.00695 0.24810-0.99720 0.89763 0.07449-0.36429  0 308.81 359.84  107.13 308.85 359.59  106.71
   2  -1  -4  1596.2    95.9   2-0.01576 0.27065 0.82152-0.92104-0.56996 0.28007  0 212.32 219.23  256.71 212.16 219.27  256.68
   2  -1   4  1591.0   103.7   1-0.34998 0.60526-0.89527 0.79590 0.27570 0.01405  0 206.25 275.13  139.89 206.14 275.10  139.85
   2  -1   4  1748.4    83.8   2 0.03755 0.21750-0.99424 0.89467-0.10041 0.39020  0 204.64 249.98  116.83 204.54 249.96  116.88
   2  -1   4  1669.4    93.4   2-0.23022 0.48503 0.66971-0.76919 0.70603-0.41605  0 274.59 354.59  338.16 274.78 354.44  338.11
   2   1  -4  1409.5    96.1   1-0.60001 0.85499 0.00334 0.09597-0.79999 0.50969  0 372.40 338.69   48.97 372.39 338.58   49.12
   2   1  -4 724.924  82.794   2 0.09630 0.15875-0.86773 0.96730-0.48762 0.19783  2 304.48 359.76  140.59 304.30 359.54  140.64
   2   1  -4  1412.6    90.3   2-0.12223 0.37712 0.99165-0.89213-0.04114-0.24875  0 210.65 223.16  289.59 210.59 223.19  289.56
   2   1   4  1634.6   106.1   1-0.05193 0.30726-0.80194 0.90131 0.59515-0.30532  0 204.86 253.86  165.93 204.77 253.88  165.66
   2   1   4  1686.4    79.6   2-0.10867 0.36366-0.76668 0.86616 0.63276-0.34281  0 204.31 255.60   70.84 204.24 255.52   70.85
   2   1   4  1416.7    86.7   2-0.13935 0.39425 0.98859-0.88907 0.05725 0.23264  0 268.90 352.49  295.16 269.01 352.31  295.29
  -2  -1  -5 35781.4   418.4   1-0.38318 0.12790-0.89438 0.79502 0.23076-0.59295  0 431.68 274.21  136.77 431.91 274.18  136.65
  -2  -1  -5 36038.9   349.2   2 0.02499-0.28004-0.99931 0.89974-0.02752-0.33472  0 430.39 278.24  112.70 430.55 278.23  112.63
  -2  -1  -5 30227.0   322.8   2-0.03149-0.22340 0.86544-0.96496-0.50002 0.13766  0 320.97 139.93  261.44 321.00 140.10  261.50
  -2  -1   5 32540.5   322.4   1-0.67415 0.41914-0.64200 0.54266-0.36519 0.72790  0 225.66 174.62   94.65 225.52 174.71   95.09
  -2  -1   5 36016.8   401.4   2 0.01656-0.27161-0.99963 0.90007 0.02149 0.34075  0 278.85 143.72  110.19 278.98 143.90  109.79
  -2  -1   5 32790.3   383.6   2-0.19274-0.06207 0.89805-0.99753 0.39541-0.03293  0 414.12 320.85  315.98 414.36 320.89  315.71
  -2   1  -5 35652.2   420.0   1-0.57818 0.32290-0.80984 0.90920-0.09935-0.26284  0 432.37 248.04  114.02 432.59 247.99  114.02
  -2   1  -5 36383.5   360.3   2 0.10869-0.36374-0.80551 0.90508-0.58253 0.22029  0 429.19 284.17  146.69 429.55 284.15  147.18
  -2   1  -5 31832.1   339.6   2-0.14472-0.11018 0.98555-0.88604 0.08796-0.45033  0 315.28 139.61  296.70 315.36 139.79  297.08
  -2   1   5 35427.0   227.6   1-0.33716 0.08188-0.89484 0.99421 0.29254 0.06964  0 264.38 148.73  141.01 264.67 148.95  141.06
  -2   1   5 37416.8   411.4   2-0.07245-0.18253-0.87733 0.97681 0.47439-0.11195  0 274.71 144.88   81.98 274.88 145.03   82.15
  -2   1   5 32169.4   383.8   2-0.11705-0.13784 0.99066-0.89115-0.06990 0.43227  0 411.47 324.80  288.03 411.64 324.75  287.88
   2  -1  -5 23763.5   188.6   1-0.67694 0.93195-0.25246 0.15311-0.69139 0.32867  0 337.71 373.82   65.66 337.83 373.68   65.69
   2  -1  -5 36175.6   402.3   2 0.01953 0.23553-0.99980 0.90024 0.00396-0.36620  0 322.06 375.96  111.20 321.99 375.74  110.80
   2  -1  -5 33007.9   381.6   2-0.02403 0.27892 0.84541-0.94493-0.53357 0.17121  0 203.59 204.13  259.08 203.53 204.13  259.21
   2  -1   5 31938.3   393.8   1-0.34498 0.60026-0.89517 0.79580 0.28225 0.07993  0 190.94 265.90  140.17 190.88 265.89  140.32
   2  -1   5 34588.0   343.8   2 0.02111 0.23394-0.99976 0.90020-0.00507 0.36731  0 191.66 239.73  111.22 191.58 239.73  111.33
   2  -1   5 34139.1   345.5   2-0.22383 0.47864 0.73258-0.83205 0.64283-0.28035  0 280.30 372.78  333.17 280.44 372.61  332.98
   2   1  -5 26600.7   297.1   1-0.63863 0.89364-0.10490 0.20425-0.76233 0.39961  0 384.57 352.67   55.62 384.89 352.60   56.05
   2   1  -5 36840.1   402.9   2 0.09283 0.16222-0.88216 0.98173-0.46171 0.09947  0 317.56 376.27  139.00 317.55 376.08  138.93
   2   1  -5 30379.9   362.3   2-0.11301 0.36790 0.98930-0.88978-0.09230-0.27006  0 201.77 207.75  286.59 201.70 207.76  286.57
   2   1   5 37306.8   427.0   1-0.08309 0.33842-0.81887 0.91825 0.56794-0.20565  0 191.46 244.34  163.03 191.43 244.37  163.10
   2   1   5 36879.3   346.0   2-0.09492 0.34991-0.81299 0.91247 0.57449-0.21204  0 190.95 244.80   74.86 190.89 244.75   75.20
   2   1   5 32861.9   330.7   2-0.15018 0.40507 0.98127-0.88175 0.12065 0.24171  0 274.82 371.24  298.84 274.92 371.03  299.00
  -2  -1  -6 820.563 122.437   1-0.43547 0.18019-0.88678 0.78742 0.15488-0.58950  0 453.82 287.07  131.19 453.85 287.00  131.36
  -2  -1  -6 695.768  91.497   2 0.03707-0.29212-0.99454 0.89498-0.09752-0.33717  0 451.66 293.35  117.35 451.53 293.40  116.72
  -2  -1  -6 745.363  95.052   2-0.03519-0.21970 0.87486-0.97437-0.48310 0.04827  0 313.54 120.56  262.62 313.57 120.61  262.62
  -2  -1   6 806.324  88.995   1-0.63539 0.38011-0.73474 0.63538-0.23755 0.67217  0 213.94 162.93  104.35 214.05 162.90  104.43
  -2  -1   6 686.197 112.918   2 0.00616-0.26121-0.99687 0.89730 0.07885 0.35584  0 265.09 129.56  106.44 265.14 129.51  106.45
  -2  -1   6 685.251 114.302   2-0.19281-0.06200 0.89784-0.99731 0.39587 0.03910  0 427.60 342.35  316.18 427.45 342.22  315.74
  -2   1  -6 759.959 124.109   1-0.59465 0.33937-0.79248 0.89184-0.13554-0.29908  0 456.74 259.64  111.57 457.01 259.54  111.53
  -2   1  -6 806.319 101.485   2 0.10514-0.36019-0.82560 0.92517-0.55437 0.11968  0 449.64 299.10  144.75 450.02 299.09  145.20
  -2   1  -6 695.594  99.974   2-0.12931-0.12558 0.99160-0.89209-0.00077-0.43406  0 308.10 120.80  292.33 308.12 120.77  291.91
  -2   1   6 767.552  64.995   1-0.31195 0.05667-0.89294 0.99231 0.32456 0.11006  0 249.96 136.35  143.36 249.95 136.48  143.40
  -2   1   6 831.796 116.129   2-0.07028-0.18471-0.88287 0.98235 0.46432-0.02938  0 261.08 130.78   82.70 261.19 130.97   82.82
  -2   1   6 790.759 119.623   2-0.12956-0.12533 0.99157-0.89206 0.00064 0.43420  0 424.33 345.79  292.18 424.32 345.83  291.99
   2  -1  -6 559.240  64.148   1-0.69271 0.94772-0.35296 0.25362-0.62895 0.19369  0 354.81 390.41   72.59 354.95 390.35   72.52
   2  -1  -6 746.610 114.046   2 0.03013 0.22492-0.99790 0.89833-0.05732-0.37737  0 336.31 393.98  114.08 336.25 393.88  114.37
   2  -1  -6 670.741  90.940   2-0.02799 0.28289 0.85621-0.95572-0.51587 0.08104  0 194.12 188.11  260.42 194.03 188.18  260.43
   2  -1   6 776.801  97.977   1-0.33472 0.59000-0.89473 0.79536 0.29569 0.13893  0 174.75 256.53  141.36 174.90 256.43  141.29
   2  -1   6 896.913 100.036   2 0.00766 0.24740-0.99747 0.89791 0.07061 0.36408  0 177.70 229.05  106.77 177.54 229.09  106.93
   2  -1   6 746.267  97.984   2-0.21993 0.47474 0.76368-0.86316 0.60697-0.17200  0 286.30 392.93  329.70 286.33 392.82  330.24
   2   1  -6 537.549  87.153   1-0.65954 0.91455-0.17711 0.27645-0.73050 0.29524  0 400.01 368.37   61.01 400.31 368.50   60.73
   2   1  -6 695.453 109.778   2 0.09164 0.16342-0.88682 0.98639-0.45293 0.01825  0 331.75 394.54  137.87 331.77 394.52  138.35
   2   1  -6 744.549  95.512   2-0.10432 0.35922 0.98474-0.88522-0.13930-0.29553  0 191.95 191.67  283.86 191.99 191.65  283.82
   2   1   6 686.455  98.312   1-0.10060 0.35593-0.82775 0.92713 0.55201-0.11727  0 176.99 234.42  162.07 176.97 234.48  161.66
   2   1   6 889.306  93.713   2-0.08844 0.34343-0.83311 0.93259 0.54599-0.11105  0 176.53 233.80   77.25 176.56 233.79   77.23
   2   1   6 748.225  94.354   2-0.15908 0.41389 0.97173-0.87226 0.17446 0.26051  0 280.89 391.71  302.20 280.93 391.59  302.16
  -2  -1  -7  2075.9   198.0   1-0.47945 0.22417-0.87344 0.77408 0.08502-0.59207  0 479.07 301.58  126.61 479.21 301.47  126.56
  -2  -1  -7  2307.4   174.3   2 0.04708-0.30213-0.98640 0.88683-0.15750-0.34964  0 475.42 310.24  119.75 475.58 310.21  120.24
  -2  -1  -7  2067.8   168.3   2-0.03557-0.21933 0.87579-0.97531-0.48138-0.02593  0 305.85  99.30  262.74 305.94  99.36  262.74
  -2  -1   7  2112.1   128.7   1-0.59038 0.33510-0.79724 0.69788-0.12593 0.63299  0 200.93 149.86  112.03 200.93 149.93  112.19
  -2  -1   7  2320.4   166.1   2-0.00361-0.25144-0.99137 0.89181 0.13102 0.37611  0 250.66 113.77  103.32 250.57 113.98  103.40
  -2  -1   7  1850.9   198.7   2-0.19411-0.06070 0.89342-0.99289 0.40512 0.10235  0 442.24 365.88  316.33 442.30 365.85  316.33
  -2   1  -7  2004.0   192.5   1-0.61013 0.35485-0.77343 0.87279-0.17192-0.33514  0 484.55 272.48  109.15 484.75 272.42  109.02
  -2   1  -7  2037.8   167.7   2 0.10367-0.35872-0.83318 0.93275-0.54320 0.03606  0 473.36 315.93  144.36 473.65 315.84  144.41
  -2   1  -7  1755.6   159.3   2-0.11617-0.13873 0.99041-0.89089-0.07480-0.43251  0 300.39  99.69  287.58 300.56  99.92  287.60
  -2   1   7  2250.7   103.6   1-0.28396 0.02868-0.88917 0.98853 0.35881 0.14825  0 234.90 122.36  146.02 234.96 122.60  145.94
  -2   1   7  2581.0   168.7   2-0.07045-0.18454-0.88244 0.98192 0.46513 0.04230  0 246.78 115.65   82.70 246.72 115.73   82.76
  -2   1   7  2204.5   199.4   2-0.14042-0.11447 0.98808-0.88857 0.06307 0.44424  0 438.82 369.49  295.71 438.77 369.31  295.62
   2  -1  -7  1485.0   114.7   1-0.69623 0.95124-0.39362 0.29428-0.60028 0.09247  0 373.29 409.71   75.31 373.32 409.55   75.38
   2  -1  -7  2306.9   196.9   2 0.03960 0.21545-0.99285 0.89328-0.11263-0.39450  0 352.00 414.67  117.62 351.88 414.50  117.60
   2  -1  -7  2095.8   155.2   2-0.02915 0.28404 0.85929-0.95881-0.51065 0.00335  0 183.60 171.31  261.18 183.51 171.22  260.78
   2  -1   7  2032.6   152.3   1-0.32058 0.57586-0.89374 0.79437 0.31378 0.19328  0 157.90 246.62  142.62 157.94 246.55  142.61
   2  -1   7  2101.1   138.6   2-0.00438 0.25943-0.99082 0.89125 0.13515 0.37198  0 162.25 218.00  103.20 162.21 218.03  103.15
   2  -1   7   3.893  78.440   2-0.21788 0.47269 0.77794-0.87742 0.58935-0.08188  0 292.57 415.53  329.31 292.40 415.39  328.93
   2   1  -7  1444.4   150.6   1-0.67059 0.92559-0.22201 0.32135-0.70783 0.20003  0 418.39 386.74   63.75 418.58 386.87   63.67
   2   1  -7  2312.2   196.0   2 0.09194 0.16312-0.88567 0.98523-0.45513-0.05201  0 347.37 415.62  138.43 347.29 415.35  138.50
   2   1  -7  2011.5   151.2   2-0.09593 0.35083 0.97828-0.87877-0.18375-0.32356  0 181.33 174.64  281.26 181.28 174.62  281.20
   2   1   7  2259.2   157.1   1-0.10807 0.36340-0.83149 0.93087 0.54493-0.03773  0 161.18 223.92  161.08 161.28 223.99  161.03
   2   1   7  1988.3   136.5   2-0.08607 0.34105-0.84015 0.93962 0.53549-0.02806  0 161.04 222.56   78.02 161.04 222.56   77.96
   2   1   7  2095.0   166.8   2-0.16682 0.42163 0.96045-0.86098 0.22295 0.28452  0 286.95 414.52  304.72 286.96 414.35  305.05
  -2  -1  -8 166.876 118.547   2 0.05572-0.31077-0.97582 0.87626-0.21135-0.36823  2 502.90 329.15  123.46 503.64 329.11  123.42
  -2  -1  -8 222.134 119.060   2-0.03387-0.22102 0.87153-0.97105-0.48916-0.09062  0 298.16  75.65  262.38 298.01  75.87  262.22
  -2  -1   8 201.539  79.918   1-0.54363 0.28835-0.83883 0.73946-0.02882 0.60831  0 186.01 135.21  118.84 186.43 135.43  118.81
  -2  -1   8 117.768 101.586   2-0.01291-0.24214-0.98362 0.88405 0.17981 0.39978  0 234.98  96.80  100.56 235.02  96.98  100.50
  -2  -1   8   5.731 137.464   2-0.19622-0.05859 0.88595-0.98542 0.42023 0.15973  0 459.10 392.36  317.43 459.45 392.56  317.31
  -2   1  -8 153.891 122.368   2 0.10367-0.35873-0.83317 0.93273-0.54321-0.03637  0 501.19 334.90  144.11 501.29 334.86  144.41
  -2   1  -8 181.688 119.202   2-0.10427-0.15063 0.98470-0.88519-0.13960-0.44018  0 292.38  76.90  282.77 292.62  76.79  283.80
  -2   1   8 196.665  67.180   1-0.25387-0.00141-0.88330 0.98267 0.39412 0.18538  0 219.48 107.12  148.55 219.48 106.90  148.63
  -2   1   8 125.064 103.672   2-0.07223-0.18275-0.87789 0.97737 0.47338 0.10653  0 231.31  98.87   82.07 231.20  99.02   82.21
  -2   1   8  98.938 146.515   2-0.15008-0.10482 0.98136-0.88185 0.12004 0.45974  0 455.75 396.12  298.48 455.50 395.95  298.97
   2  -1  -8 127.832  89.522   1-0.69700 0.95200-0.40522 0.30588-0.59160 0.01125  0 393.44 432.29   76.24 393.36 432.15   76.21
   2  -1  -8  99.015 139.202   2 0.04813 0.20693-0.98528 0.88572-0.16402-0.41556  0 369.36 438.41  119.88 369.35 438.24  120.62
   2  -1  -8  82.962  93.576   2-0.02839 0.28328 0.85727-0.95678-0.51409-0.06569  0 171.83 153.40  260.61 171.74 152.95  260.55
   2  -1   8 187.213  94.243   1-0.30334 0.55862-0.89199 0.79262 0.33518 0.24432  0 139.92 236.23  144.39 139.73 236.03  144.18
   2  -1   8  78.019  76.572   2-0.01535 0.27041-0.98114 0.88158 0.19267 0.38691  0 145.78 206.47  100.09 145.35 206.45   99.74
   2   1  -8 161.118 114.297   1-0.67592 0.93093-0.24768 0.34703-0.69410 0.11375  0 440.15 408.89   64.95 440.03 408.48   65.37
   2   1  -8 274.946 146.037   2 0.09324 0.16181-0.88055 0.98011-0.46470-0.11488  0 364.86 439.42  138.88 364.57 439.29  139.12
   2   1  -8  83.406  94.177   2-0.08773 0.34263 0.97004-0.87053-0.22653-0.35325  0 169.54 156.30  279.18 169.32 156.36  278.66
   2   1   8 181.618 102.678   1-0.10820 0.36353-0.83155 0.93093 0.54481 0.03485  0 143.83 212.52  161.36 144.18 212.66  161.02
   2   1   8 136.554  82.909   2-0.08629 0.34128-0.83948 0.93896 0.53650 0.04342  0 143.89 211.02   77.34 144.02 210.94   77.89
   2   1   8 -71.631  90.781   2-0.17393 0.42874 0.94748-0.84800 0.26840 0.31157  0 292.93 440.18  307.48 293.07 439.97  307.80
  -2  -1  -9 617.709 159.963   2-0.03078-0.22411 0.86359-0.96311-0.50325-0.14900  0 289.76  49.16  261.25 289.67  49.42  261.28
  -2  -1   9 774.316 120.288   1-0.49593 0.24065-0.86647 0.76711 0.05726 0.59467  0 170.40 118.67  124.68 170.41 118.93  124.67
  -2  -1   9 736.916 146.952   2-0.02168-0.23331-0.97373 0.87425 0.22667 0.42574  0 218.14  78.45   98.02 218.09  78.13   97.70
  -2  -1   9 885.200 202.466   2-0.19885-0.05596 0.87597-0.97545 0.43946 0.21300  0 479.44 423.45  318.59 479.64 423.43  318.56
  -2   1  -9 568.447 156.767   2-0.09318-0.16172 0.97571-0.87620-0.19824-0.45401  0 284.27  50.26  279.78 284.17  50.69  280.34
  -2   1   9 934.295 104.336   1-0.22179-0.03354-0.87509 0.97447 0.43014 0.22198  0 203.28  88.58  151.37 203.28  88.76  151.42
  -2   1   9  1057.3   163.3   2-0.07519-0.17980-0.87020 0.96968 0.48692 0.16549  0 214.26  80.47   81.40 214.27  80.47   81.31
  -2   1   9 776.897 206.513   2-0.15890-0.09591 0.97196-0.87249 0.17333 0.47913  0 475.04 426.64  301.88 475.16 426.80  302.09
   2  -1  -9 481.647 126.623   1-0.69673 0.95174-0.40073 0.30139-0.59496-0.05793  0 415.23 459.20   75.78 415.65 459.25   75.89
   2  -1  -9 779.862 198.138   2 0.05593 0.19912-0.97552 0.87596-0.21266-0.43937  0 389.06 465.84  123.38 389.37 466.15  123.50
   2  -1  -9  1058.4   151.0   2-0.02625 0.28115 0.85150-0.95101-0.52370-0.12855  0 158.43 132.97  259.63 158.42 132.97  259.89
   2  -1   9 790.675 133.963   1-0.28372 0.53900-0.88913 0.78977 0.35910 0.29283  0 119.99 224.74  145.66 119.88 224.60  145.97
   2  -1   9 622.543 114.712   2-0.02537 0.28036-0.96899 0.86951 0.24578 0.40663  0 126.72 194.13   96.56 126.55 194.17   96.56
   2  -1   9 693.408 176.039   2-0.21765 0.47246 0.77947-0.87895 0.58741 0.06505  2 305.62 470.38  328.64 305.18 470.24  328.79
   2   1  -9 523.099 160.354   1-0.67813 0.93314-0.25846 0.35780-0.68800 0.03510  0 465.14 434.58   66.36 465.10 434.48   66.09
   2   1  -9 747.194 191.898   2 0.09521 0.15984-0.87238 0.97194-0.47947-0.17256  0 384.23 467.37  140.43 384.22 467.38  140.10
   2   1  -9 893.134 143.178   2-0.07959 0.33448 0.96009-0.86057-0.26814-0.38411  0 155.80 136.43  275.86 155.83 136.44  276.16
   2   1   9 886.303 145.780   1-0.10253 0.35786-0.82880 0.92818 0.55007 0.10205  0 125.61 200.21  161.51 125.37 200.19  161.49
   2   1   9 810.420 121.161   2-0.08827 0.34325-0.83363 0.93311 0.54523 0.10718  0 125.13 198.94   76.74 125.09 198.78   77.28
  -2  -1 -10  2305.9   245.3   2-0.02669-0.22820 0.85270-0.95222-0.52172-0.20301  0 280.58  18.97  259.77 280.74  19.05  260.03
  -2  -1  10  2526.8   202.5   1-0.44860 0.19332-0.88352 0.78416 0.13469 0.58968  0 152.49  99.64  130.39 152.63  99.81  129.97
  -2  -1  10  2315.6   260.5   2-0.03041-0.22458-0.96198 0.86250 0.27141 0.45349  0 199.36  56.76   94.87 199.33  56.88   95.01
  -2  -1  10  2399.4   296.4   2-0.20182-0.05299 0.86379-0.96326 0.46167 0.26329  2 503.10 459.60  320.38 504.01 460.09  320.03
  -2   1 -10  2472.5   250.4   2-0.08264-0.17226 0.96404-0.86453-0.25258-0.47215  0 274.87  20.58  277.25 275.04  20.65  277.10
  -2   1  10  2546.2   172.0   1-0.18780-0.06754-0.86437 0.96375 0.46647 0.25811  0 185.94  67.37  154.28 186.09  67.47  154.34
  -2   1  10  2519.5   269.9   2-0.07912-0.17587-0.85990 0.95938 0.50430 0.22060  0 195.49  59.32   79.86 195.47  59.55   80.11
  -2   1  10  2369.6   306.6   2-0.16693-0.08788 0.96027-0.86079 0.22365 0.50131  0 498.93 463.37  305.33 498.90 463.43  305.09
   2  -1 -10  1750.0   189.4   1-0.69565 0.95066-0.38569 0.28635-0.60606-0.11937  0 440.63 492.75   74.69 441.00 492.56   74.82
   2  -1 -10  2265.2   283.8   2 0.06327 0.19178-0.96373 0.86417-0.25925-0.46522  0 412.90 499.52  126.27 412.84 499.77  126.28
   2  -1 -10  2639.7   251.8   2-0.02307 0.27796 0.84272-0.94224-0.53785-0.18687  0 143.25 110.79  258.79 143.11 110.70  258.92
   2  -1  10  2359.5   224.1   1-0.26187 0.51715-0.88504 0.78568 0.38487 0.33950  0  98.22 211.98  148.09  97.89 211.91  147.91
   2  -1  10  2324.9   199.0   2-0.03518 0.29017-0.95470 0.85522 0.29548 0.42942  0 105.72 181.04   93.56 105.24 181.12   93.54
   2  -1  10  2076.0   242.2   2-0.21876 0.47357 0.77192-0.87139 0.59689 0.12807  2 311.93 504.28  329.47 312.01 504.64  329.49
   2   1 -10  1835.8   230.4   1-0.67810 0.93311-0.25831 0.35765-0.68808-0.03736  0 494.93 466.57   66.28 495.01 466.59   66.08
   2   1 -10  2475.8   286.4   2 0.09767 0.15738-0.86165 0.96122-0.49801-0.22647  2 407.04 500.82  140.87 407.24 501.12  141.33
   2   1 -10  1905.0   231.0   2-0.07154 0.32643 0.94838-0.84887-0.30895-0.41577  0 140.61 114.41  273.72 140.34 114.32  273.68
   2   1  10  2547.8   222.2   1-0.09232 0.34766-0.82361 0.92299 0.55959 0.16499  0 104.51 186.19  162.33 104.41 186.17  162.34
   2   1  10  2556.3   207.3   2-0.09148 0.34647-0.82386 0.92334 0.55936 0.16553  0 103.81 185.92   76.13 103.70 185.87   76.28
   2   1  10  2208.5   247.7   2-0.18685 0.44166 0.91638-0.81691 0.35402 0.37094  2 305.95 503.33  312.74 305.79 503.68  313.08
  -2  -1  11 421.536 147.210   1-0.40105 0.14577-0.89266 0.79330 0.20568 0.59112  0 132.66  76.87  134.60 132.73  77.15  134.88
  -2  -1  11 696.520 203.738   2-0.03909-0.21590-0.94833 0.84885 0.31486 0.48253  0 178.20  32.55   92.42 178.01  32.32   92.35
  -2   1  11 455.336 130.249   1-0.15164-0.10370-0.85081 0.95019 0.50312 0.29391  0 167.46  41.72  157.47 167.46  41.90  157.39
  -2   1  11 655.371 204.352   2-0.08364-0.17135-0.84722 0.94670 0.52462 0.27277  0 174.12  35.96   79.06 174.09  35.42   78.72
   2  -1 -11 471.314 180.578   2-0.01910 0.27399 0.83134-0.93085-0.55544-0.24175  0 125.56  85.49  258.19 125.20  85.36  257.69
   2  -1  11 477.412 168.766   1-0.23800 0.49334-0.87946 0.78008 0.41220 0.38483  0  72.73 197.56  150.29  72.90 197.40  150.02
   2  -1  11 549.254 146.484   2-0.04478 0.29977-0.93829 0.83881 0.34293 0.45445  0  81.01 166.82   90.63  80.72 166.96   90.61
   2   1 -11 445.700 175.503   2-0.06341 0.31831 0.93493-0.83541-0.34913-0.44807  0 121.99  88.80  271.49 122.23  89.17  271.21
   2   1  11 603.414 166.816   1-0.07799 0.33332-0.81628 0.91566 0.57237 0.22466  0  80.40 169.92  163.43  80.59 170.00  163.52
   2   1  11 488.050 142.770   2-0.09560 0.35058-0.81085 0.91033 0.57740 0.21999  0  79.25 171.96   75.00  79.09 171.93   74.99
  -2  -1  12 328.170 168.446   1-0.35295 0.09767-0.89530 0.79593 0.27179 0.59745  0 109.69  49.13  139.60 109.94  49.44  139.57
  -2   1  12 350.286 158.524   1-0.11341-0.14192-0.83403 0.93341 0.53994 0.32955  2 146.75  11.10  160.34 146.88  10.23  160.58
  -2   1  12 232.214 256.643   2-0.08871-0.16628-0.83230 0.93178 0.54718 0.32270  2 149.28   7.87   77.10 149.16   6.91   77.14
   2  -1 -12 351.849 213.449   2-0.01445 0.26935 0.81756-0.91707-0.57567-0.29400  0 103.32  55.24  255.85 103.78  55.76  256.27
   2  -1  12 317.676 173.140   1-0.21231 0.46764-0.87226 0.77288 0.44056 0.42892  0  43.94 180.37  152.36  44.19 180.50  152.25
   2  -1  12 301.495 160.565   2-0.05425 0.30924-0.91976 0.82028 0.38872 0.48116  0  52.09 151.10   87.62  51.82 151.26   87.72
   2   1 -12 502.318 221.045   2-0.05527 0.31016 0.91964-0.82013-0.38885-0.48082  0 100.86  60.18  268.49 100.56  59.90  268.72
   2   1  12 305.957 186.617   1-0.06039 0.31572-0.80671 0.90609 0.58785 0.28164  0  53.22 150.95  164.88  53.03 150.87  164.97
   2   1  12 397.395 159.913   2-0.10045 0.35544-0.79491 0.89439 0.59835 0.27152  0  49.57 156.64   73.66  50.09 156.55   73.45
  -2  -2   0 12270.6   200.9   1-0.44343 0.18845 0.30629-0.50490-0.84236 0.84236  0 226.36 235.82   29.17 226.32 235.80   29.35
  -2  -2   0 13551.3   162.3   2-0.22835-0.02657 0.02988-0.22875 0.97312-0.97312  0 387.16 256.64   19.45 387.49 256.70   18.97
  -2  -2   0 13474.1   162.1   2 0.13561-0.39063-0.43671 0.23772-0.88932 0.88932  0 328.15 180.44  174.83 328.19 180.55  175.02
  -2   2   0 10966.8   143.3   1-0.68192 0.42691-0.61223 0.81092-0.40020 0.40020  0 344.57 186.82   92.38 344.52 186.97   92.42
  -2   2   0 14632.8   185.5   2-0.22438-0.03054-0.02480 0.22367 0.97419-0.97419  0 316.20 177.89   21.72 316.29 178.02   22.11
  -2   2   0 12365.0   171.1   2 0.08149-0.33647 0.36724-0.16820-0.92655 0.92655  0 386.34 269.33  222.74 386.59 269.31  222.60
   2  -2   0 11167.2   144.9   1-0.47599 0.73127-0.87476 0.67603 0.09070-0.09070  0 258.25 324.14  126.99 258.39 324.07  126.95
   2  -2   0 12469.9   169.8   2-0.17000 0.42499-0.48076 0.28180 0.86022-0.86022  0 281.31 335.26   49.43 281.42 335.19   49.48
   2  -2   0 13412.6   173.5   2 0.12748 0.12754-0.09953-0.09946-0.98683 0.98683  0 223.29 249.90  195.03 223.16 249.81  195.25
   2   2   0  9941.7   187.7   1-0.23828 0.49326 0.56888-0.37027-0.78714 0.78714  0 383.74 282.93    9.99 383.80 282.87    9.92
   2   2   0 13248.5   157.9   2 0.11074 0.14425 0.12098 0.07805-0.98646 0.98646  0 269.89 331.03  207.99 270.01 330.82  207.93
   2   2   0 12058.0   149.0   2-0.23723 0.49204 0.56649-0.36754 0.78919-0.78919  0 222.92 261.51  345.95 222.85 261.46  345.74
  -2  -2  -1  9761.4   186.5   1-0.33600 0.08102 0.45621-0.65482-0.82400 0.75143  0 222.30 245.07   18.98 222.25 245.10   18.72
  -2  -2  -1  9947.3   139.6   2-0.18761-0.06731-0.36792 0.16904 0.91074-0.98331  0 389.55 253.58   42.08 389.94 253.67   42.33
  -2  -2  -1  9223.5   135.2   2 0.12622-0.38124-0.07765-0.12134-0.98896 0.91648  0 331.75 179.19  196.49 331.76 179.28  196.51
  -2  -2   1  8801.3   170.3   1-0.54680 0.29182 0.12312-0.32174-0.82816 0.90074  0 227.62 226.42   41.35 227.57 226.39   41.45
  -2  -2   1 10044.4   154.1   2 0.12330-0.37832-0.69289 0.49390-0.71042 0.78290  0 320.83 176.42  156.60 320.91 176.52  157.01
  -2   2  -1  8693.0   153.2   1-0.65976 0.40475-0.68410 0.88279-0.31101 0.23846  0 362.05 195.94   98.70 361.99 196.08   99.10
  -2   2  -1  9930.9   155.2   2-0.23975-0.01517 0.30507-0.10619 0.92166-0.99423  0 319.30 176.13    3.00 319.36 176.23    2.84
  -2   2  -1  9284.7   149.6   2 0.11589-0.37087 0.06356 0.13548-0.99123 0.91875  0 389.20 266.86  204.76 389.44 266.87  204.61
  -2   2   1  8533.5    99.3   1-0.69674 0.44173-0.40080 0.59949-0.59491 0.66745  0 326.89 177.57   75.95 326.87 177.74   75.89
  -2   2   1 10432.4   169.9   2-0.19502-0.05990-0.31310 0.51197 0.92948-0.85691  0 309.90 175.07   39.00 310.04 175.21   38.98
  -2   2   1  9781.7   164.2   2 0.03858-0.29356 0.61286-0.41383-0.78925 0.86172  0 387.60 276.59  239.00 387.83 276.55  238.96
   2  -2  -1  9362.5   104.6   1-0.42960 0.68488-0.88805 0.68933 0.16371-0.23615  0 274.08 334.84  131.95 274.18 334.74  131.97
   2  -2  -1 10467.4   166.8   2-0.12685 0.38184-0.69611 0.49715 0.70664-0.77913  0 287.33 338.90   65.22 287.39 338.83   64.90
   2  -2  -1 10650.3   165.3   2 0.10164 0.15334 0.20839-0.40743-0.97275 0.90027  0 222.26 243.56  212.71 222.13 243.47  213.02
   2  -2   1  8776.6   150.7   1-0.48470 0.73998-0.87134 0.67262 0.07631-0.00388  0 243.71 314.11  125.99 243.59 314.06  125.97
   2  -2   1  9911.1   153.1   2-0.20900 0.46391-0.19420-0.00467 0.95844-0.88587  0 278.23 336.53   32.43 278.33 336.40   31.94
   2  -2   1  8756.4   140.7   2 0.13583 0.11919-0.42756 0.22857-0.89372 0.96620  0 221.12 252.19  175.66 221.00 252.12  175.59
   2   2  -1  9217.6   179.4   1-0.35614 0.61112 0.43038-0.23176-0.82942 0.75685  0 382.29 293.50   20.66 382.22 293.47   20.62
   2   2  -1  9825.3   150.5   2 0.13371 0.12130-0.24502 0.44401-0.96025 0.88777  0 276.70 335.97  186.91 276.78 335.81  186.73
   2   2  -1  8647.1   138.6   2-0.21862 0.47343 0.77292-0.57397 0.59565-0.66815  0 221.01 253.92  329.31 220.96 253.88  329.40
   2   2   1  9507.9   131.2   2-0.23826 0.49318 0.23785-0.03898 0.94163-0.86905  0 221.12 264.30    6.98 221.01 264.20    6.86
   2   2   1 10237.1   138.7   2 0.05786 0.19713 0.51365-0.31461-0.85605 0.92853  0 266.43 331.70  232.00 266.55 331.48  232.01
  -2  -2  -2 51811.8   437.0   1-0.23969-0.01529 0.56740-0.76602-0.78778 0.64264  0 215.75 254.38   10.04 215.68 254.36   10.04
  -2  -2  -2 49625.0   424.3   1-0.00457-0.25076-0.77293 0.57417 0.63447-0.77939  0 397.44 253.17  169.65 397.72 253.18  169.55
  -2  -2  -2 53921.0   331.0   2-0.13169-0.12330-0.67555 0.47660 0.72545-0.87043  0 397.02 256.34   63.03 397.36 256.44   63.28
  -2  -2  -2 51239.8   322.8   2 0.09542-0.35040 0.26161-0.46064-0.96045 0.81549  0 331.40 172.19  216.01 331.38 172.30  216.17
  -2  -2   2 45948.1   381.1   1-0.62860 0.37359-0.07449-0.12419-0.77416 0.91924  0 225.89 216.83   54.00 225.83 216.84   54.10
  -2  -2   2 48271.8   359.0   2 0.10282-0.35787-0.83765 0.63851-0.53645 0.68134  0 311.17 168.78  144.22 311.24 168.85  143.94
  -2  -2   2 48058.8   356.6   2-0.23732-0.01749 0.56459-0.76354 0.79052-0.64553  0 395.02 277.49  346.16 395.32 277.58  345.87
  -2   2  -2 43465.5   363.7   1-0.64696 0.39168-0.71266 0.91138-0.27123 0.12636  0 380.21 205.09  101.84 380.21 205.19  102.03
  -2   2  -2 47994.2   340.6   2 0.13306-0.38808-0.21807 0.41706-0.96682 0.82186  0 396.33 269.35  188.18 396.59 269.36  188.33
  -2   2  -2 46328.1   336.1   2-0.23651-0.01830 0.58044-0.38150 0.77920-0.92419  0 319.06 169.59  344.81 319.13 169.73  344.75
  -2   2   2 49700.4   380.2   2-0.16476-0.09023-0.51045 0.70941 0.84398-0.69900  0 301.23 168.74   51.46 301.36 168.90   51.45
  -2   2   2 47567.5   371.6   2-0.00124-0.25366 0.77456-0.57553-0.63250 0.77745  0 392.04 287.64  251.98 392.23 287.58  252.11
   2  -2  -2 49177.6   374.3   2 0.07169 0.18330 0.43122-0.63026-0.89939 0.75444  0 218.69 234.13  226.71 218.57 234.05  226.63
   2  -2   2 38951.4   343.5   1-0.48063 0.73591-0.87298 0.67425 0.08307 0.06181  0 229.12 304.53  126.34 229.02 304.50  126.43
   2  -2   2 46224.7   330.5   2-0.23204 0.48696 0.09341-0.29228 0.96821-0.82307  0 278.15 342.94   15.07 278.21 342.81   15.31
   2  -2   2 48411.8   338.2   2 0.12427 0.13075-0.68169 0.48270-0.72101 0.86597  0 215.65 250.35  158.26 215.53 250.31  157.90
   2   2  -2 41591.9   362.8   1-0.45628 0.71126 0.28600-0.08738-0.84262 0.69747  0 384.32 304.52   30.98 384.49 304.47   30.73
   2   2  -2 48299.4   353.9   2 0.13471 0.12031-0.48599 0.68498-0.86352 0.71856  0 285.75 344.90  171.89 285.84 344.74  171.82
   2   2  -2 44110.5   338.1   2-0.19746 0.45227 0.88129-0.68235 0.42934-0.57433  0 216.60 243.27  318.18 216.53 243.25  317.90
   2   2   2 52512.6   319.3   2-0.21704 0.47196-0.11360 0.31247 0.96953-0.82439  0 215.35 262.05   27.03 215.25 261.96   27.24
   2   2   2 45479.7   298.3   2-0.00185 0.25674 0.77664-0.57761-0.62994 0.77489  0 266.53 338.44  252.10 266.66 338.21  252.30
  -2  -2  -3 33601.7   369.5   1-0.16138-0.09360 0.64432-0.84293-0.74753 0.52981  0 207.14 263.72    3.20 207.06 263.72    3.33
  -2  -2  -3 37746.1   392.7   1-0.11090-0.14443-0.83284 0.63408 0.54228-0.75966  0 409.27 264.03  160.93 409.47 264.04  160.79
  -2  -2  -3 37196.3   306.0   2-0.08353-0.17146-0.84754 0.64858 0.52411-0.74158  0 408.75 263.55   78.95 409.02 263.64   78.75
  -2  -2  -3 34004.5   293.2   2 0.06209-0.31708 0.48921-0.68824-0.86995 0.65252  0 328.11 160.74  230.18 328.12 160.86  230.39
  -2  -2   3 28978.7   313.4   1-0.67885 0.42384-0.26218 0.06349-0.68588 0.90351  0 221.33 207.00   66.01 221.25 207.02   66.34
  -2  -2   3 32577.6   329.2   2 0.08316-0.33821-0.91611 0.71697-0.39221 0.60956  0 300.11 158.91  134.39 300.19 159.02  134.46
  -2  -2   3 31335.6   321.8   2-0.22957-0.02523 0.67697-0.87591 0.69929-0.48181  0 402.84 292.42  337.60 403.12 292.50  337.54
  -2   2  -3 31891.2   348.5   1-0.64195 0.38667-0.72267 0.92140-0.25623 0.03892  0 399.17 214.41  102.87 399.46 214.49  103.10
  -2   2  -3 35831.7   320.5   2 0.13587-0.39089-0.42308 0.62206-0.89585 0.67841  0 407.25 275.86  176.07 407.52 275.88  175.88
  -2   2  -3 33552.4   312.2   2-0.21994-0.03486 0.76355-0.56460 0.60714-0.82463  0 316.31 159.05  330.16 316.39 159.23  330.25
  -2   2   3 37199.8   363.2   2-0.14129-0.11370-0.63211 0.83107 0.76189-0.54442  0 290.97 159.96   60.11 291.13 160.13   59.98
  -2   2   3 33969.9   345.8   2-0.03398-0.22092 0.87180-0.67277-0.48868 0.70610  0 398.87 301.53  262.15 399.05 301.47  262.25
   2  -2  -3 18135.9   255.2   2-0.05929 0.31428-0.90890 0.70994 0.41278-0.63025  0 305.69 357.07   86.00 305.74 357.03   86.18
   2  -2  -3 35346.1   348.7   2 0.04677 0.20821 0.57252-0.77156-0.81855 0.60112  0 213.32 222.63  235.95 213.22 222.58  236.06
   2  -2   3 27969.7   323.8   1-0.47031 0.72559-0.87680 0.67807 0.10012 0.11719  0 214.40 295.25  127.60 214.35 295.22  127.59
   2  -2   3 33649.9   307.9   2-0.23994 0.49486 0.31552-0.51440 0.91808-0.70037  0 280.34 353.66    2.01 280.40 353.48    2.21
   2  -2   3 34832.6   311.3   2 0.10300 0.15205-0.83669 0.63756-0.53791 0.75525  0 207.42 245.28  143.86 207.30 245.26  144.04
   2   2  -3 29038.5   316.5   1-0.53208 0.78706 0.15240 0.04621-0.83286 0.61514  0 390.19 316.22   39.49 390.46 316.17   39.55
   2   2  -3 31234.4   317.6   2-0.17865 0.43346 0.93734-0.73839 0.29912-0.51661  0 210.50 230.83  309.79 210.44 230.81  309.68
   2   2   3 34579.4   288.5   2-0.18690 0.44182-0.37324 0.57212 0.90871-0.69100  0 206.57 256.15   42.77 206.48 256.09   42.65
   2   2   3 29461.6   268.1   2-0.04814 0.30303 0.90496-0.70593-0.42277 0.64018  0 269.11 349.90  266.65 269.23 349.70  266.56
  -2  -2  -4  4034.8   156.2   1-0.20342-0.05192-0.86956 0.67080 0.44999-0.73982  0 423.91 275.53  153.01 424.17 275.53  153.01
  -2  -2  -4  3693.1   130.5   2-0.04761-0.20738-0.93300 0.73404 0.35670-0.64666  0 423.67 273.72   89.79 423.89 273.79   89.75
  -2  -2  -4  3354.4   124.7   2 0.03706-0.29204 0.62005-0.81908-0.78369 0.49378  0 323.15 146.35  239.46 323.17 146.47  239.49
  -2  -2   4  2932.2   119.0   1-0.69780 0.44279-0.42324 0.22456-0.57787 0.86805  0 214.28 196.75   77.36 214.15 196.77   77.51
  -2  -2   4  3644.6   148.1   2 0.06582-0.32088-0.95904 0.75991-0.27553 0.56532  0 288.15 147.53  127.15 288.25 147.67  127.27
  -2  -2   4  3260.7   144.3   2-0.22320-0.03161 0.73878-0.93773 0.63592-0.34593  0 412.34 309.37  332.47 412.65 309.42  332.44
  -2   2  -4  3359.2   155.1   1-0.64181 0.38653-0.72292 0.92165-0.25584-0.03390  0 420.03 224.06  103.05 420.29 224.14  103.13
  -2   2  -4  3607.2   135.3   2 0.13251-0.38753-0.55378 0.75277-0.82206 0.53213  0 421.38 285.42  166.99 421.58 285.40  167.26
  -2   2  -4  3359.9   133.0   2-0.20006-0.05475 0.87121-0.67226 0.44831-0.73829  0 311.86 145.58  318.64 311.94 145.77  319.14
  -2   2   4  3653.1   151.2   2-0.12490-0.13009-0.70433 0.90329 0.69880-0.40884  0 279.59 149.45   65.59 279.77 149.61   65.56
  -2   2   4  3286.4   151.7   2-0.06013-0.19477 0.92894-0.72991-0.36532 0.65521  0 407.59 317.71  270.12 407.70 317.62  270.20
   2  -2  -4  3651.5   152.2   2-0.03565 0.29064-0.95395 0.75499 0.29785-0.58781  0 317.09 370.11   93.35 317.09 370.03   93.39
   2  -2  -4  3302.7   132.1   2 0.02859 0.22639 0.65830-0.85733-0.75221 0.46230  0 206.58 209.64  242.37 206.50 209.65  242.37
   2  -2   4  3167.8   137.4   1-0.45610 0.71138-0.88142 0.68269 0.12279 0.16696  0 199.40 286.07  129.23 199.35 286.07  129.15
   2  -2   4  3458.0   120.1   2 0.08131 0.17374-0.92168 0.72254-0.37935 0.66914  0 197.18 238.06  133.67 197.05 238.07  133.65
   2  -2   4  3289.5   130.7   2-0.24057 0.49538 0.46248-0.66131 0.85337-0.56327  0 283.98 367.64  353.24 284.08 367.49  352.75
   2   2  -4  2806.1   133.3   1-0.58444 0.83942 0.04094 0.15768-0.81040 0.52011  0 399.57 328.95   46.94 399.89 328.93   46.72
   2   2  -4  3649.5   148.2   2 0.12230 0.13272-0.70315 0.90214-0.70044 0.41052  0 307.93 370.34  155.82 308.01 370.16  156.19
   2   2  -4  2921.9   123.0   2-0.16247 0.41728 0.96714-0.76819 0.19557-0.48555  0 203.15 217.22  303.45 203.15 217.23  303.41
   2   2   4  3717.3   118.7   2-0.16098 0.41597-0.53150 0.73046 0.83162-0.54166  0 195.74 248.22   53.01 195.64 248.20   52.86
   2   2   4  3065.5   118.8   2-0.08042 0.33532 0.96120-0.76217-0.26388 0.55377  0 273.09 364.62  276.31 273.19 364.43  276.42
  -2  -2  -5  7654.6   226.3   1-0.28213 0.02685-0.88887 0.69014 0.36099-0.72318  0 441.56 287.97  146.17 441.73 287.92  146.11
  -2  -2  -5  7214.9   187.2   2-0.02120-0.23378-0.97431 0.77535 0.22422-0.58667  0 441.46 285.98   97.93 441.61 286.09   97.84
  -2  -2  -5  6962.9   186.7   2 0.02041-0.27540 0.69307-0.89211-0.72058 0.35819  0 317.22 129.64  245.12 317.27 129.81  245.11
  -2  -2   5  5880.3   167.5   1-0.69262 0.43761-0.55224 0.35355-0.46402 0.82674  0 205.06 185.86   87.12 204.93 185.91   87.37
  -2  -2   5  6698.2   204.9   2 0.05054-0.30560-0.98257 0.78343-0.17891 0.54115  0 275.46 134.86  121.45 275.60 135.05  121.50
  -2  -2   5  6438.5   204.8   2-0.21864-0.03617 0.77277-0.97172 0.59584-0.23336  0 423.55 328.20  329.42 423.82 328.26  329.41
  -2   2  -5  6293.5   213.0   1-0.64476 0.38948-0.71712 0.91585-0.26461-0.09757  0 442.95 234.37  102.47 443.20 234.37  102.50
  -2   2  -5  6562.2   185.6   2 0.12809-0.38311-0.63315 0.83214-0.76335 0.40095  0 438.34 297.28  161.56 438.53 297.28  161.60
  -2   2  -5  6077.0   180.2   2-0.18079-0.07402 0.93226-0.73332 0.31337-0.67585  0 306.29 129.80  310.60 306.35 129.94  310.56
  -2   2   5  7387.8   221.7   2-0.11406-0.14093-0.74678 0.94574 0.65522-0.29277  0 267.33 137.55   68.86 267.50 137.68   69.10
  -2   2   5  6506.1   209.9   2-0.08117-0.17373 0.96217-0.76314-0.26008 0.62245  0 417.97 336.01  276.72 418.10 335.92  276.64
   2  -2  -5  6899.1    79.6   1-0.29045 0.54543 0.51088-0.70950-0.80910 0.44623  0 281.54 382.63   14.83 281.52 382.39   14.55
   2  -2  -5  4797.3    69.1   1-0.69653 0.95153-0.39745 0.19876-0.59740 0.23468  0 319.86 386.40   75.57 320.05 386.22   75.65
   2  -2  -5  7525.9   219.4   2-0.01663 0.27162-0.97956 0.78060 0.20048-0.56293  0 329.73 385.41   99.15 329.72 385.28   99.26
   2  -2  -5  6181.2   186.8   2 0.01623 0.23875 0.70995-0.90898-0.70407 0.34168  0 198.71 195.52  246.50 198.63 195.52  246.48
   2  -2   5  6407.6   197.4   1-0.43927 0.69455-0.88590 0.68717 0.14910 0.21308  0 183.83 276.89  130.97 183.83 276.89  130.96
   2  -2   5  6760.2   176.2   2 0.06169 0.19336-0.96651 0.76738-0.24911 0.61135  0 185.27 229.52  125.72 185.16 229.54  125.67
   2  -2   5  6231.5   180.4   2-0.23772 0.49253 0.55503-0.75398 0.79714-0.43466  0 288.52 384.34  346.54 288.63 384.21  346.54
   2   2  -5  5477.2   186.1   1-0.61822 0.87323-0.04502 0.24371-0.78472 0.42200  0 412.30 343.03   51.88 412.53 343.06   52.21
   2   2  -5  6520.0   201.3   2 0.11732 0.13770-0.74772 0.94671-0.65356 0.29116  0 320.66 386.22  152.41 320.66 386.02  152.47
   2   2  -5  6067.2   184.1   2-0.14840 0.40329 0.98280-0.78377 0.10993-0.47229  0 194.85 202.69  298.38 194.83 202.68  298.37
   2   2   5  7166.3   172.2   2-0.14312 0.39810-0.62360 0.82256 0.76853-0.40608  0 183.34 239.13   59.27 183.30 239.09   59.35
   2   2   5  6310.0   174.9   2-0.10379 0.35868 0.98438-0.78536-0.14218 0.50454  0 277.79 381.97  283.70 277.88 381.71  283.65
  -2  -2  -6 26978.6   408.8   1-0.34919 0.09391-0.89526 0.69653 0.27674-0.71136  0 462.33 301.82  140.00 462.49 301.73  139.93
  -2  -2  -6 26790.5   361.6   2-0.00106-0.25400-0.99304 0.79391 0.11776-0.55244  0 462.08 300.21  103.80 462.18 300.18  104.18
  -2  -2  -6 24181.2   344.2   2 0.01019-0.26517 0.73362-0.93265-0.67949 0.24462  0 310.70 110.94  248.41 310.77 111.13  248.48
  -2  -2   6 23649.0   337.3   1-0.67118 0.41617-0.65181 0.45312-0.35308 0.78834  0 194.00 174.21   96.09 193.90 174.27   96.00
  -2  -2   6 25446.8   393.0   2 0.03686-0.29191-0.99467 0.79554-0.09626 0.53095  0 262.03 120.99  116.63 262.19 121.17  116.64
  -2  -2   6 24413.3   387.7   2-0.21594-0.03886 0.79075-0.98970 0.57279-0.13781  0 436.53 349.22  327.92 436.75 349.26  327.72
  -2   2  -6 23399.7   392.8   1-0.64960 0.39432-0.70705 0.90578-0.27946-0.15516  0 468.63 245.46  101.37 468.82 245.45  101.44
  -2   2  -6 25805.7   365.6   2 0.12438-0.37940-0.68054 0.87953-0.72207 0.28719  0 458.22 311.32  158.29 458.44 311.28  157.99
  -2   2  -6 22372.2   341.9   2-0.16316-0.09165 0.96614-0.76720 0.19985-0.63483  0 299.96 111.81  303.75 300.03 111.98  303.67
  -2   2   6 29516.2   415.4   2-0.10741-0.14757-0.77116 0.97012 0.62751-0.19257  0 254.55 124.22   71.10 254.34 124.39   71.26
  -2   2   6 24757.6   396.4   2-0.09873-0.15617 0.98065-0.78162-0.16906 0.60389  0 430.10 356.63  281.88 430.23 356.53  282.07
   2  -2  -6 16946.3   166.6   1-0.69765 0.95266-0.48984 0.29116-0.52281 0.08755  0 339.02 404.03   82.41 339.23 403.87   82.45
   2  -2  -6 26133.9   401.5   2-0.00086 0.25591-0.99317 0.79404 0.11669-0.55138  0 343.75 403.06  103.88 343.65 402.83  104.24
   2  -2  -6 25295.9   383.4   2 0.00831 0.24667 0.74064-0.93968-0.67185 0.23698  0 189.67 180.21  249.06 189.63 180.24  249.08
   2  -2   6 23702.6   382.4   1-0.42028 0.67556-0.88983 0.69110 0.17770 0.25692  0 167.53 267.51  132.94 167.53 267.53  132.93
   2  -2   6 25874.5   351.9   2 0.04438 0.21067-0.98897 0.78984-0.14131 0.57600  0 171.85 220.00  119.09 171.80 220.03  119.28
   2  -2   6 -27.525  65.660   2-0.23452 0.48933 0.61229-0.81124 0.75505-0.32008  2 293.72 403.63  342.29 293.79 403.55  342.45
   2   2  -6 19684.3   323.8   1-0.63942 0.89443-0.10739 0.30607-0.76132 0.32606  0 428.13 359.07   56.00 428.40 359.02   56.21
   2   2  -6 27250.2   403.3   2 0.11408 0.14094-0.77272 0.97171-0.62442 0.18954  0 334.55 404.37  150.04 334.55 404.15  150.26
   2   2  -6 23258.5   365.6   2-0.13570 0.39059 0.99010-0.79107 0.03596-0.47080  0 185.50 187.15  293.86 185.44 187.17  294.05
   2   2   6 25661.0   389.0   1 0.03106 0.22428-0.74891 0.94767 0.66194-0.22720  0 171.54 223.03  172.44 171.55 223.08  172.47
   2   2   6 26240.6   342.8   2-0.13140 0.38639-0.67679 0.87575 0.72435-0.28941  0 169.60 229.29   63.34 169.57 229.26   63.37
   2   2   6 22827.3   330.6   2-0.12153 0.37643 0.99157-0.79254-0.04494 0.47977  0 282.94 401.66  289.35 283.00 401.41  289.34
  -2  -2  -7 826.645 152.773   1-0.40670 0.15142-0.89194 0.69321 0.19759-0.70465  0 486.91 317.62  134.00 486.83 317.43  134.31
  -2  -2  -7 840.566 126.289   2 0.01534-0.27039-0.99949 0.80036 0.02795-0.53508  0 486.32 316.38  109.43 486.35 316.42  109.42
  -2  -2  -7 666.727 117.891   2 0.00423-0.25913 0.75542-0.95445-0.65523 0.14792  0 303.82  90.00  250.41 303.74  90.34  250.38
  -2  -2   7 732.222  98.066   1-0.63986 0.38458-0.72662 0.52790-0.25019 0.75725  0 181.29 161.57  103.53 181.36 161.58  103.53
  -2  -2   7 753.296 119.378   2 0.02431-0.27937-0.99943 0.80030-0.02341 0.53055  0 248.17 106.02  112.38 247.87 105.90  112.40
  -2  -2   7 782.014 145.732   2-0.21468-0.04013 0.79876-0.99770 0.56205-0.05458  0 451.57 372.72  326.70 451.74 372.87  326.94
  -2   2  -7 701.165 149.667   1-0.65556 0.40028-0.69363 0.89236-0.29854-0.20852  0 497.77 257.88  100.26 497.96 257.82  100.06
  -2   2  -7 747.093 127.304   2 0.12182-0.37684-0.70794 0.90693-0.69568 0.18832  0 482.00 327.60  155.70 481.82 327.54  155.80
  -2   2  -7 650.403 120.603   2-0.14727-0.10762 0.98370-0.78467 0.10320-0.61050  0 293.11  91.65  297.74 293.13  91.81  297.98
  -2   2   7 862.879 123.176   2-0.10368-0.15131-0.78397 0.98293 0.61208-0.10465  0 240.28 109.37   72.44 240.19 109.69   72.43
  -2   2   7 713.350 146.785   2-0.11368-0.14122 0.98956-0.79053-0.08862 0.59592  0 444.49 379.89  286.61 444.38 379.87  286.79
   2  -2  -7 555.729  72.181   1-0.69708 0.95209-0.50451 0.30583-0.50946 0.00166  0 357.52 424.15   83.63 357.59 424.07   83.58
   2  -2  -7 793.364 146.478   2 0.01284 0.24221-0.99904 0.79990 0.04194-0.54908  0 359.15 423.31  108.60 359.25 423.25  108.60
   2  -2  -7 706.081 111.513   2 0.00353 0.25137 0.75794-0.95697-0.65232 0.14501  0 179.55 163.43  250.62 179.42 163.66  250.60
   2  -2   7 692.112 109.098   1-0.39948 0.65476-0.89285 0.69412 0.20792 0.29913  0 150.04 257.84  135.15 150.23 257.81  135.04
   2  -2   7 845.733 107.403   2 0.02882 0.22623-0.99835 0.79922-0.04971 0.55684  0 157.04 209.63  113.76 156.89 209.74  113.93
   2   2  -7 596.772 129.337   1-0.65221 0.90722-0.15006 0.34875-0.74304 0.23523  0 447.41 377.58   59.27 447.50 377.47   58.97
   2   2  -7 759.590 144.069   2 0.11173 0.14333-0.78529 0.98442-0.60896 0.10183  0 350.03 424.98  148.88 349.88 425.03  149.09
   2   2  -7 835.894 119.545   2-0.12421 0.37910 0.99180-0.79277-0.03003-0.47728  0 174.96 170.61  290.39 174.89 170.51  290.20
   2   2   7 830.796 119.160   1 0.01325 0.24208-0.76116 0.95992 0.64842-0.14122  0 156.82 212.12  171.14 156.78 212.11  171.01
   2   2   7 826.930 100.061   2-0.12429 0.37928-0.70682 0.90578 0.69639-0.18896  0 154.46 218.82   65.71 154.37 218.80   65.76
   2   2   7 921.672 129.207   2-0.13580 0.39069 0.99006-0.79103 0.03653 0.47077  0 288.44 423.96  294.30 288.39 423.78  294.08
  -2  -2  -8  2943.5   226.8   2 0.00139-0.25629 0.76547-0.96450-0.64347 0.06369  0 296.24  66.67  251.31 296.28  66.92  251.28
  -2  -2   8  2749.4   175.7   1-0.60259 0.34731-0.78307 0.58434-0.15394 0.73344  0 166.91 147.39  110.09 167.00 147.42  110.27
  -2  -2   8  3267.5   215.4   2 0.01275-0.26780-0.99902 0.79988 0.04249 0.53709  0 232.53  88.81  108.56 232.44  88.99  108.57
  -2  -2   8  2915.7   272.5   2-0.21447-0.04034 0.80005-0.99899 0.56030 0.01967  0 469.23 399.75  327.17 469.28 399.86  326.82
  -2   2  -8  2782.6   234.2   2-0.13267-0.12223 0.99099-0.79196 0.01844-0.59821  0 285.45  68.75  292.79 285.54  69.02  293.03
  -2   2   8  3131.2   122.4   1 0.01067-0.26600-0.76290 0.96166 0.64643-0.06677  0 232.11  89.18  170.83 232.32  89.48  170.80
  -2   2   8  3585.4   223.7   2-0.10222-0.15277-0.78896 0.98792 0.60588-0.02596  0 224.85  93.29   72.81 224.80  93.31   72.89
  -2   2   8  2781.6   280.0   2-0.12667-0.12822 0.99181-0.79279-0.01608 0.59586  0 460.86 406.74  290.88 461.04 406.67  291.02
   2  -2  -8  2179.5   141.6   1-0.69749 0.95250-0.49650 0.29782-0.51671-0.06364  0 376.75 447.74   83.01 376.86 447.79   82.97
   2  -2  -8  3260.0   268.5   2 0.02471 0.23034-0.99936 0.80023-0.02589-0.55369  0 377.12 447.31  112.52 376.94 447.13  112.54
   2  -2  -8  3060.9   203.5   2 0.00118 0.25371 0.76621-0.96524-0.64259 0.06281  0 167.88 145.52  251.32 167.83 145.56  251.35
   2  -2   8  2989.9   191.4   1-0.37700 0.63228-0.89477 0.69604 0.23928 0.34022  0 131.44 247.47  137.20 131.59 247.53  137.25
   2  -2   8  3155.3   182.5   2 0.01495 0.24010-0.99943 0.80030 0.03016 0.54943  0 140.20 198.64  109.01 140.25 198.70  109.29
   2  -2   8  2786.9   224.7   2-0.23057 0.48538 0.66567-0.86462 0.70973-0.12976  2 305.46 451.07  338.40 305.37 451.18  338.43
   2   2  -8  2214.0   225.8   1-0.65950 0.91451-0.17695 0.37563-0.73058 0.15023  0 470.17 399.08   60.83 470.36 399.20   60.72
   2   2  -8  2955.6   262.4   2 0.11100 0.14405-0.79017 0.98930-0.60276 0.02317  0 367.13 449.34  148.61 367.11 449.28  148.64
   2   2  -8  2892.6   201.1   2-0.11338 0.36827 0.98944-0.79041-0.09027-0.48951  0 163.00 152.46  286.72 162.97 152.46  286.69
   2   2   8  3073.1   195.4   1 0.00418 0.25116-0.76722 0.96598 0.64137-0.06171  0 140.23 200.08  170.08 140.41 200.18  170.27
   2   2   8  3504.6   187.1   2-0.12041 0.37540-0.72238 0.92134 0.68093-0.10101  0 137.47 207.75   66.96 137.45 207.75   67.04
   2   2   8  -4.894 105.848   2-0.14802 0.40291 0.98311-0.78408 0.10767 0.47211  2 293.78 449.04  297.74 293.98 449.35  298.24
  -2  -2  -9  5546.2   292.9   2 0.00076-0.25566 0.76767-0.96670-0.64084-0.01141  0 288.19  40.08  251.48 288.29  40.26  251.48
  -2  -2   9  6023.3   235.6   1-0.56192 0.30664-0.82462 0.62589-0.06517 0.71710  0 150.79 131.20  116.29 150.87 131.34  116.35
  -2  -2   9  6630.8   302.7   2 0.00163-0.25668-0.99466 0.79553 0.10317 0.54886  0 215.64  69.89  105.16 215.51  70.02  105.03
  -2  -2   9  5766.7   373.9   2-0.21506-0.03975 0.79644-0.99539 0.56518 0.08728  0 489.93 431.19  327.26 490.18 431.36  327.17
  -2   2  -9  5243.6   296.6   2-0.11934-0.13556 0.99120-0.79218-0.05720-0.59505  0 277.16  42.95  288.64 277.28  43.01  288.62
  -2   2   9  6318.9   178.3   1 0.00492-0.26025-0.76673 0.96549 0.64195 0.01016  0 216.19  69.78  170.15 216.42  69.99  170.33
  -2   2   9  6690.8   299.4   2-0.10242-0.15257-0.78828 0.98724 0.60674 0.04567  0 207.96  74.90   73.02 207.84  74.91   72.83
  -2   2   9  5548.4   373.4   2-0.13819-0.11670 0.98912-0.79009 0.05047 0.60178  0 480.89 438.27  294.81 480.86 438.06  294.89
   2  -2  -9  4106.5   197.0   1-0.69808 0.95309-0.47704 0.27835-0.53397-0.11893  0 397.18 476.51   81.35 397.80 476.27   81.48
   2  -2  -9  6435.9   365.6   2 0.03549 0.21957-0.99545 0.79632-0.08841-0.56362  0 397.31 475.75  115.88 397.37 475.53  116.18
   2  -2  -9  5660.6   274.1   2 0.00065 0.25424 0.76804-0.96707-0.64040-0.01185  0 154.64 125.49  251.54 154.56 125.55  251.51
   2  -2   9  5528.2   257.2   1-0.35310 0.60838-0.89530 0.69657 0.27159 0.38034  0 111.35 236.42  139.53 111.20 236.42  139.56
   2  -2   9  6758.9   262.5   2 0.00189 0.25316-0.99481 0.79568 0.10175 0.55028  0 121.81 186.74  104.77 121.48 186.82  105.12
   2  -2   9  6039.0   308.7   2-0.22981 0.48462 0.67439-0.87334 0.70170-0.04924  0 311.73 481.14  337.95 311.79 480.86  337.74
   2   2  -9  4397.1   279.4   1-0.66314 0.91815-0.19117 0.38986-0.72367 0.07077  0 497.49 425.42   61.65 497.76 425.47   61.64
   2   2  -9  5972.8   358.5   2 0.11113 0.14392-0.78929 0.98842-0.60389-0.04814  0 386.71 478.21  148.80 386.90 477.99  148.72
   2   2  -9  5357.7   262.9   2-0.10299 0.35788 0.98386-0.78483-0.14633-0.50592  0 149.41 132.59  283.41 149.35 132.61  283.40
   2   2   9  6565.7   273.5   1 0.00212 0.25321-0.76857 0.96733 0.63976 0.01236  0 122.35 186.79  170.05 122.15 186.92  170.10
   2   2   9  6111.8   243.2   2-0.11891 0.37390-0.72824 0.92719 0.67493-0.02253  0 118.83 196.01   67.53 118.45 196.00   67.52
  -2  -2 -10  3886.4   344.7   2 0.00176-0.25666 0.76418-0.96321-0.64500-0.07972  2 279.49   9.43  251.33 279.62   9.33  251.16
  -2  -2  10  4442.4   248.9   1-0.51877 0.26349-0.85474 0.65601 0.01711 0.70726  0 132.42 112.49  122.02 132.68 112.71  121.94
  -2  -2  10  4656.9   310.5   2-0.00903-0.24602-0.98707 0.78794 0.16001 0.56447  0 196.72  48.45  101.65 196.60  48.42  101.69
  -2   2 -10  4121.4   343.3   2-0.10677-0.14812 0.98625-0.78722-0.12611-0.59861  0 268.05  12.83  284.57 268.19  12.78  284.59
  -2   2  10  4392.9   186.0   1 0.01255-0.26788-0.76164 0.96039 0.64788 0.07669  0 199.60  46.58  171.01 199.83  46.83  170.95
  -2   2  10  4853.6   307.1   2-0.10390-0.15108-0.78321 0.98217 0.61301 0.11188  0 188.82  53.87   72.37 188.82  53.93   72.36
   2  -2 -10  4340.2   285.7   2 0.00154 0.25336 0.76497-0.96400-0.64406-0.08066  0 139.18 102.93  250.86 139.16 103.04  251.23
   2  -2  10  4544.3   257.9   1-0.32776 0.58304-0.89432 0.69559 0.30458 0.41979  0  88.78 224.11  141.81  88.55 224.14  141.94
   2  -2  10  3772.2   239.4   2-0.01042 0.26548-0.98587 0.78674 0.16719 0.55729  0 100.24 173.84  100.77 100.03 173.92  101.26
   2   2 -10  4139.2   276.8   2-0.09297 0.34787 0.97552-0.77649-0.19931-0.52541  0 133.38 110.27  279.86 133.60 110.40  280.28
   2   2  10  4400.5   261.5   1 0.00581 0.24952-0.76614 0.96490 0.64265 0.08192  0 101.71 171.79  170.37 101.57 171.89  170.40
   2   2  10  4554.9   248.3   2-0.11921 0.37420-0.72710 0.92606 0.67610 0.04880  0  97.00 183.43   67.44  96.81 183.37   67.43
  -2  -2  11  4757.1   288.5   1-0.47406 0.21878-0.87548 0.67675 0.09385 0.70296  0 111.96  90.68  127.19 111.91  90.68  127.17
  -2  -2  11  4762.7   356.7   2-0.01931-0.23567-0.97654 0.77759 0.21445 0.58294  0 175.08  23.27   98.44 175.03  23.22   98.43
  -2   2  11  4845.2   226.2   1 0.02934-0.28467-0.75012 0.94888 0.66065 0.13638  0 181.84  18.85  172.10 182.21  18.70  172.33
  -2   2  11  5162.9   366.3   2-0.10640-0.14859-0.77454 0.97349 0.62352 0.17387  0 167.07  29.51   71.56 167.06  29.56   71.56
   2  -2 -11  4439.8   323.6   2 0.00352 0.25137 0.75795-0.95698-0.65230-0.14490  0 121.26  77.17  250.59 121.01  77.22  250.60
   2  -2  11  4138.8   283.1   1-0.30095 0.55623-0.89169 0.69296 0.33810 0.45870  0  62.96 210.19  144.34  62.83 210.21  144.40
   2  -2  11  4201.9   272.9   2-0.02203 0.27702-0.97330 0.77434 0.22848 0.56891  0  75.61 159.53   97.60  75.15 159.56   97.59
   2   2 -11  4247.8   325.0   2-0.08315 0.33805 0.96469-0.76566-0.24993-0.54726  0 115.23  85.03  276.85 115.01  85.02  277.25
   2   2  11  4691.1   314.4   1 0.01432 0.24102-0.76044 0.95920 0.64925 0.14778  0  78.16 154.41  171.28  78.01 154.43  171.10
   2   2  11  5298.4   296.4   2-0.12086 0.37585-0.72060 0.91956 0.68273 0.11465  0  72.00 169.61   67.01  71.72 169.61   66.89
  -2  -2  12  8181.3   373.7   1-0.42807 0.17279-0.88837 0.68964 0.16601 0.70324  0  87.78  63.81  132.04  87.74  63.79  132.13
   2  -2 -12  7965.8   436.6   2 0.00641 0.24849 0.74756-0.94659-0.66417-0.20550  0  99.49  46.84  249.66  99.13  46.85  249.68
   2  -2  12  7255.9   387.4   1-0.27283 0.52811-0.88718 0.68845 0.37212 0.49713  0  32.96 193.97  147.12  33.01 194.02  146.94
   2  -2  12  7289.6   365.3   2-0.03324 0.28823-0.95773 0.75877 0.28575 0.58412  0  46.09 143.69   94.23  45.62 143.59   94.13
   2   2  12  7651.4   386.6   1 0.02697 0.22836-0.75177 0.95052 0.65888 0.21061  0  50.66 133.66  172.09  50.53 133.61  172.14
   2   2  12  8266.8   377.8   2-0.12359 0.37858-0.70967 0.90863 0.69361 0.17627  0  42.20 154.32   65.88  42.02 154.33   65.99
  -2  -3   0 -16.602  45.978   1-0.51585 0.26087 0.18342-0.48135-0.83681 0.83681  0 206.59 246.27   37.45 207.00 246.20   37.53
  -2  -3   0  39.632  43.633   2-0.22101-0.03391-0.06921-0.22910 0.97281-0.97281  0 408.78 277.04   24.96 408.36 277.30   24.67
  -2  -3   0 -19.130  46.669   2 0.13591-0.39093-0.37430 0.07582-0.91729 0.91729  0 315.50 158.28  178.79 315.36 158.26  178.93
  -2   3   0   2.765  42.132   1-0.69016 0.43515-0.33242 0.63045-0.64279 0.64279  0 360.79 172.12   71.35 360.67 172.09   71.10
  -2   3   0 -16.580  49.238   2-0.23020-0.02472 0.06136 0.23695 0.97121-0.97121  0 300.00 158.13   17.65 300.18 158.25   17.16
  -2   3   0  -4.922  47.471   2 0.08644-0.34143 0.33199-0.03344-0.93931 0.93931  0 403.75 293.01  220.38 403.79 292.85  220.43
   2  -3   0  34.229  33.319   1-0.60669 0.86197-0.77791 0.47982-0.16365 0.16365  0 244.79 336.24  109.61 244.72 336.10  109.60
   2  -3   0 -26.394  34.106   2 0.13003 0.12499-0.14709-0.15139-0.98054 0.98054  0 209.83 230.18  192.60 209.79 230.32  192.48
   2   3   0  17.905  63.388   1-0.29255 0.54753 0.50845-0.21053-0.80987 0.80987  0 409.75 271.32   14.25 409.69 271.52   14.73
   2   3   0   9.322  43.219   2 0.10607 0.14891 0.16757 0.13099-0.98014 0.98014  0 281.23 354.61  210.50 281.32 354.41  210.64
   2   3   0   3.475  33.879   2-0.24055 0.49536 0.46349-0.16525 0.85282-0.85282  0 206.86 244.31  352.76 206.81 244.29  352.69
  -2  -3  -1 36631.9   391.8   1-0.43866 0.18368 0.31366-0.61158-0.84214 0.76956  0 204.65 255.62   28.92 204.66 255.59   28.85
  -2  -3  -1 40172.3   339.7   2-0.19322-0.06170-0.32685 0.02854 0.92512-0.99769  0 410.88 274.44   40.36 411.23 274.53   39.82
  -2  -3  -1 38675.8   335.7   2 0.12957-0.38458-0.13929-0.15919-0.98174 0.90926  0 318.71 156.50  193.31 318.75 156.61  192.95
  -2  -3   1 35406.1   383.1   1-0.58596 0.33098 0.03739-0.33532-0.80948 0.88205  0 206.87 236.85   47.09 206.88 236.81   46.95
  -2  -3   1 38827.8   349.7   2-0.23568-0.01924 0.16739-0.46570 0.95731-0.88474  0 408.87 284.08   11.00 409.08 284.12   11.02
  -2  -3   1 36517.2   340.2   2 0.13146-0.38648-0.57533 0.27685-0.80729 0.87977  0 309.36 155.95  165.80 309.44 156.07  165.77
  -2   3  -1 30714.4   301.4   1-0.69828 0.44327-0.46335 0.76138-0.54563 0.47309  0 377.55 181.26   80.41 377.44 181.44   80.45
  -2   3  -1 38017.1   356.4   2-0.23957-0.01535 0.28775 0.01055 0.92726-0.99983  0 302.98 156.05    4.20 303.06 156.16    3.89
  -2   3  -1 36933.5   350.5   2 0.11064-0.36562 0.12201 0.17655-0.98634 0.91387  0 406.75 290.66  208.12 406.98 290.62  207.99
  -2   3   1 32858.8   241.6   1-0.63291 0.37790-0.08735 0.38538-0.76928 0.84183  0 345.01 162.26   54.98 345.00 162.43   54.92
  -2   3   1 38383.8   367.2   2-0.21357-0.04135-0.15043 0.44874 0.96528-0.89271  0 294.82 156.73   29.23 294.96 156.87   29.38
  -2   3   1 35219.1   351.3   2 0.05639-0.31137 0.52177-0.22321-0.85122 0.92370  0 403.62 298.82  232.59 403.83 298.76  232.56
   2  -3  -1 27206.1   221.2   1-0.62528 0.88056-0.75148 0.45339-0.21048 0.13805  0 257.85 347.04  106.18 258.08 346.97  106.34
   2  -3  -1 41060.6   375.7   2 0.11517 0.13981 0.07192-0.37047-0.99074 0.91826  0 209.78 225.32  204.94 209.68 225.26  205.09
   2  -3   1 27038.5   282.6   1-0.58791 0.84319-0.79990 0.50181-0.12048 0.19292  0 231.21 325.94  112.56 231.13 325.88  112.57
   2  -3   1  20.003  40.241   2-0.20713 0.46204-0.21153-0.08678 0.95517-0.88260  0 293.29 358.57   32.86 293.40 358.81   32.96
   2  -3   1 38496.3   353.7   2 0.13591 0.11911-0.37368 0.07519-0.91755 0.99003  0 207.56 232.52  179.20 207.45 232.45  178.97
   2   3  -1 34331.9   375.6   1-0.38442 0.63940 0.39236-0.09444-0.83563 0.76305  0 409.67 282.59   23.06 409.86 282.60   23.35
   2   3  -1 37225.5   339.1   2 0.12643 0.12859-0.08111 0.37959-0.98865 0.91617  0 286.92 357.83  196.17 286.97 357.62  196.31
   2   3  -1 33775.6   322.0   2-0.23240 0.48721 0.64260-0.34418 0.73011-0.80260  0 206.17 238.48  340.05 206.11 238.46  340.19
   2   3   1 38033.7   405.6   1-0.19102 0.44600 0.61648-0.31855-0.76385 0.83642  0 412.72 260.50    5.97 412.92 260.47    5.85
   2   3   1 34540.3   311.0   2-0.23837 0.49329 0.24178 0.05653 0.94060-0.86803  0 204.83 246.82    6.84 204.74 246.75    6.63
   2   3   1 37336.9   325.0   2 0.07292 0.18206 0.42385-0.12529-0.90279 0.97527  0 277.86 355.65  225.55 277.94 355.38  226.15
  -2  -3  -2  1025.9    96.9   1-0.36266 0.10768 0.42181-0.71974-0.83099 0.68584  0 200.07 265.03   21.07 200.04 265.00   21.24
  -2  -3  -2  1076.0    90.2   2-0.15646-0.09853-0.55619 0.25775 0.81620-0.96118  0 417.60 275.80   54.55 417.81 275.84   54.55
  -2  -3  -2  1136.0    96.2   2 0.11358-0.36856 0.09004-0.38860-0.98944 0.84448  0 319.50 150.77  205.67 319.51 150.93  206.14
  -2  -3   2  1040.0    93.8   1-0.64147 0.38646-0.11389-0.18414-0.75865 0.90374  0 204.32 227.31   56.62 204.31 227.27   56.63
  -2  -3   2  1018.5    97.3   2 0.11995-0.37497-0.72517 0.42668-0.67805 0.82301  0 301.30 150.45  154.31 301.43 150.68  154.38
  -2   3  -2 986.322 110.024   1-0.69461 0.43960-0.53503 0.83306-0.48089 0.33581  0 395.22 190.64   85.82 395.48 190.67   85.98
  -2   3  -2  1055.2    97.7   2 0.12630-0.38132-0.07894 0.37743-0.98885 0.84389  0 413.29 292.18  196.27 413.61 292.15  196.44
  -2   3  -2  1040.7   100.1   2-0.23974-0.01508 0.49469-0.19645 0.83535-0.98040  0 303.59 150.41  350.72 303.62 150.65  350.63
  -2   3   2  1078.3    55.2   1-0.41722 0.16224 0.34581-0.04789-0.84044 0.98559  0 330.37 152.09   26.78 330.30 152.28   26.63
  -2   3   2  1174.7   106.9   2-0.19374-0.06118-0.32291 0.62122 0.92639-0.78125  0 287.54 152.28   39.53 287.73 152.46   39.58
  -2   3   2 928.906 105.827   2 0.02510-0.28009 0.67348-0.37493-0.73877 0.88373  0 406.62 308.11  243.57 406.77 308.07  243.55
   2  -3  -2 808.615  52.850   1-0.64477 0.90005-0.71711 0.41902-0.26464 0.11976  0 271.04 358.77  102.57 271.10 358.67  102.50
   2  -3  -2  1057.9   106.1   2-0.11972 0.37471-0.72510 0.42666 0.67816-0.82314  0 308.90 365.49   66.81 308.88 365.49   67.26
   2  -3  -2  1133.8    91.7   2 0.09612 0.15886 0.25579-0.55434-0.96194 0.81699  0 207.45 217.57  216.00 207.37 217.61  215.83
   2  -3   2 865.960  82.245   1-0.56861 0.82389-0.81882 0.52073-0.07884 0.22371  0 217.21 316.26  115.37 217.25 316.15  115.42
   2  -3   2   5.563  40.608   2-0.22534 0.48026-0.01195-0.28636 0.97421-0.82906  0 292.55 364.47   21.42 292.50 364.31   21.37
   2  -3   2  1094.5    84.9   2 0.13155 0.12347-0.57364 0.27515-0.80848 0.95344  0 202.72 231.69  166.32 202.62 231.69  165.89
   2   3  -2 928.517 114.602   1-0.46138 0.71636 0.27780 0.02013-0.84259 0.69744  0 413.27 294.14   31.21 413.46 294.05   31.28
   2   3  -2  24.541  45.301   2 0.13468 0.12034-0.28289 0.58137-0.94965 0.80469  2 294.53 364.37  184.62 294.66 364.49  184.48
   2   3  -2  1081.1    83.3   2-0.21892 0.47373 0.77082-0.47240 0.59826-0.74325  0 203.32 229.97  329.65 203.15 229.96  329.59
   2   3   2  1227.3    80.3   2-0.22725 0.48217 0.01381 0.28450 0.97374-0.82859  0 200.08 246.08   19.82 199.93 246.03   19.90
   2   3   2  1165.6    92.1   2 0.03308 0.22191 0.63845-0.33989-0.76895 0.91391  0 276.83 360.94  241.39 276.90 360.75  240.87
  -2  -3  -3  5511.0   176.3   1-0.29423 0.03925 0.50649-0.80442-0.81049 0.59276  0 193.26 274.61   14.94 193.30 274.58   14.89
  -2  -3  -3  5670.1   192.2   1-0.01583-0.23950-0.78010 0.48197 0.62545-0.84282  0 429.11 277.25  168.77 429.31 277.24  168.63
  -2  -3  -3  5444.8   156.6   2-0.11903-0.13596-0.72782 0.42938 0.67536-0.89283  0 427.89 280.74   67.31 428.17 280.86   67.49
  -2  -3  -3  5611.4   158.1   2 0.09328-0.34827 0.27904-0.57760-0.95574 0.73830  0 317.98 141.41  217.04 318.01 141.55  217.22
  -2  -3   3  4611.5   155.1   1-0.67829 0.42328-0.25927-0.03876-0.68754 0.90517  0 199.48 217.48   66.02 199.42 217.47   66.15
  -2  -3   3  5413.0   175.1   2 0.10474-0.35979-0.82780 0.52910-0.55116 0.76851  0 291.73 142.60  145.05 291.82 142.72  144.97
  -2  -3   3  5133.4   169.7   2-0.24006-0.01475 0.48235-0.78059 0.84244-0.62487  0 419.14 307.48  351.50 419.35 307.59  351.45
  -2   3  -3  4750.6   169.0   1-0.68938 0.43437-0.57451 0.87254-0.44124 0.22361  0 414.85 199.82   89.07 415.07 199.95   89.20
  -2   3  -3  5053.1   160.0   2 0.13378-0.38880-0.24739 0.54587-0.95964 0.74220  0 423.29 297.11  186.57 423.53 297.13  186.59
  -2   3  -3  5421.7   167.4   2-0.23097-0.02384 0.66062-0.36220 0.71431-0.93180  0 302.04 141.50  338.86 302.13 141.66  338.82
  -2   3   3  5765.7   182.7   2-0.17512-0.07980-0.45089 0.74920 0.87523-0.65752  0 278.67 145.41   47.53 278.84 145.53   47.54
  -2   3   3  5220.7   180.0   2-0.00429-0.25061 0.78486-0.48632-0.61965 0.83707  0 411.97 320.36  253.25 412.10 320.29  253.07
   2  -3  -3  3794.3    59.4   1-0.66917 0.92418-0.65803 0.36000-0.34527 0.12764  0 282.96 371.44   96.62 283.17 371.29   96.58
   2  -3  -3  5801.6    71.1   1-0.09584 0.35118-0.82538 0.52725 0.55638-0.77375  0 318.16 374.63  162.14 318.02 374.44  162.05
   2  -3  -3  5430.5   179.7   2-0.09158 0.34657-0.82355 0.52511 0.55980-0.77727  0 317.85 374.56   76.04 317.89 374.45   76.25
   2  -3  -3  5362.1   164.3   2 0.07738 0.17761 0.39533-0.69388-0.91528 0.69784  0 203.29 207.82  224.30 203.22 207.79  224.35
   2  -3   3  4395.1   150.4   1-0.54850 0.80378-0.83527 0.53718-0.03839 0.25570  0 203.03 306.80  118.14 202.97 306.75  118.16
   2  -3   3 -45.073  45.033   2-0.23540 0.49032 0.16086-0.45916 0.95849-0.74078  0 293.38 373.00   11.40 293.45 373.50   11.40
   2  -3   3  5162.0   151.5   2 0.11971 0.13531-0.72737 0.42888-0.67573 0.89317  0 195.57 228.35  154.16 195.47 228.32  154.20
   2   3  -3  4642.9   173.3   1-0.52134 0.77632 0.17317 0.12476-0.83560 0.61788  0 420.17 306.13   38.15 420.39 306.15   38.20
   2   3  -3  5224.5   157.6   2-0.20349 0.45830 0.85659-0.55817 0.47418-0.69167  0 198.41 219.43  321.03 198.36 219.42  320.86
   2   3   3  5808.0   148.8   2-0.21021 0.46513-0.18366 0.48197 0.96025-0.74254  0 192.62 242.51   31.09 192.57 242.45   31.31
   2   3   3  4949.4   147.5   2-0.00560 0.26050 0.78924-0.49069-0.61407 0.83148  0 277.75 370.38  253.42 277.87 370.11  253.49
  -2  -3  -4  3610.8   157.0   1-0.23720-0.01778 0.57001-0.86794-0.78665 0.49635  0 184.60 284.48   10.10 184.59 284.41    9.82
  -2  -3  -4  4014.2   184.2   1-0.11029-0.14504-0.83255 0.53441 0.54286-0.83269  0 442.14 289.67  161.07 442.21 289.62  160.84
  -2  -3  -4  3856.4   155.9   2-0.08519-0.16980-0.84271 0.54427 0.53159-0.82155  0 441.68 288.91   77.69 441.92 288.99   78.24
  -2  -3  -4  3695.2   152.6   2 0.07392-0.32890 0.41743-0.71598-0.90570 0.61579  0 314.75 128.87  225.80 314.78 129.02  225.75
  -2  -3   4  3245.5   143.5   1-0.69601 0.44100-0.39051 0.09248-0.60255 0.89273  0 192.42 207.28   75.21 192.37 207.25   75.16
  -2  -3   4  3560.3   169.6   2 0.08900-0.34406-0.89629 0.59760-0.43444 0.72423  0 280.91 132.77  136.85 281.00 132.84  137.16
  -2  -3   4  3470.2   167.7   2-0.23711-0.01770 0.56884-0.86726 0.78753-0.49755  0 427.74 323.19  345.62 427.99 323.27  345.57
  -2   3  -4  3332.4   169.7   1-0.68559 0.43058-0.59527 0.89330-0.41907 0.12890  0 436.38 209.35   90.93 436.57 209.49   90.95
  -2   3  -4  3499.4   160.4   2 0.13591-0.39093-0.37542 0.67391-0.91683 0.62691  0 436.45 305.19  179.28 436.65 305.12  178.86
  -2   3  -4  3216.6   153.4   2-0.21734-0.03747 0.78154-0.48312 0.58477-0.87475  0 298.92 129.64  328.63 299.03 129.79  328.60
  -2   3   4  3660.3   173.9   2-0.15942-0.09557-0.54009 0.83852 0.82637-0.53642  0 268.45 136.46   53.45 268.57 136.59   53.45
  -2   3   4  3289.9   172.9   2-0.03048-0.22442 0.86280-0.56426-0.50462 0.79451  0 419.58 335.29  261.30 419.67 335.22  261.19
   2  -3  -4  2324.1    40.2   1-0.69811 0.95312-0.47572 0.17769-0.53510 0.24493  0 289.09 384.96   81.76 289.11 384.72   81.38
   2  -3  -4  3179.8    45.3   1-0.53653 0.79181-0.84374 0.54565-0.01533-0.27442  0 311.91 387.22  119.91 311.83 387.04  119.73
   2  -3  -4  4055.7   182.1   2-0.06679 0.32177-0.89147 0.59303 0.44813-0.73809  0 328.49 386.34   83.80 328.49 386.19   83.89
   2  -3  -4  3652.0   154.8   2 0.06116 0.19382 0.49497-0.79353-0.86675 0.57684  0 197.54 196.24  230.79 197.50 196.23  230.76
   2  -3   4  2864.9   142.8   1-0.52749 0.78277-0.84956 0.55146 0.00139 0.28836  0 188.21 297.54  121.10 188.16 297.53  120.87
   2  -3   4  3714.5   144.3   2 0.10333 0.15172-0.83497 0.53627-0.54051 0.83030  0 186.33 222.91  144.22 186.27 222.89  144.22
   2   3  -4  2987.2   175.5   1-0.56540 0.82038 0.08388 0.21405-0.82054 0.53024  0 430.43 319.26   44.14 430.58 319.24   43.97
   2   3  -4  3743.6   173.1   2 0.13347 0.12155-0.52904 0.82752-0.83804 0.54812  0 314.74 387.14  168.75 314.72 386.98  168.95
   2   3  -4  3166.8   142.0   2-0.18815 0.44296 0.91250-0.61408 0.36323-0.65321  0 192.11 207.25  314.00 192.04 207.27  313.67
   2   3   4  3868.9   136.8   2-0.19223 0.44715-0.33427 0.63258 0.92267-0.63238  0 183.11 236.79   39.64 183.07 236.70   40.27
   2   3   4  3183.0   142.1   2-0.03902 0.29391 0.88417-0.58563-0.46553 0.75541  0 280.15 383.21  263.80 280.25 382.98  263.78
  -2  -3  -5 813.395 105.085   1-0.19171-0.06327 0.61582-0.91374-0.76421 0.40134  0 174.15 294.65    6.12 174.16 294.70    5.91
  -2  -3  -5 965.265 131.401   1-0.19596-0.05938-0.86713 0.56900 0.45791-0.82019  0 458.44 303.19  153.71 458.40 303.13  153.65
  -2  -3  -5  1067.6   115.1   2-0.05648-0.19851-0.91504 0.61660 0.39939-0.76184  0 458.62 299.71   87.36 458.94 299.71   87.04
  -2  -3  -5 874.391 106.339   2 0.05809-0.31308 0.51232-0.81087-0.85683 0.49444  0 310.22 113.67  231.78 310.30 113.80  231.92
  -2  -3   5 728.039  97.644   1-0.69714 0.44213-0.50350 0.20547-0.51038 0.87310  0 183.21 196.54   83.40 183.35 196.46   83.50
  -2  -3   5 826.796 115.709   2 0.07395-0.32900-0.94111 0.64242-0.32990 0.69214  0 269.12 121.20  130.56 269.14 121.25  130.58
  -2  -3   5 830.781 121.337   2-0.23364-0.02117 0.62553-0.92396 0.74439-0.38191  0 438.37 341.40  341.46 438.62 341.36  341.47
  -2   3  -5 858.512 127.762   1-0.68371 0.42871-0.60422 0.90225-0.40921 0.04649  0 460.34 219.52   92.07 460.48 219.51   91.72
  -2   3  -5  1013.8   117.2   2 0.13518-0.39020-0.46718 0.76567-0.87376 0.51136  0 452.79 315.84  173.27 452.95 315.81  173.05
  -2   3  -5 841.386 110.267   2-0.20160-0.05321 0.86473-0.56631 0.45999-0.82247  0 294.71 115.23  319.76 294.64 115.30  319.92
  -2   3   5 988.826 125.697   2-0.14769-0.10730-0.60146 0.89990 0.78513-0.42268  0 256.96 125.75   57.97 257.13 125.82   57.74
  -2   3   5 886.483 125.748   2-0.05330-0.20159 0.91576-0.61722-0.39817 0.76053  0 429.19 352.86  267.88 429.24 352.72  268.13
   2  -3  -5 706.930  44.999   1-0.62861 0.88361-0.07452-0.22350-0.77414 0.41143  0 281.68 398.43   54.34 281.66 398.17   54.10
   2  -3  -5 716.017  45.271   1-0.63396 0.88924-0.73716 0.43907-0.23385-0.12834  0 320.10 402.58  104.97 319.98 402.51  104.69
   2  -3  -5 935.735 127.061   2-0.04540 0.30039-0.93716 0.63872 0.34593-0.70838  0 340.66 400.79   90.39 340.64 400.61   90.42
   2  -3  -5 778.552 100.109   2 0.04851 0.20648 0.56396-0.86252-0.82437 0.46199  0 190.40 183.06  235.46 190.38 183.13  235.46
   2  -3   5 705.144 103.437   1-0.50553 0.76081-0.86185 0.56376 0.04071 0.32148  0 172.56 288.25  123.53 172.65 288.34  123.54
   2  -3   5 824.422  95.513   2 0.08613 0.16892-0.90625 0.60756-0.41387 0.77611  0 175.39 215.78  136.02 175.27 215.83  135.84
   2   3  -5 769.166 119.020   1-0.59648 0.85146 0.01208 0.28584-0.80254 0.43967  0 443.83 333.63   48.47 444.05 333.71   48.56
   2   3  -5  1077.5   126.5   2 0.13038 0.12463-0.59558 0.89407-0.79264 0.43024  0 326.76 402.38  164.39 326.81 402.11  164.33
   2   3  -5 750.529  96.676   2-0.17345 0.42826 0.94845-0.65003 0.26527-0.62774  0 184.37 193.77  307.62 184.36 193.78  307.61
   2   3   5 969.827 105.301   2-0.17673 0.43164-0.44072 0.73903 0.88007-0.51722  0 171.73 229.44   47.04 171.71 229.39   46.89
   2   3   5 802.765 103.606   2-0.06648 0.32137 0.94021-0.64167-0.33405 0.69641  0 283.58 399.19  271.70 283.62 398.90  272.14
  -2  -3  -6 388.286 100.350   1-0.15751-0.09747 0.64785-0.94577-0.74531 0.30987  0 162.16 305.59    3.00 162.05 305.63    3.01
  -2  -3  -6 359.483 136.139   1-0.27171 0.01642-0.88698 0.58888 0.37343-0.80805  0 478.16 318.21  147.36 478.08 318.14  147.04
  -2  -3  -6 357.820 104.264   2-0.03256-0.22243-0.95876 0.66032 0.28235-0.71729  0 478.87 312.83   93.75 479.52 312.90   94.34
  -2  -3  -6 417.503 105.529   2 0.04624-0.30123 0.57521-0.87377-0.81670 0.38183  0 304.84  96.07  236.41 304.89  96.04  236.25
  -2  -3   6 401.825  88.149   1-0.68508 0.43007-0.59779 0.29976-0.41632 0.85158  0 172.36 184.73   91.39 172.50 184.87   91.17
  -2  -3   6 333.569 116.086   2 0.05973-0.31478-0.96978 0.67108-0.23655 0.67124  0 256.58 108.14  125.19 256.27 108.05  124.92
  -2  -3   6 382.285 130.043   2-0.23087-0.02394 0.66178-0.96020 0.71327-0.27829  0 451.65 362.05  338.58 451.39 362.06  338.73
  -2   3  -6 444.002 131.031   1-0.68352 0.42851-0.60510 0.90313-0.40823-0.02704  0 487.37 230.13   91.65 487.54 230.30   91.80
  -2   3  -6 397.958 115.175   2 0.13341-0.38843-0.53059 0.82908-0.83706 0.40218  0 472.57 329.06  168.61 472.61 329.06  168.84
  -2   3  -6 319.679 103.787   2-0.18559-0.06922 0.91994-0.62152 0.34536-0.78034  0 289.28  98.19  312.57 289.18  98.29  312.54
  -2   3   6 425.262 101.084   2-0.13910-0.11589-0.64227 0.94070 0.75376-0.31882  0 244.75 113.61   60.59 244.54 113.40   60.74
  -2   3   6 342.985 122.718   2-0.07312-0.18177 0.95080-0.65226-0.30104 0.73588  0 440.61 372.84  274.27 440.91 372.99  274.16
   2  -3  -6 327.271  45.444   1-0.48514 0.74012 0.23823-0.53615-0.84136 0.40592  0 269.50 412.96   34.22 269.32 412.65   33.93
   2  -3  -6 259.726  46.286   1-0.66110 0.91610-0.68070 0.38267-0.31560-0.11966  0 333.95 420.69   99.23 333.76 420.80   98.77
   2  -3  -6 517.628 130.642   2-0.02682 0.28181-0.96704 0.66860 0.25322-0.68816  0 354.66 417.68   95.88 354.44 417.89   96.11
   2  -3  -6 359.642  94.367   2 0.03906 0.21593 0.61060-0.90915-0.79098 0.35611  0 181.99 168.73  239.18 181.91 168.54  238.79
   2  -3   6 288.239  94.680   1-0.48262 0.73790-0.87219 0.57410 0.07977 0.35485  0 156.18 279.29  126.36 156.23 279.04  126.21
   2  -3   6 349.978  83.079   2 0.06953 0.18552-0.95146 0.65276-0.29981 0.73449  0 162.74 207.52  128.77 162.51 207.52  128.74
   2   3  -6 360.470 130.616   1-0.61743 0.87244-0.04287 0.34090-0.78545 0.35019  0 461.12 350.16   52.12 460.96 350.04   52.07
   2   3  -6 349.487 117.860   2 0.12767 0.12735-0.63911 0.93760-0.75844 0.32356  0 340.35 419.93  161.42 340.33 419.97  161.15
   2   3  -6 262.718  88.749   2-0.15967 0.41448 0.97097-0.67255 0.17812-0.61310  0 175.64 178.73  302.43 175.38 178.98  302.37
   2   3   6 425.948  81.369   2-0.16438 0.41936-0.51264 0.81108 0.84272-0.40779  0 158.69 220.92   51.55 158.61 220.96   51.59
   2   3   6 383.620 104.654   2-0.08896 0.34385 0.97140-0.67285-0.22017 0.65501  0 287.71 417.93  278.72 287.68 417.78  279.04
  -2  -3  -7 37726.3   537.7   1-0.33834 0.08306-0.89489 0.59680 0.29102-0.79808  0 501.71 335.56  140.99 501.87 335.43  140.95
  -2  -3  -7 36646.9   492.8   2-0.01287-0.24218-0.98356 0.68486 0.18011-0.68725  2 503.91 328.49  100.47 504.04 328.45  100.50
  -2  -3  -7 37740.6   491.4   2 0.03797-0.29295 0.61575-0.91431-0.78702 0.27968  0 298.67  75.38  239.06 298.74  75.62  239.17
  -2  -3   7 33953.9   466.3   1-0.66345 0.40844-0.67459 0.37656-0.32369 0.83149  0 159.93 172.26   97.90 159.84 172.25   98.18
  -2  -3   7 39193.5   533.0   2 0.04627-0.30132-0.98722 0.68852-0.15252 0.65966  0 242.41  92.92  120.00 242.27  93.10  119.95
  -2  -3   7 36967.6   543.1   2-0.22893-0.02588 0.68394-0.98236 0.69269-0.18522  0 466.39 385.74  337.17 466.61 385.81  336.99
  -2   3  -7 38361.1   516.4   2 0.13157-0.38659-0.57309 0.87158-0.80886 0.30150  0 496.01 345.09  165.86 496.31 345.07  165.92
  -2   3  -7 33657.7   482.1   2-0.16980-0.08501 0.95540-0.65697 0.24163-0.74911  0 282.80  78.44  306.11 282.86  78.65  306.18
  -2   3   7 41039.8   547.9   2-0.13332-0.12167-0.66846 0.96690 0.73170-0.22427  0 230.77  99.08   62.82 230.67  99.24   62.73
  -2   3   7 32236.3   510.3   2-0.09044-0.16446 0.97297-0.67443-0.21249 0.71979  0 454.85 396.59  279.49 454.93 396.45  279.49
   2  -3  -7 20991.7   203.7   1-0.36988 0.62486 0.41211-0.71004-0.83268 0.32466  0 255.82 429.15   22.04 255.76 428.86   21.94
   2  -3  -7 28621.5   239.1   1-0.67533 0.93034-0.63790 0.33987-0.37015-0.13766  0 349.05 442.19   94.82 349.22 442.06   94.71
   2  -3  -7 40465.1   561.2   2-0.01083 0.26588-0.98550 0.68680 0.16934-0.67647  0 370.26 438.48  101.07 370.11 438.22  101.14
   2  -3  -7 38298.6   528.0   2 0.03246 0.22253 0.64126-0.93981-0.76664 0.25929  0 172.05 152.32  241.13 172.03 152.38  241.08
   2  -3   7 33647.3   504.2   1-0.45872 0.71400-0.88062 0.58253 0.11865 0.38841  0 138.60 269.41  128.99 138.63 269.43  128.86
   2  -3   7 36654.8   479.2   2 0.05355 0.20150-0.97879 0.68009-0.19776 0.70490  0 148.05 198.04  122.61 147.96 198.08  122.61
   2  -3   7 35075.6   484.7   2-0.23924 0.49405 0.51096-0.80921 0.82564-0.31796  0 308.87 442.50  349.58 308.92 442.29  349.54
   2   3  -7 28378.2   450.6   1-0.63139 0.88639-0.08278 0.38081-0.77104 0.26323  0 481.47 368.82   54.65 481.73 368.88   54.63
   2   3  -7 38544.3   542.7   2 0.12557 0.12945-0.66669 0.96518-0.73468 0.22732  0 355.54 441.19  159.02 355.54 440.96  159.06
   2   3  -7 33342.7   488.1   2-0.14672 0.40161 0.98412-0.68558 0.09989-0.60720  0 165.05 162.73  297.81 165.03 162.79  297.78
   2   3   7 39841.9   484.8   2-0.15565 0.41064-0.56049 0.85893 0.81340-0.30598  0 143.79 211.54   55.28 143.76 211.53   54.85
   2   3   7 -60.707  93.076   2-0.10771 0.36260 0.98678-0.68824-0.12106 0.62837  0 291.81 440.06  284.42 292.24 439.84  284.89
  -2  -3  -8  2907.8   251.3   2 0.03258-0.28756 0.64072-0.93928-0.76708 0.18726  0 291.85  51.86  240.77 291.92  52.18  241.04
  -2  -3   8  2641.9   183.2   1-0.63457 0.37929-0.73610 0.43800-0.23555 0.81504  0 145.50 158.35  104.49 145.57 158.33  104.57
  -2  -3   8  2831.4   220.9   2 0.03339-0.28844-0.99655 0.69785-0.07602 0.65560  0 227.01  75.91  115.41 226.92  76.21  115.46
  -2  -3   8  2819.0   315.6   2-0.22776-0.02705 0.69611-0.99453 0.68085-0.10088  0 484.68 413.33  335.86 484.81 413.44  336.01
  -2   3  -8  2299.2   239.4   2-0.15476-0.10005 0.97682-0.67840 0.14788-0.72785  0 275.58  56.14  300.69 275.70  56.02  300.59
  -2   3   8  2894.2   230.4   2-0.12971-0.12528-0.68405 0.98249 0.71781-0.13789  0 215.41  83.01   63.99 215.36  83.15   63.94
  -2   3   8  2465.8   304.2   2-0.10581-0.14908 0.98568-0.68714-0.13129 0.71107  0 471.49 423.87  284.20 471.72 423.88  284.29
   2  -3  -8  2623.8   110.1   1-0.29684 0.55182 0.50345-0.80138-0.81143 0.23084  0 242.03 447.86   15.30 241.74 447.52   15.12
   2  -3  -8  2149.8   135.7   1-0.68526 0.94027-0.59688 0.29885-0.41732-0.16303  0 366.09 467.30   91.25 366.07 467.25   91.09
   2  -3  -8  3007.9   298.0   2 0.00377 0.25128-0.99576 0.69706 0.09196-0.67154  0 388.21 462.90  105.70 388.24 462.63  105.68
   2  -3  -8  2511.7   208.3   2 0.02813 0.22685 0.66031-0.95886-0.75047 0.17065  0 160.52 134.33  242.57 160.54 134.39  242.53
   2  -3   8  2492.1   196.0   1-0.43380 0.68908-0.88715 0.58906 0.15739 0.42210  0 119.77 259.31  131.51 119.54 259.31  131.53
   2  -3   8  2953.7   197.7   2 0.03851 0.21654-0.99360 0.69491-0.10614 0.68572  0 131.26 187.56  117.12 131.43 187.61  117.22
   2  -3   8  2764.5   246.6   2-0.23830 0.49311 0.54163-0.84005 0.80613-0.22616  0 314.53 468.37  347.46 314.59 468.08  347.47
   2   3  -8  2962.9   288.4   2 0.12416 0.13086-0.68299 0.98147-0.71980 0.13996  0 372.96 466.15  158.19 372.89 465.83  157.80
   2   3  -8  2380.0   205.0   2-0.13436 0.38925 0.99053-0.69199 0.02820-0.60798  0 153.13 144.97  293.62 153.07 144.95  293.59
   2   3   8  2404.4   180.0   2-0.14977 0.40476-0.59087 0.88931 0.79274-0.21282  0 126.94 201.14   57.03 126.90 201.22   56.98
  -2  -3  -9 -97.806 168.406   2 0.02944-0.28442 0.65458-0.95314-0.75542 0.10312  0 284.51  24.89  241.77 284.37  24.99  242.09
  -2  -3   9 -25.119 106.333   1-0.60101 0.34573-0.78500 0.48691-0.15018 0.80212  0 129.08 142.66  111.23 129.03 142.44  110.52
  -2  -3   9  61.694 140.983   2 0.02117-0.27622-0.99976 0.70106-0.00540 0.65743  0 209.90  57.13  111.48 209.90  56.93  111.35
  -2   3  -9  69.057 178.491   2-0.14039-0.11450 0.98810-0.68955 0.06287-0.71512  0 267.59  30.29  296.26 267.70  29.80  295.61
  -2   3   9  21.818 130.781   2-0.12790-0.12709-0.69174 0.99017 0.71074-0.05833  0 198.22  64.67   63.85 198.24  64.76   64.55
  -2   3   9 157.393 232.083   2-0.11953-0.13537 0.99124-0.69270-0.05616 0.70841  0 492.69 456.92  289.18 492.16 456.50  288.68
   2  -3  -9  26.032  69.978   1-0.25617 0.51115 0.54977-0.84770-0.79506 0.14190  0 227.52 469.43   11.62 227.37 469.50   11.48
   2  -3  -9 123.868 107.280   1-0.69231 0.94732-0.55480 0.25677-0.46142-0.19147  0 384.24 497.54   87.46 384.41 497.62   87.57
   2  -3  -9   3.909 217.488   2 0.01679 0.23827-0.99966 0.70096 0.02020-0.67223  0 409.27 492.23  108.87 409.51 492.13  109.86
   2  -3  -9  45.290 124.590   2 0.02572 0.22927 0.67074-0.96929-0.74125 0.08895  0 147.62 114.22  242.87 147.18 114.21  243.34
   2  -3   9  76.992 109.990   1-0.40780 0.66308-0.89178 0.59369 0.19602 0.45592  0  98.72 248.71  134.42  98.53 248.43  134.20
   2  -3   9 -13.369 103.112   2 0.02425 0.23081-0.99944 0.70074-0.02302 0.67505  0 111.85 176.20  113.29 112.49 176.04  112.38
   2  -3   9 120.007 183.003   2-0.23751 0.49232 0.56051-0.85893 0.79336-0.14089  0 321.05 498.71  347.27 320.89 498.61  346.15
   2   3  -9  38.855 208.825   2 0.12348 0.13154-0.69102 0.98950-0.71222 0.05989  0 392.95 495.38  157.68 393.04 495.69  157.16
   2   3  -9  19.602 125.631   2-0.12274 0.37763 0.99170-0.69316-0.03830-0.61395  0 139.73 125.54  288.86 139.20 125.09  289.72
   2   3   9 107.220 103.534   2-0.14623 0.40122-0.60863 0.90707 0.77986-0.12745  0 107.51 190.08   58.60 107.70 189.98   58.26
  -2  -3  10 719.670 167.096   1-0.56375 0.30847-0.82307 0.52497-0.06888 0.79325  0 110.23 123.99  115.99 110.09 124.07  116.10
  -2  -3  10 803.323 203.461   2 0.00950-0.26456-0.99812 0.69942 0.06054 0.66394  0 190.78  34.55  107.49 190.71  34.69  107.52
  -2   3  10 793.055 198.728   2-0.12753-0.12746-0.69328 0.99172 0.70929 0.01560  0 179.08  44.24   65.06 178.82  43.50   64.67
   2  -3 -10 596.069  98.974   1-0.23627 0.49125 0.57099-0.86892-0.78622 0.06048  0 212.63 496.06    9.93 212.36 495.80    9.74
   2  -3 -10 573.442 171.574   2 0.02486 0.23012 0.67452-0.97307-0.73784 0.01306  0 131.67  91.00  244.19 131.49  91.23  243.63
   2  -3  10 620.947 160.150   1-0.38050 0.63578-0.89456 0.59647 0.23447 0.48990  0  75.59 236.48  137.10  74.98 236.46  136.91
   2  -3  10 644.180 153.261   2 0.01082 0.24423-0.99852 0.69983 0.05321 0.67126  0  91.02 163.11  107.71  90.67 163.21  107.94
   2   3 -10 582.598 170.151   2-0.11149 0.36638 0.98866-0.69012-0.10062-0.62410  0 122.83 102.36  285.85 122.97 102.63  286.08
   2   3  10 545.340 145.833   2-0.14450 0.39949-0.61701 0.91545 0.77358-0.04868  0  85.96 177.62   59.03  85.56 177.70   58.87
  -2  -3  11  3507.9   273.3   1-0.52355 0.26827-0.85195 0.55386 0.00860 0.78821  0  88.19 102.10  121.33  88.14 102.29  121.36
  -2  -3  11  3961.9   389.4   2-0.00196-0.25309-0.99245 0.69375 0.12264 0.67428  2 168.69   8.88  103.74 168.57   8.54  103.89
  -2   3  11  3412.8   356.7   2-0.12834-0.12665-0.68987 0.98831 0.71247 0.08492  0 156.45  18.45   64.42 156.33  18.51   64.40
   2  -3 -11  3464.8   336.5   2 0.02523 0.22976 0.67296-0.97152-0.73925-0.05801  0 113.02  64.58  243.56 112.76  64.55  243.51
   2  -3  11  3510.1   280.5   1-0.35209 0.60737-0.89529 0.59720 0.27292 0.52388  0  48.32 223.00  139.67  48.06 222.93  139.65
   2  -3  11  3879.1   293.5   2-0.00222 0.25727-0.99227 0.69358 0.12405 0.67288  0  65.58 148.82  103.77  65.05 148.84  103.81
   2   3 -11  3015.4   315.3   2-0.10050 0.35540 0.98205-0.68351-0.15961-0.63758  0 103.89  76.78  282.69 103.60  76.69  282.62
   2   3  11  3727.6   285.3   2-0.14428 0.39926-0.61807 0.91651 0.77277 0.02461  0  59.87 164.04   58.78  59.63 164.12   58.94
  -2  -4   0  6930.9   199.8   1-0.56590 0.31092 0.08280-0.48003-0.82031 0.82031  0 185.90 256.92   44.02 185.96 256.84   44.03
  -2  -4   0  6971.2   192.2   2-0.21427-0.04065-0.14323-0.25451 0.96622-0.96622  0 432.00 299.95   29.01 432.29 300.01   28.96
  -2  -4   0  6446.2   184.0   2 0.13589-0.39090-0.36777-0.03021-0.91994 0.91994  0 302.19 134.14  179.28 302.27 134.28  179.34
  -2   4   0  5076.7   152.0   1-0.64795 0.39294-0.13531 0.53268-0.74957 0.74957  0 382.94 154.33   57.92 383.03 154.48   58.01
  -2   4   0  7215.9   203.6   2-0.23406-0.02086 0.13055 0.26719 0.96342-0.96342  0 283.48 136.89   13.00 283.59 137.08   13.17
  -2   4   0  6697.2   198.0   2 0.08597-0.34095 0.33577 0.06231-0.93801 0.93801  0 423.24 318.76  220.69 423.45 318.75  220.66
   2  -4   0  5035.3   138.0   1-0.65281 0.90809-0.70000 0.30254-0.28955 0.28955  0 226.85 349.28  100.72 226.77 349.18  100.71
   2  -4   0  6920.8   201.2   2-0.18327 0.43819-0.39802 0.00028 0.89888-0.89888  0 312.37 382.28   43.79 312.39 382.13   44.19
   2  -4   0  6940.3   187.9   2 0.13215 0.12287-0.19602-0.20196-0.97166 0.97166  0 195.24 210.30  189.66 195.15 210.28  189.63
   2   4   0  6381.4   212.2   1-0.31467 0.56965 0.48243-0.08520-0.81746 0.81746  0 439.98 258.98   16.90 440.09 259.06   16.75
   2   4   0   3.077  50.301   2 0.10078 0.15421 0.21615 0.18192-0.97115 0.97115  0 293.19 380.43  212.76 292.90 380.62  213.48
   2   4   0  6599.8   173.8   2-0.24102 0.49583 0.43491-0.03725 0.86762-0.86762  0 189.51 226.96  354.59 189.47 226.95  354.54
  -2  -4  -1 12985.9   267.5   1-0.51034 0.25536 0.19359-0.59082-0.83790 0.76532  0 184.72 266.48   36.97 184.80 266.38   36.87
  -2  -4  -1 14081.6   252.2   2-0.19250-0.06242-0.33228-0.06547 0.92333-0.99590  0 435.20 297.23   39.84 435.56 297.31   40.15
  -2  -4  -1 13168.3   244.0   2 0.13211-0.38713-0.19495-0.20303-0.97188 0.89940  0 305.54 132.19  189.75 305.59 132.36  189.69
  -2  -4   1 12102.0   257.2   1-0.61501 0.36000-0.03626-0.36111-0.78769 0.86023  0 184.90 247.37   51.66 184.91 247.30   51.65
  -2  -4   1 12504.4   244.0   2-0.22881-0.02611 0.03695-0.43470 0.97277-0.90020  0 431.97 306.01   18.59 432.22 306.07   18.56
  -2  -4   1 13238.2   252.7   2 0.13358-0.38860-0.52588 0.12790-0.84001 0.91249  0 296.90 132.90  169.08 296.98 133.07  169.16
  -2   4  -1 11101.0   221.5   1-0.68103 0.42602-0.27389 0.67126-0.67910 0.60656  0 399.05 163.97   67.00 399.25 164.22   67.13
  -2   4  -1 13773.4   265.5   2-0.23970-0.01522 0.30191 0.09583 0.92271-0.99528  0 286.26 134.62    3.00 286.41 134.74    3.03
  -2   4  -1 13116.8   259.4   2 0.10515-0.36013 0.17646 0.22161-0.97868 0.90620  0 426.82 316.69  211.12 427.01 316.66  211.16
  -2   4   1 12109.6   189.5   1-0.57211 0.31713 0.06916 0.32807-0.81726 0.88983  0 368.57 144.04   44.98 368.53 144.23   44.91
  -2   4   1 13648.4   266.2   2-0.22381-0.03111-0.03398 0.43172 0.97404-0.90147  0 278.73 136.38   22.65 278.89 136.50   22.64
  -2   4   1 13421.2   267.8   2 0.06263-0.31761 0.48611-0.08804-0.87165 0.94413  0 422.57 324.10  230.00 422.77 324.03  230.18
   2  -4  -1  9184.9   162.6   1-0.67066 0.92567-0.65344 0.25607-0.35104 0.27850  0 238.40 360.44   96.04 238.36 360.26   96.15
   2  -4  -1 12866.0   258.8   2-0.15943 0.41442-0.53998 0.14206 0.82644-0.89893  0 317.30 383.95   53.40 317.33 383.84   53.44
   2  -4  -1 13587.9   257.7   2 0.12301 0.13201-0.02781-0.37017-0.99202 0.91954  0 195.61 205.86  199.30 195.54 205.83  199.38
   2  -4   1  9849.2   200.3   1-0.63398 0.88926-0.73713 0.33967-0.23390 0.30634  0 214.52 338.79  104.69 214.46 338.73  104.69
   2  -4   1 13206.5   259.6   2-0.20337 0.45829-0.24454-0.15320 0.94807-0.87550  0 309.22 384.03   35.21 309.25 383.87   34.90
   2  -4   1 13402.5   250.7   2 0.13589 0.11913-0.36776-0.03022-0.91994 0.99242  0 192.74 212.42  179.26 192.69 212.37  179.34
   2   4  -1 12269.9   274.2   1-0.39005 0.64503 0.38460 0.01263-0.83663 0.76405  0 441.57 270.73   23.91 441.64 270.79   23.91
   2   4  -1 12519.9   235.4   2-0.23650 0.49131 0.58055-0.18266 0.77912-0.85161  0 189.41 221.92  344.82 189.37 221.90  344.74
   2   4   1 12852.5   278.4   1-0.22983 0.48481 0.57770-0.18047-0.78323 0.85580  0 441.70 247.24    9.02 441.83 247.27    9.18
   2   4   1 13127.4   235.0   2-0.23921 0.49413 0.27034 0.12741 0.93257-0.86000  0 187.37 229.38    5.00 187.27 229.31    4.93
   2   4   1 12887.5   241.2   2 0.07588 0.17910 0.40462-0.00655-0.91133 0.98381  0 289.38 382.05  225.24 289.45 381.77  224.94
  -2  -4  -2 13796.3   278.1   1-0.45280 0.19782 0.29156-0.68879-0.84260 0.69745  0 181.45 276.16   30.26 181.50 276.09   30.35
  -2  -4  -2 14462.0   260.0   2-0.16499-0.09000-0.50912 0.11120 0.84474-0.98972  0 441.76 297.84   51.23 442.03 297.94   51.36
  -2  -4  -2 14099.0   257.2   2 0.12258-0.37756-0.02432-0.37375-0.99216 0.84721  0 306.88 126.97  199.59 306.92 127.12  199.56
  -2  -4   2 12146.3   261.9   1-0.65422 0.39922-0.15726-0.24011-0.73977 0.88486  0 181.77 237.72   59.35 181.78 237.64   59.44
  -2  -4   2 13127.9   261.0   2-0.23667-0.01825 0.19218-0.58993 0.95239-0.80725  0 434.85 315.21    9.59 435.02 315.26    9.57
  -2  -4   2 13416.2   263.6   2 0.12628-0.38130-0.65831 0.26033-0.74208 0.88704  0 289.82 128.86  159.74 289.92 129.00  159.71
  -2   4  -2 12176.6   246.7   1-0.69395 0.43894-0.36496 0.76233-0.62068 0.47559  0 417.08 173.42   73.18 417.24 173.66   73.36
  -2   4  -2 14016.6   271.5   2 0.11924-0.37422 0.02201 0.37606-0.99262 0.84767  0 433.39 317.81  201.79 433.62 317.78  202.22
  -2   4  -2 13241.7   265.5   2-0.24054-0.01427 0.46381-0.06615 0.85266-0.99771  0 287.17 129.40  352.73 287.33 129.58  352.67
  -2   4   2 13650.0   181.0   1-0.41671 0.16173 0.34656 0.05067-0.84038 0.98553  0 355.91 133.09   26.68 355.82 133.27   26.58
  -2   4   2 15307.9   293.1   2-0.21072-0.04419-0.17872 0.57646 0.96107-0.81593  0 272.27 133.11   31.00 272.46 133.26   31.02
  -2   4   2 13775.7   281.8   2 0.03763-0.29262 0.61734-0.21927-0.78580 0.93075  0 424.57 332.52  239.23 424.75 332.42  239.29
   2  -4  -2  9468.5   149.4   1-0.68595 0.94095-0.59346 0.19609-0.42105 0.27596  0 248.85 372.45   90.91 248.81 372.26   90.80
   2  -4  -2 14435.5   282.2   2-0.13477 0.38976-0.66204 0.26412 0.73725-0.88223  0 324.02 388.85   62.11 324.05 388.76   62.23
   2  -4  -2 14337.8   272.8   2 0.11056 0.14443 0.12286-0.52093-0.98625 0.84129  0 194.04 199.16  207.93 193.97 199.13  208.04
   2  -4   2 10592.5   222.8   1-0.61418 0.86946-0.76791 0.37045-0.18194 0.32681  0 201.44 328.81  108.22 201.43 328.78  108.33
   2  -4   2 14077.0   272.0   2-0.21897 0.47389-0.09295-0.30480 0.97129-0.82615  0 307.85 389.21   25.77 307.86 389.04   26.04
   2  -4   2 14316.7   263.0   2 0.13354 0.12148-0.52719 0.12921-0.83919 0.98415  0 188.20 212.17  169.01 188.12 212.14  169.07
   2   4  -2 12344.4   278.5   1-0.45362 0.70860 0.29026 0.10698-0.84260 0.69746  0 446.34 282.78   30.35 446.47 282.84   30.44
   2   4  -2 13808.5   267.5   2 0.12929 0.12573-0.13364 0.53162-0.98256 0.83760  2 305.14 389.00  193.00 305.12 388.77  193.27
   2   4  -2 13184.9   252.0   2-0.22742 0.48223 0.69947-0.30158 0.67751-0.82250  0 187.32 214.61  335.90 187.25 214.60  335.74
   2   4   2 13538.7   292.1   1-0.13891 0.39389 0.66445-0.26722-0.73431 0.87946  0 446.62 235.22    1.46 446.84 235.19    1.45
   2   4   2 14061.3   245.8   2-0.23258 0.48750 0.10320 0.29454 0.96709-0.82194  0 182.88 229.39   14.77 182.83 229.34   14.74
   2   4   2 13692.0   251.5   2 0.04630 0.20868 0.57490-0.17683-0.81691 0.96186  0 287.72 386.88  236.20 287.79 386.63  236.23
  -2  -4  -3 15625.9   302.7   1-0.39743 0.14245 0.37422-0.77145-0.83786 0.62014  0 176.10 286.08   24.96 176.18 286.00   24.64
  -2  -4  -3 16634.3   323.7   1 0.04625-0.30158-0.73802 0.34050 0.67319-0.89057  0 455.23 292.21  173.98 455.30 292.11  173.72
  -2  -4  -3 16898.5   289.2   2-0.13569-0.11930-0.65795 0.26004 0.74073-0.95820  0 451.75 301.75   62.00 452.03 301.85   61.92
  -2  -4  -3 16026.4   283.1   2 0.11009-0.36507 0.12779-0.52586-0.98567 0.76824  0 306.42 118.54  208.32 306.44 118.70  208.32
  -2  -4   3 13417.3   279.9   1-0.68117 0.42616-0.27466-0.12271-0.67865 0.89629  0 176.56 227.79   67.02 176.57 227.77   67.18
  -2  -4   3 15576.1   299.8   2-0.23995-0.01497 0.31606-0.71381 0.91789-0.70018  0 440.35 327.34    1.81 440.50 327.34    2.18
  -2  -4   3 15527.0   296.8   2 0.11552-0.37054-0.76215 0.36418-0.63700 0.85444  0 281.21 122.27  150.97 281.32 122.44  151.21
  -2   4  -3 12949.3   275.1   1-0.69783 0.44282-0.42392 0.82129-0.57735 0.35972  0 437.08 182.81   77.53 437.20 183.05   77.55
  -2   4  -3 15898.5   297.8   2 0.12837-0.38339-0.11578 0.51376-0.98494 0.76750  0 443.07 322.03  193.83 443.33 322.02  194.31
  -2   4  -3 15681.8   298.5   2-0.23501-0.01980 0.60521-0.20732 0.76059-0.97807  0 286.46 121.14  343.23 286.56 121.33  342.97
  -2   4   3 16366.9   178.6   1-0.15807-0.09691 0.64733-0.25010-0.74564 0.96336  0 345.67 121.06    3.18 345.52 121.23    3.05
  -2   4   3 17666.3   329.5   2-0.19701-0.05791-0.29746 0.69521 0.93419-0.71647  0 264.24 127.43   37.91 264.42 127.60   38.05
  -2   4   3 15873.1   312.7   2 0.01258-0.26756 0.72454-0.32647-0.68911 0.90655  0 429.07 343.86  247.74 429.28 343.80  247.71
   2  -4  -3 10866.2   149.3   1-0.69660 0.95161-0.51174 0.11437-0.50286 0.28523  0 257.20 385.46   84.15 257.54 385.25   84.14
   2  -4  -3 16402.0   314.9   2-0.11034 0.36533-0.76050 0.36258 0.63989-0.85736  0 332.54 396.86   69.87 332.53 396.76   70.30
   2  -4  -3 16378.1   300.5   2 0.09700 0.15799 0.24847-0.64655-0.96377 0.74634  0 190.70 190.42  215.40 190.61 190.41  215.39
   2  -4   3 12132.5   254.3   1-0.59343 0.84871-0.79386 0.39640-0.13277 0.35008  0 187.69 319.24  111.83 187.69 319.21  111.72
   2  -4   3 15935.2   296.6   2-0.22919 0.48411 0.04519-0.44293 0.97233-0.75462  0 308.11 397.80   18.00 308.11 397.63   18.09
   2  -4   3 15316.9   278.9   2 0.12590 0.12912-0.66274 0.26476-0.73819 0.95563  0 181.55 209.75  159.29 181.48 209.75  159.37
   2   4  -3 13700.0   296.5   1-0.50452 0.75950 0.20416 0.19307-0.83891 0.62119  0 454.38 295.43   36.02 454.54 295.50   36.17
   2   4  -3 16177.2   301.3   2 0.13432 0.12070-0.26731 0.66529-0.95420 0.73676  0 313.71 397.87  185.36 313.73 397.64  185.41
   2   4  -3 14873.2   279.3   2-0.21589 0.47070 0.79108-0.39318 0.57235-0.78984  0 183.35 205.32  327.82 183.31 205.33  327.69
   2   4   3 16121.5   269.4   2-0.22253 0.47745-0.05017 0.44792 0.97363-0.75592  0 176.25 227.10   23.56 176.17 227.06   23.57
   2   4   3 15272.0   272.2   2 0.01544 0.23954 0.71305-0.31498-0.70094 0.91837  0 287.65 395.33  246.79 287.71 395.02  246.74
  -2  -4  -4  2562.9   155.5   1-0.34774 0.09276 0.44125-0.83848-0.82727 0.53697  0 168.78 296.33   19.76 168.89 296.30   19.82
  -2  -4  -4  2557.5   190.6   1-0.04381-0.21153-0.79724 0.39973 0.60206-0.89189  0 466.94 305.74  166.21 466.96 305.67  166.33
  -2  -4  -4  2617.1   166.2   2-0.10681-0.14817-0.77328 0.37536 0.62500-0.91496  0 465.31 308.65   71.38 465.47 308.75   71.45
  -2  -4  -4  2422.3   160.1   2 0.09645-0.35144 0.25302-0.65110-0.96264 0.67273  0 304.29 107.22  215.76 304.39 107.24  215.66
  -2  -4   4  2195.1   147.6   1-0.69550 0.44049-0.38373-0.01364-0.60748 0.89765  0 169.40 217.52   74.64 169.37 217.49   74.68
  -2  -4   4  2466.7   180.5   2 0.10240-0.35745-0.83978 0.44151-0.53319 0.82298  0 271.23 113.53  143.71 271.32 113.64  143.72
  -2  -4   4  2461.9   191.4   2-0.24124-0.01357 0.40999-0.80765 0.87961-0.58950  0 448.29 342.13  356.01 448.46 342.26  356.13
  -2   4  -4  2088.0   176.8   1-0.69829 0.44328-0.46134 0.85871-0.54732 0.25714  0 459.49 192.30   80.11 459.57 192.52   80.30
  -2   4  -4  2440.9   172.7   2 0.13346-0.38848-0.23037 0.62835-0.96391 0.67399  0 456.03 329.25  187.55 456.22 329.23  187.61
  -2   4  -4  2355.9   177.6   2-0.22526-0.02955 0.72018-0.32229 0.65620-0.94618  0 284.23 110.21  334.24 284.32 110.32  334.03
  -2   4   4  2512.2   170.1   2-0.18443-0.07049-0.39010 0.78784 0.90211-0.61183  0 254.97 119.73   43.69 254.94 119.78   43.70
  -2   4   4  2337.2   192.1   2-0.01140-0.24350 0.80795-0.40989-0.58914 0.87903  0 435.84 357.96  254.86 435.97 357.96  255.30
   2  -4  -4  1593.9    78.9   1-0.69649 0.95150-0.39686-0.00051-0.59783 0.30766  0 263.18 399.55   75.63 263.37 399.34   75.61
   2  -4  -4  2577.9    90.6   1-0.15129 0.40662-0.85067 0.45315 0.50346-0.79329  0 340.13 408.37  157.60 339.87 408.18  157.42
   2  -4  -4  2706.1   194.4   2-0.08731 0.34230-0.83648 0.43856 0.54101-0.83096  0 342.68 407.92   77.56 342.73 407.76   77.58
   2  -4  -4  2495.2   155.5   2 0.08431 0.17067 0.34779-0.74586-0.93377 0.64386  0 185.71 179.84  221.40 185.62 179.80  221.40
   2  -4   4  1974.0   146.5   1-0.57181 0.82710-0.81592 0.41846-0.08549 0.37524  0 173.16 309.89  115.12 173.16 309.87  114.96
   2  -4   4  2550.3   175.0   2-0.23545 0.49037 0.16199-0.55974 0.95829-0.66800  0 309.75 409.64   11.01 309.70 409.47   11.34
   2  -4   4  2422.9   142.5   2 0.11444 0.14058-0.77012 0.37214-0.62755 0.91747  0 172.92 205.45  150.47 172.87 205.43  150.49
   2   4  -4  2282.6   185.8   1-0.54366 0.79864 0.12948 0.26775-0.82926 0.53896  0 465.87 309.10   41.14 465.96 309.15   41.03
   2   4  -4  2488.1   184.4   2 0.13589 0.11912-0.37022 0.76820-0.91895 0.62903  0 323.85 409.62  178.84 323.85 409.45  179.19
   2   4  -4  2351.6   145.2   2-0.20297 0.45778 0.85889-0.46099 0.47023-0.76021  0 177.77 194.30  320.68 177.72 194.32  320.60
   2   4   4  2840.7   145.0   2-0.21061 0.46553-0.17981 0.57756 0.96089-0.67060  0 167.47 222.83   31.01 167.41 222.79   31.08
   2   4   4  2287.2   160.4   2-0.01394 0.26883 0.81598-0.41793-0.57791 0.86779  0 288.93 407.05  255.72 289.01 406.83  256.11
  -2  -4  -5  3595.0   182.3   1-0.30530 0.05032 0.49365-0.89088-0.81431 0.45144  0 159.65 307.16   15.77 159.68 307.16   15.89
  -2  -4  -5  3202.7   220.7   1-0.12926-0.12607-0.84126 0.44374 0.52496-0.88724  0 482.09 320.60  159.10 482.19 320.55  159.27
  -2  -4  -5  3500.2   207.3   2-0.08001-0.17498-0.85745 0.45953 0.50830-0.87075  0 482.38 318.40   79.77 482.57 318.49   79.84
  -2  -4  -5  3228.6   187.6   2 0.08402-0.33900 0.34991-0.74798-0.93301 0.57062  0 300.96  92.78  221.55 301.05  92.88  221.53
  -2  -4   5  2986.3   170.6   1-0.69794 0.44294-0.48180 0.08443-0.52985 0.89257  0 160.35 206.64   81.92 160.28 206.65   81.84
  -2  -4   5  3241.6   222.1   2 0.08888-0.34393-0.89675 0.49849-0.43351 0.79575  0 259.88 102.66  137.11 260.10 102.91  137.10
  -2  -4   5  3217.1   224.5   2-0.24023-0.01458 0.47838-0.87603 0.84466-0.48203  0 458.75 359.95  351.74 458.80 359.97  351.71
  -2   4  -5  2521.4   224.4   1-0.69788 0.44287-0.48383 0.88120-0.52808 0.16536  0 484.66 202.28   82.09 484.89 202.38   81.99
  -2   4  -5  3372.9   213.8   2 0.13536-0.39038-0.32110 0.71908-0.93732 0.57492  0 472.14 339.28  181.82 472.52 339.32  182.17
  -2   4  -5  3430.7   212.3   2-0.21304-0.04177 0.80870-0.41081 0.54829-0.91076  0 280.66  96.43  325.81 280.74  96.60  325.95
  -2   4   5  4009.2   203.2   2-0.17369-0.08123-0.45975 0.85750 0.87090-0.50804  0 244.19 109.83   47.82 244.09 109.94   48.11
  -2   4   5  3427.3   229.5   2-0.03355-0.22135 0.87072-0.47266-0.49063 0.85299  0 444.93 375.22  262.30 445.08 375.13  262.12
   2  -4  -5  2529.6    87.9   1-0.67511 0.93011-0.24372-0.15365-0.69630 0.33358  0 264.67 414.86   65.23 264.80 414.62   65.11
   2  -4  -5  3393.0    96.6   1-0.39750 0.65278-0.89308 0.49562 0.21074-0.57293  0 338.57 424.24  135.36 338.35 424.02  135.24
   2  -4  -5  3559.3   233.3   2-0.06607 0.32105-0.89320 0.49528 0.44478-0.80723  0 354.64 421.79   83.86 354.70 421.78   84.11
   2  -4  -5  3236.4   181.9   2 0.07302 0.18197 0.42324-0.82131-0.90307 0.54068  0 179.14 167.39  226.25 179.08 167.46  226.12
   2  -4   5  2818.2   169.5   1-0.54921 0.80449-0.83474 0.43728-0.03979 0.40197  0 157.76 300.66  118.07 157.70 300.62  118.07
   2  -4   5  3568.4   209.5   2-0.23874 0.49366 0.25558-0.65333 0.93685-0.57399  0 312.53 424.79    5.88 312.48 424.59    5.81
   2  -4   5  3414.8   171.5   2 0.10007 0.15498-0.85074 0.45248-0.51597 0.87821  0 162.47 199.45  142.55 162.35 199.49  142.54
   2   4  -5  2910.1   232.9   1-0.57280 0.82778 0.06763 0.32960-0.81690 0.45403  0 480.71 324.12   45.16 480.90 324.19   45.01
   2   4  -5  3352.2   215.9   2 0.13553 0.11949-0.44653 0.84451-0.88445 0.52205  0 335.56 424.37  174.25 335.54 424.22  174.38
   2   4  -5  2907.2   174.2   2-0.18970 0.44451 0.90783-0.50993 0.37399-0.73647  0 170.54 181.69  314.41 170.58 181.70  314.34
   2   4   5  3511.5   166.9   2-0.19887 0.45378-0.28256 0.68031 0.93841-0.57555  0 156.73 216.94   37.00 156.69 216.89   37.15
   2   4   5  38.275  81.195   2-0.04073 0.29562 0.88822-0.49016-0.45761 0.81997  0 291.61 422.03  263.73 291.30 421.98  264.30
  -2  -4  -6  2462.7   176.6   1-0.27105 0.01607 0.53329-0.93052-0.80133 0.36589  0 148.58 318.87   12.89 148.61 318.78   12.80
  -2  -4  -6  2596.0   237.8   1-0.20831-0.04702-0.87109 0.47357 0.44475-0.87950  0 501.29 337.42  152.68 501.30 337.36  152.59
  -2  -4  -6  2498.1   222.0   2-0.05593-0.19906-0.91621 0.51829 0.39678-0.83172  2 503.23 330.88   86.76 503.64 330.98   87.21
  -2  -4  -6  2377.0   207.2   2 0.07320-0.32819 0.42202-0.82010-0.90362 0.46876  0 296.60  75.49  225.77 296.63  75.62  226.04
  -2  -4   6  2069.0   163.8   1-0.69053 0.43552-0.56728 0.16991-0.44874 0.88400  0 149.24 194.97   88.56 149.30 195.04   88.60
  -2  -4   6  2601.5   193.5   2 0.07545-0.33050-0.93740 0.53914-0.33997 0.77466  0 247.79  89.94  130.86 247.65  90.22  131.20
  -2  -4   6  2283.9   242.9   2-0.23889-0.01592 0.52659-0.92448 0.81586-0.38089  0 471.77 380.71  348.50 471.83 380.79  348.49
  -2   4  -6  2271.5   235.2   2 0.13597-0.39099-0.38982 0.78780-0.91080 0.47592  0 492.37 352.34  177.79 492.62 352.36  177.97
  -2   4  -6  2545.1   215.2   2-0.19926-0.05555 0.87437-0.47648 0.44245-0.87743  0 275.87  79.95  318.78 276.00  80.11  318.76
  -2   4   6  2753.9   200.3   2-0.16483-0.09015-0.51002 0.90794 0.84422-0.40928  0 232.00  98.15   51.43 231.88  98.23   51.42
  -2   4   6  2026.7   244.0   2-0.05371-0.20119 0.91658-0.51852-0.39622 0.83106  0 456.33 395.54  267.88 456.53 395.49  268.25
   2  -4  -6  2184.1    95.0   1-0.62843 0.88344-0.07400-0.32337-0.77434 0.33908  0 261.38 431.57   54.24 261.38 431.26   54.07
   2  -4  -6  2268.4    99.2   1-0.53981 0.79509-0.84151 0.44406-0.02152-0.41310  0 342.53 442.98  119.40 342.44 442.82  119.31
   2  -4  -6  2724.4   256.1   2-0.04688 0.30186-0.93439 0.53647 0.35314-0.78808  0 368.66 439.20   90.03 368.59 439.05   89.97
   2  -4  -6  2429.8   189.0   2 0.06383 0.19115 0.47904-0.87712-0.87547 0.44060  0 171.23 153.44  230.19 171.00 153.37  229.72
   2  -4   6  1892.6   168.3   1-0.52563 0.78091-0.85070 0.45324 0.00480 0.42982  0 141.12 291.27  121.12 141.13 291.30  121.10
   2  -4   6  2506.9   211.6   2-0.24009 0.49500 0.32760-0.72535 0.91380-0.47837  0 316.20 443.29    1.45 316.27 443.16    1.47
   2  -4   6  2334.5   165.9   2 0.08544 0.16961-0.90887 0.51061-0.40823 0.84292  0 149.98 192.06  135.43 149.95 192.09  135.48
   2   4  -6  2316.6   232.0   1-0.59383 0.84881 0.01854 0.37869-0.80437 0.36893  0 499.48 341.07   48.20 499.69 341.17   48.15
   2   4  -6  2611.6   237.3   2 0.13430 0.12072-0.50161 0.89959-0.85461 0.41973  0 348.84 442.42  171.20 348.88 442.17  170.79
   2   4  -6  2375.2   182.2   2-0.17639 0.43120 0.94230-0.54440 0.28453-0.71951  0 161.90 167.55  309.13 161.90 167.51  308.78
   2   4   6  2720.5   167.4   2-0.18868 0.44360-0.36029 0.75803 0.91356-0.47813  0 144.03 209.66   42.02 144.00 209.61   41.86
   2   4   6  -9.656  93.545   2-0.06422 0.31911 0.93634-0.53828-0.34518 0.78002  2 293.88 439.97  270.74 294.39 440.49  271.45
  -2  -4  -7  47.741  99.447   1-0.24468-0.01030 0.56212-0.95935-0.79003 0.28201  0 135.61 331.13   10.65 135.58 331.44   10.48
  -2  -4  -7   7.911 130.725   2 0.06476-0.31975 0.47382-0.87190-0.87824 0.37089  0 291.34  54.60  228.78 291.26  55.29  229.38
  -2  -4   7 109.819 102.139   1-0.67452 0.41951-0.64074 0.24337-0.36671 0.87452  0 136.45 182.85   95.14 136.42 182.39   94.97
  -2  -4   7 143.303 117.722   2 0.06227-0.31732-0.96551 0.56724-0.25283 0.75996  0 233.79  75.49  126.02 233.86  75.47  125.90
  -2  -4   7  33.651 173.922   2-0.23753-0.01728 0.56014-0.95803 0.79362-0.28615  0 487.67 405.06  346.43 487.71 405.20  346.18
  -2   4  -7  70.426 140.584   2-0.18505-0.06976 0.92142-0.52352 0.34168-0.84915  0 270.22  60.34  311.81 270.16  60.65  312.31
  -2   4   7 101.793 110.806   2-0.15829-0.09670-0.54619 0.94410 0.82257-0.31514  0 218.14  84.72   54.01 218.17  84.45   53.86
  -2   4   7  45.479 172.081   2-0.07194-0.18295 0.94901-0.55095-0.30693 0.81424  0 471.07 419.67  272.87 470.74 419.61  273.80
   2  -4  -7 -30.672  45.179   1-0.56834 0.82332 0.07748-0.47472-0.81914 0.31112  0 255.02 450.36   45.09 254.29 449.89   44.38
   2  -4  -7  40.828  65.370   1-0.61304 0.86832-0.76951 0.37205-0.17902-0.32804  0 351.65 465.08  109.07 351.04 465.18  108.53
   2  -4  -7   6.501 162.855   2-0.02949 0.28448-0.96330 0.56538 0.26679-0.77422  0 384.96 460.03   94.88 384.77 460.11   95.29
   2  -4  -7  24.552 105.425   2 0.05685 0.19813 0.51923-0.91730-0.85274 0.34540  0 161.53 137.38  233.19 161.28 137.42  232.39
   2  -4   7  69.251  98.553   1-0.50103 0.75631-0.86407 0.46661 0.04851 0.45855  0 122.73 281.88  125.09 123.19 281.74  124.08
   2  -4   7  52.857  92.308   2 0.07059 0.18446-0.94915 0.55089-0.30681 0.81394  0 135.59 183.40  129.48 135.52 183.37  129.17
   2  -4   7  11.868 147.590   2-0.24138 0.49619 0.38050-0.77816 0.89272-0.38504  0 320.95 465.52  357.53 320.97 465.46  357.98
   2   4  -7 153.637 159.890   2 0.13306 0.12196-0.54036 0.93834-0.83085 0.32349  0 364.22 463.82  168.40 364.19 463.78  168.18
   2   4  -7  31.587 102.119   2-0.16342 0.41823 0.96576-0.56787 0.20148-0.70895  0 151.68 151.78  302.86 151.57 151.65  303.77
   2   4   7  35.691  83.613   2-0.18042 0.43533-0.41710 0.81484 0.89078-0.38277  0 129.08 201.13   44.68 129.26 201.15   45.39
  -2  -4  -8  3656.8   225.1   1-0.22567-0.02931 0.58199-0.97922-0.78126 0.20066  0 120.81 345.53    8.68 120.49 345.50    8.82
  -2  -4  -8  3671.4   292.8   2 0.05855-0.31354 0.50974-0.90781-0.85833 0.27851  0 284.95  31.54  231.77 285.05  31.43  231.75
  -2  -4   8  3317.8   231.5   1-0.65184 0.39656-0.70217 0.30471-0.28647 0.86596  0 121.77 168.41  101.17 121.64 168.44  100.93
  -2  -4   8  3324.9   263.5   2 0.04937-0.30442-0.98392 0.58566-0.17164 0.75122  0 218.53  58.16  120.87 218.50  58.37  121.07
  -2   4  -8  2409.2   284.8   2-0.17063-0.08418 0.95389-0.55599 0.24695-0.82691  0 263.16  37.38  306.53 263.30  37.77  306.50
  -2   4   8  3710.0   263.6   2-0.15368-0.10130-0.57077 0.96869 0.80660-0.22669  0 202.86  68.25   55.58 202.75  68.43   55.57
  -2   4   8  3295.2   368.5   2-0.08844-0.16645 0.97083-0.57277-0.22286 0.80264  0 488.25 448.48  279.18 488.23 448.38  278.88
   2  -4  -8  3157.5   118.7   1-0.51172 0.76670 0.19107-0.58831-0.83764 0.25705  0 244.93 471.57   37.17 244.78 471.26   37.03
   2  -4  -8  2927.6   148.5   1-0.65298 0.90826-0.69962 0.30216-0.29008-0.28941  0 362.68 492.35  100.71 362.61 492.12  100.67
   2  -4  -8  3520.6   356.9   2-0.01411 0.26916-0.98242 0.58416 0.18613-0.76571  0 403.63 485.51   99.87 403.68 485.55  100.13
   2  -4  -8  3165.8   250.8   2 0.05174 0.20324 0.54709-0.94516-0.83547 0.25565  0 149.76 119.23  234.37 149.78 119.36  234.29
   2  -4   8  3354.3   241.6   1-0.47543 0.73072-0.87497 0.47751 0.09160 0.48789  0 103.65 271.80  127.30 103.49 271.74  127.01
   2  -4   8  3218.7   212.7   2 0.05586 0.19919-0.97562 0.57735-0.21224 0.79182  0 119.09 173.37  123.44 118.81 173.35  123.47
   2  -4   8  3731.4   309.3   2-0.24117 0.49599 0.41896-0.81662 0.87539-0.29519  0 326.37 492.40  355.57 326.42 492.22  355.56
   2   4  -8  3620.6   339.3   2 0.13189 0.12313-0.56653 0.96451-0.81342 0.23358  0 381.90 490.08  166.35 381.94 489.93  166.38
   2   4  -8  3145.6   242.2   2-0.15081 0.40570 0.98070-0.58264 0.12445-0.70423  0 139.33 133.86  299.30 139.46 133.90  299.23
   2   4   8  4154.8   232.5   2-0.17410 0.42902-0.45719 0.85494 0.87216-0.29159  0 112.57 191.64   48.01 112.25 191.57   47.95
  -2  -4  -9  8131.7   315.9   1-0.21341-0.04157 0.59441-0.99164-0.77533 0.12216  0 103.32 361.43    7.92 102.99 361.41    7.77
  -2  -4   9  7880.2   306.7   1-0.62394 0.36866-0.75365 0.35619-0.20668 0.85862  0 104.55 152.47  106.58 104.34 152.57  106.60
  -2  -4   9  8670.5   366.3   2 0.03676-0.29181-0.99473 0.59647-0.09568 0.74771  0 201.27  38.41  116.59 201.19  38.52  116.61
  -2   4  -9  5598.5   340.9   2-0.15647-0.09834 0.97491-0.57702 0.15833-0.81079  0 255.27  10.31  300.81 255.29  10.75  301.20
  -2   4   9  8871.8   369.1   2-0.15070-0.10429-0.58620 0.98412 0.79602-0.14362  0 185.27  49.67   56.70 185.23  49.76   56.65
   2  -4  -9  7548.1   174.4   1-0.46777 0.72275 0.26747-0.66470-0.84241 0.18924  0 233.88 496.53   31.93 233.92 496.45   31.98
   2  -4  -9  7876.6   344.6   2 0.04820 0.20678 0.56521-0.96329-0.82353 0.17124  0 136.21  98.60  235.59 136.12  98.73  235.54
   2  -4   9  8154.6   327.1   1-0.44888 0.70416-0.88345 0.48599 0.13427 0.51766  0  81.73 261.00  129.94  81.56 261.03  129.94
   2  -4   9  8535.9   323.7   2 0.04154 0.21352-0.99138 0.59312-0.12426 0.77629  0  99.80 161.98  118.22  99.46 161.98  118.28
   2   4  -9  7140.8   334.4   2-0.13846 0.39336 0.98900-0.59094 0.05206-0.70431  0 125.48 113.79  294.78 125.11 113.80  294.98
   2   4   9  8617.6   311.9   2-0.16951 0.42450-0.48370 0.88162 0.85866-0.20625  0  92.91 180.90   49.71  92.57 180.94   49.67
  -2  -4 -10  7782.5   335.1   1-0.20726-0.04772 0.60055-0.99778-0.77226 0.04652  0  82.92 379.88    7.09  82.63 379.83    7.24
  -2  -4  10  6904.1   337.7   1-0.59173 0.33645-0.79575 0.39830-0.12895 0.85332  0  84.28 134.07  112.01  84.22 134.16  111.99
  -2  -4  10  8265.4   407.7   2 0.02445-0.27950-0.99941 0.60114-0.02419 0.74867  0 181.50  15.06  112.42 181.35  15.16  112.44
  -2   4  10  8358.6   411.7   2-0.14909-0.10590-0.59430 0.99222 0.79030-0.06540  0 165.00  27.66   57.02 165.05  27.82   57.22
   2  -4 -10  7701.8   379.8   2 0.04617 0.20881 0.57558-0.97365-0.81644 0.09167  0 119.99  74.69  235.86 119.81  74.87  236.27
   2  -4  10  7159.9   327.5   1-0.42112 0.67640-0.88968 0.49222 0.17646 0.54791  0  57.17 249.29  132.67  56.74 249.27  132.85
   2  -4  10  7469.8   333.1   2 0.02752 0.22754-0.99873 0.60047-0.04211 0.76659  0  77.23 149.04  113.48  76.77 149.07  113.48
   2   4 -10  6808.6   367.9   2-0.12664 0.38153 0.99182-0.59376-0.01628-0.70844  0 108.28  90.68  291.25 108.03  90.77  291.00
   2   4  10  7998.3   336.5   2-0.16653 0.42151-0.50027 0.89819 0.84970-0.12481  0  69.91 168.88   50.76  69.53 168.94   50.77
  -2  -4 -11  2158.7   252.3   1-0.20656-0.04842 0.60125-0.99848-0.77190-0.02641  0  58.95 401.49    7.22  58.63 401.72    7.18
  -2  -4  11  2497.0   264.7   1-0.55616 0.30088-0.82935 0.43190-0.05345 0.85026  0  60.76 112.52  116.93  60.51 112.30  117.14
   2  -4 -11  2013.0   274.8   2 0.04538 0.20961 0.57958-0.97765-0.81365 0.01640  0 100.12  46.42  236.60 100.05  46.75  236.56
   2  -4  11  1905.4   237.4   1-0.39212 0.64740-0.89364 0.49618 0.21829 0.57851  0  28.64 236.05  135.65  28.17 236.04  135.77
   2  -4  11  2226.4   251.5   2 0.01411 0.24095-0.99929 0.60103 0.03488 0.76204  0  50.01 134.26  109.10  49.83 134.28  109.01
   2   4 -11  1901.8   268.5   2-0.11503 0.36993 0.99004-0.59198-0.08116-0.71604  0  87.33  63.68  287.41  87.40  63.83  287.22
   2   4  11  2130.1   236.8   2-0.16514 0.42013-0.50829 0.90621 0.84521-0.04782  0  41.86 155.35   50.66  42.19 155.41   51.30
  -2  -5   0 -23.638  69.223   1-0.60282 0.34781-0.00433-0.49238-0.79787 0.79787  0 162.59 267.98   49.44 162.92 268.01   49.61
  -2  -5   0 -31.388  88.896   2-0.20756-0.04735-0.20752-0.28966 0.95596-0.95596  0 460.64 325.74   32.38 460.49 325.69   32.72
  -2  -5   0 -16.256  85.393   2 0.13597-0.39099-0.38380-0.11367-0.91335 0.91335  0 288.65 107.83  178.66 288.63 107.87  178.34
  -2   5   0  85.627  88.794   1-0.59886 0.34388 0.00622 0.49032-0.80083 0.80083  0 410.59 132.90   48.82 410.45 133.09   48.94
  -2   5   0   1.414  97.446   2-0.23669-0.01823 0.19259 0.30459 0.95231-0.95231  0 265.82 113.88    9.55 266.12 113.88    9.55
  -2   5   0 -67.852  96.551   2 0.08306-0.33805 0.35669 0.14090-0.93052 0.93052  0 446.28 348.33  222.20 446.54 348.12  221.94
   2  -5   0 -23.075  51.890   1-0.66936 0.92437-0.65746 0.16075-0.34598 0.34598  0 206.65 364.09   96.24 206.28 363.87   96.53
   2  -5   0  21.972  94.189   2-0.18191 0.43682-0.40721-0.08997 0.89504-0.89504  0 329.56 410.84   44.37 329.79 410.85   44.77
   2  -5   0 -11.972  64.123   2 0.13373 0.12129-0.24555-0.25193-0.96012 0.96012  0 179.18 189.27  186.44 178.82 189.17  186.70
   2   5   0 -43.053 108.801   1-0.31879 0.57377 0.47744 0.01910-0.81879 0.81879  0 476.55 244.65   18.09 476.35 244.76   17.13
   2   5   0 -22.534  84.729   2 0.09495 0.16003 0.26547 0.23212-0.95943 0.95943  2 305.81 410.71  216.48 305.08 410.57  216.40
   2   5   0  45.392  65.097   2-0.24099 0.49580 0.43738 0.05969 0.86638-0.86638  0 170.30 209.12  354.30 170.31 209.01  354.38
  -2  -5  -1  2628.2   162.2   1-0.56258 0.30760 0.08997-0.58651-0.82183 0.74926  0 162.40 277.98   43.62 162.65 277.89   43.57
  -2  -5  -1  2893.4   177.7   2-0.18931-0.06561-0.35577-0.14142 0.91520-0.98777  0 464.00 322.91   41.56 464.22 323.00   41.58
  -2  -5  -1  3072.2   177.0   2 0.13381-0.38882-0.24819-0.24928-0.95943 0.88695  0 291.89 105.53  186.59 291.99 105.67  186.55
  -2  -5   1  2734.8   162.2   1-0.63803 0.38302-0.10300-0.39371-0.76309 0.83564  0 161.21 258.30   56.08 161.25 258.19   55.93
  -2  -5   1  3224.5   188.2   2-0.22143-0.03349-0.06367-0.43351 0.97310-0.90052  0 459.66 331.36   24.24 459.88 331.47   24.35
  -2  -5   1  3205.3   188.6   2 0.13405-0.38907-0.51174 0.01427-0.84862 0.92110  0 283.59 107.06  169.80 283.64 107.27  170.11
  -2   5  -1  2550.6   172.4   1-0.64389 0.38889-0.12178 0.61849-0.75536 0.68282  0 426.53 143.10   56.82 426.78 143.34   57.14
  -2   5  -1  3051.3   196.7   2 0.09928-0.35427 0.22924 0.26835-0.96829 0.89581  0 450.32 346.11  213.86 450.53 346.12  214.25
  -2   5   1  3051.2   151.5   1-0.52112 0.26614 0.17358 0.32296-0.83565 0.90822  0 395.93 121.89   37.76 396.14 122.10   38.18
  -2   5   1  3209.5   198.5   2-0.23009-0.02483 0.05948 0.43770 0.97135-0.89878  0 261.52 113.65   17.00 261.68 113.85   17.26
  -2   5   1  2762.1   198.4   2 0.06375-0.31873 0.47955 0.01804-0.87520 0.94767  0 445.27 353.26  230.20 445.31 353.13  229.75
   2  -5  -1  1976.2   113.1   1-0.68227 0.93728-0.61068 0.11397-0.40196 0.32941  0 216.79 375.74   92.20 216.81 375.50   92.28
   2  -5  -1  3045.9   195.6   2-0.16230 0.41729-0.52436 0.02696 0.83589-0.90838  0 334.73 412.33   52.34 334.75 412.23   52.38
   2  -5  -1  3416.5   171.2   2 0.12806 0.12696-0.11013-0.38734-0.98563 0.91315  0 179.65 184.96  194.64 179.51 184.99  194.64
   2  -5   1  2185.7   126.7   1-0.65374 0.90902-0.69785 0.20103-0.29263 0.36507  0 194.79 353.21  100.46 194.74 353.07  100.49
   2  -5   1  2963.2   193.0   2-0.19867 0.45358-0.28419-0.21299 0.93796-0.86539  0 326.49 412.80   37.01 326.48 412.78   37.25
   2  -5   1  3173.8   164.8   2 0.13597 0.11905-0.38281-0.11466-0.91377 0.98625  0 176.28 191.27  178.38 176.21 191.27  178.40
   2   5  -1  2768.6   206.9   1-0.38337 0.63835 0.39380 0.10274-0.83543 0.76286  0 479.07 257.26   23.12 479.17 257.37   23.25
   2   5  -1  3004.2   186.1   2 0.11094 0.14404 0.11884 0.37875-0.98670 0.91422  0 310.18 412.87  207.85 310.26 412.58  207.80
   2   5  -1  2689.1   151.3   2-0.23768 0.49249 0.55700-0.05963 0.79578-0.86827  0 170.55 204.33  346.43 170.54 204.34  346.40
   2   5   1  2822.8   203.6   1-0.24587 0.50085 0.56085-0.06431-0.79057 0.86314  0 476.79 231.88   10.59 476.89 231.99   10.58
   2   5   1  2993.8   152.0   2-0.23979 0.49471 0.30779 0.18939 0.92074-0.84817  0 168.06 211.40    2.77 167.98 211.38    2.68
  -2  -5  -2 10455.9   276.8   1-0.51968 0.26470 0.17628-0.67282-0.83598 0.69083  0 160.17 288.08   37.97 160.31 287.96   38.00
  -2  -5  -2 10796.4   275.4   2-0.16697-0.08802-0.49768 0.00028 0.85114-0.99612  0 470.86 323.27   50.58 471.03 323.32   50.60
  -2  -5  -2 10884.4   270.9   2 0.12827-0.38329-0.11391-0.38357-0.98518 0.84022  0 293.62 100.28  194.40 293.69 100.49  194.42
  -2  -5   2  9362.3   261.6   1-0.66599 0.41099-0.20277-0.29394-0.71787 0.86295  0 157.59 248.40   62.30 157.61 248.30   62.41
  -2  -5   2 11031.9   288.1   2-0.23051-0.02441 0.06647-0.56365 0.97080-0.82565  0 461.92 340.20   17.15 462.14 340.24   16.86
  -2  -5   2 11006.4   285.4   2 0.12862-0.38364-0.62542 0.12794-0.76962 0.91458  0 276.96 103.82  161.96 277.08 104.01  162.17
  -2   5  -2  9152.9   250.4   1-0.66927 0.41426-0.21623 0.71294-0.71086 0.56577  0 445.14 152.88   63.12 445.25 153.14   63.29
  -2   5  -2 10957.3   293.8   2 0.11224-0.36723 0.10490 0.39269-0.98813 0.84317  0 457.28 347.16  206.86 457.46 347.12  207.00
  -2   5  -2 10750.1   290.0   2-0.24060-0.01421 0.46094 0.03613 0.85419-0.99925  0 269.85 105.95  353.08 270.04 106.18  352.85
  -2   5   2  7604.3   185.8   1-0.39579 0.14081 0.37655 0.11999-0.83759 0.98274  0 383.75 109.89   24.47 383.73 110.23   24.48
  -2   5   2  6477.5   234.2   2-0.22152-0.03340-0.06254 0.55973 0.97315-0.82801  0 255.56 111.18   24.23 255.64 111.33   24.29
  -2   5   2 10372.1   290.9   2 0.04293-0.29791 0.59174-0.09415-0.80498 0.94994  0 446.52 361.24  237.40 446.71 361.18  237.42
   2  -5  -2  6941.9   162.4   1-0.69216 0.94717-0.55590 0.05919-0.46032 0.31523  0 226.18 388.32   87.77 226.23 388.07   87.66
   2  -5  -2 11578.7   304.7   2-0.14167 0.39666-0.63030 0.13290 0.76331-0.90829  0 341.37 416.83   60.00 341.35 416.70   59.85
   2  -5  -2 11945.5   284.8   2 0.11975 0.13523 0.01531-0.51290-0.99269 0.84773  0 178.45 178.79  201.83 178.36 178.79  201.84
   2  -5   2  8344.8   229.2   1-0.63664 0.89192-0.73253 0.23570-0.24103 0.38591  0 182.31 342.93  103.87 182.34 342.86  104.18
   2  -5   2 11528.4   298.4   2-0.21235 0.46726-0.16271-0.33447 0.96355-0.81841  0 324.77 418.11   30.01 324.74 417.96   30.09
   2  -5   2 11304.5   273.7   2 0.13399 0.12103-0.51351 0.01603-0.84756 0.99252  0 171.76 191.39  170.20 171.68 191.38  169.99
   2   5  -2  9712.3   299.0   1-0.43848 0.69346 0.31395 0.18259-0.84213 0.69698  0 485.30 270.13   28.96 485.36 270.24   28.83
   2   5  -2 11275.6   290.5   2 0.12202 0.13296-0.01639 0.51398-0.99239 0.84744  0 316.97 418.07  200.00 317.00 417.85  200.01
   2   5  -2 10664.5   261.9   2-0.23090 0.48571 0.66141-0.16404 0.71360-0.85859  0 168.92 197.68  339.02 168.90 197.69  338.76
   2   5   2 11211.7   305.3   1-0.16638 0.42136 0.63974-0.14320-0.75037 0.89552  0 480.70 218.76    3.95 480.73 218.80    3.75
   2   5   2 10834.2   252.1   2-0.23609 0.49101 0.17726 0.31992 0.95543-0.81028  0 163.67 211.90   10.39 163.67 211.86   10.44
  -2  -5  -3 14651.5   322.2   1-0.47675 0.22177 0.25254-0.74908-0.84198 0.62426  0 155.89 298.49   33.06 155.99 298.41   32.97
  -2  -5  -3 15004.0   321.2   2-0.14301-0.11198-0.62412 0.12672 0.76813-0.98560  0 481.06 326.61   59.31 481.37 326.73   59.39
  -2  -5  -3 15095.8   318.0   2 0.12011-0.37509 0.01060-0.50819-0.99270 0.77527  0 293.76  92.21  201.61 293.81  92.35  201.57
  -2  -5   3 12980.0   309.5   1-0.68547 0.43046-0.30021-0.19650-0.66333 0.88096  0 151.95 238.27   68.98 152.02 238.24   68.90
  -2  -5   3 14414.1   333.8   2-0.23611-0.01881 0.17778-0.67497 0.95532-0.73761  0 466.96 351.89   10.37 467.12 351.96   10.41
  -2  -5   3 15190.7   336.5   2 0.12037-0.37539-0.72141 0.22393-0.68197 0.89941  0 268.93  98.16  154.73 269.04  98.30  154.69
  -2   5  -3 12653.7   304.9   1-0.68278 0.42777-0.28399 0.78070-0.67317 0.45554  0 466.06 162.41   67.86 466.20 162.65   67.80
  -2   5  -3 14451.7   331.6   2 0.12155-0.37653-0.00979 0.50738-0.99254 0.77510  0 467.30 351.20  200.35 467.49 351.16  200.39
  -2   5  -3 14385.0   330.6   2-0.23648-0.01833 0.58092-0.08356 0.77885-0.99633  0 269.51  97.96  344.86 269.66  98.14  344.72
  -2   5   3 14723.5   221.6   1-0.21701-0.03797 0.59078-0.09424-0.77710 0.99483  0 373.73  96.74    8.05 373.56  96.96    8.08
  -2   5   3 16324.4   340.6   2-0.21176-0.04316-0.16852 0.66570 0.96268-0.74497  0 248.22 106.27   30.34 248.09 106.48   30.43
  -2   5   3 14481.5   347.8   2 0.02138-0.27636 0.68911-0.19152-0.72435 0.94178  0 450.54 372.34  245.05 450.68 372.23  244.79
   2  -5  -3  9816.3   175.6   1-0.69773 0.95274-0.49127-0.00544-0.52136 0.30373  0 234.20 402.07   82.63 234.21 401.82   82.56
   2  -5  -3 15736.7   354.8   2-0.12063 0.37562-0.72153 0.22413 0.68180-0.89927  0 349.77 424.50   67.13 349.75 424.36   66.97
   2  -5  -3 15636.0   331.1   2 0.11029 0.14470 0.12570-0.62329-0.98592 0.76849  0 175.53 170.62  208.15 175.49 170.63  208.20
   2  -5   3 11443.3   273.5   1-0.61790 0.87318-0.76265 0.26583-0.19122 0.40853  0 168.94 333.07  107.68 169.00 333.05  107.68
   2  -5   3 14660.7   328.1   2-0.22259 0.47751-0.04938-0.44780 0.97366-0.75595  0 324.56 426.58   23.50 324.48 426.43   23.53
   2  -5   3 14881.8   312.7   2 0.12828 0.12674-0.63047 0.13300-0.76554 0.98298  0 165.30 189.55  161.96 165.22 189.58  161.80
   2   5  -3 12516.5   331.2   1-0.48361 0.73859 0.24083 0.25571-0.84150 0.62377  0 494.90 283.57   33.95 494.94 283.68   33.75
   2   5  -3 14356.9   330.6   2 0.12931 0.12571-0.13410 0.63158-0.98249 0.76505  0 325.31 426.50  192.84 325.25 426.28  193.25
   2   5  -3 14051.4   303.3   2-0.22198 0.47679 0.74848-0.25112 0.62490-0.84239  0 165.51 189.12  331.66 165.46 189.15  331.59
   2   5   3 15194.0   299.3   2-0.22974 0.48466 0.05387 0.44331 0.97176-0.75405  0 157.31 210.38   17.59 157.26 210.37   17.59
  -2  -5  -4 26532.8   431.0   1-0.43609 0.18111 0.31760-0.81414-0.84199 0.55170  0 149.54 309.46   28.63 149.70 309.35   28.58
  -2  -5  -4 28410.3   472.2   1-0.00049-0.25484-0.77028 0.27339 0.63770-0.92753  0 499.40 324.90  169.98 499.45 324.78  169.89
  -2  -5  -4 27380.6   430.0   2-0.11842-0.13657-0.73016 0.23276 0.67294-0.96290  0 495.06 332.97   67.68 495.34 333.09   67.68
  -2  -5  -4 28494.7   436.2   2 0.11088-0.36587 0.11944-0.61703-0.98663 0.69672  0 292.48  81.06  207.95 292.54  81.26  207.84
  -2  -5   4 25024.6   427.0   1-0.69614 0.44113-0.39239-0.10433-0.60118 0.89136  0 144.46 227.84   75.16 144.50 227.79   75.29
  -2  -5   4 27592.9   461.7   2-0.23917-0.01575 0.26872-0.76590 0.93305-0.64277  0 474.78 366.65    4.89 474.88 366.67    5.03
  -2  -5   4 27961.5   459.2   2 0.10974-0.36479-0.79899 0.30116-0.59125 0.88104  0 259.47  90.12  147.84 259.53  90.20  147.81
  -2   5  -4 23947.0   437.0   1-0.69004 0.43503-0.33154 0.82825-0.64337 0.35319  0 489.95 171.94   71.00 490.06 172.15   71.04
  -2   5  -4 26886.5   446.0   2 0.12807-0.38309-0.11017 0.60765-0.98563 0.69571  0 480.70 358.26  194.58 480.91 358.24  194.63
  -2   5  -4 26213.9   445.2   2-0.22886-0.02595 0.68469-0.18732 0.69197-0.98196  0 267.81  87.22  337.11 267.92  87.41  336.93
  -2   5   4 30038.5   465.9   2-0.20195-0.05297-0.25670 0.75388 0.94516-0.65487  0 239.16  99.26   35.59 239.02  99.40   35.62
  -2   5   4 26049.1   458.8   2 0.00004-0.25494 0.77016-0.27259-0.63785 0.92774  0 457.00 386.51  251.73 457.05 386.33  251.71
   2  -5  -4 19874.3   227.5   1-0.69753 0.95254-0.41573-0.08098-0.58362 0.29345  0 240.41 417.24   77.01 240.39 416.96   76.96
   2  -5  -4 29178.0   282.8   1-0.00134 0.25667-0.77083 0.27394 0.63704-0.92686  0 367.35 434.05  169.92 367.13 433.81  169.82
   2  -5  -4 27647.7   464.0   2-0.09984 0.35483-0.79700 0.29960 0.59567-0.88563  0 360.03 435.33   73.62 359.96 435.18   73.65
   2  -5  -4 28944.0   453.6   2 0.10051 0.15447 0.21846-0.71605-0.97066 0.68075  0 170.99 160.55  213.67 170.93 160.57  213.62
   2  -5   4 21709.2   389.3   1-0.59777 0.85306-0.78886 0.29204-0.14270 0.43245  0 154.58 323.57  110.94 154.61 323.53  111.04
   2  -5   4 27632.8   445.3   2-0.22957 0.48448 0.05110-0.54828 0.97195-0.68167  0 325.63 438.47   18.13 325.58 438.31   17.75
   2  -5   4 28047.9   430.8   2 0.11944 0.13558-0.72971 0.23224-0.67324 0.96316  0 156.88 185.94  154.02 156.81 185.95  154.00
   2   5  -4 26808.9   444.6   2 0.13350 0.12152-0.23145 0.72892-0.96364 0.67372  0 335.19 438.16  187.49 335.18 437.92  187.54
   2   5  -4 24610.1   412.9   2-0.21132 0.46613 0.81836-0.32099 0.53445-0.82444  0 160.30 178.79  325.13 160.30 178.83  324.98
   2   5   4 30285.4   426.9   2-0.22207 0.47699-0.05580 0.55298 0.97343-0.68315  0 148.87 207.11   24.12 148.81 207.09   23.90
  -2  -5  -5 12319.3   315.7   1-0.39947 0.14449 0.37134-0.86788-0.83817 0.47530  0 141.29 321.06   24.97 141.42 320.97   24.85
  -2  -5  -5 13170.4   340.1   2 0.10145-0.35643 0.21011-0.70770-0.97240 0.61001  0 289.97  66.91  212.97 290.01  67.13  213.12
  -2  -5   5 10609.6   303.3   1-0.69807 0.44306-0.47750-0.01921-0.53357 0.89629  0 135.08 216.85   81.42 135.07 216.80   81.51
  -2  -5   5 12186.9   326.4   2 0.09798-0.35303-0.86028 0.36245-0.50032 0.86255  0 248.93  79.85  141.46 248.71  79.96  141.49
  -2   5  -5 12362.4   355.6   2 0.13208-0.38710-0.19428 0.69176-0.97201 0.60961  0 497.73 368.41  189.73 497.98 368.41  189.73
  -2   5  -5 11856.3   346.7   2-0.21899-0.03582 0.77031-0.27294 0.59888-0.96136  0 264.73  73.72  329.71 264.85  73.86  329.64
  -2   5   5 13720.9   352.3   2-0.19311-0.06181-0.32765 0.82483 0.92485-0.56200  0 228.58  90.06   40.10 228.46  90.16   39.87
  -2   5   5 10883.0   363.0   2-0.02052-0.23438 0.83545-0.33788-0.54918 0.91154  0 465.93 403.91  258.01 466.06 403.82  258.13
   2  -5  -5  9071.4   156.9   1-0.68980 0.94481-0.32971-0.16701-0.64457 0.28185  0 244.36 434.12   71.02 244.30 433.82   70.91
   2  -5  -5 12831.9   200.0   1-0.21960 0.47494-0.87441 0.37751 0.43265-0.79493  0 362.82 451.39  151.77 362.36 451.14  151.62
   2  -5  -5 12730.5   379.8   2-0.08000 0.33498-0.85748 0.36008 0.50826-0.87070  0 372.23 449.57   79.79 372.16 449.43   79.84
   2  -5  -5 13525.1   343.9   2 0.09143 0.16355 0.29373-0.79132-0.95150 0.58912  0 164.73 148.58  218.18 164.70 148.62  218.11
   2  -5   5  9483.3   284.7   1-0.57630 0.83159-0.81165 0.31483-0.09536 0.45755  0 139.04 314.22  114.20 139.10 314.17  114.29
   2  -5   5 12064.4   343.4   2-0.23432 0.48924 0.13603-0.63321 0.96259-0.59974  0 327.91 453.84   13.13 327.85 453.64   12.85
   2  -5   5 12528.0   314.5   2 0.10793 0.14712-0.81008 0.31225-0.57630 0.93854  0 146.51 180.67  146.74 146.44 180.72  146.73
   2   5  -5 12143.6   361.0   2 0.13517 0.11985-0.30899 0.80646-0.94141 0.57901  0 346.80 453.06  183.00 346.76 452.87  182.91
   2   5  -5 10950.2   304.8   2-0.19965 0.45446 0.87285-0.37548 0.44529-0.80777  0 153.45 166.77  318.97 153.42 166.77  318.94
   2   5   5 12899.7   303.8   2-0.21374 0.46865-0.14871 0.64589 0.96551-0.60265  0 138.35 202.21   28.75 138.30 202.18   29.28
  -2  -5  -6   9.626  97.969   1-0.36822 0.11324 0.41432-0.91086-0.83232 0.39687  0 131.16 333.13   22.16 131.14 333.55   21.78
  -2  -5  -6  45.211 138.779   2 0.09283-0.34782 0.28265-0.78024-0.95472 0.51985  0 286.61  49.11  217.37 286.34  49.78  217.44
  -2  -5   6 -53.828  99.944   1-0.69241 0.43740-0.55405 0.05733-0.46218 0.89744  0 123.36 204.93   87.57 123.66 205.05   87.51
  -2  -5   6 -11.123 113.414   2 0.08580-0.34085-0.90734 0.40951-0.41155 0.84624  0 236.28  67.87  134.86 236.45  67.47  135.69
  -2  -5   6  45.433 178.069   2-0.24131-0.01350 0.39528-0.89235 0.88630-0.45114  0 499.26 406.15  358.18 499.12 406.17  357.05
  -2   5  -6  92.182 157.969   2-0.20742-0.04739 0.83853-0.34116 0.50384-0.93881  0 260.67  57.39  321.82 260.52  57.33  322.87
  -2   5   6 -75.259 114.503   2-0.18550-0.06941-0.38302 0.88020 0.90492-0.46949  0 216.03  78.59   43.39 216.32  78.74   43.26
  -2   5   6  75.045 170.808   2-0.03999-0.21490 0.88649-0.38891-0.46103 0.89586  0 477.71 424.89  265.17 477.86 425.01  264.08
   2  -5  -6  11.756  50.180   1-0.67370 0.92871-0.23703-0.25968-0.69996 0.26469  0 245.90 452.97   64.91 245.54 452.73   64.66
   2  -5  -6 -50.711  75.603   1-0.39689 0.65217-0.89314 0.39632 0.21160-0.64622  0 361.24 471.17  135.47 361.10 471.46  135.30
   2  -5  -6-101.608 172.718   2-0.06123 0.31622-0.90456 0.40716 0.42193-0.85687  0 386.56 467.33   85.47 386.63 467.40   85.59
   2  -5  -6   8.528 113.303   2 0.08357 0.17141 0.35307-0.85066-0.93186 0.49699  0 156.98 134.72  221.56 156.78 134.68  221.72
   2  -5   6 -55.712 102.997   1-0.55376 0.80904-0.83125 0.33443-0.04871 0.48333  0 122.29 304.83  117.56 122.19 304.80  117.46
   2  -5   6   6.452 149.260   2-0.23715 0.49207 0.20537-0.70256 0.94952-0.51409  0 331.00 472.87    8.93 331.24 472.82    8.80
   2  -5   6  78.109 100.602   2 0.09506 0.15999-0.87301 0.37517-0.47836 0.91304  0 134.15 174.02  140.74 134.01 173.91  140.02
   2   5  -6  77.756 173.979   2 0.13589 0.11913-0.36917 0.86665-0.91937 0.48449  0 360.21 471.24  179.67 360.26 471.56  179.25
   2   5  -6  38.250 102.315   2-0.18758 0.44239 0.91427-0.41690 0.35905-0.79403  0 145.03 153.23  314.20 144.81 152.94  313.40
   2   5   6  90.734  91.912   2-0.20573 0.46064-0.22417 0.72136 0.95259-0.51716  0 125.96 195.48   33.37 125.66 195.83   33.70
  -2  -5  -7  4691.5   246.1   1-0.34290 0.08792 0.44749-0.94403-0.82594 0.31792  0 118.96 347.44   19.36 118.71 347.39   19.36
  -2  -5  -7  4870.7   317.1   2 0.08556-0.34054 0.33874-0.83633-0.93698 0.42964  0 281.56  28.73  221.29 281.63  28.92  220.84
  -2  -5   7  4165.0   238.1   1-0.67953 0.42453-0.62209 0.12538-0.38889 0.89669  0 110.40 192.22   93.14 110.14 192.23   93.29
  -2  -5   7  5061.0   281.9   2 0.07340-0.32845-0.94245 0.44462-0.32619 0.83333  0 222.77  52.20  130.31 222.61  52.55  130.35
  -2   5  -7  3810.5   280.3   2-0.19476-0.06005 0.89116-0.39379 0.40977-0.91724  0 254.91  37.36  316.66 254.98  37.48  316.63
  -2   5   7  5028.7   293.8   2-0.17917-0.07574-0.42499 0.92217 0.88729-0.37929  0 202.60  64.96   46.01 202.46  65.01   45.89
  -2   5   7  3619.4   374.8   2-0.05814-0.19675 0.92521-0.42764-0.37497 0.88228  0 492.95 450.98  269.62 492.79 450.65  269.59
   2  -5  -7  3576.3   121.4   1-0.65115 0.90616-0.14636-0.35036-0.74470 0.23689  0 244.30 474.61   58.79 244.20 474.30   58.73
   2  -5  -7  4153.0   159.3   1-0.52148 0.77676-0.85318 0.35635 0.01223-0.51928  0 363.31 495.94  121.74 363.09 495.70  121.60
   2  -5  -7  5091.4   394.7   2-0.04378 0.29876-0.94013 0.44273 0.33799-0.84542  0 403.61 489.86   90.78 403.76 489.79   90.92
   2  -5  -7  4416.1   267.1   2 0.07681 0.17818 0.39847-0.89606-0.91396 0.40662  0 147.04 118.58  224.58 147.01 118.62  224.55
   2  -5   7  3520.7   231.2   1-0.52987 0.78515-0.84807 0.35125-0.00300 0.51006  0 103.91 295.23  120.55 103.63 295.23  120.57
   2  -5   7  4702.8   326.2   2-0.23885 0.49377 0.26002-0.75720 0.93560-0.42760  0 335.73 496.40    5.54 335.67 496.32    5.55
   2  -5   7  4949.1   256.9   2 0.08176 0.17329-0.92033 0.42249-0.38251 0.88965  0 119.73 165.58  133.88 119.34 165.63  133.85
   2   5  -7  4820.1   359.7   2 0.13594 0.11908-0.41456 0.91203-0.89981 0.39245  0 376.10 494.67  176.38 376.05 494.60  176.42
   2   5  -7  4371.5   263.5   2-0.17519 0.43000 0.94487-0.44750 0.27665-0.78412  0 134.25 137.03  308.39 134.31 137.16  308.30
   2   5   7  4993.6   244.8   2-0.19878 0.45370-0.28325 0.78043 0.93822-0.43022  0 110.95 188.12   36.88 110.72 188.14   37.19
   2   5   7  3768.2   286.8   2-0.06763 0.32252 0.94213-0.44455-0.32837 0.83567  2 306.00 493.09  272.47 305.74 493.08  272.49
  -2  -5  -8  4493.0   263.7   1-0.32335 0.06837 0.47192-0.96846-0.82021 0.23962  0 104.10 363.12   17.57 103.93 362.94   17.54
  -2  -5   8  3943.8   251.9   1-0.66085 0.40584-0.68133 0.18462-0.31475 0.89510  0  94.52 178.09   98.97  94.28 178.01   98.83
  -2  -5   8  4818.9   317.8   2 0.06099-0.31605-0.96769 0.46986-0.24464 0.82422  0 207.05  34.71  125.30 206.94  34.86  125.41
  -2   5  -8  4524.3   302.6   2-0.18154-0.07327 0.93040-0.43303 0.31843-0.89840  0 248.27  13.53  311.24 248.13  13.74  310.87
  -2   5   8  5110.1   329.8   2-0.17434-0.08058-0.45574 0.95293 0.87287-0.29230  0 186.70  48.69   47.99 186.58  48.67   47.85
   2  -5  -8  3911.3   133.8   1-0.62558 0.88059-0.06574-0.43097-0.77738 0.19703  2 240.79 499.80   53.62 240.64 499.41   53.54
   2  -5  -8  5101.4   302.6   2 0.07153 0.18345 0.43220-0.92979-0.89894 0.31911  0 135.38 100.13  226.75 135.15 100.07  226.69
   2  -5   8  3932.6   258.8   1-0.50475 0.76003-0.86224 0.36542 0.04207 0.53743  0  83.25 285.30  123.64  83.04 285.28  123.64
   2  -5   8  4294.9   269.8   2 0.06806 0.18699-0.95456 0.45673-0.29015 0.86973  0 102.38 155.77  127.81 102.10 155.84  128.15
   2   5  -8  4166.5   278.2   2-0.16288 0.41769 0.96655-0.46918 0.19811-0.77807  0 122.10 119.23  303.66 121.64 119.15  303.57
   2   5   8  5233.9   274.3   2-0.19307 0.44799-0.32795 0.82513 0.92475-0.34418  0  93.58 179.13   40.01  93.16 179.13   39.89
  -2  -5  -9 -23.349 140.122   1-0.30950 0.05452 0.48865-0.98519-0.81574 0.16257  0  86.19 380.76   17.22  86.43 380.77   16.27
  -2  -5   9 170.809 155.823   1-0.63697 0.38169-0.73194 0.23511-0.24196 0.89389  0  76.27 162.12  103.98  75.95 161.98  104.12
  -2  -5   9  83.372 194.313   2 0.04860-0.30365-0.98477 0.48694-0.16692 0.81895  0 189.09  14.63  119.86 189.00  13.84  120.79
  -2   5   9 235.791 194.642   2-0.17087-0.08405-0.47713 0.97431 0.86206-0.20892  0 167.84  28.76   49.45 168.21  29.27   49.24
   2  -5  -9  36.356 169.254   2 0.06769 0.18729 0.45619-0.95378-0.88730 0.23501  0 120.38  78.24  227.86 120.82  78.53  228.24
   2  -5   9 237.449 158.748   1-0.47844 0.73372-0.87383 0.37701 0.08667 0.56526  0  59.82 274.63  126.53  59.81 274.70  126.68
   2  -5   9-122.243 139.984   2 0.05421 0.20084-0.97791 0.48007-0.20190 0.85393  0  81.39 144.34  122.81  81.77 144.39  122.86
   2   5  -9 -33.087 171.555   2-0.15067 0.40557 0.98082-0.48325 0.12363-0.77588  0 105.88  98.37  298.84 106.48  98.48  299.18
   2   5   9 -56.040 128.263   2-0.18866 0.44358-0.36040 0.85758 0.91352-0.26038  0  72.95 168.56   41.88  72.47 168.77   41.86
  -2  -5 -10  5424.0   326.8   1-0.30112 0.04614 0.49859-0.99513-0.81286 0.08712  0  65.92 401.78   15.51  65.66 401.68   15.51
  -2  -5  10  5023.7   316.6   1-0.60879 0.35351-0.77519 0.27837-0.16868 0.89305  0  53.96 143.12  109.19  54.01 143.26  109.25
   2  -5  10  5055.4   324.1   1-0.45100 0.70628-0.88286 0.38604 0.13096 0.59341  0  33.20 263.22  129.72  33.17 263.14  129.71
   2  -5  10  5456.5   348.6   2 0.04047 0.21458-0.99220 0.49437-0.11787 0.84235  0  58.21 131.14  117.75  57.66 131.08  117.91
   2   5 -10  4929.0   386.3   2-0.13850 0.39340 0.98898-0.49141 0.05230-0.77702  0  88.20  74.35  294.75  88.02  74.35  295.00
   2   5  10  5970.9   331.5   2-0.18559 0.44050-0.38246 0.87964 0.90514-0.17943  0  48.13 156.92   42.75  47.88 156.89   43.22
  -2  -6   0 45370.6   579.1   1-0.63129 0.37628-0.08249-0.51356-0.77115 0.77115  0 137.27 280.28   54.63 137.41 280.13   54.61
  -2  -6   0 50563.8   596.9   2-0.20072-0.05419-0.26700-0.32961 0.94256-0.94256  0 494.63 355.76   35.82 494.98 355.89   36.23
  -2  -6   0 49584.8   586.2   2 0.13590-0.39092-0.41101-0.18596-0.90144 0.90144  0 273.92  77.75  176.66 274.05  77.95  176.64
  -2   6   0 45560.4   499.5   1-0.54972 0.29474 0.11724 0.47861-0.82708 0.82708  0 443.49 105.89   41.75 443.68 106.23   41.83
  -2   6   0 55222.1   625.4   2-0.23862-0.01630 0.25081 0.34580 0.93817-0.93816  0 247.27  87.54    5.91 247.14  87.77    6.09
  -2   6   0 47616.3   605.9   2 0.07867-0.33366 0.38659 0.21052-0.91889 0.91889  0 474.39 382.73  223.82 474.56 382.68  223.80
   2  -6   0 35497.8   430.8   1-0.67441 0.92942-0.64111 0.04505-0.36627 0.36627  0 183.35 381.31   94.79 183.39 381.11   95.01
   2  -6   0 49336.7   604.8   2-0.17855 0.43346-0.42906-0.16756 0.88546-0.88546  0 349.46 445.30   45.98 349.43 445.11   46.15
   2  -6   0 53931.3   614.2   2 0.13493 0.12009-0.29531-0.30166-0.94582 0.94582  0 160.15 166.28  183.79 160.11 166.29  183.73
   2   6   0 48499.1   573.5   2 0.08870 0.16628 0.31512 0.28199-0.94490 0.94490  0 318.23 446.13  219.36 318.24 445.88  219.40
   2   6   0 49984.0   570.5   2-0.24070 0.49551 0.45549 0.14099 0.85708-0.85708  0 148.56 189.97  353.23 148.60 189.99  353.21
  -2  -6  -1  67.953  95.765   1-0.60213 0.34715-0.00199-0.59386-0.79839 0.72582  0 137.46 290.43   49.56 137.76 290.51   49.47
  -2  -6  -1  87.696 128.866   2-0.18472-0.07019-0.38808-0.20853 0.90292-0.97549  0 498.78 353.18   43.13 499.25 353.12   43.57
  -2  -6  -1 -65.250 118.466   2 0.13503-0.39004-0.30040-0.29657-0.94421 0.87173  0 277.68  75.22  182.81 277.47  75.39  183.43
  -2  -6   1  61.858  84.745   1-0.65650 0.40150-0.16569-0.43037-0.73590 0.80845  0 135.17 269.94   59.56 135.17 269.91   59.98
  -2  -6   1 -17.011 138.081   2-0.21377-0.04115-0.14840-0.44822 0.96555-0.89298  0 493.89 361.72   29.07 493.88 361.68   29.26
  -2  -6   1  15.553 122.704   2 0.13388-0.38890-0.51718-0.07979-0.84534 0.91782  0 268.78  78.01  168.83 269.13  77.79  169.75
  -2   6  -1  46.952 132.470   1-0.60031 0.34533 0.00260 0.59325-0.79977 0.72719  0 460.99 116.87   48.87 460.89 117.18   49.17
  -2   6  -1  14.263 137.839   2 0.09302-0.34800 0.28118 0.31593-0.95514 0.88266  0 478.68 380.62  218.20 479.15 380.77  217.35
  -2   6   1  41.383 107.628   1-0.47441 0.21943 0.25645 0.33939-0.84212 0.91469  0 428.88  94.56   32.27 428.67  94.30   32.71
  -2   6   1  46.950 100.200   2-0.23451-0.02041 0.13997 0.45665 0.96198-0.88941  0 242.65  88.02   12.46 242.80  88.14   12.62
  -2   6   1  78.179 152.460   2 0.06205-0.31703 0.48947 0.10764-0.86981 0.94229  0 472.97 387.65  229.87 472.85 387.67  230.41
   2  -6  -1  10.661  71.491   1-0.68472 0.93973-0.59950 0.00344-0.41444 0.34189  0 193.35 392.97   91.74 193.47 393.42   91.31
   2  -6  -1   6.717 136.532   2-0.16167 0.41666-0.52765-0.06922 0.83393-0.90642  0 354.24 446.31   52.59 354.63 446.34   52.60
   2  -6  -1 -57.547  87.875   2 0.13163 0.12339-0.18283-0.41414-0.97429 0.90181  0 161.23 162.27  190.59 161.01 162.18  190.40
   2  -6   1 -45.370  69.893   1-0.66181 0.91682-0.67885 0.08279-0.31808 0.39063  0 172.28 370.02   98.40 172.28 369.71   98.59
   2  -6   1  56.442 136.942   2-0.19317 0.44809-0.32720-0.26941 0.92500-0.85243  0 345.98 447.42   39.53 345.87 447.25   39.84
   2  -6   1 -16.566  91.972   2 0.13591 0.11911-0.40886-0.18811-0.90242 0.97490  0 157.22 168.22  177.21 157.34 168.48  176.78
   2   6  -1 105.450 129.319   2 0.10317 0.15181 0.19495 0.40216-0.97537 0.90289  0 323.77 447.54  212.30 323.56 447.75  212.24
   2   6  -1  63.959  84.562   2-0.23770 0.49251 0.55548 0.04136 0.79683-0.86932  0 148.81 185.34  347.23 149.03 185.43  346.51
   2   6   1 137.686 128.684   2 0.07093 0.18405 0.43600 0.16110-0.89715 0.96962  0 314.22 447.51  226.63 314.30 447.29  226.93
  -2  -6  -2 928.264 135.854   1-0.57029 0.31531 0.07319-0.66904-0.81818 0.67303  0 135.99 301.23   44.61 136.13 301.18   44.65
  -2  -6  -2  1124.8   163.8   2 0.13194-0.38696-0.19071-0.40626-0.97274 0.82778  0 279.40  70.09  189.73 279.44  70.03  189.94
  -2  -6   2 702.089 120.283   1-0.67636 0.42135-0.24956-0.34650-0.69301 0.83809  0 130.96 259.65   65.45 131.02 259.70   65.50
  -2  -6   2  1084.1   172.6   2-0.22350-0.03142-0.03799-0.55863 0.97396-0.82882  0 495.96 370.51   23.04 495.91 370.53   22.87
  -2  -6   2  1017.6   166.8   2 0.12924-0.38426-0.61471 0.01774-0.77809 0.92305  0 262.63  74.86  162.71 262.77  75.01  162.95
  -2   6  -2 936.961 174.593   1-0.63306 0.37805-0.08782 0.68387-0.76911 0.62402  0 480.63 127.40   55.23 480.73 127.34   54.95
  -2   6  -2 912.442 176.383   2 0.10499-0.35998 0.17790 0.41921-0.97843 0.83348  0 486.47 381.86  211.42 486.76 381.91  211.24
  -2   6  -2  1114.5   145.1   2-0.24034-0.01448 0.47367 0.12281 0.84727-0.99232  0 251.25  79.30  351.84 251.21  79.58  352.02
  -2   6   2  1018.9   128.5   1-0.36716 0.11218 0.41573 0.18011-0.83208 0.97723  0 415.55  80.97   21.64 415.70  81.18   21.67
  -2   6   2  1117.5   144.9   2-0.22875-0.02617 0.03602 0.56060 0.97282-0.82768  0 236.99  85.88   18.60 236.93  86.08   18.62
  -2   6   2 983.058 181.192   2 0.04412-0.29910 0.58587 0.01123-0.80920 0.95416  0 473.82 395.85  237.31 473.90 395.81  237.00
   2  -6  -2 628.456  91.622   1-0.69240 0.94741-0.55392-0.04213-0.46234 0.31725  0 202.44 406.88   87.44 202.46 406.88   87.50
   2  -6  -2  1165.8   187.1   2-0.14398 0.39897-0.61947 0.02259 0.77171-0.91668  0 361.37 450.83   59.31 361.49 450.82   59.05
   2  -6  -2 929.763 134.250   2 0.12613 0.12889-0.07650-0.52047-0.98906 0.84410  0 160.23 156.27  196.60 160.14 156.17  196.58
   2  -6   2 687.647 120.923   1-0.64677 0.90205-0.71305 0.11687-0.27064 0.41552  0 160.01 358.98  102.00 160.10 359.07  102.07
   2  -6   2  1149.9   176.8   2-0.20546 0.46037-0.22659-0.37003 0.95207-0.80693  0 343.72 452.74   33.72 343.84 452.68   33.84
   2  -6   2 865.835 130.405   2 0.13383 0.12119-0.51846-0.07850-0.84456 0.98952  0 152.94 168.62  170.21 152.70 168.81  169.66
   2   6  -2 985.705 163.316   2 0.11435 0.14064 0.08140 0.51570-0.99010 0.84514  0 330.31 453.30  205.61 330.40 452.98  205.64
   2   6  -2 855.569 125.821   2-0.23212 0.48693 0.64615-0.04931 0.72705-0.87205  0 147.74 178.93  339.74 147.63 179.06  339.93
   2   6   2 855.355 119.042   2-0.23842 0.49334 0.24359 0.35303 0.94012-0.79497  0 141.86 193.35    6.53 141.75 193.22    6.52
   2   6   2 777.279 151.991   2 0.05099 0.20399 0.55102 0.04609-0.83293 0.97789  0 311.81 452.40  234.51 311.78 452.15  234.56
  -2  -6  -3 567.768 119.298   1-0.53762 0.28264 0.14153-0.73738-0.83122 0.61350  0 132.36 312.40   40.28 132.50 312.31   40.25
  -2  -6  -3 759.208 163.521   2 0.12676-0.38178-0.08679-0.51018-0.98813 0.77069  0 279.98  61.67  195.98 280.01  61.73  195.98
  -2  -6   3 647.501 120.218   1-0.69009 0.43508-0.33189-0.26416-0.64314 0.86077  0 124.95 249.26   71.22 124.96 249.27   71.07
  -2  -6   3 670.510 173.051   2-0.23013-0.02478 0.06028-0.65689 0.97129-0.75358  0 500.54 382.33   16.99 500.94 382.51   17.22
  -2  -6   3 518.100 133.374   2 0.12253-0.37755-0.70085 0.10388-0.70270 0.92014  0 254.90  69.51  156.41 254.95  69.73  156.38
  -2   6  -3 631.119 171.454   1-0.65434 0.39933-0.15767 0.75373-0.73958 0.52195  2 503.05 136.98   59.42 503.50 137.11   59.46
  -2   6  -3 555.023 171.783   2 0.11439-0.36937 0.08088 0.51623-0.99014 0.77270  0 497.55 386.20  205.60 497.70 386.19  205.61
  -2   6  -3 736.131 137.037   2-0.23672-0.01809 0.57638 0.02046 0.78214-0.99963  0 251.11  71.44  345.37 251.02  71.35  345.04
  -2   6   3 618.981 117.092   1-0.22674-0.02824 0.58089 0.01496-0.78177 0.99949  0 404.79  66.49    9.02 404.80  66.41    8.92
  -2   6   3 825.926 141.674   2-0.22193-0.03299-0.05753 0.65415 0.97336-0.75565  0 229.46  81.68   23.71 229.49  81.69   24.00
  -2   6   3 579.948 183.842   2 0.02526-0.28025 0.67266-0.07556-0.73952 0.95695  0 477.67 407.27  243.46 477.65 407.15  243.49
   2  -6  -3 379.253  80.192   1-0.69708 0.95209-0.50453-0.09153-0.50945 0.29182  0 210.29 421.69   83.51 210.29 421.79   83.58
   2  -6  -3 698.694 175.524   2-0.12551 0.38049-0.70167 0.10479 0.70136-0.91883  0 370.14 458.23   64.96 370.19 458.65   65.34
   2  -6  -3 820.914 135.924   2 0.11940 0.13558 0.01987-0.61698-0.99265 0.77521  0 157.17 148.16  201.88 157.45 148.17  202.10
   2  -6   3 541.961 114.657   1-0.63015 0.88543-0.74362 0.14744-0.22345 0.44076  0 146.84 349.03  105.18 146.86 348.93  105.43
   2  -6   3 575.096 167.092   2-0.21538 0.47030-0.13141-0.46521 0.96765-0.74993  0 343.23 461.40   27.96 343.24 461.55   28.27
   2  -6   3 665.074 123.924   2 0.12893 0.12609-0.61952 0.02255-0.77432 0.99176  0 146.26 167.27  162.57 146.16 167.34  162.60
   2   6  -3 697.245 167.843   2 0.12235 0.13264-0.02099 0.61810-0.99227 0.77483  0 338.71 462.07  199.74 338.77 461.57  199.75
   2   6  -3 667.033 122.873   2-0.22466 0.47947 0.72543-0.12859 0.65060-0.86808  0 144.34 170.95  333.70 144.40 170.85  333.58
   2   6   3 502.780 106.218   2-0.23454 0.48946 0.14176 0.45486 0.96171-0.74400  0 135.30 192.18   12.44 135.32 192.24   12.52
   2   6   3 782.452 160.021   2 0.02934 0.22564 0.65500-0.05790-0.75506 0.97249  0 310.41 460.24  242.32 310.43 460.41  242.12
  -2  -6  -4 103.025 107.840   1-0.50579 0.25081 0.20186-0.79771-0.83870 0.54841  0 127.05 324.18   36.57 126.86 324.10   36.32
  -2  -6  -4  55.501 150.314   2 0.12030-0.37528 0.00724-0.60435-0.99271 0.70280  0 279.40  49.99  201.62 279.20  50.32  201.37
  -2  -6   4  43.763 103.518   1-0.69730 0.44229-0.41083-0.18522-0.58736 0.87754  0 117.24 238.55   76.66 116.90 238.55   76.61
  -2  -6   4  -6.734 117.373   2 0.11386-0.36888-0.77431 0.17734-0.62248 0.91240  0 245.79  61.92  150.42 245.68  62.00  150.12
  -2   6  -4 125.878 119.723   2-0.23033-0.02448 0.66850-0.07166 0.70715-0.99713  0 249.54  60.38  338.74 249.53  60.38  338.21
  -2   6   4 120.867 123.223   2-0.21470-0.04021-0.13874 0.73535 0.96678-0.67649  0 220.70  75.49   29.05 220.53  74.99   28.70
  -2   6   4-110.305 176.583   2 0.00625-0.26114 0.74813-0.15104-0.66352 0.95341  0 484.47 422.36  250.18 484.12 421.92  249.73
   2  -6  -4  30.959  64.446   1-0.69830 0.95330-0.45158-0.14447-0.55539 0.26521  0 217.25 438.94   80.02 216.86 438.43   79.57
   2  -6  -4 -94.662 168.731   2-0.10693 0.36192-0.77287 0.17599 0.62549-0.91545  0 380.63 470.01   71.41 380.91 470.00   71.41
   2  -6  -4 -43.082 103.101   2 0.11229 0.14269 0.10436-0.70147-0.98818 0.69827  0 153.49 138.23  207.06 153.06 138.23  206.97
   2  -6   4  76.172 101.665   1-0.61198 0.86726-0.77094 0.17476-0.17643 0.46618  0 132.54 339.09  108.53 132.38 339.16  108.71
   2  -6   4  90.681 160.723   2-0.22296 0.47787-0.04485-0.55177 0.97380-0.68351  0 344.09 473.94   23.72 344.00 474.03   23.27
   2  -6   4  64.025 101.755   2 0.12173 0.13329-0.70880 0.11183-0.69483 0.98475  0 137.88 164.04  156.23 137.61 164.11  155.73
   2   6  -4-118.634 160.952   2 0.12806 0.12696-0.11003 0.70700-0.98564 0.69572  0 348.66 474.23  194.50 348.80 473.71  194.64
   2   6  -4  74.077 101.426   2-0.21567 0.47048 0.79250-0.19566 0.57046-0.86045  0 139.78 160.72  326.83 139.36 160.83  327.56
   2   6   4 -94.499  83.795   2-0.22940 0.48431 0.04841 0.54821 0.97213-0.68184  0 127.08 189.66   17.94 126.80 189.58   17.90
   2   6   4   2.248 139.263   2 0.00729 0.24770 0.74443-0.14732-0.66766 0.95757  0 310.53 472.01  250.29 310.24 472.33  249.41
  -2  -6  -5   8.856 116.949   1-0.47614 0.22116 0.25357-0.84941-0.84202 0.47915  0 119.02 336.77   33.11 119.18 336.80   32.91
  -2  -6  -5 152.959 168.928   2 0.11367-0.36865 0.08904-0.68615-0.98952 0.62713  0 277.06  35.77  206.30 277.22  35.71  206.08
  -2  -6   5 138.764 111.508   1-0.69783 0.44283-0.48508-0.11097-0.52699 0.88971  0 106.55 227.06   82.44 106.85 227.26   82.09
  -2  -6   5 151.410 128.878   2 0.10334-0.35840-0.83490 0.23750-0.54061 0.90285  0 234.77  51.47  144.41 234.81  51.70  144.23
  -2   6  -5 116.649 132.113   2-0.22204-0.03277 0.74797-0.15113 0.62549-0.98797  0 246.66  46.83  332.21 246.67  46.43  331.64
  -2   6   5 -37.631 131.776   2-0.20762-0.04730-0.20705 0.80367 0.95605-0.59319  0 210.13  66.48   33.12 209.90  65.94   32.70
  -2   6   5  -0.622 209.560   2-0.01258-0.24231 0.81182-0.21473-0.58378 0.94614  0 494.00 440.84  255.53 493.62 440.54  255.69
   2  -6  -5  89.848  70.294   1-0.69652 0.95153-0.39735-0.19871-0.59747 0.23475  0 222.52 457.64   76.08 222.12 457.24   75.64
   2  -6  -5 149.357 112.666   1-0.12235 0.37768-0.83818 0.24191 0.53149-0.89378  0 391.02 485.77  160.13 390.67 485.88  159.84
   2  -6  -5 219.793 200.855   2-0.08858 0.34356-0.83270 0.23582 0.54659-0.90904  0 393.71 485.05   77.58 393.90 485.23   77.18
   2  -6  -5 151.498 121.138   2 0.10520 0.14978 0.17597-0.77308-0.97876 0.61637  0 146.72 126.05  211.42 146.87 126.24  211.13
   2  -6   5 115.977 120.128   1-0.59217 0.84745-0.79526 0.19908-0.12994 0.49213  0 116.64 329.83  112.14 116.49 329.62  111.92
   2  -6   5 -59.902 177.879   2-0.22843 0.48334 0.03110-0.62771 0.97306-0.61021  0 346.06 490.43   19.06 346.06 490.42   18.90
   2  -6   5  76.838 116.218   2 0.11179 0.14326-0.78484 0.18744-0.60953 0.97177  0 126.98 159.05  149.52 126.99 159.25  149.13
   2   6  -5 370.547 203.862   2 0.13170 0.12332-0.18456 0.78153-0.97396 0.61156  0 360.97 489.38  190.42 360.76 489.68  190.30
   2   6  -5 146.169 112.350   2-0.20550 0.46031 0.84767-0.25083 0.48911-0.85159  0 132.88 149.10  322.21 132.44 148.96  321.87
   2   6   5 140.157 103.504   2-0.22384 0.47875-0.03366 0.63027 0.97405-0.61119  0 116.26 185.36   22.57 116.11 185.37   22.62
   2   6   5  35.232 154.164   2-0.01462 0.26951 0.81807-0.22098-0.57494 0.93730  0 311.24 487.79  257.29 311.05 488.00  256.32
  -2  -6  -6  1371.0   182.5   1-0.44964 0.19466 0.29655-0.89240-0.84254 0.40710  0 109.42 350.67   30.04 109.29 350.71   30.01
  -2  -6  -6  1208.9   221.2   2 0.10714-0.36212 0.15781-0.75492-0.98164 0.54677  0 274.03  17.39  209.79 274.05  17.52  210.07
  -2  -6   6  1061.2   166.1   1-0.69248 0.43747-0.55331-0.04275-0.46295 0.89822  0  94.81 215.24   87.27  94.64 215.22   87.45
  -2  -6   6  1246.1   194.8   2 0.09235-0.34740-0.88407 0.28668-0.45814 0.89282  0 222.60  39.22  138.61 222.41  38.94  138.69
  -2   6  -6 986.275 181.838   2-0.21202-0.04278 0.81444-0.21760 0.54013-0.97510  0 242.51  29.01  325.46 242.46  29.20  325.38
  -2   6   6  1571.6   210.2   2-0.20121-0.05371-0.26297 0.85959 0.94359-0.50816  0 197.35  54.31   36.00 197.51  54.48   35.99
   2  -6  -6 844.944  90.210   1-0.69162 0.94663-0.34339-0.25266-0.63541 0.20015  0 226.25 479.49   72.19 226.04 478.93   71.86
   2  -6  -6  1229.2   182.4   2 0.09858 0.15640 0.23499-0.83210-0.96699 0.53212  0 138.68 112.25  214.74 138.75 112.05  214.59
   2  -6   6  1034.7   165.1   1-0.57097 0.82625-0.81669 0.22050-0.08373 0.51835  0  98.83 320.32  115.26  98.94 320.15  115.08
   2  -6   6  1386.5   179.0   2 0.10075 0.15431-0.84749 0.25010-0.52116 0.95585  0 114.46 152.56  143.06 114.09 152.70  142.89
   2   6  -6  1252.7   178.4   2-0.19455 0.44936 0.89190-0.29506 0.40824-0.84322  0 123.54 135.03  316.56 123.57 135.08  316.53
   2   6   6  1249.2   153.0   2-0.21796 0.47288-0.10347 0.70009 0.97046-0.53503  0 103.41 179.70   26.56 103.08 179.62   26.66
  -2  -6  -7  73.175 141.927   1-0.42719 0.17221 0.33110-0.92695-0.84136 0.33334  0  96.99 366.15   27.50  97.08 366.19   27.65
  -2  -6   7 216.498 136.222   1-0.68118 0.42617-0.61537 0.01931-0.39663 0.90444  0  80.20 202.04   92.45  80.05 202.08   92.70
  -2  -6   7 190.679 175.258   2 0.08086-0.33591-0.92277 0.32537-0.37677 0.88391  0 208.09  23.37  133.44 208.18  23.31  133.49
  -2   6  -7  97.804 157.948   2-0.20075-0.05406 0.86839-0.27154 0.45344-0.96091  2 236.93   8.35  318.82 236.86   8.15  319.48
  -2   6   7  69.905 169.889   2-0.19574-0.05918-0.30748 0.90410 0.93120-0.42320  0 182.75  40.60   38.56 183.10  40.33   38.65
   2  -6  -7 283.929 167.179   2 0.09287 0.16212 0.28238-0.87949-0.95480 0.44745  0 128.73  95.55  217.48 128.56  95.37  217.42
   2  -6   7  32.421 129.327   1-0.54828 0.80356-0.83543 0.23925-0.03797 0.54503  0  78.92 310.63  118.63  79.38 310.56  118.19
   2  -6   7 127.383 145.420   2 0.08869 0.16636-0.89742 0.30002-0.43218 0.93932  0  98.86 144.55  137.66  98.74 144.52  137.01
   2   6  -7  76.281 141.377   2-0.18317 0.43798 0.92642-0.32958 0.32892-0.83639  0 112.55 119.10  311.46 112.48 119.01  311.52
   2   6   7  17.464 127.269   2-0.21254 0.46746-0.16082 0.75743 0.96383-0.45583  0  87.60 172.66   29.91  87.41 172.42   29.98
  -2  -6  -8 16058.4   448.1   1-0.40899 0.15401 0.35769-0.95354-0.83951 0.25892  0  82.26 383.97   25.82  82.17 383.80   25.80
  -2  -6   8 14149.2   428.7   1-0.66486 0.40985-0.67074 0.07469-0.32874 0.90909  0  63.07 187.59   97.84  62.70 187.48   97.80
  -2   6   8 16519.1   515.4   2-0.19121-0.06371-0.34181 0.93843 0.92011-0.33954  0 166.47  23.18   40.69 166.28  23.14   40.72
   2  -6  -8 16008.7   482.4   2 0.08814 0.16684 0.31934-0.91645-0.94353 0.36371  0 116.38  75.82  219.70 115.93  75.76  219.66
   2  -6   8 12880.9   417.2   1-0.52418 0.77946-0.85158 0.25539 0.00746 0.57203  0  57.53 300.71  121.26  57.36 300.64  121.28
   2  -6   8 14880.6   434.1   2 0.07608 0.17897-0.93579 0.33839-0.34425 0.92383  0  80.89 134.57  131.46  80.38 134.58  131.46
   2   6  -8 14755.7   464.3   2-0.17139 0.42620 0.95248-0.35563 0.25183-0.83179  0  99.28 100.29  306.74  98.85 100.30  306.80
   2   6   8 15788.4   426.9   2-0.20768 0.46260-0.20646 0.80308 0.95616-0.37559  0  69.29 163.79   32.63  68.73 163.74   32.66
  -2  -6  -9 218.338 177.745   1-0.39554 0.14056 0.37690-0.97275-0.83755 0.18438  0  64.02 404.63   24.70  64.12 404.30   24.45
  -2  -6   9  -0.574 163.434   1-0.64367 0.38839-0.71931 0.12312-0.26130 0.91323  0  43.25 171.30  102.60  42.47 170.97  102.74
   2  -6  -9 157.544 213.985   2 0.08441 0.17058 0.34710-0.94421-0.93402 0.28172  0  99.93  52.16  222.21 100.37  52.54  221.35
   2  -6   9  11.384 164.724   1-0.49866 0.75394-0.86520 0.26902 0.05259 0.59934  0  31.63 290.22  124.48  32.19 290.15  124.35
   2  -6   9  70.495 183.852   2 0.06313 0.19192-0.96399 0.36659-0.25834 0.91037  0  58.09 122.91  125.80  58.43 122.66  126.23
   2   6  -9  28.254 201.082   2-0.15951 0.41432 0.97118-0.37433 0.17712-0.82959  0  81.64  78.06  301.83  82.13  78.41  302.31
   2   6   9  -0.430 153.568   2-0.20374 0.45866-0.24137 0.83798 0.94881-0.29566  0  46.98 153.23   34.57  46.40 153.47   34.71
  -2  -7   0 111.159 108.263   1-0.65354 0.39853-0.15480-0.54060-0.74089 0.74089  0 108.47 294.14   59.48 108.43 293.82   59.28
  -2  -7   0 -79.003 164.030   2 0.13551-0.39053-0.44454-0.25192-0.88545 0.88545  0 258.09  43.21  174.59 257.92  42.87  174.52
  -2   7   0  79.325 172.033   1-0.50092 0.24594 0.21060 0.48455-0.83948 0.83948  0 484.93  71.56   36.06 484.81  71.08   35.75
  -2   7   0 -59.799 121.641   2-0.23978-0.01514 0.30689 0.38916 0.92104-0.92104  0 225.86  58.12    2.55 225.83  57.40    2.73
   2  -7   0  31.949 100.392   1-0.67424 0.92924-0.64170-0.05369-0.36554 0.36554  0 157.26 401.75   96.33 157.64 401.93   95.06
   2  -7   0-113.229 184.392   2-0.17391 0.42883-0.45840-0.23766 0.87157-0.87157  0 372.39 487.48   48.43 372.60 487.62   48.02
   2  -7   0 -34.062 108.501   2 0.13565 0.11937-0.34525-0.35121-0.92866 0.92866  0 138.38 140.67  180.46 138.07 140.72  180.71
   2   7   0  24.161 166.005   2 0.08189 0.17310 0.36501 0.33162-0.92740 0.92740  0 332.97 489.10  223.26 332.98 489.08  222.46
   2   7   0  55.767 111.012   2-0.24005 0.49487 0.48250 0.21340 0.84236-0.84236  0 123.62 169.33  350.79 123.28 169.24  351.44
  -2  -7  -1  3577.8   225.2   1-0.63246 0.37745-0.08601-0.60939-0.76980 0.69726  0 109.52 304.99   54.73 109.22 304.88   54.84
  -2  -7  -1  3520.2   304.9   2 0.13570-0.39072-0.35200-0.34446-0.92611 0.85363  0 261.39  39.70  180.34 261.48  39.89  180.30
  -2  -7   1  3220.8   219.8   1-0.67140 0.41640-0.22567-0.46973-0.70590 0.77844  0 105.78 283.14   64.12 105.66 282.99   63.92
  -2  -7   1  3334.0   247.7   2 0.13327-0.38829-0.53436-0.16211-0.83469 0.90717  0 253.10  42.97  168.62 252.91  43.07  168.59
  -2   7  -1  3136.8   281.8   1-0.55379 0.29881 0.10882 0.58634-0.82551 0.75294  2 503.65  82.80   42.16 504.00  82.90   42.37
  -2   7  -1  3584.8   256.9   2-0.24129-0.01352 0.40208 0.29382 0.88324-0.95576  0 228.67  54.17  356.67 228.59  54.38  356.63
  -2   7   1  3237.3   272.0   1-0.42879 0.17381 0.32870 0.36645-0.84148 0.91406  0 468.14  57.89   27.95 468.26  57.94   27.82
  -2   7   1  3879.9   257.4   2-0.23739-0.01753 0.21273 0.48333 0.94784-0.87526  0 221.57  57.96    8.29 221.46  58.15    8.35
   2  -7  -1  2505.0   178.3   1-0.68325 0.93826-0.60635-0.08905-0.40683 0.33429  0 167.60 415.54   92.41 167.65 415.27   91.91
   2  -7  -1  3289.4   326.4   2-0.15894 0.41392-0.54269-0.15367 0.82476-0.89725  0 378.30 488.88   53.62 378.29 488.90   53.63
   2  -7  -1  3688.2   243.1   2 0.13386 0.12116-0.24988-0.44659-0.95898 0.88650  0 139.18 136.55  186.48 139.16 136.52  186.44
   2  -7   1  2624.0   197.8   1-0.66324 0.91825-0.67514-0.02025-0.32295 0.39549  0 146.41 389.81   98.15 146.55 389.71   98.23
   2  -7   1  3729.0   324.4   2-0.18705 0.44197-0.37221-0.32384 0.90911-0.83653  0 368.72 489.99   42.56 368.68 489.97   42.59
   2  -7   1  3967.9   250.6   2 0.13556 0.11946-0.44137-0.25510-0.88703 0.95951  0 135.24 143.02  174.78 135.12 143.04  174.72
   2   7  -1  3443.3   310.6   2 0.09512 0.15986 0.26407 0.43255-0.95980 0.88732  0 338.74 490.99  216.27 338.67 491.06  216.32
   2   7  -1  3739.0   233.7   2-0.23718 0.49199 0.56744 0.12887 0.78851-0.86101  0 124.07 164.60  345.73 123.82 164.60  345.67
   2   7   1  3535.8   316.7   2 0.06601 0.18897 0.46636 0.23026-0.88213 0.95460  0 328.63 490.97  229.27 328.65 490.63  228.90
   2   7   1  3694.9   231.8   2-0.24132 0.49613 0.39433 0.30157 0.88672-0.81419  0 120.80 171.95  357.01 120.68 172.04  357.11
  -2  -7  -2  6998.0   285.7   1-0.60920 0.35419-0.02079-0.67460-0.79275 0.64766  0 108.16 316.54   50.68 108.05 316.36   50.66
  -2  -7  -2  8021.0   374.9   2 0.13414-0.38916-0.26010-0.43637-0.95622 0.81126  0 263.53  33.86  186.21 263.69  34.03  185.84
  -2  -7   2  6222.4   278.5   1-0.68498 0.42998-0.29719-0.39821-0.66519 0.81028  0 101.09 272.41   68.67 100.93 272.25   68.70
  -2  -7   2  7262.5   309.5   2 0.12899-0.38401-0.61856-0.07790-0.77508 0.92004  0 246.63  40.48  162.71 246.49  40.53  162.67
  -2   7  -2  6950.8   306.2   2-0.23970-0.01511 0.49592 0.19998 0.83463-0.97968  0 230.12  48.16  350.59 230.02  48.44  350.55
  -2   7   2  6625.8   292.3   1-0.33379 0.07881 0.45898 0.23618-0.82336 0.96851  0 453.91  42.91   18.51 453.89  43.26   18.51
  -2   7   2  7431.5   319.4   2-0.23361-0.02131 0.12316 0.57289 0.96450-0.81935  0 215.57  56.14   13.59 215.51  56.37   13.59
   2  -7  -2  5676.1   215.8   1-0.69018 0.94518-0.56955-0.12585-0.44640 0.30131  0 176.50 430.42   88.98 176.64 430.00   88.78
   2  -7  -2  7684.0   403.4   2-0.14333 0.39832-0.62260-0.07375 0.76930-0.91428  0 385.43 493.62   58.82 385.75 493.76   59.28
   2  -7  -2  8216.6   319.1   2 0.13055 0.12447-0.15850-0.53796-0.97869 0.83373  0 138.45 130.37  191.74 138.39 130.39  191.82
   2  -7   2  6037.3   250.6   1-0.64983 0.90511-0.70656 0.01101-0.28016 0.42503  0 134.19 378.60  101.33 134.27 378.41  101.39
   2  -7   2  7389.1   377.8   2-0.19831 0.45323-0.28705-0.40901 0.93716-0.79202  0 366.27 496.03   37.38 366.36 496.00   37.42
   2  -7   2  7220.5   300.2   2 0.13326 0.12176-0.53487-0.16159-0.83436 0.97932  0 130.29 143.49  168.59 130.22 143.54  168.55
   2   7  -2  6992.1   363.9   2 0.10611 0.14888 0.16726 0.52936-0.98019 0.83523  0 345.85 496.99  210.56 345.87 496.67  210.62
   2   7  -2  7226.4   299.9   2-0.23212 0.48693 0.64620 0.05011 0.72701-0.87200  0 122.83 158.20  340.23 122.50 158.22  339.92
   2   7   2  7555.0   287.2   2-0.23976 0.49468 0.30549 0.39056 0.92152-0.77637  0 116.34 172.78    2.98 115.99 172.82    2.81
   2   7   2  6819.5   345.6   2 0.04853 0.20645 0.56385 0.13278-0.82445 0.96941  0 325.63 496.12  235.41 325.66 495.88  235.45
  -2  -7  -3  4830.2   254.9   1-0.58491 0.32993 0.03984-0.73499-0.81012 0.59239  0 105.01 328.55   46.80 104.92 328.50   46.79
  -2  -7  -3  5117.0   356.2   2 0.13115-0.38617-0.17207-0.52439-0.97631 0.75887  0 264.41  24.76  190.81 264.55  25.05  191.03
  -2  -7   3  4266.5   258.4   1-0.69410 0.43910-0.36767-0.32773-0.61890 0.83653  0  94.33 261.49   73.49  94.17 261.40   73.54
  -2  -7   3  4875.7   287.6   2 0.12309-0.37811-0.69508-0.00139-0.70832 0.92576  0 238.74  35.45  157.22 238.59  35.32  156.84
  -2   7  -3  4815.5   282.7   2-0.23620-0.01861 0.58471 0.11160 0.77609-0.99358  0 230.13  39.42  344.49 229.87  39.61  344.44
  -2   7   3  4686.2   263.2   1-0.21519-0.03979 0.59261 0.10254-0.77621 0.99393  0 441.43  26.10    7.85 441.62  26.37    7.92
  -2   7   3  5261.7   296.2   2-0.22890-0.02601 0.04071 0.65534 0.97260-0.75488  0 208.04  52.07   18.29 207.96  52.14   18.34
   2  -7  -3  3287.6   184.7   1-0.69493 0.94993-0.53191-0.16349-0.48389 0.26626  0 184.42 446.63   85.74 184.62 446.52   85.73
   2  -7  -3  5106.4   393.0   2-0.12688 0.38187-0.69599-0.00036 0.70675-0.92422  2 395.02 502.44   65.03 395.25 502.43   64.89
   2  -7  -3  4951.8   287.0   2 0.12597 0.12905-0.07388-0.62258-0.98928 0.77184  0 135.75 122.23  196.71 135.77 122.27  196.73
   2  -7   3  3870.9   232.1   1-0.63498 0.89026-0.73547 0.03992-0.23639 0.45370  0 120.99 367.97  104.45 120.73 367.81  104.51
   2  -7   3  4817.6   266.5   2 0.12881 0.12621-0.62267-0.07380-0.77181 0.98925  0 123.48 142.18  162.31 123.33 142.24  162.37
   2   7  -3  4695.7   264.7   2-0.22559 0.48040 0.71723-0.02091 0.65931-0.87680  0 119.46 149.96  334.27 119.23 150.00  334.27
   2   7   3  4942.2   256.4   2-0.23763 0.49255 0.21984 0.47621 0.94615-0.72844  0 109.56 172.14    7.88 109.30 172.19    7.93
  -2  -7  -4  2195.0   222.4   1-0.56071 0.30573 0.09424-0.78940-0.82263 0.53234  0  99.72 341.61   43.32  99.64 341.47   43.31
  -2  -7  -4  2650.9   271.1   2 0.12698-0.38200-0.09058-0.60588-0.98776 0.69784  0 263.97  12.89  195.98 264.10  12.81  195.77
  -2  -7   4  2156.7   213.0   1-0.69818 0.44318-0.43594-0.25946-0.56789 0.85806  0  85.52 250.24   78.36  85.34 250.22   78.43
  -2  -7   4  2554.7   264.6   2 0.11547-0.37049-0.76253 0.06607-0.63656 0.92648  0 229.21  27.23  150.85 229.16  27.43  151.17
  -2   7  -4  2226.5   259.8   2-0.23053-0.02428 0.66618 0.03013 0.70927-0.99925  0 228.56  27.79  338.47 228.39  27.86  338.39
  -2   7   4  2559.7   268.1   2-0.22389-0.03103-0.03298 0.72904 0.97406-0.68377  0 198.64  45.27   22.57 198.68  45.43   22.59
   2  -7  -4  1749.8   160.6   1-0.69759 0.95260-0.49442-0.20097-0.51857 0.22839  0 191.61 465.63   82.97 191.67 465.30   82.81
   2  -7  -4  2571.8   266.5   2 0.12069 0.13429 0.00199-0.69862-0.99269 0.70278  0 131.07 112.00  201.34 131.14 111.96  201.07
   2  -7   4  1876.9   215.1   1-0.61833 0.87361-0.76202 0.06647-0.19231 0.48206  0 105.81 357.80  107.56 105.77 357.68  107.60
   2  -7   4  2239.2   236.1   2 0.12238 0.13264-0.70236 0.00589-0.70123 0.99115  0 114.70 139.15  156.27 114.32 139.13  156.25
   2   7  -4  2274.2   241.7   2-0.21766 0.47247 0.77945-0.08314 0.58744-0.87742  0 114.30 139.83  329.22 113.99 139.89  328.79
   2   7   4  2436.8   219.3   2-0.23451 0.48943 0.13993 0.55612 0.96199-0.67170  0 100.82 170.02   12.61 100.33 169.92   12.62
  -2  -7  -5 21131.7   468.5   1-0.53739 0.28241 0.14200-0.83715-0.83129 0.46842  0  92.17 355.86   40.16  92.14 355.61   40.22
  -2  -7   5 19171.4   467.3   1-0.69726 0.44225-0.50085-0.19455-0.51282 0.87554  0  74.47 238.60   83.18  74.31 238.49   83.30
  -2  -7   5 20993.5   513.9   2 0.10610-0.36115-0.82025 0.12328-0.56208 0.92432  0 218.20  16.74  145.73 217.90  16.64  145.74
  -2   7  -5 19308.3   488.2   2-0.22322-0.03159 0.73859-0.04227 0.63613-0.99861  0 225.66  12.70  332.50 225.45  12.81  332.45
  -2   7   5 22788.7   527.7   2-0.21862-0.03630-0.09696 0.79301 0.97098-0.60812  0 187.72  35.96   26.01 187.60  36.14   26.27
   2  -7  -5 15121.8   280.8   1-0.69830 0.95331-0.45835-0.23705-0.54981 0.18709  0 197.87 487.22   80.09 197.96 486.94   80.07
   2  -7  -5 23145.7   522.6   2 0.11546 0.13952 0.06852-0.76515-0.99095 0.62856  0 125.09  99.43  204.83 124.64  99.44  204.89
   2  -7   5 17672.3   440.8   1-0.60004 0.85532-0.78617 0.09062-0.14793 0.51011  0  89.30 347.94  110.69  89.07 347.89  110.68
   2  -7   5 22417.2   497.5   2 0.11411 0.14090-0.77248 0.07602-0.62470 0.98710  0 103.51 134.28  150.18 103.06 134.27  150.28
   2   7  -5 18371.8   457.8   2-0.20861 0.46342 0.83258-0.13626 0.51312-0.87560  0 107.00 127.64  323.58 106.64 127.75  323.50
   2   7   5 23726.4   485.5   2-0.23058 0.48550 0.06771 0.62835 0.97069-0.60784  0  89.44 166.09   17.18  89.01 166.07   16.79
  -2  -7  -6  1163.6   192.3   1-0.51621 0.26123 0.18275-0.87791-0.83674 0.40129  0  82.18 371.45   37.67  82.23 371.33   37.58
  -2  -7   6  1066.1   182.2   1-0.69136 0.43635-0.56164-0.13376-0.45451 0.88978  0  60.74 225.94   88.23  60.83 226.00   88.13
  -2   7   6 996.688 225.938   2-0.21350-0.04141-0.15108 0.84714 0.96519-0.52976  0 174.30  23.92   29.33 174.46  24.03   29.41
   2  -7  -6  1324.1   220.2   2 0.11034 0.14465 0.12517-0.82180-0.98598 0.55111  0 116.06  84.13  207.87 115.95  84.39  208.17
   2  -7   6 883.552 180.118   1-0.58009 0.83537-0.80796 0.11240-0.10345 0.53807  0  70.90 338.16  114.15  70.39 338.29  113.74
   2  -7   6  1167.2   197.6   2 0.10391 0.15115-0.83229 0.13532-0.54452 0.97920  0  89.35 127.66  144.47  89.20 127.69  144.51
   2   7  -6  1046.2   189.8   2-0.19863 0.45344 0.87684-0.18052 0.43784-0.87281  0  97.45 113.36  318.47  97.01 113.34  318.46
   2   7   6  1103.4   177.3   2-0.22661 0.48153 0.00461 0.69145 0.97398-0.53855  0  74.37 160.58   20.28  75.02 160.64   20.43
  -2  -7  -7-138.391 147.115   1-0.49768 0.24270 0.21640-0.91155-0.83994 0.33192  0  68.96 389.34   35.33  69.70 389.08   35.37
  -2  -7   7 -16.802 144.395   1-0.68058 0.42557-0.61785-0.07755-0.39379 0.90159  0  44.91 212.58   92.52  44.54 212.36   92.91
  -2   7   7-421.552 209.461   2-0.20884-0.04608-0.19570 0.89175 0.95817-0.45017  2 159.01   9.26   32.40 158.90   8.80   32.03
   2  -7  -7 -64.422 188.983   2 0.10559 0.14939 0.17220-0.86883-0.97939 0.47204  0 104.87  66.64  210.93 104.79  66.41  210.91
   2  -7   7  61.947 155.162   1-0.55875 0.81403-0.82726 0.13171-0.05863 0.56569  0  49.68 328.49  116.54  49.21 328.68  116.79
   2  -7   7-112.901 163.635   2 0.09289 0.16216-0.88193 0.18497-0.46214 0.96927  0  72.39 119.00  138.65  72.43 119.15  138.96
   2   7  -7 -38.234 181.407   2-0.18806 0.44287 0.91278-0.21646 0.36259-0.87007  0  85.61  96.66  313.51  84.80  96.40  313.62
   2   7   7 118.149 150.768   2-0.22262 0.47754-0.04900 0.74505 0.97367-0.46567  0  57.56 153.54   23.47  58.04 153.64   23.51
  -2  -7  -8  2287.1   253.1   1-0.48233 0.22735 0.24303-0.93818-0.84160 0.26101  0  54.03 409.62   33.62  54.06 409.65   33.61
  -2  -7   8  2389.2   286.8   1-0.66551 0.41051-0.66892-0.02648-0.33112 0.91147  0  25.50 197.29   97.53  24.94 197.15   97.63
   2  -7  -8  2599.1   295.8   2 0.10144 0.15354 0.21019-0.90682-0.97238 0.39256  0  90.86  44.84  212.85  90.67  44.87  213.13
   2  -7   8  2353.3   282.3   1-0.53577 0.79105-0.84425 0.14870-0.01391 0.59340  0  25.51 318.90  119.66  24.99 318.83  119.82
   2  -7   8  2996.8   336.1   2 0.08129 0.17376-0.92173 0.22477-0.37921 0.95879  0  52.79 108.69  133.61  52.21 108.56  133.64
   2   7  -8  2681.9   304.2   2-0.17695 0.43175 0.94109-0.24477 0.28818-0.86814  0  69.56  76.15  308.82  69.48  76.32  309.01
   2   7   8  3512.8   317.1   2-0.21896 0.47388-0.09311 0.78917 0.97128-0.39071  0  37.67 144.85   25.74  37.42 144.93   26.05
  -2  -8   0  6771.8   312.1   1-0.67082 0.41581-0.22304-0.57170-0.70729 0.70729  0  74.63 310.15   63.76  74.46 309.94   63.74
   2  -8   0  5480.7   277.3   1-0.67065 0.92566-0.65347-0.14127-0.35100 0.35100  0 128.04 428.16   96.27 127.91 428.04   96.15
   2  -8   0  7479.5   350.5   2 0.13596 0.11906-0.39527-0.40069-0.90845 0.90845  0 111.69 111.09  177.63 111.30 111.08  177.63
   2   8   0  7706.7   339.5   2-0.23932 0.49413 0.51532 0.28047 0.82290-0.82290  0  92.90 145.67  349.25  92.65 145.73  349.26
  -2  -8  -1 147.572 136.057   1-0.65601 0.40100-0.16385-0.63089-0.73676 0.66421  0  75.82 321.75   60.14  75.69 321.98   59.86
  -2  -8   1 107.641 136.987   1-0.68278 0.42777-0.28396-0.51078-0.67319 0.74573  0  71.35 298.39   67.58  71.13 298.30   67.80
  -2   8  -1 130.777 184.094   2-0.24090-0.01391 0.44333 0.35198 0.86338-0.93590  0 203.65  17.10  353.67 203.78  17.29  354.00
  -2   8   1 -57.928 177.236   2-0.23943-0.01549 0.28037 0.51512 0.92955-0.85698  0 196.02  20.89    4.46 196.35  21.87    4.33
   2  -8  -1 -11.053 121.904   1-0.67900 0.93401-0.62419-0.17055-0.38645 0.31390  0 137.99 443.09   93.53 138.20 442.83   93.48
   2  -8  -1 239.094 161.196   2 0.13524 0.11978-0.31321-0.48275-0.94001 0.86753  0 113.10 106.69  182.59 112.50 106.61  182.65
   2  -8   1 121.224 138.122   1-0.66052 0.91553-0.68216-0.11258-0.31363 0.38617  0 116.42 414.83   99.00 116.43 414.70   98.91
   2  -8   1 167.455 154.943   2 0.13490 0.12012-0.47795-0.31801-0.86797 0.94045  0 107.92 113.56  171.84 108.04 113.60  172.35
   2   8  -1 163.626 152.606   2-0.23602 0.49083 0.58804 0.20775 0.77363-0.84613  0  93.02 140.68  343.79  93.35 140.91  344.21
   2   8   1 195.743 149.844   2-0.24095 0.49576 0.44010 0.35521 0.86502-0.79249  0  89.47 148.75  354.40  89.93 148.82  354.21
  -2  -8  -2  4164.6   277.6   1-0.63942 0.38441-0.10737-0.68737-0.76133 0.61624  0  74.87 334.80   56.12  74.80 334.61   56.21
  -2  -8   2  4063.5   285.9   1-0.69184 0.43683-0.34530-0.44944-0.63413 0.77922  0  65.71 286.87   71.68  65.63 286.83   71.99
  -2   8  -2  4627.5   344.2   2-0.23901-0.01580 0.52428 0.27151 0.81731-0.96231  0 205.21  10.66  348.63 205.06  10.48  348.65
  -2   8   2  5311.3   361.6   2-0.23705-0.01787 0.20251 0.59299 0.95016-0.80501  0 190.09  20.21    9.04 190.14  20.20    8.97
   2  -8  -2  3458.2   225.7   1-0.68565 0.94066-0.59496-0.19978-0.41941 0.27432  0 147.34 459.75   91.49 147.48 459.45   90.92
   2  -8  -2  4461.1   318.4   2 0.13338 0.12164-0.23390-0.56205-0.96307 0.81811  0 112.04 100.01  187.42 111.68 100.08  187.39
   2  -8   2  3247.8   263.9   1-0.64825 0.90353-0.70998-0.08494-0.27515 0.42003  0 103.82 402.80  101.69 103.62 402.48  101.75
   2  -8   2  4255.9   318.3   2 0.13229 0.12273-0.55875-0.23721-0.81872 0.96368  0 103.11 114.15  167.22 102.72 114.19  166.92
   2   8  -2  4519.1   312.5   2-0.23129 0.48610 0.65673 0.13906 0.71778-0.86277  0  92.03 134.16  338.80  91.92 134.25  339.12
  -2  -8  -3  4827.0   290.6   1-0.62168 0.36667-0.05463-0.74011-0.78137 0.56374  0  71.99 348.27   52.72  71.77 348.08   52.82
  -2  -8   3  4512.1   294.5   1-0.69705 0.44204-0.40622-0.38852-0.59085 0.80848  0  58.09 275.43   76.12  57.98 275.28   76.28
  -2   8   3  4843.1   360.7   2-0.23402-0.02090 0.12968 0.66581 0.96354-0.74583  0 182.12  15.52   12.99 182.09  15.82   13.22
   2  -8  -3  3108.5   230.5   1-0.69063 0.94564-0.56661-0.22813-0.44943 0.23180  0 155.74 478.68   88.60 155.89 478.38   88.54
   2  -8  -3  4993.8   338.9   2 0.13059 0.12443-0.15937-0.63658-0.97854 0.76110  0 109.12  91.31  192.00 108.84  91.37  191.77
   2  -8   3  3653.8   267.9   1-0.63449 0.88977-0.73624-0.05867-0.23531 0.45262  0  89.64 391.24  104.57  89.37 391.19  104.59
   2  -8   3  4477.1   309.1   2 0.12792 0.12710-0.63554-0.16041-0.76139 0.97883  0  95.60 112.85  161.43  95.19 112.89  161.42
   2   8  -3  4381.2   319.1   2-0.22529 0.48009 0.71995 0.07584 0.65644-0.87393  0  88.60 125.61  333.80  88.32 125.64  334.05
   2   8   3  4168.8   282.6   2-0.23965 0.49457 0.29175 0.50374 0.92599-0.70827  0  78.05 149.37    3.65  77.51 149.39    3.65
  -2  -8  -4 376.700 162.589   1-0.60366 0.34865-0.00648-0.78826-0.79721 0.50704  0  66.08 362.64   50.19  66.45 362.72   49.74
  -2  -8   4 175.045 153.066   1-0.69829 0.44328-0.46569-0.32905-0.54363 0.83380  0  48.07 263.30   81.10  47.98 263.46   80.62
  -2   8   4 653.178 228.320   2-0.23032-0.02459 0.06340 0.73209 0.97105-0.68076  2 172.48   9.01   17.50 172.15   8.65   17.04
   2  -8  -4  78.107 133.776   1-0.69406 0.94907-0.54021-0.25453-0.47588 0.18570  2 163.57 500.04   86.41 163.62 500.27   86.40
   2  -8  -4 364.982 191.077   2 0.12701 0.12801-0.09118-0.70478-0.98770 0.69778  0 104.03  80.54  195.55 103.83  80.33  195.73
   2  -8   4 304.541 169.707   1-0.61911 0.87439-0.76089-0.03402-0.19428 0.48403  0  73.70 380.65  107.44  73.38 380.57  107.47
   2  -8   4 370.292 184.345   2 0.12196 0.13305-0.70648-0.08948-0.69714 0.98706  0  85.84 109.91  156.24  85.28 109.64  155.92
   2   8  -4 416.338 182.261   2-0.21807 0.47288 0.77668 0.01910 0.59094-0.88092  0  82.62 115.08  329.47  82.50 114.99  329.05
   2   8   4 397.065 162.648   2-0.23772 0.49264 0.22272 0.57277 0.94545-0.65517  0  68.44 147.29    7.60  67.70 147.29    7.76
  -2  -8  -5  2026.4   249.9   1-0.58622 0.33124 0.03678-0.83124-0.80932 0.44645  0  58.94 378.98   46.67  58.76 378.98   46.99
  -2  -8   5  1839.8   242.8   1-0.69575 0.44074-0.52267-0.27207-0.49269 0.85541  0  35.65 251.32   84.97  35.44 251.13   85.00
   2  -8  -5  2301.9   275.7   2 0.12318 0.13184-0.03024-0.76571-0.99192 0.62952  0  96.20  66.37  199.32  96.53  66.65  199.24
   2  -8   5  1582.6   227.7   1-0.60199 0.85728-0.78379-0.01112-0.15255 0.51474  0  55.45 370.43  110.21  55.28 370.48  110.36
   2  -8   5  2090.0   251.8   2 0.11442 0.14060-0.77030-0.02566-0.62733 0.98973  0  73.06 104.46  150.48  72.79 104.47  150.48
   2   8  -5  1558.3   239.3   2-0.20981 0.46462 0.82642-0.03063 0.52250-0.88498  0  74.08 102.03  323.82  74.20 102.05  324.15
   2   8   5  2387.8   276.2   2-0.23534 0.49026 0.15944 0.63605 0.95875-0.59589  0  55.39 143.52   11.49  55.15 143.53   11.49
  -2  -8  -6 744.507 209.780   1-0.56993 0.31495 0.07397-0.86844-0.81836 0.38291  0  48.57 397.12   44.66  48.27 397.27   44.60
  -2  -8   6 522.638 188.173   1-0.68900 0.43400-0.57676-0.21798-0.43888 0.87415  0  19.76 238.11   89.43  19.98 237.98   89.38
   2  -8  -6 652.016 241.571   2 0.11919 0.13580 0.02268-0.81883-0.99261 0.55775  0  85.66  49.40  202.32  86.46  49.81  202.26
   2  -8   6 808.641 206.270   1-0.58322 0.83850-0.80481 0.00989-0.11020 0.54482  0  34.31 361.22  113.37  34.66 360.73  113.28
   2  -8   6 715.394 220.212   2 0.10504 0.15001-0.82616 0.02963-0.55355 0.98824  0  56.97  97.23  145.45  57.21  97.33  145.14
   2   8  -6 570.333 215.605   2-0.20060 0.45541 0.86902-0.07323 0.45229-0.88727  0  63.12  86.40  318.81  63.15  86.46  319.40
   2   8   6 972.759 202.212   2-0.23256 0.48748 0.10291 0.69258 0.96712-0.53169  0  39.77 138.19   14.57  39.45 138.04   14.76
  -2  -9   0  -1.652 171.848   1-0.68354 0.42853-0.28845-0.60563-0.67050 0.67050  0  33.53 329.71   68.54  33.08 329.88   68.11
   2  -9   0 -27.472 174.662   1-0.66410 0.91911-0.67282-0.22126-0.32601 0.32601  0  92.14 462.06   98.42  92.20 462.33   98.00
   2  -9   0-186.248 203.641   2 0.13554 0.11948-0.44544-0.45001-0.88499 0.88499  0  77.32  75.14  175.23  77.32  75.11  174.45
   2   9   0 -53.111 180.369   2-0.23787 0.49268 0.55160 0.34367 0.79947-0.79947  0  55.05 118.10  347.26  54.32 118.10  346.78
  -2  -9  -1 14129.9   456.4   1-0.67378 0.41877-0.23740-0.65668-0.69976 0.62721  0  34.66 343.57   64.92  34.70 343.28   64.69
  -2  -9   1 13478.3   449.0   1-0.69132 0.43631-0.34087-0.55322-0.63710 0.70964  0  29.17 317.26   71.67  29.02 317.09   71.68
   2  -9  -1 17511.3   558.5   2 0.13591 0.11911-0.37401-0.52144-0.91741 0.84493  0  78.94  70.15  178.80  78.64  70.16  178.95
   2  -9   1 11896.2   407.2   1-0.65410 0.90938-0.69702-0.19725-0.29379 0.36623  0  80.19 447.23  100.36  79.83 447.21  100.41
   2  -9   1 16530.2   534.7   2 0.13387 0.12115-0.51727-0.37819-0.84529 0.91777  0  74.28  78.00  169.75  73.70  77.91  169.74
   2   9  -1 15501.4   496.2   2-0.23438 0.48919 0.61453 0.28073 0.75327-0.82576  0  55.33 112.84  342.33  55.02 112.84  342.28
   2   9   1 15977.2   499.4   2-0.23995 0.49476 0.48684 0.40789 0.83989-0.76736  0  51.47 121.44  351.24  51.31 121.54  351.15
  -2  -9  -2 833.856 207.435   1-0.66249 0.40749-0.18858-0.70550-0.72494 0.57985  0  34.20 357.43   61.65  33.92 357.55   61.48
  -2  -9   2  1056.6   210.5   1-0.69625 0.44124-0.39396-0.50012-0.60002 0.74511  0  22.95 304.55   75.61  22.61 304.53   75.40
   2  -9  -2 637.140 183.649   1-0.67846 0.93347-0.62641-0.26767-0.38380 0.23871  2 112.91 498.22   93.47 113.00 498.86   93.68
   2  -9  -2  1198.5   246.8   2 0.13510 0.11992-0.30467-0.59078-0.94283 0.79787  0  77.34  62.79  182.84  77.60  62.86  183.17
   2  -9   2 664.431 212.492   1-0.64291 0.89819-0.72080-0.17348-0.25905 0.40393  0  65.94 434.07  103.29  66.06 433.77  102.90
   2  -9   2 672.602 230.448   2 0.13081 0.12420-0.58777-0.30769-0.79839 0.94335  0  68.18  78.75  163.83  67.68  78.56  164.89
   2   9  -2 661.473 220.448   2-0.22978 0.48459 0.67464 0.22062 0.70147-0.84646  0  53.98 105.77  338.25  53.26 105.56  337.73
   2   9   2 565.629 212.401   2-0.24116 0.49597 0.42244 0.47229 0.87372-0.72867  0  45.19 123.06  355.40  45.62 123.07  355.34
  -3   0   0  57.330  37.198   1-0.19123-0.19124 0.61627-0.61627-0.76396 0.76396  0 235.63 191.10    5.69 235.77 191.21    5.87
  -3   0   0  33.867  50.139   1-0.19150-0.19150-0.86564 0.86564 0.46259-0.46259  0 371.51 182.89  154.53 371.27 183.07  154.03
  -3   0   0  48.766  15.759   2-0.19119-0.19119-0.34199 0.34199 0.92005-0.92005  0 376.43 188.00   40.94 376.41 188.00   40.73
  -3   0   0  32.380  15.198   2-0.19111-0.19111 0.90342-0.90342 0.38382-0.38382  0 393.47 209.12  315.58 393.39 209.31  314.97
  -3   0  -1  4233.7   135.4   1-0.26945-0.11347-0.88655 0.88655 0.37607-0.44850  0 384.40 192.62  146.97 384.64 192.76  147.24
  -3   0   1  4234.6   109.1   1-0.35547-0.02700 0.43125-0.43125-0.82926 0.90183  0 244.76 180.78   20.49 244.63 180.86   20.56
  -3   0   1  4643.8   119.3   1-0.09252-0.29048-0.82372 0.82372 0.55940-0.48695  0 360.32 172.80  162.37 360.39 172.95  162.32
  -3   0   1  4632.5    88.7   2-0.09182-0.29066-0.82282 0.82282 0.56083-0.48834  0 359.80 172.84   76.12 359.89 173.02   76.17
  -3   0   1  4193.5    83.9   2-0.16175-0.22047 0.96816-0.96816 0.19105-0.11855  0 404.45 228.89  303.18 404.66 229.05  303.14
   3   0  -1  4337.3    73.2   2 0.10022 0.28235-0.85003 0.85003-0.51712 0.44467  0 239.71 331.13  142.50 239.51 330.95  142.62
   3   0  -1  4410.0    73.6   2 0.04450 0.33797 0.58394-0.58394-0.81057 0.73810  0 211.81 289.09  236.93 211.74 288.92  236.87
  -3   0  -2  15.784  58.431   1-0.33204-0.05088-0.89458 0.89458 0.29912-0.44400  0 400.13 202.33  141.39 400.21 202.37  141.54
  -3   0  -2  -7.311  15.559   2 0.13546-0.51799-0.32875 0.32875-0.93465 0.78969  0 401.42 205.00  181.97 401.29 205.13  181.71
  -3   0  -2   7.902  16.786   2-0.03477-0.34757 0.87381-0.87381-0.48503 0.34009  0 382.39 181.82  263.15 382.48 182.01  262.50
  -3   0   2  23.986  30.429   1-0.53458 0.15211 0.14753-0.14753-0.83214 0.97729  0 250.88 169.78   39.61 250.92 169.92   39.86
  -3   0   2  15.851  40.985   1 0.03176-0.41476-0.74838 0.74838 0.66251-0.51760  0 352.81 162.22  172.64 352.84 162.11  172.53
  -3   0   2  12.491  37.533   2-0.06035-0.32213-0.90653 0.90653 0.41779-0.27282  0 345.26 159.68   85.48 345.26 159.46   85.86
  -3   0   2  -7.683  34.154   2-0.15709-0.22512 0.97418-0.97418 0.16217-0.01718  0 415.58 247.60  301.59 415.47 247.42  301.43
   3   0  -2  -2.847  25.844   2 0.07952 0.30305-0.92660 0.92660-0.36755 0.22265  0 252.98 347.11  132.83 252.85 347.23  132.92
   3   0  -2  -9.406  24.513   2-0.00885 0.39119 0.79988-0.79988-0.60010 0.45516  0 202.85 271.35  254.47 202.63 271.38  254.51
   3   0   2  -3.044  45.706   1-0.01729 0.40029-0.78102 0.78102 0.62427-0.47936  0 214.08 305.62  169.13 213.77 305.59  168.51
  -3   0  -3 78345.9   577.1   1-0.38369 0.00076-0.89435 0.89435 0.23006-0.44737  0 417.62 212.00  136.68 417.91 212.05  136.60
  -3   0  -3 78744.6   329.3   2 0.11705-0.49958-0.74989 0.74989-0.65113 0.43369  0 420.19 219.90  152.13 420.42 219.97  152.28
  -3   0  -3 70393.1   312.4   2-0.06839-0.31395 0.94337-0.94337-0.32463 0.10721  0 373.04 161.64  272.70 372.98 161.82  272.72
  -3   0   3 67473.9   356.7   1-0.66397 0.28145-0.19448 0.19448-0.72203 0.93966  0 253.80 158.45   61.87 253.62 158.54   61.86
  -3   0   3 78202.0   474.1   2-0.04831-0.33417-0.93165 0.93165 0.36012-0.14265  0 331.14 145.57   89.56 331.24 145.79   89.53
  -3   0   3 68907.9   444.0   2-0.15789-0.22432 0.97321-0.97321 0.16712 0.05037  0 426.82 265.92  301.99 427.00 266.04  301.72
   3   0  -3 74389.3   376.3   1-0.17745 0.55992 0.62943-0.62943-0.75652 0.53880  0 350.35 365.54    4.78 350.33 365.36    4.69
   3   0  -3 78140.9   463.1   2 0.07221 0.31036-0.94524 0.94524-0.31827 0.10093  0 265.26 363.20  129.89 265.31 363.00  129.86
   3   0  -3 65448.7   423.6   2-0.03145 0.41379 0.86534-0.86534-0.50020 0.28279  0 193.97 255.53  261.40 193.93 255.44  261.48
   3   0   3 79913.9   584.2   1-0.07378 0.45678-0.81404 0.81404 0.57611-0.35874  0 201.11 296.32  163.92 200.99 296.30  163.87
   3   0   3 81602.8   343.6   2-0.11003 0.49251-0.76163 0.76163 0.63861-0.42114  0 201.59 298.80   70.33 201.49 298.64   70.40
   3   0   3 75095.8   322.6   2-0.24103 0.62324 0.43430-0.43430 0.86792-0.65035  0 226.72 337.48  354.61 226.64 337.31  354.58
  -3   0  -4  -9.033  77.406   1-0.42742 0.04450-0.88850 0.88850 0.16697-0.45671  0 437.82 222.20  132.62 437.83 222.06  132.20
  -3   0  -4 -14.867  39.444   2 0.10231-0.48489-0.84022 0.84022-0.53251 0.24272  0 439.85 233.76  143.78 440.17 233.71  143.67
  -3   0  -4  27.383  44.304   2-0.07323-0.30911 0.95097-0.95097-0.30050 0.01061  0 365.10 142.39  273.92 365.02 142.30  274.19
  -3   0   4  52.889  33.797   1-0.69763 0.31512-0.49029 0.49029-0.52242 0.81260  0 251.86 146.57   82.42 251.99 146.53   82.48
  -3   0   4  20.995  64.651   2-0.04402-0.33846-0.93969 0.93969 0.33918-0.04922  0 317.40 131.77   90.48 317.39 131.60   90.84
  -3   0   4  41.231  61.983   2-0.16077-0.22144 0.96950-0.96950 0.18498 0.10501  0 439.36 285.41  301.69 439.64 285.43  302.78
   3   0  -4 -24.015  45.985   1-0.32047 0.70294 0.47539-0.47539-0.81933 0.52903  0 352.03 379.12   16.92 352.20 378.79   17.28
   3   0  -4 -35.874  58.084   2 0.07027 0.31231-0.94986 0.94986-0.30466 0.01487  0 277.81 379.07  129.48 277.74 379.59  129.04
   3   0  -4  30.768  40.748   2-0.04186 0.42421 0.89088-0.89088-0.45230 0.16241  0 184.98 240.02  263.66 184.86 239.86  264.65
   3   0   4 -91.416  53.890   1-0.10991 0.49291-0.83237 0.83237 0.54322-0.25339  0 187.45 287.07  160.55 187.31 287.08  160.87
   3   0   4  -9.389  26.720   2-0.07828 0.46076-0.86219 0.86219 0.50050-0.21054  0 186.58 284.66   80.54 186.38 284.81   80.37
   3   0   4  14.538  29.895   2-0.22959 0.61181 0.67675-0.67675 0.69950-0.40952  0 234.31 358.28  337.31 233.95 358.28  337.56
  -3   0  -5 14021.3   305.6   1-0.46521 0.08229-0.87855 0.87855 0.10833-0.47052  0 460.18 232.64  128.02 460.36 232.63  128.16
  -3   0  -5 13506.7   215.2   2 0.09587-0.47845-0.86958 0.86958-0.48440 0.12216  0 461.42 247.78  140.30 461.72 247.82  140.42
  -3   0  -5 12809.1   212.7   2-0.07193-0.31041 0.94899-0.94899-0.30699-0.05537  0 357.62 121.75  273.91 357.59 121.99  273.80
  -3   0   5 13270.9   176.6   1-0.66047 0.27796-0.68229 0.68229-0.31346 0.67618  0 246.49 133.59   98.91 246.36 133.74   98.92
  -3   0   5 15556.9   287.8   2-0.04358-0.33890-0.94048 0.94048 0.33704 0.02541  0 303.32 116.41   91.16 303.46 116.63   90.98
  -3   0   5 13345.9   268.4   2-0.16464-0.21757 0.96392-0.96392 0.20915 0.15333  0 453.63 305.95  304.24 453.75 306.02  304.22
   3   0  -5 12941.6   185.6   1-0.43543 0.81790 0.31861-0.31861-0.84195 0.47908  0 358.89 394.28   28.47 358.90 394.14   28.51
   3   0  -5 11426.0   243.8   2 0.07083 0.31175-0.94863 0.94863-0.30835-0.05389  0 290.37 397.87  129.12 290.48 397.58  129.26
   3   0  -5 13116.8   250.0   2-0.04617 0.42851 0.90088-0.90088-0.43161 0.06925  0 175.14 224.20  266.04 175.12 224.16  265.99
   3   0   5 14472.5   296.8   1-0.13159 0.51459-0.84229 0.84229 0.52271-0.16042  0 172.76 277.83  159.04 172.70 277.83  159.07
   3   0   5 14109.7   201.4   2-0.06828 0.45077-0.88782 0.88782 0.45509-0.09265  0 171.70 273.10   83.30 171.63 273.00   83.43
   3   0   5 13283.0   196.1   2-0.22095 0.60316 0.75635-0.75635 0.61573-0.25325  0 239.78 379.00  330.98 239.69 378.76  330.90
  -3   0  -6  77.316 121.301   1-0.49837 0.11545-0.86534 0.86534 0.05309-0.48771  0 485.76 243.86  124.47 486.13 244.08  124.39
  -3   0  -6  25.367  73.383   2 0.09371-0.47629-0.87865 0.87865-0.46818 0.03349  0 485.95 262.63  139.54 486.00 262.70  139.35
  -3   0  -6  -5.446  71.830   2-0.06821-0.31414 0.94307-0.94307-0.32554-0.10930  0 350.60 100.12  272.48 350.49 100.28  272.66
  -3   0   6  34.410  43.876   1-0.59634 0.21342-0.79054 0.79054-0.13940 0.57402  0 237.67 119.76  110.92 237.86 119.79  111.27
  -3   0   6 -31.799  90.018   2-0.04536-0.33712-0.93723 0.93723 0.34575 0.08918  0 289.47 100.52   90.42 289.23 100.59   90.43
  -3   0   6 -21.930  99.914   2-0.16906-0.21316 0.95672-0.95672 0.23686 0.19811  0 469.59 328.32  306.26 469.74 328.36  305.89
   3   0  -6  34.255  64.715   1-0.51402 0.89649 0.18682-0.18682-0.83718 0.40174  0 369.46 411.91   37.16 369.51 411.89   37.31
   3   0  -6 -45.591  60.756   2-0.04715 0.42949 0.90304-0.90304-0.42697-0.00786  0 163.98 208.16  266.51 164.49 208.05  266.29
   3   0   6  44.490  74.763   1-0.14277 0.52577-0.84712 0.84712 0.51186-0.07711  0 156.97 268.33  158.79 157.01 268.36  158.14
   3   0   6  74.916  50.959   2-0.06579 0.44827-0.89386 0.89386 0.44350-0.00856  0 156.23 261.70   84.53 156.21 261.83   84.19
   3   0   6  37.552  53.932   2-0.21626 0.59848 0.78873-0.78873 0.57545-0.14047  0 244.90 400.64  327.63 244.75 400.46  327.92
  -3   0  -7 17011.7   315.2   2-0.06322-0.31912 0.93458-0.93458-0.35009-0.15722  0 343.59  76.32  271.02 343.60  76.61  271.15
  -3   0   7 17466.9   238.8   1-0.52899 0.14607-0.84863 0.84863-0.00137 0.50843  0 227.02 104.10  120.69 227.07 104.31  120.68
  -3   0   7 17879.6   370.7   2-0.04856-0.33392-0.93120 0.93120 0.36126 0.14617  0 274.24  82.88   89.45 274.41  83.16   89.46
  -3   0   7 15950.6   367.0   2-0.17369-0.20852 0.94796-0.94796 0.26685 0.24062  0 488.16 353.05  308.05 488.21 353.10  307.71
   3   0  -7 10896.0   215.5   1-0.56283 0.94530 0.08943-0.08943-0.82172 0.31370  0 383.06 432.68   43.69 383.30 432.68   43.61
   3   0  -7 18039.9   370.2   2 0.07558 0.30700-0.93707 0.93707-0.34086-0.16628  0 318.23 440.38  131.12 318.16 440.08  131.25
   3   0  -7 16594.8   336.6   2-0.04600 0.42834 0.90051-0.90051-0.43240-0.07490  0 152.73 191.24  265.97 152.71 191.22  265.94
   3   0   7 18407.1   378.9   1-0.14613 0.52913-0.84854 0.84854 0.50856-0.00135  0 140.08 258.52  157.97 140.05 258.52  157.85
   3   0   7 18903.6   296.6   2-0.06680 0.44929-0.89142 0.89142 0.44822 0.05921  0 139.70 250.99   84.00 139.65 250.91   83.88
   3   0   7 16632.2   283.2   2-0.21432 0.59653 0.80093-0.80093 0.55909-0.05162  0 249.40 424.41  326.89 249.28 424.14  326.73
  -3   0  -8 -47.382 122.077   2-0.05751-0.32483 0.92400-0.92400-0.37804-0.20174  0 336.56  50.43  269.60 336.84  50.29  269.40
  -3   0   8  44.969  66.319   1-0.46465 0.08173-0.87873 0.87873 0.10923 0.47027  0 214.44  87.04  128.13 214.60  86.73  128.22
  -3   0   8 -27.650 141.988   2-0.05271-0.32977-0.92294 0.92294 0.38132 0.19859  0 258.77  63.51   88.52 258.74  63.89   88.19
   3   0  -8  47.279 104.862   1-0.59151 0.97398 0.02416-0.02416-0.80594 0.22534  0 400.01 457.27   48.01 399.87 457.40   47.79
   3   0  -8 -13.452 140.921   2 0.07899 0.30358-0.92808 0.92808-0.36392-0.21567  0 333.92 466.08  132.98 333.86 466.09  132.69
   3   0  -8 -72.442  87.211   2-0.04350 0.42584 0.89465-0.89465-0.44465-0.13513  0 138.99 173.46  265.53 139.50 173.36  265.15
   3   0   8  86.240 104.977   1-0.14348 0.52648-0.84742 0.84742 0.51116 0.06850  0 121.27 248.14  158.55 121.53 248.08  158.08
   3   0   8  21.459  67.018   2-0.06980 0.45229-0.88406 0.88406 0.46213 0.11779  0 121.46 239.87   82.58 121.49 240.01   82.96
   3   0   8 -22.815  76.507   2-0.21406 0.59628 0.80245-0.80245 0.55700 0.02296  0 253.28 450.55  326.53 253.34 450.60  326.58
  -3   0  -9 421.957 164.037   2-0.05121-0.33113 0.91147-0.91147-0.40817-0.24408  0 330.09  20.28  267.42 330.15  20.37  267.49
  -3   0   9 503.482  96.304   1-0.40441 0.02149-0.89224 0.89224 0.20089 0.45104  0 200.62  66.51  134.48 200.71  66.39  134.55
  -3   0   9 604.691 154.848   2-0.05757-0.32492-0.91269 0.91269 0.40457 0.24783  0 241.98  42.69   86.66 241.80  42.22   86.71
   3   0  -9 309.704 139.846   1-0.60731 0.98982-0.01587 0.01587-0.79431 0.14141  0 419.23 487.48   50.32 419.24 487.28   50.35
   3   0  -9 404.673 195.864   2 0.08279 0.29978-0.91722 0.91722-0.38967-0.26236  0 351.70 496.55  134.27 351.52 496.72  134.30
   3   0  -9 617.400 135.715   2-0.03987 0.42222 0.88621-0.88621-0.46156-0.19069  0 124.54 154.03  264.40 124.41 154.00  264.04
   3   0   9 551.565 140.357   1-0.13603 0.51903-0.84424 0.84424 0.51842 0.13369  0 101.30 237.11  158.67 101.04 236.76  158.70
   3   0   9 522.781 104.660   2-0.07406 0.45654-0.87318 0.87318 0.48174 0.17067  0 101.10 229.15   81.48 101.22 228.94   81.66
   3   0   9 658.067 152.810   2-0.21493 0.59714 0.79725-0.79725 0.56409 0.08838  0 256.88 480.90  326.60 256.89 480.81  327.09
  -3   0  10  15.335 100.600   1-0.34655-0.03637-0.89521 0.89521 0.28020 0.44417  0 185.31  42.30  140.13 185.40  42.20  140.18
  -3   0  10  21.924 160.945   2-0.06295-0.31953-0.90056 0.90056 0.43014 0.29476  0 222.98  17.42   85.53 223.07  17.34   85.06
   3   0 -10-142.961 123.360   2-0.03545 0.41779 0.87550-0.87550-0.48192-0.24280  0 107.53 132.71  262.62 106.97 132.61  262.70
   3   0  10   8.838 124.107   1-0.12458 0.50758-0.83920 0.83920 0.52936 0.19521  0  78.30 224.38  159.62  78.02 224.21  159.65
   3   0  10 -22.767  99.581   2-0.07932 0.46180-0.85935 0.85935 0.50521 0.21969  0  78.31 217.67   80.58  78.25 217.55   80.05
  -3   0  11 18075.4   353.0   1-0.29074-0.09218-0.89022 0.89022 0.35069 0.44611  2 168.07  12.53  145.19 168.45  12.73  145.33
   3   0 -11 16210.1   476.7   2-0.03042 0.41276 0.86266-0.86266-0.50488-0.29232  0  86.61 108.39  261.13  86.31 108.41  261.17
   3   0  11 17716.1   479.1   1-0.10981 0.49281-0.83232 0.83232 0.54331 0.25372  0  51.96 209.96  160.96  51.68 209.94  160.88
   3   0  11 17206.6   409.1   2-0.08511 0.46759-0.84293 0.84293 0.53125 0.26613  0  51.92 205.71   78.21  51.58 205.61   78.26
  -3  -1   0  32.327  40.515   1-0.32586-0.05661 0.46883-0.56814-0.82098 0.82098  0 222.46 202.15   18.21 222.59 202.41   17.77
  -3  -1   0  29.110  55.582   1-0.00394-0.37906-0.77252 0.67314 0.63497-0.63497  0 387.91 193.83  169.41 388.24 193.91  169.60
  -3  -1   0   3.035  18.971   2-0.23299-0.14939 0.11103-0.21047 0.96612-0.96612  0 400.85 214.15   14.53 400.97 214.27   14.29
  -3  -1   0  29.142  21.225   2 0.05125-0.43383-0.98172 0.88216-0.18328 0.18328  0 372.89 179.78  122.82 373.14 179.85  121.75
  -3   1   0 -40.257  41.267   1-0.43452 0.05160-0.88699 0.98636 0.15631-0.15631  0 361.31 171.27  131.59 361.12 171.20  131.46
  -3   1   0 -13.213  25.776   2-0.22124-0.16113-0.06586 0.16530 0.97299-0.97299  0 360.85 171.54   24.59 360.99 171.44   24.48
  -3   1   0  26.034  27.145   2-0.00192-0.38042 0.77688-0.67737-0.62964 0.62964  0 406.60 228.45  252.53 406.56 228.52  252.33
   3  -1   0  11.533  34.272   1 0.00556 0.37745-0.76631 0.66693 0.64245-0.64245  0 244.44 337.09  170.51 244.36 336.77  170.38
   3  -1   0   5.769  17.674   2-0.04143 0.42391-0.94431 0.84483 0.32643-0.32643  0 238.55 332.16   91.98 238.52 332.16   91.63
   3  -1   0  19.126  18.197   2 0.13435 0.24818-0.26856 0.16907-0.95385 0.95385  0 210.36 289.36  185.16 210.30 289.31  185.33
  -3  -1  -1  3026.2   124.3   1-0.21697-0.16550 0.59082-0.69013-0.77708 0.70451  0 214.98 212.01    7.99 214.92 212.07    8.08
  -3  -1  -1  3146.4   133.1   1-0.10083-0.28217-0.82786 0.72848 0.55180-0.62426  0 398.15 204.04  161.75 398.40 204.16  161.64
  -3  -1  -1  3191.6    41.0   2-0.07186-0.31062-0.87884 0.77936 0.47167-0.54416  0 396.71 202.75   82.22 397.00 202.91   82.33
  -3  -1  -1  2304.3    36.3   2 0.10884-0.49142-0.80460 0.70503-0.58376 0.51131  0 383.37 186.15  147.22 383.57 186.17  147.27
  -3  -1   1  3000.7   111.1   1-0.44839 0.06592 0.29852-0.39783-0.84251 0.91509  0 228.09 192.31   30.29 228.02 192.38   29.88
  -3  -1   1  2917.0    81.1   2 0.03359-0.41617-0.99645 0.89688-0.07724 0.14969  0 359.33 168.06  115.47 359.30 168.17  115.53
  -3  -1   1  2744.5    78.2   2-0.23348-0.14874 0.62780-0.72728 0.74253-0.67003  0 409.49 230.78  341.29 409.79 230.93  341.30
  -3   1  -1  2931.7   114.1   1-0.46121 0.07829-0.87984 0.97921 0.11470-0.18714  0 377.94 180.43  128.69 377.95 180.54  128.59
  -3   1  -1  2972.2    69.5   2 0.07164-0.45411 0.43154-0.33202-0.89925 0.82677  0 406.57 222.13  226.70 406.80 222.21  226.65
  -3   1  -1  2937.4    71.8   2-0.23964-0.14258 0.49771-0.39829 0.83358-0.90611  0 367.06 172.72  350.44 367.10 172.94  350.43
  -3   1   1  3079.4    89.0   1-0.19852-0.18395 0.60919-0.50989-0.76777 0.84035  0 257.03 168.37    6.33 257.28 168.46    6.49
  -3   1   1  2936.7    88.9   1-0.40483 0.02191-0.89219 0.99155 0.20028-0.12785  0 345.21 161.44  134.62 345.27 161.60  134.50
  -3   1   1  3218.4    93.9   2-0.17106-0.21132-0.47598 0.57542 0.86266-0.79009  0 350.42 163.74   49.00 350.55 163.87   49.17
  -3   1   1  2648.8    86.1   2-0.05118-0.33117 0.91140-0.81188-0.40834 0.48081  0 411.79 240.87  267.48 411.95 240.93  267.48
   3  -1  -1  3005.1    79.1   2-0.01193 0.39451-0.98447 0.88490 0.17517-0.24762  0 248.42 342.14  100.86 248.23 342.00  100.79
   3  -1  -1  3092.4    79.7   2 0.09590 0.28658 0.25766-0.35718-0.96147 0.88899  0 205.47 277.32  215.99 205.40 277.18  215.94
   3  -1   1  3123.7   113.3   1-0.10762 0.49062-0.83127 0.73189 0.54535-0.47289  0 230.89 326.65  160.84 230.71 326.56  161.06
   3  -1   1  3089.6    55.3   2-0.10833 0.49081-0.76791 0.66843 0.63133-0.55884  0 232.34 328.62   71.00 232.22 328.49   70.96
   3  -1   1  3010.5    54.9   2 0.10709 0.27548-0.81452 0.71496-0.57016 0.64261  0 211.26 296.52  146.37 211.16 296.46  146.31
   3   1  -1  2979.7    68.5   2 0.13591 0.24661-0.37813 0.47763-0.91572 0.84324  0 240.10 335.85  178.65 239.93 335.62  178.70
   3   1  -1  2599.9    63.6   2-0.08577 0.46811 0.96779-0.86828-0.23668 0.16421  0 207.88 287.20  278.03 207.81 287.07  278.05
  -3  -1  -2 15040.1   260.7   1-0.18523-0.19777-0.86351 0.76413 0.46908-0.61399  0 411.09 214.16  154.65 411.36 214.27  154.56
  -3  -1  -2 15886.6   118.5   2 0.01320-0.39578-0.99911 0.89955 0.03997-0.18487  0 408.08 209.23  108.71 408.32 209.36  108.72
  -3  -1  -2 15644.9   116.7   2 0.11074-0.49321 0.12095-0.22046-0.98646 0.84151  0 380.26 174.59  207.92 380.16 174.73  207.93
  -3  -1   2 14808.0   213.0   1-0.56508 0.18261 0.08457-0.18388-0.82069 0.96584  0 230.89 181.92   43.99 230.83 181.96   43.92
  -3  -1   2 14818.7   189.7   2 0.02283-0.40541-0.99963 0.90006-0.01489 0.15979  0 345.44 155.39  111.97 345.45 155.56  111.90
  -3  -1   2 14116.0   185.0   2-0.21665-0.16556 0.78624-0.88571 0.57870-0.43370  0 419.66 248.30  328.07 419.94 248.46  328.15
  -3   1  -2 15244.3   247.3   1-0.48587 0.10295-0.87086 0.97023 0.07436-0.21924  0 395.74 189.66  125.97 396.05 189.74  125.84
  -3   1  -2 15205.1   150.4   2 0.12563-0.50816-0.06827 0.16776-0.98973 0.84477  0 414.48 224.34  197.00 414.71 224.41  197.05
  -3   1  -2 13962.0   146.1   2-0.20834-0.17388 0.83398-0.73450 0.51096-0.65595  0 367.08 165.41  323.22 367.09 165.57  323.35
  -3   1   2 14683.3   137.6   1-0.49187 0.10940 0.22659-0.12728-0.84067 0.98581  0 270.31 156.51   34.63 270.46 156.62   34.70
  -3   1   2 15438.9   140.6   1-0.36963-0.01329-0.89506 0.99443 0.24947-0.10460  0 330.34 151.27  138.08 330.39 151.46  137.97
  -3   1   2 16989.4   212.1   2-0.13188-0.25060-0.67472 0.77420 0.72619-0.58121  0 338.30 153.22   63.04 338.40 153.42   63.21
  -3   1   2 12838.3   186.6   2-0.08074-0.30160 0.96161-0.86209-0.26228 0.40722  0 420.11 256.19  276.57 420.26 256.25  276.51
   3  -1  -2 15024.6   194.8   2 0.00489 0.37769-0.99630 0.89673 0.08580-0.23070  0 258.98 354.52  106.01 259.05 354.35  106.04
   3  -1  -2 14925.5   190.3   2 0.05327 0.32920 0.53893-0.63844-0.84067 0.69571  0 198.95 263.68  233.93 198.87 263.55  233.73
   3  -1   2 14481.8   233.7   1-0.17328 0.55628-0.85920 0.75982 0.48140-0.33649  0 216.95 316.89  155.53 216.80 316.83  155.57
   3  -1   2 15674.7   131.7   2-0.19849 0.58087-0.28561 0.18618 0.93756-0.79242  0 232.56 335.97   37.36 232.42 335.81   37.33
   3  -1   2 15418.1   131.0   2 0.05454 0.32804-0.97746 0.87789-0.20395 0.34885  0 204.99 293.88  122.99 204.90 293.81  122.98
   3   1  -2 15228.1   222.9   1-0.21666 0.59913 0.59112-0.49182-0.77694 0.63179  0 378.19 343.50    8.00 378.11 343.36    8.05
   3   1  -2 15099.2   179.3   2 0.12571 0.25682-0.66509 0.76458-0.73611 0.59115  0 252.69 350.97  159.02 252.51 350.77  159.19
   3   1  -2 12475.2   163.6   2-0.09476 0.47710 0.97721-0.87770-0.18994 0.04500  0 199.54 270.78  280.95 199.47 270.69  280.84
  -3  -1  -3 218.950  83.768   1-0.25771-0.12521-0.88417 0.78480 0.38965-0.60696  0 426.70 224.45  148.44 426.93 224.46  148.28
  -3  -1  -3 183.800  37.423   2 0.03196-0.41454-0.99720 0.89763-0.06763-0.14972  0 425.05 221.06  115.09 425.15 221.12  114.97
  -3  -1  -3 147.814  37.754   2 0.04521-0.42768 0.58041-0.67993-0.81307 0.59563  0 373.22 157.50  236.57 373.14 157.50  236.62
  -3  -1   3 147.482  45.544   1-0.65137 0.26886-0.14711 0.04777-0.74436 0.96200  0 230.68 170.88   58.76 230.60 171.10   58.78
  -3  -1   3 145.095  58.373   2 0.01406-0.39663-0.99928 0.89972 0.03516 0.18218  0 331.58 142.16  107.57 331.76 142.31  109.00
  -3  -1   3 116.763  53.746   2-0.20592-0.17630 0.84573-0.94520 0.49228-0.27479  0 431.10 266.63  322.34 431.21 266.71  322.08
  -3   1  -3 164.567  75.091   1-0.50889 0.12597-0.86013 0.95950 0.03468-0.25199  0 415.33 199.16  123.36 415.66 199.00  123.13
  -3   1  -3 157.064  40.484   2 0.13591-0.51844-0.41788 0.51738-0.89828 0.68084  0 428.51 232.57  175.96 428.44 232.49  176.21
  -3   1  -3 151.962  42.570   2-0.17450-0.20771 0.94630-0.84683 0.27214-0.48963  0 363.13 151.98  308.25 363.00 152.16  308.03
  -3   1   3 134.363  23.406   1-0.69831 0.31579-0.45651 0.55585-0.55133 0.76896  0 283.07 143.72   80.27 282.95 143.88   79.94
  -3   1   3 176.177  25.370   1-0.31787-0.06505-0.89351 0.99287 0.31718-0.09987  0 317.01 140.55  143.20 316.93 140.62  142.86
  -3   1   3 216.171  62.480   2-0.10797-0.27452-0.76920 0.86868 0.62982-0.41235  0 325.74 141.24   71.36 325.66 141.39   71.08
  -3   1   3 122.336  55.380   2-0.10064-0.28170 0.98216-0.88264-0.15887 0.37628  0 430.16 273.29  282.51 430.42 273.27  282.67
   3  -1  -3 198.774  59.842   2 0.01691 0.36567-0.99967 0.90010 0.01952-0.23686  0 270.43 368.34  109.97 270.39 368.37  109.90
   3  -1  -3  92.895  42.355   2 0.02420 0.35827 0.67730-0.77682-0.73531 0.51788  0 191.35 249.36  244.49 191.35 249.38  243.85
   3  -1   3 146.538  59.584   1-0.21099 0.59399-0.87186 0.77248 0.44198-0.22461  0 202.12 307.55  152.29 202.50 307.41  152.37
   3  -1   3 134.970  31.312   2-0.23565 0.61803 0.16679-0.26623 0.95742-0.73970  0 236.07 349.78   10.94 236.06 349.74   11.06
   3  -1   3 178.129  31.999   2 0.02647 0.35611-0.99900 0.89943-0.03604 0.25339  0 194.64 285.81  113.07 194.35 285.74  113.13
   3   1  -3 129.404  62.022   1-0.32334 0.70581 0.47192-0.37261-0.82021 0.60248  0 378.41 355.73   17.50 378.40 355.71   17.54
   3   1  -3 150.078  55.625   2 0.11382 0.26871-0.77458 0.87407-0.62215 0.40471  0 264.60 366.19  149.54 264.64 366.14  150.09
   3   1  -3 122.357  40.093   2-0.09520 0.47754 0.97762-0.87810-0.18762-0.02980  0 191.38 255.04  280.63 191.05 255.17  280.97
   3   1   3 180.371  26.528   2-0.20055 0.58293-0.26843 0.36787 0.94219-0.72448  0 197.72 297.28   36.54 197.86 297.26   36.32
   3   1   3 155.497  25.323   2-0.19272 0.57493 0.89813-0.79866 0.39525-0.17776  0 226.51 341.36  315.76 226.53 341.40  315.70
  -3  -1  -4  9051.1   243.0   1-0.32003-0.06289-0.89369 0.79433 0.31448-0.60422  0 444.89 235.10  142.81 445.18 235.10  142.66
  -3  -1  -4  8637.6   152.1   2 0.04259-0.42516-0.99054 0.89098-0.13043-0.15936  0 444.03 233.88  118.74 444.24 233.94  118.65
  -3  -1  -4  8851.0   156.2   2 0.01022-0.39270 0.73350-0.83302-0.67961 0.38970  0 365.97 138.63  248.40 366.02 138.78  248.47
  -3  -1   4  7456.8   161.6   1-0.69354 0.31102-0.36083 0.26148-0.62355 0.91372  0 227.43 159.53   73.00 227.31 159.59   73.07
  -3  -1   4  8854.3   204.7   2 0.00596-0.38854-0.99678 0.89722 0.07993 0.20986  0 318.01 128.08  106.34 318.08 128.33  106.39
  -3  -1   4  8125.6   195.5   2-0.20014-0.18208 0.87088-0.97036 0.44889-0.15891  0 443.59 285.81  319.22 443.78 285.94  319.18
  -3   1  -4  7955.2   226.1   1-0.53064 0.14772-0.84759 0.94695-0.00434-0.28541  0 436.97 208.48  120.49 437.19 208.53  120.48
  -3   1  -4  9123.3   166.7   2 0.13028-0.51281-0.59738 0.69688-0.79130 0.50138  0 445.57 243.35  164.05 445.78 243.39  164.20
  -3   1  -4  8086.8   160.7   2-0.15020-0.23214 0.98125-0.88173 0.12079-0.41068  0 357.44 135.36  299.00 357.44 135.57  299.01
  -3   1   4  8387.1    59.4   1-0.49846 0.11554-0.86529 0.96466 0.05293 0.23682  0 289.99 130.06  124.01 290.41 130.28  124.38
  -3   1   4  9402.8    64.3   1-0.16891-0.21409-0.85756 0.95694 0.48585-0.19602  0 309.31 128.00  156.44 309.27 128.30  155.94
  -3   1   4  9154.8   211.2   2-0.09396-0.28852-0.81603 0.91551 0.57033-0.28037  0 312.43 128.03   75.50 312.60 128.22   75.50
  -3   1   4  7568.3   192.8   2-0.11557-0.26677 0.99022-0.89070-0.07819 0.36808  0 442.08 291.71  287.39 442.23 291.72  287.39
   3  -1  -4  8746.7   205.4   2 0.02651 0.35607-0.99899 0.89942-0.03630-0.25349  0 282.22 384.17  112.67 282.21 383.95  113.15
   3  -1  -4  8632.4   191.5   2 0.00613 0.37621 0.74855-0.84807-0.66305 0.37316  0 183.01 234.81  249.87 182.98 234.76  249.77
   3  -1   4  8063.1   214.3   1-0.23128 0.61428-0.87771 0.77833 0.41969-0.12986  0 187.78 298.27  150.59 187.67 298.19  150.60
   3  -1   4  8484.5   147.3   2 0.00986 0.37271-0.99824 0.89867 0.05854 0.23125  0 182.13 276.26  107.67 182.04 276.23  107.63
   3  -1   4  8016.3   144.8   2-0.24117 0.62339 0.41919-0.51861 0.87528-0.58518  0 240.73 366.67  355.62 240.60 366.48  355.54
   3   1  -4  7955.4   179.5   1-0.41427 0.79674 0.35001-0.25070-0.84016 0.54987  0 382.56 369.49   26.14 382.61 369.42   26.34
   3   1  -4  7928.9   180.2   2-0.09255 0.47490 0.97511-0.87559-0.20150-0.08839  0 182.17 239.87  280.00 182.12 239.81  280.15
   3   1   4  8709.4   227.5   1 0.01759 0.36541-0.75822 0.85760 0.65176-0.36193  0 182.56 276.22  171.33 182.50 276.23  171.37
   3   1   4  9113.9   139.5   2-0.15527 0.53775-0.56248 0.66196 0.81210-0.52214  0 183.63 284.88   54.97 183.58 284.78   54.99
   3   1   4  7909.9   131.0   2-0.18507 0.56728 0.92137-0.82189 0.34181-0.05183  0 232.99 361.34  312.23 232.89 361.12  312.32
  -3  -1  -5 999.837 139.564   1-0.37390-0.00902-0.89489 0.79552 0.24367-0.60586  0 466.34 246.39  137.63 466.34 246.39  137.56
  -3  -1  -5 820.982 102.472   2 0.05080-0.43338-0.98226 0.88270-0.18050-0.18174  0 465.59 247.55  121.60 465.66 247.56  121.59
  -3  -1  -5 946.693 106.536   2-0.00720-0.37514 0.79454-0.89406-0.60716 0.24480  0 359.01 118.60  253.97 358.92 118.84  253.99
  -3  -1   5 721.399  85.176   1-0.69475 0.31223-0.53370 0.43436-0.48217 0.84489  0 221.41 147.30   86.02 221.22 147.27   85.88
  -3  -1   5  1017.2   117.6   2-0.00185-0.38072-0.99252 0.89295 0.12207 0.24017  0 304.22 113.28  103.91 304.26 113.44  103.92
  -3  -1   5 925.305 110.219   2-0.19754-0.18468 0.88101-0.98049 0.42988-0.06740  0 458.04 306.50  318.30 457.95 306.48  317.94
  -3   1  -5  1160.1   136.1   1-0.55099 0.16807-0.83339 0.93276-0.04325-0.31893  0 461.26 218.36  117.66 461.14 218.49  117.83
  -3   1  -5 927.684 104.566   2 0.12386-0.50639-0.68694 0.78644-0.71608 0.35368  0 465.95 255.96  157.32 466.05 256.01  157.48
  -3   1  -5 812.019  89.270   2-0.13207-0.25028 0.99113-0.89161 0.01498-0.37734  0 351.28 116.65  292.75 351.23 116.85  292.83
  -3   1   5 962.034  43.556   1-0.36101-0.02191-0.89527 0.99463 0.26108 0.10110  0 282.36 116.72  138.72 282.61 116.96  138.80
  -3   1   5  1091.7   117.1   2-0.08622-0.29626-0.83969 0.93917 0.53617-0.17372  0 299.05 113.82   77.76 299.16 113.91   77.92
  -3   1   5 787.958 108.560   2-0.12766-0.25469 0.99176-0.89225-0.01050 0.37286  0 455.74 311.78  291.11 455.81 311.75  291.34
   3  -1  -5  1019.3    46.1   1-0.18002 0.56249 0.62701-0.72632-0.75792 0.39505  0 318.18 403.42    4.95 318.22 403.26    4.91
   3  -1  -5   4.685  67.350   2 0.03509 0.34748-0.99567 0.89610-0.08609-0.27614  2 294.07 401.23  117.31 294.63 401.37  116.05
   3  -1  -5 819.139 102.268   2-0.00477 0.38712 0.78649-0.88600-0.61759 0.25522  0 173.59 219.63  252.75 173.69 219.66  253.23
   3  -1   5 893.248 111.986   1-0.24019 0.62319-0.88001 0.78063 0.40975-0.04746  0 172.25 289.00  149.70 172.13 289.01  149.83
   3  -1   5 914.300  80.621   2-0.00280 0.38538-0.99188 0.89231 0.12716 0.23508  0 168.51 266.33  103.61 168.52 266.29  103.62
   3  -1   5 876.008  84.910   2-0.23783 0.62005 0.55256-0.65204 0.79882-0.43634  0 245.30 385.27  346.70 245.17 385.17  346.71
   3   1  -5 881.103  95.107   1-0.48429 0.86676 0.23968-0.14038-0.84144 0.47857  0 390.32 384.92   33.78 390.52 384.91   33.83
   3   1  -5  1049.0   113.7   2 0.10096 0.28161-0.84642 0.94599-0.52285 0.16061  0 289.40 400.57  143.29 289.43 400.51  143.01
   3   1  -5 803.910  89.432   2-0.08837 0.47072 0.97076-0.87124-0.22321-0.13915  0 172.51 224.26  279.33 172.44 224.26  278.86
   3   1   5  1068.1   123.7   1-0.01460 0.39760-0.77933 0.87871 0.62644-0.26416  0 169.06 266.75  169.06 169.03 266.82  168.73
   3   1   5 894.117  75.230   2-0.13059 0.51308-0.68029 0.77977 0.72122-0.35877  0 169.14 273.57   63.66 169.11 273.42   63.64
   3   1   5 823.309  76.359   2-0.18444 0.56666 0.92305-0.82358 0.33758 0.02490  0 238.27 381.38  312.07 238.26 381.21  312.05
  -3  -1  -6 12493.3   326.4   1-0.42085 0.03793-0.88972 0.79036 0.17685-0.61147  0 490.76 258.78  133.07 490.92 258.75  132.87
  -3  -1  -6 12693.5   247.9   2 0.05794-0.44052-0.97256 0.87299-0.22533-0.20936  0 489.90 262.14  124.08 490.04 262.15  124.25
  -3  -1  -6 11041.3   234.7   2-0.01550-0.36684 0.82073-0.92025-0.57110 0.13627  0 352.14  96.96  256.67 352.11  97.22  256.59
  -3  -1   6 11393.2   216.6   1-0.66805 0.28553-0.66139 0.56205-0.34099 0.77625  0 212.89 133.73   96.97 212.79 133.85   96.90
  -3  -1   6 12290.9   291.3   2-0.00957-0.37300-0.98663 0.88706 0.16269 0.27200  0 289.94  97.16  101.49 290.07  97.39  101.53
  -3  -1   6 11145.9   284.9   2-0.19696-0.18526 0.88317-0.98265 0.42569 0.00928  0 474.01 328.68  317.97 474.11 328.82  317.66
  -3   1  -6 12577.9   321.8   1-0.57011 0.18719-0.81747 0.91683-0.08195-0.35267  0 488.06 229.29  114.91 488.26 229.21  115.20
  -3   1  -6 11540.5   240.7   2 0.11904-0.50157-0.73319 0.83269-0.66952 0.23464  0 489.47 270.10  153.81 489.66 270.12  153.71
  -3   1  -6 10837.8   240.1   2-0.11763-0.26472 0.99081-0.89130-0.06672-0.36812  0 344.86  95.83  288.05 344.85  96.10  288.07
  -3   1   6 12783.5   134.0   1-0.30643-0.07649-0.89235 0.99171 0.33139 0.10323  0 269.39 102.41  143.72 269.85 102.67  143.90
  -3   1   6 12997.1   305.6   2-0.08241-0.30007-0.85072 0.95020 0.51912-0.08419  0 285.04  98.13   78.79 285.22  98.34   79.10
  -3   1   6 11451.2   294.0   2-0.13797-0.24437 0.98921-0.88970 0.04919 0.38564  0 471.35 333.79  295.08 471.43 333.79  294.82
   3  -1  -6 12023.0   133.1   1-0.41299 0.79546 0.35188-0.45119-0.84001 0.40457  0 332.06 421.78   26.13 332.18 421.60   26.21
   3  -1  -6 12912.9   297.3   2 0.04293 0.33965-0.99025 0.89069-0.13250-0.30219  0 307.92 421.25  118.77 307.86 420.99  118.77
   3  -1  -6 11836.8   271.5   2-0.01094 0.39329 0.80652-0.90604-0.59110 0.15627  0 163.35 203.95  255.11 163.34 203.92  255.16
   3  -1   6 11891.8   294.3   1-0.24115 0.62415-0.88025 0.78087 0.40867 0.02608  0 155.73 279.72  149.97 155.68 279.71  149.74
   3  -1   6 12412.0   227.3   2-0.01371 0.39629-0.98282 0.88325 0.18406 0.25063  0 153.81 256.15  100.07 153.77 256.16  100.25
   3  -1   6 11014.5   218.4   2-0.23369 0.61590 0.62478-0.72425 0.74501-0.31004  0 249.74 406.20  341.55 249.60 405.95  341.53
   3   1  -6  9996.6   224.6   1-0.53410 0.91657 0.14846-0.04915-0.83228 0.39684  0 401.53 402.74   39.87 401.85 402.70   39.80
   3   1  -6 11158.9   259.9   2-0.08328 0.46562 0.96484-0.86532-0.24931-0.18552  0 161.82 208.29  277.19 161.81 208.25  277.29
   3   1   6 12974.8   306.3   1-0.03507 0.41807-0.79209 0.89146 0.60940-0.17466  0 154.26 257.11  167.17 154.27 257.13  167.05
   3   1   6 13209.2   227.1   2-0.11724 0.49972-0.73472 0.83419 0.66817-0.23323  0 153.85 262.61   68.03 153.80 262.54   68.07
   3   1   6 11264.9   213.0   2-0.18636 0.56857 0.91777-0.81830 0.35066 0.08432  0 243.16 403.00  312.97 243.04 402.72  312.87
  -3  -1  -7 634.605 113.445   2-0.01893-0.36342 0.83083-0.93034-0.55621 0.04890  0 345.49  73.19  257.58 345.44  73.49  257.64
  -3  -1   7 613.016  89.810   1-0.62579 0.24287-0.75067 0.65131-0.21184 0.71890  0 202.36 118.81  106.20 202.48 118.95  106.25
  -3  -1   7 662.776 143.160   2-0.01707-0.36541-0.97907 0.87959 0.20280 0.30463  0 275.48  79.80   99.36 275.33  79.88   99.12
  -3  -1   7 684.103 148.317   2-0.19770-0.18451 0.88038-0.97986 0.43109 0.07638  0 492.99 353.65  318.50 492.83 353.63  318.02
  -3   1  -7 689.647 125.902   2-0.10513-0.27722 0.98525-0.88574-0.13499-0.37231  0 338.36  72.65  283.61 338.41  73.03  284.07
  -3   1   7 346.179  55.794   1-0.26490-0.11802-0.88566 0.98502 0.38136 0.12570  0 256.40  86.15  147.96 256.19  86.57  147.65
  -3   1   7 735.465 146.394   2-0.08123-0.30125-0.85404 0.95352 0.51382-0.00639  0 270.58  81.05   79.42 270.60  81.22   79.46
  -3   1   7 705.290 157.373   2-0.14732-0.23502 0.98366-0.88414 0.10350 0.40380  0 489.36 358.31  297.68 489.65 358.43  297.99
   3  -1  -7 577.281  68.614   1-0.52385 0.90632 0.16841-0.26772-0.83500 0.32698  0 347.63 443.07   38.52 347.65 443.01   38.51
   3  -1  -7 589.170 139.454   2 0.05020 0.33238-0.98297 0.88340-0.17679-0.33034  0 322.22 442.98  121.36 322.17 443.36  121.37
   3  -1  -7 688.663 110.401   2-0.01391 0.39625 0.81590-0.91541-0.57803 0.07072  0 151.63 187.34  256.12 151.75 187.31  256.10
   3  -1   7 721.915 124.608   1-0.23627 0.61928-0.87902 0.77964 0.41413 0.09307  0 138.08 270.11  150.21 138.05 270.11  150.17
   3  -1   7 639.805  85.048   2-0.02318 0.40566-0.97182 0.87234 0.23457 0.27286  0 137.55 245.86   97.20 137.58 245.77   97.23
   3  -1   7 743.493  93.830   2-0.23069 0.61290 0.66394-0.76341 0.71131-0.20384  0 253.90 429.36  338.59 253.79 429.13  338.56
   3   1  -7 650.191 123.592   1-0.56756 0.95003 0.07917 0.02014-0.81951 0.31150  0 416.48 423.38   44.34 416.45 423.49   44.27
   3   1  -7 773.428 143.616   2 0.09828 0.28430-0.85916 0.95872-0.50219-0.00495  0 316.81 443.46  141.58 316.90 443.16  141.61
   3   1  -7 623.282 106.992   2-0.07761 0.45995 0.95739-0.85787-0.27818-0.22913  0 149.96 191.51  275.55 149.99 191.49  275.55
   3   1   7 701.803 121.092   1-0.04662 0.42962-0.79888 0.89826 0.59968-0.09248  0 138.15 246.65  166.17 138.07 246.95  166.10
   3   1   7 857.430 106.939   2-0.11034 0.49282-0.76051 0.85999 0.63988-0.13245  0 137.18 251.79   70.21 137.25 251.83   70.30
   3   1   7 701.964  93.582   2-0.18941 0.57162 0.90872-0.80925 0.37195 0.13552  0 247.47 426.53  314.31 247.36 426.35  314.21
  -3  -1  -8  5122.6   257.5   2-0.01930-0.36304 0.83192-0.93143-0.55456-0.02521  0 338.83  46.70  257.76 338.88  47.00  257.76
  -3  -1   8  5560.1   194.5   1-0.57621 0.19329-0.81175 0.71238-0.09516 0.67465  0 190.10 101.93  114.16 190.20 102.08  114.31
  -3  -1   8  6235.2   311.6   2-0.02463-0.35785-0.96997 0.87049 0.24199 0.33793  0 259.53  60.24   96.73 259.68  60.48   96.78
  -3   1  -8  5017.7   253.8   2-0.09378-0.28856 0.97629-0.87678-0.19508-0.38470  0 331.82  46.85  280.54 331.90  47.07  280.53
  -3   1   8  6050.9   139.6   1-0.22545-0.15755-0.87612 0.97550 0.42612 0.15354  0 242.02  67.81  151.08 242.17  68.05  151.11
  -3   1   8  5735.1   279.9   2-0.08189-0.30059-0.85218 0.95166 0.51679 0.06312  0 254.98  61.97   79.29 255.01  62.17   79.26
   3  -1  -8  3990.0   152.8   1-0.57686 0.95933 0.05836-0.15767-0.81476 0.23417  0 364.52 468.38   45.70 364.48 468.27   45.60
   3  -1  -8  5852.6   312.7   2 0.05704 0.32554-0.97391 0.87434-0.21965-0.35993  0 338.07 469.65  124.24 338.00 469.35  123.91
   3  -1  -8  5582.1   244.6   2-0.01469 0.39703 0.81828-0.91779-0.57464-0.00514  0 138.59 169.53  256.32 138.64 169.52  256.34
   3  -1   8  5683.5   250.7   1-0.22690 0.60990-0.87652 0.77714 0.42453 0.15513  0 119.26 260.02  150.79 118.90 260.00  150.98
   3  -1   8  5415.7   198.7   2-0.03239 0.41487-0.95902 0.85954 0.28147 0.29844  0 119.94 235.27   94.25 119.62 235.24   94.39
   3  -1   8  5882.6   247.3   2-0.22893 0.61114 0.68399-0.78346 0.69264-0.11268  0 257.45 455.64  336.93 257.67 455.38  336.99
   3   1  -8  4035.1   237.5   1-0.58898 0.97145 0.03026 0.06905-0.80758 0.22699  0 434.19 448.13   47.40 434.36 448.23   47.40
   3   1  -8  5934.0   309.6   2 0.09884 0.28373-0.85655 0.95611-0.50651-0.07307  0 332.60 469.63  141.73 332.50 469.34  141.90
   3   1  -8  5161.6   234.0   2-0.07155 0.45389 0.94840-0.84889-0.30890-0.27088  0 136.64 173.66  273.67 136.67 173.66  273.68
   3   1   8  5738.7   252.0   1-0.05098 0.43398-0.80139 0.90077 0.59596-0.01630  0 120.46 235.98  165.94 120.18 236.05  165.74
   3   1   8  6061.1   203.9   2-0.10747 0.48996-0.77095 0.87043 0.62776-0.04784  0 119.34 241.17   71.15 119.05 241.10   71.24
   3   1   8  5479.8   213.3   2-0.19309 0.57531 0.89689-0.79741 0.39788 0.18209  0 251.27 453.20  315.94 251.18 452.84  315.87
  -3  -1  -9 191.600 161.109   2-0.01766-0.36468 0.82720-0.92671-0.56163-0.09062  0 332.61  16.46  256.65 332.40  16.82  257.26
  -3  -1   9 146.300  99.856   1-0.52353 0.14060-0.85197 0.75260 0.00864 0.64329  0 176.26  82.26  121.60 176.18  82.61  121.36
  -3  -1   9 190.558 143.669   2-0.03224-0.35024-0.95924 0.85976 0.28074 0.37167  0 242.93  38.70   94.56 242.72  38.56   94.44
  -3   1  -9 244.313 165.207   2-0.08317-0.29917 0.96471-0.86519-0.24984-0.40241  0 325.49  16.98  276.67 325.32  17.31  277.26
  -3   1   9 190.652  72.383   1-0.18558-0.19743-0.86363 0.96301 0.46872 0.18339  0 227.60  46.44  154.46 227.75  46.31  154.53
  -3   1   9 201.694 143.845   2-0.08390-0.29858-0.84647 0.94595 0.52579 0.12662  0 238.14  41.20   77.82 238.07  40.66   78.64
   3  -1  -9 120.133 108.870   1-0.60213 0.98460-0.00197-0.09733-0.79840 0.14523  0 382.35 498.98   49.23 382.69 498.77   49.46
   3  -1  -9 188.115 198.587   2 0.06361 0.31897-0.96312 0.86355-0.26146-0.39057  0 356.00 500.48  126.58 355.87 500.14  126.42
   3  -1  -9 214.564 127.057   2-0.01384 0.39618 0.81568-0.91519-0.57834-0.07391  0 123.23 150.05  255.82 123.62 150.15  256.08
   3  -1   9 178.042 113.151   1-0.21397 0.59697-0.87275 0.77338 0.43877 0.21335  0  97.73 249.13  152.37  97.82 249.15  152.11
   3  -1   9 175.870  90.278   2-0.04137 0.42385-0.94441 0.84493 0.32616 0.32625  0  99.48 224.64   91.53  99.47 224.39   91.65
   3  -1   9 195.144 145.156   2-0.22817 0.61038 0.69197-0.79144 0.68492-0.03246  0 260.93 486.09  336.53 261.15 485.60  336.34
   3   1  -9 290.430 168.473   1-0.60178 0.98425-0.00110 0.10041-0.79866 0.14549  0 455.93 478.20   49.36 455.98 478.31   49.41
   3   1  -9   9.689 187.196   2 0.10019 0.28238-0.85017 0.94973-0.51689-0.13514  0 349.69 500.67  142.95 350.03 500.25  142.60
   3   1  -9 200.401 123.252   2-0.06510 0.44744 0.93786-0.83835-0.34085-0.31140  0 122.11 154.44  272.23 121.45 154.32  271.72
   3   1   9 261.904 121.606   1-0.04953 0.43254-0.80056 0.89994 0.59720 0.05492  0 100.62 224.31  166.09 100.24 224.15  165.86
   3   1   9 231.639  92.503   2-0.10716 0.48964-0.77206 0.87154 0.62645 0.02595  0  98.99 230.03   71.37  98.70 230.20   71.34
   3   1   9 167.486 106.049   2-0.19709 0.57930 0.88268-0.78321 0.42665 0.22581  0 254.10 483.29  317.81 254.47 483.14  317.73
  -3  -1  10  1037.5   146.9   1-0.46926 0.08634-0.87717 0.77781 0.10182 0.62255  0 160.16  59.76  127.60 160.24  59.65  127.71
  -3  -1  10 957.110 203.125   2-0.03996-0.34253-0.94686 0.84738 0.31916 0.40574  0 223.93  13.35   92.38 223.98  13.40   92.08
  -3   1  10 929.525 108.073   1-0.14435-0.23865-0.84779 0.94717 0.51030 0.21427  0 213.05  19.51  158.39 212.80  20.26  158.00
  -3   1  10 817.084 203.157   2-0.08692-0.29556-0.83764 0.93712 0.53927 0.18563  0 219.52  16.58   78.05 219.28  15.89   77.70
   3  -1 -10 794.506 168.074   2-0.01180 0.39414 0.80922-0.90873-0.58739-0.13733  0 106.37 128.62  255.45 106.15 128.66  255.43
   3  -1  10 845.709 163.563   1-0.19786 0.58086-0.86776 0.76838 0.45589 0.26868  0  74.16 237.07  153.51  74.17 237.19  153.48
   3  -1  10  1075.3   148.4   2-0.05023 0.43271-0.92794 0.82846 0.36934 0.35556  0  76.51 213.06   89.05  76.45 213.07   88.95
   3   1 -10  1025.1   180.8   2-0.05839 0.44073 0.92569-0.82618-0.37375-0.35098  0 103.94 132.94  269.57 103.78 132.93  269.67
   3   1  10 933.029 173.233   1-0.04328 0.42628-0.79694 0.89632 0.60251 0.12206  0  77.63 210.78  166.34  77.69 210.86  166.37
   3   1  10  1057.3   146.9   2-0.10867 0.49115-0.76671 0.86619 0.63273 0.09216  0  76.12 218.87   71.39  75.54 218.96   70.86
  -3  -1  11 219.677 147.066   1-0.41447 0.03155-0.89078 0.79142 0.18634 0.61046  0 142.05  32.05  133.42 142.13  31.92  133.53
   3  -1 -11  51.426 169.046   2-0.00876 0.39110 0.79957-0.89909-0.60051-0.19669  0  85.58 104.44  253.82  85.45 104.25  254.48
   3  -1  11 367.829 153.311   1-0.17912 0.56212-0.86134 0.76196 0.47541 0.32162  0  46.31 223.33  155.36  47.14 223.70  155.08
   3  -1  11 241.874 133.099   2-0.05902 0.44150-0.90951 0.81003 0.41147 0.38591  0  49.38 201.31   86.36  49.68 201.08   86.27
   3   1 -11 313.037 189.163   2-0.05139 0.43373 0.91184-0.81233-0.40732-0.38988  0  83.03 108.63  268.24  82.87 108.72  267.55
   3   1  11 293.260 165.123   1-0.03295 0.41595-0.79081 0.89019 0.61117 0.18586  0  51.58 195.42  167.42  51.76 195.62  167.22
   3   1  11 357.740 137.497   2-0.11145 0.49393-0.75647 0.85595 0.64446 0.15292  0  49.05 207.19   69.70  48.67 207.17   69.94
  -3  -2   0 25904.0   328.6   1-0.42014 0.03767 0.34150-0.54011-0.84075 0.84075  0 206.20 213.06   26.95 206.16 213.10   26.93
  -3  -2   0 26215.8   218.6   2-0.22356-0.15882-0.03720-0.16168 0.97398-0.97398  0 420.78 232.76   22.96 421.11 232.90   22.83
  -3  -2   0 24502.7   212.5   2 0.12237-0.50490-0.70242 0.50343-0.70116 0.70116  0 360.55 158.07  156.12 360.53 158.22  156.25
  -3   2   0 22627.5   234.0   1-0.62951 0.24659-0.74469 0.94342-0.22172 0.22172  0 359.97 157.51  105.70 360.00 157.63  105.55
  -3   2   0 26340.7   254.2   2-0.22823-0.15414 0.02821 0.17066 0.97320-0.97320  0 344.29 151.61   19.01 344.36 151.77   19.07
  -3   2   0 24484.5   247.0   2 0.04904-0.43151 0.56123-0.36220-0.82620 0.82620  0 423.52 250.91  235.10 423.69 250.95  235.27
   3  -2   0 23992.9   237.4   1-0.20907 0.59207-0.87127 0.67251 0.44405-0.44405  0 245.44 349.41  152.38 245.19 349.30  152.53
   3  -2   0 25338.3   238.3   2-0.12442 0.50690-0.70631 0.50735 0.69689-0.69689  0 253.68 354.76   65.85 253.45 354.60   65.72
   3  -2   0 24739.2   236.2   2 0.13273 0.24979-0.21201 0.01302-0.96821 0.96821  0 196.71 268.48  188.82 196.60 268.35  188.69
   3   2   0 26223.5   201.0   2 0.09184 0.29064 0.29053-0.09149-0.95245 0.95245  0 238.73 344.90  217.92 238.58 344.63  217.91
   3   2   0 22451.0   186.9   2-0.20334 0.58555 0.85728-0.65833 0.47300-0.47300  0 199.65 285.44  320.91 199.64 285.36  320.78
  -3  -2  -1 26240.7   340.7   1-0.33263-0.04984 0.46044-0.65905-0.82302 0.75044  0 200.75 222.65   18.35 200.75 222.70   18.40
  -3  -2  -1 26965.5   348.6   1 0.01937-0.40237-0.75701 0.55825 0.65311-0.72557  0 417.85 215.16  171.63 418.16 215.22  171.51
  -3  -2  -1 27650.2   214.7   2-0.17287-0.20950-0.46478 0.26591 0.86839-0.94096  0 421.47 226.90   48.32 421.88 227.05   48.44
  -3  -2  -1 26908.9   212.0   2 0.13594-0.51847-0.41383 0.21484-0.90015 0.82767  0 366.36 158.90  176.48 366.47 159.04  176.46
  -3  -2   1 25884.3   319.9   1-0.50977 0.12730 0.19463-0.39325-0.83800 0.91058  0 209.40 203.22   36.99 209.38 203.23   36.80
  -3  -2   1 26624.1   245.4   2-0.23994-0.14243 0.31603-0.51490 0.91791-0.84534  0 425.14 243.92    2.07 425.34 244.02    2.18
  -3  -2   1 26614.0   246.5   2 0.09907-0.48165-0.85550 0.65636-0.50824 0.58069  0 351.09 151.90  141.99 351.11 151.98  142.01
  -3   2  -1 23909.4   274.3   1-0.61409 0.23117-0.76803 0.96675-0.18173 0.10929  0 379.44 166.61  108.32 379.43 166.72  108.34
  -3   2  -1 26767.2   250.6   2 0.08969-0.47216 0.30761-0.10857-0.94728 0.87480  0 425.35 246.43  219.00 425.53 246.49  218.95
  -3   2   1 23710.8   196.1   1-0.66232 0.27981-0.67758 0.87626-0.31972 0.39226  0 339.80 148.20   98.52 339.73 148.45   98.47
  -3   2   1 26982.9   274.3   2-0.20229-0.18009-0.25383 0.45270 0.94586-0.87329  0 336.63 147.56   35.24 336.72 147.73   35.45
  -3   2   1 24772.1   263.7   2 0.00829-0.39076 0.74074-0.54170-0.67174 0.74422  0 426.00 259.85  248.80 426.23 259.90  249.09
   3  -2  -1 28215.0   213.9   1-0.05510 0.43810-0.80374 0.60499 0.59242-0.66487  0 262.44 360.96  165.29 262.46 360.86  165.40
   3  -2  -1 27603.6   270.9   2-0.08595 0.46843-0.84048 0.64152 0.53498-0.60747  0 260.26 360.17   77.75 260.37 360.02   78.00
   3  -2  -1 26313.0   261.5   2 0.11297 0.26951 0.09697-0.29600-0.98886 0.91638  0 194.69 260.70  206.59 194.63 260.57  206.54
   3  -2   1 25220.5   278.3   1-0.28001 0.66293-0.88851 0.68979 0.36351-0.29107  0 229.73 338.76  146.07 229.52 338.63  146.30
   3  -2   1 27916.3   243.3   2-0.16807 0.55055-0.49225 0.29329 0.85408-0.78159  0 249.25 354.16   50.09 249.08 354.05   50.23
   3  -2   1 27073.7   239.6   2 0.13347 0.24906-0.52904 0.33005-0.83803 0.91051  0 195.60 272.59  168.99 195.51 272.47  168.95
   3   2  -1 25687.6   324.0   1-0.20828 0.59075 0.59953-0.40092-0.77277 0.70020  0 406.24 321.99    6.94 406.46 321.86    7.33
   3   2  -1 27292.5   235.0   2 0.12889 0.25364-0.12568 0.32467-0.98366 0.91118  0 247.26 352.94  193.80 247.07 352.66  193.73
   3   2  -1 23836.7   220.2   2-0.17944 0.56166 0.93549-0.73655 0.30438-0.37688  0 195.92 275.04  310.01 195.91 274.94  310.00
   3   2   1 25983.6   185.3   2 0.01753 0.36494 0.70477-0.50573-0.70922 0.78170  0 233.13 342.42  246.03 232.99 342.16  246.06
   3   2   1 24730.0   181.4   2-0.23070 0.61291 0.66381-0.46486 0.71143-0.63894  0 199.73 291.40  338.60 199.69 291.30  338.57
  -3  -2  -2  3030.4   141.0   1-0.25498-0.12749 0.55106-0.74968-0.79455 0.64940  0 193.42 232.12   11.32 193.33 232.15   11.38
  -3  -2  -2  3184.3   160.1   1-0.06898-0.31403-0.81144 0.61268 0.58035-0.72526  0 428.66 225.90  164.18 428.81 225.96  164.26
  -3  -2  -2  3189.1    92.2   2-0.10751-0.27497-0.77082 0.57186 0.62792-0.77290  0 428.50 227.67   71.04 428.77 227.78   71.23
  -3  -2  -2  3210.4    93.7   2 0.12349-0.50602-0.03492-0.16407-0.99173 0.84677  0 367.69 152.90  198.97 367.68 153.01  198.97
  -3  -2   2  3186.0   127.0   1-0.59040 0.20793 0.02681-0.22543-0.80666 0.95181  0 210.24 193.02   47.61 210.16 193.07   47.62
  -3  -2   2  3211.0   118.8   2 0.07814-0.46071-0.93043 0.73130-0.35804 0.50294  0 339.80 142.55  132.08 339.82 142.64  132.32
  -3  -2   2  2991.1   118.0   2-0.23871-0.14351 0.53147-0.73041 0.81275-0.66776  0 432.65 258.27  348.07 432.94 258.42  348.16
  -3   2  -2  2818.0   140.2   1-0.60884 0.22592-0.77512 0.97385-0.16881 0.02394  0 399.15 175.60  109.00 399.36 175.68  109.24
  -3   2  -2  2818.6   103.7   2 0.11897-0.50144 0.02552 0.17351-0.99257 0.84762  0 432.02 246.91  202.27 432.22 246.97  202.42
  -3   2  -2  3117.7   110.5   2-0.23421-0.14800 0.61702-0.41807 0.75128-0.89628  0 350.30 145.60  342.06 350.33 145.73  342.10
  -3   2   2  3190.2    48.6   1-0.38115-0.00132 0.39684-0.19823-0.83501 0.98016  0 286.53 141.72   22.74 286.75 141.89   23.03
  -3   2   2  2720.8    45.6   1-0.69302 0.31050-0.35583 0.55452-0.62699 0.77207  0 312.81 139.17   72.91 312.72 139.35   72.72
  -3   2   2  3369.7   131.5   2-0.17468-0.20770-0.45364 0.65252 0.87390-0.72875  0 326.93 140.19   47.76 327.08 140.34   47.72
  -3   2   2  2894.2   124.1   2-0.02613-0.35622 0.85115-0.65212-0.52427 0.66921  0 431.81 272.22  260.45 431.95 272.26  259.85
   3  -2  -2  3322.9   127.5   2-0.05588 0.43836-0.91632 0.71736 0.39653-0.54151  0 269.01 369.23   87.02 269.08 369.07   87.22
   3  -2  -2  2909.7   108.4   2 0.08659 0.29589 0.33095-0.52998-0.93967 0.79471  0 190.32 250.37  220.18 190.31 250.26  220.37
   3  -2   2  3089.8   127.4   1-0.31465 0.69757-0.89321 0.69448 0.32120-0.17633  0 214.44 328.81  142.89 214.31 328.65  143.15
   3  -2   2  3130.5    96.3   2-0.20613 0.58851-0.22056 0.02168 0.95334-0.80820  0 247.67 359.03   33.42 247.49 358.82   33.49
   3  -2   2  3091.7    93.8   2 0.11554 0.26699-0.76202 0.56303-0.63716 0.78212  0 190.98 272.46  151.05 190.89 272.34  151.22
   3   2  -2  2905.1   140.5   1-0.29833 0.68080 0.50171-0.30310-0.81196 0.66681  0 405.13 333.78   15.04 405.38 333.72   15.26
   3   2  -2  3448.0   115.2   2 0.13594 0.24658-0.40124 0.60023-0.90583 0.76087  0 256.90 364.15  177.08 257.06 363.94  177.25
   3   2  -2  2833.2    97.7   2-0.16158 0.54380 0.96839-0.76944 0.19004-0.33503  0 190.17 262.54  303.05 190.14 262.48  303.08
   3   2   2  2846.1    73.7   2-0.05223 0.43457 0.91358-0.71455-0.40329 0.54824  0 231.84 347.71  267.83 231.73 347.49  267.80
  -3  -2  -3 -23.872  57.441   1-0.19050-0.19197 0.61698-0.81559-0.76358 0.54585  0 184.48 241.82    5.55 184.17 241.57    5.81
  -3  -2  -3 -14.969  88.684   1-0.15002-0.23298-0.85015 0.65139 0.50472-0.72209  0 442.68 236.63  157.59 442.47 236.88  157.53
  -3  -2  -3  21.385  42.309   2-0.05668-0.32580-0.91461 0.71565 0.40035-0.61782  0 441.33 233.79   86.97 441.29 233.92   86.98
  -3  -2  -3   5.078  42.267   2 0.09328-0.47576 0.27905-0.47808-0.95574 0.73830  0 365.33 141.26  217.14 365.24 141.26  217.22
  -3  -2   3  52.544  53.993   1-0.65150 0.26899-0.14758-0.05111-0.74415 0.96179  0 208.45 182.46   58.65 208.45 182.46   58.81
  -3  -2   3  11.700  57.763   2 0.06079-0.44336-0.96804 0.76891-0.24332 0.46066  0 327.60 131.31  125.46 327.64 131.34  125.33
  -3  -2   3  -2.828  58.390   2-0.23178-0.15043 0.65049-0.84943 0.72329-0.50580  0 442.71 274.98  339.50 442.80 274.84  339.60
  -3   2  -3  16.347  80.288   1-0.60960 0.22668-0.77412 0.97285-0.17065-0.04666  0 420.64 184.78  108.82 420.50 184.63  109.11
  -3   2  -3  29.455  48.276   2 0.13297-0.51550-0.21551 0.41450-0.96741 0.74997  0 443.67 251.78  188.49 443.55 251.84  188.48
  -3   2  -3  41.123  50.427   2-0.21553-0.16669 0.79354-0.59459 0.56907-0.78656  0 348.83 135.46  327.48 348.90 135.53  327.45
  -3   2   3  28.930  64.870   2-0.15182-0.23066-0.58038 0.77934 0.80007-0.58260  0 315.91 130.58   55.64 316.08 130.61   56.24
  -3   2   3 -23.892  61.009   2-0.05355-0.32879 0.91627-0.71724-0.39696 0.61438  0 440.10 287.03  268.39 440.32 287.18  268.21
   3  -2  -3  -0.988  59.039   2-0.03274 0.41522-0.95849 0.75953 0.28323-0.50070  0 279.04 380.93   94.72 279.02 380.90   94.29
   3  -2  -3 -20.367  42.074   2 0.06257 0.31991 0.48646-0.68550-0.87146 0.65402  0 184.19 238.30  229.68 184.32 238.31  230.21
   3  -2   3 -11.364  49.714   1-0.33044 0.71336-0.89449 0.69576 0.30116-0.08385  0 199.23 318.94  141.62 199.09 319.10  141.69
   3  -2   3  84.282  39.351   2-0.22878 0.61116 0.03878-0.23765 0.97271-0.75499  0 248.41 368.91   18.16 248.28 368.62   18.46
   3  -2   3  24.937  35.587   2 0.08988 0.29270-0.89341 0.69428-0.44015 0.65750  0 183.15 268.70  137.66 183.12 268.60  137.52
   3   2  -3  54.191  76.150   1-0.37832 0.76079 0.40071-0.20209-0.83445 0.61673  0 407.56 346.17   22.56 407.75 346.48   22.76
   3   2  -3  38.861  57.216   2 0.13218 0.25034-0.56106 0.76005-0.81716 0.59972  0 267.74 377.16  166.52 267.87 377.38  166.76
   3   2  -3  15.877  42.914   2-0.14755 0.52989 0.98348-0.78445 0.10484-0.32226  0 183.14 248.99  298.52 183.05 249.00  298.07
   3   2   3  13.185  28.118   2-0.22238 0.60476-0.05203 0.25090 0.97357-0.75586  0 185.44 284.50   24.17 185.53 284.76   23.68
   3   2   3  28.570  30.459   2-0.09430 0.47664 0.97679-0.77776-0.19235 0.40977  0 233.43 359.05  281.11 233.61 359.06  280.69
  -3  -2  -4  2458.4   150.3   1-0.13983-0.24264 0.66364-0.86226-0.73487 0.44457  0 173.45 251.07    1.57 173.44 251.12    1.52
  -3  -2  -4  2604.0   183.0   1-0.22296-0.16004-0.87543 0.67667 0.42886-0.71869  0 459.14 248.21  151.19 459.13 248.31  151.32
  -3  -2  -4  2526.5   115.5   2-0.02261-0.35987-0.97254 0.77358 0.23165-0.52160  0 457.83 243.28   97.20 458.02 243.44   97.41
  -3  -2  -4  2304.6   114.9   2 0.06444-0.44691 0.47576-0.67479-0.87721 0.58730  0 360.89 125.53  229.47 360.84 125.73  229.51
  -3  -2   4  2354.1   124.5   1-0.68748 0.30496-0.31297 0.11428-0.65531 0.94548  0 204.33 171.12   69.78 204.27 171.23   69.77
  -3  -2   4  2452.0   150.3   2 0.04613-0.42871-0.98735 0.78822-0.15171 0.44150  0 314.82 118.37  120.36 314.91 118.54  119.90
  -3  -2   4  2336.7   142.8   2-0.22562-0.15660 0.71694-0.91589 0.65962-0.36963  0 454.37 292.84  334.29 454.61 293.01  334.30
  -3   2  -4  2192.9   164.8   1-0.61399 0.23107-0.76816 0.96689-0.18148-0.10827  0 443.24 193.72  108.31 443.44 193.75  108.36
  -3   2  -4  2626.9   129.7   2 0.13597-0.51850-0.38823 0.58722-0.91148 0.62156  0 458.65 260.07  177.50 458.88 260.05  178.07
  -3   2  -4  2219.7   127.8   2-0.19393-0.18828 0.89403-0.69509 0.40385-0.69383  0 345.51 121.55  316.15 345.55 121.70  316.25
  -3   2   4  2871.3   160.7   2-0.13535-0.24713-0.65946 0.85842 0.73946-0.44950  0 304.09 118.86   62.23 304.21 118.98   62.04
  -3   2   4  2367.0   155.2   2-0.07546-0.30688 0.95426-0.75523-0.28929 0.57918  0 450.86 304.26  274.77 450.95 304.27  274.88
   3  -2  -4  2725.5   153.0   2-0.01472 0.39730-0.98180 0.78266 0.18936-0.47915  0 289.88 395.25  100.00 289.94 395.06   99.94
   3  -2  -4  2655.1   131.8   2 0.04416 0.33831 0.58563-0.78467-0.80937 0.51946  0 176.96 225.27  236.83 176.94 225.21  236.99
   3  -2   4  2366.7   138.2   1-0.33509 0.71801-0.89474 0.69601 0.29521-0.00547  0 183.62 309.89  141.21 183.54 309.82  141.26
   3  -2   4  2438.1   108.5   2-0.23825 0.62063 0.23757-0.43644 0.94170-0.65141  0 250.73 382.41    6.92 250.55 382.19    6.88
   3  -2   4  2435.0   103.8   2 0.06652 0.31606-0.95768 0.75855-0.28004 0.56983  0 173.01 262.43  127.55 172.91 262.41  127.54
   3   2  -4  2218.1   145.1   1-0.44455 0.82702 0.30453-0.10592-0.84240 0.55210  0 413.38 360.62   29.39 413.60 360.57   29.47
   3   2  -4  2451.1   142.8   2 0.12669 0.25584-0.65303 0.85202-0.74666 0.45674  0 279.24 392.99  160.20 279.32 392.75  160.11
   3   2  -4  2178.5   119.9   2-0.13562 0.51796 0.99012-0.79110 0.03551-0.32540  0 174.90 234.90  294.19 174.89 234.87  294.02
   3   2   4  2493.0    95.2   2-0.19611 0.57849-0.30456 0.50344 0.93208-0.64180  0 174.16 276.90   38.34 174.11 276.77   38.47
   3   2   4  2239.5    93.4   2-0.11922 0.50156 0.99118-0.79215-0.05787 0.34775  0 237.05 374.60  288.62 236.88 374.39  288.58
  -3  -2  -5  1607.7   189.5   1-0.28770-0.09522-0.88976 0.69103 0.35434-0.71653  0 478.90 260.51  145.83 479.09 260.48  145.61
  -3  -2  -5  1357.3   124.1   2 0.00078-0.38335-0.99417 0.79504 0.10782-0.47006  0 478.08 254.97  104.75 478.25 254.96  104.76
  -3  -2  -5  1489.2   128.0   2 0.04351-0.42598 0.58888-0.78792-0.80705 0.44466  0 355.56 107.32  237.21 355.55 107.53  237.22
  -3  -2   5  1291.4   116.3   1-0.69831 0.31579-0.45820 0.25952-0.54993 0.91265  0 197.79 159.19   80.00 197.78 159.18   80.06
  -3  -2   5  1490.7   153.4   2 0.03320-0.41578-0.99664 0.79750-0.07493 0.43717  0 301.64 104.05  115.37 301.67 104.35  115.40
  -3  -2   5  1302.3   132.6   2-0.22122-0.16100 0.75433-0.95328 0.61810-0.25562  0 468.31 312.96  331.30 468.47 312.99  331.08
  -3   2  -5  1497.4   156.2   1-0.62063 0.23771-0.75866 0.95739-0.19815-0.16404  0 468.55 203.26  107.17 468.83 203.25  107.20
  -3   2  -5  1235.0   129.0   2 0.13431-0.51684-0.50133 0.70032-0.85477 0.49237  0 477.90 270.74  171.51 477.95 270.78  170.81
  -3   2  -5  1190.2   131.2   2-0.17357-0.20864 0.94819-0.74924 0.26609-0.62857  0 341.06 104.82  307.77 341.00 104.90  307.66
  -3   2   5  1589.1   162.6   2-0.12403-0.25845-0.70789 0.90685 0.69535-0.33290  0 291.42 105.52   65.74 291.59 105.75   65.85
  -3   2   5  1226.6   132.3   2-0.09341-0.28894 0.97594-0.77691-0.19704 0.55940  0 463.51 323.45  280.42 463.76 323.49  280.42
   3  -2  -5  1301.9   118.9   2 0.03091 0.35156 0.64803-0.84707-0.76098 0.39860  0 168.38 211.13  241.63 168.31 211.12  241.59
   3  -2   5  1370.2   134.8   1-0.33242 0.71535-0.89460 0.69587 0.29863 0.06356  0 167.42 300.66  141.46 167.38 300.65  141.51
   3  -2   5  1583.8   102.8   2 0.04647 0.33610-0.98701 0.78788-0.15379 0.51603  0 160.81 254.75  120.19 160.76 254.73  120.02
   3   2  -5  1251.4   156.0   1-0.49604 0.87851 0.21929-0.02068-0.84015 0.47728  0 422.72 376.50   35.24 422.83 376.39   35.18
   3   2  -5 130.688  78.065   2 0.12195 0.26058-0.70663 0.90562-0.69700 0.33460  0 291.13 410.32  155.72 291.43 410.15  155.91
   3   2  -5  1312.3   118.4   2-0.12513 0.50747 0.99183-0.79280-0.02481-0.33755  0 165.72 220.10  290.58 165.66 220.11  290.51
   3   2   5  1566.6    97.5   2-0.17397 0.55635-0.45801 0.65689 0.87176-0.50890  0 161.06 267.91   48.01 161.04 267.78   48.00
   3   2   5  1191.3    96.6   2-0.13591 0.51825 0.99002-0.79099 0.03718 0.32518  0 240.61 392.62  294.20 240.57 392.34  294.12
  -3  -2  -6  8185.3   294.8   1-0.34517-0.03775-0.89517 0.69644 0.28200-0.71662  2 502.61 273.98  140.19 502.82 273.91  140.31
  -3  -2  -6  8006.8   219.4   2 0.01852-0.40110-0.99977 0.80064 0.01039-0.44508  0 502.20 268.32  110.31 502.28 268.35  110.43
  -3  -2  -6  8438.7   227.1   2 0.02969-0.41216 0.65346-0.85250-0.75638 0.32151  0 349.91  86.58  242.06 349.89  86.84  242.00
  -3  -2   6  7719.8   209.5   1-0.68886 0.30635-0.57762 0.37893-0.43799 0.87325  0 189.25 145.98   89.31 189.14 146.04   89.46
  -3  -2   6  8924.2   269.6   2 0.02157-0.40415-0.99974 0.80061-0.00769 0.44237  0 287.76  88.44  111.45 287.89  88.68  111.48
  -3  -2   6  7772.6   270.7   2-0.21835-0.16386 0.77473-0.97368 0.59339-0.15841  0 484.47 335.00  329.14 484.68 335.13  329.23
  -3   2  -6  8033.7   286.2   1-0.62849 0.24556-0.74636 0.94509-0.21898-0.21564  0 497.38 213.35  105.94 497.49 213.36  105.74
  -3   2  -6  8850.3   240.8   2 0.13159-0.51411-0.57281 0.77180-0.80906 0.37418  0 500.65 283.65  165.86 500.89 283.69  165.94
  -3   2  -6  7643.1   231.3   2-0.15545-0.22676 0.97606-0.77711 0.15211-0.58709  0 335.81  85.20  301.18 335.79  85.42  300.84
  -3   2   6  9146.8   284.2   2-0.11664-0.26584-0.73702 0.93598 0.66573-0.23079  0 277.99  90.67   68.22 278.17  90.91   68.26
  -3   2   6  8077.2   280.6   2-0.10858-0.27376 0.98726-0.78823-0.11630 0.55113  0 478.91 345.17  285.24 478.93 345.12  285.16
   3  -2  -6  9263.9   282.7   2 0.01350 0.36908-0.99918 0.80004 0.03829-0.47298  0 314.82 431.08  109.12 314.78 430.81  108.81
   3  -2  -6  8805.7   247.4   2 0.02189 0.36058 0.68698-0.88601-0.72635 0.29148  0 158.48 196.07  244.67 158.41 196.04  244.62
   3  -2   6  7524.3   247.4   1-0.32459 0.70752-0.89410 0.69537 0.30859 0.12603  0 150.37 291.48  142.01 150.36 291.44  142.23
   3  -2   6  8801.4   213.2   2 0.02916 0.35342-0.99824 0.79911-0.05165 0.48633  0 146.96 246.13  113.97 146.89 246.14  114.04
   3  -2   6  8447.4   223.0   2-0.24057 0.62279 0.46236-0.66119 0.85343-0.41828  0 256.90 418.70  352.94 257.09 418.45  352.76
   3   2  -6  6735.3   237.1   1-0.53405 0.91652 0.14857 0.05005-0.83230 0.39685  0 435.24 394.45   39.85 435.46 394.51   39.80
   3   2  -6  8989.7   302.2   2 0.11853 0.26400-0.73779 0.93678-0.66454 0.22966  2 304.50 430.18  153.18 304.33 429.95  153.32
   3   2  -6  7497.4   227.2   2-0.11537 0.49771 0.99015-0.79112-0.07930-0.35554  0 155.25 204.63  287.30 155.27 204.61  287.33
   3   2   6  9445.1   205.8   2-0.15782 0.54030-0.54875 0.74771 0.82096-0.38602  0 146.51 258.47   53.86 146.44 258.41   54.04
   3   2   6  7776.7   195.6   2-0.14877 0.53111 0.98249-0.78346 0.11217 0.32266  0 244.41 413.05  298.55 244.26 412.74  298.50
  -3  -2  -7 984.002 136.545   2 0.02117-0.40364 0.68997-0.88901-0.72352 0.21618  0 344.02  63.44  245.49 344.05  63.51  244.86
  -3  -2   7 847.836 114.370   1-0.66426 0.28175-0.67237 0.47369-0.32660 0.83441  0 178.42 131.34   98.34 178.55 131.50   97.96
  -3  -2   7 949.738 164.137   2 0.01085-0.39343-0.99853 0.79940 0.05307 0.45407  0 273.32  71.14  107.74 273.36  71.29  107.95
  -3  -2   7 727.976 166.894   2-0.21691-0.16530 0.78456-0.98351 0.58088-0.07340  2 503.11 359.76  327.81 503.80 360.05  328.31
  -3   2  -7 842.305 136.040   2-0.13913-0.24321 0.98869-0.78966 0.05597-0.56328  0 330.25  63.03  294.66 330.21  63.14  295.21
  -3   2   7  1021.9   166.9   2-0.11224-0.27024-0.75355 0.95251 0.64773-0.14031  0 263.74  74.35   69.63 263.87  74.25   69.69
  -3   2   7  1019.3   174.3   2-0.12171-0.26064 0.99159-0.79256-0.04398 0.55128  0 496.63 369.45  289.39 497.00 369.69  289.39
   3  -2  -7  1002.9   164.4   2 0.02471 0.35787-0.99936 0.80023-0.02592-0.48122  0 329.13 453.22  112.54 329.04 453.10  112.54
   3  -2  -7 738.871 115.629   2 0.01609 0.36639 0.71052-0.90955-0.70350 0.19615  0 147.12 179.75  246.57 147.09 179.82  246.53
   3  -2   7 963.116 135.402   1-0.31292 0.69584-0.89304 0.69431 0.32336 0.18370  0 132.14 282.03  143.34 132.16 282.02  143.31
   3  -2   7  1055.3   125.2   2 0.01430 0.36828-0.99933 0.80019 0.03378 0.47335  0 131.10 236.91  108.61 131.24 236.90  109.08
   3  -2   7 960.889 137.237   2-0.23919 0.62140 0.51933-0.71828 0.82042-0.31295  0 260.60 441.08  348.67 260.60 441.01  348.99
   3   2  -7 682.837 144.245   1-0.56097 0.94344 0.09369 0.10493-0.82252 0.31450  0 451.47 416.13   42.94 451.59 415.69   43.35
   3   2  -7 998.573 157.205   2 0.11640 0.26613-0.75503 0.95402-0.64527 0.13791  0 318.25 452.93  152.09 318.37 452.74  151.84
   3   2  -7 859.582 119.964   2-0.10606 0.48840 0.98583-0.78680-0.12994-0.37736  0 143.47 188.06  284.36 143.52 188.17  284.36
   3   2   7 906.232 101.238   2-0.14746 0.52994-0.60261 0.80157 0.78430-0.27687  0 130.49 248.64   58.01 130.26 248.62   57.82
   3   2   7 921.310 103.778   2-0.15930 0.54151 0.97145-0.77250 0.17580 0.33167  0 247.76 436.06  302.37 247.85 435.88  302.24
  -3  -2  -8  4010.3   255.0   2 0.01635-0.39883 0.70947-0.90850-0.70455 0.12473  0 338.11  36.70  246.39 338.13  36.98  246.44
  -3  -2   8  3796.9   191.7   1-0.62924 0.24631-0.74514 0.54641-0.22098 0.80048  0 166.11 114.99  105.52 166.24 115.15  105.60
  -3  -2   8  4100.6   293.9   2 0.00054-0.38312-0.99403 0.79490 0.10910 0.47049  0 257.58  51.66  104.68 257.79  51.78  104.68
  -3   2  -8  3760.6   259.7   2-0.12467-0.25767 0.99182-0.79279-0.02743-0.55235  0 324.22  37.25  290.36 324.21  37.57  290.36
  -3   2   8  4133.1   255.1   2-0.11009-0.27239-0.76142 0.96038 0.63884-0.05893  0 248.51  55.20   70.39 248.40  55.44   70.38
   3  -2  -8  4337.5   316.2   2 0.03493 0.34765-0.99576 0.79663-0.08509-0.49449  0 345.10 479.67  116.14 344.99 479.36  115.99
   3  -2  -8  3802.1   220.7   2 0.01283 0.36964 0.72357-0.92260-0.69014 0.11031  0 134.15 162.18  247.63 134.10 162.22  247.62
   3  -2   8  3895.4   229.8   1-0.29816 0.68108-0.89125 0.69252 0.34171 0.23778  0 112.69 272.16  144.66 112.42 272.19  144.66
   3  -2   8  4094.4   193.9   2 0.00070 0.38188-0.99412 0.79499 0.10825 0.47133  0 113.94 226.99  104.71 113.57 227.09  104.73
   3  -2   8  3445.8   234.5   2-0.23772 0.61993 0.55506-0.75401 0.79712-0.21715  0 263.99 467.34  346.52 264.03 467.12  346.54
   3   2  -8  2880.4   269.1   1-0.57910 0.96157 0.05326 0.14536-0.81351 0.23292  0 471.62 440.89   45.79 471.67 440.91   45.93
   3   2  -8  4096.7   299.8   2 0.11540 0.26712-0.76304 0.96203-0.63597 0.05613  0 333.88 479.41  150.83 333.91 479.37  151.13
   3   2  -8  3445.8   208.4   2-0.09705 0.47939 0.97924-0.78021-0.17796-0.40182  0 130.05 170.49  281.55 130.12 170.51  281.54
   3   2   8  4279.5   239.2   1 0.04609 0.33691-0.73813 0.93689 0.67308-0.09342  0 115.03 223.49  173.92 114.77 223.54  173.71
   3   2   8  4109.5   184.9   2-0.14094 0.52342-0.63374 0.83270 0.76060-0.18068  0 112.36 238.69   59.53 112.17 238.55   60.10
   3   2   8  3614.2   195.1   2-0.16836 0.55058 0.95794-0.75899 0.23240 0.34756  0 251.24 462.40  305.70 251.03 462.23  305.63
  -3  -2   9 18450.4   365.7   1-0.58789 0.20497-0.79993 0.60120-0.12043 0.77237  0 151.60  96.10  112.50 151.73  96.26  112.57
  -3  -2   9 20111.5   460.8   2-0.00937-0.37321-0.98678 0.78765 0.16180 0.49023  0 240.97  29.35  101.56 240.82  29.58  101.58
  -3   2  -9 17057.5   456.0   2-0.11130-0.27104 0.98857-0.78955-0.10166-0.55059  2 317.85   7.64  286.15 317.94   7.87  286.02
  -3   2   9 20576.8   472.0   2-0.10970-0.27278-0.76299 0.96195 0.63703 0.01538  0 231.51  33.77   70.55 231.42  33.94   70.53
   3  -2  -9 19423.2   177.1   1-0.20945 0.59192 0.59837-0.79699-0.77336 0.12019  0 268.06 497.93    7.46 268.04 497.62    7.43
   3  -2  -9 19923.9   446.8   2 0.01141 0.37107 0.72901-0.92805-0.68440 0.03210  0 119.34 142.73  247.93 119.05 142.83  248.08
   3  -2   9 19090.5   448.8   1-0.28069 0.66361-0.88863 0.68990 0.36270 0.28923  0  90.90 261.71  146.06  90.64 261.69  146.24
   3  -2   9 20124.9   390.7   2-0.01189 0.39447-0.98450 0.78537 0.17497 0.47706  0  93.82 216.61  100.79  93.43 216.72  100.80
   3  -2   9 18363.7   426.0   2-0.23677 0.61898 0.57558-0.77453 0.78272-0.13026  0 267.17 497.97  344.85 267.24 497.65  345.10
   3   2  -9 13837.9   410.8   1-0.59057 0.97304 0.02640 0.17221-0.80655 0.15338  0 496.14 471.50   47.68 496.36 471.75   47.65
   3   2  -9 17770.8   421.2   2-0.08820 0.47054 0.97057-0.77154-0.22410-0.42815  0 115.04 151.18  278.81 114.68 151.22  278.80
   3   2   9 20580.4   461.1   1 0.04196 0.34104-0.74112 0.93988 0.67006-0.01795  0  95.44 210.83  173.35  95.24 210.88  173.37
   3   2   9 19483.2   372.0   2-0.13741 0.51989-0.64997 0.84893 0.74743-0.09503  0  91.97 228.22   61.09  91.71 228.15   61.32
   3   2   9 18780.0   385.7   2-0.17639 0.55860 0.94230-0.74336 0.28452 0.36794  0 253.96 493.18  308.81 253.76 492.82  308.78
  -3  -2  10 917.676 159.494   1-0.54239 0.15947-0.83971 0.64098-0.02644 0.75081  0 134.88  73.92  118.73 134.98  74.00  118.97
  -3   2  10 713.951 205.899   2-0.11057-0.27192-0.75968 0.95864 0.64083 0.08407  2 212.33   8.95   70.25 212.41   9.02   70.23
   3  -2 -10 807.052 178.702   2 0.01148 0.37099 0.72873-0.92777-0.68470-0.04008  0 101.61 121.05  248.44 101.39 121.11  248.06
   3  -2  10 714.557 174.843   1-0.26100 0.64392-0.88486 0.68613 0.38587 0.33850  0  66.53 250.27  147.57  66.19 250.23  147.99
   3  -2  10 602.318 133.029   2-0.02355 0.40604-0.97135 0.77239 0.23648 0.48841  0  70.09 205.68   96.66  70.26 205.49   97.12
   3   2 -10 651.360 174.771   2-0.07945 0.46179 0.95990-0.76087-0.26885-0.45588  0  96.34 129.73  275.81  96.62 129.75  276.12
   3   2  10 738.852 171.476   1 0.04321 0.33979-0.74021 0.93897 0.67098 0.05359  0  72.66 196.55  173.49  72.96 196.60  173.47
   3   2  10 855.254 135.724   2-0.13616 0.51864-0.65585 0.85481 0.74251-0.01761  0  68.67 217.19   61.79  68.23 217.30   61.76
  -3  -2  11  2145.8   226.0   1-0.49331 0.11038-0.86766 0.66893 0.06173 0.73508  0 115.71  47.21  124.94 115.50  47.10  124.98
   3  -2 -11  1904.2   238.3   2 0.01275 0.36972 0.72387-0.92291-0.68982-0.10744  0  80.65  96.25  247.63  80.31  96.25  247.65
   3  -2  11  1852.0   231.5   1-0.23919 0.62219-0.87976 0.68100 0.41087 0.38616  0  38.53 237.34  150.10  37.97 237.31  149.91
   3  -2  11  2281.2   229.2   2-0.03480 0.41728-0.95530 0.75634 0.29358 0.50381  0  43.48 193.30   93.73  43.04 193.55   93.65
   3   2 -11  1534.5   223.1   2-0.07081 0.45315 0.94724-0.74821-0.31260-0.48459  0  75.39 105.38  273.43  75.11 105.33  273.45
   3   2  11  1850.9   214.9   2-0.13654 0.51902-0.65413 0.85309 0.74396 0.05343  0  40.68 206.00   61.63  40.79 205.83   61.63
  -3  -3   0  17.786  57.723   1-0.48843 0.10596 0.23257-0.53049-0.84104 0.84104  0 187.50 223.22   34.42 187.41 223.50   34.30
  -3  -3   0  -7.929  46.967   2-0.21679-0.16558-0.11634-0.18197 0.96926-0.96926  0 444.69 253.57   27.58 444.68 253.46   27.40
  -3  -3   0  13.793  50.295   2 0.13207-0.51460-0.56361 0.26513-0.81541 0.81541  0 347.81 134.41  166.33 347.71 134.36  166.58
  -3   3   0 -58.444  50.797   1-0.69728 0.31477-0.50046 0.79849-0.51317 0.51317  0 368.62 141.68   83.64 368.48 141.56   83.27
  -3   3   0   9.610  58.190   2-0.23222-0.15016 0.09656 0.20175 0.96786-0.96786  0 327.89 130.45   15.20 327.80 130.62   15.13
  -3   3   0  21.874  57.152   2 0.06425-0.44672 0.47658-0.17803-0.87678 0.87678  0 443.53 275.05  229.43 443.49 275.08  229.56
   3  -3   0   4.543  40.909   1-0.38844 0.77136-0.89397 0.59588 0.22344-0.22344  0 238.21 362.68  136.54 238.16 362.73  136.13
   3  -3   0  12.886  55.872   2-0.15050 0.53298-0.58720 0.28876 0.79533-0.79533  0 267.88 378.07   56.45 267.80 378.18   56.72
   3  -3   0 -13.283  42.246   2 0.13325 0.24928-0.22360-0.07489-0.96553 0.96553  0 182.69 248.82  188.35 182.47 248.61  188.00
   3   3   0  15.427  79.816   1-0.18066 0.56313 0.62640-0.32848-0.75828 0.75828  0 438.06 299.96    4.59 437.98 299.82    4.96
   3   3   0 -23.661  36.366   2 0.09392 0.28856 0.27395 0.02460-0.95715 0.95715  0 249.55 369.68  216.51 249.35 369.80  216.92
   3   3   0  -8.181  33.954   2-0.22866 0.61087 0.68684-0.38842 0.68990-0.68990  0 182.50 267.46  336.54 182.48 267.47  336.76
  -3  -3  -1  2177.7   133.7   1-0.42037 0.03790 0.34117-0.63909-0.84077 0.76820  0 183.53 233.13   27.09 183.60 233.17   26.95
  -3  -3  -1  2126.2   106.7   2-0.18513-0.19725-0.38565 0.08734 0.90388-0.97645  0 446.33 248.56   43.28 446.61 248.69   43.42
  -3  -3  -1  1988.0   107.1   2 0.13571-0.51823-0.35221 0.05373-0.92603 0.85355  0 352.69 133.77  180.16 352.71 133.88  180.28
  -3  -3   1  1841.5   123.9   1-0.55445 0.17198 0.10745-0.40538-0.82525 0.89783  0 189.06 213.76   42.38 189.11 213.69   42.46
  -3  -3   1  2031.5   114.8   2-0.23410-0.14828 0.13137-0.42968 0.96330-0.89072  0 446.64 262.17   13.00 446.82 262.23   13.12
  -3  -3   1  1919.1   112.5   2 0.12024-0.50277-0.72257 0.42408-0.68077 0.75325  0 340.23 130.59  154.73 340.23 130.75  154.60
  -3   3  -1  1878.5   122.9   1-0.68769 0.30518-0.58423 0.88226-0.43099 0.35845  0 388.76 150.52   90.06 389.01 150.66   90.01
  -3   3  -1  2048.3   122.6   2-0.23998-0.14240 0.31853-0.02023 0.91703-0.98960  0 331.81 129.15    1.99 331.93 129.32    2.03
  -3   3  -1  1979.8   119.6   2 0.09196-0.47443 0.28959 0.00897-0.95272 0.88025  0 446.01 271.28  217.84 446.12 271.31  217.86
  -3   3   1  1694.6    82.5   1-0.68889 0.30637-0.32289 0.62091-0.64898 0.72153  0 347.21 132.01   70.49 347.14 132.19   70.45
  -3   3   1  2229.7   131.4   2-0.21725-0.16513-0.11134 0.40965 0.96975-0.89717  0 321.39 128.17   27.01 321.48 128.30   27.11
  -3   3   1  1869.1   123.2   2 0.03402-0.41649 0.63417-0.33561-0.77245 0.84492  0 444.37 282.50  240.53 444.48 282.44  240.55
   3  -3  -1  1254.6    72.5   1-0.32277 0.70569-0.89396 0.59587 0.31089-0.38333  0 256.08 374.94  142.33 256.01 374.81  142.40
   3  -3  -1  2178.1   128.0   2-0.12034 0.50282-0.72267 0.42423 0.68064-0.75313  0 273.62 381.96   66.58 273.66 381.82   67.06
   3  -3  -1  2127.7   109.0   2 0.12133 0.26115-0.00667-0.29188-0.99259 0.92011  0 181.73 242.62  200.71 181.65 242.54  200.57
   3  -3   1  1899.5   101.6   1-0.41439 0.79731-0.89079 0.59270 0.18646-0.11402  0 222.14 351.80  133.46 222.02 351.70  133.54
   3  -3   1  2092.7   118.5   2-0.18034 0.56272-0.41756 0.11926 0.89057-0.81800  0 263.74 378.47   45.31 263.81 378.36   45.42
   3  -3   1  1883.3    96.9   2 0.13551 0.24701-0.44450 0.14602-0.88547 0.95795  0 180.89 252.06  174.44 180.82 251.97  174.52
   3   3  -1  1861.8   152.4   1-0.26110 0.64357 0.54429-0.24637-0.79723 0.72466  0 435.33 311.83   12.12 435.47 311.68   11.92
   3   3  -1  1351.5    95.8   2 0.12024 0.26223 0.00803 0.29052-0.99271 0.92023  0 256.14 375.07  201.23 256.05 374.95  201.42
   3   3  -1  1802.8    91.1   2-0.21302 0.59524 0.80879-0.51037 0.54817-0.62066  0 180.75 260.07  326.62 180.73 260.01  325.94
   3   3   1  1926.4    88.3   2 0.05328 0.32920 0.53890-0.24035-0.84068 0.91316  0 244.84 369.25  233.81 244.73 369.02  233.72
   3   3   1  1807.4    84.6   2-0.23932 0.62154 0.50841-0.21016 0.82719-0.75467  0 181.42 271.86  349.84 181.46 271.82  349.71
  -3  -3  -2  41.949  65.211   1-0.35573-0.02674 0.43091-0.72883-0.82932 0.68417  0 178.04 242.86   21.08 177.84 242.74   20.58
  -3  -3  -2  14.426  88.065   1 0.01268-0.39568-0.76155 0.46341 0.64798-0.79290  0 453.05 238.02  170.44 452.40 238.06  170.96
  -3  -3  -2  33.689  53.062   2-0.14390-0.23858-0.61985 0.32141 0.77141-0.91639  0 453.31 248.23   59.56 453.00 248.26   59.07
  -3  -3  -2 -23.153  49.760   2 0.12837-0.51090-0.11573-0.18275-0.98495 0.83999  0 354.80 128.77  194.64 354.92 128.80  194.31
  -3  -3   2  -2.270  58.457   1-0.61220 0.22969-0.02873-0.26929-0.79018 0.93527  0 188.31 203.17   52.15 188.60 203.58   51.17
  -3  -3   2  57.262  61.129   2-0.24004-0.14234 0.32349-0.62179 0.91528-0.77014  0 452.79 274.26    1.66 452.43 274.22    1.72
  -3  -3   2  51.786  62.553   2 0.10444-0.48701-0.82945 0.53075-0.54873 0.69363  0 330.47 124.17  145.48 330.87 123.78  144.80
  -3   3  -2  25.111  77.072   1-0.67827 0.29575-0.62716 0.92518-0.38292 0.23783  0 410.09 159.78   93.76 409.95 159.60   93.74
  -3   3  -2  34.022  56.929   2 0.11320-0.49568 0.09425 0.20430-0.98909 0.84414  0 453.02 271.06  206.46 452.63 271.23  206.38
  -3   3  -2   6.456  64.210   2-0.23913-0.14309 0.52103-0.22261 0.81936-0.96435  0 333.57 124.29  347.57 333.65 124.28  348.87
  -3   3   2  25.074  26.495   1-0.53186 0.14939 0.15283 0.14510-0.83293 0.97807  0 320.08 122.93   40.11 319.71 122.93   39.52
  -3   3   2  33.016  73.079   2-0.19892-0.18345-0.28210 0.58041 0.93854-0.79339  0 313.51 122.87   36.98 313.37 122.92   37.12
  -3   3   2  -4.491  65.422   2 0.00461-0.38695 0.75406-0.45552-0.65679 0.80173  0 448.50 292.99  251.35 448.61 293.00  250.26
   3  -3  -2  21.642  26.220   1-0.10031 0.48332-0.82761 0.52947 0.55227-0.69719  0 281.12 388.97  161.88 280.91 388.81  161.68
   3  -3  -2  11.448  66.518   2-0.09231 0.47479-0.82131 0.52287 0.56296-0.70794  0 281.15 388.91   76.54 281.19 388.95   76.02
   3  -3  -2 -11.085  44.922   2 0.10480 0.27767 0.17971-0.47826-0.97812 0.83317  0 178.36 234.25  210.70 178.67 234.16  211.35
   3  -3   2  13.246  50.851   1-0.42308 0.80600-0.88932 0.59122 0.17356-0.02869  0 206.30 341.76  132.40 206.47 341.44  132.64
   3  -3   2  -2.814  59.668   2-0.20512 0.58750-0.22954-0.06877 0.95144-0.80630  0 261.81 382.81   33.98 261.69 382.71   34.01
   3  -3   2   0.661  38.249   2 0.12793 0.25460-0.63543 0.33694-0.76149 0.90645  0 176.76 252.48  161.46 176.56 252.51  161.43
   3   3  -2  39.803  89.552   1-0.33453 0.71700 0.45805-0.16013-0.82358 0.67843  0 436.39 323.80   18.34 436.18 324.11   18.58
   3   3  -2  47.588  60.859   2 0.13269 0.24984-0.21084 0.50932-0.96847 0.82351  0 264.45 383.67  188.52 264.31 383.65  188.76
   3   3  -2  21.347  39.517   2-0.19637 0.57858 0.88541-0.58698 0.42130-0.56629  0 176.54 250.05  317.58 176.74 250.21  317.38
   3   3   2  43.239  35.232   2-0.23952 0.62190 0.28497 0.01334 0.92813-0.78299  0 176.88 272.40    4.11 177.16 272.30    4.05
   3   3   2  32.064  36.878   2 0.00732 0.37515 0.74431-0.44576-0.66779 0.81275  0 242.14 373.24  249.70 242.43 373.10  249.40
  -3  -3  -3 870.388 106.196   1-0.29810-0.08437 0.50199-0.79991-0.81188 0.59416  0 170.02 252.22   15.36 170.20 252.38   15.24
  -3  -3  -3 892.185 135.278   1-0.06792-0.31508-0.81087 0.51273 0.58127-0.79864  0 464.26 249.89  164.37 464.46 249.86  164.35
  -3  -3  -3 881.819 104.631   2-0.10316-0.27932-0.78575 0.48731 0.60988-0.82735  0 463.79 251.83   72.50 464.01 251.89   72.59
  -3  -3  -3 879.796  88.063   2 0.11248-0.49496 0.10227-0.40083-0.98838 0.77094  0 354.64 119.29  206.80 354.55 119.34  206.85
  -3  -3   3 770.597 101.180   1-0.65699 0.27448-0.16748-0.13054-0.73506 0.95269  0 185.85 193.03   60.04 185.93 193.05   60.10
  -3  -3   3 910.991 105.011   2 0.08828-0.47086-0.89885 0.60015-0.42927 0.64661  0 320.11 114.37  136.77 320.21 114.41  136.82
  -3  -3   3 941.035 106.452   2-0.24064-0.14158 0.45893-0.75717 0.85527-0.63769  0 460.78 288.78  353.37 460.86 288.94  352.98
  -3   3  -3 864.139 113.834   1-0.67206 0.28955-0.64900 0.94703-0.35656 0.13893  0 432.31 168.00   95.68 432.23 168.39   95.74
  -3   3  -3 810.389  95.248   2 0.12661-0.50914-0.08419 0.38268-0.98837 0.77093  0 463.06 274.65  195.62 463.19 274.69  196.13
  -3   3  -3 959.053 102.762   2-0.22888-0.15334 0.68451-0.38609 0.69214-0.90963  0 333.53 115.29  337.46 333.48 115.43  336.94
  -3   3   3  1082.6   117.5   2-0.18136-0.20102-0.41088 0.70918 0.89347-0.67576  0 303.74 114.91   44.69 303.78 114.95   45.00
  -3   3   3 778.862 102.450   2-0.02208-0.36027 0.83991-0.54137-0.54227 0.75969  0 455.54 306.32  258.62 455.66 306.35  258.61
   3  -3  -3 805.068 101.522   2-0.06760 0.45008-0.88949 0.59105 0.45192-0.66939  0 290.00 399.34   83.60 290.12 399.17   83.64
   3  -3  -3 876.073 103.430   2 0.08745 0.29502 0.32451-0.62307-0.94183 0.72440  0 173.87 223.93  220.34 173.83 223.94  219.97
   3  -3   3 778.716  94.030   1-0.42236 0.80528-0.88945 0.59136 0.17462 0.04269  0 191.01 331.65  132.67 190.90 331.70  132.72
   3  -3   3 745.701  88.635   2-0.22267 0.60504-0.04846-0.24985 0.97369-0.75597  0 261.23 391.22   23.49 261.28 391.06   23.48
   3  -3   3 875.712  91.054   2 0.11329 0.26924-0.77828 0.47980-0.61761 0.83505  0 169.84 250.45  149.76 169.76 250.37  149.75
   3   3  -3 837.648 120.358   1-0.39832 0.78079 0.37297-0.07504-0.83800 0.62027  0 440.06 337.42   24.69 440.24 337.44   24.73
   3   3  -3 976.265 103.998   2 0.13589 0.24664-0.37008 0.66856-0.91901 0.70157  0 273.80 395.31  178.65 273.82 395.25  179.19
   3   3  -3 757.253  90.891   2-0.18068 0.56290 0.93252-0.63410 0.31267-0.53016  0 170.91 238.78  310.60 170.96 238.74  310.51
   3   3   3 982.967  80.401   2-0.23010 0.61248 0.05971 0.23860 0.97133-0.75362  0 170.11 269.80   17.27 169.98 269.70   17.25
   3   3   3 823.221  78.611   2-0.03416 0.41651 0.87228-0.57373-0.48781 0.70523  0 242.28 381.98  262.31 242.24 381.83  262.31
  -3  -3  -4 47524.2   548.3   1-0.24974-0.13273 0.55671-0.85463-0.79228 0.50198  0 160.73 262.17   10.95 160.77 262.17   10.92
  -3  -3  -4 49193.9   563.8   1-0.14390-0.23910-0.84760 0.54947 0.51075-0.80057  0 479.82 262.27  158.01 479.92 262.26  158.04
  -3  -3  -4 46418.1   414.3   2-0.06793-0.31455-0.88869 0.59025 0.45346-0.74342  0 479.11 258.73   83.41 479.36 258.85   83.54
  -3  -3  -4 48952.3   425.8   2 0.09390-0.47638 0.27408-0.57263-0.95711 0.66720  0 352.37 105.82  217.13 352.33 106.05  216.93
  -3  -3   4 40715.0   463.8   1-0.68561 0.30309-0.30111 0.00308-0.66278 0.95296  0 181.11 181.91   68.99 181.08 181.93   68.96
  -3  -3   4 47068.8   484.7   2 0.07311-0.45569-0.94314 0.64445-0.32424 0.61404  0 308.52 102.85  130.02 308.60 103.00  130.23
  -3  -3   4 45587.5   478.3   2-0.23800-0.14421 0.54872-0.84714 0.80142-0.51143  0 471.72 305.79  347.10 471.94 305.96  346.98
  -3   3  -4 40730.6   485.6   1-0.66901 0.28650-0.65850 0.95653-0.34467 0.05449  0 456.38 176.99   96.68 456.48 177.23   96.63
  -3   3  -4 43090.5   431.4   2 0.13346-0.51599-0.23011 0.52860-0.96397 0.67405  0 477.37 281.27  187.63 477.62 281.31  187.62
  -3   3  -4 42141.8   431.1   2-0.21410-0.16811 0.80222-0.50380 0.55732-0.84731  0 331.56 102.92  326.75 331.58 103.18  326.61
  -3   3   4 50548.1   522.1   2-0.16618-0.21630-0.50228 0.80072 0.84859-0.55863  0 292.86 104.61   51.17 293.03 104.84   50.90
  -3   3   4 42624.9   479.0   2-0.04542-0.33693 0.89921-0.60067-0.43515 0.72504  0 465.22 322.33  265.89 465.24 322.28  265.76
   3  -3  -4 48585.9   497.1   2 0.07179 0.31069 0.43058-0.72914-0.89969 0.60978  0 167.44 212.24  226.63 167.39 212.18  226.59
   3  -3   4 38914.0   466.1   1-0.41572 0.79864-0.89061 0.59251 0.18439 0.10536  0 175.05 322.36  133.33 174.99 322.31  133.40
   3  -3   4 44786.2   430.1   2-0.23277 0.61515 0.10682-0.40513 0.96665-0.67636  0 262.18 403.32   14.57 262.23 403.10   14.53
   3  -3   4 46966.2   435.4   2 0.09464 0.28794-0.87476 0.57606-0.47522 0.76501  0 160.74 246.14  139.87 160.67 246.11  139.81
   3   3  -4 39341.3   462.9   1-0.45118 0.83365 0.29412 0.00380-0.84257 0.55228  0 447.46 352.08   29.80 447.66 352.08   30.18
   3   3  -4 47891.7   481.1   2 0.13486 0.24767-0.47976 0.77825-0.86697 0.57705  0 284.30 409.72  171.96 284.37 409.46  172.23
   3   3  -4 42577.4   447.9   2-0.16630 0.54851 0.96130-0.66288 0.21965-0.50963  0 163.69 226.09  304.95 163.69 226.06  304.85
   3   3   4 49055.0   404.6   2-0.21551 0.59789-0.13007 0.42837 0.96780-0.67751  0 160.34 264.82   28.02 160.28 264.68   28.20
   3   3   4 41260.8   371.5   2-0.06728 0.44962 0.94154-0.64300-0.33011 0.62000  0 243.55 394.85  272.27 243.40 394.55  272.38
  -3  -3  -5  4176.8   200.1   1-0.21048-0.17199 0.59734-0.89526-0.77388 0.41101  0 149.61 272.29    7.53 149.64 272.31    7.52
  -3  -3  -5  4312.3   244.4   1-0.21423-0.16878-0.87283 0.57469 0.43849-0.80078  0 498.84 275.70  152.10 499.00 275.69  152.09
  -3  -3  -5  4198.4   183.3   2-0.03934-0.34314-0.94790 0.64946 0.31612-0.67857  0 498.75 268.43   92.12 498.88 268.57   92.27
  -3  -3  -5  3802.6   174.8   2 0.07711-0.45959 0.39708-0.69564-0.91454 0.55215  0 348.87  89.23  224.40 348.85  89.47  224.46
  -3  -3   5  3455.3   168.3   1-0.69780 0.31528-0.42307 0.12505-0.57800 0.94072  0 174.18 169.95   77.37 174.13 170.01   77.49
  -3  -3   5  4039.5   209.7   2 0.05901-0.44159-0.97093 0.67223-0.23199 0.59423  0 296.02  89.62  124.62 296.16  89.72  124.65
  -3  -3   5  3795.7   217.8   2-0.23484-0.14738 0.60793-0.90635 0.75847-0.39599  0 485.31 325.07  343.28 485.51 325.30  342.77
  -3   3  -5  3366.8   225.8   1-0.66852 0.28600-0.65999 0.95802-0.34277-0.01995  0 483.44 186.13   96.89 483.45 186.31   96.77
  -3   3  -5  3903.7   190.8   2 0.13561-0.51814-0.34118 0.63967-0.93016 0.56776  0 495.84 290.66  181.43 496.09 290.73  180.96
  -3   3  -5  3549.6   190.5   2-0.19734-0.18488 0.88177-0.58335 0.42842-0.79090  0 328.32  87.56  318.41 328.40  87.77  317.84
  -3   3   5  4397.7   222.2   2-0.15449-0.22799-0.56658 0.86502 0.80940-0.44695  0 281.09  92.43   55.31 281.22  92.69   55.27
  -3   3   5  3540.7   225.2   2-0.06582-0.31652 0.93910-0.64055-0.33729 0.69965  0 477.37 340.90  271.75 477.41 340.86  271.94
   3  -3  -5  4163.9   215.1   2-0.02804 0.41052-0.96537 0.66693 0.25939-0.62184  0 311.72 428.33   95.74 311.75 428.10   95.73
   3  -3  -5  4010.6   181.6   2 0.05920 0.32327 0.50607-0.80463-0.86046 0.49807  0 159.49 199.13  231.55 159.42 199.10  231.50
   3  -3   5  3540.9   187.0   1-0.40498 0.78790-0.89217 0.59407 0.20006 0.16212  0 158.46 313.16  134.41 158.44 313.10  134.49
   3  -3   5  3856.4   185.2   2-0.23798 0.62035 0.22836-0.52667 0.94404-0.58119  0 264.07 418.71    7.31 264.10 418.49    7.43
   3  -3   5  3764.8   153.7   2 0.07630 0.30628-0.93530 0.63661-0.34552 0.70776  0 149.52 240.19  131.54 149.47 240.17  131.55
   3   3  -5  3604.7   223.3   1-0.49301 0.87548 0.22460 0.07332-0.84053 0.47766  0 458.29 368.43   34.79 458.49 368.47   34.83
   3   3  -5  3616.4   170.5   2-0.15314 0.53536 0.97846-0.68003 0.13846-0.50094  0 155.03 212.36  299.75 155.02 212.29  300.02
   3   3   5  4071.7   147.4   2-0.20001 0.58238-0.27324 0.57155 0.94092-0.57807  0 148.47 258.15   36.61 148.46 258.03   36.59
   3   3   5  3815.2   149.8   2-0.09289 0.47523 0.97543-0.67689-0.19976 0.56212  0 245.56 410.97  280.15 245.40 410.65  280.25
  -3  -3  -6  8072.0   269.6   1-0.18029-0.20218 0.62676-0.92468-0.75807 0.32263  0 136.73 282.98    4.96 136.76 283.00    4.93
  -3  -3  -6  7953.4   248.7   2 0.06346-0.44594 0.48121-0.77976-0.87431 0.43944  0 344.60  69.57  229.84 344.59  69.80  229.86
  -3  -3   6  6544.6   223.5   1-0.69513 0.31262-0.52980 0.23177-0.48591 0.92117  0 165.18 156.96   85.45 165.16 157.02   85.57
  -3  -3   6  7765.2   283.6   2 0.04585-0.42843-0.98763 0.68893-0.14997 0.58466  0 282.74  74.41  119.77 282.89  74.54  119.80
  -3  -3   6  7065.1   292.3   2-0.23213-0.15009 0.64611-0.94453 0.72709-0.29211  2 501.68 347.14  340.25 501.88 347.29  339.93
  -3   3  -6  6861.0   245.8   2-0.18043-0.20179 0.93314-0.63472 0.31096-0.74593  0 324.23  69.07  310.33 324.23  69.28  310.41
  -3   3   6  8026.1   292.8   2-0.14587-0.23661-0.61037 0.90881 0.77857-0.34363  0 268.20  78.27   58.39 268.37  78.54   58.38
  -3   3   6  6914.9   292.9   2-0.08352-0.29882 0.96513-0.66659-0.24807 0.68291  0 492.30 362.29  277.37 492.41 362.30  277.37
   3  -3  -6  8007.4   291.4   2-0.01230 0.39487-0.98412 0.68542 0.17709-0.61178  0 324.48 447.26  100.70 324.47 446.95  100.68
   3  -3  -6  7763.6   256.1   2 0.04955 0.33292 0.55854-0.85710-0.82799 0.39313  0 150.00 184.73  235.18 149.96 184.69  235.08
   3  -3   6  7172.7   253.6   1-0.39106 0.77398-0.89374 0.59565 0.21978 0.21484  0 140.97 303.99  135.94 140.96 303.94  135.87
   3  -3   6  7321.5   248.4   2-0.23998 0.62236 0.31880-0.61710 0.91694-0.48151  0 266.50 437.48    1.59 266.57 437.27    2.01
   3  -3   6  7362.4   215.3   2 0.05882 0.32375-0.97122 0.67252-0.23082 0.66551  0 136.30 232.98  124.62 136.27 232.99  124.58
   3   3  -6  5963.0   259.4   1-0.52488 0.90735 0.16646 0.13147-0.83474 0.39930  0 472.71 387.15   38.67 472.96 387.26   38.64
   3   3  -6  7925.9   282.3   2 0.12998 0.25255-0.60260 0.90109-0.78738 0.35250  0 308.37 446.26  163.87 308.43 445.98  163.82
   3   3  -6  7005.4   237.4   2-0.14096 0.52331 0.98780-0.68925 0.06625-0.50108  0 144.91 197.50  295.78 144.92 197.47  295.81
   3   3   6  7911.3   208.3   2-0.18674 0.56912-0.37439 0.67270 0.90827-0.47284  0 134.68 250.41   42.85 134.65 250.31   42.72
   3   3   6  7061.5   206.9   2-0.11310 0.49544 0.98933-0.69079-0.09181 0.52664  0 247.93 430.19  286.71 247.77 429.91  286.60
  -3  -3  -7  1505.5   174.3   1-0.15825-0.22422 0.64718-0.94510-0.74574 0.23772  0 122.20 294.41    3.33 122.03 294.42    3.07
  -3  -3  -7  1191.5   154.7   2 0.05367-0.43615 0.53677-0.83533-0.84202 0.33468  0 339.95  46.69  233.55 339.84  46.91  233.58
  -3  -3   7  1496.0   168.0   1-0.67996 0.29745-0.62039 0.32236-0.39086 0.89867  0 154.21 142.62   93.14 154.19 142.62   93.14
  -3  -3   7  1072.4   177.2   2 0.03337-0.41595-0.99655 0.69785-0.07594 0.58308  0 268.50  57.24  115.41 268.62  57.28  115.46
  -3   3  -7  1247.3   172.4   2-0.16406-0.21815 0.96481-0.66638 0.20551-0.71298  0 319.52  47.47  303.69 319.42  47.49  304.01
  -3   3   7  1379.5   166.7   2-0.13976-0.24272-0.63921 0.93765 0.75623-0.24880  0 254.40  62.44   60.56 254.37  62.30   60.51
   3  -3  -7  1587.2   201.5   2 0.00193 0.38065-0.99483 0.69613 0.10156-0.60869  0 338.89 469.45  104.82 338.80 469.49  105.13
   3  -3  -7  1131.7   142.3   2 0.04247 0.34000 0.59410-0.89265-0.80327 0.29593  0 138.94 168.87  237.72 138.84 168.86  237.60
   3  -3   7  1068.7   151.3   1-0.37461 0.75754-0.89490 0.59680 0.24254 0.26452  0 122.22 294.79  137.39 122.20 294.64  137.48
   3  -3   7  1364.3   140.9   2 0.04246 0.34012-0.99065 0.69195-0.12968 0.63681  0 121.20 224.73  118.67 121.01 224.79  118.60
   3  -3   7  1365.8   165.6   2-0.24138 0.62360 0.38261-0.68085 0.89182-0.38414  0 269.30 459.85  357.79 269.40 459.54  357.85
   3   3  -7 948.009 182.536   1-0.54827 0.93074 0.12022 0.17771-0.82762 0.31960  0 491.38 409.06   41.70 491.37 409.22   41.63
   3   3  -7  1384.8   183.7   2 0.12801 0.25452-0.63435 0.93284-0.76237 0.25501  0 322.17 469.18  161.43 322.29 469.11  161.51
   3   3  -7  1379.6   150.7   2-0.12951 0.51185 0.99158-0.69303 0.00035-0.50765  0 133.29 181.45  292.27 133.23 181.46  291.97
   3   3   7  1591.2   138.9   2-0.17626 0.55864-0.44365 0.74196 0.87869-0.37069  0 119.16 241.85   47.23 118.83 241.81   47.08
   3   3   7  1252.4   156.4   2-0.12937 0.51171 0.99160-0.69305-0.00046 0.50777  0 250.42 452.63  292.52 250.24 452.51  291.93
  -3  -3  -8  41.714 116.256   1-0.14350-0.23897 0.66041-0.95834-0.73706 0.15647  0 105.53 307.06    1.37 105.19 306.90    1.83
  -3  -3  -8 -36.701 155.883   2 0.04678-0.42925 0.57250-0.87106-0.81857 0.23874  0 334.81  20.32  237.43 334.79  20.22  236.06
  -3  -3   8  23.362 106.623   1-0.65517 0.27225-0.69454 0.39645-0.29727 0.87676  0 141.70 126.78  101.29 141.39 126.45  100.16
  -3  -3   8  62.509 133.649   2 0.02161-0.40419-0.99973 0.70104-0.00794 0.58752  0 253.23  37.61  111.67 253.16  37.53  111.50
  -3   3  -8  19.089 156.735   2-0.14860-0.23374 0.98263-0.68409 0.11116-0.69093  0 314.06  21.88  298.43 314.11  21.98  298.44
  -3   3   8  67.413 136.418   2-0.13588-0.24661-0.65712 0.95556 0.74144-0.16152  0 238.85  43.53   61.96 238.95  43.59   61.86
   3  -3  -8   2.397 193.188   2 0.01467 0.36791-0.99939 0.70069 0.03171-0.61129  0 355.10 496.07  109.49 355.12 496.50  109.20
   3  -3  -8-173.492 109.393   2 0.03766 0.34482 0.61722-0.91577-0.78589 0.20607  0 125.24 151.37  239.45 125.84 151.36  239.28
   3  -3   8   0.731 105.703   1-0.35606 0.73899-0.89531 0.59721 0.26767 0.31183  0 101.52 285.33  140.09 101.74 284.99  139.27
   3  -3   8  77.340  90.168   2 0.02709 0.35549-0.99885 0.70015-0.03962 0.61921  0 102.67 215.79  112.67 103.41 215.73  113.34
   3  -3   8  47.673 156.643   2-0.24110 0.62332 0.42754-0.72578 0.87125-0.29105  0 272.14 486.03  354.64 272.26 485.94  355.01
   3   3  -8  31.859 180.189   2 0.12663 0.25590-0.65384 0.95232-0.74596 0.16612  0 337.85 496.67  160.50 337.85 496.58  160.05
   3   3  -8  59.510 105.687   2-0.11870 0.50104 0.99107-0.69253-0.06077-0.51901  0 119.26 163.92  289.25 119.67 163.99  288.41
   3   3   8  20.095  86.692   2-0.16860 0.55109-0.48909 0.78753 0.85578-0.27587  0 100.90 232.85   50.83 100.80 232.80   50.03
   3   3   8  93.423 109.003   2-0.14326 0.52560 0.98650-0.68796 0.07932 0.50046  0 252.58 478.87  296.54 252.49 478.94  296.58
  -3  -3  -9 143.822 132.728   1-0.13508-0.24739 0.66778-0.96571-0.73200 0.07883  0  85.57 320.92    1.48  85.90 320.78    1.13
  -3  -3   9 -19.871 118.934   1-0.62313 0.24021-0.75488 0.45679-0.20460 0.85653  0 125.99 107.59  107.32 126.07 107.85  106.74
  -3  -3   9 170.891 168.926   2 0.01043-0.39301-0.99841 0.69971 0.05541 0.59662  0 236.14  15.05  107.52 236.12  14.74  107.81
  -3   3   9 -86.135 148.272   2-0.13371-0.24877-0.66675 0.96519 0.73319-0.08079  0 221.77  21.74   61.81 221.78  21.87   62.59
   3  -3  -9  66.215 134.492   2 0.03472 0.34776 0.63096-0.92952-0.77504 0.12274  0 110.05 131.83  239.83 110.57 131.81  240.31
   3  -3   9 128.409 122.579   1-0.33559 0.71852-0.89477 0.59667 0.29456 0.35737  0  78.87 274.76  141.50  79.11 274.77  141.21
   3  -3   9  75.578 104.349   2 0.01294 0.36964-0.99906 0.70036 0.04140 0.61063  0  83.49 205.65  108.88  83.11 205.82  108.63
   3   3  -9  15.744 129.687   2-0.10824 0.49058 0.98708-0.68853-0.11816-0.53409  0 103.94 144.58  284.81 103.85 144.69  285.06
   3   3   9  88.540 106.140   2-0.16338 0.54586-0.51829 0.81673 0.83945-0.18705  0  79.86 223.07   52.00  80.08 223.09   51.97
  -3  -3  10  1387.9   197.0   1-0.58542 0.20250-0.80253 0.50444-0.11500 0.83937  0 108.07  85.68  113.34 108.17  85.93  112.95
   3  -3 -10  1501.7   214.1   2 0.03330 0.34917 0.63742-0.93598-0.76979 0.04502  0  92.82 109.70  240.92  92.42 109.62  240.79
   3  -3  10  1232.5   190.1   1-0.31333 0.69625-0.89308 0.59499 0.32284 0.40152  0  53.40 263.67  143.36  53.52 263.68  143.27
   3   3 -10  1307.3   205.5   2-0.09804 0.48038 0.98008-0.68154-0.17269-0.55203  0  85.44 123.06  282.24  85.11 122.98  281.85
   3   3  10  1425.2   171.6   2-0.16037 0.54286-0.53483 0.83327 0.82960-0.10470  0  56.11 213.01   53.02  55.99 212.75   53.09
  -3  -3  11 108.114 172.968   1-0.54368 0.16076-0.83880 0.54070-0.02890 0.82571  0  86.93  58.90  119.36  87.00  59.42  118.80
   3  -3 -11 276.131 206.931   2 0.03317 0.34931 0.63804-0.93659-0.76929-0.02796  0  70.72  83.84  241.24  70.52  83.90  240.84
   3  -3  11-131.176 156.532   1-0.28941 0.67233-0.89002 0.59193 0.35229 0.44452  0  23.90 251.45  145.37  24.05 251.30  145.45
   3  -3  11 196.145 147.165   2-0.01381 0.39639-0.98272 0.68402 0.18457 0.61236  0  31.12 183.20   99.67  31.27 183.09  100.22
   3   3 -11 173.126 187.333   2-0.08803 0.47037 0.97037-0.67183-0.22501-0.57219  0  62.95  97.92  278.43  62.59  98.03  278.75
   3   3  11 196.873 134.855   2-0.15911 0.54159-0.54174 0.84017 0.82535-0.02797  0  27.15 201.42   53.53  27.53 201.65   53.56
  -3  -4   0  8669.9   243.6   1-0.53987 0.15740 0.13707-0.53430-0.83051 0.83051  0 166.42 233.97   40.53 166.49 233.94   40.54
  -3  -4   0  9115.0   216.5   2-0.21057-0.17181-0.18024-0.21750 0.96082-0.96082  0 472.10 275.80   31.03 472.32 275.95   31.11
  -3  -4   0  8809.2   214.6   2 0.13405-0.51658-0.51168 0.11370-0.84866 0.84866  0 334.95 108.06  169.59 334.94 108.29  170.11
  -3   4   0  8176.7   186.1   1-0.68079 0.29827-0.27254 0.66991-0.67989 0.67989  0 384.94 121.66   67.00 385.18 121.92   67.04
  -3   4   0  9226.0   234.4   2-0.23521-0.14716 0.15655 0.24120 0.95925-0.95925  0 310.95 107.33   11.65 311.06 107.57   11.65
  -3   4   0  8812.7   231.8   2 0.06887-0.45135 0.44896-0.05088-0.89090 0.89090  0 466.63 301.59  227.92 466.72 301.60  227.77
   3  -4   0  7132.0   166.7   1-0.49977 0.88269-0.86468 0.46722 0.05068-0.05068  0 225.13 377.70  124.06 224.99 377.59  124.22
   3  -4   0  9366.0   234.7   2-0.16005 0.54253-0.53662 0.13870 0.82851-0.82851  0 282.37 404.68   52.64 282.44 404.54   53.21
   3  -4   0  9453.0   219.5   2 0.13398 0.24855-0.25405-0.14393-0.95787 0.95787  0 166.95 228.88  185.90 166.93 228.79  186.20
   3   4   0  8865.2   271.4   1-0.21655 0.59902 0.59124-0.19401-0.77688 0.77688  0 470.55 288.34    8.05 470.66 288.31    8.04
   3   4   0  9040.3   209.2   2 0.09126 0.29122 0.29510 0.10297-0.95110 0.95110  0 259.41 397.47  217.99 259.50 397.21  218.19
   3   4   0  8552.0   191.1   2-0.23483 0.61704 0.60810-0.21020 0.75834-0.75834  0 164.16 250.36  342.95 164.18 250.30  342.76
  -3  -4  -1 19059.5   348.9   1-0.48768 0.10521 0.23386-0.63109-0.84112 0.76854  0 163.78 243.80   34.02 163.88 243.76   34.22
  -3  -4  -1 19776.4   292.4   2-0.18657-0.19580-0.37557-0.02218 0.90782-0.98039  0 474.66 271.44   42.84 474.99 271.58   42.80
  -3  -4  -1 18585.2   286.1   2 0.13570-0.51823-0.35114-0.04684-0.92644 0.85396  0 339.59 106.87  180.17 339.61 107.10  180.35
  -3  -4   1 18108.0   336.1   1-0.58900 0.20653 0.03020-0.42743-0.80757 0.88014  0 167.04 224.06   47.34 167.11 224.00   47.41
  -3  -4   1 19083.2   297.6   2-0.22673-0.15564 0.00638-0.40413 0.97394-0.90136  0 473.12 283.50   20.29 473.39 283.65   20.32
  -3  -4   1 17281.2   287.3   2 0.12706-0.50959-0.64828 0.25030-0.75073 0.82321  0 328.36 105.82  160.36 328.41 106.01  160.47
  -3   4  -1 16882.5   277.4   1-0.69601 0.31350-0.39057 0.78794-0.60251 0.52997  0 405.85 130.96   75.01 406.04 131.23   75.16
  -3   4  -1 17531.3   301.6   2-0.24006-0.14232 0.32538 0.07236 0.91460-0.98717  0 314.84 105.53    1.62 314.93 105.75    1.61
  -3   4  -1 17208.4   298.4   2 0.09024-0.47271 0.30337 0.09470-0.94859 0.87611  0 469.82 298.12  218.73 469.98 298.17  218.69
  -3   4   1 15315.5   208.1   1-0.62852 0.24600-0.07426 0.47163-0.77424 0.84679  0 364.29 111.91   54.04 364.31 112.10   54.08
  -3   4   1 20391.1   332.6   2-0.22581-0.15656-0.00554 0.40328 0.97415-0.90158  0 305.31 106.04   20.86 305.43 106.25   21.00
  -3   4   1 18475.8   317.6   2 0.04514-0.42762 0.58075-0.18267-0.81283 0.88531  0 466.71 308.17  236.71 466.81 308.18  236.64
   3  -4  -1 16160.4   205.6   1-0.48533 0.86825-0.87108 0.47363 0.07526-0.14770  0 241.80 390.32  125.92 241.67 390.16  125.90
   3  -4  -1 18931.3   316.6   2-0.13621 0.51869-0.65561 0.25769 0.74271-0.81520  0 287.82 407.50   61.78 287.88 407.32   61.74
   3  -4  -1 19808.4   312.7   2 0.12681 0.25572-0.08760-0.31038-0.98805 0.91557  0 166.75 223.60  196.12 166.72 223.54  195.94
   3  -4   1 14962.5   251.8   1-0.50127 0.88419-0.86395 0.46650 0.04810 0.02434  0 209.44 366.23  123.99 209.33 366.15  124.05
   3  -4   1 18097.4   299.4   2-0.18279 0.56517-0.40126 0.00352 0.89754-0.82497  0 278.43 405.38   44.36 278.50 405.15   44.40
   3  -4   1 19309.0   300.3   2 0.13588 0.24665-0.42206 0.02408-0.89633 0.96881  0 165.01 231.92  176.08 164.96 231.84  175.94
   3   4  -1 17857.1   352.9   1-0.28540 0.66787 0.51669-0.11946-0.80720 0.73463  0 469.57 300.98   14.02 469.67 300.98   14.09
   3   4  -1 19355.9   295.7   2 0.11258 0.26990 0.10124 0.29683-0.98847 0.91599  0 265.36 401.43  206.81 265.50 401.10  206.79
   3   4  -1 16770.7   266.9   2-0.22484 0.60705 0.72393-0.32604 0.65220-0.72470  0 163.30 244.16  333.93 163.31 244.11  333.71
   3   4   1 18836.6   368.6   1-0.14259 0.52506 0.66122-0.26399-0.73652 0.80909  0 474.82 275.90    1.98 474.96 275.83    1.76
   3   4   1 15453.6   249.5   2 0.06229 0.32018 0.48804-0.08996-0.87060 0.94308  0 255.10 397.49  230.11 255.10 397.03  230.31
   3   4   1 17039.3   257.0   2-0.24052 0.62274 0.46491-0.06726 0.85206-0.77953  0 162.70 254.19  352.77 162.72 254.11  352.59
  -3  -4  -2  3899.6   186.5   1-0.43582 0.05335 0.31802-0.71525-0.84198 0.69683  0 159.22 253.63   28.60 159.31 253.60   28.55
  -3  -4  -2  3865.2   164.1   2-0.15646-0.22602-0.55618 0.15826 0.81620-0.96118  0 481.33 270.51   54.51 481.52 270.65   54.55
  -3  -4  -2  4097.0   169.5   2 0.13150-0.51403-0.18059-0.21739-0.97473 0.82977  0 342.29 102.08  190.55 342.27 102.24  190.53
  -3  -4   2  3630.3   176.2   1-0.63144 0.24893-0.08294-0.31443-0.77098 0.91606  0 165.73 213.83   54.63 165.69 213.81   54.64
  -3  -4   2  3874.4   184.1   2-0.23565-0.14672 0.16677-0.56451 0.95742-0.81228  0 477.62 294.29   10.99 477.77 294.39   11.06
  -3  -4   2  4070.4   181.9   2 0.11631-0.49884-0.75575 0.35778-0.64444 0.78940  0 320.13 100.56  151.81 320.24 100.70  151.77
  -3   4  -2  3442.8   174.2   1-0.69828 0.31577-0.46241 0.85978-0.54642 0.40134  0 427.68 139.93   80.33 427.79 140.18   80.38
  -3   4  -2  3781.2   180.6   2 0.10745-0.48992 0.15479 0.24328-0.98209 0.83713  0 476.58 297.84  209.77 476.76 297.89  209.89
  -3   4  -2  4111.6   188.7   2-0.23999-0.14223 0.48504-0.08738 0.84092-0.98597  0 316.83 100.52  351.19 316.93 100.84  351.27
  -3   4   2  3954.4   100.7   1-0.46892 0.08645 0.26557 0.13166-0.84237 0.98752  0 341.24 101.69   32.12 341.17 101.89   32.10
  -3   4   2  4238.5   196.5   2-0.21374-0.16864-0.14866 0.54640 0.96551-0.82037  0 298.11 101.93   29.23 298.21 102.11   29.27
  -3   4   2  3969.1   203.1   2 0.02071-0.40318 0.69188-0.29380-0.72172 0.86668  0 469.96 317.80  245.24 470.07 317.78  245.01
   3  -4  -2  3624.5    99.8   1-0.43734 0.82026-0.88635 0.48889 0.15204-0.29692  0 261.28 404.59  131.15 261.36 404.36  131.16
   3  -4  -2 -17.362  73.488   2-0.11232 0.49480-0.75327 0.35535 0.64805-0.79303  2 294.13 413.65   69.35 294.83 413.43   69.66
   3  -4  -2  4208.0   168.4   2 0.11592 0.26655 0.06316-0.46124-0.99125 0.84629  0 164.57 216.32  204.62 164.51 216.26  204.59
   3  -4   2  2901.1   148.9   1-0.49591 0.87883-0.86648 0.46902 0.05729 0.08758  0 194.00 355.65  124.67 193.93 355.55  124.67
   3  -4   2  3964.8   178.8   2-0.20175 0.58413-0.25836-0.13938 0.94474-0.79960  0 275.99 409.63   35.71 276.04 409.42   35.72
   3  -4   2  3731.4   151.9   2 0.13139 0.25113-0.57664 0.17866-0.80636 0.95132  0 160.90 232.70  165.70 160.78 232.70  165.68
   3   4  -2  3716.9   212.1   1-0.34748 0.72995 0.44157-0.04434-0.82720 0.68206  0 472.00 314.15   19.90 471.98 314.17   19.80
   3   4  -2  3779.9   175.6   2 0.12587 0.25666-0.07214 0.47012-0.98942 0.84446  0 272.81 408.73  196.82 272.85 408.43  196.83
   3   4  -2  3517.8   146.6   2-0.21255 0.59476 0.81148-0.41358 0.54436-0.68935  0 160.33 235.84  325.80 160.33 235.84  325.68
   3   4   2  3808.0   138.4   2-0.23972 0.62210 0.30304 0.09471 0.92234-0.77719  0 158.66 255.17    3.00 158.61 255.14    2.96
   3   4   2  4070.5   146.7   2 0.02915 0.35333 0.65585-0.25778-0.75433 0.89928  0 252.43 401.11  242.07 252.30 400.83  242.18
  -3  -4  -3  1787.2   153.2   1-0.38715 0.00468 0.38862-0.78586-0.83611 0.61839  0 152.78 263.61   23.90 152.85 263.54   23.62
  -3  -4  -3  1993.1   210.4   1-0.01060-0.37240-0.77680 0.37928 0.62966-0.84703  0 493.29 264.06  169.34 493.54 264.14  169.06
  -3  -4  -3  1973.5   151.0   2-0.12495-0.25753-0.70412 0.30620 0.69900-0.91647  0 492.11 273.02   65.40 492.38 273.11   65.54
  -3  -4  -3  1946.8   157.0   2 0.12210-0.50457-0.01743-0.38064-0.99237 0.77493  0 343.02  93.36  200.04 342.99  93.61  199.95
  -3  -4   3  1874.2   154.9   1-0.66465 0.28214-0.19726-0.20011-0.72064 0.93827  0 162.19 203.25   62.19 162.25 203.21   62.04
  -3  -4   3  1966.7   168.0   2-0.23957-0.14280 0.29446-0.69220 0.92515-0.70743  0 485.26 307.81    3.49 485.30 307.92    3.48
  -3  -4   3  1965.1   173.1   2 0.10319-0.48577-0.83569 0.43743-0.53941 0.75676  0 310.64  92.47  144.21 310.66  92.61  144.15
  -3   4  -3  1635.9   171.0   1-0.69695 0.31444-0.50653 0.90390-0.50763 0.29000  0 451.28 148.61   83.84 451.22 148.88   83.74
  -3   4  -3  2076.2   167.0   2 0.11978-0.50225 0.01502 0.38305-0.99269 0.77525  0 487.21 300.65  201.80 487.31 300.76  201.82
  -3   4  -3  1876.6   166.6   2-0.23369-0.14852 0.62472-0.22683 0.74506-0.96254  0 317.36  92.13  341.55 317.33  92.45  341.53
  -3   4   3  2233.6   189.5   2-0.20076-0.18162-0.26671 0.66446 0.94263-0.72492  0 289.42  95.27   36.26 289.54  95.40   36.21
  -3   4   3  1853.8   183.1   2-0.00300-0.37934 0.78056-0.38250-0.62508 0.84249  0 476.26 330.34  252.72 476.11 330.24  252.67
   3  -4  -3  2019.9   149.1   2 0.10364 0.27884 0.19062-0.58869-0.97618 0.75874  0 160.44 207.19  211.76 160.46 207.14  211.99
   3  -4   3  1575.5   141.9   1-0.48623 0.86915-0.87071 0.47325 0.07376 0.14355  0 178.26 345.66  126.21 178.36 345.58  125.79
   3  -4   3  1907.2   159.9   2-0.21645 0.59883-0.12001-0.27774 0.96889-0.75117  0 274.95 417.50   27.67 274.95 417.29   27.61
   3  -4   3  1840.0   127.6   2 0.12201 0.26052-0.70607 0.30809-0.69755 0.91499  0 154.42 231.47  155.84 154.36 231.43  155.95
   3   4  -3  1758.6   218.5   1-0.40108 0.78355 0.36905 0.02818-0.83842 0.62069  0 477.72 328.24   25.17 477.67 328.26   25.01
   3   4  -3  1977.5   164.7   2 0.13281 0.24972-0.21415 0.61213-0.96773 0.75029  0 281.52 419.13  188.57 281.53 418.88  188.56
   3   4  -3  1681.3   122.4   2-0.19917 0.58138 0.87474-0.47685 0.44176-0.65925  0 155.45 225.80  318.78 155.47 225.83  318.71
   3   4   3  1897.0   117.5   2-0.23457 0.61695 0.14132 0.25642 0.96177-0.74406  0 152.20 253.98   12.48 152.12 253.93   12.54
   3   4   3  1661.7   118.4   2-0.00423 0.38657 0.78467-0.38661-0.61990 0.83731  0 251.15 408.77  252.50 251.04 408.52  253.05
  -3  -4  -4  2577.6   176.4   1-0.34395-0.03852 0.44615-0.84338-0.82622 0.53593  0 144.52 273.76   19.44 144.53 273.77   19.46
  -3  -4  -4  2518.0   179.2   2 0.11048-0.49295 0.12370-0.52177-0.98615 0.69624  0 342.22  81.25  207.60 342.18  81.41  208.09
  -3  -4   4  2437.0   164.4   1-0.68673 0.30422-0.30838-0.08899-0.65826 0.94844  0 156.76 191.94   69.36 156.79 192.05   69.46
  -3  -4   4  2464.1   193.6   2 0.08965-0.47223-0.89395 0.49568-0.43911 0.72890  0 300.05  82.07  137.39 299.94  82.31  137.46
  -3  -4   4  2323.0   202.9   2-0.24133-0.14089 0.39144-0.78910 0.88800-0.59789  0 495.59 324.05  357.38 495.82 324.22  357.30
  -3   4  -4  2319.8   211.3   1-0.69483 0.31232-0.53283 0.93020-0.48301 0.19283  0 476.91 157.32   85.76 476.99 157.47   85.81
  -3   4  -4  2390.2   187.1   2 0.12789-0.51042-0.10693 0.50491-0.98601 0.69609  0 501.74 306.61  195.02 501.86 306.64  194.82
  -3   4  -4  2368.7   191.9   2-0.22331-0.15891 0.73787-0.33998 0.63693-0.92691  0 316.31  80.75  332.59 316.32  80.90  332.52
  -3   4   4  2972.7   214.6   2-0.18875-0.19362-0.35975 0.75749 0.91376-0.62347  0 279.40  86.22   41.83 279.57  86.31   41.82
  -3   4   4  2281.1   212.6   2-0.02523-0.35711 0.84870-0.45064-0.52828 0.81817  0 485.32 345.65  259.62 485.14 345.64  259.58
   3  -4  -4  2848.0   213.6   2-0.06860 0.45108-0.88705 0.48913 0.45655-0.74651  0 312.96 435.14   83.30 312.99 435.12   83.33
   3  -4  -4  2850.9   175.2   2 0.09155 0.29092 0.29279-0.69086-0.95178 0.66187  0 154.70 196.44  217.80 154.66 196.38  218.05
   3  -4   4  2083.6   156.0   1-0.47341 0.85633-0.87571 0.47826 0.09490 0.19484  0 162.35 336.10  127.08 162.29 336.04  127.24
   3  -4   4  2621.0   178.9   2-0.22659 0.60897 0.00440-0.40214 0.97398-0.68369  0 275.06 428.88   20.33 275.06 428.73   20.44
   3  -4   4  2824.9   154.5   2 0.10849 0.27409-0.80675 0.40849-0.58085 0.87064  0 145.78 228.30  147.14 145.78 228.29  147.06
   3   4  -4  2015.3   224.3   1-0.44588 0.82835 0.30247 0.09476-0.84244 0.55214  0 486.84 343.68   29.63 486.91 343.70   29.61
   3   4  -4 -41.130  88.788   2 0.13539 0.24714-0.32384 0.72182-0.93637 0.64645  0 291.55 432.45  181.74 291.38 432.33  182.01
   3   4  -4  2161.3   146.7   2-0.18579 0.56800 0.91937-0.52148 0.34675-0.63674  0 148.96 214.31  312.79 148.90 214.31  312.63
   3   4   4  2866.3   138.9   2-0.22583 0.60821-0.00525 0.40300 0.97415-0.68387  0 143.23 250.73   21.33 143.26 250.66   20.99
   3   4   4  2232.9   134.8   2-0.03498 0.41732 0.87433-0.47628-0.48406 0.77395  0 250.99 420.26  262.58 250.89 419.99  262.56
  -3  -4  -5 150.561  90.157   1-0.30705-0.07542 0.49157-0.88880-0.81491 0.45204  0 134.27 284.56   16.46 134.32 284.46   16.05
  -3  -4  -5  54.203 104.199   2 0.09828-0.48075 0.23759-0.63567-0.96638 0.60399  0 339.96  65.80  214.49 340.12  65.73  214.75
  -3  -4   5 103.004  88.584   1-0.69737 0.31485-0.41222 0.01485-0.58631 0.94902  0 149.29 180.46   76.35 149.31 180.09   76.71
  -3  -4   5 -15.863 117.350   2 0.07631-0.45889-0.93527 0.53701-0.34561 0.70785  0 288.09  70.15  130.79 288.18  69.74  131.55
  -3   4  -5  17.189 114.455   2-0.21019-0.17203 0.82444-0.42654 0.52548-0.88796  0 314.10  65.75  323.71 314.05  66.13  324.36
  -3   4   5 121.547 130.551   2-0.17833-0.20405-0.43046 0.82820 0.88482-0.52196  0 268.36  74.91   45.76 268.35  74.97   46.24
  -3   4   5  -1.179 133.458   2-0.04553-0.33681 0.89947-0.50142-0.43460 0.79696  0 497.49 364.11  264.83 497.04 363.99  265.80
   3  -4  -5  76.637 134.750   2-0.04960 0.43208-0.92917 0.53126 0.36630-0.72875  0 324.27 450.92   88.81 324.21 450.75   89.14
   3  -4  -5  91.327  90.086   2 0.08083 0.30165 0.37181-0.76988-0.92478 0.56239  0 147.29 183.87  223.25 147.19 184.03  222.88
   3  -4   5  73.168  96.342   1-0.45820 0.84112-0.88078 0.48332 0.11947 0.24271  0 145.43 326.91  128.55 145.43 326.76  128.92
   3  -4   5  86.612 105.182   2-0.23291 0.61529 0.10946-0.50721 0.96632-0.60346  0 276.29 443.50   14.01 276.05 443.68   14.38
   3  -4   5  -0.732  71.390   2 0.09322 0.28936-0.88062 0.48235-0.46457 0.82681  0 134.70 223.42  139.62 135.02 223.51  139.11
   3   4  -5 100.155 150.083   1-0.48194 0.86441 0.24368 0.15355-0.84164 0.47877  0 499.61 361.14   33.47 499.83 360.98   33.56
   3   4  -5   9.969  75.003   2-0.17262 0.55483 0.95011-0.55222 0.25979-0.62227  0 140.47 201.74  307.43 140.67 201.45  307.28
   3   4   5 103.288  67.284   2-0.21575 0.59812-0.12757 0.52531 0.96808-0.60522  0 132.06 245.68   27.97 132.14 245.71   28.05
   3   4   5  50.932  73.272   2-0.06178 0.44412 0.93202-0.53396-0.35711 0.71947  0 251.71 435.21  270.39 251.54 435.09  270.71
  -3  -4  -6  7010.8   275.7   1-0.27712-0.10535 0.52648-0.92372-0.80375 0.36831  0 122.39 295.88   13.31 122.20 295.80   13.34
  -3  -4  -6  7289.6   280.3   2 0.08745-0.46992 0.32454-0.72261-0.94182 0.50695  0 337.12  46.33  219.98 337.16  46.52  219.98
  -3  -4   6  6271.4   243.9   1-0.69696 0.31445-0.50642 0.10905-0.50773 0.94299  0 139.80 167.14   83.69 139.81 167.09   83.73
  -3  -4   6  7230.0   312.8   2 0.06326-0.44584-0.96376 0.56549-0.25918 0.69387  0 275.25  54.73  126.27 275.34  54.92  126.28
  -3   4  -6  6337.5   289.0   2-0.19572-0.18649 0.88775-0.48985 0.41665-0.85163  0 310.72  47.76  317.05 310.75  48.02  317.08
  -3   4   6  4057.5   260.9   2-0.16977-0.21271-0.48215 0.88007 0.85948-0.42455  0 255.85  61.21   49.62 255.89  61.41   49.57
   3  -4  -6  7196.5   321.1   2-0.03236 0.41484-0.95907 0.56115 0.28132-0.71625  0 337.04 470.03   94.36 337.01 469.95   94.40
   3  -4  -6  7668.1   272.5   2 0.07170 0.31078 0.43114-0.82922-0.89943 0.46456  0 138.02 170.15  226.65 137.97 170.12  226.62
   3  -4   6  5068.7   237.2   1-0.44098 0.82390-0.88548 0.48802 0.14649 0.28813  0 127.63 317.57  130.70 127.49 317.60  130.78
   3  -4   6  6444.2   270.2   2-0.23673 0.61910 0.19368-0.59143 0.95208-0.51665  0 277.74 462.52    9.40 277.72 462.32    9.48
   3  -4   6  6726.7   233.4   2 0.07755 0.30503-0.93202 0.53375-0.35402 0.78871  0 122.54 217.35  131.82 122.13 217.36  132.07
   3   4  -6  7185.0   309.7   2 0.13522 0.24731-0.46537 0.86335-0.87473 0.43985  0 314.71 469.00  173.23 314.72 468.86  173.16
   3   4  -6  6108.1   239.6   2-0.15996 0.54217 0.97059-0.57270 0.17990-0.61487  0 130.72 187.27  302.56 130.75 187.24  302.48
   3   4   6  7156.4   219.8   2-0.20574 0.58812-0.22406 0.62180 0.95261-0.51718  0 119.14 239.57   33.78 118.80 239.48   33.69
  -3  -4  -7  4183.8   242.4   1-0.25383-0.12864 0.55231-0.94954-0.79405 0.28604  0 108.04 308.14   11.30 107.98 308.07   11.28
  -3  -4  -7  4057.0   283.1   2 0.07837-0.46084 0.38866-0.78674-0.91804 0.41070  0 333.49  23.28  223.82 333.52  23.53  223.93
  -3  -4   7  3455.2   218.3   1-0.68669 0.30418-0.58962 0.19225-0.42521 0.93301  0 128.38 152.82   90.32 128.20 152.68   90.47
  -3  -4   7  3802.5   303.8   2 0.05059-0.43316-0.98252 0.58425-0.17917 0.68631  0 261.10  37.58  121.49 261.31  37.55  121.51
  -3   4  -7  3489.0   271.6   2-0.18080-0.20141 0.93223-0.53434 0.31345-0.82092  0 306.42  26.16  310.59 306.54  26.25  310.56
  -3   4   7  4920.8   285.7   2-0.16311-0.21937-0.51981 0.91773 0.83857-0.33114  0 242.12  45.14   52.26 242.00  45.30   52.07
   3  -4  -7  4454.8   340.7   2-0.01681 0.39930-0.97936 0.58144 0.20144-0.70887  0 351.70 493.24   98.80 351.70 493.36   99.20
   3  -4  -7  2998.5   222.0   2 0.06461 0.31786 0.47471-0.87278-0.87777 0.37042  0 126.98 154.49  229.45 126.89 154.51  229.44
   3  -4   7  3562.1   227.0   1-0.42193 0.80485-0.88953 0.49207 0.17526 0.33179  0 108.32 308.33  132.69 108.07 308.36  132.76
   3  -4   7  4146.1   271.0   2-0.23882 0.62120 0.25873-0.65648 0.93596-0.42796  0 279.72 485.26    5.60 279.83 484.99    5.62
   3  -4   7  4018.6   215.3   2 0.06200 0.32057-0.96597 0.56770-0.25112 0.75825  0 107.23 209.98  125.98 106.91 210.03  125.79
   3   4  -7  4297.9   317.8   2 0.13417 0.24836-0.50767 0.90565-0.85104 0.34368  0 328.62 492.83  170.25 328.55 492.83  170.38
   3   4  -7  3424.4   224.4   2-0.14778 0.53013 0.98329-0.58524 0.10626-0.61357  0 119.13 171.55  297.80 118.98 171.57  298.16
   3   4   7  4388.2   206.5   2-0.19709 0.57947-0.29682 0.69457 0.93437-0.42637  0 103.44 232.28   37.96 103.14 232.22   38.01
  -3  -4  -8  1149.8   177.9   1-0.23679-0.14568 0.57044-0.96768-0.78646 0.20587  0  91.67 321.60   10.15  91.42 321.59    9.79
  -3  -4   8 906.877 159.203   1-0.66803 0.28551-0.66145 0.26408-0.34092 0.92127  0 114.26 136.29   97.21 114.32 136.45   96.91
  -3  -4   8  1048.2   192.7   2 0.03828-0.42085-0.99377 0.59550-0.10471 0.68430  0 245.95  17.23  116.82 245.80  17.30  117.14
  -3   4   8  1585.8   211.5   2-0.15834-0.22414-0.54590 0.94382 0.82275-0.24284  0 226.51  26.43   53.74 226.46  26.37   53.85
   3  -4  -8  1059.6   171.9   2 0.05930 0.32318 0.50562-0.90369-0.86072 0.28090  0 113.70 136.82  231.39 113.67 136.91  231.47
   3  -4   8 961.670 166.411   1-0.40122 0.78414-0.89264 0.49519 0.20545 0.37405  0  86.95 298.89  135.11  86.76 298.87  134.87
   3  -4   8  1144.0   149.0   2 0.04684 0.33574-0.98665 0.58838-0.15600 0.73559  0  89.42 201.68  120.34  89.10 201.57  120.15
   3   4  -8  1102.4   172.9   2-0.13595 0.51830 0.99001-0.59195 0.03745-0.61722  0 105.16 154.14  293.81 105.06 154.18  294.13
   3   4   8  1078.3   137.4   2-0.19012 0.57250-0.34981 0.74756 0.91733-0.33675  0  84.86 224.20   40.97  84.88 224.08   41.21
   3   4   8 716.170 163.706   2-0.12092 0.50326 0.99148-0.59342-0.04837 0.62815  2 255.61 503.36  288.60 255.26 503.44  289.14
  -3  -4  -9  8568.4   349.8   1-0.22561-0.15686 0.58205-0.97928-0.78123 0.12806  0  72.45 336.79    8.93  72.11 336.82    8.82
  -3  -4   9  8221.0   342.4   1-0.64247 0.25955-0.72166 0.32421-0.25775 0.90968  0  98.19 117.80  103.25  98.09 117.83  102.99
   3  -4  -9  8795.9   380.4   2 0.05555 0.32693 0.52640-0.92448-0.84842 0.19612  0  98.11 116.85  233.23  97.85 116.92  232.87
   3  -4   9  7663.7   333.9   1-0.37889 0.76181-0.89466 0.49721 0.23668 0.41525  0  63.07 288.97  137.07  62.96 288.90  137.07
   3  -4   9  8511.5   322.5   2 0.03202 0.35056-0.99717 0.59891-0.06798 0.72001  0  68.59 192.03  114.80  68.20 192.03  114.99
   3   4  -9  7431.1   341.2   2-0.12467 0.50701 0.99182-0.59376-0.02744-0.62481  0  88.77 134.68  290.37  88.53 134.68  290.35
   3   4   9  9364.9   307.4   2-0.18491 0.56728-0.38682 0.78457 0.90343-0.25028  0  63.84 215.23   43.49  63.52 215.15   43.49
  -3  -4 -10 167.599 167.735   1-0.21972-0.16275 0.58803-0.98526-0.77843 0.05269  0  49.28 354.44    9.18  49.37 354.39    8.31
  -3  -4  10 226.402 174.853   1-0.61109 0.22817-0.77214 0.37468-0.17427 0.89864  0  78.32  95.60  108.50  78.54  95.80  108.86
   3  -4 -10 -19.385 184.641   2 0.05325 0.32923 0.53905-0.93712-0.84059 0.11581  0  79.62  94.30  232.83  78.81  93.87  233.73
   3  -4  10  64.908 157.018   1-0.35512 0.73804-0.89531 0.49785 0.26891 0.45545  0  35.73 278.34  139.48  35.83 278.15  139.36
   3  -4  10  36.427 133.485   2 0.01794 0.36464-0.99975 0.60148 0.01366 0.71082  0  43.11 181.27  110.46  43.41 181.30  110.24
   3   4 -10 -61.690 171.994   2-0.11361 0.49596 0.98953-0.59148-0.08897-0.63576  0  69.54 112.64  286.76  68.71 112.45  286.77
   3   4  10 121.809 131.775   2-0.18133 0.56371-0.41103 0.80877 0.89341-0.16769  0  38.59 205.47   45.33  38.32 205.37   45.01
  -3  -5   0  25.652  78.265   1-0.58001 0.19754 0.05119-0.54773-0.81300 0.81300  0 142.57 244.76   46.47 143.15 244.71   46.06
  -3  -5   0  10.410  98.285   2-0.20405-0.17833-0.23870-0.25848 0.94941-0.94941  2 503.91 301.07   34.46 505.69 301.28   34.55
  -3  -5   0  -5.394 101.063   2 0.13437-0.51690-0.49913 0.00166-0.85604 0.85604  0 322.04  79.13  170.62 322.07  79.08  170.95
  -3   5   0 -41.454  91.800   1-0.63485 0.25233-0.09325 0.58996-0.76699 0.76699  0 408.56  97.90   55.57 408.50  97.50   55.30
  -3   5   0  13.027 102.724   2-0.23740-0.14497 0.21305 0.28413 0.94776-0.94776  0 293.88  81.24    8.15 293.69  81.83    8.33
  -3   5   0 -44.241 111.141   2 0.06891-0.45138 0.44876 0.04883-0.89099 0.89099  0 494.87 331.76  226.79 494.74 331.70  227.75
   3  -5   0  12.544  63.725   1-0.55915 0.94207-0.82694 0.33011-0.05942 0.05942  0 207.74 394.60  116.54 207.57 394.61  116.73
   3  -5   0  13.589  76.103   2 0.13487 0.24766-0.29210-0.20537-0.94683 0.94683  0 149.62 208.23  184.31 149.34 208.22  183.92
   3   5   0 -12.709  89.650   2 0.08684 0.29563 0.32904 0.16855-0.94032 0.94032  0 269.33 428.34  221.44 269.50 428.46  220.25
   3   5   0 -16.157  66.288   2-0.23667 0.61888 0.57742-0.08005 0.78139-0.78139  0 143.82 232.92  345.41 143.82 233.06  344.97
  -3  -5  -1 13571.8   327.2   1-0.54013 0.15766 0.13655-0.63309-0.83043 0.75785  0 141.28 254.89   40.61 141.43 254.84   40.58
  -3  -5  -1 14297.7   310.3   2 0.13590-0.51843-0.37179-0.12568-0.91831 0.84583  0 326.57  77.11  178.87 326.61  77.38  179.09
  -3  -5   1 13190.5   322.9   1-0.61669 0.23418-0.04084-0.45587-0.78614 0.85869  0 142.83 234.55   52.00 142.91 234.48   51.94
  -3  -5   1 13967.9   349.5   2-0.21918-0.16320-0.09056-0.40663 0.97147-0.89890  2 505.51 308.35   26.21 506.05 308.55   25.90
  -3  -5   1 13546.6   310.1   2 0.12929-0.51182-0.61395 0.11648-0.77868 0.85116  0 315.90  77.44  162.92 315.97  77.64  163.00
  -3   5  -1 12198.0   274.1   1-0.66979 0.28728-0.21851 0.71522-0.70967 0.63713  0 429.74 106.89   63.35 429.88 107.26   63.44
  -3   5  -1 13057.7   316.2   2 0.08661-0.46909 0.33076 0.16683-0.93973 0.86725  0 498.44 328.42  220.32 498.64 328.45  220.36
  -3   5   1 13394.2   236.9   1-0.56433 0.18186 0.08619 0.41035-0.82104 0.89361  0 387.32  87.03   43.83 387.73  87.06   43.82
  -3   5   1 15020.4   339.8   2-0.23137-0.15101 0.08148 0.41571 0.96945-0.89688  0 288.27  80.98   15.99 288.43  81.19   16.00
  -3   5   1 13076.0   333.7   2 0.04937-0.43184 0.55952-0.06193-0.82734 0.89982  0 494.05 337.95  235.11 494.20 337.96  235.15
   3  -5  -1  9917.3   194.3   1-0.56174 0.94467-0.82477 0.32795-0.06481-0.00762  0 223.15 407.92  116.20 223.09 407.80  116.37
   3  -5  -1 15383.0   317.4   2 0.13053 0.25199-0.15811-0.33936-0.97875 0.90627  0 149.51 203.41  191.88 149.52 203.37  191.84
   3  -5   1 10273.3   236.8   1-0.55162 0.93455-0.83290 0.33608-0.04450 0.11693  0 192.55 382.78  117.74 192.50 382.65  117.75
   3  -5   1 -25.598  92.807   2-0.18148 0.56386-0.41004-0.08715 0.89383-0.82126  2 293.80 436.33   45.15 293.87 436.02   44.95
   3  -5   1 13930.0   295.9   2 0.13584 0.24669-0.42690-0.07058-0.89404 0.96652  0 147.21 211.19  175.65 147.13 211.15  175.64
   3   5  -1 13853.7   299.9   2 0.10500 0.27747 0.17784 0.31975-0.97844 0.90596  0 275.18 432.06  211.19 275.25 431.76  211.24
   3   5  -1 11962.2   263.1   2-0.22941 0.61162 0.67880-0.18143 0.69757-0.77007  0 143.43 227.53  337.33 143.44 227.48  337.40
   3   5   1 13343.3   289.1   2 0.06375 0.31873 0.47955 0.01804-0.87520 0.94767  0 264.95 428.99  229.74 265.05 428.62  229.75
   3   5   1 13818.4   273.3   2-0.24059 0.62281 0.46117 0.03590 0.85407-0.78155  0 142.04 236.70  352.90 142.09 236.68  352.84
  -3  -5  -2  1871.4   165.7   1-0.49939 0.11692 0.21334-0.70988-0.83970 0.69455  0 137.64 265.16   35.57 137.75 265.05   35.57
  -3  -5  -2  2033.9   192.1   2 0.13355-0.51608-0.23939-0.25808-0.96170 0.81674  0 329.57  72.14  187.20 329.59  72.37  187.07
  -3  -5   2  1802.5   158.7   1-0.64827 0.26576-0.13641-0.36030-0.74909 0.89418  0 140.57 224.12   58.17 140.77 224.07   58.09
  -3  -5   2  1822.6   188.6   2 0.12141-0.50394-0.71186 0.21438-0.69175 0.83671  0 308.33  73.15  155.43 308.43  73.28  155.48
  -3   5  -2  1644.6   198.6   1-0.68614 0.30363-0.30454 0.80125-0.66066 0.51557  0 452.72 116.15   69.13 452.72 116.31   69.20
  -3   5  -2  1902.1   220.3   2 0.10129-0.48376 0.21157 0.28602-0.97210 0.82714  2 504.99 328.09  213.22 506.03 328.20  213.21
  -3   5  -2  2068.6   201.1   2-0.24023-0.14199 0.47841 0.01867 0.84464-0.98969  0 299.42  74.35  351.71 299.57  74.49  351.71
  -3   5   2  1904.1   126.1   1-0.42360 0.04113 0.33637 0.16017-0.84108 0.98623  0 366.44  75.59   27.31 366.35  75.84   27.28
  -3   5   2  2025.9   206.5   2-0.22339-0.15898-0.03931 0.53650 0.97394-0.82879  0 281.52  77.65   22.98 281.66  77.82   22.95
  -3   5   2  1672.7   177.4   2 0.02864-0.41111 0.65810-0.16051-0.75239 0.89734  0 496.52 347.17  242.40 496.82 347.22  242.36
   3  -5  -2  1455.7    93.9   1-0.55534 0.93826-0.83001 0.33319-0.05182-0.09306  0 240.02 422.82  117.26 239.95 422.67  117.25
   3  -5  -2  2167.4   210.6   2-0.12285 0.50533-0.71266 0.21527 0.69067-0.83564  0 310.15 443.23   66.26 310.07 443.13   66.24
   3  -5  -2  2305.9   170.1   2 0.12337 0.25916-0.03306-0.46441-0.99181 0.84685  0 147.56 196.65  198.78 147.76 196.68  199.08
   3  -5   2  1564.5   146.6   1-0.54084 0.92376-0.84080 0.34397-0.02349 0.16836  0 177.47 371.63  119.27 177.36 371.63  119.17
   3  -5   2 -12.599  97.787   2-0.19724 0.57962-0.29564-0.20154 0.93472-0.78957  0 291.09 440.51   37.79 291.12 440.46   37.94
   3  -5   2  1945.7   153.8   2 0.13248 0.25005-0.55447 0.05699-0.82159 0.96655  0 142.89 212.30  166.74 142.87 212.22  167.21
   3   5  -2  1906.7   193.9   2 0.11805 0.26442 0.03709 0.46050-0.99231 0.84736  0 282.28 438.55  202.72 282.28 438.45  203.09
   3   5  -2  1612.7   137.1   2-0.22003 0.60224 0.76296-0.26559 0.60785-0.75284  0 141.00 220.10  330.31 141.03 220.05  330.30
   3   5   2  1857.2   174.0   2 0.03772 0.34475 0.61692-0.11933-0.78612 0.93108  0 261.89 432.55  239.18 261.85 432.42  239.26
  -3  -5  -3  89.553  91.622   1-0.45981 0.07734 0.28034-0.77688-0.84261 0.62489  0 131.90 275.52   31.40 132.14 275.52   31.11
  -3  -5  -3  19.882 107.357   2 0.12811-0.51064-0.11108-0.38639-0.98552 0.76808  0 330.97  64.10  194.47 331.03  63.87  194.58
  -3  -5   3 -97.304  74.503   1-0.67295 0.29044-0.23272-0.26399-0.70213 0.91976  0 136.48 213.35   64.56 136.65 213.26   64.38
  -3  -5   3  50.608 119.172   2 0.11085-0.49343-0.79115 0.29332-0.60149 0.81884  0 299.46  66.36  149.32 299.50  66.05  148.55
  -3   5  -3 -21.529 139.952   1-0.69379 0.31128-0.36339 0.86010-0.62177 0.40414  0 477.87 124.50   74.23 477.69 124.95   73.25
  -3   5  -3 -64.388 116.130   2-0.23548-0.14673 0.59736-0.09999 0.76662-0.98411  0 300.04  66.65  343.65 300.33  66.11  343.54
  -3   5   3  11.036 128.973   2-0.21415-0.16822-0.14444 0.64162 0.96606-0.74835  0 273.74  72.19   29.15 273.51  71.89   29.03
  -3   5   3 -51.972 138.974   2 0.00789-0.39037 0.74220-0.24460-0.67014 0.88757  2 502.19 359.25  249.59 502.72 359.55  249.22
   3  -5  -3  31.201  53.125   1-0.52558 0.90850-0.85073 0.35391 0.00490-0.22221  0 260.79 440.19  121.36 260.72 439.94  121.11
   3  -5  -3  86.930 127.309   2-0.10258 0.48506-0.78774 0.29034 0.60740-0.82487  0 317.96 452.05   72.46 318.31 452.11   72.78
   3  -5  -3 138.052  85.722   2 0.11468 0.26780 0.07761-0.57520-0.99037 0.77293  0 143.72 188.31  205.75 144.12 188.18  205.42
   3  -5   3  19.143  90.432   1-0.52754 0.91046-0.84953 0.35271 0.00130 0.21601  0 161.71 361.06  120.15 161.80 361.32  120.86
   3  -5   3  96.167 111.305   2-0.21012 0.59250-0.18447-0.31271 0.96011-0.74240  0 289.87 448.28   31.47 289.56 448.39   31.36
   3  -5   3 -57.341  74.865   2 0.12550 0.25703-0.66759 0.17012-0.73387 0.95131  0 136.25 211.36  159.34 136.50 211.44  158.99
   3   5  -3 -60.732 107.052   2 0.12672 0.25581-0.08604 0.58351-0.98820 0.77076  0 290.74 448.29  196.50 290.48 448.45  196.03
   3   5  -3 -25.931  73.277   2-0.20913 0.59134 0.82995-0.33258 0.51716-0.73465  0 136.81 210.92  323.62 136.70 210.93  323.78
   3   5   3 -34.760  60.998   2-0.23732 0.61970 0.21054 0.28664 0.94834-0.73063  0 131.92 237.29    8.72 131.69 237.59    8.48
   3   5   3  -3.855  98.070   2 0.01045 0.37202 0.73264-0.23505-0.68054 0.89797  0 259.68 439.77  248.46 259.79 439.86  248.39
  -3  -5  -4 12273.6   334.8   1-0.42307 0.04060 0.33715-0.83369-0.84104 0.55074  0 124.76 286.41   26.97 124.60 286.35   27.23
  -3  -5  -4 12353.7   321.9   2 0.12043-0.50290 0.00557-0.50316-0.99271 0.70280  0 331.16  51.59  201.26 331.10  51.85  201.27
  -3  -5   4 10258.5   301.4   1-0.68945 0.30694-0.32703-0.16968-0.64631 0.93648  0 130.44 201.99   70.79 130.53 201.93   70.73
  -3  -5   4 11564.8   343.5   2 0.09940-0.48197-0.85396 0.35613-0.51075 0.80054  0 289.35  56.27  141.78 289.38  56.37  142.18
  -3   5  -4 11538.2   334.7   2-0.22736-0.15485 0.70004-0.20267 0.67694-0.96693  0 299.76  54.37  335.73 299.86  54.60  335.69
  -3   5   4 13321.2   374.9   2-0.20481-0.17757-0.23230 0.72948 0.95084-0.66055  0 263.80  63.28   34.17 263.96  63.45   34.17
   3  -5  -4 12933.4   377.2   2-0.08313 0.46561-0.84869 0.35129 0.52232-0.81228  0 328.07 464.68   78.81 328.04 464.52   78.88
   3  -5  -4 13762.8   337.5   2 0.10565 0.27682 0.17164-0.66923-0.97948 0.68957  0 138.69 177.99  210.89 138.70 177.97  210.88
   3  -5   4  9783.7   285.4   1-0.51218 0.89510-0.85839 0.36157 0.02887 0.26088  0 145.57 351.63  122.73 145.57 351.54  122.74
   3  -5   4  7370.0   272.5   2-0.21993 0.60231-0.08197-0.41522 0.97207-0.68178  0 288.89 460.25   25.39 289.04 459.88   25.41
   3  -5   4 11219.6   290.0   2 0.11548 0.26705-0.76250 0.26502-0.63660 0.92652  0 128.19 209.01  151.08 127.99 208.93  151.17
   3   5  -4 11187.3   292.0   2-0.19736 0.57958 0.88166-0.38429 0.42863-0.71862  0 130.47 200.18  317.91 130.51 200.20  317.86
   3   5   4 12286.1   274.4   2-0.23205 0.61443 0.09355 0.40363 0.96819-0.67791  0 123.43 235.46   15.09 123.07 235.38   15.30
   3   5   4 11192.1   294.0   2-0.01634 0.39868 0.82327-0.32570-0.56742 0.85731  0 258.52 451.32  256.92 258.74 450.96  256.86
  -3  -5  -5  5263.8   250.3   1-0.39045 0.00798 0.38404-0.88058-0.83670 0.47383  0 115.23 297.79   24.11 115.05 297.76   23.95
  -3  -5  -5  5410.4   284.6   2 0.11218-0.49465 0.10561-0.60320-0.98806 0.62567  0 330.03  36.07  207.21 330.10  36.22  207.04
  -3  -5   5  4692.5   250.1   1-0.69757 0.31506-0.41659-0.08012-0.58297 0.94568  0 122.59 189.87   76.96 122.35 189.79   77.03
  -3  -5   5  5108.7   298.2   2 0.08733-0.46991-0.90218 0.40435-0.42242 0.78466  0 278.02  43.84  136.33 278.02  44.18  136.38
  -3   5  -5  5103.6   290.1   2-0.21693-0.16528 0.78441-0.28704 0.58107-0.94355  0 298.12  39.50  328.35 298.16  39.77  328.32
  -3   5   5  5551.4   272.6   2-0.19626-0.18612-0.30341 0.80059 0.93243-0.56957  0 253.22  52.43   38.37 253.04  52.54   38.40
   3  -5  -5  5516.1   315.3   2-0.06462 0.44710-0.89666 0.39926 0.43798-0.80043  0 339.50 480.64   84.49 339.44 480.56   84.55
   3  -5  -5  5336.1   246.4   2 0.09698 0.28550 0.24866-0.74625-0.96372 0.60134  0 131.35 166.03  215.43 131.40 166.04  215.40
   3  -5   5  3781.3   224.0   1-0.49512 0.87804-0.86685 0.37002 0.05865 0.30354  0 128.53 342.11  124.83 128.32 342.15  124.77
   3  -5   5 675.783 150.817   2-0.22687 0.60924 0.00825-0.50543 0.97389-0.61103  0 289.32 475.34   20.02 289.44 475.19   20.22
   3  -5   5  5005.1   226.9   2 0.10268 0.27990-0.83835 0.34052-0.53537 0.89761  0 117.72 204.90  143.82 117.28 204.93  143.87
   3   5  -5  5629.2   307.9   2 0.13439 0.24814-0.27007 0.76755-0.95342 0.59102  0 310.83 478.95  185.26 310.79 478.66  185.24
   3   5  -5  4574.6   223.9   2-0.18535 0.56756 0.92059-0.42322 0.34375-0.70623  0 122.72 188.00  312.52 122.47 187.95  312.44
   3   5   5  5280.0   209.6   2-0.22552 0.60790-0.00950 0.50668 0.97419-0.61133  0 112.46 231.66   21.05 112.15 231.64   21.23
   3   5   5  4408.7   235.0   2-0.04152 0.42386 0.89009-0.39252-0.45389 0.81625  0 258.25 466.22  264.52 258.33 465.90  264.54
  -3  -5  -6  6148.3   281.6   1-0.36276-0.01971 0.42168-0.91822-0.83101 0.39557  0 103.56 310.06   21.07 103.42 310.01   21.25
  -3  -5  -6  5960.3   317.6   2 0.10394-0.48641 0.18786-0.68545-0.97668 0.54182  0 328.07  16.64  212.01 328.16  16.70  211.82
  -3  -5   6  5384.0   259.8   1-0.69733 0.31481-0.49966 0.00295-0.51389 0.94915  0 112.33 176.66   83.07 112.07 176.59   83.21
  -3  -5   6  6055.9   361.1   2 0.07511-0.45769-0.93826 0.44043-0.33768 0.77236  0 265.33  29.10  131.16 265.40  29.28  131.06
  -3   5  -6  5118.3   309.6   2-0.20471-0.17751 0.85115-0.35379 0.48335-0.91833  0 295.41  20.85  321.50 295.38  21.31  321.47
  -3   5   6  6686.5   313.9   2-0.18881-0.19356-0.35931 0.85649 0.91392-0.47849  0 240.74  38.91   41.98 240.62  39.01   41.80
   3  -5  -6  6260.9   379.4   2-0.04740 0.42988-0.93340 0.43600 0.35570-0.79064  0 352.69 500.98   90.17 352.67 500.75   89.81
   3  -5  -6  6473.1   286.3   2 0.08937 0.29311 0.31007-0.80766-0.94650 0.51164  0 122.45 152.20  219.03 122.21 152.29  219.10
   3  -5   6  4846.0   256.7   1-0.47644 0.85936-0.87459 0.37777 0.08996 0.34466  0 109.97 332.96  127.14 109.75 332.96  126.90
   3  -5   6  63.026 145.771   2-0.23154 0.61392 0.08440-0.58159 0.96916-0.53373  0 290.50 494.80   15.59 290.51 494.54   15.83
   3  -5   6  6246.3   257.2   2 0.08897 0.29361-0.89643 0.39860-0.43417 0.86886  0 104.50 199.46  137.08 104.27 199.47  137.14
   3   5  -6  5545.6   341.7   2 0.13553 0.24699-0.33380 0.83128-0.93285 0.49797  0 323.17 499.68  181.29 323.07 499.56  181.41
   3   5  -6  5394.6   253.4   2-0.17315 0.55537 0.94906-0.45169 0.26327-0.69824  0 112.74 174.10  307.56 112.48 174.11  307.49
   3   5   6  6347.0   237.9   2-0.21871 0.60108-0.09594 0.59312 0.97106-0.53563  0  99.13 226.66   26.00  98.84 226.55   26.21
   3   5   6  5533.0   275.1   2-0.06429 0.44663 0.93645-0.43888-0.34485 0.77968  0 258.27 485.15  271.42 258.36 484.83  271.47
  -3  -5  -7 11187.8   366.6   1-0.34023-0.04224 0.45089-0.94742-0.82520 0.31718  0  89.52 323.49   19.05  89.43 323.42   19.11
  -3  -5   7  9579.2   335.6   1-0.68930 0.30679-0.57498 0.07827-0.44075 0.94855  0  99.81 161.98   89.13  99.48 161.96   89.24
  -3  -5   7 10646.4   390.1   2 0.06292-0.44550-0.96437 0.46653-0.25699 0.76412  0 251.53  11.38  126.01 251.33  11.41  126.15
  -3   5   7 11572.5   397.3   2-0.18267-0.19970-0.40206 0.89924 0.89721-0.38921  0 226.72  22.61   44.43 226.53  22.65   44.45
   3  -5  -7 10530.9   370.2   2 0.08292 0.29955 0.35769-0.85528-0.93015 0.42281  0 111.15 136.51  222.23 110.88 136.54  222.01
   3  -5   7  9192.0   337.9   1-0.45628 0.83920-0.88136 0.38454 0.12251 0.38455  0  89.60 323.88  129.17  89.44 323.79  129.13
   3  -5   7 11031.4   333.5   2 0.07485 0.30773-0.93891 0.44108-0.33593 0.84306  0  89.07 192.67  130.84  88.66 192.68  130.95
   3   5  -7 10007.9   345.9   2-0.16110 0.54331 0.96906-0.47169 0.18702-0.69449  0 100.68 158.59  302.88 100.33 158.56  302.90
   3   5   7 11438.4   317.3   2-0.21203 0.59441-0.16582 0.66300 0.96309-0.45509  0  83.23 220.41   30.04  82.86 220.29   30.27
  -3  -5  -8  1763.7   215.6   1-0.32284-0.05963 0.47253-0.96907-0.82005 0.23946  0  72.93 338.56   17.49  72.81 338.38   17.49
  -3  -5   8  1472.5   207.2   1-0.67412 0.29161-0.64209 0.14538-0.36508 0.94543  0  84.40 145.60   94.97  84.35 145.44   95.10
   3  -5  -8  1482.1   209.0   2 0.07765 0.30483 0.39350-0.89109-0.91604 0.33622  0  97.19 118.50  223.83  97.08 118.49  224.24
   3  -5   8  1470.4   201.3   1-0.43469 0.81761-0.88696 0.39013 0.15605 0.42344  0  66.87 314.60  131.45  66.91 314.46  131.44
   3  -5   8  1368.8   178.0   2 0.06057 0.32201-0.96840 0.47057-0.24192 0.82151  0  70.56 184.67  125.35  70.12 184.60  125.24
   3   5  -8  1465.7   199.1   2-0.14923 0.53158 0.98210-0.48452 0.11496-0.69474  0  86.26 141.01  298.70  85.71 140.99  298.67
   3   5   8  1436.0   161.5   2-0.20617 0.58855-0.22017 0.71735 0.95342-0.37285  0  64.26 213.06   33.49  63.94 213.00   33.47
  -3  -5  -9 -35.597 160.694   1-0.31048-0.07199 0.48747-0.98401-0.81607 0.16291  0  52.81 355.59   16.46  53.03 355.45   16.36
  -3  -5   9  51.113 158.923   1-0.65272 0.26980-0.70020 0.20338-0.28926 0.94119  0  66.61 126.56  101.22  66.43 126.45  100.73
   3  -5  -9 -28.222 174.752   2 0.07362 0.30886 0.41938-0.91697-0.90482 0.25252  0  80.40  97.46  226.24  80.27  97.61  225.87
   3  -5   9 106.460 157.876   1-0.41170 0.79462-0.89121 0.39439 0.19037 0.46156  0  42.12 305.00  133.59  41.48 304.71  133.81
   3  -5   9  57.259 136.244   2 0.04628 0.33630-0.98721 0.48937-0.15259 0.80462  0  48.20 175.15  119.61  48.06 175.17  119.95
   3   5  -9 -10.291 164.301   2-0.13747 0.51981 0.98943-0.49185 0.04623-0.69848  0  68.66 121.05  295.26  67.98 120.93  294.64
   3   5   9  10.375 124.373   2-0.20147 0.58385-0.26073 0.75791 0.94415-0.29101  0  41.77 204.48   36.14  41.46 204.71   35.86
  -3  -6   0  1444.6   173.8   1-0.61195 0.22943-0.02805-0.56800-0.79040 0.79040  0 116.70 256.20   51.32 116.73 256.15   51.13
  -3  -6   0 986.237 160.630   2 0.13419-0.51672-0.50703-0.08994-0.85142 0.85142  0 308.59  45.03  170.40 308.67  45.41  170.42
  -3   6   0  1185.0   156.8   1-0.58171 0.19924 0.04728 0.54856-0.81202 0.81202  0 438.40  66.34   46.31 438.37  66.36   46.31
  -3   6   0  1306.8   187.1   2-0.23915-0.14323 0.26757 0.32905 0.93339-0.93339  0 274.91  52.10    5.39 275.07  52.25    5.10
   3  -6   0 825.135 112.097   1-0.58863 0.97155-0.79913 0.20295-0.12205 0.12205  0 186.93 414.80  112.50 186.80 414.76  112.46
   3  -6   0  1189.1   181.4   2-0.16220 0.54468-0.52492-0.07196 0.83555-0.83555  0 315.07 471.71   52.39 314.95 471.85   52.42
   3  -6   0  1179.2   138.9   2 0.13554 0.24699-0.33419-0.26278-0.93271 0.93271  0 128.88 186.20  181.45 128.90 186.19  181.39
   3   6   0  1031.1   156.2   2 0.08123 0.30124 0.36902 0.22809-0.92587 0.92587  0 279.58 465.64  222.68 279.62 465.37  222.71
   3   6   0  1191.6   147.6   2-0.23692 0.61914 0.57253 0.02431 0.78491-0.78491  0 120.50 215.30  345.35 120.50 215.17  345.31
  -3  -6  -1  2631.3   200.7   1-0.58173 0.19926 0.04722-0.64306-0.81201 0.73943  0 115.75 266.92   46.12 115.71 266.80   46.32
  -3  -6  -1  3267.2   257.2   2 0.13594-0.51847-0.40265-0.19432-0.90520 0.83272  0 313.19  42.96  176.72 313.28  43.19  177.17
  -3  -6   1  2825.6   203.5   1-0.63945 0.25694-0.10747-0.48858-0.76129 0.83383  0 115.89 245.57   56.22 115.83 245.53   56.22
  -3  -6   1  3055.2   250.3   2 0.12989-0.51242-0.60413 0.00716-0.78623 0.85871  0 302.69  44.53  163.76 302.74  44.52  163.71
  -3   6  -1  2835.2   252.0   1-0.62774 0.24523-0.07200 0.66806-0.77508 0.70254  0 460.87  76.38   53.98 461.12  76.54   53.94
  -3   6  -1  3339.8   275.5   2-0.24138-0.14084 0.37906 0.21743 0.89334-0.96586  0 278.53  49.47  358.16 278.66  49.75  358.07
  -3   6   1  3188.9   206.6   1-0.50516 0.12269 0.20300 0.39284-0.83881 0.91138  0 416.65  55.01   36.21 416.81  55.08   36.25
  -3   6   1  3207.3   267.4   2-0.23527-0.14711 0.15782 0.43880 0.95903-0.88646  0 269.79  52.15   11.59 269.97  52.14   11.58
   3  -6  -1  2027.1   143.2   1-0.59567 0.97859-0.79130 0.19512-0.13789 0.06545  0 201.70 429.00  111.32 201.61 428.87  111.37
   3  -6  -1  2890.4   264.5   2-0.14536 0.52784-0.61286 0.01598 0.77670-0.84919  0 320.38 474.23   58.54 320.48 474.04   58.56
   3  -6  -1  3375.2   216.0   2 0.13322 0.24931-0.22283-0.37414-0.96571 0.89323  0 129.32 181.62  187.80 129.33 181.49  188.05
   3  -6   1  2382.0   169.5   1-0.57868 0.96160-0.80935 0.21316-0.10043 0.17286  0 172.04 402.19  113.89 172.05 402.08  113.95
   3  -6   1  3085.8   264.6   2-0.17811 0.56049-0.43186-0.16476 0.88418-0.81161  0 310.73 473.06   46.15 310.62 472.99   46.32
   3  -6   1  2722.9   191.0   2 0.13554 0.24699-0.44601-0.15096-0.88471 0.95719  0 126.39 189.06  174.36 126.46 189.13  174.41
   3   6  -1  2885.9   239.3   2 0.09728 0.28519 0.24608 0.35103-0.96435 0.89188  0 285.45 468.77  215.27 285.43 468.51  215.25
   3   6  -1  3127.9   189.9   2-0.23102 0.61323 0.65999-0.06314 0.71488-0.78737  0 120.67 209.85  339.35 120.40 209.86  338.87
   3   6   1  2925.5   234.6   2 0.06180 0.32068 0.49132 0.10579-0.86878 0.94126  0 274.87 466.09  230.47 274.94 465.82  230.52
   3   6   1  3197.0   187.7   2-0.24028 0.62250 0.47623 0.12025 0.84585-0.77333  0 118.84 218.83  351.96 118.55 218.77  351.85
  -3  -6  -2 615.262 132.445   1-0.55020 0.16773 0.11625-0.71210-0.82690 0.68175  0 112.96 277.74   41.58 112.69 277.59   41.89
  -3  -6  -2 496.298 160.382   2 0.13494-0.51747-0.29545-0.30152-0.94578 0.80082  0 316.29  38.00  184.37 316.53  37.73  183.72
  -3  -6   2 492.721 126.178   1-0.66272 0.28021-0.18948-0.40657-0.72450 0.86959  0 113.09 234.67   61.49 112.98 234.72   61.53
  -3  -6   2 596.269 162.218   2 0.12350-0.50603-0.69078 0.09381-0.71244 0.85740  0 295.45  40.66  157.39 295.48  40.70  157.18
  -3   6  -2 353.735 168.530   1-0.65544 0.27292-0.16177 0.75782-0.73772 0.59263  0 485.53  86.21   60.32 485.72  85.83   59.73
  -3   6  -2 622.058 171.710   2-0.23990-0.14232 0.48861 0.10788 0.83887-0.98392  0 281.09  43.71  350.77 281.05  44.11  351.03
  -3   6   2 561.598 116.045   1-0.38082-0.00165 0.39730 0.19855-0.83494 0.98009  0 395.36  42.73   23.03 395.36  42.64   23.00
  -3   6   2 412.869 172.865   2-0.22980-0.15258 0.05483 0.54179 0.97169-0.82655  0 263.28  49.09   17.56 263.40  49.25   17.53
   3  -6  -2 443.006  81.511   1-0.59851 0.98143-0.78799 0.19181-0.14439-0.00048  0 217.27 444.94  111.08 217.16 444.81  110.92
   3  -6  -2 623.400 178.826   2-0.12765 0.51013-0.69279 0.09591 0.70976-0.85473  0 327.32 480.25   64.54 327.43 479.75   64.63
   3  -6  -2 701.746 130.723   2 0.12845 0.25408-0.11721-0.47976-0.98477 0.83981  0 127.78 175.07  194.41 127.83 175.02  194.23
   3  -6   2 385.869 112.567   1-0.56653 0.94945-0.82066 0.22447-0.07456 0.21943  0 156.92 390.51  115.71 156.97 390.50  115.71
   3  -6   2 667.827 169.764   2-0.19184 0.57421-0.33723-0.25939 0.92167-0.77653  0 307.73 477.61   40.44 307.55 477.81   40.45
   3  -6   2 619.512 120.514   2 0.13252 0.25001-0.55340-0.04357-0.82230 0.96726  0 121.90 190.47  166.77 122.00 190.35  167.29
   3   6  -2  65.478 123.678   2 0.10997 0.27250 0.12895 0.46816-0.98553 0.84058  0 292.79 474.77  207.74 292.41 475.10  208.39
   3   6  -2 510.400 112.729   2-0.22335 0.60557 0.73655-0.13971 0.63844-0.78344  0 118.82 202.72  333.33 118.27 202.82  332.64
   3   6   2 635.421 145.949   2 0.04004 0.34243 0.60588-0.00877-0.79455 0.93950  0 271.39 469.84  238.39 271.31 469.80  238.45
   3   6   2 506.019 101.895   2-0.24137 0.62359 0.37539 0.22109 0.89488-0.74983  0 114.46 220.61  357.64 114.36 220.60  358.30
  -3  -6  -3 14900.5   382.7   1-0.51873 0.13626 0.17806-0.77391-0.83619 0.61847  0 107.74 288.84   37.99 107.67 288.72   37.88
  -3  -6  -3 15844.6   398.0   2 0.13195-0.51448-0.19090-0.40607-0.97270 0.75526  0 318.40  28.60  189.84 318.49  28.81  189.93
  -3  -6   3 13821.3   374.9   1-0.68069 0.29818-0.27202-0.32403-0.68019 0.89783  0 108.30 223.63   67.00 108.12 223.60   67.00
  -3  -6   3 14148.5   399.9   2 0.11512-0.49765-0.76515 0.16818-0.63348 0.85092  0 286.78  33.84  151.30 286.91  34.01  150.94
  -3   6  -3 14858.2   414.5   2-0.23588-0.14634 0.59059 0.00625 0.77173-0.98921  0 281.93  35.05  343.76 282.00  35.27  344.02
  -3   6   3 14896.2   237.7   1-0.19011-0.19236 0.61736-0.02151-0.76337 0.98109  0 373.00  28.67    5.88 372.67  28.96    5.77
  -3   6   3 11232.2   365.0   2-0.22349-0.15889-0.03808 0.63470 0.97396-0.75625  0 255.28  43.42   22.83 255.38  43.70   22.88
   3  -6  -3  9959.2   184.2   1-0.59389 0.97681-0.79334 0.19715-0.13381-0.08350  0 234.77 463.50  111.67 234.69 463.23  111.65
   3  -6  -3 14417.8   416.3   2-0.10970 0.49218-0.76300 0.16612 0.63703-0.85450  0 335.94 489.23   70.47 335.91 489.03   70.53
   3  -6  -3 16910.3   392.1   2 0.12234 0.26013-0.02095-0.57616-0.99227 0.77483  0 124.69 166.80  199.75 124.33 166.77  199.75
   3  -6   3 11415.3   309.1   1-0.55243 0.93535-0.83228 0.23610-0.04608 0.26339  0 141.28 379.84  117.62 141.25 379.78  117.64
   3  -6   3 14928.0   411.4   2-0.20333 0.58570-0.24495-0.35167 0.94798-0.73026  2 305.71 486.52   34.99 305.62 486.23   34.92
   3  -6   3 15528.5   358.8   2 0.12679 0.25574-0.65176 0.05479-0.74775 0.96519  0 115.83 189.92  160.03 115.43 189.87  160.21
   3   6  -3 13768.0   337.9   2-0.21427 0.59648 0.80123-0.20439 0.55868-0.77617  0 114.46 194.13  326.78 114.16 194.15  326.70
   3   6   3 14705.9   324.6   2-0.23929 0.62167 0.27402 0.32260 0.93148-0.71376  0 108.23 220.46    4.78 107.85 220.44    4.71
   3   6   3 14397.5   363.6   2 0.01693 0.36555 0.70718-0.11007-0.70683 0.92426  0 268.60 477.75  246.20 268.60 477.44  246.26
  -3  -6  -4  44.850 117.950   1-0.48872 0.10625 0.23206-0.82790-0.84101 0.55072  0 100.49 300.23   34.55 100.60 300.39   34.33
  -3  -6  -4 -52.269 156.847   2 0.12714-0.50966-0.09334-0.50363-0.98748 0.69756  0 318.80  17.04  194.70 319.28  16.27  195.61
  -3  -6   4 107.217 118.538   1-0.69271 0.31020-0.35302-0.24303-0.62891 0.91908  0 101.04 211.80   72.51 101.18 211.90   72.53
  -3  -6   4  65.568 182.728   2 0.10493-0.48751-0.82678 0.22938-0.55266 0.84245  0 277.02  24.20  146.29 276.91  24.35  145.08
  -3   6  -4  73.927 183.392   2-0.22911-0.15310 0.68198-0.08514 0.69455-0.98454  0 281.88  23.36  336.76 281.80  23.21  337.15
  -3   6   4 -81.804 132.307   2-0.21656-0.16581-0.11881 0.71543 0.96901-0.67873  0 245.83  35.23   27.49 245.94  35.50   27.54
   3  -6  -4  32.895  59.061   1-0.56946 0.95238-0.81806 0.22187-0.08060-0.20915  0 259.01 486.24  116.13 257.90 485.49  115.30
   3  -6  -4  23.819  76.086   1-0.08993 0.47293-0.82240 0.22612 0.56176-0.85159  2 346.88 501.76  162.93 346.39 502.11  162.54
   3  -6  -4-114.727 190.510   2-0.09184 0.47432-0.82276 0.22588 0.56092-0.85088  2 346.38 502.13   76.06 346.05 502.16   76.17
   3  -6  -4 189.279 117.188   2 0.11585 0.26663 0.06403-0.66114-0.99120 0.70129  0 119.63 156.80  204.46 118.96 156.70  204.63
   3  -6   4  45.235 108.234   1-0.53662 0.91955-0.84368 0.24749-0.01551 0.30526  0 124.88 369.59  119.43 124.60 369.72  119.72
   3  -6   4 -67.538  95.681   2 0.11849 0.26404-0.73809 0.14113-0.66421 0.95413  0 106.01 187.77  154.32 106.68 187.75  153.30
   3   6  -4 -22.465 176.978   2 0.12572 0.25681-0.06972 0.66669-0.98961 0.69969  0 310.03 499.34  196.57 310.07 499.28  196.97
   3   6  -4  24.757  99.907   2-0.20402 0.58624 0.85424-0.25739 0.47818-0.76816  0 108.13 183.95  322.30 108.03 183.82  321.13
   3   6   4  56.535  92.169   2-0.23612 0.61850 0.17800 0.41862 0.95528-0.66500  0  99.12 218.91   10.53  99.10 218.94   10.40
   3   6   4 135.731 145.725   2-0.00639 0.38873 0.79189-0.19480-0.61064 0.90052  0 266.48 489.45  254.42 266.75 488.97  253.74
  -3  -6  -5  1802.4   211.8   1-0.46123 0.07876 0.27803-0.87388-0.84259 0.47972  0  91.41 312.85   31.19  91.34 312.86   31.27
  -3  -6   5  1572.8   182.4   1-0.69806 0.31555-0.43108-0.16498-0.57174 0.93446  0  92.37 199.35   78.20  92.11 199.42   78.08
  -3  -6   5  1708.8   243.0   2 0.09410-0.47668-0.87700 0.27960-0.47119 0.83343  0 265.58  11.61  139.51 265.68  11.92  139.55
  -3   6  -5  1553.7   242.5   2-0.22035-0.16187 0.76063-0.16379 0.61065-0.97312  2 280.34   7.71  330.53 280.40   7.60  330.51
  -3   6   5  1683.1   217.4   2-0.20986-0.17252-0.18699 0.78360 0.95968-0.59683  0 235.10  24.42   31.40 234.94  24.54   31.50
   3  -6  -5  1882.6   202.5   2 0.10927 0.27321 0.13653-0.73363-0.98459 0.62220  0 111.78 144.58  208.74 111.57 144.75  208.83
   3  -6   5  1486.1   185.4   1-0.51914 0.90206-0.85453 0.25834 0.01644 0.34574  0 106.77 360.34  122.18 106.72 360.11  121.89
   3  -6   5  1793.9   202.3   2 0.10781 0.27477-0.81082 0.21342-0.57529 0.93753  0  96.10 184.02  146.78  95.60 184.17  146.66
   3   6  -5  2020.0   221.2   2-0.19318 0.57539 0.89660-0.29976 0.39849-0.76097  0 100.12 171.76  315.73  99.83 171.81  315.91
   3   6   5  1642.6   173.9   2-0.23190 0.61428 0.09078 0.50584 0.96849-0.60564  0  88.19 216.01   15.44  87.88 215.98   15.46
   3   6   5  1489.4   208.5   2-0.02919 0.41153 0.85940-0.26231-0.51047 0.87283  2 265.13 504.30  261.42 265.41 504.56  260.79
  -3  -6  -6 353.559 142.852   1-0.43706 0.05459 0.31612-0.91197-0.84205 0.40660  0  79.87 326.20   28.58  79.79 326.38   28.68
  -3  -6   6 155.977 142.423   1-0.69708 0.31457-0.50443-0.09163-0.50954 0.94480  0  80.87 185.93   83.53  80.73 185.83   83.58
  -3   6   6  45.823 174.464   2-0.20356-0.17882-0.24293 0.83955 0.94845-0.51302  0 222.36  10.85   34.93 222.23  10.61   34.80
   3  -6  -6  95.796 144.661   2 0.10298 0.27949 0.19667-0.79378-0.97505 0.54018  0 101.45 130.62  211.83 102.00 130.74  212.34
   3  -6   6  91.487 140.768   1-0.50025 0.88317-0.86444 0.26826 0.04985 0.38477  0  86.91 350.98  124.45  87.20 350.87  124.17
   3  -6   6 171.392 123.349   2 0.09578 0.28680-0.86997 0.27258-0.48371 0.91839  0  81.49 179.16  139.75  81.94 179.05  140.38
   3   6  -6  91.040 128.646   2-0.18189 0.56410 0.92954-0.33270 0.32074-0.75571  0  89.40 158.10  312.27  89.39 158.02  311.01
   3   6   6  87.093 108.894   2-0.22732 0.60970 0.01479 0.58183 0.97371-0.53828  0  74.28 211.72   19.60  74.04 211.72   19.84
  -3  -6  -7  4657.7   302.8   1-0.41663 0.03416 0.34669-0.94253-0.84038 0.33236  0  65.66 341.47   26.61  65.58 341.36   26.57
  -3  -6   7  3876.7   304.3   1-0.68974 0.30722-0.57231-0.02374-0.44353 0.95134  0  66.79 170.73   89.19  66.71 170.76   89.01
   3  -6  -7  4992.5   326.4   2 0.09737 0.28510 0.24532-0.84243-0.96454 0.45720  0  90.14 114.41  215.28  89.92 114.43  215.20
   3  -6   7  3644.3   288.9   1-0.47991 0.86283-0.87326 0.27708 0.08426 0.42280  0  65.78 341.90  126.46  65.59 341.76  126.51
   3  -6   7  4541.0   277.4   2 0.08315 0.29943-0.91613 0.31873-0.39217 0.89931  0  65.40 172.45  134.48  65.42 172.49  134.46
   3   6  -7  4520.7   295.5   2-0.17039 0.55260 0.95433-0.35749 0.24541-0.75288  0  76.48 142.25  306.49  76.42 142.20  306.41
   3   6   7  4508.2   254.3   2-0.22260 0.60498-0.04926 0.64588 0.97366-0.46566  0  57.46 206.33   23.49  57.26 206.23   23.52
  -3  -6  -8 327.683 202.234   1-0.40026 0.01779 0.37021-0.96606-0.83829 0.25770  0  48.16 358.47   25.00  48.35 358.30   24.92
  -3  -6   8 223.368 172.677   1-0.67641 0.29389-0.63407 0.03802-0.37473 0.95508  0  49.74 153.47   94.43  49.73 153.67   94.37
   3  -6  -8 315.806 194.005   2 0.09271 0.28976 0.28363-0.88074-0.95444 0.37462  0  75.06  95.44  218.24  74.99  95.35  217.50
   3  -6   8 256.075 186.846   1-0.45817 0.84109-0.88079 0.28461 0.11953 0.45997  0  40.82 332.77  128.96  41.26 332.61  128.92
   3  -6   8 392.406 165.020   2 0.06988 0.31269-0.95071 0.35331-0.30212 0.88170  0  45.84 164.29  129.09  45.48 164.43  128.88
   3   6  -8  55.063 174.663   2-0.15879 0.54101 0.97209-0.37525 0.17269-0.75266  0  60.41 124.21  302.62  60.46 124.01  302.05
   3   6   8 283.362 136.342   2-0.21815 0.60053-0.10139 0.69801 0.97063-0.39006  0  36.76 199.44   26.42  36.98 199.55   26.54
  -3  -7   0   1.414 113.348   1-0.63774 0.25523-0.10210-0.59329-0.76345 0.76345  0  86.27 268.96   56.11  86.20 268.88   55.87
  -3   7   0 180.142 185.784   1-0.52667 0.14420 0.16302 0.53213-0.83429 0.83429  0 476.35  24.74   38.35 476.40  24.99   38.86
  -3   7   0 -73.048 153.907   2-0.24001-0.14237 0.32121 0.37485 0.91609-0.91609  0 254.59  17.66    1.38 254.44  17.12    1.86
   3  -7   0 -40.924 107.769   1-0.60154 0.98446-0.78435 0.08879-0.15149 0.15149  0 162.61 439.57  110.39 162.57 439.60  110.44
   3  -7   0  53.343 122.407   2 0.13592 0.24661-0.37863-0.31783-0.91551 0.91551  0 105.05 161.92  178.75 104.49 161.83  178.66
   3   7   0  92.158 106.303   2-0.23638 0.61860 0.58281 0.11350 0.77747-0.77747  0  93.06 195.87  343.69  92.99 196.04  344.58
  -3  -7  -1  1945.0   212.2   1-0.61499 0.23248-0.03623-0.65917-0.78770 0.71516  0  85.76 280.30   52.11  85.68 280.19   51.65
  -3  -7   1  1732.2   202.1   1-0.65800 0.27548-0.17124-0.52415-0.73329 0.80584  0  84.63 257.52   60.33  84.68 257.62   60.34
  -3   7  -1  2076.0   253.7   1-0.57923 0.19676 0.05297 0.64218-0.81344 0.74087  0 501.68  35.60   45.63 501.66  35.73   45.95
  -3   7  -1  2369.4   265.1   2-0.24120-0.14102 0.41561 0.28029 0.87698-0.94950  0 258.04  14.25  355.71 258.04  14.15  355.77
  -3   7   1  1871.2   203.3   1-0.44906 0.06659 0.29747 0.39768-0.84253 0.91510  2 452.52  12.05   29.71 452.77  12.66   29.95
  -3   7   1  2133.7   257.6   2-0.23796-0.14442 0.22767 0.46838 0.94421-0.87164  0 249.37  17.15    7.43 249.24  17.41    7.47
   3  -7  -1  1364.5   168.6   1-0.60919 0.99211-0.77466 0.07911-0.16966 0.09722  0 177.28 455.44  109.33 177.28 455.04  109.18
   3  -7  -1  2063.4   225.9   2 0.13471 0.24782-0.28428-0.41218-0.94923 0.87675  0 104.96 156.96  184.44 105.11 157.08  184.39
   3  -7   1  1569.1   171.2   1-0.59152 0.97444-0.79598 0.10043-0.12849 0.20093  0 147.65 425.95  112.01 147.73 425.86  112.02
   3  -7   1  2135.5   218.8   2 0.13506 0.24747-0.47346-0.22301-0.87040 0.94288  0 102.22 164.86  172.63 101.80 164.86  172.64
   3   7  -1  2095.9   212.8   2-0.23116 0.61337 0.65830 0.03801 0.71638-0.78888  0  93.20 190.72  338.91  93.05 190.74  339.00
   3   7   1  2073.4   204.3   2-0.23952 0.62174 0.50162 0.19428 0.83127-0.75874  0  90.97 199.71  350.21  90.80 199.76  350.16
  -3  -7  -2 17129.9   434.3   1-0.59093 0.20846 0.02554-0.72069-0.80632 0.66117  0  83.22 291.96   47.96  83.15 291.83   47.70
  -3  -7   2 16109.7   432.6   1-0.67481 0.29230-0.24229-0.45311-0.69709 0.84217  0  81.18 246.39   65.15  81.11 246.27   65.01
  -3   7  -2 16652.9   504.8   2-0.23930-0.14292 0.50895 0.18695 0.82687-0.97192  2 260.34   7.66  349.72 260.52   7.82  349.67
  -3   7   2 17882.9   459.7   2-0.23445-0.14792 0.13876 0.55730 0.96217-0.81703  0 242.73  14.68   12.66 242.62  14.79   12.69
   3  -7  -2 10218.2   249.0   1-0.61376 0.99669-0.76848 0.07293-0.18091 0.03604  0 192.44 472.90  108.29 192.48 472.67  108.40
   3  -7  -2 18308.6   441.3   2 0.13205 0.25048-0.19349-0.50297-0.97217 0.82721  0 103.97 150.54  189.83 103.65 150.54  189.77
   3  -7   2 12014.2   338.8   1-0.57948 0.96240-0.80856 0.11301-0.10213 0.24701  0 132.29 413.59  113.90 132.37 413.50  113.83
   3  -7   2 17089.1   412.1   2 0.13194 0.25059-0.56537-0.13110-0.81422 0.95918  0  97.36 166.22  166.47  97.00 166.22  166.46
   3   7  -2 15316.2   381.0   2-0.22453 0.60674 0.72661-0.03029 0.64933-0.79432  0  91.24 183.83  333.54  90.98 183.79  333.48
   3   7   2 15811.1   374.4   2-0.24118 0.62340 0.41794 0.27797 0.87588-0.73083  0  86.52 201.80  355.64  86.32 201.82  355.62
  -3  -7  -3 419.522 147.947   1-0.56645 0.18398 0.08161-0.77676-0.82005 0.60232  0  77.98 304.13   44.39  78.45 303.93   44.11
  -3  -7   3 534.222 147.686   1-0.68758 0.30507-0.31369-0.38171-0.65485 0.87248  0  75.67 234.64   70.11  75.39 234.60   69.82
  -3   7   3 666.618 184.730   2-0.22993-0.15245 0.05691 0.63914 0.97154-0.75383  2 234.56   9.37   17.45 234.48   9.27   17.41
   3  -7  -3 368.362  96.665   1-0.61375 0.99667-0.76850 0.07295-0.18087-0.03644  0 209.15 493.53  108.47 209.15 493.22  108.40
   3  -7  -3 698.557 163.037   2 0.12801 0.25452-0.10916-0.58730-0.98575 0.76831  0 100.37 142.33  194.57 100.15 142.17  194.69
   3  -7   3 424.909 151.596   1-0.56573 0.94865-0.82136 0.12581-0.07292 0.29023  0 116.31 402.62  116.27 116.14 402.20  115.82
   3  -7   3 466.438 137.415   2 0.12684 0.25569-0.65117-0.04529-0.74826 0.96570  0  89.93 165.96  159.77  89.95 165.89  160.25
   3   7  -3 557.893 144.865   2-0.21660 0.59882 0.78655-0.09023 0.57830-0.79579  0  86.96 175.18  328.48  86.77 175.19  328.12
  -3  -7  -4 240.659 143.076   1-0.54262 0.16015 0.13158-0.82674-0.82961 0.53931  0  71.75 316.88   40.37  71.50 316.76   40.90
  -3  -7   4 221.969 145.859   1-0.69554 0.31302-0.38420-0.31120-0.60714 0.89731  0  67.66 222.37   74.44  67.40 222.38   74.71
   3  -7  -4 109.904 154.803   2 0.12336 0.25916-0.03300-0.66346-0.99181 0.70189  0  94.08 131.86  199.39  94.51 131.85  199.08
   3  -7   4 120.652 147.053   1-0.55029 0.93321-0.83393 0.13837-0.04188 0.33163  0  98.53 391.70  118.23  98.70 391.75  117.93
   3  -7   4  80.467 131.177   2 0.11956 0.26297-0.72867 0.03221-0.67435 0.96427  0  80.35 164.15  153.77  80.56 163.94  154.09
   3   7  -4 101.898 129.247   2-0.20758 0.58980 0.83773-0.14142 0.50509-0.79507  0  80.48 164.93  322.65  80.33 164.86  322.95
   3   7   4 151.655 117.331   2-0.23870 0.62107 0.25380 0.44225 0.93734-0.64705  0  70.49 201.30    6.10  70.09 201.02    5.92
  -3  -7  -5  4989.6   322.7   1-0.52032 0.13785 0.17508-0.87023-0.83583 0.47296  0  62.24 330.74   38.15  62.14 330.63   38.08
  -3  -7   5  4509.2   295.1   1-0.69830 0.31579-0.45263-0.24277-0.55453 0.91725  0  57.20 209.43   79.63  57.06 209.34   79.65
   3  -7  -5  5233.7   336.0   2 0.11832 0.26415 0.03365-0.73028-0.99240 0.63002  0  86.89 119.44  203.01  86.47 119.35  202.89
   3  -7   5  3894.8   298.5   1-0.53328 0.91621-0.84589 0.15033-0.00926 0.37144  0  79.89 381.91  119.97  79.69 381.95  120.14
   3  -7   5  5166.4   314.8   2 0.11016 0.27242-0.79629 0.09933-0.59480 0.95704  0  68.85 160.48  148.23  68.61 160.49  148.06
   3   7  -5  4279.5   291.2   2-0.19771 0.57992 0.88036-0.18405 0.43113-0.79361  0  71.82 152.66  317.76  71.52 152.66  318.02
   3   7   5  4981.1   269.4   2-0.23618 0.61856 0.17955 0.51651 0.95498-0.59212  0  58.14 198.74   10.26  58.06 198.58   10.31
  -3  -7  -6  6659.5   344.0   1-0.50018 0.11771 0.21194-0.90709-0.83959 0.40414  0  50.28 346.01   35.68  50.15 345.91   35.66
  -3  -7   6  5934.5   343.3   1-0.69617 0.31366-0.51756-0.17784-0.49747 0.93273  0  44.16 195.26   84.54  44.05 195.14   84.60
   3  -7  -6  6961.7   379.2   2 0.11350 0.26897 0.09089-0.78751-0.98937 0.55451  0  76.25 104.51  205.83  76.01 104.52  206.18
   3  -7   6  5261.0   329.2   1-0.51467 0.89760-0.85704 0.16149 0.02444 0.41018  0  59.07 372.63  122.36  58.71 372.58  122.44
   3  -7   6  6327.2   339.3   2 0.09950 0.28308-0.85347 0.15651-0.51155 0.94624  0  54.05 155.40  142.21  53.69 155.36  142.24
   3   7  -6  5936.3   343.4   2-0.18734 0.56955 0.91499-0.21867 0.35736-0.79234  0  60.43 138.51  313.38  60.11 138.46  313.29
   3   7   6  7285.8   311.5   2-0.23310 0.61548 0.11310 0.58296 0.96585-0.53042  0  43.41 194.92   13.95  43.04 194.81   14.17
  -3  -7  -7 425.126 193.028   1-0.48280 0.10033 0.24222-0.93738-0.84157 0.33355  0  35.74 362.69   34.19  35.16 363.10   33.66
  -3  -7   7 605.722 200.829   1-0.68868 0.30617-0.57859-0.11681-0.43698 0.94478  0  27.83 179.41   89.67  27.95 179.35   89.54
   3  -7  -7 685.301 225.045   2 0.10905 0.27342 0.13868-0.83531-0.98431 0.47697  0  63.00  87.02  209.05  62.62  86.93  208.96
   3  -7   7 412.970 204.543   1-0.49468 0.87760-0.86704 0.17149 0.05939 0.44767  0  35.40 363.23  124.60  35.07 363.59  124.82
   3  -7   7 766.052 197.613   2 0.08792 0.29466-0.90015 0.20319-0.42662 0.93375  0  36.34 148.58  136.64  35.52 148.64  136.65
   3   7  -7 868.220 220.163   2-0.17641 0.55862 0.94226-0.24595 0.28465-0.79212  0  45.70 121.75  308.47  45.64 121.86  308.79
   3   7   7 956.089 170.589   2-0.22984 0.61222 0.05557 0.64049 0.97164-0.46364  0  24.84 189.78   17.52  24.59 189.78   17.49
  -3  -8   0  4535.1   290.8   1-0.65835 0.27583-0.17256-0.62218-0.73267 0.73267  0  49.93 283.73   60.39  49.81 283.63   60.43
   3  -8   0  2832.4   246.6   1-0.60439 0.98731-0.78083-0.01409-0.15818 0.15818  0 133.88 471.47  110.52 133.98 471.45  109.97
   3  -8   0  4384.7   315.2   2 0.13586 0.24667-0.42461-0.37135-0.89513 0.89513  0  74.64 133.81  176.26  74.34 133.79  175.78
   3   8   0  4342.8   288.6   2-0.23517 0.61738 0.60263 0.19316 0.76258-0.76258  0  59.46 174.92  343.27  59.38 174.85  343.16
  -3  -8  -1  4673.9   300.1   1-0.64170 0.25919-0.11466-0.68008-0.75833 0.68579  0  49.77 296.07   56.67  49.73 295.97   56.68
  -3  -8   1  4358.4   292.1   1-0.67299 0.29048-0.23290-0.56184-0.70203 0.77457  0  47.71 271.65   64.37  47.67 271.48   64.39
   3  -8  -1  3289.2   246.6   1-0.61150 0.99442-0.77158-0.02333-0.17527 0.10283  0 149.17 488.71  108.73 149.16 488.88  108.79
   3  -8  -1  4618.0   317.2   2 0.13563 0.24690-0.34339-0.45257-0.92935 0.85687  0  75.53 128.80  180.76  75.06 128.80  180.82
   3  -8   1  3020.3   274.2   1-0.59502 0.97794-0.79205-0.00287-0.13641 0.20885  0 118.70 456.17  111.41 118.54 456.20  111.48
   3  -8   1  4683.2   304.8   2 0.13421 0.24831-0.50627-0.28969-0.85187 0.92435  0  71.64 137.01  170.50  71.32 137.02  170.48
   3   8  -1  4252.3   291.6   2-0.23036 0.61258 0.66808 0.12771 0.70753-0.78003  0  59.49 169.37  338.26  59.53 169.35  338.24
   3   8   1  4249.7   285.9   2-0.23862 0.62084 0.53368 0.26211 0.81132-0.73883  0  57.10 178.76  347.69  56.84 178.75  348.01
  -3  -8  -2 123.649 150.016   1-0.62365 0.24114-0.06022-0.73452-0.77938 0.63429  0  46.84 308.79   53.66  47.35 308.71   53.18
  -3  -8   2 291.170 163.350   1-0.68461 0.30209-0.29486-0.49988-0.66661 0.81170  0  43.00 259.29   68.49  43.22 259.34   68.54
   3  -8  -2-105.991 153.925   2 0.13425 0.24827-0.26466-0.53130-0.95495 0.80999  0  73.31 122.00  185.50  73.51 121.90  185.56
   3  -8   2  64.833 157.624   1-0.58369 0.96661-0.80433 0.00941-0.11122 0.25609  0 102.38 442.24  113.64 102.41 442.72  113.21
   3  -8   2  31.509 164.577   2 0.13092 0.25161-0.58584-0.21012-0.79978 0.94474  0  65.83 138.63  166.28  66.00 138.50  165.03
   3   8  -2  92.886 146.183   2-0.22430 0.60652 0.72855 0.06724 0.64723-0.79222  0  57.05 162.15  334.31  57.28 162.17  333.32
   3   8   2 184.514 139.788   2-0.24056 0.62278 0.46273 0.33259 0.85324-0.70819  0  52.70 180.90  352.56  51.96 181.12  352.74
  -3  -8  -3  2933.0   304.3   1-0.60504 0.22252-0.01000-0.78474-0.79613 0.57850  0  42.63 322.27   49.97  42.62 322.17   49.97
  -3  -8   3  2734.5   264.1   1-0.69315 0.31063-0.35707-0.43767-0.62614 0.84377  0  36.66 246.95   72.73  36.33 246.91   72.81
   3  -8  -3  2987.3   326.7   2 0.13193 0.25060-0.19045-0.60551-0.97279 0.75535  0  69.94 112.91  189.75  69.62 112.97  189.95
   3  -8   3  2408.3   295.9   1-0.57065 0.95357-0.81698 0.02207-0.08306 0.30037  0  85.39 430.67  115.29  85.15 430.61  115.13
   3  -8   3  2838.1   281.8   2 0.12603 0.25649-0.66109-0.13487-0.73965 0.95709  0  58.50 138.22  159.54  58.14 138.19  159.49
   3   8  -3  2844.8   273.9   2-0.21715 0.59936 0.78300 0.01279 0.58289-0.80038  0  52.49 153.37  328.55  52.65 153.28  328.46
   3   8   3  2675.6   267.3   2-0.24132 0.62354 0.39243 0.40289 0.88756-0.66998  0  44.06 182.06  357.14  44.37 181.96  357.23
  -3  -8  -4 -49.477 171.547   1-0.58667 0.20420 0.03572-0.83019-0.80904 0.51874  0  35.36 336.69   48.16  35.46 336.70   47.05
  -3  -8   4 183.238 166.185   1-0.69767 0.31515-0.41883-0.37591-0.58124 0.87142  0  26.29 233.96   77.51  26.94 233.91   77.19
   3  -8  -4 276.679 188.198   2 0.12872 0.25381-0.12239-0.67357-0.98410 0.69418  0  63.35 101.86  193.54  63.29 101.86  193.93
   3  -8   4 -81.742 184.492   1-0.55589 0.93882-0.82957 0.03465-0.05292 0.34267  0  66.52 419.10  116.95  66.31 419.64  117.17
   3  -8   4  94.954 166.578   2 0.11937 0.26316-0.73032-0.06564-0.67260 0.96252  0  47.92 136.33  152.77  47.64 136.18  153.95
   3   8  -4-288.999 152.882   2-0.20896 0.59117 0.83083-0.03505 0.51580-0.80579  0  46.26 142.43  323.54  45.42 142.50  323.69
   3   8   4 167.123 145.294   2-0.24005 0.62242 0.32407 0.47142 0.91507-0.62478  0  34.70 180.79    1.54  33.87 180.91    1.69
  -4   0   0 125877.    677.   1-0.25498-0.25498 0.55106-0.55106-0.79455 0.79455  0 213.51 164.89   11.27 213.38 165.03   11.38
  -4   0   0 127845.    680.   1-0.25528-0.25528-0.88364 0.88364 0.39244-0.39244  0 399.72 149.10  148.61 400.09 149.23  148.49
  -4   0  -1  -4.057  55.792   1-0.15434-0.35562 0.65071-0.65071-0.74348 0.67090  0 202.39 175.55    3.04 202.44 175.58    2.74
  -4   0  -1  42.357  82.482   1-0.30729-0.20328-0.89244 0.89244 0.33033-0.40277  0 415.11 159.22  143.71 415.20 159.36  143.83
  -4   0   1 -36.861  44.636   1-0.37891-0.13105 0.39990-0.39990-0.83457 0.90714  0 222.91 154.02   22.68 223.14 153.83   22.81
  -4   0   1 -18.090  65.955   1-0.19542-0.31524-0.86696 0.86696 0.45847-0.38601  0 387.11 138.40  153.64 387.15 138.57  153.69
  -4   0   1  29.910  36.384   2-0.14825-0.36172-0.59868 0.59868 0.78715-0.71466  0 396.30 144.76   58.05 396.56 144.89   57.54
  -4   0   1  36.214  32.121   2-0.19816-0.31145 0.87863-0.87863 0.43444-0.36195  0 445.57 203.20  318.75 445.52 203.49  318.23
   4   0  -1   9.460  12.643   2 0.13534 0.37469-0.45838 0.45838-0.87839 0.80591  0 201.10 339.05  173.96 201.30 339.27  173.62
   4   0  -1   7.238  13.257   2 0.11906 0.39090 0.02426-0.02426-0.99259 0.92011  0 190.21 321.92  202.15 190.21 321.78  202.35
  -4   0  -2  32.341  85.864   1-0.35295-0.15761-0.89530 0.89530 0.27178-0.41666  0 432.11 169.35  140.18 432.48 169.10  139.57
  -4   0   2 -11.265  43.093   1-0.51393 0.00397 0.18701-0.18701-0.83720 0.98235  0 231.64 142.08   37.44 231.36 141.79   37.30
  -4   0   2  26.800  62.219   1-0.12608-0.38459-0.83988 0.83988 0.52793-0.38302  0 376.62 126.96  159.63 376.47 127.00  159.53
  -4   0   2  11.432  49.735   2-0.10273-0.40724-0.78722 0.78722 0.60806-0.46308  0 379.15 128.36   72.88 379.07 128.51   72.73
  -4   0   2  69.138  45.387   2-0.18267-0.32695 0.92754-0.92754 0.32604-0.18105  0 459.36 225.22  310.96 459.58 224.95  311.34
   4   0  -2  49.779  32.150   2 0.10913 0.40098-0.80280 0.80280-0.58617 0.44128  0 220.27 365.80  147.55 220.39 365.85  147.44
   4   0  -2  -2.458  28.747   2 0.04484 0.46512 0.58225-0.58225-0.81177 0.66682  0 174.87 294.80  236.34 174.88 294.49  236.75
  -4   0  -3 -14.922  98.679   1-0.39357-0.11699-0.89350 0.89350 0.21625-0.43356  0 452.24 178.72  136.15 452.17 178.73  135.63
  -4   0  -3 -15.223  19.042   2 0.12182-0.63178-0.01351 0.01351-0.99246 0.77503  0 446.25 171.22  200.45 446.24 171.34  200.18
  -4   0  -3  20.365  21.087   2 0.04497-0.55494 0.58160-0.58160-0.81223 0.59480  0 429.07 151.43  237.15 429.29 151.54  236.70
  -4   0   3  -6.366  40.753   1-0.63076 0.12074-0.08088 0.08088-0.77175 0.98938  0 237.60 129.19   54.47 237.66 128.89   54.51
  -4   0   3  -0.867  60.346   1-0.04618-0.46449-0.79862 0.79862 0.60006-0.38268  0 368.33 114.04  165.82 368.53 114.25  166.13
  -4   0   3  -6.761  61.657   2-0.08158-0.42840-0.85307 0.85307 0.51538-0.29792  0 363.25 112.99   79.53 363.38 112.88   79.35
  -4   0   3 -12.487  60.151   2-0.17728-0.33234 0.94034-0.94034 0.29041-0.07292  0 473.99 245.45  309.59 473.95 245.54  309.14
   4   0  -3  -2.670  41.836   2 0.09565 0.41445-0.87050 0.87050-0.48278 0.26544  0 233.62 384.81  140.40 233.79 384.81  140.32
   4   0  -3  -2.730  35.224   2 0.01072 0.49925 0.73163-0.73163-0.68162 0.46418  0 164.31 276.06  248.54 164.44 276.18  248.31
   4   0   3 -20.975  65.519   1 0.02256 0.48811-0.75482 0.75482 0.65554-0.43817  0 178.01 320.83  171.68 177.85 321.33  171.77
  -4   0  -4  2368.8   195.5   1-0.43004-0.08053-0.88796 0.88796 0.16306-0.45281  0 474.42 188.39  131.80 474.52 188.45  131.92
  -4   0  -4  2329.5    89.9   2 0.13284-0.64288-0.54583 0.54583-0.82730 0.53738  0 475.20 192.00  167.77 475.38 192.13  167.81
  -4   0  -4  2237.8    91.6   2-0.01747-0.49232 0.82663-0.82663-0.56247 0.27258  0 415.15 122.30  257.05 415.18 122.54  257.20
  -4   0   4  2173.1    94.3   1-0.69328 0.18327-0.35838 0.35838-0.62523 0.91541  0 241.47 114.82   72.87 241.36 114.92   72.90
  -4   0   4  2231.7   149.6   2-0.07115-0.43883-0.88069 0.88069 0.46832-0.17836  0 348.40  96.65   82.60 348.39  96.84   82.55
  -4   0   4  2140.6   150.1   2-0.17618-0.33343 0.94275-0.94275 0.28317 0.00681  0 489.64 266.31  308.89 489.67 266.49  308.70
   4   0  -4  2272.1   121.3   2 0.08931 0.42079-0.89519 0.89519-0.43664 0.14685  0 246.44 403.96  137.17 246.25 403.68  137.30
   4   0  -4  2326.4   114.9   2-0.00742 0.51721 0.79525-0.79525-0.60624 0.31635  0 154.13 259.60  253.75 154.17 259.46  254.06
   4   0   4  2235.4   157.0   1-0.01690 0.52757-0.78077 0.78077 0.62458-0.33475  0 163.96 312.00  168.50 163.88 311.95  168.54
  -4   0  -5  46.695 135.690   1-0.46305-0.04752-0.87926 0.87926 0.11179-0.47397  0 499.98 198.76  128.53 500.15 198.49  128.39
  -4   0  -5  13.920  57.356   2 0.12367-0.63371-0.68896 0.68896-0.71417 0.35177  0 502.20 207.07  157.48 502.14 207.27  157.32
  -4   0  -5  31.051  64.569   2-0.03293-0.47686 0.86915-0.86915-0.49345 0.13109  0 406.86  98.32  261.99 406.87  98.05  261.93
  -4   0   5  40.235  44.929   1-0.68679 0.17677-0.58911 0.58911-0.42576 0.78848  0 242.10  99.53   90.48 242.06  99.64   90.42
  -4   0   5  -3.134  95.121   2-0.06644-0.44354-0.89230 0.89230 0.44652-0.08407  0 333.69  80.00   82.61 333.70  79.85   83.99
   4   0  -5 -22.040  86.591   2 0.08673 0.42337-0.90423 0.90423-0.41815 0.05591  0 258.62 424.02  136.34 258.51 423.79  136.11
   4   0  -5  49.804  62.663   2-0.01714 0.52693 0.82567-0.82567-0.56390 0.20154  0 143.15 243.13  257.39 143.27 243.22  257.10
   4   0   5  65.232  85.294   1-0.04348 0.55415-0.79705 0.79705 0.60234-0.24006  0 148.80 302.46  166.60 148.79 302.64  166.36
   4   0   5 -15.206  31.677   2-0.13162 0.64160-0.67584 0.67584 0.72520-0.36275  0 151.51 312.92   63.37 151.44 312.99   63.30
   4   0   5 -17.299  34.363   2-0.24122 0.75085 0.41252-0.41252 0.87843-0.51580  0 194.04 382.11  355.94 193.99 382.01  355.97
  -4   0  -6  7667.1   207.6   2-0.03755-0.47223 0.88068-0.88068-0.47222 0.03739  0 399.96  72.33  263.23 400.17  72.67  263.34
  -4   0   6  8176.3   156.3   1-0.62989 0.11933-0.74405 0.74405-0.22276 0.65738  0 239.70  82.55  105.26 239.85  82.69  105.48
  -4   0   6  8795.9   277.8   2-0.06507-0.44490-0.89556 0.89556 0.44015-0.00521  0 318.84  61.17   84.40 318.93  61.46   84.41
   4   0  -6  8527.7   180.7   1-0.22658 0.73654 0.58105-0.58105-0.78169 0.34625  0 367.15 452.80    8.93 367.06 452.58    8.90
   4   0  -6  8381.6   270.0   2 0.08633 0.42377-0.90556 0.90556-0.41533-0.01935  0 270.98 446.32  136.38 271.00 445.99  135.93
   4   0  -6  7913.8   230.2   2-0.02210 0.53189 0.83999-0.83999-0.54216 0.10733  0 131.29 226.93  258.76 131.34 226.89  258.62
   4   0   6  8376.7   284.8   1-0.06020 0.57087-0.80661 0.80661 0.58801-0.15327  0 132.35 293.27  165.09 132.37 293.24  164.98
   4   0   6  8307.8   164.4   2-0.11235 0.62232-0.75315 0.75315 0.64818-0.21324  0 133.21 299.62   69.69 133.18 299.46   69.65
   4   0   6  7774.5   162.4   2-0.23758 0.74720 0.55903-0.55903 0.79438-0.35940  0 199.21 407.67  346.19 199.16 407.38  346.26
  -4   0  -7 -32.382 109.660   2-0.03760-0.47219 0.88079-0.88079-0.47201-0.03529  0 394.54  45.20  263.29 394.53  45.05  263.36
  -4   0   7   8.461  57.245   1-0.55201 0.04144-0.83261 0.83261-0.04525 0.55230  0 234.85  63.33  118.03 234.65  63.62  117.70
  -4   0   7 -16.149 143.944   2-0.06585-0.44412-0.89370 0.89370 0.44380 0.06363  0 303.98  40.79   84.41 303.78  41.16   84.17
   4   0  -7   2.129  88.858   1-0.30207 0.81203 0.49747-0.49747-0.81319 0.30517  0 373.32 476.25   15.32 373.64 475.99   15.60
   4   0  -7  10.764 124.530   2 0.08731 0.42279-0.90225 0.90225-0.42229-0.08484  0 284.40 470.94  135.71 284.03 471.12  136.37
   4   0  -7 116.752  86.000   2-0.02396 0.53375 0.84523-0.84523-0.53387 0.02657  0 117.75 210.24  259.40 118.04 210.08  259.19
   4   0   7  83.650 108.288   1-0.06909 0.57976-0.81151 0.81151 0.58025-0.07304  0 114.67 283.70  164.45 114.43 283.60  164.25
   4   0   7  18.364  52.583   2-0.10434 0.61431-0.78172 0.78172 0.61484-0.10742  0 114.22 288.20   72.00 114.52 288.08   72.22
   4   0   7 -33.584  62.233   2-0.23362 0.74324 0.62572-0.62572 0.74424-0.23677  0 202.39 433.54  341.48 202.34 433.37  341.46
  -4   0  -8 27327.7   434.8   2-0.03520-0.47459 0.87488-0.87488-0.48306-0.09672  0 389.59  13.62  262.66 389.80  14.04  262.63
  -4   0   8 29747.0   305.0   1-0.47008-0.04049-0.87689 0.87689 0.10050 0.47899  0 227.00  41.44  127.48 227.25  41.63  127.62
  -4   0   8 29067.7   527.6   2-0.06811-0.44186-0.88824 0.88824 0.45430 0.12562  0 287.73  18.08   83.49 287.91  18.34   83.48
   4   0  -8 29267.0   485.0   2-0.02373 0.53352 0.84459-0.84459-0.53488-0.04490  0 103.18 192.42  259.12 102.94 192.38  259.12
   4   0   8 30321.0   545.1   1-0.07170 0.58237-0.81292 0.81292 0.57794 0.00171  0  94.94 273.51  164.01  94.57 273.50  164.04
   4   0   8 31388.6   387.3   2-0.10169 0.61166-0.79076 0.79076 0.60362-0.02370  0  94.64 277.82   73.00  94.32 277.67   73.06
   4   0   8 29247.0   381.9   2-0.23122 0.74084 0.65754-0.65754 0.71706-0.13710  0 204.11 461.95  339.02 204.03 461.62  339.06
  -4   0   9 -29.924  82.896   1-0.39130-0.11926-0.89372 0.89372 0.21944 0.43249  0 218.05  15.71  135.85 218.14  15.70  135.85
   4   0  -9  93.114 120.694   2-0.02201 0.53180 0.83973-0.83973-0.54255-0.10970  0  86.00 173.50  258.49  85.53 173.37  258.59
   4   0   9 180.168 134.024   1-0.06917 0.57984-0.81155 0.81155 0.58018 0.07194  0  72.36 262.61  164.41  72.30 262.67  164.25
   4   0   9 -38.189  75.619   2-0.10209 0.61206-0.78940 0.78940 0.60532 0.04708  0  71.68 268.39   72.54  71.81 267.82   72.93
   4   0   9 -83.265 106.549   2-0.23012 0.73974 0.67084-0.67084 0.70500-0.05253  0 204.11 493.61  338.08 204.23 493.55  338.02
   4   0 -10  7111.7   337.4   2-0.01917 0.52896 0.83153-0.83153-0.55514-0.16958  0  65.50 152.50  257.69  65.08 152.48  257.72
   4   0  10  7139.0   342.2   1-0.06232 0.57299-0.80779 0.80779 0.58617 0.13841  0  47.27 250.78  164.91  46.90 250.77  164.81
   4   0  10  7532.3   257.7   2-0.10445 0.61443-0.78133 0.78133 0.61532 0.10958  0  46.48 258.32   72.14  46.11 258.33   72.18
   4   0 -11  88.842 180.477   2-0.01542 0.52521 0.82049-0.82049-0.57146-0.22574  0  41.62 129.04  257.29  40.59 128.90  256.57
   4   0  11-423.834 146.069   1-0.05177 0.56244-0.80185 0.80185 0.59528 0.20175  0  17.78 237.35  165.56  17.45 237.35  165.67
   4   0  11-136.750 110.646   2-0.10825 0.61823-0.76819 0.76819 0.63101 0.16638  0  16.10 249.31   70.60  16.05 249.07   70.99
  -4  -1   0  -0.865  59.484   1-0.35001-0.15995 0.43833-0.53764-0.82787 0.82787  0 200.00 176.70   20.60 199.97 176.86   20.04
  -4  -1   0  31.534  80.021   1-0.10361-0.40706-0.82933 0.72995 0.54907-0.54907  0 418.99 160.36  161.48 418.84 160.48  161.40
  -4   1   0  -7.246  68.049   1-0.43744-0.07312-0.88633 0.98569 0.15188-0.15188  0 387.05 136.37  132.49 387.16 136.61  131.15
  -4   1   0  -2.260  33.918   2-0.23500-0.27483 0.15182-0.05239 0.96006-0.96006  0 398.85 144.50   12.08 398.97 144.47   11.93
  -4   1   0   2.187  32.998   2-0.07769-0.43209 0.95751-0.85799-0.27774 0.27774  0 446.36 201.11  276.07 446.55 201.35  275.58
  -4  -1  -1  47.191  70.156   1-0.26208-0.24788 0.54321-0.64252-0.79764 0.72507  0 191.82 187.37   11.99 191.48 187.11   12.01
  -4  -1  -1  57.568  85.528   1-0.17161-0.33906-0.85858 0.75920 0.48311-0.55557  0 431.26 170.76  156.17 431.19 171.20  155.71
  -4  -1   1  74.041  57.635   1-0.44797-0.06199 0.29918-0.39849-0.84250 0.91508  0 206.88 165.90   29.42 206.74 166.07   29.84
  -4  -1   1  60.032  74.713   1-0.02953-0.48114-0.78861 0.68923 0.61418-0.54173  0 408.94 149.07  167.41 409.20 149.17  167.51
  -4  -1   1  92.642  40.092   2-0.03982-0.47015-0.94709 0.84761 0.31850-0.24601  0 397.59 141.11   92.01 397.61 141.29   92.12
  -4  -1   1  68.900  37.849   2-0.24042-0.26920 0.46975-0.56916 0.84943-0.77691  0 449.77 203.14  352.55 449.78 203.30  352.28
  -4   1  -1 123.609  84.572   1-0.45840-0.05216-0.88072 0.98009 0.11916-0.19160  0 405.38 146.33  128.56 405.47 146.22  128.90
  -4   1  -1  64.353  27.392   2-0.02946-0.48033 0.86013-0.76061-0.50923 0.43675  0 442.73 189.01  261.63 442.84 189.55  260.88
  -4   1  -1  64.530  30.450   2-0.22650-0.28312 0.70839-0.60892 0.66849-0.74098  0 409.39 149.94  335.67 409.74 150.24  335.01
  -4   1   1 116.067  45.232   1-0.28356-0.22640 0.51879-0.41948-0.80650 0.87908  0 236.61 140.25   13.99 236.60 140.39   13.93
  -4   1   1  69.129  59.889   1-0.41758-0.09298-0.89029 0.98966 0.18166-0.10922  0 370.07 126.82  133.53 369.87 126.50  133.21
  -4   1   1  67.211  47.413   2-0.19625-0.31359-0.30348 0.40291 0.93241-0.85984  0 385.13 133.70   38.55 385.27 133.82   38.41
  -4   1   1  51.017  41.963   2-0.10063-0.40916 0.98215-0.88263-0.15893 0.23141  0 455.23 217.45  282.56 454.95 217.43  282.66
   4  -1  -1  62.735  28.720   2 0.05187 0.45824-0.98097 0.88140-0.18711 0.11466  0 214.91 358.55  121.70 214.73 358.60  121.98
   4  -1  -1  84.924  28.525   2 0.12314 0.38690-0.02961-0.06989-0.99195 0.91947  0 178.81 301.91  199.57 178.76 302.00  199.28
   4  -1   1  48.139  57.454   1 0.03046 0.48021-0.74933 0.64995 0.66150-0.58904  0 209.87 353.29  173.32 209.78 353.30  172.42
   4   1  -1  80.853  17.007   2 0.11532 0.39465 0.07023 0.02929-0.99084 0.91837  0 200.59 342.87  205.26 200.74 342.93  204.99
   4   1  -1  61.597  16.665   2 0.03773 0.47223 0.61687-0.51735-0.78616 0.71368  0 186.63 320.77  239.79 186.83 321.11  239.25
  -4  -1  -2  1111.9   117.5   1-0.18872-0.32124 0.61869-0.71800-0.76263 0.61748  0 181.46 196.84    5.68 181.49 196.98    5.65
  -4  -1  -2  1157.5   134.4   1-0.23316-0.27750-0.87821 0.77883 0.41760-0.56251  0 445.91 181.55  150.56 446.16 181.58  150.44
  -4  -1   2  1166.7   100.3   1-0.54560 0.03564 0.12557-0.22487-0.82859 0.97374  0 211.64 154.72   41.05 211.63 154.64   41.29
  -4  -1   2  1288.7    99.3   2-0.02584-0.48413-0.96836 0.86888 0.24820-0.10322  0 380.56 125.15   96.22 380.50 125.38   96.41
  -4  -1   2  1072.0    90.0   2-0.22768-0.28194 0.69689-0.79636 0.68008-0.53509  0 463.63 224.31  336.01 463.71 224.45  335.95
  -4   1  -2  1212.5   141.6   1-0.47956-0.03100-0.87340 0.97276 0.08484-0.22971  0 425.14 155.21  126.62 425.25 155.45  126.55
  -4   1  -2  1138.8    57.3   2 0.05821-0.56818 0.51165-0.41213-0.85722 0.71226  0 449.09 187.98  231.96 449.25 188.11  231.88
  -4   1  -2  1007.6    57.4   2-0.17181-0.33781 0.95167-0.85220 0.25456-0.39955  0 412.63 144.96  306.86 412.71 145.12  306.96
  -4   1   2  1057.3    69.0   1-0.47534-0.03462 0.25491-0.15560-0.84207 0.98721  0 250.46 127.23   32.90 250.29 127.33   32.82
  -4   1   2  1189.9    88.8   1-0.40075-0.10981-0.89270 0.99206 0.20611-0.06124  0 353.18 115.55  135.05 353.14 115.73  134.91
  -4   1   2  1273.3   104.8   2-0.15819-0.35178-0.54671 0.64619 0.82224-0.67726  0 370.99 121.26   54.05 371.11 121.43   53.90
  -4   1   2 948.555  94.410   2-0.11503-0.39476 0.99004-0.89053-0.08118 0.22612  0 465.71 234.94  287.05 465.76 235.06  287.22
   4  -1  -2  1107.5    74.0   2 0.04747 0.46263-0.98599 0.88642-0.15990 0.01500  0 227.64 375.04  120.14 227.35 374.91  120.38
   4  -1  -2  1227.0    74.2   2 0.08540 0.42456 0.33988-0.43940-0.93658 0.79163  0 170.18 285.17  220.99 170.08 285.03  220.91
   4  -1   2  1168.2   110.4   1-0.04081 0.55148-0.79549 0.69611 0.60459-0.45968  0 195.96 343.05  166.53 195.73 343.05  166.57
   4   1  -2  1101.5    66.5   2 0.13471 0.37533-0.48602 0.58551-0.86351 0.71855  0 219.08 368.35  171.73 218.91 368.18  171.82
   4   1  -2  1065.0    63.3   2-0.02834 0.53813 0.85713-0.75762-0.51432 0.36937  0 172.45 295.33  260.42 172.41 295.12  260.53
  -4  -1  -3 10599.7   283.8   1-0.28845-0.22211-0.88987 0.79051 0.35344-0.57076  0 463.74 191.78  145.63 463.96 191.82  145.54
  -4  -1  -3 10102.2    81.2   2 0.12035-0.63039-0.72159 0.62209-0.68178 0.46434  0 450.86 171.15  154.53 450.99 171.25  154.68
  -4  -1  -3  9870.6    80.1   2 0.12655-0.63658-0.08311-0.01639-0.98847 0.77103  0 430.37 147.23  196.22 430.59 147.45  196.20
  -4  -1   3  9863.8   201.6   1-0.62779 0.11777-0.07213-0.02722-0.77504 0.99267  0 214.37 142.41   53.98 214.32 142.47   53.95
  -4  -1   3  8402.1   191.3   2-0.02260-0.48738-0.97256 0.87308 0.23157-0.01410  0 364.89 109.56   97.31 364.92 109.88   97.41
  -4  -1   3  9403.4   196.4   2-0.21678-0.29284 0.78538-0.88486 0.57981-0.36232  0 477.89 244.74  328.18 478.11 244.97  328.23
  -4   1  -3  9808.1   270.7   1-0.50047-0.01009-0.86434 0.96370 0.04947-0.26678  0 446.71 164.42  123.95 446.93 164.50  124.14
  -4   1  -3  9622.3   132.6   2 0.11842-0.62839 0.03242 0.06710-0.99243 0.77500  0 464.71 195.37  202.82 464.84 195.52  202.82
  -4   1  -3  9037.2   131.6   2-0.13742-0.37237 0.98945-0.88993 0.04594-0.26336  0 409.04 130.22  294.59 409.23 130.46  294.63
  -4   1   3  9075.8   126.3   1-0.65739 0.14738-0.16898 0.26833-0.73436 0.95199  0 264.68 112.73   60.02 264.92 112.87   60.20
  -4   1   3 10264.2   133.9   1-0.39232-0.11824-0.89362 0.99298 0.21801-0.00070  0 336.33 103.81  135.96 336.31 104.06  135.75
  -4   1   3 11491.7   221.8   2-0.13220-0.37777-0.67332 0.77280 0.72743-0.50996  0 356.90 107.44   63.04 357.02 107.69   63.10
  -4   1   3  8665.3   198.0   2-0.12595-0.38383 0.99183-0.89232-0.02016 0.23757  0 478.42 253.64  290.93 478.52 253.77  290.78
   4  -1  -3  9943.2   187.6   2 0.04834 0.46176-0.98505 0.88548-0.16536-0.05198  0 239.49 391.64  120.75 239.24 391.38  120.70
   4  -1  -3  9622.1   182.5   2 0.05454 0.45543 0.53189-0.63141-0.84506 0.62762  0 161.24 269.40  233.13 161.25 269.26  233.25
   4  -1   3  9806.2   242.6   1-0.08835 0.59902-0.82159 0.72221 0.56319-0.34582  0 181.33 333.35  162.66 181.18 333.28  162.67
   4   1  -3  9741.8   176.0   2 0.12587 0.38417-0.66312 0.76262-0.73785 0.52041  0 232.43 387.33  159.15 232.25 387.12  159.34
   4   1  -3  8905.0   167.6   2-0.04725 0.55704 0.90325-0.80374-0.42651 0.20909  0 162.01 277.08  266.16 161.99 276.93  266.32
  -4  -1  -4  5124.0   238.0   1-0.33824-0.17232-0.89489 0.79552 0.29116-0.58090  0 484.63 202.26  140.92 484.82 202.29  140.96
  -4  -1  -4  4927.6   111.7   2 0.09506-0.60516-0.87302 0.77346-0.47833 0.18853  0 478.93 190.55  140.02 479.29 190.59  140.02
  -4  -1  -4  5062.4   113.3   2 0.06738-0.57735 0.45810-0.55762-0.88634 0.59643  0 417.47 119.51  228.36 417.67 119.74  228.36
  -4  -1   4  4565.4   148.3   1-0.68083 0.17082-0.27280 0.17346-0.67974 0.96991  0 214.61 129.36   66.98 214.55 129.36   67.05
  -4  -1   4  4985.9   188.3   2-0.02345-0.48652-0.97148 0.87200 0.23597 0.05399  0 349.95  93.53   96.64 350.00  93.85   97.15
  -4  -1   4  4647.1   180.7   2-0.20999-0.29963 0.82545-0.92492 0.52397-0.23398  0 493.88 265.72  324.22 493.95 265.92  324.25
  -4   1  -4  5023.0   235.6   1-0.52086 0.01030-0.85354 0.95290 0.01335-0.30310  0 470.75 173.59  121.71 470.98 173.57  121.68
  -4   1  -4  4919.4   128.3   2 0.13483-0.64487-0.29013 0.38962-0.94744 0.65752  0 485.16 206.07  184.02 485.33 206.21  184.04
  -4   1  -4  4329.4   128.1   2-0.11855-0.39124 0.99104-0.89152-0.06159-0.22830  0 403.54 111.38  288.30 403.76 111.65  288.37
  -4   1   4  4446.4    66.1   1-0.66474 0.15472-0.67107 0.77041-0.32831 0.61849  0 282.55  96.04   97.55 282.82  96.32   97.83
  -4   1   4  5181.7    71.8   1-0.41638-0.09418-0.89050 0.98986 0.18341 0.10633  0 316.78  91.42  133.74 316.65  91.67  133.33
  -4   1   4  5350.4   196.9   2-0.11559-0.39439-0.74103 0.84051 0.66145-0.37149  0 342.85  92.57   68.76 342.95  92.80   68.61
  -4   1   4  4525.3   185.9   2-0.13513-0.37466 0.99029-0.89077 0.03268 0.25721  0 493.27 273.57  294.05 493.30 273.70  293.86
   4  -1  -4  4993.6   165.6   2 0.05127 0.45883-0.98170 0.88213-0.18341-0.10638  0 251.25 409.28  121.86 250.98 409.04  121.76
   4  -1  -4  4825.7   157.9   2 0.03344 0.47652 0.63678-0.73630-0.77032 0.48041  0 151.75 253.90  240.91 151.77 253.79  240.74
   4  -1   4  5156.3   202.3   1-0.11901 0.62968-0.83665 0.73727 0.53466-0.24483  0 166.10 323.93  160.03 165.94 323.86  160.12
   4  -1   4  4943.6    95.4   2-0.22071 0.73055-0.07274-0.02670 0.97262-0.68234  0 196.92 371.00   24.92 196.80 370.80   24.87
   4  -1   4  5046.4    95.4   2-0.05496 0.56493-0.91827 0.81879 0.39213-0.10217  0 161.79 314.51   87.51 161.73 314.40   87.51
   4   1  -4  4810.8   185.8   1-0.20949 0.71945 0.59833-0.49902-0.77338 0.48308  0 399.24 407.42    7.33 399.48 407.28    7.43
   4   1  -4  5096.4   158.1   2 0.11786 0.39218-0.74335 0.84285-0.65843 0.36851  0 244.81 406.26  152.91 244.63 406.00  152.85
   4   1  -4  4241.1   145.3   2-0.05477 0.56456 0.91866-0.81915-0.39123 0.10134  0 151.68 260.37  268.59 151.70 260.28  268.57
  -4  -1  -5 19099.3   238.4   2 0.03493-0.54490 0.62996-0.72948-0.77584 0.41345  0 409.52  95.05  240.13 409.68  95.36  240.23
  -4  -1   5 16475.6   256.3   1-0.69831 0.18829-0.45464 0.35530-0.55287 0.91559  0 212.34 114.92   79.75 212.31 115.03   79.80
  -4  -1   5 19942.4   343.8   2-0.02638-0.48360-0.96764 0.86816 0.25095 0.11150  0 335.22  76.46   96.18 335.32  76.80   96.24
  -4   1  -5 18682.9   391.9   1-0.54066 0.03010-0.84092 0.94029-0.02314-0.33904  0 497.95 182.89  118.98 498.16 182.88  119.20
  -4   1  -5 16668.1   244.4   2-0.10513-0.40466 0.98526-0.88574-0.13496-0.22740  0 397.92  90.00  283.99 398.13  90.34  284.07
  -4   1   5 20450.6   354.6   2-0.10534-0.40464-0.77826 0.87774 0.61905-0.25660  0 328.66  76.30   72.00 328.82  76.54   71.90
   4  -1  -5 19992.3   337.3   2 0.05516 0.45494-0.97660 0.87704-0.20785-0.15439  0 262.89 428.76  122.92 262.90 428.50  123.21
   4  -1  -5 18242.1   305.3   2 0.01959 0.49037 0.69643-0.79594-0.71736 0.35497  0 141.30 238.36  245.22 141.33 238.28  245.38
   4  -1   5 18717.9   367.7   1-0.13761 0.64828-0.84492 0.74554 0.51689-0.15460  0 150.00 314.61  158.52 149.84 314.60  158.57
   4  -1   5 18614.5   215.6   2-0.23756 0.74739 0.21769-0.31713 0.94667-0.58381  0 201.84 393.14    8.10 201.72 392.94    8.06
   4  -1   5 19483.0   218.3   2-0.05034 0.56031-0.92773 0.82825 0.36985-0.00740  0 145.79 302.30   88.92 145.73 302.19   88.92
   4   1  -5 18212.2   291.1   1-0.28102 0.79098 0.52168-0.42237-0.80553 0.44266  0 402.29 424.91   13.81 402.56 424.75   13.70
   4   1  -5 18791.9   316.2   2 0.11202 0.39808-0.78327 0.88283-0.61151 0.24927  0 256.74 426.43  149.03 256.76 426.18  149.28
   4   1  -5 16978.3   291.5   2-0.05706 0.56685 0.92314-0.82363-0.38020 0.01784  0 140.76 244.17  269.05 140.75 244.06  269.27
   4   1   5 20079.4   192.0   2-0.18978 0.69961-0.35233 0.45177 0.91643-0.55357  0 149.56 315.14   41.29 149.49 314.90   41.37
   4   1   5 17794.1   181.2   2-0.22801 0.73763 0.69355-0.59408 0.68337-0.32089  0 191.37 383.23  336.23 191.36 382.98  336.22
  -4  -1  -6 557.670 100.514   2 0.01766-0.52762 0.70427-0.80379-0.70971 0.27485  0 403.10  69.81  245.99 403.24  69.83  246.02
  -4  -1   6 395.127  81.907   1-0.68412 0.17410-0.60233 0.50299-0.41131 0.84658  0 207.73  99.15   91.51 207.62  99.14   91.56
  -4  -1   6 578.244 143.960   2-0.03053-0.47944-0.96180 0.86232 0.27204 0.16290  0 320.57  58.03   94.65 320.57  58.28   94.97
  -4   1  -6 406.059 101.305   2-0.09399-0.41580 0.97650-0.87698-0.19397-0.24087  0 392.63  66.48  280.58 392.78  66.56  280.60
  -4   1   6 499.207 138.503   2-0.09942-0.41055-0.79840 0.89788 0.59386-0.15892  0 314.10  58.91   74.08 314.43  58.62   73.78
   4  -1  -6 629.159 136.865   2 0.05962 0.45048-0.96994 0.87038-0.23591-0.19878  0 275.02 450.45  124.76 275.20 450.33  124.88
   4  -1  -6 664.582  99.164   2 0.01090 0.49907 0.73096-0.83047-0.68234 0.24747  0 129.56 222.56  248.26 129.74 222.38  248.25
   4  -1   6 470.199 118.827   1-0.14721 0.65787-0.84899 0.74961 0.50750-0.07275  0 132.90 305.24  158.09 132.59 305.37  157.76
   4  -1   6 479.565  65.453   2-0.05184 0.56181-0.92472 0.82524 0.37710 0.05783  0 129.25 291.63   88.18 129.17 291.44   88.46
   4   1  -6 445.056 119.802   1-0.34185 0.85181 0.44883-0.34952-0.82565 0.39020  0 408.98 445.01   19.37 408.96 445.09   19.26
   4   1  -6 412.444 124.205   2 0.10892 0.40119-0.80411 0.90368-0.58442 0.14973  0 269.38 448.52  146.66 269.19 448.53  147.31
   4   1  -6 531.635  98.073   2-0.05651 0.56630 0.92208-0.82256-0.38286-0.05197  0 128.59 227.80  268.65 128.76 227.75  269.10
   4   1   6 504.918 124.964   1 0.03171 0.47895-0.74840 0.84778 0.66248-0.22774  0 128.14 281.39  172.35 128.22 281.48  172.52
   4   1   6 651.986  80.502   2-0.16293 0.67291-0.52080 0.62028 0.83799-0.40305  0 131.08 301.70   52.02 131.16 301.50   52.14
   4   1   6 485.909  65.143   2-0.22054 0.73016 0.75939-0.65992 0.61212-0.17714  0 196.57 408.64  330.45 196.42 408.54  330.63
  -4  -1  -7  1534.1   153.2   2 0.00871-0.51868 0.73915-0.83867-0.67348 0.16614  0 397.73  41.82  248.95 397.83  41.94  248.95
  -4  -1   7  1615.1   137.6   1-0.64677 0.13621-0.71304 0.61368-0.27066 0.77772  0 200.97  81.25  102.06 200.90  81.17  102.07
  -4  -1   7  1515.1   188.5   2-0.03548-0.47449-0.95422 0.85474 0.29700 0.21043  0 305.61  37.05   93.42 305.42  37.74   93.44
  -4   1  -7  1421.8   148.7   2-0.08402-0.42577 0.96570-0.86619-0.24569-0.26161  0 387.80  39.71  277.47 387.89  39.84  277.51
  -4   1   7  1551.7   192.6   2-0.09647-0.41350-0.80803 0.90751 0.58119-0.07376  0 299.26  38.60   75.05 299.49  38.65   74.71
   4  -1  -7  1452.7   177.9   2 0.06440 0.44570-0.96174 0.86217-0.26629-0.24084  0 287.98 475.73  126.77 288.20 475.31  126.71
   4  -1  -7  1762.8   173.9   2 0.00565 0.50414 0.75031-0.84982-0.66106 0.15376  0 116.86 205.90  250.35 116.63 205.80  249.93
   4  -1   7  1424.8   170.1   1-0.14993 0.66060-0.85011 0.75073 0.50481 0.00240  0 114.18 295.95  157.46 113.88 295.98  157.54
   4  -1   7  1711.1   121.5   2-0.05579 0.56577-0.91650 0.81702 0.39613 0.11130  0 111.61 281.39   87.17 111.27 281.35   87.25
   4  -1   7  1629.1   136.5   2-0.24052 0.75014 0.46521-0.56463 0.85190-0.34422  0 207.59 440.72  352.66 207.57 440.47  352.58
   4   1  -7  1506.6   158.3   1-0.39059 0.90055 0.38384-0.28453-0.83672 0.32870  0 418.58 469.07   23.97 418.76 469.18   23.96
   4   1  -7  1772.2   219.6   2 0.10728 0.40282-0.81343 0.91300-0.57168 0.06455  0 282.23 473.84  146.30 282.10 473.81  146.42
   4   1  -7  1326.8   157.5   2-0.05417 0.56396 0.91751-0.81799-0.39401-0.11330  0 115.32 211.13  268.38 115.35 210.93  268.39
   4   1   7  1699.3   190.4   1 0.01733 0.49333-0.75840 0.85778 0.65156-0.14436  0 111.13 271.56  171.38 110.99 271.51  171.34
   4   1   7  1692.9   114.1   2-0.14796 0.65793-0.60014 0.69962 0.78609-0.27866  0 112.67 290.11   57.82 112.41 290.14   57.65
   4   1   7  1479.4   122.1   2-0.21729 0.72691 0.78189-0.68242 0.58432-0.07685  0 199.56 434.60  328.56 199.43 434.58  328.57
  -4  -1  -8 925.059 166.958   2 0.00441-0.51420 0.75476-0.85428-0.65598 0.07621  2 393.04  10.55  250.36 393.18  10.75  250.32
  -4  -1   8  1230.8   148.6   1-0.59531 0.08475-0.79172 0.69235-0.13707 0.71657  0 192.08  60.27  111.41 192.00  60.56  111.43
  -4  -1   8  1286.9   214.8   2-0.04104-0.46893-0.94498 0.84551 0.32453 0.25539  0 289.47  14.98   91.71 289.55  14.64   91.75
  -4   1  -8 830.794 171.542   2-0.07466-0.43513 0.95310-0.85358-0.29331-0.28646  2 383.70   9.16  274.53 383.61   9.35  274.63
  -4   1   8  1266.9   220.1   2-0.09566-0.41432-0.81065 0.91013 0.57767 0.00225  0 283.47  15.84   74.99 283.71  16.05   74.97
   4  -1  -8  1120.2   149.0   2 0.00303 0.50675 0.75969-0.85920-0.65028 0.07050  0 101.81 188.27  250.61 101.64 188.23  250.76
   4  -1   8  1218.8   174.1   1-0.14725 0.65792-0.84900 0.74962 0.50746 0.07220  0  93.34 286.29  157.81  93.32 286.24  157.76
   4  -1   8  1189.0   129.1   2-0.06108 0.57105-0.90491 0.80543 0.42121 0.15871  0  91.73 271.77   85.67  91.47 271.68   85.64
   4  -1   8 994.109 124.970   2-0.23924 0.74886 0.51770-0.61717 0.82143-0.24147  0 208.63 468.43  349.23 208.83 468.18  349.10
   4   1  -8 895.665 172.416   1-0.42721 0.93717 0.33108-0.23177-0.84136 0.26076  0 431.56 498.49   27.49 431.80 498.22   27.65
   4   1  -8 870.442 137.580   2-0.05065 0.56044 0.91030-0.81078-0.41084-0.16893  0 100.25 193.44  267.46 100.12 193.25  267.32
   4   1   8  1398.4   186.0   1 0.00968 0.50098-0.76356 0.86294 0.64567-0.06601  0  92.26 261.00  170.79  91.74 260.94  170.72
   4   1   8  1118.0   123.6   2-0.13950 0.64948-0.64041 0.73989 0.75526-0.17534  0  92.31 279.92   60.58  92.09 279.82   60.60
   4   1   8  1068.7   119.9   2-0.21653 0.72615 0.78701-0.68753 0.57770 0.00227  0 200.85 463.11  328.13 200.90 463.00  328.08
  -4  -1   9 761.070 126.132   1-0.53652 0.02596-0.84375 0.74438-0.01531 0.66725  0 181.26  36.10  119.88 181.19  36.32  119.73
   4  -1  -9 945.822 164.349   2 0.00234 0.50745 0.76215-0.86167-0.64739-0.00486  0  84.04 169.36  250.59  84.27 169.24  250.98
   4  -1   9 552.476 160.284   1-0.14016 0.65083-0.84601 0.74663 0.51441 0.13771  0  70.65 275.65  158.26  70.36 275.91  158.36
   4  -1   9 807.937 113.859   2-0.06714 0.57712-0.89061 0.79113 0.44979 0.20262  0  69.24 262.66   83.63  69.16 262.24   83.78
   4  -1   9 907.177 147.319   2-0.23805 0.74767 0.54748-0.64695 0.80224-0.14978  0 208.12 500.49  347.42 208.80 500.00  347.06
   4   1  -9 962.949 162.715   2-0.04617 0.55596 0.90089-0.80138-0.43158-0.22067  0  82.61 174.24  265.69  82.51 174.25  265.99
   4   1   9 888.284 177.499   1 0.00769 0.50298-0.76488 0.86426 0.64412 0.00799  0  70.44 249.51  170.47  69.98 249.49  170.55
   4   1   9 797.562 110.160   2-0.13536 0.64533-0.65945 0.75892 0.73947-0.08706  0  69.37 270.42   61.89  69.42 270.12   62.03
   4   1   9 620.198 128.502   2-0.21718 0.72679 0.78282-0.68335 0.58312 0.06934  0 200.74 495.13  328.49 200.81 495.08  328.47
   4  -1 -10 594.236 167.210   2 0.00311 0.50668 0.75943-0.85894-0.65059-0.07414  0  64.12 148.13  250.52  63.80 148.24  250.74
   4  -1  10 583.484 171.259   1-0.12937 0.64004-0.84131 0.74193 0.52485 0.19973  0  44.02 264.64  159.38  44.26 264.67  159.26
   4  -1  10 412.081 110.636   2-0.07383 0.58380-0.87378 0.77430 0.48069 0.24421  0  43.31 253.26   81.58  43.48 252.94   81.73
   4   1 -10 534.989 158.258   2-0.04121 0.55100 0.88935-0.78984-0.45536-0.26936  0  61.22 153.39  264.70  61.87 153.41  264.45
   4   1  10 494.095 173.744   1 0.01051 0.50016-0.76301 0.86239 0.64630 0.07827  0  45.24 236.95  170.45  45.00 236.80  170.78
   4   1  10 323.775 100.486   2-0.13399 0.64396-0.66552 0.76500 0.73425-0.00936  0  43.75 260.79   62.54  43.49 260.79   62.50
  -4  -2   0 254.131  74.919   1-0.42427-0.08569 0.33536-0.53398-0.84115 0.84115  0 183.47 187.86   27.34 183.62 187.92   27.35
  -4  -2   0 242.199 102.651   1 0.00451-0.51518-0.76700 0.56824 0.64163-0.64163  0 443.05 170.71  170.34 443.02 170.81  170.30
  -4  -2   0 177.060  40.899   2-0.20551-0.30433-0.22610 0.02723 0.95218-0.95218  0 459.20 200.00   33.80 459.29 200.05   33.81
  -4  -2   0 187.607  45.335   2 0.07370-0.58381-0.94172 0.74258-0.32823 0.32823  0 402.74 133.92  130.82 403.07 133.98  130.48
  -4   2   0 146.696  73.166   1-0.59999 0.08943-0.78624 0.98497-0.14781 0.14781  0 381.15 121.84  110.60 381.14 121.82  110.69
  -4   2   0 150.983  58.078   2-0.23495-0.27489 0.15063 0.04825 0.96027-0.96027  0 379.90 121.69   12.11 379.91 121.65   12.00
  -4   2   0 174.834  53.453   2 0.00296-0.51274 0.75997-0.56094-0.64995 0.64995  0 467.54 226.39  250.99 467.60 226.42  250.78
   4  -2   0 186.768  56.058   1-0.00757 0.51824-0.77486 0.57610 0.63209-0.63209  0 228.16 378.38  169.45 228.12 378.27  169.30
   4  -2   0 165.302  40.509   2-0.06010 0.57007-0.90711 0.70815 0.41658-0.41658  0 219.64 372.01   85.81 219.43 371.82   85.94
   4  -2   0 230.703  40.314   2 0.13593 0.37411-0.40474 0.20575-0.90427 0.90427  0 169.67 293.04  177.16 169.56 293.13  177.03
   4   2   0 186.817  18.563   2 0.01529 0.49467 0.71364-0.51461-0.70034 0.70034  0 194.70 346.07  247.22 194.93 346.24  246.79
   4   2   0 175.465  19.071   2-0.08262 0.59241 0.96402-0.76499-0.25266 0.25266  0 181.71 325.38  277.10 181.69 325.32  277.09
  -4  -2  -1  1971.3   138.7   1-0.35112-0.15884 0.43689-0.63551-0.82815 0.75558  0 177.03 198.01   20.14 177.12 198.06   20.14
  -4  -2  -1  2117.2   175.2   1-0.06651-0.44416-0.81009 0.61134 0.58252-0.65497  0 452.82 182.25  164.59 453.06 182.24  164.47
  -4  -2  -1  2091.5    70.5   2-0.12603-0.38395-0.69952 0.50057 0.70341-0.77590  0 455.81 188.58   65.07 456.06 188.73   65.17
  -4  -2  -1  1857.6    69.6   2 0.10350-0.61360-0.83409 0.63496-0.54183 0.46938  0 413.49 139.04  144.28 413.77 139.05  144.32
  -4  -2   1  1753.5   124.2   1-0.50057-0.00939 0.21124-0.40985-0.83953 0.91210  0 188.31 177.27   36.22 188.31 177.33   35.71
  -4  -2   1  1844.3    92.7   2-0.23651-0.27332 0.18800-0.38687 0.95327-0.88070  0 467.02 215.47    9.96 467.21 215.65    9.82
  -4  -2   1  1870.0   100.8   2 0.05413-0.56423-0.97802 0.77889-0.20137 0.27382  0 389.45 124.07  122.94 389.79 124.18  122.83
  -4   2  -1  1814.3   144.1   1-0.59105 0.08049-0.79651 0.99524-0.12742 0.05498  0 402.48 130.93  112.08 402.65 130.98  112.09
  -4   2  -1  1941.1    99.6   2 0.04435-0.55432 0.58470-0.38566-0.81004 0.73756  0 468.07 219.05  237.08 468.11 219.23  236.92
  -4   2  -1  1896.0   106.2   2-0.24060-0.26902 0.46069-0.26186 0.85433-0.92685  0 386.37 122.61  352.96 386.74 122.80  352.87
  -4   2   1  1816.8   104.1   1-0.62217 0.11161-0.75635 0.95508-0.20210 0.27454  0 359.00 112.19  106.99 359.00 112.25  106.92
  -4   2   1  1836.4   114.4   2-0.21483-0.29500-0.13741 0.33628 0.96694-0.89436  0 370.25 115.74   28.56 370.28 115.90   28.62
  -4   2   1  1639.2   109.8   2-0.03172-0.47807 0.86604-0.66701-0.49898 0.57145  0 471.92 237.61  261.65 471.94 237.71  261.56
   4  -2  -1  1886.7    90.4   2-0.03360 0.54358-0.95717 0.75821 0.28757-0.36006  0 227.99 380.27   94.01 227.87 380.07   94.02
   4  -2  -1  1969.2    88.7   2 0.12648 0.38355-0.08207-0.11692-0.98857 0.91609  0 166.05 282.94  196.13 166.05 282.83  196.26
   4  -2   1  1738.7   114.7   1-0.10139 0.61205-0.82813 0.62938 0.55128-0.47883  0 212.08 366.93  161.51 211.78 366.76  161.59
   4  -2   1  1925.5    74.7   2-0.09794 0.60792-0.80326 0.60431 0.58751-0.51502  0 213.15 368.29   74.21 213.01 368.14   74.25
   4  -2   1  1866.8    72.2   2 0.12186 0.38818-0.70755 0.50856-0.69608 0.76856  0 170.21 300.40  155.78 170.11 300.28  155.83
   4   2  -1  1945.2    71.3   2 0.11046 0.39951 0.12393 0.07511-0.98612 0.91365  0 210.30 365.71  208.06 210.22 365.45  208.10
   4   2  -1  1634.6    65.0   2-0.10501 0.61480 0.98518-0.78615-0.13561 0.06314  0 171.31 304.39  283.92 171.29 304.14  284.03
  -4  -2  -2 17495.5   332.5   1-0.28566-0.22430 0.51640-0.71501-0.80730 0.66215  0 168.86 207.79   14.01 168.90 207.92   14.11
  -4  -2  -2 18307.5   349.4   1-0.13400-0.37666-0.84335 0.64459 0.52038-0.66530  0 465.95 193.25  158.98 466.17 193.35  158.87
  -4  -2  -2 18524.7   156.8   2-0.04383-0.46614-0.94003 0.74107 0.33827-0.48325  0 461.51 185.95   90.82 461.75 186.17   90.90
  -4  -2  -2 17416.2   151.7   2 0.13297-0.64301-0.54255 0.34356-0.82943 0.68447  0 417.66 134.83  168.08 417.97 135.04  168.03
  -4  -2   2 16973.9   295.4   1-0.57298 0.06302 0.06722-0.26584-0.81681 0.96196  0 191.01 166.20   44.77 191.01 166.25   45.04
  -4  -2   2 17516.5   239.4   2 0.04010-0.55020-0.99248 0.79335-0.11562 0.26052  0 375.86 111.92  117.87 375.87 112.12  117.77
  -4  -2   2 16706.3   231.9   2-0.24092-0.26871 0.44230-0.64113 0.86390-0.71885  0 477.76 232.89  354.06 477.94 233.17  354.07
  -4   2  -2 15843.6   294.9   1-0.58975 0.07919-0.79792 0.99665-0.12454-0.02034  0 424.57 139.73  112.30 424.82 139.80  112.29
  -4   2  -2 17560.2   211.7   2 0.08510-0.59506 0.34212-0.14308-0.93580 0.79084  0 474.13 217.00  221.02 474.25 217.12  221.05
  -4   2  -2 16305.9   209.6   2-0.22624-0.28338 0.71085-0.51191 0.66596-0.81095  0 390.04 118.02  334.83 390.32 118.25  334.81
  -4   2   2 18099.7   160.7   1-0.42132-0.08864 0.33975-0.14113-0.84087 0.98601  0 267.81 110.58   26.92 267.98 110.76   27.05
  -4   2   2 15818.7   151.1   1-0.66893 0.15891-0.65875 0.85744-0.34435 0.48944  0 332.70 102.44   96.83 332.49 102.80   96.65
  -4   2   2 19035.1   271.8   2-0.19002-0.31981-0.35054 0.54941 0.91707-0.77192  0 358.97 106.73   41.05 359.07 106.94   41.26
  -4   2   2 15125.5   245.8   2-0.05866-0.45113 0.92619-0.72716-0.37247 0.51742  0 479.76 251.87  269.94 479.80 252.00  269.75
   4  -2  -2 17761.2   241.5   2-0.01481 0.52492-0.98171 0.78257 0.18983-0.33473  0 237.62 391.67   99.97 237.40 391.45   99.91
   4  -2  -2 18215.3   242.6   2 0.10514 0.40483 0.17652-0.37556-0.97867 0.83371  0 160.51 270.97  211.04 160.53 270.80  211.16
   4  -2   2 17181.0   290.5   1-0.15848 0.66915-0.85356 0.65480 0.49630-0.35139  0 196.15 356.23  156.92 195.96 356.15  156.82
   4  -2   2 17857.7   181.9   2-0.14543 0.65541-0.61249 0.41353 0.77698-0.63201  0 209.68 371.04   58.56 209.58 370.86   58.54
   4  -2   2 17347.9   179.4   2 0.08941 0.42070-0.89483 0.69570-0.43735 0.58225  0 166.68 302.66  137.38 166.60 302.60  137.34
   4   2  -2 16434.5   303.8   1-0.15130 0.66126 0.65348-0.45487-0.74167 0.59652  0 432.54 369.39    2.44 432.76 369.20    2.49
   4   2  -2 17507.1   211.9   2 0.13348 0.37656-0.23717 0.43616-0.96225 0.81729  0 222.66 381.80  187.09 222.49 381.51  187.20
   4   2  -2 14373.8   192.2   2-0.10668 0.61647 0.98620-0.78717-0.12663-0.01832  0 162.83 287.61  284.55 162.80 287.45  284.56
  -4  -2  -3 17427.8   343.1   1-0.23040-0.27956 0.57711-0.77572-0.78349 0.56577  0 159.07 217.50    9.02 159.02 217.58    9.23
  -4  -2  -3 17216.4   361.2   1-0.19706-0.31361-0.86750 0.66874 0.45675-0.67412  0 482.22 204.40  153.65 482.42 204.47  153.55
  -4  -2  -3 17325.3   178.9   2 0.00003-0.51013-0.99372 0.79459 0.11190-0.32924  0 476.20 191.64  104.51 476.40 191.80  104.52
  -4  -2  -3 17183.6   177.3   2 0.12901-0.63905-0.12811-0.07088-0.98333 0.76589  0 415.67 121.47  193.62 415.96 121.70  193.59
  -4  -2   3 15723.4   283.5   1-0.63346 0.12344-0.08901-0.10967-0.76864 0.98627  0 191.61 154.43   54.99 191.59 154.45   55.03
  -4  -2   3 17617.1   273.5   2 0.02869-0.53879-0.99839 0.79926-0.04891 0.26625  0 361.88  98.29  113.95 361.86  98.52  113.88
  -4  -2   3 15586.3   258.7   2-0.23634-0.27328 0.58361-0.78256 0.77688-0.55939  0 490.80 251.64  344.70 491.02 251.89  344.53
  -4   2  -3 15559.7   322.4   1-0.59312 0.08256-0.79421 0.99293-0.13208-0.08523  0 448.23 148.34  111.89 448.47 148.38  111.77
  -4   2  -3 16746.7   221.0   2 0.11423-0.62419 0.08276 0.11628-0.99000 0.77257  0 486.12 219.80  205.79 486.23 219.93  205.71
  -4   2  -3 15426.6   218.0   2-0.20233-0.30729 0.86162-0.66268 0.46547-0.68296  0 390.46 107.90  320.13 390.65 108.16  320.28
  -4   2   3 18393.5   296.4   2-0.16805-0.34192-0.49232 0.69128 0.85403-0.63657  0 346.81  95.41   50.07 346.92  95.68   50.24
  -4   2   3 14758.0   268.7   2-0.07960-0.43019 0.96010-0.76107-0.26808 0.48549  0 490.60 268.42  276.15 490.66 268.53  276.16
   4  -2  -3 15585.2   253.2   2 0.00001 0.51009-0.99371 0.79458 0.11197-0.32932  0 247.85 405.51  104.43 247.61 405.28  104.52
   4  -2  -3 17156.7   262.5   2 0.08298 0.42699 0.35730-0.55633-0.93030 0.71286  0 153.47 257.87  222.29 153.46 257.74  221.98
   4  -2   3 16272.7   306.9   1-0.19306 0.70373-0.86617 0.66741 0.46096-0.24359  0 180.27 346.22  153.99 180.10 346.16  153.89
   4  -2   3 16908.2   192.0   2-0.18934 0.69918-0.35551 0.15664 0.91529-0.69758  0 209.09 380.08   41.59 208.99 379.85   41.56
   4  -2   3 16432.8   188.4   2 0.05854 0.45157-0.97164 0.77251-0.22911 0.44645  0 159.06 300.12  124.47 158.97 300.07  124.48
   4   2  -3 15851.1   299.4   1-0.22099 0.73095 0.58674-0.38812-0.77904 0.56132  0 431.72 383.61    8.34 431.87 383.45    8.42
   4   2  -3 15936.6   235.8   2 0.13553 0.37451-0.44353 0.64252-0.88595 0.66851  0 234.38 398.36  174.50 234.19 398.07  174.58
   4   2  -3 14363.6   223.0   2-0.10414 0.61393 0.98462-0.78559-0.14031-0.07711  0 154.00 271.87  283.86 153.99 271.75  283.76
  -4  -2  -4  5483.8   220.7   1-0.18539-0.32457 0.62190-0.82052-0.76083 0.47053  0 147.70 227.17    5.28 147.63 227.25    5.36
  -4  -2  -4  5295.1   263.7   1-0.25511-0.25545-0.88358 0.68485 0.39270-0.68244  0 501.90 215.84  148.59 502.04 215.77  148.52
  -4  -2  -4  5189.1   136.2   2 0.02300-0.53310-0.99961 0.80048-0.01586-0.27393  0 496.57 201.24  112.00 496.71 201.35  111.96
  -4  -2  -4  5611.8   142.4   2 0.10345-0.61342 0.19238-0.39141-0.97585 0.68594  0 411.18 103.18  212.10 411.43 103.44  212.09
  -4  -2   4  4563.8   174.2   1-0.67564 0.16563-0.24632 0.04763-0.69486 0.98504  0 189.97 141.76   65.04 189.98 141.79   65.28
  -4  -2   4  5276.7   204.9   2 0.01876-0.52887-0.99979 0.80066 0.00828 0.28151  0 347.79  83.34  110.57 347.86  83.54  110.55
  -4   2  -4  5080.7   242.4   1-0.59939 0.08883-0.78695 0.98568-0.14642-0.14333  0 474.20 156.83  110.92 474.38 156.86  110.78
  -4   2  -4  5066.1   156.3   2 0.12937-0.63941-0.13527 0.33426-0.98233 0.69241  2 503.29 226.47  192.98 503.67 226.50  193.18
  -4   2  -4  4670.3   163.2   2-0.17810-0.33152 0.93849-0.73955 0.29582-0.58581  0 388.31  92.95  309.51 388.72  93.42  309.47
  -4   2   4  5624.2   215.0   2-0.15103-0.35895-0.58455 0.78351 0.79718-0.50722  0 334.07  82.17   56.64 334.21  82.37   56.53
  -4   2   4  4614.6   200.8   2-0.09657-0.41321 0.97885-0.77982-0.18036 0.47025  2 504.04 286.97  281.28 504.21 287.08  281.40
   4  -2  -4  5020.6   198.0   2 0.01219 0.49791-0.99889 0.79975 0.04559-0.33538  0 258.23 421.68  108.23 258.35 421.39  108.39
   4  -2  -4  5064.9   172.1   2 0.06416 0.44581 0.47711-0.67614-0.87650 0.58659  0 145.02 244.13  229.74 145.07 244.00  229.59
   4  -2   4  5083.5   203.4   1-0.21295 0.72362-0.87245 0.67369 0.43987-0.15004  0 163.98 336.68  152.05 163.82 336.60  152.20
   4  -2   4  5123.8   131.6   2-0.21767 0.72751-0.10672-0.09215 0.97017-0.67988  0 210.16 393.92   26.88 210.02 393.68   26.84
   4  -2   4  5236.0   129.1   2 0.03456 0.47554-0.99595 0.79682-0.08295 0.37274  0 148.36 294.44  115.93 148.26 294.40  115.87
   4   2  -4  5049.1   223.9   1-0.28463 0.79459 0.51757-0.31895-0.80691 0.51662  0 434.07 399.54   13.74 434.29 399.39   14.02
   4   2  -4  4937.9   168.9   2 0.13210 0.37794-0.56294 0.76193-0.81587 0.52595  0 245.95 416.17  166.63 245.78 415.94  166.63
   4   2  -4  4535.0   154.8   2-0.09983 0.60962 0.98153-0.78250-0.16319-0.12670  0 144.46 256.44  282.30 144.44 256.35  282.41
   4   2   4  5138.0    95.2   2-0.23597 0.74580 0.17431 0.02456 0.95600-0.66571  0 155.90 319.97   10.55 155.79 319.78   10.62
   4   2   4  4662.6    91.2   2-0.18893 0.69855 0.91017-0.71123 0.36863-0.07865  0 189.42 374.48  314.04 189.46 374.23  314.01
  -4  -2  -5  6477.5   250.2   1-0.15030-0.35966 0.65438-0.85299-0.74108 0.37821  0 134.70 236.91    2.36 134.65 237.05    2.40
  -4  -2  -5  6511.0   180.2   2 0.07844-0.58841 0.38816-0.58719-0.91825 0.55586  0 406.29  81.86  223.95 406.50  82.09  223.90
  -4  -2   5  6082.2   200.0   1-0.69623 0.18621-0.39365 0.19497-0.60025 0.96297  0 186.21 127.93   75.25 186.13 127.92   75.38
  -4  -2   5  6295.5   248.1   2 0.00963-0.51973-0.99816 0.79903 0.05986 0.30238  0 333.66  66.85  107.57 333.76  67.04  107.56
  -4   2  -5  6005.2   286.9   1-0.60745 0.09689-0.77693 0.97566-0.16547-0.19672  2 503.07 165.55  109.50 503.40 165.40  109.47
  -4   2  -5  5457.6   195.3   2-0.15696-0.35266 0.97433-0.77539 0.16136-0.52384  0 385.42  74.61  301.30 385.62  74.89  301.38
  -4   2   5  7249.1   263.4   2-0.13880-0.37118-0.64365 0.84261 0.75263-0.39018  0 320.73  66.94   61.00 320.96  67.16   60.84
   4  -2  -5  6690.5   245.0   2 0.02261 0.48749-0.99965 0.80052-0.01364-0.34860  0 269.64 440.16  111.82 269.63 439.93  111.83
   4  -2  -5  6811.8   215.3   2 0.05004 0.45993 0.55603-0.75507-0.82965 0.46726  0 135.32 229.62  235.43 135.31 229.56  234.91
   4  -2   5  5901.3   233.6   1-0.22265 0.73332-0.87534 0.67658 0.42919-0.06691  0 146.94 327.40  151.21 146.80 327.35  151.35
   4  -2   5  5875.6   157.6   2-0.23181 0.74164 0.08915-0.28803 0.96867-0.60581  0 211.85 411.36   15.62 211.71 411.11   15.56
   4  -2   5  6230.6   155.6   2 0.01639 0.49371-0.99961 0.80048 0.02242 0.33982  0 135.36 287.23  109.83 135.26 287.21  109.73
   4   2  -5  5788.9   243.1   1-0.34007 0.85003 0.45108-0.25246-0.82515 0.46228  0 439.83 417.67   19.01 440.01 417.56   19.10
   4   2  -5  6446.0   222.3   2 0.12803 0.38201-0.63399 0.83298-0.76267 0.40027  0 257.35 436.02  161.42 257.49 435.70  161.54
   4   2  -5  5587.8   187.9   2-0.09458 0.60437 0.97705-0.77802-0.19085-0.17151  0 133.89 240.90  280.80 133.87 240.85  280.78
   4   2   5  6634.9   136.0   2-0.21558 0.72542-0.12933 0.32820 0.96788-0.60503  0 139.76 307.92   28.09 139.69 307.75   28.15
   4   2   5  5733.6   129.9   2-0.18680 0.69642 0.91653-0.71758 0.35366 0.00882  0 193.95 396.64  313.14 193.98 396.40  313.06
  -4  -2  -6  8338.8   232.3   2 0.05977-0.56974 0.50290-0.70194-0.86227 0.42741  0 401.47  57.68  231.23 401.74  57.95  231.29
  -4  -2   6  7447.6   228.1   1-0.69571 0.18569-0.52317 0.32449-0.49222 0.92748  0 180.15 112.55   84.59 180.15 112.60   85.04
  -4  -2   6  8110.2   300.2   2 0.00079-0.51089-0.99418 0.79505 0.10775 0.32694  0 319.20  48.49  104.77 319.34  48.72  104.76
  -4   2  -6  7144.5   240.0   2-0.13870-0.37109 0.98889-0.78986 0.05344-0.48827  0 382.04  52.71  295.08 382.10  52.89  295.06
  -4   2   6  8243.2   299.9   2-0.13042-0.37955-0.68102 0.87998 0.72056-0.28562  0 306.88  49.72   63.76 307.10  49.93   63.70
   4  -2  -6  8078.0   291.8   2 0.03200 0.47810-0.99718 0.79805-0.06789-0.36680  0 281.67 461.71  115.30 281.61 461.38  114.99
   4  -2  -6  7800.4   244.4   2 0.03973 0.47024 0.60739-0.80643-0.79341 0.35854  0 124.36 214.40  238.72 124.10 214.37  238.56
   4  -2   6  7383.0   272.3   1-0.22504 0.73571-0.87601 0.67725 0.42658 0.00817  0 128.91 318.21  151.00 128.74 318.20  151.14
   4  -2   6  7871.2   200.0   2-0.23796 0.74779 0.22768-0.42655 0.94421-0.50879  0 213.54 431.74    7.43 213.36 431.51    7.47
   4  -2   6  8132.0   194.4   2 0.00125 0.50885-0.99445 0.79532 0.10523 0.32946  0 120.64 279.28  104.95 120.32 279.27  104.91
   4   2  -6  7582.6   286.3   1-0.38613 0.89609 0.39004-0.19143-0.83593 0.40048  0 448.98 438.75   23.48 449.22 438.68   23.52
   4   2  -6  8056.5   277.9   2 0.12471 0.38533-0.67683 0.87582-0.72550 0.29062  0 269.55 458.22  158.20 269.58 457.99  158.28
   4   2  -6  6984.7   229.4   2-0.08874 0.59853 0.97116-0.77213-0.22132-0.21351  0 122.31 225.06  278.92 122.01 224.99  278.97
   4   2   6  8247.4   176.1   2-0.19574 0.70558-0.30744 0.50631 0.93122-0.49579  0 123.31 297.41   38.64 122.95 297.20   38.64
   4   2   6  7281.3   170.6   2-0.18846 0.69808 0.91158-0.71263 0.36539 0.06958  0 196.98 419.67  313.88 197.00 419.37  313.80
  -4  -2  -7  1132.6   152.1   2 0.04724-0.55721 0.57016-0.76919-0.82018 0.31283  0 397.66  30.23  235.72 397.50  30.58  235.89
  -4  -2   7  1075.3   130.1   1-0.67720 0.16719-0.63115 0.43247-0.37821 0.88601  0 172.14  95.32   94.24 172.07  95.34   94.10
  -4  -2   7  1160.0   196.7   2-0.00778-0.50232-0.98814 0.78901 0.15337 0.35376  0 304.26  28.02  102.29 304.39  28.16  102.08
  -4   2  -7 965.472 160.892   2-0.12314-0.38664 0.99174-0.79271-0.03601-0.47130  0 378.74  26.91  289.63 378.39  27.23  289.86
  -4   2   7  1158.6   188.3   2-0.12503-0.38495-0.70381 0.90277 0.69929-0.19187  0 292.24  30.81   65.58 292.49  30.33   65.52
   4  -2  -7  1154.2   142.9   2 0.03266 0.47731 0.64034-0.83938-0.76740 0.26005  0 111.28 198.26  241.35 111.21 198.23  241.01
   4  -2   7  1075.7   156.6   1-0.22186 0.73253-0.87511 0.67635 0.43007 0.07714  0 109.65 308.98  151.36 109.24 309.00  151.42
   4  -2   7  1101.5   121.8   2-0.01180 0.52190-0.98459 0.78546 0.17446 0.33267  0 103.51 271.10  100.76 103.29 270.98  100.83
   4   2  -7 835.429 183.761   1-0.42265 0.93261 0.33778-0.13916-0.84100 0.33298  0 461.80 463.86   26.94 462.00 463.72   27.19
   4   2  -7 859.539 166.622   2 0.12240 0.38764-0.70216 0.90115-0.70142 0.19406  0 282.48 483.42  156.21 282.32 483.57  156.27
   4   2  -7  1110.2   140.6   2-0.08245 0.59223 0.96380-0.76477-0.25356-0.25374  0 108.69 208.49  277.36 108.58 208.47  277.04
   4   2   7  1142.9   115.3   2-0.18094 0.69078-0.41362 0.61249 0.89229-0.38429  0 104.97 287.63   45.01 104.77 287.39   45.17
   4   2   7 987.071 103.578   2-0.19164 0.70126 0.90170-0.70275 0.38758 0.11990  0 198.80 444.57  315.09 198.82 444.40  315.21
  -4  -2   8 947.786 136.765   1-0.64503 0.13446-0.71662 0.51789-0.26532 0.84481  0 161.94  75.33  102.42 162.05  75.47  102.45
  -4   2   8  1063.2   231.0   2-0.12191-0.38807-0.71644 0.91540 0.68692-0.10700  2 276.70   8.55   66.58 276.84   7.83   66.55
   4  -2  -8 946.559 151.217   2 0.02810 0.48187 0.66045-0.85949-0.75034 0.17052  0  96.63 180.93  242.59  96.23 180.85  242.54
   4  -2   8 944.741 161.066   1-0.21433 0.72500-0.87286 0.67410 0.43838 0.14128  0  88.06 299.58  152.33  87.89 299.57  152.08
   4  -2   8 787.966 111.892   2-0.02337 0.53335-0.97158 0.77262 0.23554 0.34437  0  84.31 262.11   97.29  83.95 262.29   97.17
   4  -2   8 803.960 130.698   2-0.24138 0.75100 0.38352-0.58235 0.89143-0.31122  0 215.48 482.35  357.63 215.11 482.41  357.79
   4   2  -8 752.630 211.365   1-0.45023 0.96019 0.29563-0.09701-0.84255 0.26196  0 478.64 493.86   30.03 478.76 494.01   30.08
   4   2  -8 897.838 151.557   2-0.07589 0.58568 0.95489-0.75586-0.28711-0.29267  0  93.38 190.72  275.41  93.15 190.95  275.01
   4   2   8  1157.0   134.5   2-0.17078 0.68062-0.47764 0.67651 0.86180-0.28122  0  84.80 278.04   49.27  84.62 278.03   49.28
   4   2   8 980.271 123.395   2-0.19549 0.70511 0.88858-0.68964 0.41497 0.16499  0 199.46 472.43  316.93 199.40 472.47  316.97
  -4  -2   9  4204.8   244.6   1-0.60284 0.09228-0.78275 0.58402-0.15455 0.80648  0 149.57  51.88  110.19 149.71  52.15  110.23
   4  -2  -9  4356.2   273.5   2 0.02558 0.48439 0.67134-0.87037-0.74071 0.08841  0  78.77 161.85  243.43  78.71 161.83  243.38
   4  -2   9  4549.8   295.4   1-0.20309 0.71376-0.86945 0.67069 0.45034 0.20178  0  64.32 289.72  153.20  64.03 289.66  153.04
   4  -2   9  4534.7   210.4   2-0.03431 0.54428-0.95607 0.75711 0.29111 0.36130  0  61.94 253.71   93.84  61.69 253.60   93.81
   4   2  -9  3352.0   256.8   2-0.06902 0.57881 0.94440-0.74537-0.32149-0.33076  0  75.50 171.92  272.77  75.21 171.98  272.91
   4   2   9  4807.6   209.0   2-0.16389 0.67387-0.51538 0.71434 0.84114-0.18874  0  62.14 269.30   51.78  61.80 269.13   51.78
   4   2   9  3745.8   236.5   2-0.19966 0.70928 0.87278-0.67383 0.44541 0.20705  2 198.76 504.47  318.92 198.50 504.71  318.95
  -4  -2  10  4184.9   278.9   1-0.55395 0.04339-0.83110 0.63237-0.04908 0.77345  0 134.98  24.04  117.36 135.01  24.15  117.44
   4  -2 -10  4363.8   312.5   2 0.02469 0.48528 0.67524-0.87427-0.73719 0.01241  0  58.23 140.56  243.85  57.90 140.62  243.69
   4  -2  10  4037.7   300.9   1-0.18883 0.69950-0.86473 0.66597 0.46538 0.25919  0  37.05 279.06  154.20  36.90 278.96  154.25
   4  -2  10  3862.7   220.8   2-0.04484 0.55481-0.93820 0.73924 0.34318 0.38172  0  36.09 244.85   90.64  35.80 244.77   90.59
   4   2 -10  3799.1   297.3   2-0.06190 0.57169 0.93224-0.73321-0.35652-0.36821  0  54.24 150.98  270.73  53.96 151.01  270.75
   4   2  10  4174.2   221.5   2-0.16017 0.67015-0.53594 0.73490 0.82892-0.10403  0  35.89 260.31   53.15  35.46 260.36   53.17
  -4  -3   0 -59.257  67.522   1-0.48316-0.02680 0.24161-0.53954-0.84154 0.84154  0 164.68 198.26   33.43 164.80 198.46   33.70
  -4  -3   0  10.510  53.823   2-0.20446-0.30538-0.23539-0.06292 0.95015-0.95015  0 487.84 222.04   33.94 487.89 221.83   34.36
  -4  -3   0  -3.963  59.212   2 0.11326-0.62329-0.77854 0.48005-0.61730 0.61730  0 388.98 106.65  150.08 389.20 106.64  149.73
  -4   3   0  43.793  76.229   1-0.68667 0.17666-0.58970 0.88773-0.42513 0.42513  0 383.16 104.02   90.47 383.07 104.01   90.48
  -4   3   0 -78.952  71.081   2-0.23624-0.27359 0.18107 0.11724 0.95467-0.95467  0 361.76  98.30   10.48 362.24  97.83   10.22
  -4   3   0   0.172  76.493   2 0.03262-0.54258 0.64053-0.34198-0.76724 0.76724  0 491.55 252.10  240.42 491.76 252.00  241.02
   4  -3   0 -51.032  49.737   1-0.15520 0.66587-0.85225 0.55412 0.49958-0.49958  0 226.60 394.27  157.54 226.48 393.81  157.09
   4  -3   0  66.962  54.952   2-0.10792 0.61790-0.76936 0.47092 0.62963-0.62963  0 233.98 398.90   71.10 233.96 398.69   71.10
   4  -3   0  65.950  46.540   2 0.13571 0.37433-0.35311 0.05462-0.92569 0.92569  0 153.53 271.17  180.43 153.45 271.44  180.23
   4   3   0  23.095  37.421   2 0.06468 0.44529 0.47434-0.17579-0.87796 0.87796  0 210.08 381.65  229.49 210.29 381.68  229.42
   4   3   0   2.212  33.676   2-0.18960 0.69922 0.90814-0.60972 0.37328-0.37328  0 158.22 298.22  314.48 158.07 298.46  314.30
  -4  -3  -1 22078.3   381.8   1-0.42380-0.08616 0.33606-0.63399-0.84110 0.76853  0 159.71 208.58   27.17 159.77 208.64   27.31
  -4  -3  -1 21382.1   395.8   1 0.00767-0.51834-0.76490 0.46676 0.64410-0.71656  0 480.99 193.01  170.67 481.25 193.05  170.55
  -4  -3  -1 23534.1   252.1   2-0.16334-0.34664-0.51850 0.22006 0.83933-0.91182  0 487.71 213.84   51.96 487.99 214.01   51.98
  -4  -3  -1 21818.2   245.5   2 0.12853-0.63857-0.62682 0.32834-0.76849 0.69601  0 396.51 107.75  162.01 396.84 107.94  162.07
  -4  -3   1 21767.4   363.2   1-0.54239 0.03243 0.13204-0.42997-0.82969 0.90226  0 167.89 187.93   40.98 167.93 187.95   40.87
  -4  -3   1 21789.7   270.6   2-0.22860-0.28124 0.03373-0.33204 0.97294-0.90036  0 492.09 233.31   18.92 492.37 233.54   18.75
  -4  -3   1 21901.8   277.2   2 0.09518-0.60529-0.87249 0.57380-0.47927 0.55171  0 379.25 100.63  140.01 379.24 100.72  140.08
  -4   3  -1 19828.0   303.8   1-0.67311 0.16309-0.64550 0.94353-0.36091 0.28836  0 407.00 112.63   95.36 407.09 113.01   95.41
  -4   3  -1 20509.5   282.9   2 0.06220-0.57217 0.48859-0.19003-0.87030 0.79782  0 493.52 246.04  230.21 493.64 246.16  230.35
  -4   3  -1 22903.1   300.6   2-0.24131-0.26831 0.39641-0.09817 0.88579-0.95832  0 367.86  97.21  356.99 367.89  97.52  356.98
  -4   3   1 19181.8   216.5   1-0.69824 0.18823-0.46903 0.76706-0.54081 0.61335  0 357.18  94.52   80.97 356.97  94.81   80.87
  -4   3   1 24195.5   322.3   2-0.22424-0.28559-0.02659 0.32490 0.97417-0.90160  0 354.35  94.09   22.03 354.41  94.35   22.21
  -4   3   1 19088.8   292.1   2 0.00357-0.51335 0.75780-0.45926-0.65248 0.72495  0 494.00 261.16  250.75 493.98 261.29  250.59
   4  -3  -1 23489.0   231.7   1-0.02235 0.53302-0.78422 0.48608 0.62009-0.69254  0 247.81 407.68  168.03 247.54 407.51  168.09
   4  -3  -1 21681.6   287.0   2-0.08064 0.59061-0.85570 0.55726 0.51115-0.58364  0 240.95 404.43   79.72 240.75 404.19   79.65
   4  -3  -1 23136.0   293.6   2 0.12932 0.38072-0.13426-0.16422-0.98247 0.90999  0 151.73 264.05  193.07 151.72 263.87  193.24
   4  -3   1 21018.4   295.5   1-0.22445 0.73512-0.87584 0.57770 0.42723-0.35477  0 208.59 381.74  150.94 208.35 381.66  151.20
   4  -3   1 23526.6   275.7   2-0.13797 0.64794-0.64745 0.34901 0.74951-0.67702  0 228.89 397.43   61.03 228.73 397.21   61.13
   4  -3   1 20731.3   258.8   2 0.13191 0.37813-0.56601 0.26752-0.81378 0.88626  0 152.67 276.68  166.30 152.65 276.55  166.42
   4   3  -1 21761.6   387.9   1-0.14353 0.65349 0.66039-0.36246-0.73708 0.66451  0 468.33 346.96    2.03 468.46 346.81    1.83
   4   3  -1 22176.3   248.0   2 0.10515 0.40481 0.17642 0.12214-0.97868 0.90621  0 219.05 390.70  211.05 218.94 390.36  211.15
   4   3  -1 18872.9   228.4   2-0.17244 0.68206 0.95046-0.65204 0.25863-0.33112  0 154.29 287.91  307.14 154.36 287.76  307.21
   4   3   1 21083.7   200.4   2 0.00769 0.50228 0.74297-0.44441-0.66929 0.74176  0 203.47 377.72  249.25 203.39 377.42  249.28
   4   3   1 19177.6   191.4   2-0.21018 0.71980 0.82444-0.52602 0.52547-0.45297  0 158.85 306.42  324.40 158.94 306.28  324.35
  -4  -3  -2  4622.0   205.8   1-0.36800-0.14196 0.41462-0.71254-0.83227 0.68712  0 152.88 218.55   21.80 152.97 218.58   21.76
  -4  -3  -2  4928.9   247.9   1-0.05936-0.45131-0.80614 0.50800 0.58874-0.73366  0 492.61 205.04  165.08 492.82 205.09  165.05
  -4  -3  -2  4681.3   139.5   2-0.11486-0.39511-0.74377 0.44533 0.65849-0.80347  0 493.69 210.86   68.84 494.00 210.97   68.84
  -4  -3  -2  4278.3   138.0   2 0.13593-0.64597-0.41575 0.11726-0.89926 0.75430  0 401.10 103.63  176.32 401.38 103.86  176.34
  -4  -3   2  4346.5   184.1   1-0.59711 0.08715 0.01053-0.30846-0.80209 0.94724  0 169.08 176.97   48.67 169.11 176.96   48.66
  -4  -3   2  3996.6   160.4   2-0.23845-0.27138 0.24467-0.54298 0.93983-0.79468  0 500.42 247.92    6.47 500.59 248.08    6.46
  -4  -3   2  4352.8   173.6   2 0.07856-0.58866-0.92929 0.63059-0.36091 0.50581  0 367.85  91.64  132.37 367.82  91.74  132.50
  -4   3  -2  4181.4   209.4   1-0.66383 0.15382-0.67354 0.97157-0.32506 0.17998  0 431.30 121.21   98.03 431.34 121.52   98.07
  -4   3  -2  4048.4   158.2   2 0.08899-0.59896 0.31291-0.01435-0.94561 0.80065  0 500.09 243.90  219.17 500.18 244.04  219.27
  -4   3  -2  4187.4   169.8   2-0.23582-0.27379 0.59148-0.29306 0.77106-0.91605  0 371.56  92.65  343.99 371.52  92.86  343.96
  -4   3   2  4331.9    71.2   1-0.30888-0.20108 0.48939-0.19146-0.81553 0.96068  0 280.00  91.76   16.03 280.24  92.01   16.22
  -4   3   2  4043.4    70.4   1-0.63359 0.12358-0.08943 0.38746-0.76848 0.91357  0 319.41  86.24   55.28 319.24  86.51   55.06
  -4   3   2  4642.6   189.6   2-0.20822-0.30161-0.20142 0.49973 0.95712-0.81197  0 344.92  87.47   32.13 345.00  87.64   32.36
  -4   3   2  3875.0   181.9   2-0.02288-0.48691 0.84219-0.54364-0.53870 0.68364  0 500.06 273.47  259.51 500.08 273.54  258.86
   4  -3  -2  4616.3   164.9   2-0.05718 0.56716-0.91352 0.61508 0.40275-0.54773  0 249.03 413.40   86.91 248.81 413.16   86.83
   4  -3  -2  4390.7   155.0   2 0.11620 0.39376 0.05984-0.35839-0.99142 0.84647  0 147.83 254.45  204.31 147.82 254.36  204.39
   4  -3   2  4162.9   173.8   1-0.26288 0.77344-0.88525 0.58716 0.38370-0.23883  0 191.48 370.71  147.93 191.37 370.52  147.82
   4  -3   2  4499.0   140.5   2-0.16803 0.67801-0.49245 0.19401 0.85397-0.70899  0 225.35 400.28   50.11 225.20 400.17   50.25
   4  -3   2  4435.5   133.9   2 0.11829 0.39175-0.73977 0.44128-0.66238 0.80734  0 149.06 278.88  153.02 149.00 278.73  153.15
   4   3  -2  4099.8   227.5   1-0.20777 0.71773 0.60004-0.30212-0.77252 0.62737  0 466.38 360.66    7.09 466.52 360.61    7.28
   4   3  -2  4532.1   143.2   2 0.12608 0.38396-0.07560 0.37409-0.98914 0.84418  0 228.58 402.41  196.62 228.43 402.10  196.63
   4   3  -2  3834.3   129.5   2-0.15836 0.66798 0.97263-0.67421 0.17003-0.31502  0 148.63 275.62  302.00 148.67 275.53  301.89
   4   3   2  4028.1    98.8   2-0.04894 0.55873 0.90669-0.60815-0.41895 0.56389  0 199.17 379.41  266.89 199.19 379.22  266.81
   4   3   2  3966.6    96.3   2-0.23022 0.73984 0.66968-0.37126 0.70606-0.56107  0 155.79 309.66  338.10 155.85 309.50  338.11
  -4  -3  -3  8216.2   264.8   1-0.31827-0.19169 0.47807-0.77599-0.81863 0.60091  0 144.31 228.41   17.04 144.41 228.45   17.08
  -4  -3  -3  8040.3   190.9   2-0.07038-0.43959-0.88261 0.58417 0.46481-0.68228  2 505.49 212.53   82.79 506.01 212.66   82.79
  -4  -3  -3  7808.4   176.3   2 0.13141-0.64145-0.17839-0.12010-0.97514 0.75770  0 402.44  93.86  190.78 402.79  94.11  190.66
  -4  -3   3  7175.7   231.0   1-0.64269 0.13267-0.11784-0.18019-0.75701 0.97464  0 168.25 165.31   56.88 168.28 165.33   56.89
  -4  -3   3  7542.5   224.5   2 0.06364-0.57375-0.96306 0.66436-0.26165 0.47900  0 355.54  80.06  126.25 355.56  80.28  126.43
  -4   3  -3  7001.7   251.5   1-0.65868 0.14866-0.68678 0.98481-0.30737 0.08973  0 456.82 129.45   99.36 456.94 129.65   99.37
  -4   3  -3  7397.5   210.5   2-0.22265-0.28697 0.74320-0.44478 0.63093-0.84842  0 373.11  83.67  332.06 373.07  83.94  332.05
  -4   3   3  8717.1   252.9   2-0.19193-0.31791-0.33656 0.63487 0.92189-0.70418  0 334.33  77.98   40.21 334.43  78.19   40.41
   4  -3  -3  8130.2   233.5   2-0.03735 0.54732-0.95120 0.65276 0.30631-0.52377  0 257.74 425.44   93.37 257.86 425.15   92.87
   4  -3  -3  7970.7   209.2   2 0.10084 0.40913 0.21560-0.51416-0.97126 0.75383  0 142.04 243.40  213.42 142.03 243.32  213.45
   4  -3   3  7085.5   229.8   1-0.28350 0.79407-0.88910 0.59100 0.35935-0.14204  0 174.63 360.39  146.00 174.56 360.26  145.98
   4  -3   3  7712.4   177.3   2-0.19422 0.70405-0.31925 0.02094 0.92755-0.70984  0 223.41 407.71   39.23 223.23 407.45   39.36
   4  -3   3  7600.5   172.8   2 0.09792 0.41218-0.86052 0.56182-0.49992 0.71726  0 142.52 278.22  141.48 142.49 278.17  141.46
   4   3  -3  6829.6   261.9   1-0.26708 0.77704 0.53770-0.23978-0.79971 0.58199  0 467.75 375.68   12.39 467.90 375.67   12.45
   4   3  -3  7847.2   196.5   2 0.13417 0.37587-0.26139 0.55987-0.95586 0.73842  0 238.76 416.63  185.83 238.54 416.32  185.76
   4   3  -3  6242.6   173.7   2-0.14630 0.65609 0.98444-0.68589 0.09738-0.31480  0 141.41 262.47  297.77 141.40 262.37  297.64
   4   3   3  6984.5   131.1   2-0.09040 0.60019 0.97294-0.67439-0.21266 0.43008  0 197.72 387.67  279.55 197.69 387.42  279.48
   4   3   3  7183.4   131.6   2-0.24085 0.75047 0.44694-0.14870 0.86153-0.64396  0 148.56 308.10  353.80 148.60 307.95  353.77
  -4  -3  -4 281.520 105.346   1-0.27582-0.23414 0.52795-0.82587-0.80324 0.51294  0 133.92 238.24   13.16 134.10 238.38   13.23
  -4  -3  -4 256.121  85.028   2 0.11811-0.62808 0.03628-0.33483-0.99234 0.70243  0 401.93  79.16  203.02 401.88  79.39  203.04
  -4  -3   4 272.115  91.848   1-0.67572 0.16570-0.24668-0.05135-0.69466 0.98484  0 165.48 152.67   65.36 165.39 152.83   65.30
  -4  -3   4 274.034 109.447   2 0.05023-0.56033-0.98294 0.68424-0.17695 0.46674  0 342.75  66.46  121.35 342.77  66.61  121.38
  -4   3  -4 208.021 149.516   1-0.65662 0.14606-0.69111 0.98920-0.30203 0.01228  0 484.82 137.46   99.91 484.99 137.37   99.81
  -4   3  -4 355.436 103.521   2-0.20532-0.30430 0.84853-0.55011 0.48770-0.77768  0 373.10  70.59  321.59 372.89  70.87  321.77
  -4   3   4 302.205 120.038   2-0.17749-0.33235-0.43587 0.73418 0.88233-0.59205  0 323.03  66.21   46.45 322.87  66.32   46.58
   4  -3  -4 418.048 118.760   2-0.02050 0.53048-0.97515 0.67671 0.22058-0.51054  0 267.66 440.22   98.39 267.77 440.07   98.06
   4  -3  -4 321.052  78.310   2 0.08628 0.42368 0.33344-0.63199-0.93882 0.64890  0 134.74 231.17  220.40 134.56 231.03  220.52
   4  -3   4 314.011 104.344   1-0.29294 0.80350-0.89054 0.59244 0.34804-0.05829  0 157.53 350.50  145.40 157.48 350.55  145.14
   4  -3   4 301.533  72.311   2-0.21344 0.72328-0.15171-0.14660 0.96510-0.67482  0 222.69 419.08   29.46 222.46 419.04   29.45
   4  -3   4 411.916  68.104   2 0.07695 0.43315-0.93360 0.63490-0.34996 0.63975  0 133.32 275.42  131.63 133.26 275.18  131.82
   4   3  -4 211.986 146.826   1-0.31984 0.82980 0.47616-0.17824-0.81913 0.52883  0 472.61 392.74   18.26 472.61 392.47   17.22
   4   3  -4 281.177  88.938   2 0.13597 0.37407-0.39079 0.68927-0.91038 0.62046  0 249.00 433.20  178.55 249.08 432.96  177.91
   4   3  -4 351.301  79.612   2-0.13546 0.64525 0.99018-0.69163 0.03460-0.32449  0 132.87 248.77  294.55 132.76 248.56  293.97
   4   3   4 303.892  51.696   2-0.23725 0.74708 0.20819 0.09012 0.94888-0.65859  0 137.84 302.63    8.73 137.82 302.73    8.63
   4   3   4 296.035  55.881   2-0.11765 0.62744 0.99082-0.69228-0.06658 0.35647  0 197.79 400.94  288.30 197.91 400.78  288.07
  -4  -3  -5  1350.0   164.6   1-0.24090-0.26906 0.56613-0.86405-0.78833 0.42546  0 122.14 248.36   10.14 121.99 248.54   10.15
  -4  -3  -5  1313.0   159.5   2 0.10228-0.61224 0.20267-0.50122-0.97389 0.61150  0 399.63  60.33  212.75 399.79  60.52  212.69
  -4  -3   5  1216.3   138.6   1-0.69429 0.18427-0.36960 0.07157-0.61755 0.98027  0 160.35 139.06   73.64 160.39 139.19   73.68
  -4  -3   5  1346.1   169.9   2 0.03795-0.54805-0.99398 0.69528-0.10276 0.46500  0 329.45  50.72  116.66 329.44  50.87  117.02
  -4   3  -5  1226.2   142.7   2-0.18695-0.32267 0.91609-0.61767 0.35471-0.71719  0 371.24  53.73  313.26 371.43  53.88  313.12
  -4   3   5  1425.2   176.7   2-0.16555-0.34443-0.50594 0.80438 0.84653-0.48408  0 310.42  51.97   50.65 310.49  52.18   51.15
   4  -3  -5  1188.6   156.3   2-0.00604 0.51614-0.98955 0.69085 0.14404-0.50628  0 278.41 458.16  102.58 278.53 457.99  102.63
   4  -3  -5  1307.3   146.0   2 0.07362 0.43634 0.41932-0.71787-0.90485 0.54246  0 125.49 217.73  225.73 125.45 217.67  225.87
   4  -3   5  1093.8   145.1   1-0.29470 0.80526-0.89079 0.59269 0.34591 0.01628  0 139.75 341.27  144.68 139.72 341.24  144.98
   4  -3   5  1222.1   129.5   2-0.22575 0.73559-0.00639-0.29192 0.97416-0.61131  0 222.70 434.54   21.04 222.47 434.49   21.05
   4  -3   5  1216.4   111.3   2 0.05709 0.45301-0.97383 0.67513-0.21997 0.58221  0 121.81 270.44  124.00 121.56 270.45  123.93
   4   3  -5  1251.3   178.3   1-0.36513 0.87509 0.41856-0.12063-0.83156 0.46869  0 481.03 411.62   21.50 480.89 411.59   21.48
   4   3  -5  1421.2   153.5   2 0.13488 0.37516-0.47876 0.77724-0.86752 0.50512  0 260.25 452.16  172.17 260.13 452.19  172.29
   4   3  -5  1033.6   128.8   2-0.12558 0.63537 0.99183-0.69329-0.02228-0.34008  0 122.84 234.20  290.73 122.69 234.13  290.66
   4   3   5  1245.2    98.1   2-0.22690 0.73673 0.00870 0.28961 0.97388-0.61102  0 125.05 296.24   20.06 124.73 296.12   20.19
   4   3   5  1102.7   106.5   2-0.13618 0.64597 0.98993-0.69138 0.03877 0.32359  0 198.97 418.18  294.03 198.78 417.96  294.21
  -4  -3  -6 179.295 115.271   1-0.21327-0.29669 0.59454-0.89247-0.77526 0.33982  0 108.62 258.77    7.59 108.02 259.09    7.76
  -4  -3  -6 237.004 118.278   2 0.08783-0.59780 0.32166-0.62021-0.94277 0.50791  0 397.32  37.64  219.60 397.22  37.70  219.80
  -4  -3   6 283.229 109.859   1-0.69793 0.18791-0.48221 0.18418-0.52950 0.96476  0 153.50 124.18   81.72 153.33 124.09   81.87
  -4  -3   6 245.415 158.098   2 0.02648-0.53658-0.99900 0.70030-0.03612 0.47081  0 315.50  32.68  113.44 315.53  32.81  113.14
  -4   3  -6 160.861 135.213   2-0.16893-0.34069 0.95694-0.65852 0.23605-0.67103  0 369.05  32.88  304.49 369.27  32.95  305.84
  -4   3   6 102.413 151.085   2-0.15656-0.35342-0.55566 0.85409 0.81654-0.38160  0 296.85  36.19   55.11 297.21  35.53   54.52
   4  -3  -6 -10.471 133.131   2 0.00700 0.50310-0.99722 0.69852 0.07419-0.50888  0 290.04 479.77  106.54 290.27 479.31  106.72
   4  -3  -6 208.933  99.492   2 0.06353 0.44643 0.48080-0.77936-0.87452 0.43966  0 114.74 202.97  230.35 114.59 203.19  229.83
   4  -3   6 186.482 116.510   1-0.29087 0.80143-0.89024 0.59214 0.35053 0.08409  0 120.99 332.39  145.38 120.89 332.14  145.32
   4  -3   6 243.938  87.674   2-0.23292 0.74276 0.10974-0.40804 0.96628-0.53085  0 222.93 453.73   14.26 222.70 453.66   14.37
   4  -3   6 155.684  68.203   2 0.03900 0.47111-0.99327 0.69457-0.10903 0.54371  0 107.62 264.47  117.35 107.51 264.46  117.39
   4   3  -6  93.316 184.860   1-0.40255 0.91251 0.36695-0.06902-0.83863 0.40319  0 493.03 434.20   25.53 492.99 433.85   25.15
   4   3  -6 219.926 142.988   2 0.13314 0.37689-0.53822 0.83670-0.83222 0.39734  0 271.90 474.25  168.34 271.77 474.51  168.33
   4   3  -6 116.194  85.937   2-0.11614 0.62593 0.99040-0.69186-0.07492-0.35991  0 110.99 219.11  287.51 111.03 218.95  287.59
   4   3   6 194.491  66.094   2-0.21443 0.72427-0.14155 0.43986 0.96643-0.53100  0 109.50 288.77   28.78 109.47 288.69   28.86
   4   3   6 281.813  79.346   2-0.15028 0.66007 0.98118-0.68263 0.12128 0.31356  0 199.62 438.78  298.88 199.50 438.42  299.04
  -4  -3  -7 19091.4   451.3   1-0.19257-0.31739 0.61498-0.91291-0.76467 0.25665  0  92.26 270.25    6.00  91.92 270.31    5.98
  -4  -3  -7 19318.4   384.5   2 0.07603-0.58600 0.40363-0.70218-0.91176 0.40442  2 394.40  10.44  224.91 394.63  10.71  224.87
  -4  -3   7 17210.5   370.0   1-0.68831 0.17829-0.58077 0.28274-0.43467 0.94248  0 144.12 107.02   89.66 144.11 107.09   89.72
  -4  -3   7 18430.1   449.4   2 0.01588-0.52598-0.99955 0.70085 0.02532 0.48182  0 300.70  11.95  109.57 300.91  12.08  109.56
  -4   3  -7 16481.7   406.9   2-0.15197-0.35765 0.97962-0.68120 0.13132-0.63879  2 366.75   7.64  299.78 366.74   7.76  299.60
  -4   3   7 21005.5   490.7   2-0.15004-0.35994-0.58954 0.88798 0.79368-0.28626  0 282.68  15.90   56.86 282.91  16.13   56.88
   4  -3  -7 19451.5   413.4   2 0.05599 0.45398 0.52398-0.82254-0.84989 0.34254  0 102.08 187.47  232.76 101.76 187.45  232.71
   4  -3   7 16974.9   426.6   1-0.28273 0.79330-0.88897 0.59088 0.36027 0.14679  0 100.89 323.22  145.94 100.57 323.10  146.05
   4  -3   7 19154.5   351.9   2-0.23687 0.74671 0.19766-0.49596 0.95122-0.44322  0 222.99 476.90    9.13 222.78 476.71    9.25
   4  -3   7 18789.1   334.3   2 0.02257 0.48753-0.99966 0.70096-0.01342 0.52055  0  91.43 257.66  111.92  91.00 257.66  111.82
   4   3  -7 18893.9   436.2   2 0.13134 0.37869-0.57765 0.87614-0.80565 0.29829  0 284.14 501.01  165.54 284.22 500.66  165.60
   4   3  -7 16409.8   369.2   2-0.10703 0.61682 0.98640-0.68786-0.12471-0.38260  0  97.85 202.89  284.66  97.54 202.83  284.67
   4   3   7 19758.3   312.4   2-0.20289 0.71273-0.24870 0.54701 0.94709-0.43909  0  92.36 281.09   35.01  92.01 280.89   35.14
   4   3   7 17951.1   307.0   2-0.16161 0.67123 0.96835-0.66993 0.19022 0.31725  0 199.86 462.62  303.04 199.77 462.31  303.09
  -4  -3  -8 517.161 159.679   1-0.17813-0.33183 0.62879-0.92672-0.75689 0.17630  0  73.29 282.41    4.71  73.39 282.48    4.75
  -4  -3   8 509.915 143.584   1-0.66688 0.15687-0.66478 0.36675-0.33665 0.91700  0 132.61  87.72   97.27 132.68  87.60   97.22
   4  -3  -8 646.429 150.423   2 0.05056 0.45940 0.55328-0.85184-0.83146 0.25164  0  87.18 170.23  234.71  86.67 170.19  234.72
   4  -3   8 594.874 160.754   1-0.27118 0.78174-0.88688 0.58878 0.37404 0.20545  0  77.82 314.14  147.33  78.27 313.93  147.09
   4  -3   8 511.873 137.695   2-0.23901 0.74884 0.26164-0.55995 0.93510-0.35453  2 222.50 503.43    5.40 222.32 504.20    5.45
   4  -3   8 505.367 108.486   2 0.00769 0.50241-0.99749 0.69879 0.07039 0.50919  0  71.96 250.26  107.03  71.82 250.26  106.94
   4   3  -8 422.734 132.440   2-0.09809 0.60788 0.98012-0.68158-0.17243-0.40734  0  82.10 185.44  282.34  81.79 185.50  281.87
   4   3   8 415.792  92.361   2-0.19382 0.70365-0.32229 0.62060 0.92659-0.34601  0  72.07 273.12   39.50  71.99 272.99   39.54
   4   3   8 429.103 116.187   2-0.17124 0.68086 0.95275-0.65433 0.25090 0.32907  0 199.17 490.13  306.56 198.99 490.08  306.74
  -4  -3  -9 143.667 163.064   1-0.16929-0.34067 0.63705-0.93497-0.75200 0.09884  0  51.85 295.93    4.64  51.88 295.92    4.00
  -4  -3   9 463.918 154.636   1-0.63609 0.12553-0.73350 0.43540-0.23951 0.89144  0 119.29  65.31  104.31 118.97  64.71  104.29
   4  -3  -9 198.516 160.644   2 0.04689 0.46308 0.57196-0.87051-0.81894 0.16664  0  68.47 151.13  237.30  68.73 151.02  236.02
   4  -3   9 265.695 156.797   1-0.25666 0.76722-0.88394 0.58585 0.39086 0.26107  0  53.17 304.48  148.15  53.29 304.39  148.37
   4  -3   9 276.366 108.074   2-0.00635 0.51646-0.98930 0.69060 0.14573 0.50630  0  49.57 242.36  102.56  49.32 242.40  102.53
   4   3  -9 247.006 144.927   2-0.08925 0.59904 0.97171-0.67317-0.21866-0.43359  0  63.23 166.55  279.45  63.26 166.52  279.13
   4   3   9 269.381  98.504   2-0.18716 0.69700-0.37141 0.66972 0.90941-0.25627  0  48.74 264.78   42.67  48.83 265.07   42.54
  -4  -3 -10  1328.8   214.3   1-0.16548-0.34448 0.64056-0.93849-0.74986 0.02412  0  26.80 311.20    3.71  26.64 311.21    3.68
  -4  -3  10  1365.8   216.3   1-0.59769 0.08713-0.78896 0.49087-0.14250 0.86686  0 102.27  37.26  111.10 102.18  37.15  111.06
   4  -3 -10  1438.5   224.7   2 0.04481 0.46515 0.58240-0.88096-0.81167 0.08689  0  47.65 129.42  236.74  47.17 129.32  236.76
   4  -3  10  1348.9   220.2   1-0.23960 0.75027-0.87986 0.58172 0.41041 0.31416  0  24.99 294.16  150.11  24.52 294.25  149.88
   4  -3  10  1000.4   147.1   2-0.01941 0.52938-0.97644 0.67800 0.21492 0.50997  0  23.13 233.77   98.47  22.79 233.92   98.40
   4   3 -10  1152.8   202.7   2-0.08045 0.59023 0.96122-0.66268-0.26377-0.46095  0  40.57 145.32  276.39  41.08 145.32  276.42
   4   3  10  1105.3   143.4   2-0.18260 0.69244-0.40254 0.70085 0.89701-0.17129  0  21.92 257.22   44.49  21.71 257.18   44.48
  -4  -4   0  8565.7   268.8   1-0.53068 0.02072 0.15532-0.55255-0.83322 0.83322  0 143.30 208.78   39.32 143.45 208.77   39.37
  -4  -4   0  8065.7   220.1   2 0.12400-0.63404-0.68473 0.28675-0.71817 0.71817  0 376.51  76.75  157.80 376.56  76.92  157.66
  -4   4   0  7811.5   206.2   1-0.69392 0.18390-0.36464 0.76201-0.62090 0.62090  0 393.11  81.38   73.28 393.29  81.68   73.34
  -4   4   0  9130.7   254.7   2-0.23766-0.27217 0.22099 0.17676 0.94587-0.94588  0 344.99  71.44    7.96 345.03  71.72    7.86
   4  -4   0  8275.5   190.9   1-0.28195 0.79251-0.88884 0.49138 0.36120-0.36120  0 218.86 411.44  145.99 218.68 411.29  146.12
   4  -4   0  8297.3   215.4   2-0.12827 0.63825-0.69015 0.29223 0.71221-0.71221  0 247.77 427.93   64.28 247.56 427.71   64.42
   4  -4   0  9017.9   217.8   2 0.13570 0.37434-0.35190-0.04608-0.92615 0.92615  0 136.27 251.17  180.13 136.24 251.06  180.30
   4   4   0  8548.5   188.6   2 0.07116 0.43880 0.43453-0.03645-0.89784 0.89784  0 219.93 412.68  226.89 219.80 412.30  226.84
   4   4   0  7523.9   173.5   2-0.21447 0.72409 0.80000-0.40210 0.56036-0.56036  0 137.32 279.91  326.96 137.40 279.83  326.82
  -4  -4  -1  3122.5   190.9   1-0.48322-0.02674 0.24151-0.63874-0.84153 0.76896  0 139.49 219.10   33.91 139.58 219.11   33.71
  -4  -4  -1  2523.6   167.3   2 0.13257-0.64260-0.55243 0.15445-0.82295 0.75047  0 383.04  76.75  167.36 383.27  76.82  167.35
  -4  -4   1  3070.2   186.8   1-0.57665 0.06669 0.05883-0.45606-0.81487 0.88745  0 145.38 198.22   45.52 145.40 198.16   45.57
  -4  -4   1  2810.9   178.5   2 0.11162-0.62173-0.78598 0.38772-0.60809 0.68054  0 368.05  72.95  148.99 368.08  72.97  149.03
  -4   4  -1  2782.6   189.0   1-0.69828 0.18826-0.46325 0.86062-0.54572 0.47318  0 419.15  90.22   80.42 419.22  90.50   80.44
  -4   4  -1  3094.7   194.4   2-0.24138-0.26825 0.38512 0.01254 0.89074-0.96327  0 350.19  70.30  357.75 350.15  70.57  357.70
  -4   4   1  2542.8   127.5   1-0.66108 0.15107-0.18304 0.58041-0.72764 0.80019  0 365.37  72.32   61.27 365.10  72.49   61.11
  -4   4   1  3316.7   201.1   2-0.23012-0.27972 0.06006 0.33769 0.97131-0.89874  0 338.09  69.16   16.64 338.14  69.52   17.23
   4  -4  -1  3127.6   112.8   1-0.19406 0.70473-0.86650 0.46899 0.45990-0.53236  0 241.10 426.24  153.70 240.91 426.08  153.81
   4  -4  -1  3595.6   172.0   2-0.10500 0.61497-0.77943 0.38152 0.61762-0.69011  0 254.02 432.14   71.95 253.73 431.99   72.01
   4  -4  -1  3437.8   155.6   2 0.13177 0.37827-0.18623-0.21175-0.97363 0.90115  0 135.35 244.85  190.18 135.34 244.71  190.20
   4  -4   1  2911.1   147.4   1-0.32468 0.83524-0.89410 0.49665 0.30848-0.23605  0 199.88 398.54  141.97 199.71 398.46  142.22
   4  -4   1  2986.4   152.4   2-0.15168 0.66165-0.58109 0.18317 0.79958-0.72709  0 242.74 427.25   56.19 242.66 427.12   56.29
   4  -4   1  3140.9   144.8   2 0.13395 0.37609-0.51495 0.11697-0.84669 0.91917  0 134.90 255.51  170.42 134.83 255.42  169.90
   4   4  -1  3220.3   141.7   2 0.09935 0.41062 0.22870 0.16938-0.96842 0.89594  0 227.02 418.84  214.16 226.98 418.54  214.22
   4   4  -1  2667.7   123.0   2-0.20026 0.70988 0.87037-0.47247 0.44984-0.52234  0 135.24 271.77  319.17 135.35 271.70  319.24
   4   4   1  2993.9   126.8   2 0.03523 0.47474 0.62862-0.23055-0.77692 0.84939  0 214.12 410.37  240.04 213.98 410.07  240.13
   4   4   1  2772.8   116.5   2-0.22739 0.73701 0.69976-0.30187 0.67722-0.60473  0 136.84 285.70  335.84 136.91 285.64  335.71
  -4  -4  -2 11468.1   314.1   1-0.43700-0.07296 0.31622-0.71345-0.84205 0.69690  0 133.73 229.31   28.76 133.84 229.32   28.67
  -4  -4  -2 10834.8   241.3   2 0.13596-0.64600-0.39562-0.00236-0.90830 0.76333  0 387.66  72.13  177.70 387.98  72.40  177.61
  -4  -4   2 11083.6   296.5   1-0.61833 0.10831-0.04533-0.35204-0.78461 0.92970  0 145.33 187.10   51.96 145.43 187.09   52.23
  -4  -4   2 10934.8   270.2   2 0.09809-0.60820-0.86000 0.46173-0.50078 0.64568  0 358.19  65.91  141.44 358.21  65.92  141.51
  -4   4  -2  9821.9   283.2   1-0.69588 0.18587-0.52111 0.91848-0.49416 0.34907  0 445.26  98.62   85.13 445.40  98.81   84.88
  -4   4  -2 10511.6   271.8   2-0.23835-0.27127 0.54048-0.14258 0.80689-0.95188  0 353.83  65.32  347.52 353.79  65.60  347.55
  -4   4   2 11032.5   116.5   1-0.48796-0.02200 0.23337 0.16386-0.84109 0.98624  0 325.16  63.99   34.24 325.12  64.27   34.25
  -4   4   2 11411.9   292.3   2-0.21973-0.29010-0.08421 0.48196 0.97192-0.82678  0 329.70  63.98   25.46 329.77  64.19   25.54
   4  -4  -2 11947.9   292.7   2-0.08307 0.59305-0.84885 0.45093 0.52207-0.66705  0 260.99 439.95   78.85 261.03 439.71   78.89
   4  -4  -2 12346.8   268.9   2 0.12336 0.38668-0.03287-0.36511-0.99182 0.84686  0 132.32 236.64  199.03 132.34 236.55  199.09
   4  -4   2  9727.0   246.9   1-0.34604 0.85660-0.89519 0.49774 0.28086-0.13599  0 182.11 387.02  139.74 181.97 386.88  140.22
   4  -4   2 11590.1   246.9   2-0.17413 0.68397-0.45702 0.05928 0.87224-0.72710  0 239.09 430.50   48.05 238.93 430.17   47.94
   4  -4   2 10327.9   226.4   2 0.12612 0.38392-0.66026 0.26228-0.74037 0.88533  0 131.08 257.70  159.61 131.02 257.64  159.56
   4   4  -2 11041.6   237.8   2 0.11783 0.39214 0.03982 0.35825-0.99224 0.84728  0 235.28 428.56  203.08 235.17 428.19  203.25
   4   4  -2  9732.9   217.6   2-0.18630 0.69592 0.91795-0.52006 0.35023-0.49522  0 131.04 261.82  312.97 131.12 261.74  312.84
   4   4   2 10547.2   197.3   2-0.00376 0.51355 0.78312-0.38506-0.62186 0.76681  0 209.78 412.56  252.95 209.72 412.25  252.91
   4   4   2  9812.2   188.3   2-0.23713 0.74675 0.56834-0.17044 0.78788-0.64289  0 133.51 288.88  345.72 133.57 288.76  345.61
  -4  -4  -3  8629.7   288.9   1-0.39399-0.11597 0.37909-0.77632-0.83730 0.61957  0 126.32 239.45   24.25 126.28 239.48   24.30
  -4  -4  -3  9132.9   238.1   2 0.13344-0.64347-0.22946-0.16852-0.96413 0.74669  0 390.35  63.19  187.78 390.72  63.45  187.66
  -4  -4   3  8071.7   262.4   1-0.65315 0.14313-0.15340-0.24397-0.74153 0.95916  0 143.41 175.40   59.06 143.53 175.42   59.19
  -4  -4   3  8907.2   278.8   2 0.08443-0.59453-0.91214 0.51387-0.40110 0.61844  0 347.25  55.87  135.04 347.27  55.98  135.03
  -4   4  -3  8041.4   283.6   1-0.69224 0.18222-0.55532 0.95269-0.46090 0.24327  0 472.91 106.32   87.65 473.05 106.59   87.61
  -4   4  -3  8685.1   269.8   2-0.22983-0.27978 0.67408-0.27619 0.70199-0.91948  0 356.04  56.61  337.87 355.95  56.88  337.77
  -4   4   3  9165.6   291.0   2-0.20786-0.30197-0.20478 0.60252 0.95648-0.73877  0 320.12  55.75   32.44 320.21  56.03   32.56
   4  -4  -3  9316.7   289.7   2-0.06289 0.57286-0.90070 0.50278 0.42986-0.64733  0 269.43 450.97   84.63 269.45 450.74   85.08
   4  -4  -3  8026.4   236.4   2 0.11275 0.39722 0.09938-0.49745-0.98864 0.77121  0 127.50 226.85  206.71 127.36 226.78  206.68
   4  -4   3  7702.9   238.4   1-0.35517 0.86573-0.89531 0.49785 0.26885-0.05154  0 164.62 376.39  139.28 164.52 376.25  139.36
   4  -4   3  8809.2   228.6   2-0.19326 0.70310-0.32650-0.07124 0.92523-0.70751  0 236.52 437.55   39.92 236.31 437.26   39.80
   4  -4   3  9341.7   224.4   2 0.11337 0.39667-0.77773 0.37975-0.61829 0.83573  0 125.13 257.82  149.90 124.74 257.73  149.80
   4   4  -3  9607.3   243.9   2 0.12846 0.38158-0.11744 0.51542-0.98474 0.76730  0 244.24 441.31  194.09 244.09 440.94  194.21
   4   4  -3  7333.4   208.8   2-0.17295 0.68257 0.94945-0.55156 0.26197-0.47946  0 125.18 250.52  307.39 124.97 250.42  307.41
   4   4   3  8182.1   182.5   2-0.04037 0.55016 0.88739-0.48933-0.45925 0.67667  0 206.86 419.32  264.13 206.82 419.01  264.19
   4   4   3  6530.0   164.9   2-0.24122 0.75084 0.41373-0.01607 0.87786-0.66029  0 127.32 289.23  355.92 127.24 289.10  355.89
  -4  -4  -4 697.287 136.387   1-0.35580-0.15416 0.43082-0.82805-0.82934 0.53904  0 117.13 249.76   20.65 116.84 249.85   20.59
  -4  -4  -4 699.538 125.901   2 0.12585-0.63589-0.07192-0.32606-0.98944 0.69952  0 391.89  49.58  196.71 391.75  50.01  196.84
  -4  -4   4 601.583 117.310   1-0.67877 0.16875-0.26177-0.13560-0.68611 0.97629  0 139.33 162.69   66.31 139.56 162.91   66.31
  -4  -4   4 781.251 151.535   2 0.07110-0.58121-0.94801 0.54975-0.31019 0.59998  0 335.43  43.41  129.33 335.47  43.39  129.37
  -4   4  -4 782.962 194.890   1-0.68933 0.17931-0.57480 0.97217-0.44094 0.15076  2 502.95 113.63   89.35 503.30 113.95   89.22
  -4   4  -4 698.704 146.771   2-0.21758-0.29204 0.77995-0.38206 0.58680-0.87678  0 356.89  43.84  328.49 356.72  44.31  328.75
  -4   4   4 815.703 163.891   2-0.19652-0.31331-0.30131 0.69906 0.93305-0.64277  0 309.73  44.79   38.01 309.51  45.16   38.28
   4  -4  -4 730.575 150.336   2-0.04473 0.55470-0.93840 0.54048 0.34264-0.63260  0 278.59 465.50   90.61 278.87 465.07   90.63
   4  -4  -4 795.408 121.568   2 0.10173 0.40824 0.20762-0.60569-0.97291 0.68300  0 120.56 215.63  213.03 120.50 215.59  212.98
   4  -4   4 567.827 113.664   1-0.35641 0.86697-0.89531 0.49785 0.26721 0.02254  0 146.78 366.30  139.30 146.78 366.32  139.24
   4  -4   4 640.673 107.214   2-0.20838 0.71822-0.19994-0.19781 0.95739-0.66711  0 234.29 448.25   32.52 234.61 448.23   32.28
   4  -4   4 824.175 102.437   2 0.09688 0.41322-0.86517 0.46690-0.49203 0.78182  0 116.07 256.06  140.74 116.00 256.02  140.93
   4   4  -4 746.651 120.741   2 0.13357 0.37647-0.24019 0.63817-0.96149 0.67157  0 254.21 456.82  187.32 253.83 456.77  187.02
   4   4  -4 612.608  96.043   2-0.16047 0.67008 0.96992-0.57202 0.18307-0.47305  0 117.38 238.03  302.72 117.04 237.99  302.67
   4   4   4 771.910  83.718   2-0.23868 0.74852 0.25331 0.14443 0.93748-0.64719  0 118.12 286.73    6.00 117.88 286.71    5.95
   4   4   4 595.168  83.148   2-0.07135 0.58114 0.94809-0.55003-0.30990 0.59978  0 205.09 430.25  273.62 205.01 430.17  273.62
  -4  -4  -5  5122.4   258.3   1-0.32308-0.18688 0.47225-0.86948-0.82012 0.45725  0 105.55 260.53   17.53 105.43 260.54   17.52
  -4  -4  -5  5281.3   246.6   2 0.11591-0.62588 0.06325-0.46132-0.99124 0.62886  0 391.43  31.93  204.67 391.64  32.12  204.59
  -4  -4   5  4359.0   226.0   1-0.69408 0.18406-0.36635-0.03102-0.61971 0.98242  0 133.55 149.27   73.34 133.55 149.25   73.46
  -4  -4   5  4986.6   285.2   2 0.05827-0.56838-0.97205 0.57378-0.22744 0.58968  0 322.88  27.90  124.36 322.90  28.18  124.38
  -4   4  -5  4507.8   266.8   2-0.20297-0.30664 0.85886-0.46097 0.47027-0.83275  0 356.50  27.55  320.61 356.38  27.78  320.60
  -4   4   5  5498.7   307.4   2-0.18651-0.32332-0.37598 0.77372 0.90766-0.54481  0 297.59  31.47   42.79 297.72  31.59   42.82
   4  -4  -5 960.831 161.911   2-0.02836 0.53833-0.96492 0.56700 0.26102-0.62347  0 288.77 483.34   95.72 289.35 482.95   95.64
   4  -4  -5  5487.8   238.0   2 0.09152 0.41844 0.29301-0.69108-0.95172 0.58933  0 112.03 203.04  217.72 111.77 203.01  218.06
   4  -4   5  4086.1   228.7   1-0.35210 0.86267-0.89529 0.49783 0.27290 0.08928  0 128.46 356.84  139.60 128.29 356.90  139.65
   4  -4   5  4808.2   209.2   2-0.21958 0.72941-0.08605-0.31170 0.97179-0.60894  0 233.70 463.37   25.71 233.46 463.11   25.64
   4  -4   5  4834.1   190.7   2 0.07999 0.43012-0.92529 0.52703-0.37073 0.73297  0 105.14 252.63  133.02 104.77 252.66  133.11
   4   4  -5  4606.1   269.0   2 0.13552 0.37452-0.33268 0.73066-0.93325 0.57085  0 264.22 476.04  181.32 264.22 475.81  181.48
   4   4  -5  4255.5   201.9   2-0.14870 0.65849 0.98255-0.58449 0.11173-0.47409  0 107.60 224.59  298.47 107.31 224.52  298.48
   4   4   5  4761.5   164.8   2-0.23282 0.74266 0.10784 0.28991 0.96652-0.60366  0 106.34 282.97   14.39 105.95 282.79   14.48
   4   4   5  4376.6   174.6   2-0.09644 0.60623 0.97873-0.58068-0.18105 0.54341  0 203.84 445.69  281.31 203.80 445.43  281.36
  -4  -4  -6  4137.7   249.1   1-0.29597-0.21399 0.50448-0.90171-0.81111 0.37567  0  92.03 271.74   15.17  91.94 271.78   15.04
  -4  -4  -6  3665.5   263.0   2 0.10567-0.61564 0.17145-0.56952-0.97951 0.54464  2 390.90   9.59  210.82 390.94   9.79  210.86
  -4  -4   6  3726.8   225.9   1-0.69830 0.18828-0.46459 0.06722-0.54455 0.97981  0 125.63 134.20   80.42 125.40 134.16   80.54
  -4  -4   6  3834.6   322.7   2 0.04609-0.55620-0.98739 0.58912-0.15147 0.58616  0 309.40  10.11  120.36 309.49  10.18  119.88
  -4   4   6  3820.7   322.3   2-0.17807-0.33176-0.43211 0.82986 0.88407-0.44864  0 284.73  14.87   46.26 284.81  15.19   46.34
   4  -4  -6  4118.4   241.5   2 0.08280 0.42717 0.35860-0.75667-0.92981 0.49495  0 101.21 189.06  222.21 101.06 189.02  222.06
   4  -4   6  3141.4   231.5   1-0.34363 0.85419-0.89513 0.49767 0.28401 0.15061  0 108.98 347.85  140.37 108.62 347.81  140.45
   4  -4   6  3830.7   219.3   2-0.22706 0.73690 0.01106-0.40880 0.97382-0.53839  0 232.92 482.20   19.40 232.64 482.12   20.05
   4   4  -6  3780.1   301.7   2 0.13595 0.37409-0.40083 0.79880-0.90601 0.47113  0 275.56 498.83  177.33 275.48 498.61  177.28
   4   4  -6  3131.1   202.4   2-0.13745 0.64724 0.98943-0.59137 0.04616-0.48099  0  96.12 210.00  294.65  95.70 210.00  294.64
   4   4   6  3642.1   166.2   2-0.22520 0.73504-0.01387 0.41162 0.97421-0.53878  0  91.76 277.80   21.43  91.47 277.69   21.48
   4   4   6  3060.0   179.1   2-0.11677 0.62656 0.99058-0.59253-0.07146 0.50630  0 202.88 464.93  287.78 202.68 464.68  287.79
  -4  -4  -7 371.462 145.687   1-0.27493-0.23503 0.52895-0.92618-0.80289 0.29487  0  75.88 283.85   13.30  76.07 283.84   13.15
  -4  -4   7 238.126 131.025   1-0.69248 0.18246-0.55330 0.15593-0.46296 0.97077  0 115.45 117.29   87.41 114.97 117.14   87.45
   4  -4  -7 237.220 131.222   2 0.07544 0.43453 0.40753-0.80560-0.91007 0.40273  0  88.24 173.70  224.76  88.12 173.51  225.12
   4  -4   7 336.183 147.840   1-0.33189 0.84245-0.89457 0.49712 0.29932 0.20774  0  87.55 338.58  141.53  87.32 338.89  141.56
   4  -4   7 475.569 106.975   2 0.04674 0.46336-0.98674 0.58848-0.15543 0.66257  0  74.21 242.51  120.22  74.52 242.30  120.12
   4   4  -7 422.627 132.624   2-0.12683 0.63662 0.99181-0.59375-0.01519-0.49211  0  81.84 194.22  291.31  81.94 194.26  291.07
   4   4   7 571.610 101.359   2-0.21737 0.72720-0.11005 0.50779 0.96987-0.46187  0  74.19 272.10   26.82  74.30 271.76   27.04
   4   4   7 438.393 121.155   2-0.13338 0.64317 0.99081-0.59275 0.02256 0.48475  0 200.90 488.42  293.40 201.19 488.06  293.27
  -4  -4  -8  3351.1   274.2   1-0.25913-0.25083 0.54644-0.94367-0.79640 0.21581  0  57.72 297.06   11.78  57.48 297.05   11.75
  -4  -4   8  2859.3   267.6   1-0.67700 0.16698-0.63191 0.23454-0.37731 0.95766  0 102.28  97.68   94.10 102.09  97.59   94.17
   4  -4  -8  3200.1   266.6   2 0.06978 0.44019 0.44318-0.84125-0.89371 0.31389  0  72.51 156.24  227.45  72.56 156.17  227.39
   4  -4   8  2742.9   263.1   1-0.31738 0.82794-0.89346 0.49601 0.31779 0.26170  0  64.12 329.95  142.68  63.75 329.96  142.90
   4  -4   8  3382.1   215.0   2 0.03094 0.47917-0.99762 0.59935-0.06165 0.64123  0  55.16 235.95  114.60  54.96 235.77  114.62
   4   4  -8  3060.5   250.6   2-0.11649 0.62627 0.99050-0.59245-0.07303-0.50674  0  66.06 177.03  287.67  65.61 177.02  287.70
   4   4   8  3239.5   192.5   2-0.21029 0.72012-0.18292 0.58067 0.96037-0.37980  0  54.51 265.35   31.26  54.04 265.36   31.27
  -4  -4  -9  6038.8   344.8   1-0.24854-0.26142 0.55799-0.95523-0.79175 0.13858  0  36.03 311.80   10.85  35.56 311.88   10.81
  -4  -4   9  5375.3   324.0   1-0.65319 0.14263-0.69915 0.30170-0.29074 0.94268  0  86.48  74.48  100.56  86.51  74.62  100.62
   4  -4  -9  6048.5   356.9   2 0.06573 0.44424 0.46809-0.86616-0.88123 0.22893  0  54.07 136.45  229.27  53.78 136.57  229.01
   4  -4   9  5522.0   335.4   1-0.30043 0.81099-0.89163 0.49417 0.33874 0.31319  0  37.42 320.87  144.38  37.22 320.79  144.45
   4  -4   9  6319.0   273.6   2 0.01611 0.49400-0.99958 0.60132 0.02403 0.62800  0  32.00 228.54  109.64  31.66 228.52  109.64
   4   4  -9  5121.0   314.3   2-0.10638 0.61617 0.98603-0.58797-0.12820-0.52405  0  46.07 157.94  284.50  46.07 157.86  284.47
   4   4   9  6268.9   252.5   2-0.20438 0.71421-0.23612 0.63386 0.94999-0.29684  0  30.56 258.77   34.33  30.20 258.64   34.40
  -4  -5   0  -3.805  99.191   1-0.56955 0.05959 0.07481-0.57135-0.81854 0.81854  0 119.38 219.34   44.22 119.18 219.17   44.55
  -4  -5   0  75.533 126.612   2 0.12753-0.63757-0.64095 0.14348-0.75691 0.75691  0 364.37  43.50  161.61 364.63  43.28  161.02
  -4   5   0 -55.826 105.155   1-0.65583 0.14581-0.16320 0.65991-0.73706 0.73706  0 410.76  52.75   59.55 411.02  53.28   59.82
  -4   5   0  54.227 133.584   2-0.23908-0.27075 0.26483 0.23235 0.93419-0.93419  0 328.05  41.57    5.47 327.66  42.05    5.26
   4  -5   0  -6.807  71.378   1-0.37380 0.88436-0.89489 0.39807 0.24380-0.24380  0 205.51 432.00  137.63 205.59 431.80  137.57
   4  -5   0 -88.385 117.050   2-0.13722 0.64720-0.65083 0.15343 0.74672-0.74672  0 261.04 461.05   61.50 261.14 461.19   61.38
   4  -5   0 -53.963  75.032   2 0.13590 0.37414-0.37087-0.12661-0.91869 0.91869  0 117.03 230.66  179.21 116.70 230.59  179.15
   4   5   0  55.487  77.899   2 0.07066 0.43931 0.43771 0.05988-0.89634 0.89634  0 226.90 446.20  227.57 227.70 446.07  227.04
   4   5   0 -13.667  59.603   2-0.22323 0.73285 0.73850-0.24113 0.63623-0.63623  0 114.84 262.65  332.47 114.91 262.63  332.46
  -4  -5  -1 701.336 135.023   1-0.53196 0.02200 0.15263-0.64917-0.83290 0.76032  0 116.22 229.75   39.59 116.18 229.83   39.53
  -4  -5  -1 592.727 135.925   2 0.13342-0.64346-0.53029 0.03281-0.83725 0.76477  0 371.41  42.08  168.53 370.99  42.28  168.86
  -4  -5   1 624.237 130.763   1-0.60518 0.09516-0.01036-0.48635-0.79602 0.86857  0 120.35 208.27   50.12 120.18 208.26   49.99
  -4  -5   1 603.147 134.374   2 0.11887-0.62891-0.73467 0.23719-0.66793 0.74041  0 356.84  40.64  153.56 356.87  40.72  153.58
  -4   5  -1 590.148 142.098   1-0.68276 0.17275-0.28388 0.78060-0.67323 0.60069  0 438.80  62.15   68.53 438.82  62.13   67.80
  -4   5  -1 736.215 160.870   2-0.24131-0.26832 0.39688 0.10019 0.88558-0.95811  0 332.53  40.19  356.69 332.55  40.28  356.95
  -4   5   1 739.973 109.008   1-0.59027 0.08031 0.02714 0.46940-0.80675 0.87933  0 381.67  43.58   47.56 381.59  43.76   47.60
  -4   5   1 723.036 160.997   2-0.23425-0.27558 0.13454 0.36264 0.96282-0.89025  0 321.15  40.78   12.96 321.25  40.73   12.94
   4  -5  -1 615.115  79.421   1-0.32395 0.83451-0.89405 0.39723 0.30941-0.38184  0 227.97 447.88  142.42 227.75 447.57  142.29
   4  -5  -1 648.806 150.679   2-0.11755 0.62753-0.73351 0.23611 0.66944-0.74193  0 267.04 464.98   68.08 267.11 464.90   67.97
   4  -5  -1 705.386 111.979   2 0.13352 0.37652-0.23843-0.25904-0.96194 0.88946  0 116.13 224.94  187.16 116.30 224.86  187.12
   4  -5   1 682.123 109.538   1-0.39696 0.90752-0.89313 0.39631 0.21150-0.13906  0 186.37 418.32  135.34 186.32 418.10  135.29
   4  -5   1 448.503 119.316   2-0.15634 0.66632-0.55682 0.05942 0.81579-0.74330  0 256.28 461.16   54.47 256.23 461.07   54.60
   4  -5   1 649.980 102.450   2 0.13428 0.37575-0.50226 0.00478-0.85423 0.92671  0 115.22 234.52  170.67 114.93 234.63  170.75
   4   5  -1 589.830 101.846   2 0.09305 0.41691 0.28090 0.21669-0.95522 0.88274  0 234.35 451.17  217.45 234.35 451.29  217.33
   4   5  -1 480.052  82.862   2-0.21246 0.72208 0.81199-0.31462 0.54363-0.61613  0 113.79 255.71  325.67 113.64 255.59  325.63
   4   5   1 622.089  97.424   2 0.04363 0.46634 0.58830-0.09071-0.80746 0.87994  0 221.99 444.84  237.22 222.10 444.68  237.18
   4   5   1 655.768  88.556   2-0.23206 0.74168 0.64696-0.14959 0.72636-0.65386  0 113.81 268.01  339.77 113.82 267.78  339.86
  -4  -5  -2 10055.4   327.0   1-0.49444-0.01552 0.22210-0.71864-0.84036 0.69521  0 111.42 240.42   34.97 111.29 240.41   34.99
  -4  -5  -2  9607.9   290.2   2 0.13592-0.64596-0.40754-0.08994-0.90302 0.75806  0 375.96  37.05  176.92 375.95  37.30  176.86
  -4  -5   2  8988.6   299.9   1-0.63718 0.12716-0.10035-0.39637-0.76416 0.90924  0 119.51 197.03   55.82 119.28 196.96   55.76
  -4  -5   2  9222.5   304.2   2 0.10798-0.61808-0.80982 0.31199-0.57666 0.72155  0 347.79  34.61  146.78 347.83  34.55  146.76
  -4   5  -2  8120.0   304.4   1-0.69372 0.18370-0.36268 0.85939-0.62227 0.47718  0 467.06  69.89   72.99 467.13  70.26   73.20
  -4   5  -2  9118.5   312.1   2-0.23901-0.27061 0.52427-0.02690 0.81732-0.96231  0 336.20  34.60  348.65 336.23  34.82  348.65
  -4   5   2  9072.9   152.1   1-0.41110-0.09886 0.35463 0.14191-0.83978 0.98493  0 344.12  34.35   26.11 343.88  34.70   26.02
  -4   5   2 10343.0   337.3   2-0.22726-0.28258 0.01388 0.48331 0.97374-0.82859  0 313.38  35.96   20.00 313.51  36.24   19.89
   4  -5  -2  9320.1   152.3   1-0.19651 0.70717-0.86732 0.37042 0.45732-0.60224  0 258.87 467.19  153.44 259.03 467.04  153.60
   4  -5  -2  9495.0   315.8   2-0.09800 0.60798-0.80307 0.30567 0.58778-0.73275  0 274.16 472.30   74.14 274.17 472.09   74.23
   4  -5  -2  9972.6   276.3   2 0.12821 0.38183-0.11275-0.38472-0.98532 0.84036  0 114.04 217.49  194.44 113.80 217.39  194.48
   4  -5   2  7290.2   239.9   1-0.40653 0.91709-0.89196 0.39514 0.19784-0.05296  0 168.25 405.98  134.25 168.13 405.90  134.33
   4  -5   2  9247.9   270.7   2-0.17443 0.68427-0.45515-0.04203 0.87316-0.72802  0 252.44 464.79   47.90 252.23 464.47   47.81
   4  -5   2  9297.1   251.3   2 0.12872 0.38132-0.62395 0.12647-0.77079 0.91575  0 111.24 236.99  162.07 110.89 236.90  162.28
   4   5  -2  9200.3   255.7   2 0.10973 0.40024 0.13178 0.36581-0.98519 0.84023  0 242.00 460.40  208.51 241.89 460.00  208.56
   4   5  -2  7992.6   227.3   2-0.20070 0.71032 0.86861-0.37124 0.45303-0.59802  0 110.44 246.96  319.54 110.17 246.90  319.45
   4   5   2  8481.4   222.9   2 0.01383 0.49614 0.71938-0.22179-0.69448 0.83944  0 217.59 447.46  247.17 217.49 447.10  247.27
   4   5   2  8480.9   214.4   2-0.23838 0.74800 0.53980-0.04243 0.80734-0.66235  0 110.44 271.03  347.70 110.22 270.93  347.59
  -4  -5  -3  4089.8   234.9   1-0.45848-0.05148 0.28247-0.77901-0.84262 0.62489  0 104.62 251.04   30.91 104.39 251.12   30.97
  -4  -5  -3  4181.2   253.6   2 0.13463-0.64466-0.28033-0.21715-0.95042 0.73298  0 379.47  28.03  184.76 379.46  28.21  184.63
  -4  -5   3  3534.2   220.4   1-0.66363 0.15361-0.19312-0.30360-0.72270 0.94034  0 116.63 185.14   62.15 116.40 185.05   61.77
  -4  -5   3  4092.4   269.7   2 0.09612-0.60622-0.86849 0.37066-0.48629 0.70363  0 337.83  25.29  140.46 337.72  25.54  140.55
  -4   5  -3  3764.7   314.5   1-0.69747 0.18745-0.41443 0.91114-0.58462 0.36699  0 497.16  77.51   77.30 497.31  77.60   76.87
  -4   5  -3  4189.9   274.1   2-0.23264-0.27698 0.63940-0.14204 0.73283-0.95032  0 338.73  25.58  340.39 338.75  25.76  340.44
  -4   5   3  4701.7   300.3   2-0.21903-0.29081-0.09229 0.58947 0.97134-0.75363  0 304.40  28.75   26.28 304.47  28.81   26.00
   4  -5  -3  4242.7   289.0   2-0.07923 0.58920-0.85960 0.36220 0.50478-0.72225  0 282.40 482.98   79.68 282.31 482.90   80.08
   4  -5  -3  4616.9   226.1   2 0.12084 0.38913-0.00001-0.49758-0.99267 0.77524  0 109.50 208.42  201.00 109.20 208.38  200.95
   4  -5   3  3468.5   215.3   1-0.40789 0.91845-0.89177 0.39495 0.19588 0.02143  0 150.20 394.81  134.16 150.12 394.82  134.19
   4  -5   3  4107.6   219.3   2-0.18997 0.69980-0.35095-0.14623 0.91692-0.69921  0 249.27 472.01   41.13 249.13 471.79   41.28
   4  -5   3  4221.0   194.8   2 0.11946 0.39058-0.72957 0.23210-0.67339 0.89083  0 104.82 237.47  153.86 104.49 237.40  154.01
   4   5  -3  4215.7   218.5   2 0.12084 0.38913 0.00001 0.49758-0.99267 0.77524  0 250.38 472.44  201.29 250.24 472.18  200.96
   4   5  -3  3716.1   188.5   2-0.18866 0.69828 0.91099-0.41363 0.36674-0.58423  0 104.86 236.75  313.98 104.65 236.73  313.89
   4   5   3  4127.3   182.3   2-0.01604 0.52583 0.82238-0.32481-0.56871 0.78613  0 213.97 453.98  256.82 213.88 453.63  256.76
   4   5   3  3802.6   165.7   2-0.24116 0.75078 0.42215 0.07493 0.87386-0.65629  0 104.28 272.19  355.29 104.02 272.09  355.36
  -4  -5  -4 13914.2   389.6   1-0.42538-0.08458 0.33370-0.83024-0.84125 0.55095  0  95.58 262.06   27.46  95.51 262.07   27.47
  -4  -5  -4 13400.7   349.6   2 0.13053-0.64057-0.15811-0.33937-0.97876 0.68884  0 381.77  14.48  191.91 381.80  14.71  191.84
  -4  -5   4 13080.3   368.3   1-0.68314 0.17312-0.28606-0.21066-0.67193 0.96211  0 111.70 172.35   68.00 111.45 172.34   67.94
  -4  -5   4 13220.8   395.7   2 0.08413-0.59423-0.91308 0.41524-0.39902 0.68881  0 326.55  13.47  135.36 326.60  13.50  134.89
  -4   5  -4 12496.6   378.0   2-0.22326-0.28636 0.73730-0.23993 0.63761-0.92760  0 340.13  12.67  332.64 340.11  12.88  332.57
  -4   5   4 15359.4   429.3   2-0.21040-0.29944-0.18185 0.67903 0.96055-0.67027  0 294.14  18.17   31.11 294.26  18.47   31.20
   4  -5  -4  96.370 152.771   2-0.06142 0.57140-0.90412 0.40672 0.42284-0.71280  0 291.65 497.23   85.45 291.63 497.41   85.53
   4  -5  -4 13867.0   344.9   2 0.11294 0.39703 0.09729-0.59488-0.98883 0.69892  0 102.97 197.81  206.59 102.65 197.78  206.56
   4  -5   4 11107.7   321.0   1-0.40369 0.91425-0.89234 0.39551 0.20192 0.08783  0 131.73 384.76  134.57 131.70 384.60  134.62
   4  -5   4 12939.3   322.1   2-0.20276 0.71259-0.24985-0.24734 0.94682-0.65653  0 247.00 483.31   35.09 246.72 483.00   35.21
   4  -5   4 14015.1   314.1   2 0.10686 0.40324-0.81589 0.31806-0.56825 0.85804  0  96.07 236.41  146.09  95.71 236.35  146.17
   4   5  -4 13354.1   362.8   2 0.12811 0.38193-0.11102 0.60849-0.98553 0.69561  0 259.34 488.22  194.51 259.36 487.89  194.59
   4   5  -4 11912.9   307.1   2-0.17659 0.68620 0.94188-0.44451 0.28581-0.57579  0  97.26 225.29  308.83  97.09 225.24  308.86
   4   5   4 13446.5   272.3   2-0.23970 0.74953 0.30178 0.19540 0.92275-0.63247  0  95.26 271.18    3.00  94.92 271.07    3.04
   4   5   4 11962.9   267.6   2-0.04435 0.55414 0.89657-0.39899-0.44069 0.73057  0 210.87 464.63  265.32 210.83 464.28  265.40
  -4  -5  -5  6248.1   299.9   1-0.39605-0.11391 0.37617-0.87271-0.83764 0.47477  0  84.58 273.48   24.50  84.49 273.49   24.50
  -4  -5   5  5386.2   271.0   1-0.69490 0.18489-0.37650-0.12021-0.61266 0.97538  0 104.52 158.50   74.07 104.32 158.47   74.17
   4  -5  -5  6176.2   273.3   2 0.10498 0.40499 0.17807-0.67566-0.97840 0.61601  0  94.19 185.70  211.15  94.00 185.64  211.25
   4  -5   5  4902.4   260.0   1-0.39540 0.90596-0.89330 0.39648 0.21371 0.14847  0 112.72 375.10  135.36 112.39 375.03  135.45
   4  -5   5  5856.2   266.9   2-0.21293 0.72276-0.15692-0.34026 0.96439-0.60153  0 244.96 498.64   29.73 244.76 498.35   29.75
   4  -5   5  6025.1   236.0   2 0.09275 0.41736-0.88250 0.38467-0.46107 0.82331  0  84.70 233.82  138.92  84.37 233.81  138.89
   4   5  -5  4969.1   235.1   2-0.16477 0.67439 0.96372-0.46635 0.20998-0.57246  0  87.72 212.62  304.34  87.45 212.50  304.27
   4   5   5  6171.0   211.1   2-0.23657 0.74641 0.18951 0.30768 0.95295-0.59010  0  83.63 268.87    9.78  83.31 268.75    9.73
   4   5   5  5427.9   223.8   2-0.06958 0.57937 0.94529-0.44772-0.31873 0.68109  0 208.09 479.41  273.14 208.14 479.12  273.08
  -4  -5  -6-111.168 119.559   1-0.37108-0.13888 0.41049-0.90703-0.83294 0.39750  0  70.68 285.76   22.35  71.15 285.65   22.05
  -4  -5   6  29.974 131.891   1-0.69828 0.18827-0.46260-0.03411-0.54626 0.98153  0  94.87 143.19   80.72  94.96 143.11   80.39
   4  -5  -6 -12.951 127.968   2 0.09761 0.41235 0.24328-0.74087-0.96503 0.53017  0  82.99 171.80  216.32  83.06 171.87  215.08
   4  -5   6 214.723 146.375   1-0.38388 0.89444-0.89433 0.39751 0.22979 0.20483  0  92.02 366.16  136.52  91.70 365.94  136.58
   4  -5   6  54.961  92.985   2 0.07785 0.43225-0.93120 0.43337-0.35611 0.79079  0  70.19 230.04  132.36  70.36 229.99  132.20
   4   5  -6 172.173 117.360   2-0.15321 0.66283 0.97839-0.48102 0.13885-0.57383  0  75.37 198.39  299.68  75.61 198.41  300.05
   4   5   6  23.971  78.351   2-0.23186 0.74170 0.09018 0.40700 0.96856-0.53313  0  68.75 265.22   15.60  68.83 265.24   15.50
   4   5   6 -28.436 110.635   2-0.09162 0.60141 0.97417-0.47660-0.20638 0.64122  0 206.00 498.12  279.45 205.42 498.35  279.86
  -4  -5  -7  4930.4   305.4   1-0.35074-0.15922 0.43739-0.93393-0.82805 0.32004  0  55.01 299.00   20.20  55.19 298.85   20.11
  -4  -5   7  4119.1   281.6   1-0.69385 0.18384-0.54203 0.04531-0.47411 0.98191  0  83.32 125.92   86.42  83.04 125.78   86.54
   4  -5  -7  5161.7   310.8   2 0.09131 0.41866 0.29468-0.79227-0.95122 0.44388  0  69.80 156.32  218.15  69.61 156.24  218.16
   4  -5   7  3433.4   293.5   1-0.36976 0.88032-0.89506 0.39823 0.24930 0.25776  0  69.37 357.27  138.16  69.07 357.15  137.96
   4  -5   7  4163.5   242.5   2 0.06271 0.44739-0.96473 0.46690-0.25565 0.76279  0  53.77 224.99  125.59  53.28 225.05  126.07
   4   5  -7  4077.4   268.7   2-0.14192 0.65171 0.98726-0.48969 0.07190-0.57920  0  61.49 182.84  296.25  61.22 182.82  296.14
   4   5   7  4533.9   216.2   2-0.22677 0.73661 0.00696 0.49023 0.97392-0.46592  0  51.81 260.86   20.23  51.31 260.85   20.29
  -4  -5  -8  2047.0   244.5   1-0.33494-0.17502 0.45754-0.95408-0.82369 0.24310  0  36.33 313.43   18.57  36.07 313.51   18.62
  -4  -5   8  2357.6   245.3   1-0.68142 0.17141-0.61434 0.11763-0.39780 0.97815  0  68.53 106.05   92.44  68.26 105.77   92.61
   4  -5  -8  2209.4   238.6   2 0.08619 0.42377 0.33410-0.83169-0.93859 0.35877  0  53.61 138.45  220.51  53.14 138.41  220.56
   4  -5   8  2093.7   246.5   1-0.35330 0.86386-0.89530 0.39848 0.27133 0.30816  0  44.27 348.54  139.44  43.85 348.49  139.54
   4  -5   8  2201.1   217.9   2 0.04759 0.46251-0.98587 0.48804-0.16062 0.74020  0  33.15 218.99  120.40  32.76 219.09  120.42
   4   5  -8  1820.0   212.4   2-0.13088 0.64067 0.99136-0.49379 0.00819-0.58797  0  43.67 165.68  292.43  43.82 165.46  292.43
   4   5   8  2221.0   197.3   2-0.22172 0.73155-0.06016 0.55734 0.97325-0.39268  0  30.86 255.60   24.28  30.32 255.79   24.15
  -4  -6   0 25930.1   511.2   1-0.60178 0.09182-0.00111-0.59474-0.79866 0.79866  0  91.32 230.05   49.36  91.18 229.98   49.41
  -4   6   0 26157.0   409.1   1-0.60044 0.09048 0.00226 0.59359-0.79966 0.79966  0 436.04  15.76   49.05 436.27  16.15   49.19
  -4   6   0 26396.3   543.7   2-0.23988-0.26996 0.31116 0.28546 0.91959-0.91959  2 309.45   7.07    2.41 309.58   7.19    2.47
   4  -6   0 20924.9   335.4   1-0.43282 0.94338-0.88737 0.29118 0.15887-0.15887  0 188.19 456.72  131.55 188.14 456.58  131.63
   4  -6   0 25780.4   493.0   2-0.14040 0.65037-0.63626 0.03938 0.75859-0.75859  0 275.26 501.80   60.22 275.26 501.58   60.29
   4  -6   0 28718.7   467.9   2 0.13595 0.37409-0.40022-0.19675-0.90628 0.90628  0  94.02 209.25  177.29  93.77 209.16  177.32
   4   6   0 25949.2   419.3   2 0.06725 0.44271 0.45889 0.13822-0.88595 0.88595  0 234.72 486.11  228.19 234.47 485.74  228.41
   4   6   0 24127.8   391.2   2-0.22640 0.73602 0.70931-0.11246 0.66755-0.66755  0  89.32 245.71  334.98  89.09 245.63  334.93
  -4  -6  -1 713.696 145.814   1-0.57229 0.06233 0.06876-0.66461-0.81716 0.74459  0  89.10 241.02   45.11  88.90 241.16   44.94
  -4  -6   1 951.269 164.917   1-0.62923 0.11922-0.07637-0.51969-0.77346 0.84600  0  91.47 218.81   54.27  91.41 218.60   54.22
  -4   6  -1 619.309 183.025   1-0.64407 0.13406-0.12237 0.71842-0.75511 0.68257  0 466.22  24.47   56.97 466.46  25.12   57.18
   4  -6  -1 520.594  97.885   1-0.40490 0.91546-0.89218 0.29599 0.20019-0.27262  0 210.18 473.83  134.45 210.14 473.77  134.50
   4  -6  -1 691.480 136.581   2 0.13484 0.37520-0.29055-0.30642-0.94731 0.87483  0  93.85 203.73  183.70  93.67 203.66  184.02
   4  -6   1 615.827 122.255   1-0.44448 0.95504-0.88461 0.28843 0.14106-0.06863  0 168.52 441.91  130.41 168.55 441.82  130.40
   4  -6   1 650.879 177.825   2-0.15659 0.66657-0.55530-0.04158 0.81677-0.74428  2 269.97 501.65   54.52 270.15 501.84   54.49
   4  -6   1 718.779 125.806   2 0.13412 0.37592-0.50938-0.08759-0.85002 0.92250  0  91.82 213.13  170.44  91.65 213.09  170.27
   4   6  -1 654.483 129.201   2 0.08630 0.42366 0.33305 0.26406-0.93895 0.86648  0 240.98 490.69  220.51 241.01 490.58  220.49
   4   6  -1 773.145 118.250   2-0.21787 0.72749 0.77800-0.18116 0.58927-0.66177  0  88.57 239.14  328.85  88.25 239.11  328.93
   4   6   1 594.991 121.036   2 0.04513 0.46484 0.58084 0.01627-0.81277 0.88524  0 228.93 484.79  236.51 228.72 484.75  236.65
   4   6   1 703.884 107.043   2-0.23335 0.74297 0.62963-0.03279 0.74102-0.66852  0  87.86 250.43  341.29  87.60 250.57  341.17
  -4  -6  -2 661.808 142.754   1-0.54223 0.03227 0.13236-0.72821-0.82974 0.68459  0  84.70 252.44   40.63  84.55 252.34   40.85
  -4  -6   2 472.996 141.915   1-0.65359 0.14357-0.15497-0.44109-0.74082 0.88591  0  89.24 206.81   59.43  89.66 206.88   59.29
  -4   6  -2 482.970 210.834   1-0.66817 0.15815-0.21147 0.80752-0.71333 0.56824  0 497.71  33.13   63.44 497.75  32.97   62.98
   4  -6  -2 450.623  75.908   1-0.33857 0.84913-0.89490 0.29871 0.29073-0.43560  0 239.50 495.36  141.48 238.79 494.72  140.93
   4  -6  -2 200.173 114.992   2 0.13171 0.37832-0.18495-0.41202-0.97388 0.82892  0  91.15 196.72  189.72  91.39 196.52  190.27
   4  -6   2 374.616 129.699   1-0.44712 0.95768-0.88392 0.28774 0.13699 0.00788  0 150.07 428.68  130.00 149.85 428.80  130.12
   4  -6   2 413.422 118.433   2 0.12936 0.38068-0.61275 0.01579-0.77961 0.92457  0  87.17 215.50  162.88  87.30 215.42  163.09
   4   6  -2 457.633 138.432   2 0.10131 0.40866 0.21140 0.38571-0.97214 0.82718  0 248.42 499.22  212.59 248.30 499.14  213.20
   4   6  -2 435.256 102.687   2-0.20812 0.71774 0.83504-0.23820 0.50931-0.65430  0  84.89 231.27  322.57  85.14 231.07  323.24
   4   6   2 399.347 121.492   2 0.02081 0.48916 0.69145-0.09434-0.72212 0.86708  0 223.85 487.34  244.63 223.70 487.57  244.98
   4   6   2 465.196  97.218   2-0.23832 0.74794 0.54119 0.05565 0.80642-0.66143  0  83.87 253.74  347.55  83.68 253.86  347.50
  -4  -6  -3 324.329 141.499   1-0.51285 0.00289 0.18899-0.78484-0.83742 0.61969  0  77.58 263.72   37.19  78.11 263.73   37.17
  -4  -6   3 435.752 141.950   1-0.67340 0.16338-0.23561-0.36044-0.70073 0.91836  0  85.68 194.60   65.15  85.80 194.59   64.57
   4  -6  -3 409.708 134.722   2 0.12681 0.38322-0.08774-0.50923-0.98804 0.77060  0  86.80 187.71  195.61  86.97 187.79  195.93
   4  -6   3 233.047 118.499   1-0.44392 0.95449-0.88475 0.28857 0.14191 0.07540  0 130.76 417.21  130.37 131.15 417.14  130.46
   4  -6   3 400.221 114.341   2 0.12203 0.38801-0.70586 0.10889-0.69776 0.91520  0  80.64 216.18  156.44  80.53 216.19  155.97
   4   6  -3 316.997 109.800   2-0.19755 0.70717 0.88097-0.28413 0.42996-0.64745  0  79.92 221.49  317.44  79.80 221.53  317.94
   4   6   3 346.128 119.575   2-0.00433 0.51412 0.78502-0.18793-0.61946 0.83688  0 219.58 494.20  254.65 219.31 494.39  253.09
   4   6   3 484.751 103.755   2-0.24085 0.75047 0.44720 0.14929 0.86140-0.64382  0  77.15 255.98  353.49  77.23 255.56  353.75
  -4  -6  -4 -54.269 126.429   1-0.48513-0.02483 0.23824-0.83409-0.84136 0.55107  0  70.27 275.18   33.57  69.49 275.54   33.92
  -4  -6   4  -1.527 136.331   1-0.68795 0.17793-0.31623-0.27983-0.65324 0.94342  0  79.99 181.46   70.15  79.75 181.44   69.99
   4  -6  -4 -16.829 119.818   2 0.12094 0.38902-0.00145-0.59566-0.99266 0.70275  0  81.02 177.34  199.75  80.24 177.40  200.87
   4  -6   4  56.139 135.501   1-0.43657 0.94713-0.88653 0.29034 0.15321 0.13654  0 111.87 406.44  131.47 111.87 406.53  131.24
   4  -6   4  25.865 108.433   2 0.11158 0.39852-0.78629 0.18889-0.60771 0.89750  0  71.22 215.60  148.64  71.35 215.54  149.00
   4   6  -4   6.235 102.958   2-0.18662 0.69624 0.91703-0.32019 0.35246-0.64244  0  72.45 210.81  312.37  72.25 210.58  312.98
  -4  -6  -5 230.480 150.764   1-0.45993-0.05003 0.28014-0.87598-0.84261 0.47974  0  58.13 288.23   31.39  58.46 288.03   31.12
  -4  -6   5 197.183 156.309   1-0.69638 0.18636-0.39525-0.20080-0.59902 0.96174  0  71.10 167.04   76.16  71.30 167.10   75.49
   4  -6  -5 167.711 136.700   2 0.11506 0.39491 0.07321-0.67032-0.99066 0.62827  0  71.21 165.16  205.41  71.28 165.26  205.16
   4  -6   5 145.916 148.029   1-0.42598 0.93654-0.88879 0.29260 0.16912 0.19307  0  91.35 397.24  132.46  91.43 396.78  132.34
   4  -6   5 226.521 120.985   2 0.09973 0.41038-0.85240 0.25500-0.51330 0.87554  0  59.63 213.15  142.54  59.37 213.48  142.36
   4   6  -5 161.271 123.265   2-0.17536 0.68498 0.94450-0.34766 0.27778-0.64026  0  61.84 198.38  307.67  62.31 198.16  308.37
   4   6   5 213.873  95.803   2-0.23902 0.74885 0.26210 0.33452 0.93497-0.57212  0  55.91 254.13    5.53  55.85 254.19    5.42
  -4  -6  -6  1201.4   203.4   1-0.43786-0.07210 0.31489-0.91073-0.84209 0.40665  0  44.71 301.34   29.14  44.84 301.46   28.76
  -4  -6   6  1258.4   220.0   1-0.69820 0.18819-0.47126-0.12479-0.53891 0.97417  0  60.51 151.02   81.36  60.38 151.20   81.04
   4  -6  -6  1525.2   211.4   2 0.10933 0.40063 0.13583-0.73294-0.98468 0.54981  0  60.27 151.16  208.74  59.73 151.24  208.79
   4  -6   6 690.772 180.250   1-0.41281 0.92337-0.89104 0.29486 0.18876 0.24586  0  69.43 387.38  134.20  69.30 387.66  133.70
   4  -6   6  1128.9   166.2   2 0.08665 0.42345-0.90449 0.30710-0.41759 0.85228  0  44.78 210.13  135.62  44.52 210.13  136.07
   4   6  -6 863.119 172.576   2-0.16413 0.67375 0.96471-0.36787 0.20592-0.64089  0  50.17 184.21  303.69  49.73 184.19  304.03
   4   6   6  1136.4   139.9   2-0.23620 0.74604 0.17998 0.41664 0.95489-0.51946  0  41.08 251.65   10.37  40.73 251.82   10.29
  -4  -6  -7 711.415 201.983   1-0.41924-0.09072 0.34283-0.93868-0.84066 0.33264  0  28.69 315.96   27.14  28.14 316.25   26.84
  -4  -6   7 423.177 194.750   1-0.69381 0.18379-0.54244-0.05361-0.47370 0.98150  0  46.86 133.32   86.43  46.51 133.22   86.58
   4  -6  -7 808.646 197.898   2 0.10403 0.40594 0.18698-0.78408-0.97684 0.46950  0  45.50 134.97  211.53  45.18 135.03  211.77
   4  -6   7 534.420 192.258   1-0.39730 0.90786-0.89310 0.29691 0.21102 0.29603  0  44.44 379.39  135.41  44.84 379.05  135.26
   4  -6   7 884.949 161.655   2 0.07291 0.43719-0.94361 0.34622-0.32292 0.83006  0  26.11 205.61  130.42  26.18 205.60  130.15
   4   6  -7 554.187 181.850   2-0.15289 0.66251 0.97871-0.38187 0.13693-0.64440  0  34.74 168.57  300.36  34.18 168.43  299.93
   4   6   7 617.002 124.230   2-0.23286 0.74270 0.10852 0.48810 0.96644-0.45844  0  22.16 248.55   14.45  22.08 248.56   14.44
  -4  -7   0 108.052 132.341   1-0.62838 0.11836-0.07386-0.62154-0.77439 0.77439  0  57.26 241.72   54.36  58.10 241.68   54.06
   4  -7   0 185.656 129.150   1-0.46699 0.97755-0.87795 0.18240 0.10548-0.10548  0 166.46 487.92  127.95 166.43 487.89  127.96
   4  -7   0  46.455 129.084   2 0.13563 0.37441-0.43567-0.26080-0.88983 0.88983  0  65.52 185.84  175.53  65.94 185.82  175.08
   4   7   0 -43.074  94.971   2-0.22727 0.73689 0.70098-0.00466 0.67600-0.67600  0  58.13 228.50  335.50  58.30 228.19  335.62
  -4  -7  -1  1590.9   205.3   1-0.60557 0.09555-0.01137-0.68403-0.79571 0.72317  0  56.34 253.74   50.31  56.33 253.61   50.06
  -4  -7   1  1269.5   189.8   1-0.64938 0.13937-0.14021-0.55519-0.74742 0.81997  0  57.58 229.83   58.27  57.68 229.65   58.33
   4  -7  -1  1726.9   193.0   2 0.13563 0.37441-0.34270-0.35377-0.92960 0.85712  0  66.49 180.33  180.67  66.03 180.30  180.87
   4  -7   1  1028.6   162.5   1-0.47275 0.98331-0.87595 0.18040 0.09598-0.02354  0 146.19 471.85  127.40 146.16 471.56  127.31
   4  -7   1  1842.6   196.8   2 0.13350 0.37654-0.52826-0.16820-0.83852 0.91100  0  63.55 189.81  168.69  63.51 189.79  169.00
   4   7  -1  1657.2   188.5   2-0.22005 0.72967 0.76278-0.06646 0.60807-0.68056  0  57.97 221.86  330.36  57.68 221.82  330.32
   4   7   1  1523.7   165.7   2-0.23317 0.74279 0.63214 0.06417 0.73894-0.66644  0  56.52 233.08  341.53  56.46 233.15  340.98
  -4  -7  -2  5075.8   297.8   1-0.58197 0.07201 0.04667-0.74182-0.81187 0.66672  0  52.54 265.72   46.34  52.39 265.70   46.35
  -4  -7   2  4922.2   296.0   1-0.66765 0.15763-0.20926-0.48614-0.71446 0.85955  0  55.12 217.36   62.75  55.02 217.28   62.83
   4  -7  -2  5004.6   288.4   2 0.13394 0.37610-0.25254-0.44393-0.95827 0.81331  0  63.89 173.22  186.27  63.78 173.15  186.29
   4  -7   2  2492.3   261.4   1-0.47183 0.98239-0.87629 0.18073 0.09748 0.04740  0 126.68 457.58  127.36 126.62 457.41  127.42
   4  -7   2  4960.3   270.0   2 0.12909 0.38095-0.61710-0.07936-0.77622 0.92118  0  59.18 192.23  163.02  58.68 192.24  162.77
   4   7  -2  4203.2   245.3   2-0.21165 0.72127 0.81650-0.12018 0.53715-0.68214  0  54.81 214.05  325.21  54.62 213.97  325.17
   4   7   2  4672.1   240.2   2-0.23763 0.74724 0.55811 0.13820 0.79501-0.65002  0  52.23 236.62  346.31  52.09 236.67  346.32
  -4  -7  -3  6077.1   348.5   1-0.55850 0.04854 0.09893-0.79409-0.82358 0.60586  0  46.07 278.16   42.98  46.10 278.08   43.01
  -4  -7   3  5555.5   317.9   1-0.68208 0.17206-0.27996-0.41544-0.67557 0.89320  0  50.23 204.43   67.45  50.06 204.34   67.53
   4  -7  -3  6629.4   322.0   2 0.13097 0.37907-0.16798-0.52849-0.97705 0.75961  0  59.29 164.36  191.24  59.16 164.31  191.27
   4  -7   3  4804.1   307.9   1-0.46636 0.97692-0.87816 0.18261 0.10649 0.11082  0 107.19 444.95  127.74 106.89 444.95  128.03
   4  -7   3  6167.6   287.2   2 0.12271 0.38733-0.69902 0.00255-0.70450 0.92194  0  51.61 193.25  156.55  51.25 193.16  156.52
   4   7  -3  5022.0   265.4   2-0.20227 0.71189 0.86189-0.16558 0.46501-0.68249  0  49.36 204.63  320.31  49.13 204.63  320.25
   4   7   3  6208.9   264.7   2-0.24017 0.74980 0.48079 0.21511 0.84330-0.62573  0  45.13 238.83  351.64  45.10 238.81  351.56
  -4  -7  -4  1644.6   226.1   1-0.53579 0.02583 0.14516-0.84031-0.83178 0.54149  0  37.17 291.00   40.42  37.33 291.08   40.02
  -4  -7   4  1396.1   215.0   1-0.69244 0.18242-0.35055-0.34485-0.63059 0.92076  0  42.59 190.53   72.28  42.61 190.50   72.36
   4  -7  -4  1409.6   208.1   2 0.12701 0.38303-0.09116-0.60530-0.98770 0.69778  0  52.33 153.58  195.75  52.05 153.70  195.73
   4  -7   4  1053.5   216.2   1-0.45744 0.96800-0.88101 0.18546 0.12068 0.16906  0  86.02 433.93  129.28  86.28 433.86  129.00
   4  -7   4  1379.6   182.1   2 0.11418 0.39586-0.77200 0.07554-0.62528 0.91520  0  41.00 192.97  150.24  41.19 192.66  150.32
   4   7  -4  1288.1   180.3   2-0.19235 0.70197 0.89934-0.20302 0.39267-0.68265  0  41.05 193.76  315.53  41.09 193.78  315.54
   4   7   4  1099.4   152.7   2-0.24128 0.75090 0.40386 0.29204 0.88243-0.59233  0  35.32 239.61  356.54  35.16 239.64  356.51
  -4  -7  -5 16569.8   492.8   1-0.51486 0.00490 0.18528-0.88043-0.83701 0.47414  0  25.81 305.06   37.39  25.85 304.99   37.41
  -4  -7   5 15403.5   478.1   1-0.69772 0.18771-0.42022-0.27518-0.58017 0.94289  0  32.74 175.52   77.23  32.53 175.42   77.29
   4  -7  -5 17814.5   490.9   2 0.12251 0.38745-0.02340-0.67322-0.99219 0.62980  0  42.57 141.10  199.63  42.08 141.06  199.61
   4  -7   5 11951.4   432.8   1-0.44578 0.95634-0.88427 0.18872 0.13905 0.22313  0  64.55 423.86  130.15  64.23 423.88  130.27
   4   7  -5 14742.3   426.5   2-0.18196 0.69157 0.92937-0.23305 0.32120-0.68367  0  30.50 181.33  310.92  30.28 181.31  311.04
  -4  -8   0  4460.3   317.7   1-0.65038 0.14036-0.14365-0.65109-0.74591 0.74591  0  17.86 255.08   58.50  17.88 255.05   58.55
   4  -8   0  4744.6   317.0   2 0.13503 0.37501-0.47487-0.32109-0.86964 0.86964  0  31.49 159.29  172.58  30.96 159.29  172.55
  -4  -8  -1  47.160 178.929   1-0.63307 0.12306-0.08786-0.70688-0.76909 0.69654  0  16.64 268.12   54.21  16.50 268.06   54.96
  -4  -8   1 242.485 167.607   1-0.66593 0.15591-0.20251-0.59223-0.71800 0.79054  0  16.44 242.11   62.46  16.72 242.00   62.39
  -5   0   0 130.898  79.776   1-0.31873-0.31873 0.47752-0.47752-0.81877 0.81877  0 189.22 134.06   17.43 189.42 133.85   17.12
  -5   0   0 108.082 112.926   1-0.31910-0.31910-0.89361 0.89361 0.31564-0.31564  0 433.70 106.23  143.36 433.77 105.91  142.74
  -5   0  -1 293.372  85.929   1-0.23349-0.40396 0.57390-0.57390-0.78494 0.71236  0 177.71 145.35    9.59 177.58 145.35    9.50
  -5   0  -1 170.610 117.353   1-0.35392-0.28429-0.89530 0.89530 0.27051-0.34295  0 451.51 116.51  139.64 451.69 116.48  139.48
  -5   0   1 247.885  76.071   1-0.41856-0.21889 0.34384-0.34384-0.84058 0.91316  0 200.28 121.26   27.51 200.31 121.37   26.77
  -5   0   1 275.178 111.639   1-0.28226-0.35595-0.88889 0.88889 0.36084-0.28840  0 417.77  94.16  146.23 417.86  94.41  146.10
  -5   0   1 272.485  38.858   2-0.21296-0.42434-0.15662 0.15662 0.96443-0.89186  0 454.17 119.37   30.04 454.57 119.65   29.74
  -5   0   1 247.503  39.401   2-0.23545-0.40158 0.59798-0.59798 0.76615-0.69366  0 487.81 157.18  344.07 488.21 157.76  343.49
  -5   0  -2  20.162  81.907   1-0.16462-0.47283 0.64136-0.64136-0.74937 0.60422  0 165.14 156.06    3.31 164.90 156.13    3.61
  -5   0  -2 -64.183 126.952   1-0.38679-0.25141-0.89411 0.89411 0.22575-0.37062  0 472.07 126.73  136.37 472.02 126.38  136.30
  -5   0   2 -60.694  59.653   1-0.52530-0.11215 0.16565-0.16565-0.83464 0.97979  0 210.33 107.99   38.55 210.39 107.69   38.69
  -5   0   2  -6.935 100.385   1-0.24342-0.39491-0.88081 0.88081 0.40611-0.26119  0 403.45  81.45  149.43 403.76  81.77  149.54
  -5   0   2  36.679  60.069   2-0.15262-0.48485-0.57626 0.57626 0.80289-0.65791  0 427.57  93.63   56.05 427.77  93.65   55.95
   5   0  -2  -3.809  22.852   2 0.13537 0.50218-0.45697 0.45697-0.87912 0.73416  0 172.60 371.36  174.20 172.92 371.75  173.71
   5   0  -2  17.998  24.234   2 0.11086 0.52660 0.11968-0.11968-0.98660 0.84165  0 151.39 336.29  208.02 151.50 336.51  207.85
  -5   0  -3 36324.2   528.8   1-0.41783-0.22037-0.89025 0.89025 0.18130-0.39861  0 494.75 135.85  133.11 495.09 135.86  133.18
  -5   0   3 35404.3   347.0   1-0.62240-0.01512-0.05667 0.05667-0.78065 0.99828  0 219.67  92.51   52.95 219.64  92.61   52.95
  -5   0   3 39513.6   382.6   1-0.20267-0.43566-0.86932 0.86932 0.45079-0.23341  0 390.96  67.35  153.14 391.36  67.58  153.07
  -5   0   3 39143.1   369.6   2-0.12173-0.51574-0.71714 0.71714 0.68621-0.46874  0 407.79  73.36   66.71 408.28  73.67   66.60
   5   0  -3 38107.0   308.6   2 0.12105 0.51650-0.71509 0.71509-0.68847 0.47103  0 192.42 403.04  155.14 192.31 402.77  155.21
   5   0  -3 37732.6   306.8   2 0.06069 0.57677 0.49770-0.49770-0.86523 0.64779  0 134.06 307.50  230.96 134.11 307.32  230.95
  -5   0   4  15.113  54.676   1-0.68592 0.04839-0.30308 0.30308-0.66156 0.95174  0 227.82  76.05   69.07 227.91  75.77   69.10
  -5   0   4  -3.752  89.037   1-0.16058-0.47775-0.85439 0.85439 0.49419-0.20436  0 380.80  51.85  156.95 380.42  51.49  156.64
  -5   0   4 -51.970 107.174   2-0.10457-0.53290-0.78092 0.78092 0.61582-0.32586  0 390.76  54.44   72.51 391.04  54.17   72.15
   5   0  -4  51.503  61.018   2 0.11094 0.52669-0.79054 0.79054-0.60228 0.31249  0 206.03 426.35  148.53 205.91 426.50  148.60
   5   0  -4  28.795  51.562   2 0.03377 0.60369 0.63530-0.63530-0.77153 0.48162  0 121.23 287.10  240.65 121.04 287.15  240.63
  -5   0  -5  4534.3   113.4   2 0.05017-0.68762 0.55536-0.55536-0.83010 0.46771  0 488.95  80.99  234.95 489.12  81.33  234.86
  -5   0   5  4068.6   132.7   1-0.69439 0.05687-0.53714 0.53714-0.47885 0.84157  0 235.15  56.55   86.04 235.15  56.67   86.15
  -5   0   5  4765.5   175.5   1-0.11798-0.52036-0.83617 0.83617 0.53564-0.17335  0 371.26  32.81  160.53 371.01  32.98  160.20
  -5   0   5  4670.3   253.8   2-0.09499-0.54249-0.81280 0.81280 0.57475-0.21231  0 374.68  33.39   75.15 374.90  33.65   75.18
   5   0  -5  4533.4   185.6   2 0.10543 0.53220-0.82398 0.82398-0.55672 0.19448  0 218.40 450.68  145.22 218.18 450.39  145.36
   5   0  -5  4480.0   170.8   2 0.01785 0.61961 0.70351-0.70351-0.71046 0.34807  0 108.33 269.27  245.98 107.98 269.15  245.96
   5   0   5  4834.4   245.8   1 0.04176 0.59657-0.74126 0.74126 0.66992-0.30763  0 121.00 331.44  173.33 120.64 331.39  173.35
  -5   0  -6   2.584  89.961   2 0.01799-0.65544 0.70295-0.70295-0.71101 0.27615  0 477.56  43.57  246.00 477.68  43.71  245.91
  -5   0   6  52.036  57.719   1-0.64231 0.00411-0.72197 0.72197-0.25730 0.69192  0 242.33  34.11  103.51 241.80  34.55  103.02
  -5   0   6  44.781  91.428   1-0.07647-0.56186-0.81547 0.81547 0.57372-0.13898  0 363.06  11.60  163.83 362.90  11.34  163.64
  -5   0   6 118.726 157.889   2-0.08998-0.54750-0.82847 0.82847 0.55275-0.11782  2 359.49  10.98   76.59 359.20  11.31   76.75
   5   0  -6  32.075 100.463   2 0.10257 0.53506-0.83889 0.83889-0.53454 0.09985  0 230.36 476.24  143.47 229.87 476.20  143.81
   5   0  -6  73.904  79.976   2 0.00842 0.62903 0.74023-0.74023-0.67230 0.23743  0  93.82 251.91  250.61  93.96 251.85  249.05
   5   0   6 -82.276 112.876   1 0.02136 0.61697-0.75564 0.75564 0.65464-0.21989  0 103.12 321.81  171.36 102.89 322.03  171.68
  -5   0  -7  6011.5   256.8   2 0.00562-0.64285 0.75043-0.75043-0.66093 0.15362  2 472.06   7.58  249.93 472.33   7.69  249.94
   5   0  -7  6188.1   239.1   2 0.00299 0.63424 0.75983-0.75983-0.65011 0.14281  0  78.55 234.62  250.76  78.30 234.52  250.77
   5   0   7  6938.3   317.7   1 0.00842 0.62991-0.76440 0.76440 0.64469-0.13749  0  83.68 312.60  170.59  83.27 312.57  170.61
   5   0   7  6092.8   124.9   2-0.23692 0.87421 0.19884-0.19884 0.95096-0.44296  0 134.31 422.96    9.36 134.57 423.01    9.18
   5   0   7  6896.3   128.4   2-0.17411 0.81140-0.45717 0.45717 0.87217-0.36417  0  95.14 353.28   47.97  94.78 352.99   47.94
   5   0  -8 -41.447 100.282   2 0.00046 0.63678 0.76872-0.76872-0.63958 0.05981  0  60.48 216.75  251.51  60.42 216.69  251.58
   5   0   8 126.127 152.261   1 0.00170 0.63663-0.76885 0.76885 0.63943-0.05977  0  61.30 302.61  170.47  61.24 302.82  170.07
   5   0   8  36.682  60.283   2-0.15481 0.79228-0.56492 0.56492 0.81050-0.23058  0  68.31 337.16   55.43  68.25 337.70   55.16
   5   0  -9 491.339 138.165   2-0.00005 0.63729 0.77048-0.77048-0.63746-0.01479  0  39.64 197.81  251.48  39.57 197.80  251.74
   5   0   9 558.538 193.998   1 0.00022 0.63812-0.76982 0.76982 0.63827 0.01385  0  35.86 292.69  170.11  36.12 292.52  169.94
   5   0   9 351.886  85.921   2-0.14648 0.78395-0.60741 0.60741 0.78076-0.12836  0  41.37 326.34   58.65  41.04 327.40   58.17
   5   0   9 435.582 113.187   2-0.24113 0.87816 0.42486-0.42486 0.87255-0.21982  0 132.95 495.58  355.37 133.35 495.63  355.18
  -5  -1   0-101.627  70.479   1-0.38703-0.25042 0.38879-0.48810-0.83609 0.83609  0 175.18 146.92   23.50 175.13 146.66   23.61
  -5  -1   0  21.234 129.937   1-0.19210-0.44623-0.86585 0.76647 0.46196-0.46196  0 455.76 117.71  154.27 455.79 117.55  153.98
  -5   1   0   3.940  67.592   1-0.23775-0.39970 0.56944-0.47014-0.78690 0.78690  0 200.55 119.13   10.10 200.56 119.51    9.87
  -5   1   0   1.021 104.990   1-0.46370-0.17450-0.87904 0.97841 0.11075-0.11075  0 417.36  92.24  128.52 417.29  92.22  128.32
  -5   1   0  15.027  29.826   2-0.18065-0.45638 0.93261-0.83313 0.31243-0.31243  0 485.62 150.88  310.98 485.88 151.28  310.50
  -5   1   0  10.995  31.298   2-0.23695-0.40008 0.57208-0.47260 0.78523-0.78523  0 460.54 122.57  345.50 460.62 122.74  345.34
  -5  -1  -1 577.894 104.003   1-0.31305-0.32440 0.48439-0.58370-0.81693 0.74435  0 165.65 157.86   16.53 165.62 157.83   16.60
  -5  -1  -1 652.333 157.990   1-0.24047-0.39786-0.88008 0.78070 0.40943-0.48188  0 470.92 128.93  149.99 471.02 128.91  149.80
  -5  -1   1 556.009  98.647   1-0.46809-0.16936 0.26694-0.36625-0.84240 0.91497  0 183.21 134.66   31.96 183.21 134.74   32.01
  -5  -1   1 586.293 131.716   1-0.14095-0.49739-0.84635 0.74697 0.51364-0.44118  0 443.01 104.98  158.03 443.10 105.24  158.29
  -5  -1   1 570.353  54.138   2-0.23060-0.40670 0.06790-0.16733 0.97068-0.89811  0 490.01 153.02   17.22 490.42 153.47   16.78
  -5  -1   1 641.313  59.519   2-0.14736-0.49011-0.60309 0.50361 0.78394-0.71145  0 458.57 118.21   58.44 459.24 118.61   57.86
  -5   1  -1 475.146  94.990   1-0.14381-0.49364 0.66014-0.56083-0.73725 0.66467  0 186.16 131.34    1.64 186.07 131.59    1.86
  -5   1  -1 659.081 137.924   1-0.47715-0.16105-0.87432 0.97369 0.08879-0.16123  0 438.40 102.10  126.76 438.49 102.08  126.82
  -5   1   1 474.408  79.582   1-0.35853-0.27892 0.42726-0.32795-0.83001 0.90258  0 215.06 106.28   20.68 215.22 106.22   20.85
  -5   1   1 478.322 105.174   1-0.45396-0.18424-0.88205 0.98141 0.12615-0.05371  0 397.11  81.47  129.57 397.07  81.51  129.38
  -5   1   1 645.914  64.705   2-0.22408-0.41321-0.02869 0.12813 0.97415-0.90158  0 435.74 101.05   22.63 436.22 101.23   22.34
  -5   1   1 461.426  62.290   2-0.15890-0.47812 0.97196-0.87248 0.17335-0.10086  2 504.12 179.43  302.10 505.13 179.41  302.09
  -5  -1  -2  8693.7   267.5   1-0.24940-0.38805 0.55707-0.65638-0.79213 0.64698  0 154.76 168.21   11.00 154.78 168.39   10.89
  -5  -1  -2  8827.0   306.5   1-0.28576-0.35244-0.88946 0.79009 0.35666-0.50154  0 488.94 139.45  145.87 489.17 139.54  145.78
  -5  -1   2  8765.5   224.2   1-0.54962-0.08783 0.11745-0.21676-0.82712 0.97227  0 189.92 121.66   41.98 189.90 121.81   41.81
  -5  -1   2  9266.9   265.5   1-0.08748-0.55086-0.82114 0.72176 0.56398-0.41907  0 432.70  91.56  162.99 433.01  91.70  162.74
  -5  -1   2  9678.5   172.8   2-0.08867-0.54880-0.83241 0.73293 0.54703-0.40205  0 430.58  90.96   77.22 431.12  91.23   77.15
  -5   1  -2  8340.6   294.6   1-0.49267-0.14553-0.86795 0.96731 0.06280-0.20768  0 461.15 111.23  125.08 461.36 111.27  125.05
  -5   1   2  8509.4   171.3   1-0.50146-0.13599 0.20966-0.11035-0.83940 0.98454  0 230.66  91.12   35.84 230.55  91.26   35.81
  -5   1   2  9026.6   198.9   1-0.45101-0.18719-0.88286 0.98222 0.13095 0.01392  0 377.02  69.70  129.91 376.98  69.85  129.71
  -5   1   2  9359.3   193.8   2-0.18956-0.44773-0.35390 0.45334 0.91587-0.77073  0 416.96  83.84   41.39 417.37  84.01   41.46
   5  -1  -2  8638.8   134.6   2 0.09652 0.54111-0.86676 0.76720-0.48929 0.34440  0 184.45 389.25  140.60 184.22 388.88  140.75
   5  -1  -2  9021.0   136.4   2 0.11972 0.51774 0.01582-0.11533-0.99268 0.84773  0 141.88 319.54  201.87 141.93 319.32  201.87
   5   1  -2  8992.1    88.6   2 0.12384 0.51371-0.04010 0.13959-0.99149 0.84653  0 168.90 370.89  198.68 168.92 370.61  198.67
   5   1  -2  9096.4    88.6   2 0.07089 0.56657 0.43623-0.33671-0.89704 0.75208  0 150.83 341.20  226.99 150.90 340.94  226.95
  -5  -1  -3 530.915 113.447   1-0.19686-0.44059 0.61081-0.71012-0.76691 0.54919  0 142.70 178.29    6.39 142.61 178.48    6.35
  -5  -1   3 408.598  87.411   1-0.62178-0.01574-0.05494-0.04440-0.78126 0.99889  0 195.09 107.59   52.75 195.03 107.74   52.84
  -5  -1   3 546.555 128.786   1-0.03261-0.60572-0.79061 0.69123 0.61145-0.39408  0 425.35  76.67  167.56 425.37  76.55  167.25
  -5  -1   3 555.958  95.643   2-0.06897-0.56850-0.88613 0.78665 0.45827-0.24081  0 411.39  70.95   83.12 411.31  70.97   83.22
  -5   1  -3 427.092 173.875   1-0.50929-0.12891-0.85993 0.95929 0.03398-0.25129  0 486.49 119.94  123.01 486.54 119.95  123.08
  -5   1   3 429.895  54.555   1-0.64032 0.00280-0.11024 0.20959-0.76015 0.97779  0 248.45  73.92   56.64 248.15  74.20   56.40
  -5   1   3 380.569  77.890   1-0.46229-0.17591-0.87950 0.97886 0.11299 0.10433  0 355.87  57.47  128.94 355.35  57.24  128.48
  -5   1   3 408.186  99.436   2-0.16160-0.47587-0.52808 0.62756 0.83368-0.61621  0 400.42  67.04   52.63 400.44  67.04   52.63
   5  -1  -3 388.183  65.122   2 0.08444 0.55319-0.91207 0.81251-0.40123 0.18389  0 198.70 411.96  135.00 198.72 411.82  135.03
   5  -1  -3 449.477  62.515   2 0.08929 0.54817 0.31064-0.41016-0.94632 0.72889  0 129.52 298.43  219.12 129.54 298.25  219.13
   5  -1   3 460.059 109.755   1 0.02309 0.61525-0.75446 0.65508 0.65594-0.43857  0 156.32 363.83  172.22 156.47 363.84  171.82
   5   1  -3 445.875  59.990   2 0.13536 0.50219-0.45773 0.55723-0.87873 0.66129  0 189.58 403.85  173.51 189.42 403.66  173.66
   5   1  -3 368.989  53.967   2 0.01415 0.62331 0.71813-0.61862-0.69576 0.47833  0 132.25 309.35  247.52 132.26 309.66  247.16
  -5  -1  -4  4239.3   226.6   1-0.15506-0.48239 0.65006-0.74936-0.74390 0.45360  0 129.12 188.12    2.68 129.07 188.33    2.80
  -5  -1   4  3894.2   163.8   1-0.67387 0.03635-0.23784 0.13849-0.69952 0.98970  0 198.38  92.12   64.63 198.42  92.24   64.72
  -5  -1   4  4225.7   222.1   1 0.02242-0.66076-0.75491 0.65553 0.65544-0.36561  0 420.23  58.85  171.87 420.47  59.12  171.76
  -5  -1   4  4696.0   215.5   2-0.06056-0.57691-0.90607 0.80659 0.41878-0.12882  0 393.55  50.96   85.84 393.91  51.25   85.79
  -5   1  -4  4122.7    97.0   2-0.03412-0.60311 0.87218-0.77266-0.48800 0.19811  0 480.36  94.52  262.24 480.43  94.76  262.30
  -5   1   4  3975.4    90.0   1-0.69450 0.05698-0.53605 0.63540-0.47990 0.77008  0 272.77  53.34   85.83 273.13  53.58   86.06
  -5   1   4  4535.3    98.4   1-0.51566-0.12254-0.85649 0.95586 0.02268 0.26707  0 327.08  44.05  122.80 326.60  44.31  122.32
  -5   1   4  4105.4   224.0   2-0.14224-0.49523-0.62764 0.72712 0.76540-0.47544  0 384.26  48.62   59.73 384.52  48.98   59.65
   5  -1  -4  4441.6   163.9   2 0.07984 0.55779-0.92569 0.82612-0.36976 0.07997  0 211.41 433.88  132.97 211.13 433.54  133.05
   5  -1  -4  4490.2   157.4   2 0.06543 0.57203 0.46989-0.56940-0.88030 0.59039  0 118.06 280.47  229.02 117.81 280.30  229.13
   5  -1   4  4410.5   228.5   1-0.01339 0.65172-0.77856 0.67918 0.62742-0.33760  0 140.47 354.08  169.18 140.35 354.04  168.83
   5   1  -4  4255.0   153.6   2 0.12982 0.50773-0.60535 0.70484-0.78530 0.49538  0 203.31 428.22  163.65 203.26 427.93  163.63
   5   1  -4  4280.5   144.1   2-0.00751 0.64475 0.79556-0.69605-0.60583 0.31594  0 119.18 289.33  253.98 118.95 289.10  254.09
  -5  -1  -5  1268.9    86.1   2 0.10953-0.74699 0.13382-0.23333-0.98493 0.62255  2 496.45  81.67  208.87 496.87  81.90  208.68
  -5  -1   5  1297.6   135.1   1-0.69749 0.05997-0.41483 0.31549-0.58431 0.94703  0 200.01  74.56   77.04 199.98  74.81   76.90
  -5  -1   5  1209.1   159.0   2-0.05742-0.58005-0.91301 0.81353 0.40388-0.04144  0 377.74  30.20   86.66 377.65  30.50   86.75
  -5   1  -5  1047.2   129.8   2-0.04847-0.58877 0.90567-0.80616-0.42120 0.05883  0 470.30  63.51  266.80 470.63  63.57  266.66
  -5   1   5  1447.6   172.6   2-0.12931-0.50816-0.68576 0.78524 0.71625-0.35380  0 369.07  29.22   63.47 369.10  29.37   64.07
   5  -1  -5  1070.8   116.1   2 0.07873 0.55890-0.92880 0.82924-0.36212-0.00012  0 223.09 456.60  132.40 222.81 456.46  132.58
   5  -1  -5  1272.5   131.5   2 0.04861 0.58885 0.56343-0.66294-0.82474 0.46235  0 105.60 263.43  235.39 105.40 263.36  235.42
   5  -1   5  1395.6   163.6   1-0.03825 0.67659-0.79398 0.69460 0.60674-0.24445  0 123.28 344.59  166.69 123.11 344.60  166.78
   5   1  -5  1371.6   139.7   2 0.12448 0.51307-0.67935 0.77885-0.72318 0.36078  0 215.35 452.23  158.20 215.57 452.14  158.08
   5   1  -5  1182.4   122.0   2-0.01815 0.65538 0.82863-0.72912-0.55950 0.19714  0 105.84 270.95  257.43 105.73 270.93  257.41
  -5  -1  -6  6761.9   187.6   2 0.07182-0.70928 0.43034-0.52986-0.89980 0.46494  0 483.46  41.88  226.62 483.73  42.14  226.57
  -5  -1   6  6295.7   200.0   1-0.68997 0.05244-0.57088 0.47153-0.44502 0.88029  0 199.76  54.88   88.90 199.69  55.05   88.89
  -5  -1   6  7372.1   333.8   2-0.05727-0.58020-0.91333 0.81385 0.40317 0.03177  2 361.68   7.85   86.85 361.90   7.86   86.80
  -5   1  -6  6086.6   214.4   2-0.04982-0.58742 0.90855-0.80904-0.41479-0.02004  0 464.92  32.55  267.12 465.27  32.78  267.07
  -5   1   6  7170.0   343.3   2-0.12101-0.51646-0.72001 0.81949 0.68333-0.24839  2 353.52   7.59   66.96 353.85   7.59   66.84
   5  -1  -6  6757.0   250.6   2 0.07952 0.55811-0.92661 0.82704-0.36752-0.06717  0 234.54 482.09  133.05 234.24 481.79  132.91
   5  -1  -6  7096.5   232.3   2 0.03704 0.60041 0.62011-0.71962-0.78364 0.34878  0  92.01 246.74  239.58  91.73 246.68  239.49
   5  -1   6  7098.3   296.0   1-0.05414 0.69247-0.80320 0.70382 0.59325-0.15850  0 104.87 335.37  165.38 104.42 335.39  165.48
   5  -1   6  6739.8   102.4   2-0.20974 0.84704-0.18717 0.08773 0.95968-0.52425  0 138.88 402.95   31.66 139.01 402.89   31.53
   5  -1   6  6954.7   101.4   2-0.13846 0.77593-0.64519 0.54571 0.75137-0.31643  0 112.70 357.13   60.86 112.33 356.76   60.96
   5   1  -6  6739.9   242.4   2 0.12058 0.51697-0.71946 0.81896-0.68399 0.24911  0 227.54 478.49  154.85 227.23 478.21  154.85
   5   1  -6  6780.6   222.5   2-0.02329 0.66053 0.84335-0.74384-0.53686 0.10202  0  91.70 253.70  258.90  91.52 253.56  258.99
  -5  -1   7 561.924 104.839   1-0.65458 0.01638-0.69591 0.59655-0.29535 0.80241  0 197.81  32.49  100.15 197.93  32.09  100.30
   5  -1  -7 593.712 124.026   2 0.02942 0.60804 0.65466-0.75418-0.75535 0.24801  0  76.68 229.82  242.22  76.28 229.74  242.09
   5  -1   7 443.972 148.340   1-0.06281 0.70114-0.80806 0.70868 0.58574-0.07854  0  84.36 326.19  164.44  83.93 326.20  164.77
   5  -1   7 570.296  74.928   2-0.23133 0.86863 0.08082-0.18025 0.96951-0.46151  0 143.67 438.08   16.10 143.73 438.17   16.04
   5  -1   7 615.281  70.239   2-0.11673 0.75421-0.73665 0.63717 0.66612-0.15869  0  87.31 338.54   68.46  87.18 338.88   68.23
   5   1  -7 624.691 111.952   2-0.02512 0.66236 0.84839-0.74888-0.52877 0.02146  0  75.75 236.28  259.54  75.70 236.21  259.55
   5   1   7 558.381  54.644   2-0.21152 0.84881-0.17098 0.27042 0.96230-0.45430  0  94.57 359.02   31.06  94.62 359.80   30.57
   5  -1  -8  3213.6   226.5   2 0.02477 0.61269 0.67492-0.77444-0.73748 0.15765  0  59.01 212.01  243.71  58.50 212.09  243.67
   5  -1   8  2744.8   261.3   1-0.06562 0.70396-0.80961 0.71023 0.58329-0.00363  0  61.42 316.86  164.42  61.09 316.87  164.54
   5  -1   8  2710.2   162.8   2-0.23756 0.87485 0.21777-0.31720 0.94665-0.36608  0 142.74 470.74    8.33 143.15 470.78    8.05
   5  -1   8  3184.7   146.5   2-0.11026 0.74773-0.76080 0.66132 0.63955-0.05963  0  63.21 327.75   70.35  62.98 327.62   70.33
   5   1  -8  2861.6   218.1   2-0.02474 0.66198 0.84741-0.74789-0.53037-0.04941  0  57.78 218.33  259.44  57.59 218.35  259.43
   5   1   8  3390.4   132.9   2-0.19008 0.82737-0.35016 0.44959 0.91720-0.33663  0  67.29 343.00   41.10  66.90 342.63   41.23
   5   1   8  2668.9   140.4   2-0.23932 0.87634 0.51547-0.41599 0.82281-0.24285  0 131.22 457.86  349.29 131.28 457.68  349.25
   5  -1  -9  30.444 130.536   2 0.02231 0.61515 0.68525-0.78477-0.72796 0.07566  0  37.75 193.24  244.41  37.64 193.25  244.48
   5  -1   9-227.735 146.667   1-0.06358 0.70191-0.80848 0.70910 0.58508 0.06704  0  35.42 307.05  164.57  35.18 307.14  164.71
   5  -1   9 -17.462  78.915   2-0.10934 0.74681-0.76431 0.66483 0.63551 0.01689  0  36.58 319.18   70.54  36.60 318.96   70.64
   5   1  -9 186.227 136.290   2-0.02285 0.66008 0.84210-0.74258-0.53884-0.11341  0  36.57 199.17  258.62  36.47 199.47  258.85
   5   1   9  67.198  78.498   2-0.17825 0.81555-0.43095 0.53039 0.88459-0.23145  0  39.37 331.07   46.69  39.13 332.04   46.27
   5   1   9  65.702 100.382   2-0.23731 0.87433 0.56479-0.46532 0.79037-0.13791  0 129.29 495.09  345.37 128.20 494.72  345.86
  -5  -2   0  9590.2   266.2   1-0.44455-0.19290 0.30453-0.50315-0.84240 0.84240  0 158.03 158.23   29.41 158.08 158.36   29.47
  -5  -2   0 10036.0   316.2   1-0.09348-0.54485-0.82420 0.62544 0.55853-0.55853  0 483.31 127.47  162.30 483.55 127.57  162.25
  -5   2   0  9093.2   239.4   1-0.59624-0.04196-0.79065 0.98938-0.13918 0.13918  0 406.48  75.53  111.35 406.68  75.59  111.28
   5  -2   0  9360.7   102.2   2 0.03991 0.59772-0.99262 0.79349-0.11451 0.11451  0 170.08 375.99  117.64 169.91 375.76  117.71
   5  -2   0  9512.2   102.7   2 0.11789 0.51966-0.74312 0.54413-0.65869 0.65869  0 146.93 337.77  152.79 146.86 337.52  152.87
  -5  -2  -1 19761.8   382.2   1-0.38200-0.25545 0.39568-0.59430-0.83517 0.76260  0 150.41 169.20   23.00 150.45 169.34   23.11
  -5  -2  -1 20055.9   410.8   1-0.14743-0.49091-0.84908 0.65032 0.50728-0.57974  0 496.44 139.69  157.97 496.75 139.79  157.75
  -5  -2   1 19867.2   359.5   1-0.50982-0.12763 0.19455-0.39316-0.83799 0.91057  0 164.11 146.59   36.99 164.13 146.69   36.81
  -5  -2   1 20144.4   398.9   1-0.03814-0.60019-0.79391 0.59515 0.60684-0.53438  0 473.18 114.26  167.00 473.34 114.43  166.79
  -5  -2   1 20184.1   203.5   2-0.02380-0.61367-0.97103 0.77207 0.23776-0.16527  0 447.17  94.75   97.09 447.51  95.16   97.04
  -5   2  -1 18573.1   340.4   1-0.58895-0.04925-0.79879 0.99752-0.12276 0.05032  0 431.36  84.74  112.51 431.59  84.79  112.41
  -5   2  -1 19332.7   212.4   2-0.23153-0.40549 0.65371-0.45477 0.72045-0.79295  0 442.06  91.38  339.23 442.18  91.62  339.35
  -5   2   1 20747.8   257.4   1-0.28425-0.35320 0.51801-0.31939-0.80677 0.87934  0 227.33  88.62   13.95 227.26  88.85   13.99
  -5   2   1 18882.3   267.2   1-0.61395-0.02425-0.76822 0.96695-0.18138 0.25382  0 381.12  65.64  108.48 381.03  65.74  108.36
  -5   2   1 21182.8   265.2   2-0.22916-0.40814 0.04463 0.15424 0.97237-0.89979  0 417.28  78.21   18.01 417.61  78.48   18.12
   5  -2  -1 19165.1   199.9   2 0.03390 0.60373-0.99629 0.79716-0.07904 0.00660  0 184.21 394.22  115.57 184.01 393.99  115.64
   5  -2  -1 19991.6   203.6   2 0.13577 0.50177-0.36328 0.16429-0.92173 0.84925  0 137.77 317.84  179.63 137.76 317.63  179.60
  -5  -2  -2  2245.3   180.3   1-0.32550-0.31195 0.46928-0.66789-0.82087 0.67573  0 141.13 179.64   18.17 141.22 179.84   17.74
  -5  -2   2  2088.6   167.2   1-0.57306-0.06439 0.06704-0.26566-0.81677 0.96191  0 168.52 134.11   45.12 168.49 134.21   45.05
  -5  -2   2  1995.6   226.0   1 0.01749-0.65583-0.75829 0.55953 0.65168-0.50677  0 466.03  99.62  171.47 466.28  99.89  171.36
  -5  -2   2  2399.5   147.1   2-0.01580-0.62183-0.98068 0.78155 0.19499-0.05009  0 427.12  76.32   99.57 427.26  76.49   99.60
  -5   2  -2  2005.2   221.9   1-0.58808-0.05012-0.79973 0.99845-0.12085-0.02402  0 457.01  93.61  112.66 457.27  93.32  112.55
  -5   2  -2  2088.9   112.6   2-0.20204-0.43499 0.86288-0.66393 0.46327-0.60826  0 449.55  89.05  320.25 449.84  89.24  320.13
  -5   2   2  2222.6    90.9   1-0.48187-0.15558 0.24380-0.04518-0.84164 0.98679  0 251.60  71.51   33.58 251.41  71.73   33.55
  -5   2   2  2159.4   115.8   1-0.65011 0.01191-0.70596 0.90469-0.28103 0.42590  0 351.42  55.61  101.63 351.16  55.60  101.33
  -5   2   2  2549.6   164.6   2-0.20889-0.42841-0.19523 0.39410 0.95825-0.81311  0 403.30  66.45   31.91 403.46  66.63   32.00
   5  -2  -2  2192.4   110.0   2 0.03545 0.60218-0.99547 0.79634-0.08818-0.05672  0 196.31 411.06  116.06 196.06 410.86  116.17
   5  -2  -2  2386.1   106.4   2 0.12464 0.51290-0.05248-0.14650-0.99081 0.84585  0 129.24 300.99  197.99 129.25 300.85  197.96
   5  -2   2  2271.9   164.8   1-0.01836 0.65669-0.78173 0.58298 0.62334-0.47843  0 174.41 389.15  168.33 174.29 389.16  168.42
   5   2  -2  2301.0    81.0   2 0.11376 0.52370 0.08806 0.11097-0.98960 0.84464  0 174.75 390.09  206.05 174.77 389.84  206.02
   5   2  -2  2072.9    75.9   2-0.01975 0.65698 0.83322-0.63419-0.55258 0.40764  0 137.33 328.29  257.92 137.40 328.12  257.89
  -5  -2  -3  20.933  98.271   1-0.27661-0.36084 0.52706-0.72567-0.80355 0.58583  0 130.34 189.97   13.48 130.40 189.98   13.30
  -5  -2   3  70.181  90.917   1-0.62830-0.00922-0.07364-0.12505-0.77448 0.99211  0 171.07 120.31   54.35 171.06 120.66   54.04
  -5  -2   3 131.436 100.557   2-0.01516-0.62247-0.98135 0.78222 0.19163 0.02572  0 409.39  58.46   99.81 409.63  58.57   99.80
  -5   2  -3 127.987 169.245   1-0.59135-0.04686-0.79618 0.99491-0.12809-0.08922  0 485.23 100.97  111.92 484.95 101.25  112.05
  -5   2  -3  42.855  68.198   2-0.16922-0.46781 0.95644-0.75749 0.23788-0.45537  0 452.97  78.96  305.96 452.90  78.92  305.95
  -5   2   3  83.481 110.595   2-0.18832-0.44897-0.36285 0.56172 0.91262-0.69491  0 389.11  52.40   42.04 389.22  52.55   42.01
   5  -2  -3  29.169  60.567   2 0.03921 0.59842-0.99313 0.79399-0.11028-0.10706  0 207.52 428.53  117.33 207.39 428.62  117.46
   5  -2  -3  96.988  58.519   2 0.10581 0.53164 0.17009-0.36913-0.97973 0.76230  0 119.91 284.81  210.95 120.10 285.05  210.78
   5  -2   3 -41.240  90.364   1-0.06382 0.70216-0.80862 0.60986 0.58486-0.36749  0 157.20 378.59  165.26 157.33 378.48  164.69
   5   2  -3  20.822  55.050   2 0.13354 0.50401-0.23916 0.43815-0.96175 0.74431  0 190.46 415.01  187.03 190.26 415.00  187.08
   5   2  -3  35.519  45.315   2-0.04395 0.68118 0.89567-0.69664-0.44255 0.22514  0 123.57 304.63  265.66 123.70 304.97  265.28
  -5  -2  -4 775.343 140.031   1-0.23585-0.40160 0.57143-0.77004-0.78603 0.49573  0 118.14 199.84   10.14 117.93 199.94    9.71
  -5  -2   4 937.179 119.548   1-0.67005 0.03253-0.21964 0.02096-0.70908 0.99925  0 171.82 106.07   63.33 171.78 105.82   63.52
  -5  -2   4  1227.9   151.5   2-0.01735-0.62012-0.97877 0.77981 0.20423 0.08572  0 393.16  39.83   98.98 393.27  39.91   99.04
  -5   2  -4 911.702  98.859   2-0.14295-0.49428 0.98665-0.78762 0.07799-0.36788  0 453.03  61.77  296.43 453.01  61.87  296.49
  -5   2   4  1165.0   161.6   2-0.17113-0.46616-0.47553 0.67440 0.86290-0.57261  0 374.39  36.76   49.37 374.94  36.34   49.14
   5  -2  -4 957.608 110.589   2 0.04389 0.59374-0.98941 0.79028-0.13834-0.15145  0 218.16 448.21  119.26 218.37 448.04  119.11
   5  -2  -4  1193.1   119.8   2 0.08774 0.54972 0.32240-0.52144-0.94253 0.65262  0 109.94 269.90  219.67 109.87 269.59  219.85
   5  -2   4 996.722 147.870   1-0.09415 0.73248-0.82453 0.62577 0.55793-0.26810  0 139.89 368.64  162.43 139.89 368.50  162.19
   5   2  -4  1138.3   124.9   2 0.13594 0.50161-0.41452 0.61351-0.89983 0.60991  0 202.98 437.93  176.38 202.98 437.85  176.42
   5   2  -4  1047.4   107.1   2-0.05260 0.68984 0.91433-0.71531-0.40153 0.11164  0 111.50 286.16  268.02 111.31 286.19  267.92
  -5  -2  -5 329.086 127.464   1-0.20300-0.43445 0.60476-0.80338-0.77010 0.40723  0 104.16 210.00    7.12 103.75 209.86    6.88
  -5  -2  -5 175.084  76.690   2 0.12401-0.76156-0.04267-0.15632-0.99136 0.62896  0 488.18  59.82  199.06 489.24  60.08  198.52
  -5  -2   5 194.076 102.520   1-0.69375 0.05622-0.36292 0.16423-0.62210 0.98482  0 170.65  89.56   73.46 170.52  89.22   73.22
  -5  -2   5 238.717 153.174   2-0.02122-0.61625-0.97429 0.77533 0.22428 0.13816  0 378.01  19.07   97.50 377.58  19.53   97.84
  -5   2  -5 176.851 103.092   2-0.12344-0.51380 0.99176-0.79273-0.03435-0.32802  0 451.53  39.77  289.93 451.66  39.68  289.95
  -5   2   5 239.890 155.958   2-0.15771-0.47976-0.54933 0.74829 0.82059-0.45814  0 360.55  17.58   54.55 360.64  17.99   54.08
   5  -2  -5 366.635 109.890   2 0.04904 0.58859-0.98429 0.78515-0.16964-0.19260  0 229.14 469.95  120.83 229.24 469.82  120.95
   5  -2  -5 305.146  86.200   2 0.07271 0.56475 0.42522-0.62426-0.90216 0.53978  0  98.42 253.94  226.41  98.31 254.09  226.24
   5  -2   5 117.488 117.703   1-0.11327 0.75160-0.83396 0.63520 0.54007-0.17778  0 121.61 358.94  160.13 121.50 359.06  160.59
   5  -2   5 277.726  47.472   2-0.18311 0.82040-0.39911 0.20024 0.89843-0.53558  0 151.74 407.61   44.96 152.56 408.13   44.26
   5  -2   5 257.259  46.084   2-0.05333 0.69080-0.92168 0.72272 0.38428-0.02183  0 113.84 341.44   88.43 113.77 342.01   88.01
   5   2  -5 234.975 172.543   1-0.17374 0.81119 0.63291-0.43429-0.75448 0.39161  0 464.43 471.67    4.48 464.45 471.90    4.38
   5   2  -5 275.018  96.355   2 0.13387 0.50368-0.51739 0.71638-0.84522 0.48282  0 214.96 461.75  169.52 214.67 461.62  169.73
   5   2  -5 307.161  81.498   2-0.05538 0.69262 0.91987-0.72084-0.38830 0.02594  0  98.38 269.16  268.64  98.42 268.83  268.76
  -5  -2  -6  6001.3   290.6   1-0.17762-0.45983 0.62927-0.82789-0.75661 0.32117  0  87.88 219.86    4.67  87.60 219.99    4.70
  -5  -2  -6  6063.6   205.9   2 0.10205-0.73951 0.20472-0.40375-0.97349 0.53862  0 482.68  26.37  212.87 482.91  26.64  212.81
  -5  -2   6  5428.8   223.1   1-0.69755 0.06003-0.49520 0.29651-0.51788 0.95314  0 167.37  70.42   82.78 167.34  70.47   82.86
  -5   2  -6  5170.3   243.9   2-0.10789-0.52935 0.98689-0.78786-0.12008-0.31476  0 450.18  12.70  284.96 450.40  12.92  284.94
   5  -2  -6  6352.8   265.6   2 0.05438 0.58325-0.97767 0.77854-0.20296-0.23172  0 240.43 495.16  123.01 240.24 494.78  122.92
   5  -2  -6  6271.7   238.6   2 0.06121 0.57625 0.49471-0.69375-0.86690 0.43203  0  85.22 238.39  230.88  85.05 238.29  230.75
   5  -2   6  5800.1   281.7   1-0.12398 0.76232-0.83893 0.64017 0.52994-0.09519  0 102.29 349.98  159.66 101.82 349.93  159.70
   5  -2   6  5760.4   152.9   2-0.21181 0.84910-0.16805-0.03083 0.96276-0.52733  0 154.00 433.54   30.43 153.95 433.35   30.40
   5  -2   6  5748.2   143.7   2-0.05434 0.69181-0.91959 0.72063 0.38911 0.04582  0  95.30 331.29   87.76  94.94 331.25   87.70
   5   2  -6  5261.9   325.3   1-0.21651 0.85396 0.59128-0.39266-0.77686 0.34142  0 469.57 497.45    7.98 469.58 497.41    8.04
   5   2  -6  5686.6   245.0   2 0.13120 0.50635-0.58053 0.77952-0.80360 0.36872  0 226.14 488.03  165.23 225.96 487.77  165.40
   5   2  -6  5449.4   214.2   2-0.05506 0.69230 0.91924-0.72021-0.38983-0.04500  0  84.49 252.03  268.71  84.26 251.89  268.66
  -5  -2  -7  1552.9   196.9   1-0.15893-0.47852 0.64656-0.84517-0.74613 0.23811  0  69.26 230.19    3.34  69.19 230.45    3.13
  -5  -2   7  1511.1   158.4   1-0.68238 0.04486-0.61022 0.41153-0.40248 0.91029  0 162.24  48.48   92.33 162.19  48.80   92.24
   5  -2  -7  1551.7   168.3   2 0.05283 0.58463 0.54130-0.74034-0.83917 0.33182  0  70.08 221.81  234.48  69.77 221.86  233.89
   5  -2   7  1514.4   198.2   1-0.12814 0.76648-0.84076 0.64200 0.52603-0.01883  0  80.41 341.03  159.39  80.36 340.97  159.36
   5  -2   7  1285.5   138.4   2-0.22587 0.86316-0.00481-0.19406 0.97415-0.46615  0 152.92 460.26   21.21 153.28 460.29   20.96
   5  -2   7  1477.8   118.1   2-0.05871 0.69618-0.91019 0.71123 0.41002 0.09741  0  74.94 322.21   86.44  74.70 322.29   86.36
   5   2  -7  1679.9   184.2   2-0.05284 0.69008 0.91482-0.71579-0.40038-0.10692  0  68.54 234.85  268.23  68.28 234.78  267.99
   5   2   7  1478.9    90.4   2-0.22691 0.86420 0.00883 0.19004 0.97388-0.46588  0  84.61 354.79   20.50  84.56 355.25   20.18
   5   2   7  1439.0    93.4   2-0.23286 0.86989 0.63639-0.43744 0.73538-0.22791  0 127.74 431.85  340.94 128.14 432.04  340.66
  -5  -2  -8  2080.7   252.9   1-0.14626-0.49119 0.65797-0.85659-0.73870 0.15811  0  48.00 241.41    2.22  47.98 241.54    2.06
  -5  -2   8  1867.3   215.8   1-0.65075 0.01255-0.70456 0.50583-0.28305 0.86254  0 155.31  22.72  101.32 155.25  23.23  101.18
   5  -2  -8  1937.1   199.3   2 0.04694 0.59052 0.57169-0.77073-0.81913 0.23930  0  51.79 204.55  236.44  51.91 204.46  236.00
   5  -2   8  1826.6   229.4   1-0.12700 0.76533-0.84024 0.64149 0.52712 0.05253  0  57.07 332.04  159.42  56.50 332.00  159.45
   5  -2   8  1926.4   179.2   2-0.23281 0.87011 0.10761-0.30649 0.96655-0.38598  0 150.41 490.47   14.48 150.40 490.38   14.49
   5  -2   8  1822.4   140.1   2-0.06458 0.70205-0.89676 0.69780 0.43778 0.14214  0  52.24 314.73   84.51  52.11 314.49   84.56
   5   2  -8  1736.8   208.3   2-0.04937 0.68660 0.90759-0.70856-0.41694-0.16284  0  50.34 216.99  267.48  49.85 217.06  266.93
   5   2   8  1687.2   125.3   2-0.21219 0.84948-0.16428 0.36315 0.96332-0.38275  0  58.61 342.10   30.10  58.35 341.86   30.18
   5   2   8  1525.7   134.9   2-0.22858 0.86561 0.68762-0.48868 0.68915-0.10918  0 128.11 467.69  336.78 128.25 467.53  336.70
  -5  -2  -9 12796.2   450.6   1-0.13891-0.49854 0.66445-0.86306-0.73431 0.08115  0  23.81 253.41    1.39  23.39 253.57    1.45
   5  -2  -9 12504.0   391.8   2 0.04320 0.59426 0.59042-0.78946-0.80594 0.15364  0  30.93 185.64  237.39  30.77 185.62  237.33
   5  -2   9 11972.5   454.0   1-0.12147 0.75980-0.83778 0.63902 0.53233 0.11979  0  29.87 322.75  159.82  29.44 322.82  159.91
   5  -2   9 11866.8   275.0   2-0.07134 0.70881-0.88017 0.68121 0.46927 0.18314  0  26.69 307.76   82.53  26.27 307.68   82.49
   5   2  -9 11706.2   371.6   2-0.04489 0.68213 0.89805-0.69902-0.43760-0.21465  0  28.37 198.32  265.62  28.19 198.20  265.60
   5   2   9 12520.7   251.1   2-0.20136 0.83866-0.26168 0.46055 0.94392-0.29077  0  31.14 332.95   35.84  30.69 332.71   35.91
  -5  -3   0  36.181 100.589   1-0.49318-0.14427 0.22431-0.52223-0.84051 0.84051  0 138.17 169.01   33.82 138.44 169.18   34.85
  -5  -3   0  42.258  70.782   2 0.06295-0.70058-0.96430 0.66561-0.25720 0.25720  0 450.77  76.36  126.04 450.76  76.35  126.16
  -5   3   0  39.819 105.138   1-0.67943 0.04191-0.62251 0.92053-0.38841 0.38841  0 402.71  55.41   93.52 402.45  55.30   93.33
   5  -3   0   7.139  53.986   2-0.04792 0.68539-0.93240 0.63396 0.35823-0.35823  0 190.12 415.54   89.54 189.86 415.49   89.65
   5  -3   0 -10.145  47.317   2 0.13282 0.50473-0.54644 0.24795-0.82690 0.82690  0 122.96 305.21  167.58 123.12 304.88  167.76
  -5  -3  -1  1891.7   176.7   1-0.44128-0.19617 0.30961-0.60753-0.84227 0.76969  0 131.99 180.01   29.23 132.20 180.18   29.12
  -5  -3  -1  1836.8   110.8   2 0.08172-0.71935-0.92045 0.62176-0.38221 0.30976  0 464.48  82.63  134.05 464.99  82.65  133.83
  -5  -3   1  1900.7   169.8   1-0.54555-0.09190 0.12567-0.42359-0.82861 0.90118  0 142.82 157.46   41.13 142.88 157.60   41.28
  -5  -3   1  1877.4   148.2   2 0.04899-0.68662-0.98434 0.68565-0.16931 0.24176  0 435.23  65.79  120.94 435.44  65.90  120.93
  -5   3  -1  1774.2   211.7   1-0.66621 0.02868-0.66672 0.96475-0.33414 0.26160  0 431.19  63.61   97.44 431.19  63.97   97.41
  -5   3  -1  1829.7   167.8   2-0.23890-0.39812 0.52621-0.22779 0.81611-0.88860  0 418.12  58.90  348.73 418.57  58.89  348.52
  -5   3   1  2068.7   106.2   1-0.19163-0.44582 0.61589-0.31797-0.76417 0.83675  0 235.34  68.28    6.07 235.09  68.72    5.90
  -5   3   1  1740.2   140.9   1-0.69519 0.05767-0.52890 0.82693-0.48680 0.55934  0 370.90  46.12   85.63 370.71  46.37   85.49
  -5   3   1  1948.7   175.2   2-0.23274-0.40455 0.10633 0.19198 0.96671-0.89414  0 399.75  52.31   14.48 399.91  52.63   14.56
   5  -3  -1  1716.0   118.5   2-0.02880 0.66627-0.96430 0.66586 0.26325-0.33574  0 198.65 424.49   95.40 198.39 424.40   95.50
   5  -3  -1  2121.7   113.2   2 0.13537 0.50218-0.32227 0.02379-0.93692 0.86444  0 119.96 294.40  182.03 119.70 294.26  182.10
   5  -3   1  2000.5   151.1   1-0.04864 0.68697-0.80005 0.50191 0.59796-0.52551  0 191.42 418.50  166.01 191.25 418.37  165.93
   5  -3   1  1922.4   103.4   2-0.07216 0.70963-0.87808 0.57964 0.47304-0.40055  0 182.44 410.68   82.23 182.35 410.56   82.24
   5  -3   1  1884.1    94.2   2 0.11741 0.52014-0.74704 0.44855-0.65433 0.72681  0 124.16 313.55  152.44 123.95 313.34  152.53
   5   3  -1  1934.6    78.1   2 0.06023 0.57723 0.50033-0.20178-0.86374 0.79126  0 167.08 394.59  231.11 167.06 394.32  231.12
   5   3  -1  1793.2    73.0   2-0.08756 0.72480 0.96986-0.67131-0.22740 0.15492  0 130.60 333.81  278.60 130.63 333.62  278.61
  -5  -3  -2 267.471 108.611   1-0.39245-0.24500 0.38124-0.67916-0.83704 0.69189  0 123.92 190.16   24.40 124.27 190.73   24.15
  -5  -3  -2 131.700  59.182   2 0.10645-0.74408-0.81827 0.51957-0.56489 0.41999  0 475.43  81.90  145.88 475.36  81.84  145.93
  -5  -3   2  71.338  93.603   1-0.59508-0.04237 0.01551-0.31343-0.80352 0.94866  0 145.58 145.33   48.55 145.53 145.27   48.35
  -5  -3   2  73.204 100.918   2 0.03761-0.67524-0.99420 0.69550-0.10072 0.24562  0 419.85  52.82  116.98 419.96  52.87  116.90
  -5   3  -2 185.970 147.389   1-0.65758 0.01938-0.68877 0.98687-0.30524 0.16037  0 460.32  72.00   99.35 460.27  71.40   99.58
  -5   3  -2  77.533  97.843   2-0.22672-0.41030 0.70623-0.40781 0.67069-0.81569  0 425.48  55.21  334.99 425.24  54.97  335.19
  -5   3   2 142.533  40.773   1-0.48501-0.15244 0.23844 0.05948-0.84137 0.98652  0 277.50  47.09   34.49 276.72  47.40   33.91
  -5   3   2 146.114  44.273   1-0.67199 0.03447-0.22831 0.52633-0.70449 0.84958  0 322.81  39.32   64.45 322.34  39.41   64.09
  -5   3   2 117.395 113.626   2-0.22024-0.41706-0.07837 0.37668 0.97229-0.82715  0 387.88  43.92   25.44 388.36  43.73   25.20
   5  -3  -2 106.022  71.051   2-0.01357 0.65120-0.98296 0.68426 0.18331-0.32821  0 207.39 436.83  100.45 207.50 436.53  100.30
   5  -3  -2 153.004  61.599   2 0.12822 0.50933-0.11294-0.18554-0.98529 0.84033  0 114.28 282.23  194.59 114.18 282.36  194.47
   5  -3   2 138.205  99.925   1-0.10680 0.74514-0.83088 0.53274 0.54611-0.40119  0 172.63 405.88  161.25 172.36 406.15  161.13
   5  -3   2 169.052  53.526   2-0.10213 0.73960-0.78926 0.49082 0.60550-0.46053  0 176.28 410.41   73.01 176.46 410.59   72.92
   5  -3   2 172.805  49.059   2 0.09119 0.54644-0.88853 0.58983-0.44966 0.59455  0 121.66 318.59  138.38 121.54 318.85  138.14
   5   3  -2 161.479  57.445   2 0.10688 0.53058 0.16037 0.13818-0.98125 0.83630  0 180.78 414.81  210.53 181.18 415.05  210.22
   5   3  -2 122.400  47.460   2-0.09545 0.73269 0.97785-0.67931-0.18627 0.04133  0 120.18 312.69  281.44 119.95 313.23  281.05
  -5  -3  -3 152.977 115.987   1-0.34860-0.28885 0.44014-0.73806-0.82750 0.60978  0 115.10 201.46   19.40 114.57 201.07   19.90
  -5  -3  -3  28.975  67.376   2 0.12886-0.76641-0.62184 0.32336-0.77247 0.55503  0 479.01  71.41  162.99 479.79  71.68  162.43
  -5  -3   3 -14.800 101.407   1-0.63799 0.00047-0.10288-0.19515-0.76314 0.98077  0 146.36 131.92   55.44 146.33 131.95   55.92
  -5  -3   3  15.472 117.174   2 0.02757-0.66520-0.99872 0.70002-0.04243 0.25977  0 404.62  37.95  113.62 404.76  37.65  113.50
  -5   3  -3-115.283 172.333   1-0.65322 0.01501-0.69909 0.99718-0.29084 0.07353  0 490.48  79.20  101.32 490.72  78.46  100.62
  -5   3  -3  14.628  99.275   2-0.20810-0.42893 0.83518-0.53676 0.50909-0.72657  0 429.71  45.75  322.98 429.61  45.70  323.23
  -5   3   3   8.425 122.755   2-0.20563-0.43167-0.22504 0.52335 0.95240-0.73469  0 376.39  31.54   33.65 376.09  31.89   33.75
   5  -3  -3  23.242  78.638   2-0.00048 0.63811-0.99341 0.69471 0.11462-0.33196  0 217.01 451.58  104.41 217.05 451.51  104.36
   5  -3  -3  30.663  60.157   2 0.11611 0.52135 0.06092-0.35948-0.99137 0.77393  0 106.82 269.46  204.56 106.83 269.64  204.46
   5  -3   3   9.132 105.670   1-0.14399 0.78232-0.84764 0.54950 0.51066-0.29329  0 154.10 395.17  158.09 153.93 395.04  158.03
   5  -3   3  -9.055  48.895   2-0.13533 0.77280-0.65958 0.36114 0.73936-0.52189  0 172.58 416.27   62.03 172.39 416.39   62.04
   5  -3   3  -8.004  44.168   2 0.06354 0.57409-0.96325 0.66456-0.26097 0.47831  0 115.30 320.15  126.65 115.37 320.57  126.39
   5   3  -3  -9.991  65.019   2 0.12642 0.51113-0.08092 0.37940-0.98867 0.77123  0 193.49 434.98  195.98 193.14 434.79  196.32
   5   3  -3 -34.783  52.650   2-0.09570 0.73293 0.97807-0.67953-0.18499-0.03243  0 109.73 295.79  281.10 109.65 295.77  281.13
  -5  -3  -4 20391.4   446.6   1-0.31057-0.32688 0.48736-0.78529-0.81610 0.52581  0 103.24 211.16   16.34 103.02 211.30   16.37
  -5  -3  -4 18306.6   233.3   2 0.13588-0.77343-0.36754 0.06906-0.92003 0.63011  0 479.69  52.82  179.37 480.03  53.09  179.35
  -5  -3   4 18285.5   373.7   1-0.67113 0.03361-0.22444-0.07359-0.70655 0.99672  0 145.15 117.33   63.89 145.21 117.38   63.84
  -5  -3   4 19492.2   379.6   2 0.01850-0.65613-0.99977 0.70107 0.01052 0.27927  0 389.44  20.14  110.35 389.90  20.29  110.43
  -5   3  -4 17441.6   310.9   2-0.18701-0.45001 0.91591-0.61749 0.35515-0.64513  0 432.20  30.79  313.02 432.16  31.08  313.15
  -5   3   4 22923.5   426.9   2-0.19197-0.44532-0.33620 0.63451 0.92202-0.63173  0 363.22  17.09   40.19 363.29  17.21   40.39
   5  -3  -4 19746.0   350.4   2 0.01089 0.62674-0.99854 0.69984 0.05286-0.34265  0 227.15 469.64  107.94 226.88 469.38  107.96
   5  -3  -4 20992.3   346.6   2 0.10302 0.53443 0.19629-0.49485-0.97512 0.68521  0  97.99 256.31  212.19  97.75 256.15  212.32
   5  -3   4 18082.0   394.3   1-0.16706 0.80540-0.85686 0.55872 0.48773-0.19790  0 135.41 384.88  156.00 135.21 384.83  156.10
   5  -3   4 19890.8   248.5   2-0.16637 0.80384-0.50121 0.20277 0.84918-0.55923  0 169.76 427.90   50.88 169.75 427.74   50.83
   5  -3   4 19441.9   239.6   2 0.03905 0.59858-0.99323 0.69454-0.10937 0.39916  0 106.05 319.08  117.41 105.62 319.02  117.41
   5   3  -4 19418.8   315.4   2 0.13377 0.50378-0.24700 0.54549-0.95974 0.66982  0 204.56 456.12  186.59 204.36 455.75  186.62
   5   3  -4 16583.4   283.2   2-0.09305 0.73029 0.97559-0.67705-0.19889-0.09100  0  98.85 279.55  280.15  98.59 279.35  280.31
  -5  -3  -5  1369.1   189.1   1-0.27867-0.35878 0.52435-0.82228-0.80461 0.44174  0  89.64 221.59   13.44  89.56 221.63   13.49
  -5  -3  -5  1217.5   123.3   2 0.12927-0.76681-0.13320-0.16529-0.98262 0.62022  0 478.70  28.70  193.38 479.07  28.78  193.30
  -5  -3   5  1212.1   156.8   1-0.69174 0.05422-0.34440 0.04637-0.63473 0.99745  0 142.02 101.07   71.71 142.03 101.16   71.93
  -5   3  -5  1338.1   161.0   2-0.16633-0.47069 0.96125-0.66283 0.21985-0.58233  0 433.70  11.03  304.92 433.71  11.22  304.86
   5  -3  -5  1221.8   150.8   2 0.02096 0.61667-0.99977 0.70107-0.00418-0.35806  0 236.84 490.83  111.40 237.01 490.46  111.28
   5  -3  -5  1484.7   161.7   2 0.09091 0.54655 0.29782-0.59637-0.95028 0.58790  0  87.05 241.98  218.39  86.83 242.00  218.35
   5  -3   5  1188.1   175.5   1-0.18010 0.81844-0.86169 0.56355 0.47440-0.11211  0 115.89 375.18  154.69 115.71 375.29  154.99
   5  -3   5  1170.9   124.4   2-0.19151 0.82881-0.33960 0.04129 0.92087-0.55801  0 167.65 443.84   40.53 167.63 443.58   40.59
   5  -3   5  1369.5   108.5   2 0.01883 0.61880-0.99979 0.70109 0.00790 0.35434  0  92.97 315.52  110.52  92.72 315.34  110.58
   5   3  -5  1509.9   181.4   2 0.13576 0.50179-0.36035 0.65884-0.92289 0.56049  0 215.44 478.98  179.69 215.12 478.87  179.78
   5   3  -5  1306.5   141.1   2-0.08889 0.72612 0.97132-0.67278-0.22054-0.14183  0  86.42 263.31  279.28  86.24 263.27  279.02
  -5  -3  -6  4066.0   272.1   1-0.25325-0.38420 0.55294-0.85086-0.79380 0.35836  0  73.95 232.09   11.24  73.87 232.23   11.23
  -5  -3   6  4366.7   248.3   1-0.69831 0.06078-0.45816 0.16014-0.54996 0.98522  0 136.82  82.82   80.01 136.86  82.81   80.06
   5  -3  -6  4299.5   230.9   2 0.08073 0.55673 0.37249-0.67104-0.92452 0.48965  0  74.16 227.08  223.50  73.92 227.02  222.93
   5  -3   6  3601.4   261.9   1-0.18569 0.82403-0.86367 0.56553 0.46860-0.03386  0  95.30 366.29  154.42  94.91 366.22  154.52
   5  -3   6  3519.1   172.8   2-0.20889 0.84618-0.19522-0.10308 0.95826-0.52283  0 165.35 464.03   32.05 165.29 463.83   32.00
   5  -3   6  4025.9   155.5   2 0.00203 0.63560-0.99488 0.69618 0.10102 0.33367  0  77.23 310.58  105.05  76.98 310.51  105.16
   5   3  -6  3594.1   197.1   2-0.08378 0.72101 0.96545-0.66691-0.24675-0.18809  0  72.35 247.26  277.36  72.20 247.11  277.45
   5   3   6  3400.3   103.7   2-0.21128 0.84830 0.81856-0.52014 0.53415-0.09918  0 129.01 425.17  325.00 129.16 424.91  324.96
  -5  -3  -7 600.066 173.338   1-0.23346-0.40399 0.57392-0.87185-0.78492 0.27691  0  55.43 243.11   10.13  55.68 243.35    9.50
  -5  -3   7 563.553 159.767   1-0.69151 0.05399-0.56056 0.26254-0.45560 0.96341  0 129.52  61.69   87.98 129.44  61.67   88.04
   5  -3  -7 561.824 136.187   2 0.07254 0.56492 0.42627-0.72482-0.90168 0.39434  0  58.12 211.24  225.63  58.63 211.09  226.31
   5  -3   7 741.227 179.822   1-0.18553 0.82387-0.86362 0.56548 0.46877 0.03843  0  72.28 357.43  154.52  72.26 357.47  154.53
   5  -3   7 715.640 120.137   2-0.22033 0.85762-0.07728-0.22102 0.97236-0.46436  0 162.42 488.22   25.00 162.01 488.26   25.14
   5  -3   7 557.273  90.383   2-0.01262 0.65025-0.98380 0.68511 0.17880 0.32834  0  58.51 304.54  100.97  58.29 305.22  100.58
   5   3  -7 542.467 120.614   2-0.07804 0.71528 0.95799-0.65945-0.27598-0.23132  0  55.74 230.66  275.54  55.99 230.47  275.68
   5   3   7 630.877  74.257   2-0.23330 0.87059 0.11692 0.18139 0.96535-0.45735  0  67.62 345.01   13.93  67.38 344.97   13.95
   5   3   7 532.261  81.222   2-0.20874 0.84576 0.83194-0.53352 0.51411-0.00664  0 129.08 455.59  323.75 129.42 455.71  323.57
  -5  -3  -8-234.553 138.184   1-0.21912-0.41833 0.58863-0.88656-0.77814 0.19754  0  33.97 255.30    9.14  34.48 255.25    8.26
  -5  -3   8  42.485 159.094   1-0.67164 0.03412-0.65033 0.35230-0.35491 0.93526  0 119.68  36.18   95.25 119.81  36.87   95.86
   5  -3  -8 -28.078 130.988   2 0.06637 0.57109 0.46420-0.76276-0.88324 0.30342  0  40.80 193.87  229.43  40.41 193.87  228.76
   5  -3   8  56.224 174.624   1-0.18076 0.81910-0.86193 0.56379 0.47372 0.10594  0  47.25 348.71  154.66  47.07 348.87  154.94
   5  -3   8 -15.403  79.843   2-0.02553 0.66300-0.96877 0.67033 0.24663 0.33328  0  36.32 299.41   96.52  36.36 299.63   96.50
   5   3  -8 -83.396 115.006   2-0.07187 0.70910 0.94889-0.65034-0.30733-0.27245  0  37.55 212.66  272.59  37.00 212.99  273.78
   5   3   8  30.354  74.529   2-0.22465 0.86195-0.02122 0.31953 0.97421-0.39364  0  43.05 336.24   21.98  42.98 336.50   21.91
   5   3   8 -47.072  88.871   2-0.20964 0.84667 0.82729-0.52887 0.52119 0.05877  0 125.23 487.23  324.40 125.95 487.68  324.06
  -5  -4   0  3020.3   214.5   1-0.53451-0.10294 0.14766-0.54489-0.83216 0.83216  0 116.16 179.44   39.89 115.83 179.43   39.86
  -5  -4   0  2974.2   193.7   2 0.09697-0.73460-0.86480 0.46654-0.49266 0.49266  0 436.48  38.60  140.93 436.66  38.60  140.97
  -5   4   0  2453.8   200.7   1-0.69717 0.05965-0.40842 0.80579-0.58919 0.58919  0 405.34  28.71   76.29 405.58  29.08   76.44
   5  -4   0  3341.6   163.2   1-0.05892 0.69726-0.80589 0.40838 0.58912-0.58912  0 209.52 454.03  164.97 209.40 453.99  165.09
   5  -4   0  2788.0   162.5   2-0.08445 0.72192-0.84486 0.44694 0.52828-0.52828  0 203.37 450.25   78.41 203.29 449.97   78.47
   5  -4   0  2977.6   143.4   2 0.13451 0.50304-0.49418 0.09620-0.85889 0.85889  0 102.69 281.76  171.24 102.46 281.74  171.28
   5   4   0  2921.6   114.1   2 0.02664 0.61082 0.66678-0.26871-0.74478 0.74478  0 166.42 418.83  242.96 166.25 418.47  243.03
   5   4   0  2402.6   100.1   2-0.16185 0.79888 0.96801-0.57011 0.19174-0.19174  0 111.65 325.82  303.18 111.41 325.59  303.18
  -5  -4  -1  7901.4   297.8   1-0.49199-0.14546 0.22638-0.62362-0.84065 0.76808  0 110.90 190.55   34.94 110.75 190.59   34.71
  -5  -4  -1  6670.4   212.4   2 0.11188-0.74951-0.78426 0.38599-0.61026 0.53782  0 447.00  40.72  149.20 447.41  40.58  149.19
  -5  -4   1  7546.5   282.6   1-0.57641-0.06104 0.05937-0.45660-0.81500 0.88757  0 119.25 167.72   45.50 119.04 167.74   45.54
  -5  -4   1  7303.3   250.3   2 0.08239-0.72002-0.91844 0.52018-0.38688 0.45933  0 424.30  32.21  134.01 424.56  32.19  134.13
  -5   4  -1  6497.8   267.2   1-0.69748 0.05996-0.49661 0.89398-0.51661 0.44407  0 438.22  36.78   83.49 438.26  37.02   82.97
  -5   4  -1  7776.0   277.8   2-0.24000-0.39703 0.48463-0.08697 0.84115-0.91368  0 398.94  25.52  351.19 399.22  25.91  351.30
  -5   4   1  6728.2   181.2   1-0.67345 0.03592-0.23583 0.63320-0.70061 0.77315  0 368.06  20.79   64.76 367.71  21.10   64.58
  -5   4   1  7167.0   284.2   2-0.23553-0.40176 0.16388 0.23386 0.95795-0.88538  0 382.70  22.70   11.12 382.93  22.87   11.23
   5  -4  -1  7508.0   223.0   2-0.06403 0.70150-0.89804 0.50012 0.43522-0.50771  0 210.77 456.84   84.74 210.57 456.62   84.73
   5  -4  -1  7409.1   208.0   2 0.13546 0.50209-0.32905-0.06893-0.93455 0.86207  0 100.80 273.60  181.82 100.52 273.48  181.69
   5  -4   1  7489.9   230.4   1-0.13782 0.77615-0.84501 0.44749 0.51669-0.44423  0 186.71 439.01  158.42 186.52 438.97  158.55
   5  -4   1  7284.7   202.2   2-0.10678 0.74425-0.77341 0.37549 0.62485-0.55236  0 197.05 447.50   71.35 196.85 447.19   71.46
   5  -4   1  6914.5   186.4   2 0.12697 0.51057-0.64940 0.25142-0.74978 0.82226  0 102.29 288.30  160.29 101.90 288.20  160.38
   5   4  -1  7546.2   176.3   2 0.07017 0.56728 0.44072-0.04265-0.89490 0.82242  0 176.42 430.65  227.18 176.33 430.22  227.24
   5   4  -1  6253.1   157.5   2-0.15106 0.78830 0.98046-0.58240 0.12600-0.19847  0 106.59 312.47  299.31 106.35 312.25  299.32
   5   4   1  6838.9   127.9   2-0.02706 0.66430 0.85370-0.45564-0.52007 0.59254  0 156.59 410.27  260.19 156.75 410.01  260.14
   5   4   1  6165.7   121.3   2-0.17491 0.81194 0.94545-0.54755 0.27484-0.20235  0 114.38 337.90  308.21 114.15 337.70  308.19
  -5  -4  -2  3416.9   229.2   1-0.45081-0.18664 0.29470-0.69194-0.84257 0.69742  0 103.88 201.35   30.10 103.75 201.43   30.14
  -5  -4  -2  2927.1   185.3   2 0.12527-0.76282-0.67031 0.27233-0.73143 0.58647  0 456.02  37.45  158.70 456.06  37.61  158.78
  -5  -4   2  3070.8   215.1   1-0.61527-0.02225-0.03698-0.36039-0.78745 0.93254  0 120.48 155.31   51.68 120.36 155.33   51.70
  -5  -4   2  3325.8   235.7   2 0.06874-0.70637-0.95315 0.55488-0.29459 0.43948  0 411.40  22.10  128.34 411.67  22.13  128.42
  -5   4  -2  3180.2   276.4   1-0.69327 0.05575-0.54700 0.94437-0.46922 0.32414  0 470.32  44.14   86.78 470.40  44.20   86.94
  -5   4  -2  3134.4   243.8   2-0.23322-0.40380 0.63140-0.23351 0.73955-0.88455  0 405.38  20.75  340.96 405.43  20.92  341.04
  -5   4   2  3236.3   253.3   2-0.22742-0.40987 0.01622 0.38152 0.97366-0.82852  0 372.84  15.49   19.83 372.86  15.73   19.76
   5  -4  -2  3318.5   191.3   2-0.04586 0.68333-0.93631 0.53839 0.34818-0.49316  0 218.63 467.05   90.22 218.55 466.80   90.28
   5  -4  -2  3586.2   171.3   2 0.13107 0.50647-0.17035-0.22763-0.97663 0.83167  0  96.59 263.77  191.11  96.30 263.73  191.13
   5  -4   2  3091.5   202.1   1-0.18485 0.82318-0.86338 0.46586 0.46948-0.32456  0 166.09 425.82  154.49 165.93 425.91  154.59
   5  -4   2  3056.0   156.5   2-0.13012 0.76759-0.68234 0.28442 0.71937-0.57439  0 191.38 448.78   63.92 191.33 448.60   63.80
   5  -4   2  3341.4   147.6   2 0.11315 0.52440-0.77930 0.38132-0.61635 0.76131  0  98.96 292.62  149.75  98.64 292.53  149.66
   5   4  -2  3161.8   153.7   2 0.10006 0.53740 0.22245 0.17562-0.96980 0.82484  0 186.48 445.02  213.91 186.49 444.69  213.85
   5   4  -2  2839.8   135.9   2-0.14155 0.77879 0.98747-0.58941 0.06972-0.21466  0  99.82 298.60  295.98  99.57 298.39  296.01
   5   4   2  2848.2    88.1   2-0.07987 0.71710 0.96046-0.56240-0.26672 0.41167  0 148.13 406.54  276.51 148.42 406.61  276.24
   5   4   2  2690.4    83.9   2-0.19200 0.82902 0.90054-0.50264 0.39008-0.24509  0 113.65 346.90  315.49 113.54 346.88  315.36
  -5  -4  -3 924.651 164.757   1-0.41250-0.22495 0.35259-0.74982-0.83995 0.62223  0  94.61 211.87   26.25  94.90 212.07   26.16
  -5  -4  -3 760.440 120.901   2 0.13367-0.77122-0.52340 0.12542-0.84154 0.62410  0 461.92  28.31  169.50 462.41  28.22  169.33
  -5  -4   3 796.856 148.491   1-0.64887 0.01135-0.13844-0.25893-0.74820 0.96583  0 119.97 142.26   57.95 119.77 142.01   58.22
  -5  -4   3 910.826 167.218   2 0.05609-0.69372-0.97529 0.57703-0.21369 0.43103  2 398.22   8.95  123.59 398.35   8.89  123.56
  -5   4  -3 982.584 219.720   1-0.68907 0.05154-0.57640 0.97377-0.43927 0.22164  2 503.18  50.14   89.33 504.05  50.46   89.35
  -5   4  -3 813.653 163.484   2-0.22143-0.41559 0.75270-0.35481 0.62000-0.83749  0 409.72  11.83  331.45 410.32  11.40  331.22
   5  -4  -3 876.378 132.113   2-0.02971 0.66718-0.96299 0.56508 0.26788-0.48535  0 226.87 480.71   95.33 227.10 480.48   95.22
   5  -4  -3 929.723 112.740   2 0.12315 0.51440-0.02982-0.36816-0.99194 0.77450  0  90.07 252.71  199.29  89.96 252.75  199.26
   5  -4   3 911.427 148.369   1-0.21311 0.85145-0.87250 0.47498 0.43969-0.22232  0 146.15 413.99  152.13 146.11 414.25  152.18
   5  -4   3 935.952 107.779   2-0.15294 0.79041-0.57461 0.17669 0.80401-0.58654  0 186.83 454.56   55.82 186.71 454.46   55.84
   5  -4   3 812.806  92.162   2 0.09435 0.54328-0.87597 0.47770-0.47305 0.69039  0  92.86 294.58  139.88  92.54 294.84  139.67
   5   4  -3 902.157 113.882   2 0.11799 0.51947 0.03787 0.36020-0.99229 0.77486  0 196.76 461.70  202.94 196.52 461.62  203.13
   5   4  -3 717.209  96.334   2-0.13268 0.76992 0.99099-0.59293 0.01852-0.23593  0  91.34 284.36  292.97  91.15 284.26  293.03
   5   4   3 720.799  69.989   2-0.11907 0.75630 0.99115-0.59309-0.05872 0.27614  0 142.39 410.52  288.82 142.70 410.61  288.53
   5   4   3 787.257  68.011   2-0.21269 0.84972 0.81066-0.41277 0.54552-0.32803  0 108.06 350.07  326.23 108.00 350.67  325.76
  -5  -4  -4 944.989 168.094   1-0.37831-0.25914 0.40073-0.79796-0.83445 0.54415  0  84.02 222.73   23.12  84.02 222.74   22.75
  -5  -4  -4 922.309 139.507   2 0.13576-0.77331-0.36047-0.03751-0.92284 0.63292  0 466.53  12.52  179.90 466.92  12.54  179.78
  -5  -4   4  1071.6   163.3   1-0.67483 0.03731-0.24238-0.15499-0.69704 0.98721  0 117.37 127.47   65.29 117.15 127.44   65.02
   5  -4  -4 882.073 143.896   2-0.01557 0.65320-0.98092 0.58266 0.19378-0.48358  0 236.50 497.52   99.64 236.18 497.71   99.67
   5  -4  -4  1183.6   137.1   2 0.11377 0.52369 0.08790-0.48597-0.98961 0.69970  0  81.67 240.80  205.54  81.53 240.65  206.01
   5  -4   4 902.005 163.177   1-0.22912 0.86746-0.87713 0.47961 0.42208-0.13225  0 126.09 403.98  150.71 126.13 403.73  150.79
   5  -4   4 962.384 117.454   2-0.17400 0.81129-0.45786 0.06012 0.87183-0.58154  0 182.57 464.80   48.09 182.64 464.56   47.99
   5  -4   4  1146.4   120.6   2 0.07473 0.56290-0.93920 0.54094-0.33513 0.62492  0  83.52 295.09  130.92  83.40 295.05  130.90
   5   4  -4  1473.8   179.8   2 0.12794 0.50960-0.10791 0.50589-0.98589 0.69597  0 206.75 481.45  194.58 206.36 481.29  194.77
   5   4  -4 722.402 103.838   2-0.12424 0.76147 0.99180-0.59375-0.02985-0.26004  0  81.48 269.49  290.43  81.04 269.86  290.21
   5   4   4 869.151  84.517   2-0.14298 0.78021 0.98664-0.58858 0.07813 0.21176  0 138.99 422.04  296.88 139.46 422.33  296.50
   5   4   4 844.996  78.179   2-0.23043 0.86745 0.66730-0.26940 0.70825-0.41826  0  97.51 348.44  338.73  97.44 349.00  338.30
  -5  -4  -5 336.008 146.631   1-0.34880-0.28865 0.43988-0.83711-0.82755 0.46468  0  71.68 233.75   19.47  70.99 233.61   19.92
  -5  -4   5 127.027 143.422   1-0.69179 0.05427-0.34486-0.05251-0.63443 0.99714  0 112.17 110.97   71.94 112.37 111.21   71.96
   5  -4  -5  74.869  98.117   2 0.10447 0.53299 0.18285-0.58092-0.97757 0.61519  0  70.74 227.63  211.34  70.97 227.46  211.53
   5  -4   5 112.182 152.204   1-0.23656 0.87489-0.87909 0.48157 0.41382-0.05153  0 105.35 393.92  150.31 105.41 394.04  150.14
   5  -4   5  65.695  98.189   2-0.19120 0.82849-0.34193-0.05582 0.92007-0.55721  0 178.29 479.56   40.85 178.78 479.38   40.73
   5  -4   5 170.492  73.667   2 0.05545 0.58218-0.97620 0.57794-0.20965 0.57189  0  71.08 294.49  122.80  71.27 293.61  123.32
   5   4  -5 -49.905 128.943   2 0.13308 0.50446-0.21878 0.61676-0.96666 0.60426  2 216.25 503.33  188.32 216.31 504.29  188.29
   5   4  -5 124.570  89.474   2-0.11593 0.75317 0.99034-0.59228-0.07610-0.28626  0  69.03 255.26  287.47  69.07 255.06  287.52
   5   4   5  61.935  57.934   2-0.15836 0.79539 0.97263-0.57474 0.17003 0.19245  0 136.07 439.08  302.51 137.11 439.73  301.89
   5   4   5 140.314  56.934   2-0.23961 0.87664 0.49859-0.10094 0.83306-0.47043  0  83.06 344.06  350.66  83.07 344.63  350.37
  -5  -4  -6  5879.0   316.1   1-0.32419-0.31326 0.47088-0.86811-0.82047 0.38503  0  55.56 244.76   17.65  55.51 244.91   17.62
  -5  -4   6  5710.8   304.5   1-0.69833 0.06080-0.44351 0.04614-0.56182 0.99708  0 105.70  92.94   78.80 105.39  92.85   78.99
   5  -4  -6  6383.8   279.2   2 0.09596 0.54150 0.25717-0.65524-0.96159 0.52672  0  58.24 213.22  215.83  58.01 213.15  215.91
   5  -4   6  5011.7   321.9   1-0.23764 0.87597-0.87937 0.48185 0.41260 0.02214  0  83.73 384.97  149.90  83.32 385.02  150.05
   5  -4   6  5760.7   241.5   2-0.20448 0.84178-0.23519-0.16256 0.95020-0.51477  0 174.79 499.04   34.26 174.63 498.79   34.35
   5  -4   6  6087.5   209.3   2 0.03719 0.60044-0.99447 0.59620-0.09824 0.53293  0  56.59 290.86  116.87  56.08 290.95  116.76
   5   4  -6  5153.6   240.6   2-0.10771 0.74494 0.98679-0.58873-0.12105-0.31378  0  55.29 239.77  284.84  54.97 239.69  284.89
   5   4   6  5226.7   167.7   2-0.16951 0.80653 0.95592-0.55803 0.23976 0.19522  0 133.98 461.71  306.10 134.07 461.37  306.07
  -5  -4  -7  1531.6   214.5   1-0.30445-0.33300 0.49466-0.89189-0.81402 0.30600  0  37.46 256.53   15.63  37.22 256.89   15.81
  -5  -4   7  1188.4   207.8   1-0.69463 0.05711-0.53487 0.13750-0.48105 0.98885  0  96.27  71.83   85.75  95.99  71.74   85.97
   5  -4  -7  1582.3   179.0   2 0.08883 0.54863 0.31417-0.71224-0.94520 0.43786  0  42.05 197.67  219.36  42.37 197.47  219.35
   5  -4   7  1245.0   219.6   1-0.23380 0.87214-0.87837 0.48086 0.41689 0.09031  0  59.43 376.49  150.36  59.20 376.48  150.38
   5  -4   7  1473.1   158.6   2 0.02017 0.61746-0.99980 0.60153 0.00027 0.50686  0  37.86 287.61  111.02  37.54 287.57  111.02
   5   4  -7  1218.8   152.5   2-0.09948 0.73672 0.98125-0.58320-0.16506-0.34225  0  38.63 223.43  282.36  38.26 223.52  282.30
   5   4   7  1400.7   136.0   2-0.23692 0.87421 0.19889 0.19886 0.95095-0.44295  0  45.27 333.14    9.34  44.97 333.51    9.18
   5   4   7  1123.4   122.1   2-0.17858 0.81560 0.93751-0.53961 0.29864 0.20883  0 130.16 487.26  309.45 129.52 487.12  309.65
  -5  -5   0 -63.334 123.170   1-0.56986-0.06759 0.07413-0.57067-0.81839 0.81839  0  90.13 189.65   44.63  89.70 189.41   44.59
   5  -5   0 -17.750  91.943   1-0.14883 0.78716-0.84966 0.35276 0.50590-0.50590  0 202.41 480.49  158.01 201.97 480.17  157.63
   5  -5   0  68.843 106.825   2-0.10238 0.73985-0.78841 0.29101 0.60657-0.60657  0 215.41 488.26   72.62 214.90 488.27   72.84
   5  -5   0  38.247  79.698   2 0.13475 0.50280-0.48458-0.01289-0.86431 0.86431  0  79.08 260.71  171.54  79.66 260.43  171.91
   5   5   0-105.660  75.270   2 0.04006 0.59740 0.60579-0.10820-0.79461 0.79461  0 173.47 458.79  238.39 173.37 458.94  238.44
   5   5   0  45.116  63.520   2-0.19156 0.82858 0.90197-0.40461 0.38697-0.38697  0  83.84 305.29  315.09  83.96 305.18  315.17
  -5  -5  -1  9285.3   350.2   1-0.53532-0.10213 0.14608-0.64262-0.83192 0.75935  0  85.54 200.89   40.14  85.47 200.93   39.96
  -5  -5   1  8531.2   326.8   1-0.60314-0.03438-0.00515-0.49156-0.79762 0.87016  0  92.07 177.43   49.65  91.87 177.38   49.66
   5  -5  -1  9014.0   189.1   1-0.02478 0.66311-0.78571 0.28881 0.61810-0.69056  2 235.04 500.62  167.77 234.85 500.64  167.90
   5  -5  -1  8301.9   279.7   2-0.08387 0.72134-0.84657 0.34917 0.52563-0.59812  0 221.95 494.26   78.67 221.74 493.97   78.65
   5  -5  -1  9288.2   261.5   2 0.13572 0.50183-0.35379-0.14369-0.92543 0.85295  0  78.76 253.29  180.10  78.44 253.19  180.19
   5  -5   1  7837.7   250.7   1-0.21232 0.85065-0.87226 0.37536 0.44055-0.36810  0 177.20 463.77  152.13 177.00 463.64  152.25
   5  -5   1  8316.4   264.0   2-0.12145 0.75892-0.71828 0.22088 0.68507-0.61258  0 208.90 486.61   66.71 208.66 486.46   66.70
   5  -5   1  8614.3   243.7   2 0.12951 0.50804-0.61043 0.11295-0.78141 0.85389  0  78.77 266.21  163.14  78.44 266.12  163.26
   5   5  -1  8369.0   229.9   2 0.06986 0.56760 0.44269 0.05490-0.89395 0.82147  0 181.92 468.05  227.14 181.65 467.59  227.36
   5   5  -1  7068.7   199.8   2-0.17931 0.81633 0.93581-0.43844 0.30349-0.37599  0  81.17 295.23  309.97  80.97 295.09  309.95
   5   5   1  8293.4   201.7   2 0.00536 0.63188 0.75136-0.25379-0.65987 0.73234  0 165.68 454.47  250.04 165.73 454.13  250.02
   5   5   1  7330.3   181.2   2-0.20418 0.84120 0.85355-0.35619 0.47933-0.40683  0  84.49 313.79  321.25  84.33 313.67  321.20
  -5  -5  -2  2178.9   229.3   1-0.50118-0.13627 0.21014-0.70668-0.83944 0.69429  0  79.48 212.31   36.13  79.23 212.17   35.78
  -5  -5   2  2204.5   243.2   1-0.63370-0.00382-0.08976-0.40696-0.76835 0.91344  0  92.29 164.72   54.99  92.10 164.72   55.08
   5  -5  -2  2479.8   217.2   2-0.06618 0.70365-0.89293 0.39553 0.44530-0.59028  2 229.59 503.25   84.28 229.25 503.52   84.07
   5  -5  -2  2095.2   176.8   2 0.13334 0.50421-0.22635-0.27112-0.96488 0.81992  0  75.24 244.55  188.59  74.85 244.53  187.84
   5  -5   2  1742.6   204.4   1-0.24860 0.88680-0.88210 0.38528 0.40012-0.25524  0 154.97 449.46  149.07 154.89 449.43  149.09
   5  -5   2  2044.0   197.5   2-0.14021 0.77768-0.63711 0.13971 0.75791-0.61293  0 202.97 488.75   60.32 203.05 488.63   60.35
   5  -5   2  1979.4   154.3   2 0.12023 0.51732-0.72265 0.22517-0.68068 0.82564  0  74.82 270.28  154.58  74.64 270.16  154.59
   5   5  -2  1958.4   179.4   2 0.09308 0.54438 0.28071 0.21688-0.95527 0.81031  0 190.23 480.21  217.30 190.32 479.94  217.32
   5   5  -2  1821.3   145.0   2-0.16766 0.80468 0.95905-0.46168 0.22829-0.37328  0  75.88 283.79  305.42  75.67 283.81  305.37
   5   5   2  1935.6   136.0   2-0.03092 0.66816 0.86396-0.36639-0.50261 0.64755  0 158.72 453.85  261.31 158.69 453.68  261.32
   5   5   2  1850.6   119.5   2-0.21659 0.85362 0.78662-0.28925 0.57821-0.43322  0  81.95 319.90  328.33  81.74 320.11  328.12
  -5  -5  -3  36.259 128.423   1-0.46871-0.16874 0.26591-0.76245-0.84238 0.62466  0  70.24 223.22   32.66  70.90 223.38   32.08
  -5  -5   3 148.218 135.899   1-0.65981 0.02229-0.17814-0.31857-0.73001 0.94764  0  90.65 151.25   61.20  90.25 151.11   60.79
   5  -5  -3 272.613 105.456   2 0.12805 0.50950-0.10986-0.38761-0.98566 0.76822  0  68.90 234.72  194.55  69.01 234.54  194.65
   5  -5   3 105.216 133.472   1-0.26887 0.90707-0.88644 0.38962 0.37674-0.15943  0 133.73 436.77  147.08 133.74 437.09  147.29
   5  -5   3 212.430 119.202   2-0.15795 0.79542-0.54803 0.05063 0.82141-0.60394  0 198.30 494.93   53.85 197.91 495.03   53.99
   5  -5   3 182.657  87.155   2 0.10686 0.53077-0.81591 0.31808-0.56822 0.78556  0  68.52 272.58  146.31  68.20 272.65  146.17
   5   5  -3  99.785 112.904   2 0.10952 0.52794 0.13394 0.36365-0.98492 0.76749  0 199.37 495.50  208.56 199.18 495.69  208.68
   5   5  -3  73.501  77.177   2-0.15668 0.79370 0.97466-0.47729 0.15964-0.37713  0  68.30 271.28  301.39  68.21 271.60  301.28
   5   5   3 100.144  76.924   2-0.06463 0.70187 0.93705-0.43948-0.34315 0.56057  0 152.65 458.24  271.40 152.32 458.16  271.58
   5   5   3  99.059  62.240   2-0.22746 0.86448 0.69908-0.20171 0.67790-0.46041  0  75.88 324.66  335.45  75.89 324.14  335.77
  -5  -5  -4  9124.7   362.4   1-0.43883-0.19862 0.31341-0.80995-0.84215 0.55185  0  60.38 234.63   28.94  60.36 234.68   28.87
  -5  -5   4  7961.8   324.8   1-0.67998 0.04246-0.26817-0.22854-0.68243 0.97261  0  86.41 136.28   66.79  86.21 136.26   66.74
   5  -5  -4  9519.8   302.4   2 0.12140 0.51605-0.00774-0.48985-0.99257 0.70266  0  60.94 223.30  200.59  60.75 223.25  200.51
   5  -5   4  7693.8   323.0   1-0.27891 0.91711-0.88833 0.39150 0.36481-0.07506  0 112.91 426.07  146.30 112.44 426.15  146.40
   5  -5   4  8740.4   252.9   2 0.09148 0.54615-0.88742 0.38959-0.45179 0.74158  0  59.33 273.55  138.24  58.86 273.59  138.28
   5   5  -4  7584.2   251.8   2-0.14613 0.78336 0.98456-0.48699 0.09635-0.38624  0  58.74 258.67  297.63  58.49 258.58  297.58
   5   5   4  7927.1   206.5   2-0.09332 0.73056 0.97585-0.47828-0.19749 0.48737  0 146.46 467.91  280.42 146.53 467.65  280.39
   5   5   4  7445.0   187.6   2-0.23563 0.87265 0.59490-0.09753 0.76849-0.47851  0  66.77 326.19  343.71  66.60 325.94  343.71
  -5  -5  -5  2439.3   262.5   1-0.41223-0.22522 0.35299-0.84953-0.83992 0.47705  0  47.19 246.16   26.23  47.39 246.29   26.13
  -5  -5   5  2366.1   274.6   1-0.69318 0.05565-0.35734-0.13938-0.62596 0.98867  0  79.79 119.60   73.04  79.87 119.73   72.83
   5  -5  -5  2679.7   221.3   2 0.11457 0.52289 0.07890-0.57649-0.99028 0.62789  0  50.25 210.66  205.54  50.11 210.60  205.49
   5  -5   5  1708.2   222.3   1-0.28177 0.91997-0.88881 0.39199 0.36142 0.00077  0  90.66 416.27  146.07  90.32 416.28  146.14
   5  -5   5  2364.7   178.2   2 0.07506 0.56257-0.93838 0.44055-0.33735 0.69959  0  46.77 273.29  131.00  46.51 273.22  131.04
   5   5  -5  2068.6   192.6   2-0.13593 0.77316 0.99002-0.49244 0.03729-0.39965  0  46.64 244.97  293.48  46.52 244.74  294.12
   5   5   5  2099.1   170.3   2-0.11670 0.75394 0.99056-0.49299-0.07185 0.43421  0 140.98 482.51  287.66 140.79 482.21  287.77
   5   5   5  2159.8   145.3   2-0.24007 0.87710 0.48190 0.01517 0.84270-0.48007  0  53.93 325.81  351.60  53.79 325.90  351.48
  -5  -5  -6  4247.9   308.2   1-0.38954-0.24791 0.38531-0.88185-0.83654 0.40109  0  31.95 258.57   23.83  31.67 258.54   23.86
  -5  -5   6  3694.2   324.2   1-0.69833 0.06081-0.44392-0.05280-0.56149 0.99675  0  71.29 101.19   78.96  71.04 100.99   79.02
   5  -5  -6  4010.4   263.8   2 0.10793 0.52953 0.15002-0.64761-0.98277 0.54791  0  36.87 196.53  209.69  36.75 196.52  209.62
   5  -5   6  3152.7   296.4   1-0.27926 0.91747-0.88839 0.39157 0.36439 0.07023  0  67.03 407.28  146.32  66.64 407.30  146.36
   5  -5   6  3307.6   204.2   2 0.05846 0.57917-0.97177 0.47393-0.22859 0.66328  0  31.25 271.84  124.44  30.84 271.78  124.45
   5   5  -6  3368.9   236.8   2-0.12616 0.76340 0.99183-0.49426-0.01898-0.41585  0  32.17 230.05  290.84  31.92 230.01  290.85
   5   5   6  3094.0   202.2   2-0.13544 0.77267 0.99019-0.49261 0.03445 0.40038  2 134.43 501.96  294.03 134.49 501.76  293.96
  -5  -6   0  18.487 140.871   1-0.60011-0.03734 0.00310-0.59895-0.79991 0.79991  0  58.70 199.44   49.40  58.93 199.42   49.14
   5  -6   0 138.652 109.510   2 0.13448 0.50307-0.49531-0.10166-0.85824 0.85824  0  53.51 238.80  171.53  52.83 239.18  171.21
   5   6   0 123.256 111.923   2 0.04263 0.59482 0.59331 0.00380-0.80385 0.80385  2 177.05 503.22  237.36 176.37 503.57  237.54
   5   6   0  74.439  82.027   2-0.20368 0.84070 0.85577-0.25893 0.47558-0.47558  0  53.85 288.07  321.00  53.70 288.18  320.95
  -5  -6  -1  2140.2   233.9   1-0.57238-0.06507 0.06855-0.66440-0.81712 0.74454  0  55.27 211.53   45.13  55.40 211.53   44.95
  -5  -6   1  2536.0   265.8   1-0.62635-0.01117-0.06796-0.52809-0.77657 0.84911  0  60.34 186.96   53.66  60.25 186.86   53.68
   5  -6  -1  2089.7   199.1   2 0.13597 0.50158-0.38741-0.20956-0.91183 0.83935  0  52.06 232.53  177.54  52.00 232.37  178.12
   5  -6   1  1881.1   220.5   1-0.26918 0.90738-0.88650 0.29031 0.37639-0.30395  0 163.02 494.25  147.32 162.77 494.14  147.27
   5  -6   1  2333.8   194.5   2 0.13012 0.50743-0.60018 0.00321-0.78921 0.86169  0  51.47 244.68  164.61  51.12 244.57  164.00
   5   6  -1  1966.2   165.3   2-0.19303 0.83006 0.89709-0.30024 0.39746-0.46996  0  51.70 279.39  315.90  51.58 279.34  315.84
   5   6   1  2138.3   196.0   2 0.01581 0.62164 0.71160-0.11449-0.70241 0.77489  0 169.08 500.14  246.55 168.90 499.82  246.62
   5   6   1  1658.1   148.7   2-0.21391 0.85093 0.80363-0.20679 0.55536-0.48287  0  53.11 295.80  326.48  53.16 295.67  326.46
  -5  -6  -2 395.793 160.444   1-0.54447-0.09298 0.12784-0.72369-0.82898 0.68383  0  48.92 223.53   41.39  49.63 223.44   41.14
  -5  -6   2 149.082 152.999   1-0.65016 0.01264-0.14288-0.45317-0.74624 0.89133  0  59.28 173.57   58.47  59.44 173.69   58.50
   5  -6  -2  26.495 107.329   2 0.13466 0.50289-0.28205-0.31492-0.94990 0.80494  0  48.28 224.61  184.35  48.69 224.22  184.53
   5  -6   2  76.852 142.798   1-0.29640 0.93460-0.89102 0.29483 0.34385-0.19898  0 138.97 479.44  144.60 138.93 478.73  144.82
   5  -6   2 100.144  93.243   2 0.12292 0.51463-0.69683 0.09987-0.70662 0.85158  0  46.70 248.57  156.58  46.76 248.53  156.70
   5   6  -2-105.720  86.249   2-0.18217 0.81920 0.92881-0.33197 0.32267-0.46766  0  47.59 268.49  311.71  46.90 269.29  311.13
   5   6   2  14.966 107.379   2-0.01242 0.64966 0.81132-0.21423-0.58447 0.72941  0 160.65 500.14  256.20 161.80 500.45  255.64
   5   6   2 123.064  78.602   2-0.22306 0.86008 0.73988-0.14304 0.63468-0.48969  0  49.61 301.93  332.15  49.77 301.65  332.34
  -5  -6  -3  8397.7   364.3   1-0.51742-0.12003 0.18051-0.77636-0.83648 0.61876  0  41.59 235.33   37.96  41.52 235.37   37.72
  -5  -6   3  7703.7   352.2   1-0.67025 0.03273-0.22054-0.37552-0.70861 0.92624  0  56.52 159.70   63.48  56.34 159.55   63.58
   5  -6  -3  8650.1   309.2   2 0.13164 0.50591-0.18308-0.41389-0.97424 0.75680  0  43.21 214.69  190.36  42.87 214.63  190.38
   5  -6   3  7029.1   328.9   1-0.31056 0.94876-0.89280 0.29661 0.32629-0.10898  0 116.52 465.54  143.40 116.12 465.53  143.53
   5  -6   3  8358.3   282.8   2 0.11223 0.52540-0.78185 0.18446-0.61328 0.83062  0  40.11 251.23  149.43  39.77 251.22  149.41
   5   6  -3  7217.3   260.1   2-0.17135 0.80837 0.95255-0.35571 0.25156-0.46905  0  39.89 258.30  306.83  39.75 258.14  306.78
   5   6   3  6652.6   214.3   2-0.23059 0.86762 0.66541-0.06857 0.70997-0.49248  0  43.46 306.40  338.37  43.35 306.06  338.45
  -5  -6  -4  29.808 152.285   1-0.49202-0.14543 0.22632-0.82217-0.84065 0.55035  0  31.11 247.71   34.54  30.97 247.57   34.71
  -5  -6   4  85.250 177.208   1-0.68538 0.04785-0.29964-0.29642-0.66368 0.95386  0  50.97 144.30   69.19  50.82 144.12   68.86
   5  -6  -4 163.692 128.755   2 0.12717 0.51038-0.09397-0.50300-0.98742 0.69750  0  34.27 203.71  195.60  34.47 203.64  195.57
   5  -6   4  91.864 177.674   1-0.31617 0.95437-0.89335 0.29717 0.31931-0.02956  0  93.33 454.22  143.40  93.21 454.04  143.01
   5  -6   4  10.654 101.503   2 0.09980 0.53783-0.85203 0.25463-0.51389 0.80368  0  29.87 252.29  142.54  29.67 252.61  142.40
   5   6  -4 112.889 108.450   2-0.16063 0.79765 0.96970-0.37286 0.18407-0.47406  0  29.60 246.21  302.59  30.00 245.96  302.73
   5   6   4  93.990  87.429   2-0.23634 0.87336 0.58362 0.01322 0.77688-0.48689  0  33.56 309.42  344.41  33.67 309.08  344.53
  -5  -6  -5 958.747 204.846   1-0.46903-0.16842 0.26538-0.86123-0.84237 0.47950  0  17.39 260.57   32.31  17.63 260.33   32.11
  -5  -6   5  1103.2   223.6   1-0.69504 0.05752-0.37808-0.21798-0.61154 0.97426  0  42.40 126.61   74.32  42.64 126.92   74.28
   5  -6  -5  1169.5   190.6   2 0.12201 0.51545-0.01624-0.58087-0.99240 0.63001  0  22.81 191.25  199.66  23.08 191.11  200.02
   5  -6   5 850.687 220.853   1-0.31570 0.95390-0.89331 0.29712 0.31989 0.04229  0  69.38 443.87  143.32  69.25 443.95  143.06
   5  -6   5  1086.5   149.4   2 0.08589 0.55174-0.90706 0.30966-0.41216 0.77440  0  16.37 252.97  135.63  16.47 252.84  135.73
   5   6  -5 878.407 158.984   2-0.15004 0.78728 0.98139-0.38430 0.11983-0.48219  0  17.40 232.83  298.65  17.42 232.69  298.96
   5   6   5 841.265 119.933   2-0.23963 0.87667 0.49784 0.09865 0.83351-0.47088  0  20.34 311.51  350.20  20.43 310.89  350.42
  -5  -7   0 137.065 175.146   1-0.62576-0.01176-0.06625-0.62915-0.77720 0.77720  0  21.94 209.86   53.51  21.71 209.86   53.57
   5  -7   0  15.674 125.577   2 0.13387 0.50368-0.51750-0.17897-0.84515 0.84515  0  19.45 217.13  169.54  19.81 216.80  169.72
   5   7   0 -30.666  96.904   2-0.20898 0.84600 0.83073-0.13441 0.51596-0.51596  0  17.19 273.27  323.33  17.65 272.56  323.70
  -5  -7  -1  1241.4   217.1   1-0.60385-0.03367-0.00697-0.68843-0.79707 0.72452  0  19.36 222.87   49.59  18.66 222.83   49.78
  -5  -7   1  1211.3   212.7   1-0.64628 0.00876-0.12967-0.56572-0.75200 0.82455  0  22.39 196.49   58.15  22.31 196.55   57.65
   5  -7  -1  1082.9   171.4   2 0.13584 0.50171-0.42639-0.27007-0.89428 0.82180  0  19.19 210.24  175.61  19.21 210.05  175.67
   5  -7   1  1118.7   162.2   2 0.12974 0.50781-0.60667-0.08979-0.78430 0.85678  0  17.59 222.25  163.54  17.68 222.18  163.53
   5   7  -1 978.920 140.305   2-0.19974 0.83676 0.87248-0.17617 0.44596-0.51845  0  15.63 264.36  318.82  15.89 264.15  318.99
   5   7   1  1019.9   131.2   2-0.21738 0.85441 0.78128-0.08496 0.58511-0.51261  0  16.54 279.81  328.68  16.51 279.75  328.62
  -6   0   0 44330.8   520.7   1-0.38247-0.38247 0.39504-0.39504-0.83526 0.83526  0 162.79  94.01   22.69 162.76  94.21   23.16
  -6   0   0 42569.5   547.1   1-0.38292-0.38292-0.89440 0.89440 0.23112-0.23112  0 474.70  46.40  136.83 475.07  46.27  136.67
  -6   0  -1  42.071 110.349   1-0.30855-0.45639 0.48978-0.48978-0.81542 0.74285  0 149.51 107.48   15.96 149.51 107.27   16.19
  -6   0  -1 -43.653 186.764   1-0.40524-0.36061-0.89213 0.89213 0.19970-0.27214  0 497.73  56.43  135.35 497.66  57.37  134.46
  -6   0   1 -69.035  93.599   1-0.46584-0.29910 0.27062-0.27062-0.84247 0.91504  0 175.42  80.28   31.42 175.42  79.75   31.76
  -6   0   1  40.975 159.388   1-0.36175-0.40410-0.89526 0.89526 0.26010-0.18766  0 454.31  33.50  138.46 454.46  33.83  138.73
  -6   0  -2 175.251 112.971   1-0.24620-0.51874 0.56050-0.56050-0.79071 0.64557  0 135.24 119.29   10.49 135.42 119.20   10.61
  -6   0   2 148.346  88.529   1-0.55295-0.21199 0.11058-0.11058-0.82585 0.97099  0 187.97  63.26   42.36 187.92  63.44   42.26
  -6   0   2  93.687 150.992   1-0.34262-0.42322-0.89505 0.89505 0.28548-0.14061  0 435.16  19.71  140.47 435.31  19.74  140.55
  -6   0  -3 -68.023 116.159   1-0.19539-0.56955 0.61225-0.61225-0.76614 0.54842  0 120.48 130.79    7.27 120.32 130.19    6.22
  -6   0   3  12.551  81.650   1-0.63246-0.13257-0.08600 0.08600-0.76980 0.98744  0 200.72  44.61   54.96 200.66  44.90   54.84
  -6   0   3 -16.611 108.889   2-0.16939-0.59557-0.48440 0.48440 0.85829-0.64082  0 480.19  26.72   49.91 480.75  26.68   49.72
  -6   0  -4 305.557 148.707   1-0.15521-0.60973 0.64992-0.64992-0.74398 0.45369  0 103.82 140.12    2.66 103.95 140.55    2.81
  -6   0   4 338.961  86.772   1-0.68695-0.07807-0.30942 0.30942-0.65754 0.94772  0 214.31  23.42   69.51 214.25  23.45   69.53
   6   0  -4 248.465  69.146   2 0.13147 0.63358-0.57508 0.57508-0.80746 0.51754  0 147.62 440.24  165.92 147.94 440.36  165.79
   6   0  -4 294.116  63.742   2 0.08391 0.68104 0.35066-0.35066-0.93274 0.64283  0  86.90 333.49  222.04  87.07 334.17  221.57
   6   0  -5 -23.490  83.053   2 0.12470 0.64035-0.67684 0.67684-0.72549 0.36309  0 162.47 473.65  158.13 162.20 473.38  158.28
   6   0  -5 -15.255  69.230   2 0.05979 0.70516 0.50280-0.50280-0.86233 0.49994  0  68.62 310.67  230.91  68.84 310.00  231.29
   6   0  -6  7111.6   226.3   2 0.04476 0.72019 0.58266-0.58266-0.81149 0.37662  0  51.03 289.82  236.87  50.79 289.71  236.78
   6   0  -7 -13.931  93.496   2 0.03529 0.72966 0.62833-0.62833-0.77714 0.26980  0  32.10 270.04  240.68  31.17 270.82  240.11
  -6  -1   0 -37.825 112.877   1-0.43113-0.33381 0.32516-0.42447-0.84166 0.84166  0 146.99 108.59   28.11 146.77 108.67   28.06
  -6  -1   0  14.706 203.820   1-0.27423-0.49162-0.88744 0.78808 0.37047-0.37047  2 502.34  58.38  146.73 502.57  58.09  146.82
  -6   1   0  89.315  95.455   1-0.32847-0.43647 0.46560-0.36629-0.82178 0.82178  0 176.05  77.31   18.51 176.12  77.54   18.02
  -6   1   0 -35.128 164.681   1-0.50145-0.26439-0.86387 0.96323 0.04778-0.04778  0 453.29  31.39  125.58 453.31  31.20  124.03
  -6  -1  -1   1.978 112.597   1-0.36735-0.39759 0.41548-0.51479-0.83212 0.75955  0 135.86 120.67   21.86 135.89 121.21   21.69
  -6  -1   1 -81.145  98.192   1-0.49966-0.26528 0.21286-0.31217-0.83966 0.91224  0 156.57  94.54   35.72 156.56  94.90   35.60
  -6  -1   1  30.773 193.210   1-0.23993-0.52608-0.87994 0.78056 0.41004-0.33758  0 485.52  45.13  150.39 485.50  44.60  149.85
  -6   1  -1 131.762 106.973   1-0.24440-0.52054 0.56242-0.46311-0.78991 0.71734  0 159.69  91.16   10.54 159.87  91.33   10.45
  -6   1  -1-144.103 179.131   1-0.50790-0.25794-0.86065 0.96001 0.03641-0.10885  0 479.49  41.06  123.24 479.53  41.19  123.25
  -6   1   1 -21.371  85.291   1-0.42971-0.33523 0.32731-0.22800-0.84156 0.91413  0 192.99  61.82   28.00 192.79  61.86   27.91
  -6   1   1  18.002 147.779   1-0.50023-0.26561-0.86445 0.96382 0.04988 0.02255  0 427.72  19.71  124.02 427.91  19.94  124.17
  -6  -1  -2  2134.1   201.0   1-0.31101-0.45393 0.48684-0.58615-0.81625 0.67110  0 123.96 132.81   16.31 123.73 132.83   16.41
  -6  -1   2  1866.8   183.3   1-0.56822-0.19672 0.07773-0.17704-0.81920 0.96434  0 165.26  79.45   44.30 165.26  79.68   44.36
  -6  -1   2  2149.8   223.6   1-0.20555-0.56045-0.87023 0.77085 0.44771-0.30279  0 470.78  29.25  153.02 470.96  29.15  152.82
  -6   1  -2  2050.2   195.9   1-0.17742-0.58752 0.62946-0.53015-0.75651 0.61136  0 143.68 103.49    4.68 143.59 103.78    4.69
  -6   1   2  2226.0   142.6   1-0.54312-0.22182 0.13056-0.03125-0.82944 0.97459  0 211.26  43.60   41.01 211.22  43.76   40.96
  -6   1   2  2017.9   146.4   2-0.22320-0.54155-0.04170 0.14114 0.97388-0.82874  0 493.75  42.14   23.23 494.25  42.24   23.09
  -6  -1  -3  5959.3   293.7   1-0.26312-0.50182 0.54207-0.64138-0.79808 0.58035  0 110.43 143.56   11.98 110.16 143.72   12.10
  -6  -1   3  5693.5   225.4   1-0.62970-0.13532-0.07775-0.02159-0.77294 0.99057  0 173.02  62.59   54.20 173.00  62.59   54.31
  -6  -1   3  5361.4   315.8   1-0.17187-0.59413-0.85868 0.75930 0.48284-0.26547  2 458.08  11.43  155.82 458.43  11.40  155.69
  -6  -1   3  6151.8   212.4   2-0.12787-0.63710-0.69185 0.59237 0.71063-0.49316  0 486.47  24.45   64.69 487.09  24.71   64.56
  -6   1   3  5158.9   148.2   1-0.65077-0.11426-0.14501 0.24435-0.74530 0.96293  0 234.09  22.11   58.57 234.06  22.28   58.64
  -6   1   3  5669.5   235.3   2-0.19536-0.56940-0.31046 0.40989 0.93030-0.71258  0 468.87  16.24   38.85 469.33  16.25   38.83
   6  -1  -3  5268.9   110.1   2 0.12510 0.63996-0.67232 0.57282-0.72962 0.51218  0 137.24 416.75  158.67 137.30 416.54  158.63
   6  -1  -3  5695.9   112.2   2 0.12712 0.63793-0.09313-0.00636-0.98750 0.77006  0 101.06 353.19  195.66 100.82 353.01  195.62
  -6  -1  -4 636.166 159.312   1-0.22369-0.54125 0.58402-0.68333-0.78031 0.49002  0  95.24 154.14    8.54  95.00 154.04    8.65
  -6  -1   4 579.168 114.749   1-0.67562-0.08941-0.24619 0.14684-0.69494 0.98511  0 179.97  42.78   65.45 179.81  43.27   65.27
   6  -1  -4 646.785  87.843   2 0.11154 0.65361-0.78653 0.68696-0.60740 0.31760  0 154.33 451.48  149.23 154.83 451.47  148.98
   6  -1  -4 645.612  79.014   2 0.10188 0.66307 0.20622-0.30574-0.97319 0.68328  0  81.76 323.91  212.86  81.62 323.75  212.89
   6   1  -4 576.204  75.287   2 0.13560 0.62945-0.34040 0.43989-0.93045 0.64053  0 143.40 439.53  180.94 143.25 439.29  181.01
   6   1  -4 469.632  67.885   2 0.05446 0.71049 0.53231-0.43279-0.84479 0.55488  0  85.72 338.95  233.42  85.87 338.99  233.27
  -6  -1  -5  9900.1   377.7   1-0.19222-0.57272 0.61532-0.71463-0.76448 0.40161  0  78.39 163.80    6.00  78.07 163.99    5.95
  -6  -1   5  8942.0   253.2   1-0.69754-0.06748-0.41600 0.31666-0.58342 0.94614  0 185.79  20.78   76.94 185.83  20.77   76.98
   6  -1  -5  9173.5   247.2   2 0.10509 0.66007-0.82590 0.72633-0.55394 0.19170  0 167.87 482.26  145.05 167.53 481.83  145.17
   6  -1  -5 10447.7   239.3   2 0.08221 0.68274 0.36270-0.46222-0.92827 0.56588  0  65.14 302.52  222.23  64.98 302.25  222.32
   6   1  -5  9585.7   233.6   2 0.13436 0.63069-0.49943 0.59893-0.85587 0.49347  0 158.06 473.94  170.91 157.96 473.54  170.93
   6   1  -5  9197.1   215.4   2 0.03048 0.73446 0.64994-0.55042-0.75937 0.39699  0  67.10 313.82  241.77  66.93 313.65  241.73
  -6  -1  -6  81.253 161.659   1-0.16803-0.59691 0.63821-0.73752-0.75130 0.31585  0  58.87 173.63    4.04  58.95 173.79    3.89
   6  -1  -6  12.973  85.974   2 0.06763 0.69731 0.45656-0.55607-0.88712 0.45225  0  47.95 283.11  228.43  47.64 283.24  228.26
   6  -1   6 367.318 184.637   1 0.03774 0.72826-0.74414 0.64476 0.66696-0.23222  0  68.92 373.10  173.41  69.09 373.06  173.02
   6   1  -6 156.887  84.868   2 0.01759 0.74736 0.70455-0.60503-0.70944 0.27457  0  48.58 293.13  245.96  48.55 292.90  246.04
  -6  -1  -7 493.215 197.978   1-0.15036-0.61458 0.65432-0.75363-0.74112 0.23310  0  37.19 183.46    2.33  37.12 183.57    2.41
   6  -1  -7 506.352 124.450   2 0.05744 0.70750 0.51593-0.61545-0.85470 0.34736  0  28.09 264.91  232.21  28.27 265.00  232.16
   6  -1   7 624.211 213.205   1 0.02455 0.74145-0.75344 0.65406 0.65705-0.14985  0  45.76 364.27  171.59  45.59 364.22  171.94
   6   1  -7 582.393 112.514   2 0.01047 0.75448 0.73256-0.63304-0.68062 0.17328  0  29.06 273.67  248.56  28.62 273.80  248.39
  -6  -2   0 795.174 148.959   1-0.47471-0.29023 0.25595-0.45457-0.84210 0.84210  0 128.13 121.22   32.80 128.19 121.35   32.75
  -6   2   0 846.169 117.238   1-0.26927-0.49567 0.53527-0.33665-0.80061 0.80061  0 186.72  58.24   12.51 186.67  57.92   12.64
  -6   2   0 847.116 176.098   1-0.60959-0.15625-0.77414 0.97287-0.17061 0.17061  2 436.61  11.84  109.00 436.77  12.01  109.11
  -6  -2  -1  1954.2   226.4   1-0.42047-0.34447 0.34101-0.53963-0.84078 0.76821  0 119.22 133.48   26.72 119.13 133.65   26.96
  -6  -2   1  1632.4   196.7   1-0.53094-0.23400 0.15481-0.35342-0.83315 0.90572  0 135.57 108.05   39.39 135.78 107.97   39.40
  -6   2  -1  1555.5   177.2   1-0.17626-0.58868 0.63055-0.43193-0.75587 0.68330  0 166.99  72.81    4.58 166.91  72.89    4.59
  -6   2  -1  1620.9   218.2   1-0.60140-0.16444-0.78451 0.98324-0.15118 0.07874  0 467.53  21.32  110.67 467.62  20.82  110.46
  -6   2   1  1633.3   138.5   1-0.39192-0.37302 0.38198-0.18337-0.83695 0.90952  0 209.11  40.34   24.06 209.03  40.46   24.09
  -6  -2  -2 10931.2   360.6   1-0.37071-0.39423 0.41100-0.60962-0.83286 0.68771  0 108.77 144.91   22.02 108.52 145.13   22.02
  -6  -2   2 10659.1   311.2   1-0.58560-0.17934 0.03824-0.23685-0.80970 0.95485  0 141.84  93.31   46.84 141.84  93.29   46.89
  -6   2  -2 10093.4   406.3   1-0.59912-0.16672-0.78727 0.98600-0.14579 0.00092  0 499.28  28.69  111.43 499.45  28.50  110.83
  -6   2   2 10058.5   178.4   1-0.54750-0.21744 0.12180 0.07682-0.82790 0.97305  0 238.38  18.90   41.49 238.22  19.03   41.53
  -6   2   2 10498.5   251.4   2-0.22860-0.53616 0.03368 0.16519 0.97294-0.82780  0 474.24  16.73   18.67 474.40  16.92   18.75
   6  -2  -2 10471.2   126.7   2 0.10265 0.66251-0.83850 0.63937-0.53514 0.39024  0 131.74 410.95  143.66 131.51 410.37  143.85
   6  -2  -2 10497.1   126.1   2 0.13520 0.62986-0.46637 0.26738-0.87420 0.72924  0 103.22 360.64  173.15 102.95 360.48  173.10
  -6  -2  -3  8846.1   347.7   1-0.32688-0.43806 0.46757-0.66618-0.82130 0.60358  0  96.48 155.82   18.00  96.26 156.03   17.87
  -6  -2   3  7868.1   278.5   1-0.63409-0.13093-0.09095-0.10774-0.76789 0.98552  0 146.47  77.05   54.95 146.48  77.03   55.15
  -6  -2   3  7777.5   391.3   1-0.06385-0.70215-0.80863 0.60987 0.58484-0.36747  0 502.47  16.61  165.00 502.82  16.31  164.68
  -6  -2   3  7460.7   243.1   2-0.07477-0.69019-0.87131 0.67236 0.48500-0.26753  2 486.79   9.44   81.51 487.39   9.64   81.44
   6  -2  -3  7425.6   174.6   2 0.08604 0.67911-0.90654 0.70740-0.41327 0.19592  0 150.05 443.99  135.69 149.80 443.58  135.80
   6  -2  -3  8535.9   174.5   2 0.12854 0.63652-0.11898-0.08001-0.98454 0.76710  0  85.63 331.03  194.18  85.38 330.90  194.12
  -6  -2  -4  1302.7   188.7   1-0.28940-0.47554 0.51210-0.71071-0.80871 0.51841  0  82.10 166.31   14.43  82.17 166.49   14.45
  -6  -2   4  1728.8   196.5   1-0.67175-0.09327-0.22725 0.02856-0.70506 0.99523  0 149.70  58.88   64.22 149.59  58.73   64.02
   6  -2  -4  1514.6   154.3   2 0.08074 0.68441-0.92312 0.72398-0.37595 0.08615  0 162.93 471.08  133.33 162.73 470.87  133.44
   6  -2  -4  1506.8   129.2   2 0.11315 0.65180 0.09485-0.29389-0.98904 0.69913  0  70.94 310.07  206.40  70.88 309.98  206.41
   6  -2   4  1471.1   188.6   1 0.02001 0.74600-0.75657 0.55782 0.65360-0.36377  0 110.49 409.01  171.48 110.36 409.17  171.56
   6   2  -4  1494.9   122.9   2 0.13003 0.63503-0.14711 0.34610-0.98054 0.69062  0 140.80 449.63  192.87 141.43 449.75  192.48
   6   2  -4  1512.5   107.8   2 0.01323 0.75172 0.72170-0.52266-0.69208 0.40217  0  77.33 336.49  247.78  77.31 336.87  247.46
  -6  -2  -5  2305.9   259.9   1-0.25865-0.50629 0.54697-0.74558-0.79620 0.43332  0  66.36 176.68   12.15  65.99 176.71   11.70
  -6  -2   5  2002.1   222.6   1-0.69393-0.07110-0.36474 0.16606-0.62083 0.98355  0 151.17  37.49   73.32 151.15  37.68   73.35
   6  -2  -5  1831.3   192.5   2 0.07940 0.68576-0.92695 0.72782-0.36669 0.00445  0 173.88 498.86  132.91 173.73 498.79  132.86
   6  -2  -5  2130.2   160.7   2 0.09826 0.66669 0.23772-0.43676-0.96635 0.60396  0  56.14 291.26  214.98  55.82 291.48  214.75
   6  -2   5  2154.3   224.7   1-0.00590 0.77190-0.77379 0.57503 0.63342-0.27113  0  90.23 399.52  169.36  89.76 399.41  169.44
   6   2  -5  2281.6   177.2   2 0.13541 0.62965-0.32499 0.52398-0.93597 0.57357  0 155.03 483.22  181.91 155.03 482.98  181.94
   6   2  -5  1759.8   137.5   2-0.00407 0.76875 0.78413-0.58510-0.62058 0.25822  0  59.15 313.01  252.94  59.01 312.90  253.00
  -6  -2  -6  7354.5   365.1   1-0.23407-0.53087 0.57329-0.77191-0.78520 0.34976  0  47.60 186.62    9.52  47.40 186.87    9.55
  -6  -2   6  7155.3   291.2   1-0.69751-0.06751-0.49606 0.29738-0.51711 0.95237  2 151.36  13.37   82.92 151.33  13.18   82.93
   6  -2  -6  7209.0   253.2   2 0.08599 0.67895 0.33556-0.53459-0.93809 0.50322  0  39.25 274.05  220.68  39.13 273.83  220.65
   6  -2   6  7149.2   368.3   1-0.02305 0.78905-0.78464 0.58588 0.61952-0.18478  0  67.98 390.25  167.87  67.38 390.35  168.04
   6   2  -6  6395.3   223.2   2-0.01213 0.77681 0.81041-0.61138-0.58574 0.15090  0  40.72 292.96  255.53  40.58 292.73  255.55
  -6  -2  -7 452.229 198.772   1-0.21527-0.54967 0.59253-0.79115-0.77625 0.26823  0  26.17 197.25    7.82  25.95 197.16    7.93
   6  -2  -7 311.430 120.583   2 0.07622 0.68873 0.40234-0.60138-0.91231 0.40497  0  19.68 256.84  224.50  20.03 256.45  224.79
   6  -2   7 506.033 196.838   1-0.03311 0.79911-0.79091 0.59215 0.61104-0.10384  0  42.24 382.47  167.39  42.71 381.75  167.21
   6   2  -7 214.599 109.304   2-0.01565 0.78033 0.82120-0.62217-0.57043 0.06312  0  20.21 274.03  256.61  20.30 273.92  256.64
  -6  -3   0 -37.827 116.366   1-0.51357-0.25137 0.18766-0.48558-0.83727 0.83727  0 106.65 132.44   37.59 106.70 132.58   37.26
  -6   3   0  27.090  92.643   1-0.20617-0.55877 0.60164-0.30371-0.77171 0.77171  0 194.01  34.75    6.99 194.19  34.46    7.15
  -6   3   0  59.371 127.266   2-0.23933-0.52510 0.51523-0.21681 0.82296-0.82296  2 486.81   9.22  349.49 487.52   8.73  349.26
  -6  -3  -1  7817.6   331.9   1-0.46802-0.29692 0.26705-0.56498-0.84240 0.76983  0  99.37 144.83   31.98  99.07 144.90   32.00
  -6  -3   1  7614.3   312.6   1-0.55963-0.20531 0.09655-0.39447-0.82310 0.89568  0 112.87 119.36   43.01 112.57 119.35   43.16
  -6   3   1  7584.5   184.6   1-0.35371-0.41123 0.43354-0.13561-0.82881 0.90139  2 224.50  13.93   20.34 224.34  14.26   20.39
   6  -3  -1  7366.9   145.0   2 0.04478 0.72038-0.98861 0.68991-0.14369 0.07124  0 135.29 430.52  119.45 135.26 430.34  119.42
   6  -3  -1  7727.7   143.1   2 0.12888 0.63618-0.62031 0.32182-0.77370 0.70122  0  89.55 349.42  162.61  89.28 349.36  162.54
  -6  -3  -2  1082.8   182.4   1-0.42489-0.34005 0.33443-0.63236-0.84120 0.69605  0  89.88 156.34   27.38  89.66 156.46   27.42
  -6  -3   2  1055.7   168.2   1-0.60335-0.16168-0.00568-0.29235-0.79746 0.94255  0 116.71 104.45   49.74 116.70 104.90   49.69
   6  -3  -2 801.441  90.043   2 0.04293 0.72222-0.99025 0.69155-0.13253-0.01237  0 148.69 452.06  118.82 148.73 452.07  118.77
   6  -3  -2 918.113 105.575   2 0.13589 0.62916-0.37033 0.07185-0.91891 0.77395  0  78.81 328.34  179.51  78.69 328.88  179.18
   6  -3   2 993.829 160.204   1 0.03911 0.72689-0.74316 0.44502 0.66797-0.52306  0 149.65 452.26  173.27 149.46 452.48  173.13
  -6  -3  -3  2436.3   252.2   1-0.38569-0.37925 0.39060-0.68853-0.83586 0.61814  0  78.55 167.47   23.45  78.37 167.50   23.48
  -6  -3   3  2076.2   229.5   1-0.64204-0.12299-0.11573-0.18230-0.75789 0.97552  0 119.26  88.74   56.68 119.11  89.02   56.75
   6  -3  -3  2148.7   164.4   2 0.04487 0.72028-0.98852 0.68982-0.14428-0.07307  0 160.36 474.03  119.39 160.24 473.76  119.46
   6  -3  -3  2383.9   142.9   2 0.13068 0.63438-0.16136-0.13712-0.97820 0.76076  0  67.91 311.11  191.77  67.80 311.13  191.65
   6  -3   3  2038.8   210.9   1-0.00913 0.77513-0.77586 0.47772 0.63084-0.41347  0 128.70 439.83  169.02 128.42 440.18  169.18
   6   3  -3  2144.4   105.3   2 0.09472 0.67023 0.26735 0.03120-0.95893 0.74150  0 124.65 435.76  216.67 124.76 435.71  216.52
   6   3  -3  2081.9    96.5   2-0.01141 0.77610 0.80800-0.50945-0.58908 0.37166  0  80.78 357.17  255.55  80.70 357.47  255.31
  -6  -3  -4 803.469 177.740   1-0.35132-0.41362 0.43663-0.73456-0.82821 0.53791  0  64.53 177.78   20.42  65.05 178.25   20.16
  -6  -3   4 779.891 166.485   1-0.67250-0.09253-0.23062-0.06740-0.70325 0.99343  0 120.00  71.51   63.59 119.70  71.12   64.24
   6  -3  -4 725.429 126.003   2 0.04843 0.71673-0.98496 0.68626-0.16588-0.12391  0 170.26 497.44  120.86 170.63 497.26  120.73
   6  -3  -4 850.096 107.978   2 0.12062 0.64433 0.00299-0.30155-0.99269 0.70278  0  55.44 294.91  200.92  55.60 294.58  201.13
   6  -3   4 809.486 173.242   1-0.04238 0.80838-0.79641 0.49827 0.60327-0.31344  0 107.22 429.35  166.32 107.16 429.15  166.45
   6   3  -4 809.066 103.771   2 0.12115 0.64380-0.00430 0.30285-0.99262 0.70271  0 141.64 470.59  200.38 140.91 470.26  200.71
   6   3  -4 781.311  88.421   2-0.03171 0.79639 0.86601-0.56747-0.49901 0.20912  0  61.88 330.23  261.45  62.11 329.88  261.56
  -6  -3  -5 748.236 197.019   1-0.32205-0.44289 0.47346-0.77139-0.81983 0.45696  0  49.24 188.63   17.47  49.38 188.86   17.43
  -6  -3   5 473.741 169.044   1-0.69196-0.07306-0.34633 0.04830-0.63344 0.99616  0 118.49  50.97   71.96 118.34  50.67   72.06
   6  -3  -5 696.212 111.482   2 0.10998 0.65497 0.12887-0.42743-0.98554 0.62316  0  41.54 278.16  208.51  41.62 278.32  208.39
   6  -3   5 371.230 174.600   1-0.06451 0.83051-0.80900 0.51086 0.58426-0.22198  0  85.39 418.90  164.50  84.90 419.29  164.63
   6   3  -5 460.071 127.072   2 0.13114 0.63392-0.17183 0.47032-0.97636 0.61396  2 152.58 501.75  191.07 152.69 501.72  191.04
   6   3  -5 453.857  93.882   2-0.03915 0.80384 0.88449-0.58595-0.46492 0.10255  0  45.17 308.14  264.11  44.95 308.75  263.82
  -6  -3  -6 273.420 176.817   1-0.29790-0.46704 0.50222-0.80014-0.81181 0.37636  0  30.68 199.45   15.59  31.10 199.57   15.22
  -6  -3   6 192.376 168.165   1-0.69830-0.06672-0.45874 0.16071-0.54948 0.98474  0 115.00  27.05   80.48 115.17  26.90   80.10
   6  -3  -6 240.217 113.664   2 0.10002 0.66493 0.22279-0.52135-0.96972 0.53485  0  24.82 262.67  213.55  25.29 262.11  213.87
   6  -3   6 222.083 187.622   1-0.07812 0.84413-0.81635 0.51821 0.57225-0.13751  0  60.88 410.34  163.47  61.01 410.31  163.51
   6   3  -6 210.830  91.455   2-0.04146 0.80614 0.88995-0.59140-0.45418 0.01935  0  26.72 289.76  264.50  26.63 289.78  264.53
  -6  -4   0  2292.8   245.8   1-0.54816-0.21678 0.12045-0.51768-0.82766 0.82766  0  81.84 142.73   41.62  81.68 142.75   41.62
   6  -4   0  2198.2   147.3   2-0.02098 0.78594-0.97458 0.57666 0.22306-0.22306  0 140.25 463.37   97.91 140.13 463.27   97.91
   6  -4   0  2252.7   126.1   2 0.12278 0.64228-0.69832 0.30034-0.70517 0.70517  0  67.04 332.89  156.57  66.73 332.73  156.58
  -6  -4  -1  3170.4   287.0   1-0.51021-0.25473 0.19383-0.59106-0.83792 0.76535  0  75.35 155.16   37.19  75.21 155.22   36.85
  -6  -4   1  2751.8   274.9   1-0.58566-0.17928 0.03810-0.43533-0.80966 0.88224  0  86.36 129.35   46.80  86.20 129.39   46.90
   6  -4  -1  2846.2   171.9   2-0.00900 0.77415-0.98710 0.58884 0.15983-0.23228  0 150.18 475.64  101.65 149.95 475.51  101.70
   6  -4  -1  2878.1   147.6   2 0.13335 0.63171-0.53236 0.13438-0.83595 0.76347  0  62.50 319.76  168.73  62.26 319.64  168.72
   6  -4   1  2542.0   134.9   2-0.03520 0.80016-0.95467 0.55675 0.29558-0.22309  0 130.14 454.69   93.63 130.21 454.69   93.53
   6  -4   1  2944.7   126.4   2 0.10214 0.66302-0.84113 0.44286-0.53111 0.60355  0  69.19 344.72  143.83  68.86 345.11  143.58
  -6  -4  -2  4519.9   300.4   1-0.47353-0.29141 0.25794-0.65517-0.84217 0.69702  0  66.83 166.93   32.63  66.70 167.10   32.61
  -6  -4   2  4707.9   282.4   1-0.62077-0.14426-0.05209-0.34528-0.78226 0.92735  0  89.08 115.00   52.57  88.80 114.88   52.66
   6  -4  -2  4158.0   208.9   2 0.00169 0.76347-0.99469 0.59643 0.10287-0.24776  0 159.88 490.87  104.99 159.57 490.74  105.05
   6  -4  -2  4473.2   182.6   2 0.13578 0.62928-0.36412-0.03386-0.92140 0.77644  0  55.82 306.18  179.64  55.60 306.08  179.55
   6  -4   2  4191.4   257.0   1-0.02483 0.79083-0.78574 0.38822 0.61806-0.47314  0 146.14 477.78  167.79 145.86 477.93  167.89
   6  -4   2  4210.8   140.6   2-0.05266 0.81762-0.92306 0.52514 0.38104-0.23606  0 120.82 450.45   88.20 120.54 450.37   88.21
   6  -4   2  4293.5   128.8   2 0.07484 0.69031-0.93892 0.54066-0.33589 0.48079  0  68.12 355.43  131.16  67.84 355.80  130.95
   6   4  -2  4238.2   115.6   2 0.04681 0.71814 0.57233-0.17426-0.81869 0.67373  0 111.18 438.37  236.11 111.08 438.13  236.04
   6   4  -2  3845.6   107.5   2-0.05234 0.81703 0.91381-0.51575-0.40276 0.25781  0  73.18 369.47  267.87  72.93 369.35  267.84
  -6  -4  -3  5152.0   331.3   1-0.43928-0.32566 0.31271-0.70994-0.84217 0.62445  0  56.06 178.34   28.99  56.07 178.52   28.91
  -6  -4   3  4657.4   305.5   1-0.65157-0.11346-0.14780-0.24957-0.74405 0.96169  0  89.49  98.92   58.69  89.43  98.94   58.82
   6  -4  -3  4875.9   201.6   2 0.13264 0.63241-0.20945-0.18852-0.96878 0.75134  0  47.10 292.26  188.95  46.75 292.22  188.84
   6  -4   3  4333.2   136.5   2-0.07426 0.83923-0.87265 0.47473 0.48267-0.26520  0 111.75 451.71   81.70 111.63 451.61   81.59
   6  -4   3  4715.7   129.1   2 0.04602 0.71913-0.98746 0.58919-0.15103 0.36838  0  63.40 363.64  119.89  63.01 363.60  119.86
   6   4  -3  4530.5   173.4   2 0.09058 0.67437 0.30077 0.09730-0.94938 0.73195  0 127.59 470.91  218.56 127.73 470.62  218.53
   6   4  -3  3869.5   146.1   2-0.06718 0.83186 0.94138-0.54332-0.33059 0.11318  0  56.40 341.83  272.35  56.14 341.68  272.35
  -6  -4  -4 755.391 188.271   1-0.40835-0.35659 0.35861-0.75584-0.83943 0.54914  0  43.54 189.66   25.66  43.16 189.68   25.74
  -6  -4   4 548.798 180.525   1-0.67580-0.08922-0.24709-0.15028-0.69443 0.98461  0  87.98  81.38   65.37  87.99  81.07   65.33
   6  -4  -4 648.262 113.120   2 0.12616 0.63890-0.07695-0.32103-0.98902 0.69910  0  35.78 278.20  196.51  35.69 278.07  196.55
   6  -4   4 644.627 193.461   1-0.09771 0.86371-0.82631 0.42880 0.55467-0.26484  0  99.61 453.47  162.35  99.32 453.12  161.90
   6  -4   4 636.378  78.275   2-0.09948 0.86444-0.79822 0.40030 0.59410-0.30414  0 103.68 459.29   73.79 103.70 459.29   73.76
   6  -4   4 610.916  70.883   2 0.01980 0.74535-0.99980 0.60154 0.00238 0.28741  0  53.98 368.01  110.97  53.78 368.16  110.90
   6   4  -4 726.032 123.413   2 0.11232 0.65263 0.10404 0.29403-0.98821 0.69830  0 139.88 499.63  206.92 139.80 499.48  206.95
   6   4  -4 444.258  92.430   2-0.07076 0.83544 0.94716-0.54910-0.31286 0.02297  0  40.98 320.35  273.58  40.95 320.77  273.44
  -6  -4  -5  1292.9   232.6   1-0.38143-0.38351 0.39647-0.79370-0.83506 0.47219  0  27.51 200.68   23.06  27.66 200.89   23.06
  -6  -4   5  1109.5   220.2   1-0.69198-0.07304-0.34652-0.05085-0.63331 0.99603  0  84.41  60.95   71.94  84.26  60.64   72.08
   6  -4  -5  1583.0   182.8   2 0.11845 0.64650 0.03212-0.43019-0.99244 0.63005  0  21.89 263.91  202.59  22.10 263.49  202.80
   6  -4   5  1131.8   220.8   1-0.11587 0.88187-0.83519 0.43767 0.53762-0.17533  0  75.84 442.28  159.97  75.17 443.09  160.38
   6  -4   5  1266.8   129.9   2-0.12547 0.89044-0.70181 0.30389 0.70123-0.33878  0  95.38 473.29   65.69  96.09 473.64   65.35
   6  -4   5  1187.5   112.2   2-0.00138 0.76654-0.99283 0.59456 0.11953 0.24271  0  40.34 368.92  104.38  40.09 369.75  104.07
   6   4  -5 963.975 118.723   2-0.07026 0.83494 0.94638-0.54832-0.31533-0.04703  0  24.52 302.71  273.02  24.66 302.18  273.29
  -6  -5   0  10.571 170.369   1-0.57874-0.18620 0.05409-0.55063-0.81372 0.81372  0  52.02 151.98   45.69  52.18 152.09   45.88
   6  -5   0-103.450  78.481   2 0.12754 0.63752-0.64088 0.14341-0.75697 0.75697  0  36.98 306.97  160.95  37.23 306.84  161.02
  -6  -5  -1 879.498 200.756   1-0.54753-0.21741 0.12172-0.61826-0.82788 0.75531  0  46.83 165.21   41.43  46.57 164.99   41.54
  -6  -5   1 751.486 199.152   1-0.60908-0.15594-0.02049-0.47622-0.79284 0.86539  0  55.81 138.50   51.20  55.61 138.31   50.64
   6  -5  -1 746.062 114.750   2 0.13402 0.63104-0.51263 0.01516-0.84808 0.77560  0  34.55 296.56  170.06  34.42 296.62  170.05
   6  -5   1 702.393 101.244   2 0.11610 0.64896-0.75738 0.25990-0.64257 0.71505  0  37.31 316.32  151.48  37.19 315.88  151.63
   6   5  -1 695.285  78.554   2 0.01368 0.75127 0.71996-0.22237-0.69388 0.62140  0 100.66 461.34  247.77 101.68 461.87  247.32
   6   5  -1 578.824  73.030   2-0.10612 0.87080 0.98587-0.48830-0.12962 0.05715  0  51.06 367.95  284.85  51.11 368.98  284.38
  -6  -5  -2  3321.1   295.6   1-0.51669-0.24825 0.18186-0.67840-0.83663 0.69148  0  38.77 177.27   37.66  38.71 177.33   37.64
   6  -5  -2  3671.9   203.9   2 0.13597 0.62909-0.38277-0.11471-0.91378 0.76882  0  29.26 285.48  178.44  29.02 285.41  178.41
   6  -5   2  3661.4   178.0   2 0.09941 0.66575-0.85391 0.35608-0.51084 0.65573  0  34.61 323.26  142.47  34.19 323.86  142.19
   6   5  -2  3119.0   175.4   2 0.05590 0.70905 0.52445-0.02686-0.84961 0.70465  0 115.44 486.55  232.80 115.41 486.45  232.74
   6   5  -2  2918.8   148.1   2-0.10733 0.87201 0.98657-0.48900-0.12311-0.02184  0  39.81 346.94  284.83  39.57 346.96  284.77
  -6  -5  -3  3759.4   313.4   1-0.48736-0.27758 0.23441-0.73095-0.84115 0.62343  0  28.37 189.13   34.14  28.47 189.33   34.18
  -6  -5   3  3960.0   332.0   1-0.66152-0.10350-0.18476-0.31196-0.72681 0.94444  0  56.27 107.49   61.21  55.89 107.15   61.23
   6  -5  -3  3768.3   216.8   2 0.13414 0.63091-0.26032-0.23715-0.95616 0.73872  0  20.99 273.84  185.75  20.97 273.46  185.82
   6  -5   3  3523.7   306.3   1-0.11945 0.88545-0.83685 0.33995 0.53424-0.31687  0 112.19 494.80  160.02 111.78 494.98  160.08
   6  -5   3  3874.4   177.4   2 0.08045 0.68471-0.92397 0.42614-0.37391 0.59125  0  28.26 329.93  133.43  27.86 330.17  133.31
   6   5  -3  2924.6   168.3   2-0.10476 0.86944 0.98502-0.48745-0.13698-0.08044  0  27.75 328.29  283.93  27.46 328.19  283.95
  -7   0   0  92.143 143.823   1-0.44621-0.44622 0.30194-0.30194-0.84245 0.84245  0 131.69  40.12   29.50 131.74  39.80   29.65
  -7   0  -1 845.053 179.130   1-0.38126-0.51117 0.39670-0.39670-0.83503 0.76245  0 116.23  55.63   23.02 116.02  55.37   23.04
  -7   0   1 808.328 159.240   1-0.51719-0.37524 0.18093-0.18093-0.83653 0.90910  0 147.43  21.93   37.66 147.43  21.91   37.70
  -7   0  -2 -12.419 154.941   1-0.32456-0.56787 0.47043-0.47043-0.82058 0.67544  0  99.51  68.61   18.37  99.59  69.20   17.65
  -7   0  -3 16990.6   464.6   1-0.27672-0.61571 0.52693-0.52693-0.80360 0.58587  0  82.40  81.34   13.27  82.00  81.51   13.31
  -7   0  -4   9.191 187.849   1-0.23750-0.65493 0.56970-0.56970-0.78679 0.49649  0  62.15  91.81   10.29  62.83  92.63    9.85
  -7  -1   0-143.520 147.638   1-0.47935-0.41308 0.24816-0.34746-0.84181 0.84181  0 113.04  57.44   33.42 112.91  56.96   33.27
  -7   1   0  99.537 140.472   1-0.41251-0.47992 0.35258-0.25328-0.83995 0.83995  0 148.87  18.08   26.51 148.56  19.00   26.16
  -7  -1  -1 696.613 185.790   1-0.42370-0.46873 0.33621-0.43552-0.84109 0.76852  0  99.78  71.95   27.36  99.83  71.79   27.30
  -7  -1   1 700.483 169.600   1-0.53796-0.35447 0.14087-0.24018-0.83112 0.90369  0 125.11  39.53   40.52 125.08  40.15   40.30
  -7   1  -1 644.854 166.398   1-0.33704-0.55539 0.45491-0.35560-0.82430 0.75172  0 129.34  35.64   18.65 129.22  35.85   18.81
  -7  -1  -2  3388.0   311.6   1-0.37334-0.51910 0.40746-0.50677-0.83342 0.68828  0  85.77  85.21   22.04  85.48  85.06   22.27
  -7  -1   2  2914.3   257.4   1-0.59571-0.29672 0.01396-0.11327-0.80308 0.94822  0 136.63  20.78   48.36 136.59  20.95   48.44
  -7   1  -2  3538.9   288.5   1-0.27405-0.61838 0.52994-0.43063-0.80253 0.65739  0 110.43  50.36   13.05 110.09  50.42   13.07
  -7  -1  -3 270.818 194.466   1-0.32942-0.56301 0.46442-0.56373-0.82207 0.60434  0  69.68  97.37   18.40  69.61  97.17   18.10
  -7   1  -3-164.742 159.512   1-0.22294-0.66949 0.58478-0.48547-0.77995 0.56223  0  90.35  62.19    8.68  90.41  63.19    8.59
  -7  -1  -4  1477.6   226.6   1-0.29218-0.60025 0.50888-0.60818-0.80974 0.51944  0  52.12 108.11   15.25  51.83 108.24   14.70
  -7   1  -4  1155.3   232.8   1-0.18247-0.70996 0.62469-0.52538-0.75925 0.46896  0  70.10  74.87    4.97  69.62  74.55    5.12
  -7  -2   0  5491.0   328.6   1-0.51110-0.38133 0.19221-0.39083-0.83776 0.83776  0  91.62  70.93   37.36  91.42  71.17   36.96
  -7  -2  -1  5408.4   314.2   1-0.46374-0.42869 0.27405-0.47266-0.84252 0.76995  0  80.59  85.49   31.49  80.32  85.66   31.53
  -7  -2   1  5522.8   320.9   1-0.55967-0.33276 0.09646-0.29507-0.82308 0.89566  0 101.32  55.17   42.98 100.99  54.99   43.17
  -7   2  -1  5245.3   283.5   1-0.29216-0.60027 0.50890-0.31029-0.80973 0.73715  2 139.60  12.01   14.67 139.62  12.06   14.70
  -7  -2  -2 695.202 205.084   1-0.41958-0.47285 0.34234-0.54095-0.84069 0.69554  0  67.77  98.51   26.68  67.61  98.75   26.87
  -7  -2   2 737.505 185.930   1-0.60640-0.28613-0.01352-0.18517-0.79504 0.94013  0 109.42  37.14   49.95 109.31  36.65   50.19
  -7   2  -2 645.735 180.888   1-0.22315-0.66928 0.58457-0.38596-0.78005 0.63490  0 117.25  27.88    8.52 117.08  27.83    8.61
  -7  -2  -3 -47.243 190.897   1-0.37992-0.51251 0.39853-0.59715-0.83477 0.61704  0  52.76 110.52   22.47  52.99 110.75   22.91
  -7  -2   3 182.925 170.648   1-0.64777-0.24476-0.13469-0.06400-0.74984 0.96747  0 116.66  15.76   57.60 116.47  15.79   57.97
  -7   2  -3 218.550 184.594   1-0.16966-0.72277 0.63671-0.43809-0.75221 0.53449  0  95.38  41.39    4.01  94.94  41.40    4.03
  -7  -3   0 389.398 188.894   1-0.54097-0.35146 0.13488-0.43280-0.83016 0.83016  0  66.02  82.19   40.63  66.48  83.04   40.69
  -7  -3  -1 597.554 204.229   1-0.50093-0.39150 0.21059-0.50852-0.83948 0.76690  0  56.66  96.84   35.57  56.97  97.43   35.75
  -7  -3   1 537.994 203.451   1-0.58116-0.31127 0.04854-0.34646-0.81234 0.88491  0  73.91  67.14   46.13  74.10  67.05   46.23
;
_shelx_hkl_checksum              46345
loop_
_space_group_symop_operation_xyz
'x, y, z'
'-x+1/2, -y, z+1/2'
'-x, y+1/2, -z'
'x+1/2, -y+1/2, -z+1/2'
'-x, -y, -z'
'x-1/2, y, -z-1/2'
'x, -y-1/2, z'
'-x-1/2, y-1/2, z-1/2'
loop_
_atom_site_label
_atom_site_type_symbol
_atom_site_fract_x
_atom_site_fract_y
_atom_site_fract_z
_atom_site_U_iso_or_equiv
_atom_site_adp_type
_atom_site_occupancy
_atom_site_site_symmetry_order
_atom_site_calc_flag
_atom_site_refinement_flags_posn
_atom_site_refinement_flags_adp
_atom_site_refinement_flags_occupancy
O1 O 0.2162(4) 0.0239(4) 0.3340(2) 0.0238(5) Uani 1 1 d . . .
O2 O -0.0055(5) 0.2500 0.0729(3) 0.0212(7) Uani 1 2 d S T P
N1 N 0.1781(5) 0.2500 0.5629(3) 0.0129(7) Uani 1 2 d S T P
P1 P 0.27521(15) 0.2500 0.41894(10) 0.0085(2) Uani 1 2 d S T P
Sr1 Sr 0.34092(5) 0.2500 0.07825(4) 0.01371(14) Uani 1 2 d S T P
Sr2 Sr 0.49361(5) 0.2500 0.69815(4) 0.00925(13) Uani 1 2 d S T P
loop_
_atom_site_aniso_label
_atom_site_aniso_U_11
_atom_site_aniso_U_22
_atom_site_aniso_U_33
_atom_site_aniso_U_23
_atom_site_aniso_U_13
_atom_site_aniso_U_12
O1 0.0248(13) 0.0193(11) 0.0273(12) -0.0088(9) -0.0067(10) 0.0017(10)
O2 0.0103(15) 0.0325(19) 0.0210(16) 0.000 0.0015(12) 0.000
N1 0.0090(16) 0.0226(18) 0.0071(15) 0.000 0.0045(13) 0.000
P1 0.0073(5) 0.0099(4) 0.0083(4) 0.000 -0.0005(4) 0.000
Sr1 0.0093(2) 0.0139(2) 0.0179(2) 0.000 -0.00156(15) 0.000
Sr2 0.0065(2) 0.0130(2) 0.00819(19) 0.000 0.00017(13) 0.000
loop_
_atom_type_symbol
_atom_type_description
_atom_type_scat_dispersion_real
_atom_type_scat_dispersion_imag
_atom_type_scat_source
N N 0.0061 0.0000 'International Tables Vol C Tables 4.2.6.8 and 6.1.1.4'
O O 0.0106 0.0000 'International Tables Vol C Tables 4.2.6.8 and 6.1.1.4'
P P 0.1023 0.0000 'International Tables Vol C Tables 4.2.6.8 and 6.1.1.4'
Sr Sr -1.5307 0.0000 'International Tables Vol C Tables 4.2.6.8 and 6.1.1.4'
loop_
_geom_angle_atom_site_label_1
_geom_angle_atom_site_label_2
_geom_angle_atom_site_label_3
_geom_angle
_geom_angle_site_symmetry_1
_geom_angle_site_symmetry_3
P1 O1 Sr2 158.02(15) . 2_554
P1 O1 Sr2 108.81(12) . 5_656
Sr2 O1 Sr2 93.14(7) 2_554 5_656
P1 O1 Sr1 91.28(10) . 2
Sr2 O1 Sr1 91.96(7) 2_554 2
Sr2 O1 Sr1 84.38(6) 5_656 2
P1 O1 Sr1 91.56(10) . .
Sr2 O1 Sr1 89.38(6) 2_554 .
Sr2 O1 Sr1 84.63(7) 5_656 .
Sr1 O1 Sr1 168.98(9) 2 .
P1 O1 Sr1 75.97(10) . 6_556
Sr2 O1 Sr1 82.97(7) 2_554 6_556
Sr2 O1 Sr1 165.68(9) 5_656 6_556
Sr1 O1 Sr1 82.00(6) 2 6_556
Sr1 O1 Sr1 109.02(7) . 6_556
P1 O2 Sr1 175.8(2) 6_556 .
P1 O2 Sr2 92.79(15) 6_556 6_556
Sr1 O2 Sr2 91.37(11) . 6_556
P1 O2 Sr2 90.41(8) 6_556 2_564
Sr1 O2 Sr2 87.91(7) . 2_564
Sr2 O2 Sr2 113.79(6) 6_556 2_564
P1 O2 Sr2 90.41(8) 6_556 2_554
Sr1 O2 Sr2 87.91(7) . 2_554
Sr2 O2 Sr2 113.79(6) 6_556 2_554
Sr2 O2 Sr2 132.32(12) 2_564 2_554
P1 N1 Sr2 94.29(16) . .
P1 N1 Sr2 176.8(2) . 6_557
Sr2 N1 Sr2 88.89(10) . 6_557
P1 N1 Sr1 86.32(14) . 6_556
Sr2 N1 Sr1 179.39(13) . 6_556
Sr2 N1 Sr1 90.50(10) 6_557 6_556
P1 N1 Sr1 94.01(7) . 2_565
Sr2 N1 Sr1 90.84(7) . 2_565
Sr2 N1 Sr1 85.93(7) 6_557 2_565
Sr1 N1 Sr1 89.12(8) 6_556 2_565
P1 N1 Sr1 94.01(7) . 2
Sr2 N1 Sr1 90.84(7) . 2
Sr2 N1 Sr1 85.93(7) 6_557 2
Sr1 N1 Sr1 89.12(8) 6_556 2
Sr1 N1 Sr1 171.66(14) 2_565 2
O1 P1 O1 106.93(17) . 7_565
O1 P1 O2 107.20(12) . 6_656
O1 P1 O2 107.20(12) 7_565 6_656
O1 P1 N1 110.98(12) . .
O1 P1 N1 110.98(12) 7_565 .
O2 P1 N1 113.24(19) 6_656 .
O1 P1 Sr1 74.68(10) . 6_556
O1 P1 Sr1 74.68(10) 7_565 6_556
O2 P1 Sr1 176.55(13) 6_656 6_556
N1 P1 Sr1 63.31(13) . 6_556
O1 P1 Sr2 126.49(9) . .
O1 P1 Sr2 126.49(9) 7_565 .
O2 P1 Sr2 57.38(13) 6_656 .
N1 P1 Sr2 55.87(13) . .
Sr1 P1 Sr2 119.18(3) 6_556 .
O1 P1 Sr1 149.56(11) . 2_565
O1 P1 Sr1 60.36(9) 7_565 2_565
O2 P1 Sr1 103.11(7) 6_656 2_565
N1 P1 Sr1 57.613(16) . 2_565
Sr1 P1 Sr1 75.19(2) 6_556 2_565
Sr2 P1 Sr1 73.344(19) . 2_565
O1 P1 Sr1 60.36(9) . 2
O1 P1 Sr1 149.56(11) 7_565 2
O2 P1 Sr1 103.11(7) 6_656 2
N1 P1 Sr1 57.613(16) . 2
Sr1 P1 Sr1 75.19(2) 6_556 2
Sr2 P1 Sr1 73.344(19) . 2
Sr1 P1 Sr1 115.19(3) 2_565 2
O1 P1 Sr1 60.75(9) . .
O1 P1 Sr1 60.75(9) 7_565 .
O2 P1 Sr1 84.94(13) 6_656 .
N1 P1 Sr1 161.82(14) . .
Sr1 P1 Sr1 98.51(3) 6_556 .
Sr2 P1 Sr1 142.31(4) . .
Sr1 P1 Sr1 120.242(17) 2_565 .
Sr1 P1 Sr1 120.242(17) 2 .
O1 P1 Sr2 127.10(10) . 5_666
O1 P1 Sr2 45.60(9) 7_565 5_666
O2 P1 Sr2 62.42(5) 6_656 5_666
N1 P1 Sr2 120.79(5) . 5_666
Sr1 P1 Sr2 118.92(2) 6_556 5_666
Sr2 P1 Sr2 92.99(2) . 5_666
Sr1 P1 Sr2 66.072(9) 2_565 5_666
Sr1 P1 Sr2 164.47(4) 2 5_666
Sr1 P1 Sr2 66.566(17) . 5_666
O1 P1 Sr2 45.60(9) . 5_656
O1 P1 Sr2 127.10(10) 7_565 5_656
O2 P1 Sr2 62.42(5) 6_656 5_656
N1 P1 Sr2 120.79(5) . 5_656
Sr1 P1 Sr2 118.92(2) 6_556 5_656
Sr2 P1 Sr2 92.99(2) . 5_656
Sr1 P1 Sr2 164.47(4) 2_565 5_656
Sr1 P1 Sr2 66.072(9) 2 5_656
Sr1 P1 Sr2 66.566(17) . 5_656
Sr2 P1 Sr2 108.35(3) 5_666 5_656
O2 Sr1 N1 148.91(11) . 6_656
O2 Sr1 N1 87.14(7) . 2_554
N1 Sr1 N1 90.88(8) 6_656 2_554
O2 Sr1 N1 87.14(7) . 2_564
N1 Sr1 N1 90.88(8) 6_656 2_564
N1 Sr1 N1 171.66(14) 2_554 2_564
O2 Sr1 O1 80.79(8) . 2_554
N1 Sr1 O1 73.01(7) 6_656 2_554
N1 Sr1 O1 54.36(8) 2_554 2_554
N1 Sr1 O1 118.60(8) 2_564 2_554
O2 Sr1 O1 80.79(8) . 8_665
N1 Sr1 O1 73.01(7) 6_656 8_665
N1 Sr1 O1 118.60(8) 2_554 8_665
N1 Sr1 O1 54.36(8) 2_564 8_665
O1 Sr1 O1 64.29(8) 2_554 8_665
O2 Sr1 O1 73.48(9) . 7_565
N1 Sr1 O1 133.36(7) 6_656 7_565
N1 Sr1 O1 117.26(8) 2_554 7_565
N1 Sr1 O1 66.70(8) 2_564 7_565
O1 Sr1 O1 153.57(2) 2_554 7_565
O1 Sr1 O1 116.111(9) 8_665 7_565
O2 Sr1 O1 73.48(9) . .
N1 Sr1 O1 133.36(7) 6_656 .
N1 Sr1 O1 66.70(8) 2_554 .
N1 Sr1 O1 117.26(8) 2_564 .
O1 Sr1 O1 116.111(9) 2_554 .
O1 Sr1 O1 153.57(2) 8_665 .
O1 Sr1 O1 50.67(8) 7_565 .
O2 Sr1 O1 151.04(6) . 4
N1 Sr1 O1 52.05(7) 6_656 4
N1 Sr1 O1 117.69(8) 2_554 4
N1 Sr1 O1 69.52(8) 2_564 4
O1 Sr1 O1 125.01(4) 2_554 4
O1 Sr1 O1 98.00(6) 8_665 4
O1 Sr1 O1 81.42(5) 7_565 4
O1 Sr1 O1 101.55(5) . 4
O2 Sr1 O1 151.04(6) . 6_656
N1 Sr1 O1 52.05(7) 6_656 6_656
N1 Sr1 O1 69.52(8) 2_554 6_656
N1 Sr1 O1 117.69(8) 2_564 6_656
O1 Sr1 O1 98.00(6) 2_554 6_656
O1 Sr1 O1 125.01(4) 8_665 6_656
O1 Sr1 O1 101.55(5) 7_565 6_656
O1 Sr1 O1 81.42(5) . 6_656
O1 Sr1 O1 48.20(8) 4 6_656
O2 Sr1 P1 179.29(8) . 6_656
N1 Sr1 P1 30.37(7) 6_656 6_656
N1 Sr1 P1 92.82(7) 2_554 6_656
N1 Sr1 P1 92.82(7) 2_564 6_656
O1 Sr1 P1 98.61(5) 2_554 6_656
O1 Sr1 P1 98.61(5) 8_665 6_656
O1 Sr1 P1 107.16(5) 7_565 6_656
O1 Sr1 P1 107.16(5) . 6_656
O1 Sr1 P1 29.35(4) 4 6_656
O1 Sr1 P1 29.35(4) 6_656 6_656
O2 Sr1 P1 74.84(4) . 2_554
N1 Sr1 P1 88.99(4) 6_656 2_554
N1 Sr1 P1 28.37(7) 2_554 2_554
N1 Sr1 P1 143.53(7) 2_564 2_554
O1 Sr1 P1 28.36(4) 2_554 2_554
O1 Sr1 P1 91.05(5) 8_665 2_554
O1 Sr1 P1 133.49(5) 7_565 2_554
O1 Sr1 P1 88.03(4) . 2_554
O1 Sr1 P1 134.05(5) 4 2_554
O1 Sr1 P1 90.33(5) 6_656 2_554
P1 Sr1 P1 104.81(2) 6_656 2_554
O1 Sr2 O1 74.56(10) 2 8_666
O1 Sr2 O1 153.65(5) 2 3_656
O1 Sr2 O1 100.56(8) 8_666 3_656
O1 Sr2 O1 100.56(8) 2 5_656
O1 Sr2 O1 153.65(5) 8_666 5_656
O1 Sr2 O1 72.10(10) 3_656 5_656
O1 Sr2 N1 75.84(8) 2 .
O1 Sr2 N1 75.84(8) 8_666 .
O1 Sr2 N1 128.85(6) 3_656 .
O1 Sr2 N1 128.85(6) 5_656 .
O1 Sr2 O2 122.00(8) 2 6_656
O1 Sr2 O2 122.00(7) 8_666 6_656
O1 Sr2 O2 82.91(8) 3_656 6_656
O1 Sr2 O2 82.91(8) 5_656 6_656
N1 Sr2 O2 59.67(10) . 6_656
O1 Sr2 N1 80.28(8) 2 6_657
O1 Sr2 N1 80.28(8) 8_666 6_657
O1 Sr2 N1 73.38(8) 3_656 6_657
O1 Sr2 N1 73.38(8) 5_656 6_657
N1 Sr2 N1 149.84(11) . 6_657
O2 Sr2 N1 150.49(11) 6_656 6_657
O1 Sr2 O2 71.07(8) 2 2
O1 Sr2 O2 141.60(8) 8_666 2
O1 Sr2 O2 117.84(8) 3_656 2
O1 Sr2 O2 52.45(8) 5_656 2
N1 Sr2 O2 79.60(7) . 2
O2 Sr2 O2 66.22(6) 6_656 2
N1 Sr2 O2 109.74(6) 6_657 2
O1 Sr2 O2 141.60(8) 2 2_565
O1 Sr2 O2 71.07(8) 8_666 2_565
O1 Sr2 O2 52.45(8) 3_656 2_565
O1 Sr2 O2 117.84(8) 5_656 2_565
N1 Sr2 O2 79.60(7) . 2_565
O2 Sr2 O2 66.22(6) 6_656 2_565
N1 Sr2 O2 109.74(6) 6_657 2_565
O2 Sr2 O2 132.32(12) 2 2_565
O1 Sr2 P1 99.47(6) 2 .
O1 Sr2 P1 99.47(6) 8_666 .
O1 Sr2 P1 106.88(5) 3_656 .
O1 Sr2 P1 106.88(5) 5_656 .
N1 Sr2 P1 29.84(7) . .
O2 Sr2 P1 29.83(7) 6_656 .
N1 Sr2 P1 179.68(8) 6_657 .
O2 Sr2 P1 70.33(6) 2 .
O2 Sr2 P1 70.33(6) 2_565 .
O1 Sr2 P1 162.47(5) 2 5_666
O1 Sr2 P1 88.36(5) 8_666 5_666
O1 Sr2 P1 25.59(5) 3_656 5_666
O1 Sr2 P1 93.00(6) 5_656 5_666
N1 Sr2 P1 104.17(4) . 5_666
O2 Sr2 P1 70.41(4) 6_656 5_666
N1 Sr2 P1 93.18(5) 6_657 5_666
O2 Sr2 P1 126.41(6) 2 5_666
O2 Sr2 P1 27.17(6) 2_565 5_666
P1 Sr2 P1 87.01(2) . 5_666
O1 Sr2 P1 88.36(5) 2 5_656
O1 Sr2 P1 162.47(5) 8_666 5_656
O1 Sr2 P1 93.00(6) 3_656 5_656
O1 Sr2 P1 25.59(5) 5_656 5_656
N1 Sr2 P1 104.17(4) . 5_656
O2 Sr2 P1 70.41(4) 6_656 5_656
N1 Sr2 P1 93.18(5) 6_657 5_656
O2 Sr2 P1 27.17(6) 2 5_656
O2 Sr2 P1 126.41(6) 2_565 5_656
P1 Sr2 P1 87.01(2) . 5_656
P1 Sr2 P1 108.35(3) 5_666 5_656
loop_
_geom_bond_atom_site_label_1
_geom_bond_atom_site_label_2
_geom_bond_distance
_geom_bond_site_symmetry_2
O1 P1 1.569(2) .
O1 Sr2 2.523(2) 2_554
O1 Sr2 2.596(2) 5_656
O1 Sr1 2.872(2) 2
O1 Sr1 2.947(2) .
O1 Sr1 3.088(2) 6_556
O2 P1 1.571(3) 6_556
O2 Sr1 2.478(3) .
O2 Sr2 2.659(3) 6_556
O2 Sr2 3.0491(14) 2_564
O2 Sr2 3.0491(14) 2_554
N1 P1 1.574(3) .
N1 Sr2 2.618(4) .
N1 Sr2 2.691(3) 6_557
N1 Sr1 2.781(4) 6_556
N1 Sr1 2.7963(3) 2_565
N1 Sr1 2.7963(3) 2
P1 O1 1.569(2) 7_565
P1 O2 1.571(3) 6_656
P1 Sr1 3.1061(11) 6_556
P1 Sr2 3.1539(11) .
P1 Sr1 3.3033(6) 2_565
P1 Sr1 3.3033(6) 2
P1 Sr1 3.3761(11) .
P1 Sr2 3.4398(7) 5_666
P1 Sr2 3.4398(7) 5_656
Sr1 N1 2.781(4) 6_656
Sr1 N1 2.7963(3) 2_554
Sr1 N1 2.7963(3) 2_564
Sr1 O1 2.872(2) 2_554
Sr1 O1 2.872(2) 8_665
Sr1 O1 2.947(2) 7_565
Sr1 O1 3.088(2) 4
Sr1 O1 3.088(2) 6_656
Sr1 P1 3.1061(12) 6_656
Sr1 P1 3.3033(6) 2_554
Sr2 O1 2.523(2) 2
Sr2 O1 2.523(2) 8_666
Sr2 O1 2.596(2) 3_656
Sr2 O1 2.596(2) 5_656
Sr2 O2 2.659(3) 6_656
Sr2 N1 2.691(3) 6_657
Sr2 O2 3.0491(14) 2
Sr2 O2 3.0491(14) 2_565
Sr2 P1 3.4397(7) 5_666
Sr2 P1 3.4397(7) 5_656
