#------------------------------------------------------------------------------
#$Date: 2016-02-04 03:21:14 +0200 (Thu, 04 Feb 2016) $
#$Revision: 175665 $
#$URL: svn://www.crystallography.net/cod/cif/4/34/48/4344836.cif $
#------------------------------------------------------------------------------
#
# This file is available in the Crystallography Open Database (COD),
# http://www.crystallography.net/
#
# All data on this site have been placed in the public domain by the
# contributors.
#
data_4344836
loop_
_publ_author_name
'Owarzany, Rafa\/l'
'Fijalkowski, Karol J.'
'Jaro\'n, Tomasz'
'Leszczy\'nski, Piotr J'
'Dobrzycki, \/Lukasz'
'Cyra\'nski, Micha\/l K'
'Grochala, Wojciech'
_publ_section_title
;
 Complete Series of Alkali-Metal M(BH3NH2BH2NH2BH3) Hydrogen-Storage Salts
 Accessed via Metathesis in Organic Solvents.
;
_journal_issue                   1
_journal_name_full               'Inorganic chemistry'
_journal_page_first              37
_journal_paper_doi               10.1021/acs.inorgchem.5b01688
_journal_volume                  55
_journal_year                    2015
_chemical_formula_moiety         'B3 H12 N2, Rb'
_chemical_formula_sum            'B3 H12 N2 Rb'
_chemical_formula_weight         158.02
_chemical_name_systematic        ' ?'
_space_group_IT_number           14
_symmetry_cell_setting           monoclinic
_symmetry_Int_Tables_number      14
_symmetry_space_group_name_Hall  '-P 2ybc'
_symmetry_space_group_name_H-M   'P 1 21/c 1'
_cell_angle_alpha                90
_cell_angle_beta                 97.304(5)
_cell_angle_gamma                90
_cell_formula_units_Z            4
_cell_length_a                   7.5748(12)
_cell_length_b                   4.7269(7)
_cell_length_c                   19.629(3)
_cell_measurement_temperature    298
_cell_volume                     697.12(19)
_diffrn_ambient_temperature      298
_diffrn_detector                 one-dimensional
_diffrn_detector_type            LYNXEYE
_diffrn_measurement_device_type  'Bruker D8 Discover'
_diffrn_radiation_monochromator  none
_diffrn_radiation_probe          x-ray
_diffrn_radiation_type           'Cu K\a'
_diffrn_radiation_wavelength     1.5418
_exptl_absorpt_coefficient_mu    8.766
_exptl_crystal_density_diffrn    1.5055
_exptl_crystal_F_000             216
_pd_char_colour                  white
_pd_instr_location               ' ?'
_pd_meas_2theta_range_inc        0.014
_pd_meas_2theta_range_max        119.995
_pd_meas_2theta_range_min        8.010
_pd_meas_number_of_points        7820
_pd_meas_scan_method             cont
_pd_prep_temperature             298
_pd_proc_2theta_range_inc        0.014
_pd_proc_2theta_range_max        119.995
_pd_proc_2theta_range_min        8.01
_pd_proc_ls_background_function  '36 Legendre polynoms'
_pd_proc_ls_pref_orient_corr     none
_pd_proc_ls_profile_function     Pseudo-Voigt
_pd_proc_ls_prof_R_factor        0.0114
_pd_proc_ls_prof_wR_expected     0.0132
_pd_proc_ls_prof_wR_factor       0.0156
_pd_spec_mounting                'quartz capillary'
_pd_spec_mount_mode              transmission
_pd_spec_shape                   cylinder
_pd_spec_size_axial              18
_pd_spec_size_equat              0.3
_refine_ls_goodness_of_fit_all   1.18
_refine_ls_hydrogen_treatment    constr
_refine_ls_number_constraints    0
_refine_ls_number_parameters     92
_refine_ls_number_restraints     3
_refine_ls_R_factor_all          0.0294
_refine_ls_R_factor_gt           0.0294
_refine_ls_shift/su_max          0.0460
_refine_ls_shift/su_mean         0.0032
_refine_ls_weighting_scheme      sigma
_refine_ls_wR_factor_all         0.0326
_refine_ls_wR_factor_gt          0.0326
_cod_data_source_file            ic5b01688_si_003.cif
_cod_data_source_block           I
_cod_original_sg_symbol_H-M      'P 21/c'
_cod_original_formula_sum        'B3 H12 N2 Rb1'
_cod_database_code               4344836
loop_
_space_group_symop_id
_space_group_symop_operation_xyz
1 x,y,z
2 -x,y+1/2,-z+1/2
3 -x,-y,-z
4 x,-y+1/2,z+1/2
loop_
_atom_site_label
_atom_site_type_symbol
_atom_site_fract_x
_atom_site_fract_y
_atom_site_fract_z
_atom_site_adp_type
_atom_site_U_iso_or_equiv
_atom_site_site_symmetry_multiplicity
_atom_site_occupancy
_atom_site_calc_flag
Rb1 Rb 0.9736(4) 0.3347(5) 0.37122(19) Uani 0.0437(13) 4 1 d
B1 B 0.268(2) 0.334(5) 0.5120(10) Uiso 0.068(11) 4 1 d
N1 N 0.4268(15) 0.192(3) 0.5639(8) Uiso 0.018(6) 4 1 d
B2 B 0.405(2) 0.235(4) 0.6433(9) Uiso 0.012(8) 4 1 d
N2 N 0.558(2) 0.049(3) 0.6860(6) Uiso 0.040(7) 4 1 d
B3 B 0.7572(18) 0.194(4) 0.6909(12) Uiso 0.040(9) 4 1 d
H1 H 0.279887 0.565798 0.514628 Uiso 0.1013 4 1 d
H2 H 0.138858 0.269488 0.526917 Uiso 0.1013 4 1 d
H3 H 0.277798 0.262868 0.459279 Uiso 0.1013 4 1 d
H4 H 0.433494 0.006536 0.554732 Uiso 0.022 4 1 d
H5 H 0.532017 0.264221 0.555574 Uiso 0.022 4 1 d
H6 H 0.424735 0.459277 0.657057 Uiso 0.014 4 1 d
H7 H 0.273828 0.156788 0.652946 Uiso 0.014 4 1 d
H8 H 0.560002 -0.123776 0.667143 Uiso 0.0482 4 1 d
H9 H 0.529521 0.019821 0.728671 Uiso 0.0482 4 1 d
H10 H 0.779869 0.32864 0.736862 Uiso 0.0604 4 1 d
H11 H 0.766065 0.322973 0.644837 Uiso 0.0604 4 1 d
H12 H 0.858629 0.02621 0.694233 Uiso 0.0604 4 1 d
loop_
_atom_site_aniso_label
_atom_site_aniso_type_symbol
_atom_site_aniso_U_11
_atom_site_aniso_U_22
_atom_site_aniso_U_33
_atom_site_aniso_U_12
_atom_site_aniso_U_13
_atom_site_aniso_U_23
Rb1 Rb 0.026(2) 0.058(2) 0.045(2) -0.003(3) -0.0031(14) -0.004(3)
loop_
_atom_type_symbol
_atom_type_scat_dispersion_real
_atom_type_scat_dispersion_imag
_atom_type_scat_source
_atom_type_scat_Cromer_Mann_a1
_atom_type_scat_Cromer_Mann_b1
_atom_type_scat_Cromer_Mann_a2
_atom_type_scat_Cromer_Mann_b2
_atom_type_scat_Cromer_Mann_a3
_atom_type_scat_Cromer_Mann_b3
_atom_type_scat_Cromer_Mann_a4
_atom_type_scat_Cromer_Mann_b4
_atom_type_scat_Cromer_Mann_c
B 0.0090 0.0039 'International Tables Vol C tables 4.2.6.8 and 6.1.1.4' 2.0545
23.2185 1.3326 1.021 1.0979 60.3498 0.7068 0.1403 -0.1932
H 0.0000 0.0000 'International Tables Vol C tables 4.2.6.8 and 6.1.1.4'
0.493002 10.5109 0.322912 26.1257 0.140191 3.14236 0.04081 57.799702 0.003038
N 0.0311 0.0180 'International Tables Vol C tables 4.2.6.8 and 6.1.1.4' 12.2126
0.0057 3.1322 9.8933 2.0125 28.997499 1.1663 0.5826 -11.529
Rb -0.4688 1.6079 'International Tables Vol C tables 4.2.6.8 and 6.1.1.4'
17.1784 1.7888 9.6435 17.3151 5.1399 0.2748 1.5292 164.934006 3.4873
loop_
_geom_angle_atom_site_label_1
_geom_angle_atom_site_label_2
_geom_angle_atom_site_label_3
_geom_angle
H4 N1 H5 104.94
H8 N2 H9 105.16
loop_
_geom_bond_atom_site_label_1
_geom_bond_atom_site_label_2
_geom_bond_distance
N1 H4 0.9
N1 H5 0.9
N2 H8 0.9
N2 H9 0.9
loop_
_pd_proc_point_id
_pd_proc_2theta_corrected
_pd_proc_intensity_net
_pd_calc_intensity_net
_pd_proc_ls_weight
1 8.0054 29295.00 28896.50 171.16
2 8.0197 29258.00 28891.30 171.05
3 8.0340 28861.00 28883.50 169.88
4 8.0484 28870.00 28873.30 169.91
5 8.0627 28733.00 28860.90 169.51
6 8.0770 29041.00 28846.40 170.41
7 8.0913 28944.00 28830.00 170.13
8 8.1057 28843.00 28811.50 169.83
9 8.1200 28801.00 28791.50 169.71
10 8.1343 28844.00 28769.70 169.84
11 8.1486 28643.00 28746.50 169.24
12 8.1629 28918.00 28721.80 170.05
13 8.1773 28506.00 28695.60 168.84
14 8.1916 28533.00 28668.20 168.92
15 8.2059 28712.00 28639.80 169.45
16 8.2202 28411.00 28610.20 168.56
17 8.2346 28464.00 28579.40 168.71
18 8.2489 28604.00 28547.90 169.13
19 8.2632 28462.00 28515.60 168.71
20 8.2775 28362.00 28482.40 168.41
21 8.2918 28267.00 28448.50 168.13
22 8.3062 28289.00 28413.80 168.19
23 8.3205 28506.00 28378.60 168.84
24 8.3348 28403.00 28342.90 168.53
25 8.3491 28273.00 28306.80 168.15
26 8.3635 28032.00 28269.90 167.43
27 8.3778 28196.00 28232.90 167.92
28 8.3921 27885.00 28195.60 166.99
29 8.4064 28008.00 28158.00 167.36
30 8.4207 27825.00 28120.20 166.81
31 8.4351 27936.00 28081.80 167.14
32 8.4494 28062.00 28043.60 167.52
33 8.4637 27674.00 28005.20 166.35
34 8.4780 27932.00 27966.80 167.13
35 8.4924 28096.00 27927.90 167.62
36 8.5067 27816.00 27889.40 166.78
37 8.5210 27885.00 27850.80 166.99
38 8.5353 27497.00 27812.20 165.82
39 8.5496 28072.00 27773.70 167.55
40 8.5640 27970.00 27735.00 167.24
41 8.5783 27569.00 27696.60 166.04
42 8.5926 27461.00 27658.40 165.71
43 8.6069 27484.00 27620.30 165.78
44 8.6212 27482.00 27582.40 165.78
45 8.6356 27749.00 27544.40 166.58
46 8.6499 27437.00 27506.80 165.64
47 8.6642 27266.00 27469.50 165.12
48 8.6785 27165.00 27432.40 164.82
49 8.6929 27280.00 27395.30 165.17
50 8.7072 27454.00 27358.80 165.69
51 8.7215 27290.00 27322.50 165.20
52 8.7358 27274.00 27286.50 165.15
53 8.7501 27281.00 27250.90 165.17
54 8.7645 27308.00 27215.30 165.25
55 8.7788 27139.00 27180.30 164.74
56 8.7931 26977.00 27145.70 164.25
57 8.8074 27058.00 27111.50 164.49
58 8.8218 27069.00 27077.50 164.53
59 8.8361 27660.00 27044.20 166.31
60 8.8504 26976.00 27011.50 164.24
61 8.8647 27085.00 26979.40 164.57
62 8.8790 27209.00 26948.00 164.95
63 8.8934 27254.00 26917.30 165.09
64 8.9077 26697.00 26888.00 163.39
65 8.9220 26871.00 26859.90 163.92
66 8.9363 26940.00 26833.20 164.13
67 8.9507 26764.00 26808.10 163.60
68 8.9650 26886.00 26784.90 163.97
69 8.9793 26755.00 26763.40 163.57
70 8.9936 26771.00 26743.50 163.62
71 9.0079 26959.00 26724.60 164.19
72 9.0223 26700.00 26705.70 163.40
73 9.0366 26773.00 26686.10 163.62
74 9.0509 26708.00 26663.80 163.43
75 9.0652 26842.00 26637.40 163.84
76 9.0796 26700.00 26605.50 163.40
77 9.0939 26588.00 26568.60 163.06
78 9.1082 26377.00 26527.60 162.41
79 9.1225 27122.00 26484.40 164.69
80 9.1368 26638.00 26441.00 163.21
81 9.1512 26463.00 26398.40 162.68
82 9.1655 26230.00 26357.90 161.96
83 9.1798 26251.00 26319.50 162.02
84 9.1941 25882.00 26283.00 160.88
85 9.2085 26430.00 26247.90 162.57
86 9.2228 26423.00 26214.70 162.55
87 9.2371 26218.00 26182.60 161.92
88 9.2514 26208.00 26151.70 161.89
89 9.2657 26154.00 26121.60 161.72
90 9.2801 26362.00 26092.00 162.36
91 9.2944 26249.00 26063.20 162.01
92 9.3087 26010.00 26035.00 161.28
93 9.3230 26099.00 26007.10 161.55
94 9.3374 25905.00 25979.40 160.95
95 9.3517 25854.00 25952.20 160.79
96 9.3660 25954.00 25925.30 161.10
97 9.3803 25884.00 25898.50 160.88
98 9.3946 25921.00 25872.00 161.00
99 9.4090 26164.00 25845.40 161.75
100 9.4233 26107.00 25819.20 161.58
101 9.4376 25966.00 25793.10 161.14
102 9.4519 25824.00 25767.20 160.70
103 9.4663 25790.00 25741.10 160.59
104 9.4806 26047.00 25715.40 161.39
105 9.4949 25904.00 25689.70 160.95
106 9.5092 25764.00 25664.10 160.51
107 9.5235 25968.00 25638.60 161.15
108 9.5379 25758.00 25613.00 160.49
109 9.5522 25467.00 25587.60 159.58
110 9.5665 25505.00 25562.30 159.70
111 9.5808 25371.00 25537.00 159.28
112 9.5952 25278.00 25511.70 158.99
113 9.6095 25672.00 25486.50 160.23
114 9.6238 25194.00 25461.40 158.73
115 9.6381 25180.00 25436.30 158.68
116 9.6524 25469.00 25411.30 159.59
117 9.6668 25138.00 25386.10 158.55
118 9.6811 25527.00 25361.10 159.77
119 9.6954 25244.00 25336.10 158.88
120 9.7097 25083.00 25311.10 158.38
121 9.7241 25238.00 25286.00 158.87
122 9.7384 25094.00 25261.10 158.41
123 9.7527 25542.00 25236.20 159.82
124 9.7670 25461.00 25211.20 159.57
125 9.7813 24824.00 25186.30 157.56
126 9.7957 25222.00 25161.20 158.81
127 9.8100 24994.00 25136.20 158.10
128 9.8243 25278.00 25111.20 158.99
129 9.8386 25104.00 25086.20 158.44
130 9.8530 25271.00 25061.00 158.97
131 9.8673 24767.00 25036.00 157.38
132 9.8816 24712.00 25010.90 157.20
133 9.8959 24805.00 24985.80 157.50
134 9.9102 25187.00 24960.70 158.70
135 9.9246 25031.00 24935.40 158.21
136 9.9389 24959.00 24910.20 157.98
137 9.9532 24651.00 24885.00 157.01
138 9.9675 24961.00 24859.70 157.99
139 9.9819 24753.00 24834.20 157.33
140 9.9962 24718.00 24808.80 157.22
141 10.0105 24558.00 24783.40 156.71
142 10.0248 24773.00 24758.00 157.39
143 10.0391 24859.00 24732.50 157.67
144 10.0535 24512.00 24706.80 156.56
145 10.0678 24600.00 24681.20 156.84
146 10.0821 24740.00 24655.50 157.29
147 10.0964 24714.00 24629.80 157.21
148 10.1108 24445.00 24603.90 156.35
149 10.1251 24699.00 24578.10 157.16
150 10.1394 24439.00 24552.20 156.33
151 10.1537 24633.00 24526.30 156.95
152 10.1680 24888.00 24500.30 157.76
153 10.1824 24173.00 24474.10 155.48
154 10.1967 24081.00 24448.00 155.18
155 10.2110 24290.00 24421.80 155.85
156 10.2253 24460.00 24395.60 156.40
157 10.2397 24248.00 24369.20 155.72
158 10.2540 24350.00 24342.90 156.04
159 10.2683 24272.00 24316.50 155.79
160 10.2826 24423.00 24290.10 156.28
161 10.2969 24334.00 24263.60 155.99
162 10.3113 24103.00 24236.80 155.25
163 10.3256 23989.00 24210.20 154.88
164 10.3399 24109.00 24183.60 155.27
165 10.3542 23955.00 24156.90 154.77
166 10.3686 24003.00 24129.90 154.93
167 10.3829 23919.00 24103.10 154.66
168 10.3972 23780.00 24076.20 154.21
169 10.4115 24062.00 24049.30 155.12
170 10.4258 24009.00 24022.40 154.95
171 10.4402 23947.00 23995.20 154.75
172 10.4545 24336.00 23968.10 156.00
173 10.4688 23836.00 23941.00 154.39
174 10.4831 24017.00 23913.80 154.97
175 10.4974 23791.00 23886.60 154.24
176 10.5118 23645.00 23859.20 153.77
177 10.5261 23466.00 23831.60 153.19
178 10.5404 23646.00 23804.20 153.77
179 10.5547 23894.00 23776.80 154.58
180 10.5691 23540.00 23749.20 153.43
181 10.5834 23763.00 23721.80 154.15
182 10.5977 23411.00 23694.30 153.01
183 10.6120 23553.00 23666.80 153.47
184 10.6263 23486.00 23639.20 153.25
185 10.6407 23537.00 23611.40 153.42
186 10.6550 23577.00 23583.80 153.55
187 10.6693 23629.00 23556.20 153.72
188 10.6836 23262.00 23528.50 152.52
189 10.6980 23517.00 23515.30 153.35
190 10.7123 23283.00 23488.00 152.59
191 10.7266 23528.00 23467.90 153.39
192 10.7409 23239.00 23440.80 152.44
193 10.7552 23555.00 23413.60 153.48
194 10.7696 23337.00 23386.30 152.76
195 10.7839 23321.00 23359.20 152.71
196 10.7982 23505.00 23332.10 153.31
197 10.8125 23447.00 23305.10 153.12
198 10.8269 23360.00 23277.80 152.84
199 10.8412 23230.00 23250.80 152.41
200 10.8555 22950.00 23223.80 151.49
201 10.8698 23383.00 23196.90 152.91
202 10.8841 23418.00 23170.00 153.03
203 10.8985 23052.00 23142.90 151.83
204 10.9128 23238.00 23116.10 152.44
205 10.9271 23400.00 23089.40 152.97
206 10.9414 23101.00 23062.70 151.99
207 10.9558 23103.00 23035.90 152.00
208 10.9701 22902.00 23009.30 151.33
209 10.9844 23011.00 22982.80 151.69
210 10.9987 22959.00 22956.40 151.52
211 11.0130 22849.00 22930.10 151.16
212 11.0274 22847.00 22903.80 151.15
213 11.0417 22781.00 22877.70 150.93
214 11.0560 22763.00 22851.70 150.87
215 11.0703 22778.00 22825.90 150.92
216 11.0847 22660.00 22800.00 150.53
217 11.0990 22735.00 22774.50 150.78
218 11.1133 22805.00 22749.10 151.01
219 11.1276 22623.00 22723.90 150.41
220 11.1419 22588.00 22698.90 150.29
221 11.1563 22544.00 22673.90 150.15
222 11.1706 22680.00 22649.40 150.60
223 11.1849 22645.00 22625.00 150.48
224 11.1992 22523.00 22601.00 150.08
225 11.2136 22667.00 22577.10 150.56
226 11.2279 22648.00 22553.70 150.49
227 11.2422 22460.00 22530.60 149.87
228 11.2565 22714.00 22508.00 150.71
229 11.2708 22263.00 22485.80 149.21
230 11.2852 22597.00 22463.90 150.32
231 11.2995 22533.00 22442.80 150.11
232 11.3138 22582.00 22422.20 150.27
233 11.3281 22467.00 22402.40 149.89
234 11.3425 22354.00 22383.30 149.51
235 11.3568 22507.00 22365.30 150.02
236 11.3711 22165.00 22348.40 148.88
237 11.3854 22245.00 22332.90 149.15
238 11.3997 22442.00 22319.10 149.81
239 11.4141 22544.00 22307.20 150.15
240 11.4284 22202.00 22297.80 149.00
241 11.4427 22167.00 22291.50 148.89
242 11.4570 22099.00 22288.80 148.66
243 11.4714 22314.00 22290.40 149.38
244 11.4857 22170.00 22297.10 148.90
245 11.5000 22375.00 22309.70 149.58
246 11.5143 22505.00 22329.10 150.02
247 11.5286 22223.00 22356.40 149.07
248 11.5430 22595.00 22393.20 150.32
249 11.5573 22609.00 22441.50 150.36
250 11.5716 22536.00 22505.60 150.12
251 11.5859 22826.00 22592.70 151.08
252 11.6003 22666.00 22716.00 150.55
253 11.6146 23340.00 22893.30 152.77
254 11.6289 23235.00 23153.60 152.43
255 11.6432 23669.00 23534.70 153.85
256 11.6575 24495.00 24081.00 156.51
257 11.6719 24614.00 24841.70 156.89
258 11.6862 26146.00 25833.90 161.70
259 11.7005 26885.00 27054.60 163.97
260 11.7148 28196.00 28440.90 167.92
261 11.7292 29891.00 29866.40 172.89
262 11.7435 30961.00 31094.40 175.96
263 11.7578 32175.00 31870.30 179.37
264 11.7721 32188.00 31978.70 179.41
265 11.7864 31639.00 31379.70 177.87
266 11.8008 30129.00 30220.80 173.58
267 11.8151 28670.00 28778.50 169.32
268 11.8294 27276.00 27297.60 165.15
269 11.8437 25483.00 25951.00 159.63
270 11.8581 24671.00 24811.20 157.07
271 11.8724 23713.00 23908.30 153.99
272 11.8867 23276.00 23214.00 152.57
273 11.9010 22813.00 22695.40 151.04
274 11.9153 22329.00 22316.40 149.43
275 11.9297 22307.00 22041.10 149.35
276 11.9440 21880.00 21843.90 147.92
277 11.9583 21886.00 21699.30 147.94
278 11.9726 21550.00 21590.50 146.80
279 11.9870 21747.00 21504.90 147.47
280 12.0013 21493.00 21435.80 146.60
281 12.0156 21099.00 21377.40 145.26
282 12.0299 21441.00 21326.10 146.43
283 12.0442 21367.00 21279.60 146.18
284 12.0586 21202.00 21236.00 145.61
285 12.0729 21316.00 21194.90 146.00
286 12.0872 21144.00 21155.30 145.41
287 12.1015 21225.00 21116.90 145.69
288 12.1159 21203.00 21079.20 145.61
289 12.1302 21278.00 21042.60 145.87
290 12.1445 21026.00 21006.90 145.00
291 12.1588 20762.00 20972.00 144.09
292 12.1731 20837.00 20938.00 144.35
293 12.1875 21114.00 20904.70 145.31
294 12.2018 20803.00 20872.30 144.23
295 12.2161 20737.00 20840.80 144.00
296 12.2304 20725.00 20810.10 143.96
297 12.2448 20581.00 20779.80 143.46
298 12.2591 20721.00 20750.40 143.95
299 12.2734 20766.00 20721.60 144.10
300 12.2877 20836.00 20693.30 144.35
301 12.3020 20756.00 20665.50 144.07
302 12.3164 20826.00 20638.00 144.31
303 12.3307 20739.00 20611.10 144.01
304 12.3450 20472.00 20584.60 143.08
305 12.3593 20673.00 20558.50 143.78
306 12.3736 20764.00 20532.60 144.10
307 12.3880 20444.00 20506.90 142.98
308 12.4023 20624.00 20481.70 143.61
309 12.4166 20486.00 20456.70 143.13
310 12.4309 20398.00 20431.90 142.82
311 12.4453 20689.00 20407.30 143.84
312 12.4596 20374.00 20383.00 142.74
313 12.4739 20276.00 20358.90 142.39
314 12.4882 20156.00 20334.90 141.97
315 12.5025 20329.00 20311.20 142.58
316 12.5169 20342.00 20287.50 142.62
317 12.5312 20282.00 20264.10 142.41
318 12.5455 20464.00 20240.90 143.05
319 12.5598 20543.00 20217.80 143.33
320 12.5742 20638.00 20194.60 143.66
321 12.5885 20317.00 20171.80 142.54
322 12.6028 20293.00 20149.10 142.45
323 12.6171 20286.00 20126.50 142.43
324 12.6314 20072.00 20104.10 141.68
325 12.6458 20050.00 20082.40 141.60
326 12.6601 20092.00 20060.20 141.75
327 12.6744 20032.00 20038.50 141.53
328 12.6887 19970.00 20016.50 141.32
329 12.7031 20181.00 19994.40 142.06
330 12.7174 19797.00 19972.60 140.70
331 12.7317 20212.00 19950.90 142.17
332 12.7460 20053.00 19929.20 141.61
333 12.7603 19868.00 19907.70 140.95
334 12.7747 19965.00 19886.00 141.30
335 12.7890 20004.00 19864.60 141.44
336 12.8033 19834.00 19843.30 140.83
337 12.8176 19730.00 19822.00 140.46
338 12.8320 19792.00 19800.70 140.68
339 12.8463 19824.00 19779.60 140.80
340 12.8606 19514.00 19744.40 139.69
341 12.8749 19987.00 19723.80 141.38
342 12.8892 19685.00 19696.20 140.30
343 12.9036 19847.00 19675.70 140.88
344 12.9179 19473.00 19655.40 139.55
345 12.9322 19831.00 19635.20 140.82
346 12.9465 19527.00 19615.00 139.74
347 12.9609 19664.00 19594.60 140.23
348 12.9752 19865.00 19574.50 140.94
349 12.9895 19718.00 19554.40 140.42
350 13.0038 19391.00 19534.40 139.25
351 13.0181 19584.00 19514.30 139.94
352 13.0325 19513.00 19494.20 139.69
353 13.0468 19490.00 19474.30 139.61
354 13.0611 19441.00 19454.30 139.43
355 13.0754 19561.00 19434.50 139.86
356 13.0898 19228.00 19414.50 138.66
357 13.1041 19432.00 19394.70 139.40
358 13.1184 19466.00 19374.90 139.52
359 13.1327 19490.00 19355.20 139.61
360 13.1470 19367.00 19335.50 139.16
361 13.1614 19262.00 19315.70 138.79
362 13.1757 19393.00 19296.10 139.26
363 13.1900 19097.00 19276.50 138.19
364 13.2043 19254.00 19256.90 138.76
365 13.2187 19315.00 19237.30 138.98
366 13.2330 19169.00 19217.80 138.45
367 13.2473 19229.00 19198.30 138.67
368 13.2616 19164.00 19178.90 138.43
369 13.2759 19135.00 19159.50 138.33
370 13.2903 18964.00 19140.00 137.71
371 13.3046 19263.00 19120.70 138.79
372 13.3189 19045.00 19101.40 138.00
373 13.3332 19072.00 19082.20 138.10
374 13.3476 19138.00 19062.80 138.34
375 13.3619 19040.00 19043.70 137.99
376 13.3762 19103.00 19024.50 138.21
377 13.3905 18884.00 19005.50 137.42
378 13.4048 18908.00 18986.40 137.51
379 13.4192 18963.00 18967.30 137.71
380 13.4335 18949.00 18948.40 137.65
381 13.4478 18963.00 18929.60 137.71
382 13.4621 18811.00 18910.80 137.15
383 13.4765 18797.00 18891.90 137.10
384 13.4908 18795.00 18873.30 137.10
385 13.5051 18744.00 18854.80 136.91
386 13.5194 18750.00 18836.40 136.93
387 13.5337 18783.00 18818.10 137.05
388 13.5481 18690.00 18799.90 136.71
389 13.5624 18386.00 18781.90 135.60
390 13.5767 18751.00 18764.20 136.93
391 13.5910 18791.00 18746.70 137.08
392 13.6054 18775.00 18729.30 137.02
393 13.6197 18730.00 18712.30 136.86
394 13.6340 18448.00 18695.70 135.82
395 13.6483 18585.00 18679.40 136.33
396 13.6626 18619.00 18663.50 136.45
397 13.6770 18554.00 18647.90 136.21
398 13.6913 18556.00 18633.00 136.22
399 13.7056 18686.00 18618.90 136.70
400 13.7199 18740.00 18605.70 136.89
401 13.7343 18563.00 18593.80 136.25
402 13.7486 18449.00 18583.90 135.83
403 13.7629 18328.00 18576.60 135.38
404 13.7772 18327.00 18572.80 135.38
405 13.7915 18616.00 18573.70 136.44
406 13.8059 18536.00 18580.40 136.15
407 13.8202 18745.00 18593.80 136.91
408 13.8345 18653.00 18614.80 136.58
409 13.8488 18377.00 18643.30 135.56
410 13.8632 18498.00 18678.40 136.01
411 13.8775 18882.00 18716.70 137.41
412 13.8918 18458.00 18753.70 135.86
413 13.9061 18533.00 18782.30 136.14
414 13.9204 18582.00 18794.20 136.32
415 13.9348 18970.00 18782.80 137.73
416 13.9491 18781.00 18746.40 137.04
417 13.9634 18747.00 18688.70 136.92
418 13.9777 18426.00 18616.90 135.74
419 13.9921 18396.00 18538.50 135.63
420 14.0064 18404.00 18461.50 135.66
421 14.0207 18308.00 18389.90 135.31
422 14.0350 18100.00 18325.60 134.54
423 14.0493 17963.00 18269.10 134.03
424 14.0637 18261.00 18219.40 135.13
425 14.0780 18075.00 18176.40 134.44
426 14.0923 18041.00 18138.70 134.32
427 14.1066 18058.00 18105.20 134.38
428 14.1210 17880.00 18075.00 133.72
429 14.1353 18153.00 18047.60 134.73
430 14.1496 18155.00 18022.20 134.74
431 14.1639 18034.00 17998.30 134.29
432 14.1782 18002.00 17975.60 134.17
433 14.1926 18005.00 17953.60 134.18
434 14.2069 17880.00 17932.30 133.72
435 14.2212 17805.00 17911.60 133.43
436 14.2355 17707.00 17891.20 133.07
437 14.2498 18004.00 17871.00 134.18
438 14.2642 17895.00 17850.90 133.77
439 14.2785 17481.00 17831.20 132.22
440 14.2928 17732.00 17811.50 133.16
441 14.3071 18052.00 17791.90 134.36
442 14.3215 17922.00 17772.20 133.87
443 14.3358 17747.00 17752.70 133.22
444 14.3501 17639.00 17733.30 132.81
445 14.3644 17568.00 17713.90 132.54
446 14.3787 17473.00 17694.60 132.18
447 14.3931 17826.00 17676.90 133.51
448 14.4074 17558.00 17657.70 132.51
449 14.4217 17576.00 17638.60 132.57
450 14.4360 17466.00 17620.40 132.16
451 14.4504 17605.00 17601.20 132.68
452 14.4647 17366.00 17582.20 131.78
453 14.4790 17492.00 17563.30 132.26
454 14.4933 17532.00 17544.40 132.41
455 14.5076 17570.00 17525.60 132.55
456 14.5220 17109.00 17506.70 130.80
457 14.5363 17214.00 17487.90 131.20
458 14.5506 17617.00 17469.20 132.73
459 14.5649 17260.00 17450.50 131.38
460 14.5793 17457.00 17431.80 132.12
461 14.5936 17231.00 17413.20 131.27
462 14.6079 17325.00 17394.60 131.62
463 14.6222 17468.00 17376.10 132.17
464 14.6365 17233.00 17357.60 131.27
465 14.6509 17538.00 17339.10 132.43
466 14.6652 17265.00 17320.70 131.40
467 14.6795 17035.00 17302.30 130.52
468 14.6938 17148.00 17284.00 130.95
469 14.7082 17449.00 17265.50 132.10
470 14.7225 17025.00 17247.30 130.48
471 14.7368 17114.00 17229.10 130.82
472 14.7511 17172.00 17210.90 131.04
473 14.7654 17197.00 17192.70 131.14
474 14.7798 17343.00 17174.50 131.69
475 14.7941 17412.00 17156.40 131.96
476 14.8084 16943.00 17138.40 130.16
477 14.8227 17095.00 17120.40 130.75
478 14.8371 16877.00 17102.30 129.91
479 14.8514 16985.00 17084.40 130.33
480 14.8657 17144.00 17066.60 130.93
481 14.8800 16992.00 17048.70 130.35
482 14.8943 17245.00 17031.00 131.32
483 14.9087 17000.00 17013.10 130.38
484 14.9230 16869.00 16995.40 129.88
485 14.9373 16715.00 16977.80 129.29
486 14.9516 16892.00 16960.20 129.97
487 14.9660 17113.00 16942.50 130.82
488 14.9803 16896.00 16925.00 129.99
489 14.9946 17027.00 16907.60 130.49
490 15.0089 16929.00 16890.20 130.11
491 15.0232 16696.00 16872.90 129.21
492 15.0376 16753.00 16855.50 129.43
493 15.0519 16637.00 16838.30 128.98
494 15.0662 16832.00 16821.10 129.74
495 15.0805 16914.00 16804.00 130.05
496 15.0949 16641.00 16786.90 129.00
497 15.1092 16843.00 16769.90 129.78
498 15.1235 16912.00 16753.10 130.05
499 15.1378 16719.00 16736.30 129.30
500 15.1521 16558.00 16719.50 128.68
501 15.1665 16804.00 16702.80 129.63
502 15.1808 16556.00 16686.20 128.67
503 15.1951 16734.00 16669.70 129.36
504 15.2094 16870.00 16653.40 129.88
505 15.2238 16773.00 16637.00 129.51
506 15.2381 16532.00 16619.90 128.58
507 15.2524 16622.00 16603.90 128.93
508 15.2667 16445.00 16587.60 128.24
509 15.2810 16638.00 16571.90 128.99
510 15.2954 16465.00 16556.20 128.32
511 15.3097 16798.00 16540.80 129.61
512 15.3240 16673.00 16525.70 129.12
513 15.3383 16508.00 16510.70 128.48
514 15.3527 16575.00 16495.90 128.74
515 15.3670 16426.00 16481.60 128.16
516 15.3813 16293.00 16467.50 127.64
517 15.3956 16553.00 16453.80 128.66
518 15.4099 16687.00 16440.60 129.18
519 15.4243 16613.00 16427.70 128.89
520 15.4386 16516.00 16415.40 128.51
521 15.4529 16482.00 16403.60 128.38
522 15.4672 16452.00 16392.50 128.26
523 15.4816 16291.00 16381.90 127.64
524 15.4959 16531.00 16372.10 128.57
525 15.5102 16445.00 16363.20 128.24
526 15.5245 16492.00 16355.40 128.42
527 15.5388 16248.00 16348.80 127.47
528 15.5532 16557.00 16344.00 128.67
529 15.5675 16465.00 16341.50 128.32
530 15.5818 16170.00 16342.10 127.16
531 15.5961 16358.00 16346.80 127.90
532 15.6105 16333.00 16357.20 127.80
533 15.6248 16572.00 16374.50 128.73
534 15.6391 16338.00 16400.50 127.82
535 15.6534 16344.00 16436.80 127.84
536 15.6677 16464.00 16484.60 128.31
537 15.6821 16510.00 16544.80 128.49
538 15.6964 16910.00 16615.80 130.04
539 15.7107 16729.00 16695.20 129.34
540 15.7250 16711.00 16777.50 129.27
541 15.7394 16499.00 16854.50 128.45
542 15.7537 16701.00 16913.60 129.23
543 15.7680 16837.00 16943.10 129.76
544 15.7823 16691.00 16934.70 129.19
545 15.7966 16691.00 16887.40 129.19
546 15.8110 16677.00 16806.80 129.14
547 15.8253 16523.00 16704.70 128.54
548 15.8396 16536.00 16592.30 128.59
549 15.8539 16431.00 16479.60 128.18
550 15.8683 16717.00 16373.40 129.29
551 15.8826 16432.00 16278.90 128.19
552 15.8969 16152.00 16196.50 127.09
553 15.9112 16084.00 16125.90 126.82
554 15.9255 16239.00 16065.80 127.43
555 15.9399 16125.00 16014.60 126.98
556 15.9542 16038.00 15971.30 126.64
557 15.9685 16069.00 15934.40 126.76
558 15.9828 16002.00 15902.50 126.50
559 15.9971 15941.00 15874.60 126.26
560 16.0115 16184.00 15849.70 127.22
561 16.0258 16204.00 15827.50 127.29
562 16.0401 15744.00 15807.20 125.47
563 16.0544 15854.00 15788.40 125.91
564 16.0688 15794.00 15770.60 125.67
565 16.0831 15990.00 15753.90 126.45
566 16.0974 15796.00 15737.90 125.68
567 16.1117 15928.00 15722.50 126.21
568 16.1260 15787.00 15707.50 125.65
569 16.1404 15769.00 15692.80 125.57
570 16.1547 15683.00 15678.40 125.23
571 16.1690 15413.00 15664.30 124.15
572 16.1833 15757.00 15650.40 125.53
573 16.1977 15816.00 15636.60 125.76
574 16.2120 15671.00 15623.10 125.18
575 16.2263 15434.00 15609.70 124.23
576 16.2406 15830.00 15596.40 125.82
577 16.2549 15713.00 15583.30 125.35
578 16.2693 15503.00 15570.20 124.51
579 16.2836 15490.00 15557.40 124.46
580 16.2979 15666.00 15544.80 125.16
581 16.3122 15559.00 15532.20 124.74
582 16.3266 15782.00 15519.80 125.63
583 16.3409 15538.00 15507.50 124.65
584 16.3552 15594.00 15495.40 124.88
585 16.3695 15458.00 15483.50 124.33
586 16.3838 15522.00 15471.70 124.59
587 16.3982 15424.00 15459.90 124.19
588 16.4125 15573.00 15448.40 124.79
589 16.4268 15499.00 15436.90 124.50
590 16.4411 15550.00 15425.60 124.70
591 16.4555 15858.00 15414.40 125.93
592 16.4698 15646.00 15403.30 125.08
593 16.4841 15534.00 15392.40 124.64
594 16.4984 15707.00 15381.60 125.33
595 16.5127 15378.00 15370.80 124.01
596 16.5271 15528.00 15360.20 124.61
597 16.5414 15171.00 15349.70 123.17
598 16.5557 15333.00 15339.30 123.83
599 16.5700 15220.00 15329.10 123.37
600 16.5844 15460.00 15318.80 124.34
601 16.5987 15597.00 15308.80 124.89
602 16.6130 15411.00 15298.90 124.14
603 16.6273 15430.00 15312.90 124.22
604 16.6416 15383.00 15303.60 124.03
605 16.6560 15442.00 15294.30 124.27
606 16.6703 15386.00 15297.00 124.04
607 16.6846 15296.00 15288.30 123.68
608 16.6989 15381.00 15279.70 124.02
609 16.7133 15156.00 15271.20 123.11
610 16.7276 15230.00 15262.80 123.41
611 16.7419 15205.00 15254.60 123.31
612 16.7562 15095.00 15246.40 122.86
613 16.7705 15229.00 15238.40 123.41
614 16.7849 15277.00 15230.50 123.60
615 16.7992 15251.00 15222.80 123.50
616 16.8135 15144.00 15215.20 123.06
617 16.8278 15257.00 15207.70 123.52
618 16.8422 15273.00 15200.30 123.58
619 16.8565 15331.00 15193.00 123.82
620 16.8708 15138.00 15185.90 123.04
621 16.8851 15191.00 15178.90 123.25
622 16.8994 15275.00 15172.10 123.59
623 16.9138 15342.00 15165.30 123.86
624 16.9281 15019.00 15158.70 122.55
625 16.9424 15254.00 15152.30 123.51
626 16.9567 15135.00 15146.00 123.02
627 16.9711 15238.00 15139.70 123.44
628 16.9854 15376.00 15133.70 124.00
629 16.9997 15175.00 15127.80 123.19
630 17.0140 15141.00 15122.10 123.05
631 17.0283 15022.00 15116.40 122.56
632 17.0427 15277.00 15110.90 123.60
633 17.0570 15388.00 15105.60 124.05
634 17.0713 15138.00 15100.50 123.04
635 17.0856 15165.00 15095.40 123.15
636 17.1000 15060.00 15090.60 122.72
637 17.1143 15144.00 15085.90 123.06
638 17.1286 14901.00 15081.30 122.07
639 17.1429 15338.00 15077.00 123.85
640 17.1572 14928.00 15072.80 122.18
641 17.1716 14952.00 15067.00 122.28
642 17.1859 14940.00 15063.20 122.23
643 17.2002 15023.00 15058.70 122.57
644 17.2145 14948.00 15055.30 122.26
645 17.2289 15151.00 15052.00 123.09
646 17.2432 14995.00 15049.00 122.45
647 17.2575 15099.00 15046.10 122.88
648 17.2718 15120.00 15043.50 122.96
649 17.2861 15161.00 15041.10 123.13
650 17.3005 15186.00 15038.90 123.23
651 17.3148 15074.00 15036.90 122.78
652 17.3291 15018.00 15035.20 122.55
653 17.3434 14957.00 15033.70 122.30
654 17.3578 15124.00 15032.50 122.98
655 17.3721 15124.00 15031.50 122.98
656 17.3864 15089.00 15030.90 122.84
657 17.4007 15136.00 15030.50 123.03
658 17.4150 15249.00 15030.50 123.49
659 17.4294 15176.00 15030.70 123.19
660 17.4437 14896.00 15031.40 122.05
661 17.4580 14931.00 15032.40 122.19
662 17.4723 15039.00 15033.70 122.63
663 17.4867 14969.00 15035.50 122.35
664 17.5010 14941.00 15037.80 122.23
665 17.5153 15119.00 15040.50 122.96
666 17.5296 14770.00 15043.70 121.53
667 17.5439 14941.00 15047.40 122.23
668 17.5583 15001.00 15051.80 122.48
669 17.5726 14943.00 15056.80 122.24
670 17.5869 15085.00 15062.50 122.82
671 17.6012 15235.00 15069.00 123.43
672 17.6156 15017.00 15076.40 122.54
673 17.6299 15318.00 15084.80 123.77
674 17.6442 15185.00 15094.30 123.23
675 17.6585 15145.00 15105.00 123.07
676 17.6728 15110.00 15117.20 122.92
677 17.6872 15218.00 15131.20 123.36
678 17.7015 15051.00 15146.90 122.68
679 17.7158 15160.00 15164.70 123.13
680 17.7301 15106.00 15185.00 122.91
681 17.7445 15049.00 15208.10 122.67
682 17.7588 15352.00 15234.20 123.90
683 17.7731 15393.00 15263.60 124.07
684 17.7874 15253.00 15296.70 123.50
685 17.8017 15451.00 15333.90 124.30
686 17.8161 15180.00 15375.90 123.21
687 17.8304 15561.00 15422.50 124.74
688 17.8447 15506.00 15474.20 124.52
689 17.8590 15497.00 15531.50 124.49
690 17.8733 15518.00 15594.90 124.57
691 17.8877 15453.00 15665.50 124.31
692 17.9020 15562.00 15743.30 124.75
693 17.9163 15691.00 15830.00 125.26
694 17.9306 15894.00 15927.40 126.07
695 17.9450 15910.00 16038.90 126.14
696 17.9593 16108.00 16166.70 126.92
697 17.9736 16121.00 16316.30 126.97
698 17.9879 16442.00 16494.20 128.23
699 18.0022 16397.00 16708.30 128.05
700 18.0166 17211.00 16970.50 131.19
701 18.0309 17540.00 17288.90 132.44
702 18.0452 17610.00 17677.70 132.70
703 18.0595 18082.00 18153.10 134.47
704 18.0739 18757.00 18725.90 136.96
705 18.0882 19457.00 19400.90 139.49
706 18.1025 20166.00 20187.50 142.01
707 18.1168 21455.00 21078.90 146.48
708 18.1311 22039.00 22059.60 148.46
709 18.1455 23279.00 23101.50 152.57
710 18.1598 24104.00 24131.10 155.26
711 18.1741 25248.00 25070.50 158.90
712 18.1884 25492.00 25815.80 159.66
713 18.2028 26284.00 26268.30 162.12
714 18.2171 26430.00 26354.40 162.57
715 18.2314 26161.00 26068.40 161.74
716 18.2457 25942.00 25455.60 161.07
717 18.2600 24611.00 24597.10 156.88
718 18.2744 24033.00 23581.20 155.03
719 18.2887 22697.00 22516.70 150.65
720 18.3030 21813.00 21474.50 147.69
721 18.3173 20753.00 20507.60 144.06
722 18.3317 19755.00 19638.70 140.55
723 18.3460 18983.00 18888.90 137.78
724 18.3603 18243.00 18248.60 135.07
725 18.3746 17662.00 17708.80 132.90
726 18.3889 17025.00 17257.80 130.48
727 18.4033 17011.00 16881.10 130.43
728 18.4176 16784.00 16572.40 129.55
729 18.4319 16406.00 16318.40 128.09
730 18.4462 16125.00 16109.80 126.98
731 18.4606 15677.00 15937.60 125.21
732 18.4749 15776.00 15797.30 125.60
733 18.4892 15791.00 15682.00 125.66
734 18.5035 15556.00 15587.00 124.72
735 18.5178 15680.00 15508.60 125.22
736 18.5322 15423.00 15443.20 124.19
737 18.5465 15357.00 15389.20 123.92
738 18.5608 15424.00 15343.90 124.19
739 18.5751 15215.00 15305.80 123.35
740 18.5895 15145.00 15273.00 123.07
741 18.6038 15097.00 15244.90 122.87
742 18.6181 14940.00 15220.20 122.23
743 18.6324 15133.00 15198.20 123.02
744 18.6467 14904.00 15178.30 122.08
745 18.6611 15221.00 15159.90 123.37
746 18.6754 14832.00 15142.90 121.79
747 18.6897 14840.00 15127.00 121.82
748 18.7040 15181.00 15111.90 123.21
749 18.7184 15031.00 15097.40 122.60
750 18.7327 14796.00 15083.80 121.64
751 18.7470 15042.00 15070.90 122.65
752 18.7613 14982.00 15058.70 122.40
753 18.7756 15016.00 15047.10 122.54
754 18.7900 14884.00 15036.20 122.00
755 18.8043 14782.00 15026.10 121.58
756 18.8186 14924.00 15016.70 122.16
757 18.8329 14976.00 15008.00 122.38
758 18.8473 14854.00 15000.00 121.88
759 18.8616 14689.00 14992.80 121.20
760 18.8759 14828.00 14993.40 121.77
761 18.8902 14700.00 14987.90 121.24
762 18.9045 14838.00 14983.20 121.81
763 18.9189 15070.00 14979.40 122.76
764 18.9332 14732.00 14979.90 121.38
765 18.9475 14840.00 14978.10 121.82
766 18.9618 15015.00 14977.20 122.54
767 18.9762 14984.00 14977.40 122.41
768 18.9905 14917.00 14978.70 122.14
769 19.0048 14626.00 14981.30 120.94
770 19.0191 14799.00 14985.20 121.65
771 19.0334 14777.00 14990.40 121.56
772 19.0478 14745.00 14997.20 121.43
773 19.0621 14590.00 15005.70 120.79
774 19.0764 15034.00 15016.40 122.61
775 19.0907 14827.00 15029.70 121.77
776 19.1051 14936.00 15046.90 122.21
777 19.1194 14909.00 15069.30 122.10
778 19.1337 14937.00 15099.00 122.22
779 19.1480 14988.00 15139.00 122.43
780 19.1623 15130.00 15192.90 123.00
781 19.1767 15139.00 15265.50 123.04
782 19.1910 15162.00 15360.20 123.13
783 19.2053 15641.00 15481.00 125.06
784 19.2196 15618.00 15629.80 124.97
785 19.2340 15699.00 15806.30 125.30
786 19.2483 16079.00 16001.20 126.80
787 19.2626 16525.00 16202.30 128.55
788 19.2769 16493.00 16387.80 128.43
789 19.2912 16501.00 16530.00 128.46
790 19.3056 16745.00 16603.50 129.40
791 19.3199 16480.00 16595.70 128.37
792 19.3342 16361.00 16513.70 127.91
793 19.3485 16125.00 16374.60 126.98
794 19.3629 16151.00 16196.30 127.09
795 19.3772 15825.00 16001.00 125.80
796 19.3915 15599.00 15806.90 124.90
797 19.4058 15249.00 15628.40 123.49
798 19.4201 15465.00 15473.50 124.36
799 19.4345 15183.00 15343.50 123.22
800 19.4488 15195.00 15239.00 123.27
801 19.4631 15231.00 15156.30 123.41
802 19.4774 15102.00 15092.00 122.89
803 19.4918 15000.00 15042.30 122.47
804 19.5061 14946.00 15012.00 122.25
805 19.5204 14995.00 14983.80 122.45
806 19.5347 15030.00 14962.50 122.60
807 19.5490 14786.00 14949.80 121.60
808 19.5634 15034.00 14937.50 122.61
809 19.5777 15083.00 14928.00 122.81
810 19.5920 14899.00 14920.60 122.06
811 19.6063 14876.00 14914.80 121.97
812 19.6207 15039.00 14910.10 122.63
813 19.6350 15017.00 14906.20 122.54
814 19.6493 14839.00 14903.00 121.82
815 19.6636 14962.00 14900.20 122.32
816 19.6779 14999.00 14897.80 122.47
817 19.6923 14814.00 14895.70 121.71
818 19.7066 14841.00 14893.90 121.82
819 19.7209 14707.00 14892.30 121.27
820 19.7352 14819.00 14890.90 121.73
821 19.7495 14945.00 14889.80 122.25
822 19.7639 14815.00 14888.90 121.72
823 19.7782 14745.00 14888.30 121.43
824 19.7925 14833.00 14888.00 121.79
825 19.8068 14708.00 14864.50 121.28
826 19.8212 14781.00 14865.20 121.58
827 19.8355 14862.00 14866.20 121.91
828 19.8498 14930.00 14855.90 122.19
829 19.8641 14785.00 14857.80 121.59
830 19.8784 14575.00 14860.20 120.73
831 19.8928 15097.00 14863.00 122.87
832 19.9071 14774.00 14866.30 121.55
833 19.9214 14644.00 14870.20 121.01
834 19.9357 14648.00 14874.70 121.03
835 19.9501 14870.00 14880.00 121.94
836 19.9644 14709.00 14886.00 121.28
837 19.9787 14775.00 14893.00 121.55
838 19.9930 14934.00 14901.00 122.21
839 20.0073 14869.00 14910.20 121.94
840 20.0217 14994.00 14920.60 122.45
841 20.0360 14764.00 14932.30 121.51
842 20.0503 14826.00 14945.50 121.76
843 20.0646 14817.00 14960.20 121.72
844 20.0790 14759.00 14976.70 121.49
845 20.0933 14960.00 14994.90 122.31
846 20.1076 14959.00 15015.20 122.31
847 20.1219 15044.00 15037.70 122.65
848 20.1362 15020.00 15063.00 122.56
849 20.1506 14923.00 15091.70 122.16
850 20.1649 14906.00 15124.40 122.09
851 20.1792 15122.00 15162.40 122.97
852 20.1935 15205.00 15207.40 123.31
853 20.2079 15039.00 15261.90 122.63
854 20.2222 15500.00 15327.90 124.50
855 20.2365 15306.00 15409.00 123.72
856 20.2508 15663.00 15509.20 125.15
857 20.2651 15841.00 15632.60 125.86
858 20.2795 15702.00 15784.60 125.31
859 20.2938 16106.00 15967.20 126.91
860 20.3081 15920.00 16183.80 126.17
861 20.3224 16469.00 16435.30 128.33
862 20.3368 16634.00 16721.10 128.97
863 20.3511 16954.00 17029.70 130.21
864 20.3654 17210.00 17349.10 131.19
865 20.3797 17729.00 17657.20 133.15
866 20.3940 17549.00 17924.40 132.47
867 20.4084 17807.00 18119.10 133.44
868 20.4227 18146.00 18212.10 134.71
869 20.4370 18011.00 18194.00 134.21
870 20.4513 17965.00 18071.60 134.03
871 20.4657 17763.00 17862.70 133.28
872 20.4800 17558.00 17595.30 132.51
873 20.4943 17256.00 17294.60 131.36
874 20.5086 16949.00 16986.00 130.19
875 20.5229 16819.00 16690.20 129.69
876 20.5373 16650.00 16419.50 129.04
877 20.5516 16366.00 16184.90 127.93
878 20.5659 16166.00 15983.20 127.15
879 20.5802 15807.00 15819.30 125.73
880 20.5946 15745.00 15686.50 125.48
881 20.6089 15458.00 15582.20 124.33
882 20.6232 15596.00 15505.30 124.88
883 20.6375 15475.00 15452.00 124.40
884 20.6518 15432.00 15420.70 124.23
885 20.6662 15362.00 15411.20 123.94
886 20.6805 15384.00 15424.40 124.03
887 20.6948 15680.00 15462.80 125.22
888 20.7091 15748.00 15539.40 125.49
889 20.7235 15691.00 15641.60 125.26
890 20.7378 15628.00 15783.10 125.01
891 20.7521 16064.00 15970.40 126.74
892 20.7664 16340.00 16212.50 127.83
893 20.7807 16615.00 16501.80 128.90
894 20.7951 17030.00 16841.40 130.50
895 20.8094 17647.00 17215.00 132.84
896 20.8237 17701.00 17602.50 133.04
897 20.8380 18060.00 17968.40 134.39
898 20.8524 18155.00 18268.40 134.74
899 20.8667 18585.00 18451.50 136.33
900 20.8810 18457.00 18490.90 135.86
901 20.8953 18277.00 18386.20 135.19
902 20.9096 17940.00 18160.30 133.94
903 20.9240 17914.00 17842.00 133.84
904 20.9383 17541.00 17468.90 132.44
905 20.9526 17234.00 17072.50 131.28
906 20.9669 16871.00 16683.80 129.89
907 20.9813 16223.00 16323.10 127.37
908 20.9956 15885.00 16007.70 126.04
909 21.0099 15879.00 15738.60 126.01
910 21.0242 15782.00 15513.90 125.63
911 21.0385 15425.00 15329.30 124.20
912 21.0529 15425.00 15178.20 124.20
913 21.0672 15234.00 15057.20 123.43
914 21.0815 15320.00 14960.00 123.77
915 21.0958 15112.00 14894.30 122.93
916 21.1102 15098.00 14831.10 122.87
917 21.1245 15014.00 14780.30 122.53
918 21.1388 15239.00 14738.60 123.45
919 21.1531 14846.00 14710.10 121.84
920 21.1674 15105.00 14681.00 122.90
921 21.1818 14792.00 14655.90 121.62
922 21.1961 14740.00 14634.20 121.41
923 21.2104 14747.00 14614.90 121.44
924 21.2247 14796.00 14597.40 121.64
925 21.2391 14438.00 14581.20 120.16
926 21.2534 14514.00 14566.00 120.47
927 21.2677 14694.00 14551.60 121.22
928 21.2820 14596.00 14537.80 120.81
929 21.2963 14411.00 14524.30 120.05
930 21.3107 14541.00 14511.10 120.59
931 21.3250 14673.00 14498.30 121.13
932 21.3393 14691.00 14485.70 121.21
933 21.3536 14542.00 14492.30 120.59
934 21.3680 14655.00 14480.40 121.06
935 21.3823 14621.00 14468.90 120.92
936 21.3966 14548.00 14457.60 120.61
937 21.4109 14397.00 14455.90 119.99
938 21.4252 14410.00 14445.30 120.04
939 21.4396 14314.00 14434.80 119.64
940 21.4539 14682.00 14424.60 121.17
941 21.4682 14498.00 14414.70 120.41
942 21.4825 14466.00 14404.90 120.28
943 21.4969 14445.00 14395.30 120.19
944 21.5112 14523.00 14386.00 120.51
945 21.5255 14392.00 14376.90 119.97
946 21.5398 14593.00 14367.90 120.80
947 21.5541 14315.00 14359.20 119.64
948 21.5685 14410.00 14350.50 120.04
949 21.5828 14089.00 14342.10 118.70
950 21.5971 14161.00 14333.80 119.00
951 21.6114 14201.00 14325.80 119.17
952 21.6257 14455.00 14317.90 120.23
953 21.6401 14285.00 14313.20 119.52
954 21.6544 14416.00 14305.70 120.07
955 21.6687 14543.00 14298.40 120.59
956 21.6830 14434.00 14292.90 120.14
957 21.6974 14151.00 14285.90 118.96
958 21.7117 14284.00 14279.30 119.52
959 21.7260 14511.00 14272.80 120.46
960 21.7403 14268.00 14266.60 119.45
961 21.7546 14350.00 14261.10 119.79
962 21.7690 14207.00 14255.40 119.19
963 21.7833 14320.00 14250.00 119.67
964 21.7976 14451.00 14245.00 120.21
965 21.8119 14343.00 14240.50 119.76
966 21.8263 14327.00 14236.20 119.69
967 21.8406 14151.00 14232.40 118.96
968 21.8549 14164.00 14229.10 119.01
969 21.8692 14305.00 14226.40 119.60
970 21.8835 14344.00 14224.40 119.77
971 21.8979 14339.00 14223.10 119.75
972 21.9122 14311.00 14222.70 119.63
973 21.9265 14370.00 14223.40 119.88
974 21.9408 14421.00 14225.30 120.09
975 21.9552 14172.00 14228.80 119.05
976 21.9695 14249.00 14233.90 119.37
977 21.9838 14265.00 14234.30 119.44
978 21.9981 14464.00 14243.90 120.27
979 22.0124 14454.00 14256.20 120.22
980 22.0268 14257.00 14268.20 119.40
981 22.0411 14515.00 14287.00 120.48
982 22.0554 14426.00 14359.90 120.11
983 22.0697 14666.00 14387.50 121.10
984 22.0841 14401.00 14420.00 120.00
985 22.0984 14427.00 14457.40 120.11
986 22.1127 14591.00 14525.90 120.79
987 22.1270 14531.00 14577.70 120.54
988 22.1413 14697.00 14639.70 121.23
989 22.1557 14885.00 14716.10 122.00
990 22.1700 15272.00 14811.90 123.58
991 22.1843 15139.00 14935.70 123.04
992 22.1986 15180.00 15098.50 123.21
993 22.2130 15352.00 15316.00 123.90
994 22.2273 15865.00 15601.80 125.96
995 22.2416 16325.00 15974.00 127.77
996 22.2559 16343.00 16440.60 127.84
997 22.2702 17204.00 17023.90 131.16
998 22.2846 17905.00 17718.60 133.81
999 22.2989 18602.00 18493.00 136.39
1000 22.3132 19533.00 19302.00 139.76
1001 22.3275 19987.00 20076.40 141.38
1002 22.3419 20892.00 20714.60 144.54
1003 22.3562 20865.00 21105.60 144.45
1004 22.3705 21066.00 21211.60 145.14
1005 22.3848 20721.00 21016.50 143.95
1006 22.3991 20027.00 20591.80 141.52
1007 22.4135 19603.00 19995.40 140.01
1008 22.4278 18925.00 19299.90 137.57
1009 22.4421 18212.00 18550.00 134.95
1010 22.4564 17704.00 17816.70 133.06
1011 22.4708 17116.00 17145.40 130.83
1012 22.4851 16688.00 16572.20 129.18
1013 22.4994 16228.00 16099.80 127.39
1014 22.5137 16047.00 15723.10 126.68
1015 22.5280 15677.00 15431.90 125.21
1016 22.5424 15633.00 15212.60 125.03
1017 22.5567 15566.00 15055.90 124.76
1018 22.5710 15141.00 14948.90 123.05
1019 22.5853 15132.00 14882.00 123.01
1020 22.5997 15050.00 14846.80 122.68
1021 22.6140 14899.00 14837.70 122.06
1022 22.6283 14811.00 14849.50 121.70
1023 22.6426 14942.00 14878.70 122.24
1024 22.6569 15151.00 14923.00 123.09
1025 22.6713 15025.00 14981.70 122.58
1026 22.6856 15310.00 15053.50 123.73
1027 22.6999 15263.00 15139.40 123.54
1028 22.7142 15236.00 15241.00 123.43
1029 22.7286 15541.00 15361.90 124.66
1030 22.7429 15453.00 15504.70 124.31
1031 22.7572 15866.00 15676.00 125.96
1032 22.7715 15985.00 15883.40 126.43
1033 22.7858 16124.00 16136.10 126.98
1034 22.8002 16561.00 16447.80 128.69
1035 22.8145 17165.00 16826.70 131.01
1036 22.8288 17434.00 17288.10 132.04
1037 22.8431 17853.00 17844.80 133.62
1038 22.8575 18571.00 18512.00 136.27
1039 22.8718 19503.00 19285.90 139.65
1040 22.8861 20480.00 20167.80 143.11
1041 22.9004 20848.00 21142.50 144.39
1042 22.9147 22431.00 22177.30 149.77
1043 22.9291 23199.00 23224.00 152.31
1044 22.9434 24135.00 24188.70 155.35
1045 22.9577 24769.00 24984.50 157.38
1046 22.9720 25552.00 25523.20 159.85
1047 22.9864 25622.00 25754.00 160.07
1048 23.0007 25485.00 25674.90 159.64
1049 23.0150 25347.00 25332.20 159.21
1050 23.0293 24640.00 24788.20 156.97
1051 23.0436 24317.00 24110.10 155.94
1052 23.0580 23380.00 23362.50 152.90
1053 23.0723 22803.00 22624.40 151.01
1054 23.0866 21911.00 21948.40 148.02
1055 23.1009 21385.00 21373.60 146.24
1056 23.1153 20959.00 20917.40 144.77
1057 23.1296 20789.00 20590.90 144.18
1058 23.1439 20366.00 20401.20 142.71
1059 23.1582 20421.00 20305.00 142.90
1060 23.1725 20108.00 20304.10 141.80
1061 23.1869 20385.00 20385.20 142.78
1062 23.2012 20374.00 20542.20 142.74
1063 23.2155 20515.00 20751.10 143.23
1064 23.2298 21005.00 21017.70 144.93
1065 23.2442 21196.00 21352.10 145.59
1066 23.2585 21396.00 21769.20 146.27
1067 23.2728 22009.00 22303.80 148.35
1068 23.2871 22870.00 23001.50 151.23
1069 23.3014 23378.00 23915.70 152.90
1070 23.3158 24576.00 25111.80 156.77
1071 23.3301 26450.00 26621.30 162.63
1072 23.3444 28221.00 28479.60 167.99
1073 23.3587 30457.00 30679.40 174.52
1074 23.3730 33246.00 33160.20 182.34
1075 23.3874 35967.00 35808.70 189.65
1076 23.4017 38401.00 38365.10 195.96
1077 23.4160 40941.00 40545.60 202.34
1078 23.4303 42538.00 42027.70 206.25
1079 23.4447 42381.00 42585.00 205.87
1080 23.4590 42002.00 42177.60 204.94
1081 23.4733 40839.00 40955.00 202.09
1082 23.4876 38839.00 39122.70 197.08
1083 23.5019 36606.00 36878.50 191.33
1084 23.5163 34386.00 34405.70 185.43
1085 23.5306 31634.00 31956.10 177.86
1086 23.5449 29634.00 29717.50 172.15
1087 23.5592 27520.00 27835.20 165.89
1088 23.5736 26693.00 26372.20 163.38
1089 23.5879 25164.00 25354.90 158.63
1090 23.6022 25120.00 24726.50 158.49
1091 23.6165 24942.00 24399.90 157.93
1092 23.6308 24783.00 24251.80 157.43
1093 23.6452 24591.00 24121.20 156.82
1094 23.6595 24358.00 23892.90 156.07
1095 23.6738 24117.00 23468.70 155.30
1096 23.6881 23128.00 22841.00 152.08
1097 23.7025 22368.00 22039.20 149.56
1098 23.7168 21433.00 21132.60 146.40
1099 23.7311 20353.00 20150.50 142.66
1100 23.7454 19070.00 19142.30 138.09
1101 23.7597 18024.00 18165.90 134.25
1102 23.7741 17019.00 17264.80 130.46
1103 23.7884 16347.00 16480.60 127.86
1104 23.8027 16015.00 15814.30 126.55
1105 23.8170 14776.00 15265.70 121.56
1106 23.8314 14700.00 14808.30 121.24
1107 23.8457 14404.00 14439.20 120.02
1108 23.8600 13927.00 14140.30 118.01
1109 23.8743 13887.00 13898.00 117.84
1110 23.8886 13699.00 13703.50 117.04
1111 23.9030 13603.00 13540.40 116.63
1112 23.9173 13139.00 13405.70 114.62
1113 23.9316 13350.00 13291.80 115.54
1114 23.9459 13121.00 13193.90 114.55
1115 23.9603 13109.00 13107.90 114.50
1116 23.9746 13042.00 13032.30 114.20
1117 23.9889 12818.00 12964.50 113.22
1118 24.0032 12627.00 12902.80 112.37
1119 24.0175 12781.00 12846.30 113.05
1120 24.0319 12706.00 12793.60 112.72
1121 24.0462 12496.00 12745.00 111.79
1122 24.0605 12660.00 12699.70 112.52
1123 24.0748 12399.00 12657.50 111.35
1124 24.0892 12784.00 12617.90 113.07
1125 24.1035 12322.00 12581.70 111.00
1126 24.1178 12286.00 12548.50 110.84
1127 24.1321 12298.00 12518.60 110.90
1128 24.1464 12327.00 12492.10 111.03
1129 24.1608 12234.00 12469.20 110.61
1130 24.1751 12327.00 12450.40 111.03
1131 24.1894 12417.00 12435.60 111.43
1132 24.2037 12334.00 12425.10 111.06
1133 24.2181 12415.00 12418.70 111.42
1134 24.2324 12305.00 12416.50 110.93
1135 24.2467 12223.00 12418.20 110.56
1136 24.2610 12177.00 12423.60 110.35
1137 24.2753 12390.00 12432.80 111.31
1138 24.2897 12329.00 12446.10 111.04
1139 24.3040 12359.00 12495.40 111.17
1140 24.3183 12266.00 12519.60 110.75
1141 24.3326 12296.00 12547.70 110.89
1142 24.3470 12465.00 12588.40 111.65
1143 24.3613 12477.00 12640.90 111.70
1144 24.3756 12592.00 12724.90 112.21
1145 24.3899 12779.00 12813.50 113.04
1146 24.4042 12758.00 12932.40 112.95
1147 24.4186 12818.00 13090.00 113.22
1148 24.4329 13081.00 13294.90 114.37
1149 24.4472 13339.00 13560.30 115.50
1150 24.4615 13913.00 13898.80 117.95
1151 24.4759 14075.00 14325.40 118.64
1152 24.4902 14637.00 14843.10 120.98
1153 24.5045 15157.00 15457.10 123.11
1154 24.5188 16065.00 16160.50 126.75
1155 24.5331 16720.00 16932.90 129.31
1156 24.5475 17756.00 17740.30 133.25
1157 24.5618 18506.00 18509.70 136.04
1158 24.5761 18875.00 19164.70 137.39
1159 24.5904 19716.00 19619.50 140.41
1160 24.6048 19707.00 19812.70 140.38
1161 24.6191 19833.00 19709.60 140.83
1162 24.6334 19178.00 19382.30 138.49
1163 24.6477 18818.00 18863.30 137.18
1164 24.6620 17877.00 18202.70 133.71
1165 24.6764 17176.00 17433.70 131.06
1166 24.6907 16619.00 16637.50 128.91
1167 24.7050 15512.00 15851.30 124.55
1168 24.7193 14870.00 15116.80 121.94
1169 24.7337 14200.00 14454.40 119.16
1170 24.7480 14045.00 13883.30 118.51
1171 24.7623 13447.00 13397.80 115.96
1172 24.7766 13075.00 12990.80 114.35
1173 24.7909 12779.00 12654.00 113.04
1174 24.8053 12376.00 12375.70 111.25
1175 24.8196 12124.00 12150.10 110.11
1176 24.8339 11920.00 11916.70 109.18
1177 24.8482 11699.00 11768.70 108.16
1178 24.8626 11496.00 11648.00 107.22
1179 24.8769 11558.00 11550.60 107.51
1180 24.8912 11450.00 11446.50 107.00
1181 24.9055 11357.00 11382.00 106.57
1182 24.9198 11317.00 11329.20 106.38
1183 24.9342 11208.00 11285.30 105.87
1184 24.9485 11200.00 11250.10 105.83
1185 24.9628 11181.00 11220.40 105.74
1186 24.9771 11300.00 11182.00 106.30
1187 24.9915 11083.00 11161.70 105.28
1188 25.0058 11068.00 11145.30 105.21
1189 25.0201 11045.00 11132.40 105.10
1190 25.0344 11140.00 11115.50 105.55
1191 25.0487 11063.00 11108.70 105.18
1192 25.0631 11013.00 11105.40 104.94
1193 25.0774 10891.00 11106.30 104.36
1194 25.0917 10886.00 11112.60 104.34
1195 25.1060 11134.00 11125.70 105.52
1196 25.1204 11038.00 11148.00 105.06
1197 25.1347 11322.00 11181.80 106.40
1198 25.1490 11120.00 11230.60 105.45
1199 25.1633 11288.00 11298.10 106.25
1200 25.1776 11271.00 11388.30 106.17
1201 25.1920 11401.00 11506.10 106.78
1202 25.2063 11674.00 11652.90 108.05
1203 25.2206 12064.00 11831.40 109.84
1204 25.2349 12380.00 12040.70 111.26
1205 25.2492 12350.00 12276.50 111.13
1206 25.2636 12549.00 12530.90 112.02
1207 25.2779 12652.00 12784.40 112.48
1208 25.2922 13068.00 13015.30 114.32
1209 25.3065 13165.00 13196.20 114.74
1210 25.3209 13280.00 13302.20 115.24
1211 25.3352 13250.00 13317.90 115.11
1212 25.3495 13220.00 13250.90 114.98
1213 25.3638 13056.00 13106.40 114.26
1214 25.3781 12702.00 12905.20 112.70
1215 25.3925 12345.00 12660.90 111.11
1216 25.4068 12301.00 12392.20 110.91
1217 25.4211 12036.00 12116.30 109.71
1218 25.4354 11748.00 11845.00 108.39
1219 25.4498 11264.00 11590.80 106.13
1220 25.4641 11260.00 11364.20 106.11
1221 25.4784 11056.00 11166.00 105.15
1222 25.4927 11048.00 10995.50 105.11
1223 25.5070 10724.00 10850.50 103.56
1224 25.5214 10578.00 10727.40 102.85
1225 25.5357 10614.00 10624.60 103.02
1226 25.5500 10428.00 10538.40 102.12
1227 25.5643 10313.00 10466.10 101.55
1228 25.5787 10598.00 10404.70 102.95
1229 25.5930 10373.00 10353.20 101.85
1230 25.6073 10423.00 10309.10 102.09
1231 25.6216 10157.00 10271.10 100.78
1232 25.6359 10331.00 10238.10 101.64
1233 25.6503 10145.00 10210.10 100.72
1234 25.6646 10104.00 10184.10 100.52
1235 25.6789 10201.00 10160.60 101.00
1236 25.6932 10093.00 10139.20 100.46
1237 25.7076 10148.00 10119.90 100.74
1238 25.7219 10017.00 10101.40 100.08
1239 25.7362 9999.00 10084.00 100.00
1240 25.7505 9966.00 10067.40 99.83
1241 25.7648 10074.00 10051.60 100.37
1242 25.7792 10088.00 10036.30 100.44
1243 25.7935 10041.00 10012.50 100.21
1244 25.8078 10129.00 9998.51 100.64
1245 25.8221 10040.00 9985.02 100.20
1246 25.8365 9875.00 9971.97 99.37
1247 25.8508 10078.00 9954.98 100.39
1248 25.8651 9802.00 9943.14 99.01
1249 25.8794 10017.00 9931.88 100.08
1250 25.8937 9897.00 9921.21 99.48
1251 25.9081 9885.00 9911.11 99.42
1252 25.9224 9964.00 9901.76 99.82
1253 25.9367 9920.00 9893.13 99.60
1254 25.9510 9683.00 9885.25 98.40
1255 25.9654 9889.00 9878.14 99.44
1256 25.9797 9913.00 9871.94 99.56
1257 25.9940 10056.00 9866.68 100.28
1258 26.0083 9937.00 9862.42 99.68
1259 26.0226 9896.00 9859.24 99.48
1260 26.0370 9963.00 9857.23 99.81
1261 26.0513 10109.00 9856.53 100.54
1262 26.0656 9835.00 9857.21 99.17
1263 26.0799 9800.00 9843.64 98.99
1264 26.0943 9909.00 9847.83 99.54
1265 26.1086 10043.00 9853.77 100.21
1266 26.1229 10023.00 9861.63 100.11
1267 26.1372 10024.00 9863.67 100.12
1268 26.1515 9861.00 9875.88 99.30
1269 26.1659 10135.00 9890.47 100.67
1270 26.1802 10064.00 9907.31 100.32
1271 26.1945 9910.00 9926.53 99.55
1272 26.2088 10201.00 9948.14 101.00
1273 26.2232 10307.00 9972.29 101.52
1274 26.2375 10075.00 9999.02 100.37
1275 26.2518 10310.00 10027.80 101.54
1276 26.2661 10291.00 10059.10 101.44
1277 26.2804 10113.00 10093.50 100.56
1278 26.2948 10333.00 10131.80 101.65
1279 26.3091 10209.00 10174.40 101.04
1280 26.3234 10224.00 10221.80 101.11
1281 26.3377 10534.00 10275.10 102.64
1282 26.3521 10455.00 10335.30 102.25
1283 26.3664 10466.00 10402.00 102.30
1284 26.3807 10535.00 10475.80 102.64
1285 26.3950 10810.00 10556.40 103.97
1286 26.4093 10950.00 10642.90 104.64
1287 26.4237 10694.00 10734.40 103.41
1288 26.4380 10993.00 10827.10 104.85
1289 26.4523 11174.00 10918.80 105.71
1290 26.4666 10997.00 11019.90 104.87
1291 26.4810 11428.00 11104.20 106.90
1292 26.4953 11327.00 11184.40 106.43
1293 26.5096 11474.00 11263.80 107.12
1294 26.5239 11375.00 11345.60 106.65
1295 26.5382 11601.00 11439.30 107.71
1296 26.5526 11603.00 11536.20 107.72
1297 26.5669 11765.00 11645.10 108.47
1298 26.5812 11928.00 11770.60 109.21
1299 26.5955 12083.00 11916.60 109.92
1300 26.6099 12059.00 12088.10 109.81
1301 26.6242 12099.00 12286.10 110.00
1302 26.6385 12406.00 12514.80 111.38
1303 26.6528 12751.00 12777.30 112.92
1304 26.6671 12918.00 13077.00 113.66
1305 26.6815 13261.00 13419.70 115.16
1306 26.6958 13731.00 13804.10 117.18
1307 26.7101 14145.00 14235.90 118.93
1308 26.7244 14633.00 14718.10 120.97
1309 26.7388 15418.00 15256.90 124.17
1310 26.7531 15624.00 15846.30 125.00
1311 26.7674 16321.00 16489.20 127.75
1312 26.7817 17354.00 17182.80 131.74
1313 26.7960 17919.00 17919.60 133.86
1314 26.8104 18767.00 18693.50 136.99
1315 26.8247 19600.00 19475.70 140.00
1316 26.8390 20200.00 20241.90 142.13
1317 26.8533 21002.00 20973.20 144.92
1318 26.8677 21476.00 21632.80 146.55
1319 26.8820 21778.00 22174.00 147.57
1320 26.8963 21932.00 22564.60 148.10
1321 26.9106 22352.00 22770.60 149.51
1322 26.9249 22034.00 22776.40 148.44
1323 26.9393 22182.00 22571.70 148.94
1324 26.9536 22138.00 22172.40 148.79
1325 26.9679 21940.00 21606.00 148.12
1326 26.9822 21545.00 20909.00 146.78
1327 26.9966 20943.00 20112.70 144.72
1328 27.0109 20558.00 19264.40 143.38
1329 27.0252 19360.00 18392.50 139.14
1330 27.0395 18223.00 17527.70 134.99
1331 27.0538 17071.00 16694.80 130.66
1332 27.0682 16141.00 15906.40 127.05
1333 27.0825 15363.00 15184.00 123.95
1334 27.0968 14470.00 14525.70 120.29
1335 27.1111 13515.00 13931.40 116.25
1336 27.1254 12890.00 13398.10 113.53
1337 27.1398 12317.00 12918.10 110.98
1338 27.1541 11690.00 12492.80 108.12
1339 27.1684 11567.00 12113.60 107.55
1340 27.1827 11252.00 11775.70 106.07
1341 27.1971 11120.00 11472.60 105.45
1342 27.2114 10944.00 11204.40 104.61
1343 27.2257 10537.00 10965.60 102.65
1344 27.2400 10621.00 10753.30 103.06
1345 27.2543 10420.00 10565.20 102.08
1346 27.2687 10341.00 10398.30 101.69
1347 27.2830 9984.00 10253.30 99.92
1348 27.2973 9862.00 10127.80 99.31
1349 27.3116 9911.00 10020.50 99.55
1350 27.3260 10078.00 9929.97 100.39
1351 27.3403 9848.00 9856.40 99.24
1352 27.3546 9917.00 9797.91 99.58
1353 27.3689 9986.00 9753.03 99.93
1354 27.3832 9715.00 9719.78 98.56
1355 27.3976 9867.00 9695.40 99.33
1356 27.4119 9805.00 9676.83 99.02
1357 27.4262 9622.00 9659.78 98.09
1358 27.4405 9712.00 9639.87 98.55
1359 27.4549 9515.00 9612.98 97.54
1360 27.4692 9591.00 9576.97 97.93
1361 27.4835 9498.00 9531.01 97.46
1362 27.4978 9611.00 9476.09 98.04
1363 27.5121 9359.00 9414.05 96.74
1364 27.5265 9441.00 9346.51 97.16
1365 27.5408 9420.00 9276.58 97.06
1366 27.5551 9259.00 9206.09 96.22
1367 27.5694 9111.00 9137.35 95.45
1368 27.5838 9208.00 9072.04 95.96
1369 27.5981 9097.00 9012.78 95.38
1370 27.6124 9164.00 8960.17 95.73
1371 27.6267 9002.00 8914.82 94.88
1372 27.6410 8884.00 8876.94 94.25
1373 27.6554 9022.00 8846.33 94.98
1374 27.6697 8855.00 8823.34 94.10
1375 27.6840 8631.00 8807.59 92.90
1376 27.6983 8902.00 8799.00 94.35
1377 27.7127 8700.00 8797.51 93.27
1378 27.7270 8902.00 8803.13 94.35
1379 27.7413 8801.00 8815.90 93.81
1380 27.7556 8824.00 8835.91 93.94
1381 27.7699 8938.00 8863.36 94.54
1382 27.7843 8724.00 8898.85 93.40
1383 27.7986 8972.00 8942.33 94.72
1384 27.8129 9030.00 8994.68 95.03
1385 27.8272 9105.00 9056.87 95.42
1386 27.8416 9178.00 9130.96 95.80
1387 27.8559 9218.00 9218.39 96.01
1388 27.8702 9322.00 9323.56 96.55
1389 27.8845 9427.00 9452.18 97.09
1390 27.8988 9647.00 9611.43 98.22
1391 27.9132 9924.00 9811.05 99.62
1392 27.9275 9998.00 10058.60 99.99
1393 27.9418 10369.00 10357.90 101.83
1394 27.9561 10586.00 10716.10 102.89
1395 27.9705 10998.00 11138.00 104.87
1396 27.9848 11488.00 11613.80 107.18
1397 27.9991 12243.00 12135.50 110.65
1398 28.0134 12725.00 12678.20 112.81
1399 28.0277 13097.00 13210.10 114.44
1400 28.0421 13604.00 13687.50 116.64
1401 28.0564 14008.00 14052.40 118.36
1402 28.0707 14258.00 14265.30 119.41
1403 28.0850 13959.00 14305.00 118.15
1404 28.0994 13775.00 14178.30 117.37
1405 28.1137 13700.00 13912.30 117.05
1406 28.1280 13222.00 13537.10 114.99
1407 28.1423 12936.00 13078.60 113.74
1408 28.1566 12356.00 12561.30 111.16
1409 28.1710 12019.00 12008.20 109.63
1410 28.1853 11400.00 11456.40 106.77
1411 28.1996 10739.00 10928.20 103.63
1412 28.2139 10616.00 10441.80 103.03
1413 28.2283 10031.00 10004.30 100.15
1414 28.2426 9483.00 9624.46 97.38
1415 28.2569 9341.00 9297.32 96.65
1416 28.2712 9237.00 9018.56 96.11
1417 28.2855 9017.00 8783.00 94.96
1418 28.2999 8689.00 8583.95 93.21
1419 28.3142 8509.00 8418.90 92.24
1420 28.3285 8481.00 8281.59 92.09
1421 28.3428 8261.00 8167.71 90.89
1422 28.3572 8302.00 8072.93 91.12
1423 28.3715 8186.00 7995.25 90.48
1424 28.3858 8089.00 7931.20 89.94
1425 28.4001 8090.00 7878.42 89.94
1426 28.4144 7975.00 7834.88 89.30
1427 28.4288 8051.00 7798.64 89.73
1428 28.4431 7938.00 7768.60 89.10
1429 28.4574 7982.00 7743.07 89.34
1430 28.4717 7784.00 7720.64 88.23
1431 28.4861 7890.00 7699.84 88.83
1432 28.5004 7713.00 7679.73 87.82
1433 28.5147 7857.00 7659.15 88.64
1434 28.5290 7551.00 7637.51 86.90
1435 28.5433 7582.00 7610.40 87.07
1436 28.5577 7678.00 7586.11 87.62
1437 28.5720 7489.00 7560.96 86.54
1438 28.5863 7791.00 7535.04 88.27
1439 28.6006 7595.00 7506.55 87.15
1440 28.6150 7530.00 7479.86 86.78
1441 28.6293 7449.00 7453.56 86.31
1442 28.6436 7585.00 7427.82 87.09
1443 28.6579 7444.00 7402.89 86.28
1444 28.6722 7306.00 7378.95 85.48
1445 28.6866 7341.00 7355.90 85.68
1446 28.7009 7319.00 7334.09 85.55
1447 28.7152 7319.00 7313.31 85.55
1448 28.7295 7106.00 7293.49 84.30
1449 28.7439 7352.00 7274.47 85.74
1450 28.7582 7431.00 7256.42 86.20
1451 28.7725 7183.00 7239.13 84.75
1452 28.7868 7147.00 7222.54 84.54
1453 28.8011 7163.00 7207.22 84.63
1454 28.8155 7187.00 7191.75 84.78
1455 28.8298 7243.00 7176.92 85.11
1456 28.8441 7116.00 7162.56 84.36
1457 28.8584 7206.00 7148.65 84.89
1458 28.8728 7122.00 7135.03 84.39
1459 28.8871 7036.00 7122.20 83.88
1460 28.9014 7054.00 7112.61 83.99
1461 28.9157 7082.00 7100.18 84.15
1462 28.9300 7095.00 7088.03 84.23
1463 28.9444 6989.00 7076.07 83.60
1464 28.9587 7143.00 7064.46 84.52
1465 28.9730 6970.00 7054.67 83.49
1466 28.9873 6964.00 7043.57 83.45
1467 29.0016 7097.00 7032.68 84.24
1468 29.0160 6933.00 7021.94 83.26
1469 29.0303 6949.00 7011.49 83.36
1470 29.0446 7048.00 7001.26 83.95
1471 29.0589 6897.00 6991.24 83.05
1472 29.0733 6936.00 6981.37 83.28
1473 29.0876 7050.00 6971.79 83.96
1474 29.1019 7018.00 6962.44 83.77
1475 29.1162 6921.00 6953.34 83.19
1476 29.1305 6903.00 6944.49 83.08
1477 29.1449 6982.00 6936.82 83.56
1478 29.1592 6831.00 6928.55 82.65
1479 29.1735 6819.00 6920.58 82.58
1480 29.1878 6991.00 6912.94 83.61
1481 29.2022 6690.00 6905.59 81.79
1482 29.2165 6833.00 6899.13 82.66
1483 29.2308 6701.00 6892.59 81.86
1484 29.2451 6851.00 6886.46 82.77
1485 29.2594 6831.00 6880.75 82.65
1486 29.2738 6980.00 6875.45 83.55
1487 29.2881 6847.00 6869.26 82.75
1488 29.3024 6806.00 6864.96 82.50
1489 29.3167 6796.00 6867.03 82.44
1490 29.3311 6983.00 6863.83 83.56
1491 29.3454 6945.00 6861.22 83.34
1492 29.3597 6940.00 6858.56 83.31
1493 29.3740 6984.00 6857.29 83.57
1494 29.3883 7088.00 6859.73 84.19
1495 29.4027 6816.00 6860.34 82.56
1496 29.4170 6901.00 6862.17 83.07
1497 29.4313 6842.00 6865.54 82.72
1498 29.4456 6921.00 6870.81 83.19
1499 29.4600 6872.00 6879.14 82.90
1500 29.4743 7050.00 6889.89 83.96
1501 29.4886 6932.00 6904.37 83.26
1502 29.5029 6908.00 6923.40 83.11
1503 29.5172 6958.00 6916.58 83.41
1504 29.5316 6977.00 6948.22 83.53
1505 29.5459 7023.00 6986.59 83.80
1506 29.5602 7112.00 7032.88 84.33
1507 29.5745 7108.00 7087.53 84.31
1508 29.5889 7236.00 7135.59 85.06
1509 29.6032 7288.00 7206.52 85.37
1510 29.6175 7391.00 7283.81 85.97
1511 29.6318 7555.00 7364.32 86.92
1512 29.6461 7358.00 7444.08 85.78
1513 29.6605 7381.00 7518.10 85.91
1514 29.6748 7466.00 7579.01 86.41
1515 29.6891 7323.00 7621.66 85.57
1516 29.7034 7647.00 7629.44 87.45
1517 29.7178 7546.00 7627.35 86.87
1518 29.7321 7421.00 7604.70 86.15
1519 29.7464 7354.00 7565.05 85.76
1520 29.7607 7318.00 7511.83 85.55
1521 29.7750 7236.00 7441.61 85.06
1522 29.7894 7301.00 7369.22 85.45
1523 29.8037 7409.00 7292.23 86.08
1524 29.8180 7295.00 7213.23 85.41
1525 29.8323 7035.00 7135.12 83.87
1526 29.8467 6996.00 7059.73 83.64
1527 29.8610 7013.00 6989.77 83.74
1528 29.8753 6974.00 6925.65 83.51
1529 29.8896 6921.00 6867.69 83.19
1530 29.9039 6795.00 6815.81 82.43
1531 29.9183 6688.00 6769.53 81.78
1532 29.9326 6867.00 6729.25 82.87
1533 29.9469 6800.00 6694.45 82.46
1534 29.9612 6755.00 6664.92 82.19
1535 29.9756 6662.00 6640.27 81.62
1536 29.9899 6823.00 6620.55 82.60
1537 30.0042 6849.00 6605.31 82.76
1538 30.0185 6731.00 6594.31 82.04
1539 30.0328 6695.00 6587.39 81.82
1540 30.0472 6605.00 6584.51 81.27
1541 30.0615 6619.00 6585.82 81.36
1542 30.0758 6666.00 6595.67 81.65
1543 30.0901 6659.00 6606.45 81.60
1544 30.1045 6779.00 6623.01 82.33
1545 30.1188 6663.00 6646.02 81.63
1546 30.1331 6750.00 6676.67 82.16
1547 30.1474 6782.00 6718.16 82.35
1548 30.1617 6810.00 6767.71 82.52
1549 30.1761 7031.00 6828.88 83.85
1550 30.1904 6884.00 6901.65 82.97
1551 30.2047 7049.00 6986.75 83.96
1552 30.2190 7060.00 7083.85 84.02
1553 30.2334 7351.00 7192.77 85.74
1554 30.2477 7432.00 7310.84 86.21
1555 30.2620 7400.00 7438.22 86.02
1556 30.2763 7507.00 7574.87 86.64
1557 30.2906 7832.00 7719.62 88.50
1558 30.3050 7870.00 7869.16 88.71
1559 30.3193 8099.00 8012.17 89.99
1560 30.3336 8159.00 8135.64 90.33
1561 30.3479 8257.00 8224.41 90.87
1562 30.3623 8233.00 8265.71 90.74
1563 30.3766 8283.00 8254.60 91.01
1564 30.3909 8237.00 8197.21 90.76
1565 30.4052 8167.00 8104.74 90.37
1566 30.4195 7954.00 7987.78 89.19
1567 30.4339 7998.00 7851.56 89.43
1568 30.4482 7640.00 7702.34 87.41
1569 30.4625 7598.00 7544.92 87.17
1570 30.4768 7341.00 7387.67 85.68
1571 30.4912 7411.00 7237.83 86.09
1572 30.5055 6968.00 7104.30 83.47
1573 30.5198 7062.00 6989.58 84.04
1574 30.5341 6882.00 6894.75 82.96
1575 30.5484 6860.00 6819.25 82.83
1576 30.5628 6833.00 6761.57 82.66
1577 30.5771 6802.00 6720.94 82.47
1578 30.5914 6766.00 6695.88 82.26
1579 30.6057 6757.00 6685.81 82.20
1580 30.6201 6850.00 6690.84 82.76
1581 30.6344 6747.00 6711.69 82.14
1582 30.6487 6766.00 6749.96 82.26
1583 30.6630 6762.00 6808.12 82.23
1584 30.6773 6923.00 6889.37 83.20
1585 30.6917 6876.00 6998.35 82.92
1586 30.7060 6995.00 7137.58 83.64
1587 30.7203 7279.00 7311.13 85.32
1588 30.7346 7477.00 7521.23 86.47
1589 30.7489 7462.00 7767.80 86.38
1590 30.7633 7783.00 8049.44 88.22
1591 30.7776 8303.00 8353.80 91.12
1592 30.7919 8620.00 8668.46 92.84
1593 30.8062 9071.00 8972.41 95.24
1594 30.8206 9310.00 9240.52 96.49
1595 30.8349 9273.00 9441.84 96.30
1596 30.8492 9429.00 9558.92 97.10
1597 30.8635 9514.00 9587.18 97.54
1598 30.8778 9376.00 9535.81 96.83
1599 30.8922 9357.00 9418.36 96.73
1600 30.9065 9219.00 9248.14 96.02
1601 30.9208 8987.00 9032.24 94.80
1602 30.9351 8715.00 8778.73 93.35
1603 30.9495 8574.00 8498.17 92.60
1604 30.9638 8215.00 8210.74 90.64
1605 30.9781 7850.00 7936.30 88.60
1606 30.9924 7588.00 7673.34 87.11
1607 31.0067 7496.00 7434.67 86.58
1608 31.0211 7178.00 7221.92 84.72
1609 31.0354 6995.00 7038.57 83.64
1610 31.0497 6886.00 6885.35 82.98
1611 31.0640 6802.00 6754.45 82.47
1612 31.0784 6706.00 6645.98 81.89
1613 31.0927 6594.00 6558.91 81.20
1614 31.1070 6370.00 6489.64 79.81
1615 31.1213 6552.00 6435.36 80.94
1616 31.1356 6473.00 6393.26 80.46
1617 31.1500 6390.00 6360.41 79.94
1618 31.1643 6328.00 6334.78 79.55
1619 31.1786 6283.00 6314.18 79.27
1620 31.1929 6449.00 6297.36 80.31
1621 31.2073 6222.00 6283.73 78.88
1622 31.2216 6277.00 6273.33 79.23
1623 31.2359 6270.00 6265.93 79.18
1624 31.2502 6285.00 6261.26 79.28
1625 31.2645 6187.00 6258.92 78.66
1626 31.2789 6235.00 6258.56 78.96
1627 31.2932 6153.00 6259.54 78.44
1628 31.3075 6280.00 6261.22 79.25
1629 31.3218 6270.00 6262.60 79.18
1630 31.3362 6143.00 6262.47 78.38
1631 31.3505 6247.00 6259.68 79.04
1632 31.3648 6186.00 6253.53 78.65
1633 31.3791 6278.00 6243.79 79.23
1634 31.3934 6247.00 6230.87 79.04
1635 31.4078 6213.00 6215.32 78.82
1636 31.4221 6170.00 6198.05 78.55
1637 31.4364 6091.00 6179.61 78.04
1638 31.4507 6163.00 6160.62 78.50
1639 31.4651 6068.00 6141.64 77.90
1640 31.4794 6270.00 6121.50 79.18
1641 31.4937 6169.00 6105.16 78.54
1642 31.5080 5978.00 6090.99 77.32
1643 31.5223 5950.00 6079.46 77.14
1644 31.5367 6066.00 6070.84 77.88
1645 31.5510 6003.00 6073.46 77.48
1646 31.5653 6096.00 6070.44 78.08
1647 31.5796 5977.00 6072.54 77.31
1648 31.5940 6005.00 6078.99 77.49
1649 31.6083 5966.00 6090.34 77.24
1650 31.6226 6107.00 6107.43 78.15
1651 31.6369 6153.00 6135.14 78.44
1652 31.6512 5991.00 6167.08 77.40
1653 31.6656 6132.00 6208.78 78.31
1654 31.6799 6315.00 6261.21 79.47
1655 31.6942 6394.00 6326.14 79.96
1656 31.7085 6298.00 6404.36 79.36
1657 31.7229 6501.00 6498.98 80.63
1658 31.7372 6565.00 6608.49 81.02
1659 31.7515 6682.00 6733.10 81.74
1660 31.7658 6982.00 6871.10 83.56
1661 31.7801 6963.00 7019.09 83.44
1662 31.7945 7128.00 7172.12 84.43
1663 31.8088 7403.00 7320.57 86.04
1664 31.8231 7427.00 7454.67 86.18
1665 31.8374 7636.00 7562.98 87.38
1666 31.8518 7670.00 7632.61 87.58
1667 31.8661 7608.00 7662.96 87.22
1668 31.8804 7784.00 7651.42 88.23
1669 31.8947 7646.00 7602.86 87.44
1670 31.9090 7513.00 7524.22 86.68
1671 31.9234 7492.00 7419.64 86.56
1672 31.9377 7349.00 7299.08 85.73
1673 31.9520 7064.00 7165.32 84.05
1674 31.9663 7049.00 7024.06 83.96
1675 31.9807 6986.00 6880.77 83.58
1676 31.9950 6751.00 6743.52 82.16
1677 32.0093 6614.00 6616.05 81.33
1678 32.0236 6504.00 6501.24 80.65
1679 32.0379 6219.00 6400.27 78.86
1680 32.0523 6299.00 6312.36 79.37
1681 32.0666 6211.00 6237.46 78.81
1682 32.0809 6288.00 6173.20 79.30
1683 32.0952 6139.00 6117.68 78.35
1684 32.1096 6213.00 6068.74 78.82
1685 32.1239 5946.00 6025.80 77.11
1686 32.1382 5955.00 5987.73 77.17
1687 32.1525 5935.00 5954.15 77.04
1688 32.1668 5898.00 5924.77 76.80
1689 32.1812 5967.00 5899.08 77.25
1690 32.1955 5885.00 5877.10 76.71
1691 32.2098 5726.00 5858.41 75.67
1692 32.2241 5937.00 5843.37 77.05
1693 32.2385 5778.00 5831.22 76.01
1694 32.2528 5744.00 5822.58 75.79
1695 32.2671 5854.00 5817.38 76.51
1696 32.2814 5783.00 5815.53 76.05
1697 32.2957 5900.00 5816.95 76.81
1698 32.3101 5927.00 5821.78 76.99
1699 32.3244 5832.00 5829.54 76.37
1700 32.3387 5866.00 5840.57 76.59
1701 32.3530 5836.00 5855.15 76.39
1702 32.3674 5683.00 5873.97 75.39
1703 32.3817 5744.00 5897.59 75.79
1704 32.3960 5808.00 5921.58 76.21
1705 32.4103 5841.00 5959.13 76.43
1706 32.4246 6184.00 6006.40 78.64
1707 32.4390 6077.00 6070.55 77.96
1708 32.4533 6115.00 6145.42 78.20
1709 32.4676 6169.00 6235.89 78.54
1710 32.4819 6253.00 6351.11 79.08
1711 32.4963 6402.00 6492.46 80.01
1712 32.5106 6456.00 6660.53 80.35
1713 32.5249 6784.00 6859.68 82.36
1714 32.5392 7094.00 7085.16 84.23
1715 32.5535 7465.00 7335.98 86.40
1716 32.5679 7670.00 7607.10 87.58
1717 32.5822 7956.00 7883.26 89.20
1718 32.5965 8298.00 8149.83 91.09
1719 32.6108 8729.00 8385.93 93.43
1720 32.6251 8942.00 8569.10 94.56
1721 32.6395 8867.00 8681.81 94.16
1722 32.6538 8848.00 8714.66 94.06
1723 32.6681 8994.00 8673.16 94.84
1724 32.6824 8712.00 8570.07 93.34
1725 32.6968 8609.00 8417.08 92.78
1726 32.7111 8256.00 8228.71 90.86
1727 32.7254 8100.00 8010.21 90.00
1728 32.7397 7806.00 7769.11 88.35
1729 32.7540 7539.00 7515.19 86.83
1730 32.7684 7115.00 7258.93 84.35
1731 32.7827 6972.00 7014.58 83.50
1732 32.7970 6680.00 6789.29 81.73
1733 32.8113 6639.00 6587.32 81.48
1734 32.8257 6381.00 6409.11 79.88
1735 32.8400 6201.00 6256.59 78.75
1736 32.8543 6119.00 6126.89 78.22
1737 32.8686 5973.00 6017.84 77.29
1738 32.8829 5853.00 5927.13 76.50
1739 32.8973 5808.00 5854.38 76.21
1740 32.9116 5678.00 5793.94 75.35
1741 32.9259 5776.00 5745.64 76.00
1742 32.9402 5651.00 5707.78 75.17
1743 32.9546 5723.00 5678.71 75.65
1744 32.9689 5634.00 5657.53 75.06
1745 32.9832 5634.00 5644.07 75.06
1746 32.9975 5541.00 5635.11 74.44
1747 33.0118 5588.00 5631.02 74.75
1748 33.0262 5607.00 5631.16 74.88
1749 33.0405 5490.00 5634.98 74.09
1750 33.0548 5628.00 5642.01 75.02
1751 33.0691 5513.00 5651.86 74.25
1752 33.0835 5559.00 5664.29 74.56
1753 33.0978 5558.00 5678.87 74.55
1754 33.1121 5684.00 5695.49 75.39
1755 33.1264 5493.00 5714.12 74.11
1756 33.1407 5807.00 5734.94 76.20
1757 33.1551 5595.00 5758.55 74.80
1758 33.1694 5683.00 5785.37 75.39
1759 33.1837 5855.00 5816.60 76.52
1760 33.1980 5842.00 5853.54 76.43
1761 33.2124 5910.00 5898.15 76.88
1762 33.2267 5886.00 5951.68 76.72
1763 33.2410 5946.00 6016.58 77.11
1764 33.2553 6171.00 6095.29 78.56
1765 33.2696 6077.00 6189.80 77.96
1766 33.2840 6181.00 6304.84 78.62
1767 33.2983 6369.00 6440.75 79.81
1768 33.3126 6578.00 6600.37 81.10
1769 33.3269 6819.00 6784.99 82.58
1770 33.3413 6953.00 6996.64 83.38
1771 33.3556 7243.00 7230.70 85.11
1772 33.3699 7542.00 7485.68 86.84
1773 33.3842 7770.00 7755.11 88.15
1774 33.3985 7946.00 8029.17 89.14
1775 33.4129 8385.00 8296.25 91.57
1776 33.4272 8586.00 8535.69 92.66
1777 33.4415 8743.00 8731.26 93.50
1778 33.4558 8592.00 8866.87 92.69
1779 33.4702 8961.00 8932.59 94.66
1780 33.4845 8794.00 8926.05 93.78
1781 33.4988 8464.00 8854.18 92.00
1782 33.5131 8693.00 8727.43 93.24
1783 33.5274 8442.00 8556.29 91.88
1784 33.5418 8304.00 8348.28 91.13
1785 33.5561 8032.00 8114.22 89.62
1786 33.5704 7722.00 7861.33 87.87
1787 33.5847 7719.00 7598.96 87.86
1788 33.5991 7228.00 7335.42 85.02
1789 33.6134 7041.00 7083.37 83.91
1790 33.6277 6665.00 6847.34 81.64
1791 33.6420 6563.00 6631.51 81.01
1792 33.6563 6386.00 6433.51 79.91
1793 33.6707 6249.00 6260.37 79.05
1794 33.6850 6046.00 6109.46 77.76
1795 33.6993 5993.00 5977.93 77.41
1796 33.7136 5914.00 5864.07 76.90
1797 33.7280 5724.00 5765.43 75.66
1798 33.7423 5798.00 5679.63 76.14
1799 33.7566 5493.00 5608.18 74.11
1800 33.7709 5685.00 5548.05 75.40
1801 33.7852 5545.00 5497.71 74.46
1802 33.7996 5526.00 5455.78 74.34
1803 33.8139 5444.00 5421.86 73.78
1804 33.8282 5429.00 5394.74 73.68
1805 33.8425 5484.00 5373.60 74.05
1806 33.8569 5406.00 5357.91 73.53
1807 33.8712 5194.00 5347.22 72.07
1808 33.8855 5379.00 5340.90 73.34
1809 33.8998 5362.00 5338.48 73.23
1810 33.9141 5269.00 5339.48 72.59
1811 33.9285 5413.00 5343.46 73.57
1812 33.9428 5359.00 5349.87 73.21
1813 33.9571 5376.00 5358.21 73.32
1814 33.9714 5481.00 5368.09 74.03
1815 33.9858 5295.00 5379.29 72.77
1816 34.0001 5329.00 5391.58 73.00
1817 34.0144 5354.00 5405.08 73.17
1818 34.0287 5398.00 5419.90 73.47
1819 34.0430 5308.00 5436.07 72.86
1820 34.0574 5473.00 5453.69 73.98
1821 34.0717 5342.00 5472.48 73.09
1822 34.0860 5468.00 5492.67 73.95
1823 34.1003 5589.00 5514.66 74.76
1824 34.1147 5488.00 5539.51 74.08
1825 34.1290 5654.00 5568.17 75.19
1826 34.1433 5662.00 5602.49 75.25
1827 34.1576 5401.00 5646.23 73.49
1828 34.1719 5658.00 5698.91 75.22
1829 34.1863 5865.00 5761.32 76.58
1830 34.2006 5931.00 5835.52 77.01
1831 34.2149 5855.00 5922.89 76.52
1832 34.2292 5979.00 6023.92 77.32
1833 34.2436 6288.00 6139.06 79.30
1834 34.2579 6299.00 6266.86 79.37
1835 34.2722 6502.00 6401.53 80.64
1836 34.2865 6656.00 6539.72 81.58
1837 34.3008 6725.00 6674.29 82.01
1838 34.3152 6887.00 6797.31 82.99
1839 34.3295 6872.00 6891.17 82.90
1840 34.3438 6917.00 6961.01 83.17
1841 34.3581 7006.00 6995.43 83.70
1842 34.3725 6965.00 6993.71 83.46
1843 34.3868 6891.00 6959.45 83.01
1844 34.4011 6851.00 6898.56 82.77
1845 34.4154 6896.00 6813.74 83.04
1846 34.4297 6706.00 6716.11 81.89
1847 34.4441 6445.00 6606.05 80.28
1848 34.4584 6583.00 6489.72 81.14
1849 34.4727 6426.00 6371.83 80.16
1850 34.4870 6232.00 6259.54 78.94
1851 34.5013 6316.00 6156.31 79.47
1852 34.5157 6173.00 6067.29 78.57
1853 34.5300 5934.00 5996.97 77.03
1854 34.5443 5944.00 5946.51 77.10
1855 34.5586 5855.00 5916.44 76.52
1856 34.5730 5846.00 5906.80 76.46
1857 34.5873 5934.00 5915.12 77.03
1858 34.6016 5935.00 5939.15 77.04
1859 34.6159 5901.00 5975.05 76.82
1860 34.6302 6005.00 6017.64 77.49
1861 34.6446 6050.00 6060.71 77.78
1862 34.6589 6053.00 6096.27 77.80
1863 34.6732 6091.00 6117.66 78.04
1864 34.6875 6167.00 6119.86 78.53
1865 34.7019 6048.00 6100.93 77.77
1866 34.7162 5915.00 6062.73 76.91
1867 34.7305 6121.00 6008.72 78.24
1868 34.7448 5974.00 5942.49 77.29
1869 34.7591 5823.00 5866.61 76.31
1870 34.7735 5806.00 5786.66 76.20
1871 34.7878 5706.00 5697.00 75.54
1872 34.8021 5440.00 5603.88 73.76
1873 34.8164 5611.00 5510.54 74.91
1874 34.8308 5454.00 5419.61 73.85
1875 34.8451 5336.00 5334.87 73.05
1876 34.8594 5386.00 5258.84 73.39
1877 34.8737 5196.00 5189.69 72.08
1878 34.8880 5279.00 5127.85 72.66
1879 34.9024 4953.00 5073.13 70.38
1880 34.9167 5030.00 5025.65 70.92
1881 34.9310 4995.00 4984.33 70.68
1882 34.9453 4999.00 4948.45 70.70
1883 34.9597 5004.00 4917.15 70.74
1884 34.9740 4951.00 4890.22 70.36
1885 34.9883 4864.00 4866.89 69.74
1886 35.0026 4843.00 4846.63 69.59
1887 35.0169 4861.00 4828.91 69.72
1888 35.0313 4754.00 4813.41 68.95
1889 35.0456 4902.00 4799.89 70.01
1890 35.0599 4763.00 4787.96 69.01
1891 35.0742 4734.00 4777.35 68.80
1892 35.0886 4663.00 4767.81 68.29
1893 35.1029 4800.00 4759.24 69.28
1894 35.1172 4819.00 4751.51 69.42
1895 35.1315 4718.00 4744.45 68.69
1896 35.1458 4819.00 4737.96 69.42
1897 35.1602 4569.00 4731.92 67.59
1898 35.1745 4657.00 4726.35 68.24
1899 35.1888 4718.00 4721.15 68.69
1900 35.2031 4753.00 4716.28 68.94
1901 35.2175 4698.00 4716.48 68.54
1902 35.2318 4708.00 4712.29 68.61
1903 35.2461 4758.00 4708.39 68.98
1904 35.2604 4716.00 4704.79 68.67
1905 35.2747 4685.00 4701.50 68.45
1906 35.2891 4957.00 4698.54 70.41
1907 35.3034 4813.00 4700.36 69.38
1908 35.3177 4803.00 4698.25 69.30
1909 35.3320 4749.00 4696.58 68.91
1910 35.3464 4665.00 4695.39 68.30
1911 35.3607 4659.00 4694.74 68.26
1912 35.3750 4669.00 4694.66 68.33
1913 35.3893 4615.00 4696.19 67.93
1914 35.4036 4613.00 4691.46 67.92
1915 35.4180 4568.00 4693.48 67.59
1916 35.4323 4751.00 4696.21 68.93
1917 35.4466 4620.00 4699.69 67.97
1918 35.4609 4664.00 4703.93 68.29
1919 35.4753 4791.00 4709.03 69.22
1920 35.4896 4718.00 4711.12 68.69
1921 35.5039 4624.00 4719.03 68.00
1922 35.5182 4747.00 4745.21 68.90
1923 35.5325 4689.00 4754.91 68.48
1924 35.5469 4760.00 4766.45 68.99
1925 35.5612 4762.00 4780.18 69.01
1926 35.5755 4740.00 4796.88 68.85
1927 35.5898 4784.00 4817.49 69.17
1928 35.6042 4783.00 4843.39 69.16
1929 35.6185 4881.00 4884.62 69.86
1930 35.6328 4907.00 4925.31 70.05
1931 35.6471 4923.00 4976.27 70.16
1932 35.6614 5018.00 5039.58 70.84
1933 35.6758 5116.00 5117.90 71.53
1934 35.6901 5127.00 5211.95 71.60
1935 35.7044 5416.00 5323.36 73.59
1936 35.7187 5340.00 5452.18 73.08
1937 35.7331 5458.00 5598.26 73.88
1938 35.7474 5667.00 5756.08 75.28
1939 35.7617 5883.00 5920.98 76.70
1940 35.7760 6103.00 6084.51 78.12
1941 35.7903 6202.00 6235.40 78.75
1942 35.8047 6488.00 6361.69 80.55
1943 35.8190 6458.00 6450.05 80.36
1944 35.8333 6475.00 6494.36 80.47
1945 35.8476 6531.00 6494.46 80.81
1946 35.8620 6578.00 6455.80 81.10
1947 35.8763 6336.00 6387.44 79.60
1948 35.8906 6270.00 6296.53 79.18
1949 35.9049 6241.00 6187.48 79.00
1950 35.9192 6042.00 6062.84 77.73
1951 35.9336 6018.00 5924.59 77.58
1952 35.9479 5784.00 5779.57 76.05
1953 35.9622 5571.00 5633.37 74.64
1954 35.9765 5599.00 5492.27 74.83
1955 35.9909 5279.00 5360.55 72.66
1956 36.0052 5158.00 5242.83 71.82
1957 36.0195 5198.00 5139.84 72.10
1958 36.0338 4937.00 5051.86 70.26
1959 36.0481 4994.00 4977.01 70.67
1960 36.0625 4911.00 4914.24 70.08
1961 36.0768 4802.00 4863.24 69.30
1962 36.0911 4785.00 4822.37 69.17
1963 36.1054 4788.00 4790.43 69.20
1964 36.1198 4828.00 4766.90 69.48
1965 36.1341 4813.00 4750.67 69.38
1966 36.1484 4794.00 4741.19 69.24
1967 36.1627 4785.00 4738.01 69.17
1968 36.1770 4680.00 4740.81 68.41
1969 36.1914 4665.00 4749.49 68.30
1970 36.2057 4823.00 4763.79 69.45
1971 36.2200 4894.00 4783.70 69.96
1972 36.2343 4837.00 4809.10 69.55
1973 36.2486 4912.00 4839.73 70.09
1974 36.2630 4775.00 4875.45 69.10
1975 36.2773 5084.00 4910.89 71.30
1976 36.2916 5045.00 4953.42 71.03
1977 36.3059 5072.00 4997.26 71.22
1978 36.3203 5116.00 5040.53 71.53
1979 36.3346 5136.00 5081.02 71.67
1980 36.3489 5102.00 5114.35 71.43
1981 36.3632 5095.00 5140.38 71.38
1982 36.3775 5123.00 5155.14 71.58
1983 36.3919 5190.00 5161.04 72.04
1984 36.4062 5202.00 5158.70 72.12
1985 36.4205 5125.00 5149.98 71.59
1986 36.4348 5179.00 5137.03 71.97
1987 36.4492 5041.00 5120.53 71.00
1988 36.4635 4989.00 5101.87 70.63
1989 36.4778 5082.00 5081.20 71.29
1990 36.4921 5132.00 5058.44 71.64
1991 36.5064 4996.00 5040.05 70.68
1992 36.5208 4948.00 5025.56 70.34
1993 36.5351 5028.00 5016.95 70.91
1994 36.5494 5052.00 5015.65 71.08
1995 36.5637 5088.00 5022.93 71.33
1996 36.5781 5044.00 5042.82 71.02
1997 36.5924 5101.00 5069.33 71.42
1998 36.6067 5075.00 5108.46 71.24
1999 36.6210 5275.00 5159.79 72.63
2000 36.6353 5253.00 5223.93 72.48
2001 36.6497 5387.00 5301.81 73.40
2002 36.6640 5268.00 5392.29 72.58
2003 36.6783 5513.00 5496.72 74.25
2004 36.6926 5675.00 5610.92 75.33
2005 36.7070 5782.00 5734.92 76.04
2006 36.7213 5872.00 5863.51 76.63
2007 36.7356 5940.00 5992.69 77.07
2008 36.7499 6134.00 6116.74 78.32
2009 36.7642 6354.00 6229.20 79.71
2010 36.7786 6166.00 6324.97 78.52
2011 36.7929 6282.00 6398.24 79.26
2012 36.8072 6393.00 6448.41 79.96
2013 36.8215 6573.00 6476.34 81.07
2014 36.8359 6473.00 6484.26 80.46
2015 36.8502 6321.00 6474.29 79.50
2016 36.8645 6388.00 6447.89 79.93
2017 36.8788 6376.00 6405.85 79.85
2018 36.8931 6324.00 6348.85 79.52
2019 36.9075 6188.00 6278.44 78.66
2020 36.9218 6170.00 6199.01 78.55
2021 36.9361 6233.00 6114.58 78.95
2022 36.9504 6111.00 6029.64 78.17
2023 36.9648 5877.00 5947.66 76.66
2024 36.9791 5882.00 5872.95 76.69
2025 36.9934 5851.00 5807.20 76.49
2026 37.0077 5668.00 5752.37 75.29
2027 37.0220 5642.00 5710.28 75.11
2028 37.0364 5614.00 5682.55 74.93
2029 37.0507 5724.00 5671.40 75.66
2030 37.0650 5615.00 5678.29 74.93
2031 37.0793 5687.00 5704.65 75.41
2032 37.0937 5793.00 5751.98 76.11
2033 37.1080 5827.00 5820.28 76.33
2034 37.1223 5931.00 5909.94 77.01
2035 37.1366 6009.00 6020.33 77.52
2036 37.1509 6213.00 6150.00 78.82
2037 37.1653 6453.00 6297.52 80.33
2038 37.1796 6538.00 6459.74 80.86
2039 37.1939 6651.00 6627.62 81.55
2040 37.2082 6888.00 6798.45 82.99
2041 37.2226 7127.00 6968.27 84.42
2042 37.2369 7171.00 7130.42 84.68
2043 37.2512 7528.00 7282.96 86.76
2044 37.2655 7537.00 7422.77 86.82
2045 37.2798 7970.00 7547.39 89.27
2046 37.2942 8089.00 7649.63 89.94
2047 37.3085 7948.00 7723.50 89.15
2048 37.3228 8055.00 7765.09 89.75
2049 37.3371 8022.00 7772.68 89.57
2050 37.3515 8059.00 7748.25 89.77
2051 37.3658 7954.00 7697.18 89.19
2052 37.3801 7976.00 7625.91 89.31
2053 37.3944 7817.00 7539.92 88.41
2054 37.4087 7677.00 7442.64 87.62
2055 37.4231 7488.00 7334.95 86.53
2056 37.4374 7341.00 7218.69 85.68
2057 37.4517 7092.00 7093.55 84.21
2058 37.4660 7052.00 6960.25 83.98
2059 37.4804 6940.00 6819.26 83.31
2060 37.4947 6793.00 6672.98 82.42
2061 37.5090 6566.00 6525.70 81.03
2062 37.5233 6468.00 6381.67 80.42
2063 37.5376 6239.00 6241.76 78.99
2064 37.5520 6076.00 6106.85 77.95
2065 37.5663 5986.00 5979.63 77.37
2066 37.5806 5906.00 5859.53 76.85
2067 37.5949 5859.00 5746.00 76.54
2068 37.6093 5733.00 5640.03 75.72
2069 37.6236 5534.00 5544.58 74.39
2070 37.6379 5584.00 5458.95 74.73
2071 37.6522 5492.00 5383.78 74.11
2072 37.6665 5376.00 5319.48 73.32
2073 37.6809 5409.00 5265.62 73.55
2074 37.6952 5399.00 5222.67 73.48
2075 37.7095 5300.00 5189.73 72.80
2076 37.7238 5378.00 5166.19 73.33
2077 37.7382 5307.00 5151.39 72.85
2078 37.7525 5195.00 5145.00 72.08
2079 37.7668 5173.00 5146.44 71.92
2080 37.7811 5219.00 5155.36 72.24
2081 37.7954 5339.00 5171.59 73.07
2082 37.8098 5174.00 5195.29 71.93
2083 37.8241 5473.00 5226.26 73.98
2084 37.8384 5424.00 5264.94 73.65
2085 37.8527 5514.00 5311.83 74.26
2086 37.8671 5488.00 5367.98 74.08
2087 37.8814 5703.00 5433.31 75.52
2088 37.8957 5709.00 5509.00 75.56
2089 37.9100 5724.00 5595.72 75.66
2090 37.9243 5880.00 5694.05 76.68
2091 37.9387 6040.00 5805.07 77.72
2092 37.9530 6034.00 5927.06 77.68
2093 37.9673 6098.00 6059.92 78.09
2094 37.9816 6262.00 6202.36 79.13
2095 37.9960 6494.00 6353.23 80.59
2096 38.0103 6463.00 6507.72 80.39
2097 38.0246 6551.00 6664.44 80.94
2098 38.0389 6801.00 6821.84 82.47
2099 38.0532 6785.00 6980.47 82.37
2100 38.0676 7137.00 7144.12 84.48
2101 38.0819 7193.00 7314.33 84.81
2102 38.0962 7331.00 7496.05 85.62
2103 38.1105 7589.00 7694.56 87.11
2104 38.1248 7691.00 7906.42 87.70
2105 38.1392 7910.00 8136.76 88.94
2106 38.1535 8340.00 8382.78 91.32
2107 38.1678 8449.00 8646.26 91.92
2108 38.1821 8872.00 8927.76 94.19
2109 38.1965 9329.00 9227.38 96.59
2110 38.2108 9446.00 9541.85 97.19
2111 38.2251 9993.00 9869.96 99.96
2112 38.2394 10268.00 10211.50 101.33
2113 38.2537 10686.00 10565.30 103.37
2114 38.2681 11085.00 10927.50 105.29
2115 38.2824 11418.00 11289.00 106.86
2116 38.2967 11842.00 11640.20 108.82
2117 38.3110 12364.00 11968.40 111.19
2118 38.3254 12325.00 12262.10 111.02
2119 38.3397 12470.00 12506.70 111.67
2120 38.3540 12868.00 12697.70 113.44
2121 38.3683 13004.00 12830.00 114.04
2122 38.3826 12769.00 12902.20 113.00
2123 38.3970 12897.00 12910.00 113.57
2124 38.4113 12497.00 12849.60 111.79
2125 38.4256 12560.00 12719.40 112.07
2126 38.4399 12075.00 12521.20 109.89
2127 38.4543 11913.00 12259.00 109.15
2128 38.4686 11846.00 11946.20 108.84
2129 38.4829 11429.00 11592.20 106.91
2130 38.4972 11261.00 11208.20 106.12
2131 38.5115 10949.00 10803.70 104.64
2132 38.5259 10692.00 10385.10 103.40
2133 38.5402 10513.00 9965.61 102.53
2134 38.5545 10207.00 9549.53 101.03
2135 38.5688 9862.00 9143.42 99.31
2136 38.5832 9065.00 8751.06 95.21
2137 38.5975 8652.00 8379.94 93.02
2138 38.6118 8389.00 8031.42 91.59
2139 38.6261 7981.00 7707.26 89.34
2140 38.6404 7660.00 7408.11 87.52
2141 38.6548 7260.00 7133.17 85.21
2142 38.6691 7050.00 6882.82 83.96
2143 38.6834 6586.00 6655.66 81.15
2144 38.6977 6396.00 6450.79 79.97
2145 38.7121 6069.00 6262.29 77.90
2146 38.7264 5883.00 6092.92 76.70
2147 38.7407 5586.00 5939.84 74.74
2148 38.7550 5323.00 5802.04 72.96
2149 38.7693 5459.00 5677.03 73.89
2150 38.7837 5159.00 5563.36 71.83
2151 38.7980 5232.00 5462.32 72.33
2152 38.8123 5082.00 5370.20 71.29
2153 38.8266 5089.00 5283.64 71.34
2154 38.8410 5073.00 5207.56 71.22
2155 38.8553 5084.00 5138.93 71.30
2156 38.8696 5021.00 5076.50 70.86
2157 38.8839 4925.00 5019.90 70.18
2158 38.8982 4772.00 4969.07 69.08
2159 38.9126 4854.00 4925.89 69.67
2160 38.9269 4785.00 4885.25 69.17
2161 38.9412 4941.00 4852.62 70.29
2162 38.9555 4728.00 4826.87 68.76
2163 38.9699 4706.00 4808.42 68.60
2164 38.9842 4788.00 4798.14 69.20
2165 38.9985 4736.00 4796.53 68.82
2166 39.0128 4724.00 4805.56 68.73
2167 39.0271 4809.00 4823.52 69.35
2168 39.0415 4831.00 4851.30 69.51
2169 39.0558 4937.00 4891.11 70.26
2170 39.0701 4929.00 4941.90 70.21
2171 39.0844 4992.00 5003.09 70.65
2172 39.0988 5158.00 5073.98 71.82
2173 39.1131 5158.00 5151.55 71.82
2174 39.1274 5135.00 5233.19 71.66
2175 39.1417 5383.00 5314.27 73.37
2176 39.1560 5418.00 5390.85 73.61
2177 39.1704 5389.00 5455.02 73.41
2178 39.1847 5435.00 5504.34 73.72
2179 39.1990 5453.00 5533.09 73.84
2180 39.2133 5412.00 5539.32 73.57
2181 39.2277 5432.00 5523.58 73.70
2182 39.2420 5521.00 5488.83 74.30
2183 39.2563 5281.00 5438.54 72.67
2184 39.2706 5303.00 5374.93 72.82
2185 39.2849 5177.00 5302.14 71.95
2186 39.2993 5083.00 5220.22 71.30
2187 39.3136 5076.00 5131.78 71.25
2188 39.3279 4972.00 5039.14 70.51
2189 39.3422 4831.00 4943.39 69.51
2190 39.3566 4785.00 4847.51 69.17
2191 39.3709 4580.00 4755.49 67.68
2192 39.3852 4620.00 4668.76 67.97
2193 39.3995 4517.00 4588.53 67.21
2194 39.4138 4460.00 4515.50 66.78
2195 39.4282 4545.00 4449.69 67.42
2196 39.4425 4388.00 4391.06 66.24
2197 39.4568 4315.00 4334.38 65.69
2198 39.4711 4355.00 4288.64 65.99
2199 39.4855 4248.00 4248.56 65.18
2200 39.4998 4205.00 4213.55 64.85
2201 39.5141 4219.00 4183.12 64.95
2202 39.5284 4102.00 4156.83 64.05
2203 39.5427 4069.00 4134.22 63.79
2204 39.5571 4184.00 4112.47 64.68
2205 39.5714 3960.00 4094.33 62.93
2206 39.5857 3974.00 4080.88 63.04
2207 39.6000 4098.00 4069.63 64.02
2208 39.6144 4027.00 4060.47 63.46
2209 39.6287 4063.00 4053.35 63.74
2210 39.6430 4039.00 4048.02 63.55
2211 39.6573 4070.00 4044.83 63.80
2212 39.6716 4040.00 4041.98 63.56
2213 39.6860 4062.00 4041.75 63.73
2214 39.7003 3959.00 4043.28 62.92
2215 39.7146 4033.00 4046.72 63.51
2216 39.7289 3909.00 4051.18 62.52
2217 39.7433 3993.00 4059.22 63.19
2218 39.7576 4001.00 4070.17 63.25
2219 39.7719 4000.00 4084.08 63.25
2220 39.7862 4108.00 4101.62 64.09
2221 39.8005 4102.00 4123.28 64.05
2222 39.8149 3841.00 4149.67 61.98
2223 39.8292 4123.00 4180.82 64.21
2224 39.8435 4153.00 4216.55 64.44
2225 39.8578 4210.00 4257.99 64.88
2226 39.8722 4282.00 4304.44 65.44
2227 39.8865 4298.00 4354.63 65.56
2228 39.9008 4413.00 4407.68 66.43
2229 39.9151 4429.00 4463.02 66.55
2230 39.9294 4565.00 4516.67 67.56
2231 39.9438 4472.00 4568.21 66.87
2232 39.9581 4648.00 4615.65 68.18
2233 39.9724 4599.00 4658.86 67.82
2234 39.9867 4653.00 4697.99 68.21
2235 40.0010 4778.00 4733.20 69.12
2236 40.0154 4656.00 4764.92 68.23
2237 40.0297 4902.00 4790.78 70.01
2238 40.0440 4808.00 4810.65 69.34
2239 40.0583 4819.00 4823.42 69.42
2240 40.0727 4916.00 4832.31 70.11
2241 40.0870 4821.00 4835.69 69.43
2242 40.1013 4831.00 4840.47 69.51
2243 40.1156 4846.00 4848.88 69.61
2244 40.1299 4989.00 4860.76 70.63
2245 40.1443 4762.00 4876.78 69.01
2246 40.1586 4894.00 4897.05 69.96
2247 40.1729 5008.00 4921.75 70.77
2248 40.1872 4821.00 4950.99 69.43
2249 40.2016 5011.00 4990.01 70.79
2250 40.2159 4995.00 5037.36 70.68
2251 40.2302 5026.00 5096.45 70.89
2252 40.2445 5255.00 5167.15 72.49
2253 40.2588 5313.00 5249.97 72.89
2254 40.2732 5518.00 5344.96 74.28
2255 40.2875 5445.00 5449.05 73.79
2256 40.3018 5667.00 5561.30 75.28
2257 40.3161 5656.00 5678.83 75.21
2258 40.3305 5828.00 5799.68 76.34
2259 40.3448 6045.00 5919.46 77.75
2260 40.3591 5953.00 6036.00 77.16
2261 40.3734 6079.00 6146.68 77.97
2262 40.3877 6202.00 6248.27 78.75
2263 40.4021 6197.00 6337.62 78.72
2264 40.4164 6264.00 6409.71 79.15
2265 40.4307 6393.00 6462.41 79.96
2266 40.4450 6429.00 6491.68 80.18
2267 40.4594 6389.00 6497.44 79.93
2268 40.4737 6425.00 6481.00 80.16
2269 40.4880 6431.00 6446.03 80.19
2270 40.5023 6412.00 6399.18 80.07
2271 40.5166 6041.00 6341.84 77.72
2272 40.5310 6191.00 6279.23 78.68
2273 40.5453 6143.00 6213.37 78.38
2274 40.5596 6128.00 6145.10 78.28
2275 40.5739 5940.00 6074.69 77.07
2276 40.5883 5960.00 6003.58 77.20
2277 40.6026 5938.00 5936.88 77.06
2278 40.6169 5750.00 5876.61 75.83
2279 40.6312 5765.00 5827.50 75.93
2280 40.6455 5821.00 5791.75 76.30
2281 40.6599 5713.00 5768.98 75.58
2282 40.6742 5726.00 5756.40 75.67
2283 40.6885 5862.00 5748.89 76.56
2284 40.7028 5911.00 5740.08 76.88
2285 40.7172 5858.00 5723.13 76.54
2286 40.7315 5990.00 5692.36 77.40
2287 40.7458 5948.00 5643.91 77.12
2288 40.7601 5826.00 5577.07 76.33
2289 40.7744 5562.00 5494.29 74.58
2290 40.7888 5498.00 5399.18 74.15
2291 40.8031 5492.00 5297.37 74.11
2292 40.8174 5320.00 5191.08 72.94
2293 40.8317 5271.00 5081.48 72.60
2294 40.8461 5083.00 4967.87 71.30
2295 40.8604 4847.00 4854.17 69.62
2296 40.8747 4814.00 4736.85 69.38
2297 40.8890 4781.00 4621.08 69.14
2298 40.9033 4716.00 4508.75 68.67
2299 40.9177 4438.00 4402.52 66.62
2300 40.9320 4427.00 4305.86 66.54
2301 40.9463 4141.00 4218.93 64.35
2302 40.9606 4169.00 4141.96 64.57
2303 40.9750 4178.00 4075.20 64.64
2304 40.9893 3964.00 4016.63 62.96
2305 41.0036 4073.00 3966.59 63.82
2306 41.0179 3902.00 3923.56 62.47
2307 41.0322 3869.00 3886.85 62.20
2308 41.0466 3914.00 3855.74 62.56
2309 41.0609 3787.00 3829.87 61.54
2310 41.0752 3759.00 3808.36 61.31
2311 41.0895 3753.00 3790.58 61.26
2312 41.1039 3792.00 3776.12 61.58
2313 41.1182 3542.00 3764.67 59.51
2314 41.1325 3745.00 3755.76 61.20
2315 41.1468 3687.00 3749.08 60.72
2316 41.1611 3782.00 3744.53 61.50
2317 41.1755 3749.00 3741.94 61.23
2318 41.1898 3565.00 3741.29 59.71
2319 41.2041 3791.00 3742.57 61.57
2320 41.2184 3613.00 3745.87 60.11
2321 41.2328 3679.00 3751.36 60.65
2322 41.2471 3624.00 3756.44 60.20
2323 41.2614 3697.00 3766.72 60.80
2324 41.2757 3727.00 3781.48 61.05
2325 41.2900 3725.00 3797.31 61.03
2326 41.3044 3885.00 3816.27 62.33
2327 41.3187 3867.00 3820.21 62.19
2328 41.3330 3801.00 3845.25 61.65
2329 41.3473 3899.00 3871.80 62.44
2330 41.3617 3840.00 3902.40 61.97
2331 41.3760 3898.00 3935.65 62.43
2332 41.3903 3913.00 3969.41 62.55
2333 41.4046 3859.00 4003.91 62.12
2334 41.4189 3975.00 4029.76 63.05
2335 41.4333 3956.00 4064.69 62.90
2336 41.4476 4095.00 4098.96 63.99
2337 41.4619 4133.00 4132.40 64.29
2338 41.4762 4043.00 4164.59 63.58
2339 41.4906 4107.00 4193.90 64.09
2340 41.5049 4215.00 4218.66 64.92
2341 41.5192 4257.00 4237.45 65.25
2342 41.5335 4260.00 4248.93 65.27
2343 41.5478 4124.00 4252.33 64.22
2344 41.5622 4232.00 4247.58 65.05
2345 41.5765 4217.00 4235.52 64.94
2346 41.5908 4182.00 4217.57 64.67
2347 41.6051 4121.00 4195.01 64.19
2348 41.6195 4184.00 4169.39 64.68
2349 41.6338 3976.00 4142.38 63.06
2350 41.6481 4084.00 4114.92 63.91
2351 41.6624 4093.00 4087.96 63.98
2352 41.6767 4076.00 4062.46 63.84
2353 41.6911 4039.00 4039.34 63.55
2354 41.7054 4005.00 4020.09 63.29
2355 41.7197 4051.00 4005.68 63.65
2356 41.7340 3978.00 3996.36 63.07
2357 41.7484 3974.00 3994.04 63.04
2358 41.7627 4098.00 3998.15 64.02
2359 41.7770 4029.00 4008.22 63.47
2360 41.7913 3989.00 4023.27 63.16
2361 41.8056 4063.00 4041.80 63.74
2362 41.8200 4173.00 4061.95 64.60
2363 41.8343 4100.00 4081.03 64.03
2364 41.8486 4128.00 4095.66 64.25
2365 41.8629 4132.00 4105.56 64.28
2366 41.8772 4158.00 4108.24 64.48
2367 41.8916 4097.00 4103.26 64.01
2368 41.9059 4018.00 4091.44 63.39
2369 41.9202 3978.00 4074.18 63.07
2370 41.9345 4002.00 4052.95 63.26
2371 41.9489 4060.00 4028.65 63.72
2372 41.9632 3986.00 4001.80 63.13
2373 41.9775 3977.00 3973.12 63.06
2374 41.9918 3985.00 3942.53 63.13
2375 42.0061 3762.00 3910.54 61.34
2376 42.0205 3808.00 3877.82 61.71
2377 42.0348 3829.00 3845.89 61.88
2378 42.0491 3696.00 3815.50 60.79
2379 42.0634 3772.00 3787.43 61.42
2380 42.0778 3769.00 3761.95 61.39
2381 42.0921 3858.00 3739.64 62.11
2382 42.1064 3628.00 3720.36 60.23
2383 42.1207 3645.00 3704.09 60.37
2384 42.1350 3766.00 3690.77 61.37
2385 42.1494 3633.00 3680.28 60.27
2386 42.1637 3578.00 3672.72 59.82
2387 42.1780 3680.00 3667.99 60.66
2388 42.1923 3649.00 3666.08 60.41
2389 42.2067 3666.00 3667.07 60.55
2390 42.2210 3737.00 3671.04 61.13
2391 42.2353 3663.00 3681.62 60.52
2392 42.2496 3684.00 3690.42 60.70
2393 42.2639 3665.00 3703.44 60.54
2394 42.2783 3728.00 3721.22 61.06
2395 42.2926 3701.00 3743.61 60.84
2396 42.3069 3759.00 3770.48 61.31
2397 42.3212 3829.00 3802.03 61.88
2398 42.3356 3864.00 3838.69 62.16
2399 42.3499 3776.00 3881.63 61.45
2400 42.3642 3825.00 3926.78 61.85
2401 42.3785 3849.00 3976.40 62.04
2402 42.3928 3841.00 4030.81 61.98
2403 42.4072 4002.00 4089.02 63.26
2404 42.4215 4024.00 4149.45 63.44
2405 42.4358 4129.00 4211.53 64.26
2406 42.4501 4233.00 4274.29 65.06
2407 42.4645 4344.00 4337.16 65.91
2408 42.4788 4317.00 4398.57 65.70
2409 42.4931 4284.00 4458.15 65.45
2410 42.5074 4400.00 4515.77 66.33
2411 42.5217 4485.00 4571.10 66.97
2412 42.5361 4567.00 4622.60 67.58
2413 42.5504 4547.00 4671.18 67.43
2414 42.5647 4739.00 4712.98 68.84
2415 42.5790 4646.00 4746.04 68.16
2416 42.5934 4647.00 4765.07 68.17
2417 42.6077 4697.00 4776.00 68.53
2418 42.6220 4749.00 4775.88 68.91
2419 42.6363 4798.00 4767.67 69.27
2420 42.6506 4818.00 4751.82 69.41
2421 42.6650 4600.00 4733.82 67.82
2422 42.6793 4577.00 4715.63 67.65
2423 42.6936 4691.00 4698.45 68.49
2424 42.7079 4796.00 4685.27 69.25
2425 42.7223 4693.00 4677.91 68.51
2426 42.7366 4546.00 4676.83 67.42
2427 42.7509 4679.00 4683.94 68.40
2428 42.7652 4666.00 4698.25 68.31
2429 42.7795 4657.00 4720.77 68.24
2430 42.7939 4757.00 4750.86 68.97
2431 42.8082 4774.00 4786.04 69.09
2432 42.8225 4913.00 4823.22 70.09
2433 42.8368 4873.00 4858.11 69.81
2434 42.8512 4898.00 4886.13 69.99
2435 42.8655 4990.00 4902.70 70.64
2436 42.8798 5155.00 4904.55 71.80
2437 42.8941 4927.00 4890.74 70.19
2438 42.9084 5046.00 4861.78 71.04
2439 42.9228 4870.00 4819.72 69.79
2440 42.9371 4887.00 4767.27 69.91
2441 42.9514 4813.00 4706.16 69.38
2442 42.9657 4689.00 4637.82 68.48
2443 42.9801 4545.00 4562.65 67.42
2444 42.9944 4571.00 4482.70 67.61
2445 43.0087 4408.00 4398.71 66.39
2446 43.0230 4340.00 4312.65 65.88
2447 43.0373 4175.00 4226.62 64.61
2448 43.0517 4301.00 4142.17 65.58
2449 43.0660 4056.00 4062.36 63.69
2450 43.0803 3876.00 3988.12 62.26
2451 43.0946 3933.00 3920.35 62.71
2452 43.1090 3874.00 3859.22 62.24
2453 43.1233 3911.00 3805.72 62.54
2454 43.1376 3760.00 3759.33 61.32
2455 43.1519 3736.00 3719.72 61.12
2456 43.1662 3708.00 3686.62 60.89
2457 43.1806 3641.00 3659.52 60.34
2458 43.1949 3729.00 3638.49 61.07
2459 43.2092 3601.00 3623.13 60.01
2460 43.2235 3556.00 3613.27 59.63
2461 43.2379 3728.00 3609.36 61.06
2462 43.2522 3724.00 3610.40 61.02
2463 43.2665 3761.00 3616.92 61.33
2464 43.2808 3572.00 3629.05 59.77
2465 43.2951 3788.00 3646.93 61.55
2466 43.3095 3599.00 3671.15 59.99
2467 43.3238 3769.00 3701.02 61.39
2468 43.3381 3758.00 3736.95 61.30
2469 43.3524 3836.00 3779.12 61.94
2470 43.3668 3766.00 3826.74 61.37
2471 43.3811 3840.00 3879.45 61.97
2472 43.3954 3954.00 3936.36 62.88
2473 43.4097 3997.00 3996.10 63.22
2474 43.4240 4069.00 4056.96 63.79
2475 43.4384 4165.00 4116.79 64.54
2476 43.4527 4034.00 4172.12 63.51
2477 43.4670 4292.00 4220.30 65.51
2478 43.4813 4320.00 4259.37 65.73
2479 43.4957 4302.00 4286.36 65.59
2480 43.5100 4343.00 4299.85 65.90
2481 43.5243 4249.00 4300.90 65.18
2482 43.5386 4401.00 4290.03 66.34
2483 43.5529 4151.00 4268.64 64.43
2484 43.5673 4193.00 4238.03 64.75
2485 43.5816 4211.00 4200.01 64.89
2486 43.5959 4278.00 4155.68 65.41
2487 43.6102 4028.00 4105.42 63.47
2488 43.6245 3943.00 4050.93 62.79
2489 43.6389 3978.00 3992.72 63.07
2490 43.6532 3949.00 3932.98 62.84
2491 43.6675 3896.00 3873.13 62.42
2492 43.6818 3786.00 3813.78 61.53
2493 43.6962 3756.00 3756.13 61.29
2494 43.7105 3667.00 3701.89 60.56
2495 43.7248 3623.00 3651.32 60.19
2496 43.7391 3549.00 3604.80 59.57
2497 43.7534 3640.00 3561.69 60.33
2498 43.7678 3455.00 3523.23 58.78
2499 43.7821 3520.00 3489.17 59.33
2500 43.7964 3504.00 3458.63 59.19
2501 43.8107 3403.00 3432.71 58.34
2502 43.8251 3481.00 3408.60 59.00
2503 43.8394 3415.00 3387.50 58.44
2504 43.8537 3374.00 3367.91 58.09
2505 43.8680 3387.00 3351.40 58.20
2506 43.8823 3297.00 3337.27 57.42
2507 43.8967 3367.00 3324.92 58.03
2508 43.9110 3387.00 3314.30 58.20
2509 43.9253 3354.00 3305.73 57.91
2510 43.9396 3289.00 3297.86 57.35
2511 43.9540 3316.00 3291.09 57.58
2512 43.9683 3386.00 3284.84 58.19
2513 43.9826 3287.00 3280.02 57.33
2514 43.9969 3393.00 3275.95 58.25
2515 44.0112 3387.00 3272.56 58.20
2516 44.0256 3371.00 3269.77 58.06
2517 44.0399 3308.00 3267.52 57.52
2518 44.0542 3324.00 3265.77 57.65
2519 44.0685 3257.00 3264.45 57.07
2520 44.0829 3195.00 3263.51 56.52
2521 44.0972 3269.00 3263.05 57.18
2522 44.1115 3300.00 3262.83 57.45
2523 44.1258 3259.00 3262.95 57.09
2524 44.1401 3256.00 3263.38 57.06
2525 44.1545 3270.00 3264.14 57.18
2526 44.1688 3315.00 3265.18 57.58
2527 44.1831 3271.00 3266.52 57.19
2528 44.1974 3260.00 3268.17 57.10
2529 44.2118 3332.00 3270.18 57.72
2530 44.2261 3235.00 3272.45 56.88
2531 44.2404 3211.00 3275.05 56.67
2532 44.2547 3334.00 3278.00 57.74
2533 44.2690 3371.00 3281.32 58.06
2534 44.2834 3309.00 3289.87 57.52
2535 44.2977 3378.00 3294.01 58.12
2536 44.3120 3334.00 3298.59 57.74
2537 44.3263 3255.00 3303.66 57.05
2538 44.3407 3294.00 3309.32 57.39
2539 44.3550 3319.00 3315.48 57.61
2540 44.3693 3342.00 3322.45 57.81
2541 44.3836 3357.00 3330.27 57.94
2542 44.3979 3431.00 3339.08 58.57
2543 44.4123 3485.00 3351.55 59.03
2544 44.4266 3440.00 3364.34 58.65
2545 44.4409 3406.00 3377.47 58.36
2546 44.4552 3383.00 3392.59 58.16
2547 44.4696 3456.00 3410.11 58.79
2548 44.4839 3476.00 3430.28 58.96
2549 44.4982 3554.00 3454.10 59.62
2550 44.5125 3522.00 3480.92 59.35
2551 44.5268 3560.00 3511.68 59.67
2552 44.5412 3508.00 3547.02 59.23
2553 44.5555 3656.00 3586.65 60.46
2554 44.5698 3695.00 3631.20 60.79
2555 44.5841 3683.00 3680.61 60.69
2556 44.5985 3766.00 3735.05 61.37
2557 44.6128 3754.00 3793.21 61.27
2558 44.6271 3810.00 3855.36 61.73
2559 44.6414 4023.00 3919.71 63.43
2560 44.6557 4006.00 3985.32 63.29
2561 44.6701 4133.00 4050.99 64.29
2562 44.6844 4167.00 4114.66 64.55
2563 44.6987 4090.00 4175.34 63.95
2564 44.7130 4141.00 4232.63 64.35
2565 44.7274 4249.00 4285.87 65.18
2566 44.7417 4314.00 4330.58 65.68
2567 44.7560 4400.00 4371.07 66.33
2568 44.7703 4411.00 4405.04 66.42
2569 44.7846 4412.00 4431.76 66.42
2570 44.7990 4393.00 4450.11 66.28
2571 44.8133 4515.00 4459.40 67.19
2572 44.8276 4376.00 4459.61 66.15
2573 44.8419 4362.00 4450.96 66.05
2574 44.8563 4350.00 4432.50 65.95
2575 44.8706 4367.00 4407.94 66.08
2576 44.8849 4396.00 4377.66 66.30
2577 44.8992 4334.00 4342.87 65.83
2578 44.9135 4291.00 4302.52 65.51
2579 44.9279 4288.00 4261.61 65.48
2580 44.9422 4225.00 4219.59 65.00
2581 44.9565 4211.00 4177.79 64.89
2582 44.9708 4229.00 4137.48 65.03
2583 44.9852 4184.00 4099.46 64.68
2584 44.9995 4190.00 4066.31 64.73
2585 45.0138 4192.00 4040.07 64.75
2586 45.0281 3988.00 4017.40 63.15
2587 45.0424 4085.00 4002.74 63.91
2588 45.0568 4070.00 3995.62 63.80
2589 45.0711 3973.00 3996.83 63.03
2590 45.0854 4060.00 4006.59 63.72
2591 45.0997 4024.00 4024.86 63.44
2592 45.1141 4080.00 4052.07 63.87
2593 45.1284 4221.00 4087.18 64.97
2594 45.1427 4271.00 4130.36 65.35
2595 45.1570 4230.00 4178.88 65.04
2596 45.1713 4267.00 4232.11 65.32
2597 45.1857 4347.00 4288.92 65.93
2598 45.2000 4402.00 4346.99 66.35
2599 45.2143 4472.00 4405.50 66.87
2600 45.2286 4538.00 4463.53 67.36
2601 45.2430 4632.00 4520.89 68.06
2602 45.2573 4694.00 4576.25 68.51
2603 45.2716 4720.00 4629.20 68.70
2604 45.2859 4901.00 4678.56 70.01
2605 45.3002 4803.00 4722.96 69.30
2606 45.3146 4917.00 4761.03 70.12
2607 45.3289 4916.00 4790.83 70.11
2608 45.3432 5023.00 4811.51 70.87
2609 45.3575 5065.00 4822.33 71.17
2610 45.3719 4847.00 4822.91 69.62
2611 45.3862 4880.00 4813.33 69.86
2612 45.4005 4814.00 4794.07 69.38
2613 45.4148 4728.00 4765.95 68.76
2614 45.4291 4820.00 4730.10 69.43
2615 45.4435 4738.00 4687.51 68.83
2616 45.4578 4628.00 4640.20 68.03
2617 45.4721 4606.00 4589.24 67.87
2618 45.4864 4511.00 4535.88 67.16
2619 45.5007 4388.00 4481.29 66.24
2620 45.5151 4377.00 4426.17 66.16
2621 45.5294 4365.00 4372.35 66.07
2622 45.5437 4399.00 4320.37 66.32
2623 45.5580 4325.00 4271.12 65.76
2624 45.5724 4213.00 4225.06 64.91
2625 45.5867 4176.00 4183.36 64.62
2626 45.6010 4088.00 4146.00 63.94
2627 45.6153 4125.00 4113.10 64.23
2628 45.6296 4044.00 4084.51 63.59
2629 45.6440 4118.00 4059.53 64.17
2630 45.6583 3989.00 4038.79 63.16
2631 45.6726 4005.00 4021.57 63.29
2632 45.6869 3922.00 4007.83 62.63
2633 45.7013 3887.00 3997.69 62.35
2634 45.7156 3938.00 3992.00 62.75
2635 45.7299 3916.00 3990.24 62.58
2636 45.7442 4045.00 3991.15 63.60
2637 45.7585 3968.00 3997.93 62.99
2638 45.7729 4044.00 4008.52 63.59
2639 45.7872 3941.00 4021.50 62.78
2640 45.8015 4124.00 4035.42 64.22
2641 45.8158 4026.00 4048.43 63.45
2642 45.8302 3999.00 4058.60 63.24
2643 45.8445 4044.00 4063.99 63.59
2644 45.8588 4025.00 4061.83 63.44
2645 45.8731 4072.00 4053.23 63.81
2646 45.8874 4003.00 4037.42 63.27
2647 45.9018 4026.00 4015.32 63.45
2648 45.9161 4055.00 3988.89 63.68
2649 45.9304 3919.00 3959.63 62.60
2650 45.9447 3835.00 3928.78 61.93
2651 45.9591 3965.00 3896.70 62.97
2652 45.9734 3952.00 3863.94 62.86
2653 45.9877 3850.00 3830.17 62.05
2654 46.0020 3815.00 3795.66 61.77
2655 46.0163 3719.00 3760.25 60.98
2656 46.0307 3731.00 3724.53 61.08
2657 46.0450 3752.00 3689.76 61.25
2658 46.0593 3707.00 3656.34 60.89
2659 46.0736 3599.00 3624.70 59.99
2660 46.0880 3785.00 3594.83 61.52
2661 46.1023 3662.00 3567.21 60.51
2662 46.1166 3573.00 3541.58 59.77
2663 46.1309 3534.00 3518.07 59.45
2664 46.1452 3565.00 3496.43 59.71
2665 46.1596 3591.00 3476.69 59.92
2666 46.1739 3595.00 3459.13 59.96
2667 46.1882 3430.00 3443.58 58.57
2668 46.2025 3559.00 3430.37 59.66
2669 46.2169 3527.00 3418.81 59.39
2670 46.2312 3483.00 3409.09 59.02
2671 46.2455 3485.00 3401.37 59.03
2672 46.2598 3486.00 3395.82 59.04
2673 46.2741 3452.00 3394.40 58.75
2674 46.2885 3476.00 3394.03 58.96
2675 46.3028 3498.00 3396.79 59.14
2676 46.3171 3526.00 3403.24 59.38
2677 46.3314 3487.00 3413.54 59.05
2678 46.3458 3548.00 3428.23 59.57
2679 46.3601 3532.00 3447.56 59.43
2680 46.3744 3505.00 3471.91 59.20
2681 46.3887 3404.00 3502.31 58.34
2682 46.4030 3526.00 3537.09 59.38
2683 46.4174 3598.00 3577.19 59.98
2684 46.4317 3708.00 3621.60 60.89
2685 46.4460 3676.00 3669.81 60.63
2686 46.4603 3734.00 3720.66 61.11
2687 46.4747 3827.00 3773.03 61.86
2688 46.4890 3824.00 3824.19 61.84
2689 46.5033 3848.00 3872.19 62.03
2690 46.5176 3866.00 3914.66 62.18
2691 46.5319 4016.00 3949.38 63.37
2692 46.5463 3843.00 3974.95 61.99
2693 46.5606 3940.00 3990.50 62.77
2694 46.5749 3876.00 3996.86 62.26
2695 46.5892 3947.00 3995.46 62.83
2696 46.6036 3923.00 3988.05 62.63
2697 46.6179 3878.00 3976.41 62.27
2698 46.6322 3968.00 3961.63 62.99
2699 46.6465 3925.00 3944.47 62.65
2700 46.6608 3795.00 3925.40 61.60
2701 46.6752 3918.00 3904.84 62.59
2702 46.6895 3767.00 3883.97 61.38
2703 46.7038 3799.00 3863.98 61.64
2704 46.7181 3742.00 3846.48 61.17
2705 46.7325 3743.00 3833.08 61.18
2706 46.7468 3689.00 3825.49 60.74
2707 46.7611 3772.00 3824.83 61.42
2708 46.7754 3898.00 3832.02 62.43
2709 46.7897 3923.00 3847.58 62.63
2710 46.8041 3901.00 3871.96 62.46
2711 46.8184 3806.00 3904.74 61.69
2712 46.8327 3935.00 3945.17 62.73
2713 46.8470 4049.00 3993.58 63.63
2714 46.8614 4047.00 4048.86 63.62
2715 46.8757 4121.00 4108.21 64.19
2716 46.8900 4127.00 4171.55 64.24
2717 46.9043 4380.00 4236.22 66.18
2718 46.9186 4287.00 4299.95 65.48
2719 46.9330 4379.00 4360.93 66.17
2720 46.9473 4545.00 4415.96 67.42
2721 46.9616 4564.00 4464.39 67.56
2722 46.9759 4477.00 4505.02 66.91
2723 46.9903 4573.00 4537.87 67.62
2724 47.0046 4619.00 4562.75 67.96
2725 47.0189 4510.00 4580.64 67.16
2726 47.0332 4563.00 4594.34 67.55
2727 47.0475 4716.00 4603.98 68.67
2728 47.0619 4695.00 4610.37 68.52
2729 47.0762 4604.00 4613.50 67.85
2730 47.0905 4704.00 4614.66 68.59
2731 47.1048 4633.00 4614.07 68.07
2732 47.1192 4689.00 4612.76 68.48
2733 47.1335 4535.00 4612.25 67.34
2734 47.1478 4632.00 4613.88 68.06
2735 47.1621 4693.00 4620.47 68.51
2736 47.1764 4770.00 4633.09 69.07
2737 47.1908 4691.00 4652.23 68.49
2738 47.2051 4705.00 4679.15 68.59
2739 47.2194 4845.00 4712.82 69.61
2740 47.2337 4660.00 4752.45 68.26
2741 47.2481 4782.00 4796.87 69.15
2742 47.2624 4810.00 4843.66 69.35
2743 47.2767 4738.00 4891.28 68.83
2744 47.2910 4818.00 4937.72 69.41
2745 47.3053 4885.00 4982.32 69.89
2746 47.3197 4944.00 5024.34 70.31
2747 47.3340 4903.00 5063.75 70.02
2748 47.3483 5101.00 5101.45 71.42
2749 47.3626 5279.00 5138.39 72.66
2750 47.3769 5027.00 5175.13 70.90
2751 47.3913 5263.00 5211.88 72.55
2752 47.4056 5271.00 5247.28 72.60
2753 47.4199 5125.00 5280.33 71.59
2754 47.4342 5285.00 5308.91 72.70
2755 47.4486 5249.00 5332.25 72.45
2756 47.4629 5281.00 5346.83 72.67
2757 47.4772 5264.00 5352.27 72.55
2758 47.4915 5266.00 5347.59 72.57
2759 47.5058 5210.00 5332.20 72.18
2760 47.5202 5255.00 5305.67 72.49
2761 47.5345 5150.00 5268.57 71.76
2762 47.5488 5093.00 5221.42 71.37
2763 47.5631 5016.00 5164.88 70.82
2764 47.5775 5069.00 5100.05 71.20
2765 47.5918 4911.00 5028.23 70.08
2766 47.6061 4779.00 4950.59 69.13
2767 47.6204 4760.00 4868.22 68.99
2768 47.6347 4690.00 4782.19 68.48
2769 47.6491 4540.00 4693.06 67.38
2770 47.6634 4551.00 4602.97 67.46
2771 47.6777 4485.00 4512.62 66.97
2772 47.6920 4389.00 4423.13 66.25
2773 47.7064 4436.00 4335.11 66.60
2774 47.7207 4364.00 4250.89 66.06
2775 47.7350 4316.00 4170.80 65.70
2776 47.7493 4067.00 4095.58 63.77
2777 47.7636 4141.00 4025.85 64.35
2778 47.7780 3973.00 3961.50 63.03
2779 47.7923 3897.00 3903.51 62.43
2780 47.8066 3775.00 3851.42 61.44
2781 47.8209 3749.00 3805.01 61.23
2782 47.8353 3679.00 3763.66 60.65
2783 47.8496 3730.00 3727.47 61.07
2784 47.8639 3757.00 3695.51 61.29
2785 47.8782 3533.00 3667.09 59.44
2786 47.8925 3557.00 3641.48 59.64
2787 47.9069 3526.00 3617.32 59.38
2788 47.9212 3538.00 3595.17 59.48
2789 47.9355 3563.00 3573.94 59.69
2790 47.9498 3423.00 3552.23 58.51
2791 47.9642 3431.00 3532.29 58.57
2792 47.9785 3423.00 3513.40 58.51
2793 47.9928 3426.00 3495.63 58.53
2794 48.0071 3352.00 3479.10 57.90
2795 48.0214 3413.00 3464.57 58.42
2796 48.0358 3438.00 3450.09 58.63
2797 48.0501 3349.00 3436.65 57.87
2798 48.0644 3386.00 3423.38 58.19
2799 48.0787 3392.00 3408.86 58.24
2800 48.0931 3417.00 3394.38 58.46
2801 48.1074 3407.00 3379.57 58.37
2802 48.1217 3287.00 3364.63 57.33
2803 48.1360 3289.00 3350.21 57.35
2804 48.1503 3330.00 3337.15 57.71
2805 48.1647 3353.00 3325.17 57.91
2806 48.1790 3357.00 3315.70 57.94
2807 48.1933 3340.00 3308.88 57.79
2808 48.2076 3353.00 3304.77 57.91
2809 48.2220 3404.00 3303.75 58.34
2810 48.2363 3370.00 3305.99 58.05
2811 48.2506 3387.00 3311.62 58.20
2812 48.2649 3302.00 3320.87 57.46
2813 48.2792 3464.00 3334.09 58.86
2814 48.2936 3296.00 3350.85 57.41
2815 48.3079 3288.00 3371.10 57.34
2816 48.3222 3479.00 3394.58 58.98
2817 48.3365 3406.00 3420.60 58.36
2818 48.3509 3418.00 3448.42 58.46
2819 48.3652 3554.00 3476.48 59.62
2820 48.3795 3568.00 3503.64 59.73
2821 48.3938 3526.00 3528.84 59.38
2822 48.4081 3565.00 3550.82 59.71
2823 48.4225 3537.00 3569.03 59.47
2824 48.4368 3540.00 3583.47 59.50
2825 48.4511 3559.00 3594.83 59.66
2826 48.4654 3539.00 3604.03 59.49
2827 48.4798 3551.00 3612.03 59.59
2828 48.4941 3510.00 3619.44 59.25
2829 48.5084 3637.00 3626.74 60.31
2830 48.5227 3580.00 3634.10 59.83
2831 48.5370 3709.00 3637.77 60.90
2832 48.5514 3622.00 3644.22 60.18
2833 48.5657 3619.00 3650.36 60.16
2834 48.5800 3533.00 3655.67 59.44
2835 48.5943 3700.00 3659.94 60.83
2836 48.6087 3711.00 3662.90 60.92
2837 48.6230 3751.00 3664.57 61.25
2838 48.6373 3593.00 3663.56 59.94
2839 48.6516 3610.00 3659.73 60.08
2840 48.6659 3547.00 3650.78 59.56
2841 48.6803 3618.00 3637.94 60.15
2842 48.6946 3600.00 3622.35 60.00
2843 48.7089 3492.00 3602.31 59.09
2844 48.7232 3520.00 3578.05 59.33
2845 48.7376 3484.00 3549.88 59.03
2846 48.7519 3474.00 3519.22 58.94
2847 48.7662 3426.00 3486.05 58.53
2848 48.7805 3447.00 3451.25 58.71
2849 48.7948 3392.00 3415.27 58.24
2850 48.8092 3296.00 3377.49 57.41
2851 48.8235 3256.00 3340.04 57.06
2852 48.8378 3199.00 3302.29 56.56
2853 48.8521 3187.00 3264.63 56.45
2854 48.8665 3106.00 3227.24 55.73
2855 48.8808 3134.00 3191.18 55.98
2856 48.8951 3062.00 3156.68 55.34
2857 48.9094 3044.00 3124.13 55.17
2858 48.9237 3070.00 3093.81 55.41
2859 48.9381 3025.00 3065.71 55.00
2860 48.9524 2920.00 3040.27 54.04
2861 48.9667 2908.00 3017.25 53.93
2862 48.9810 3008.00 2996.56 54.85
2863 48.9954 3031.00 2977.97 55.05
2864 49.0097 2991.00 2961.58 54.69
2865 49.0240 2921.00 2947.10 54.05
2866 49.0383 2887.00 2934.39 53.73
2867 49.0526 2962.00 2923.28 54.42
2868 49.0670 2846.00 2913.59 53.35
2869 49.0813 2791.00 2905.30 52.83
2870 49.0956 2998.00 2898.21 54.75
2871 49.1099 2848.00 2892.14 53.37
2872 49.1243 2925.00 2886.95 54.08
2873 49.1386 2960.00 2882.69 54.41
2874 49.1529 2863.00 2879.18 53.51
2875 49.1672 2866.00 2876.32 53.53
2876 49.1815 2947.00 2874.02 54.29
2877 49.1959 2884.00 2872.23 53.70
2878 49.2102 2902.00 2870.71 53.87
2879 49.2245 2811.00 2869.85 53.02
2880 49.2388 2764.00 2869.40 52.57
2881 49.2531 2829.00 2869.35 53.19
2882 49.2675 2805.00 2868.59 52.96
2883 49.2818 2934.00 2869.42 54.17
2884 49.2961 2833.00 2870.69 53.23
2885 49.3104 2848.00 2872.41 53.37
2886 49.3248 2894.00 2874.66 53.80
2887 49.3391 2826.00 2877.37 53.16
2888 49.3534 2926.00 2880.86 54.09
2889 49.3677 2925.00 2885.14 54.08
2890 49.3820 2835.00 2890.34 53.24
2891 49.3964 2975.00 2896.10 54.54
2892 49.4107 2896.00 2903.13 53.81
2893 49.4250 2855.00 2912.18 53.43
2894 49.4393 2860.00 2922.91 53.48
2895 49.4537 2895.00 2935.68 53.81
2896 49.4680 2958.00 2950.56 54.39
2897 49.4823 2934.00 2967.86 54.17
2898 49.4966 3034.00 2987.86 55.08
2899 49.5109 3040.00 3010.74 55.14
2900 49.5253 2992.00 3036.29 54.70
2901 49.5396 3069.00 3065.14 55.40
2902 49.5539 3124.00 3097.41 55.89
2903 49.5682 3027.00 3132.72 55.02
2904 49.5826 3078.00 3171.07 55.48
2905 49.5969 3225.00 3211.49 56.79
2906 49.6112 3201.00 3253.62 56.58
2907 49.6255 3325.00 3294.94 57.66
2908 49.6398 3331.00 3337.60 57.71
2909 49.6542 3422.00 3378.64 58.50
2910 49.6685 3536.00 3416.53 59.46
2911 49.6828 3384.00 3449.69 58.17
2912 49.6971 3367.00 3476.71 58.03
2913 49.7115 3567.00 3496.61 59.72
2914 49.7258 3436.00 3508.53 58.62
2915 49.7401 3490.00 3512.90 59.08
2916 49.7544 3486.00 3508.98 59.04
2917 49.7687 3489.00 3499.44 59.07
2918 49.7831 3495.00 3484.25 59.12
2919 49.7974 3546.00 3464.47 59.55
2920 49.8117 3526.00 3441.22 59.38
2921 49.8260 3271.00 3413.97 57.19
2922 49.8404 3394.00 3383.44 58.26
2923 49.8547 3351.00 3350.53 57.89
2924 49.8690 3330.00 3315.71 57.71
2925 49.8833 3275.00 3279.47 57.23
2926 49.8976 3288.00 3242.68 57.34
2927 49.9120 3091.00 3205.94 55.60
2928 49.9263 3200.00 3170.51 56.57
2929 49.9406 3141.00 3136.99 56.04
2930 49.9549 3154.00 3105.42 56.16
2931 49.9693 3044.00 3076.19 55.17
2932 49.9836 3020.00 3050.25 54.95
2933 49.9979 3004.00 3026.70 54.81
2934 50.0122 3008.00 3005.88 54.85
2935 50.0265 2905.00 2987.64 53.90
2936 50.0409 2861.00 2971.71 53.49
2937 50.0552 2879.00 2958.79 53.66
2938 50.0695 3088.00 2947.18 55.57
2939 50.0838 2968.00 2937.35 54.48
2940 50.0982 3009.00 2929.13 54.85
2941 50.1125 2920.00 2922.50 54.04
2942 50.1268 2901.00 2917.56 53.86
2943 50.1411 2994.00 2913.90 54.72
2944 50.1554 2904.00 2911.73 53.89
2945 50.1698 2925.00 2911.06 54.08
2946 50.1841 2880.00 2911.90 53.67
2947 50.1984 2985.00 2914.35 54.64
2948 50.2127 2960.00 2918.41 54.41
2949 50.2271 2911.00 2923.93 53.95
2950 50.2414 2953.00 2931.41 54.34
2951 50.2557 2867.00 2940.73 53.54
2952 50.2700 2918.00 2952.43 54.02
2953 50.2843 2961.00 2965.73 54.42
2954 50.2987 3076.00 2981.26 55.46
2955 50.3130 2984.00 2998.67 54.63
2956 50.3273 3008.00 3018.46 54.85
2957 50.3416 3028.00 3040.36 55.03
2958 50.3560 3119.00 3064.46 55.85
2959 50.3703 3104.00 3090.11 55.71
2960 50.3846 3142.00 3117.54 56.05
2961 50.3989 3155.00 3146.39 56.17
2962 50.4132 3218.00 3176.66 56.73
2963 50.4276 3166.00 3208.08 56.27
2964 50.4419 3202.00 3240.45 56.59
2965 50.4562 3237.00 3274.13 56.89
2966 50.4705 3286.00 3309.42 57.32
2967 50.4849 3323.00 3346.78 57.65
2968 50.4992 3329.00 3385.78 57.70
2969 50.5135 3428.00 3426.51 58.55
2970 50.5278 3476.00 3468.49 58.96
2971 50.5421 3455.00 3510.92 58.78
2972 50.5565 3505.00 3553.02 59.20
2973 50.5708 3560.00 3592.93 59.67
2974 50.5851 3510.00 3628.83 59.25
2975 50.5994 3682.00 3661.18 60.68
2976 50.6138 3740.00 3687.67 61.16
2977 50.6281 3798.00 3707.24 61.63
2978 50.6424 3764.00 3719.45 61.35
2979 50.6567 3687.00 3723.98 60.72
2980 50.6710 3774.00 3720.91 61.43
2981 50.6854 3704.00 3710.52 60.86
2982 50.6997 3643.00 3693.65 60.36
2983 50.7140 3676.00 3670.72 60.63
2984 50.7283 3545.00 3643.39 59.54
2985 50.7427 3664.00 3611.92 60.53
2986 50.7570 3569.00 3577.59 59.74
2987 50.7713 3565.00 3536.02 59.71
2988 50.7856 3572.00 3497.51 59.77
2989 50.7999 3335.00 3457.87 57.75
2990 50.8143 3327.00 3417.35 57.68
2991 50.8286 3328.00 3377.28 57.69
2992 50.8429 3286.00 3338.09 57.32
2993 50.8572 3316.00 3300.51 57.58
2994 50.8716 3226.00 3264.94 56.80
2995 50.8859 3298.00 3232.34 57.43
2996 50.9002 3225.00 3200.85 56.79
2997 50.9145 3218.00 3175.64 56.73
2998 50.9288 3183.00 3153.02 56.42
2999 50.9432 3144.00 3133.48 56.07
3000 50.9575 3090.00 3117.08 55.59
3001 50.9718 3115.00 3103.38 55.81
3002 50.9861 3030.00 3092.06 55.05
3003 51.0004 3135.00 3082.78 55.99
3004 51.0148 3233.00 3075.17 56.86
3005 51.0291 3150.00 3068.97 56.12
3006 51.0434 3174.00 3065.20 56.34
3007 51.0577 3065.00 3060.15 55.36
3008 51.0721 3071.00 3055.29 55.42
3009 51.0864 3074.00 3049.83 55.44
3010 51.1007 3068.00 3043.21 55.39
3011 51.1150 3110.00 3035.02 55.77
3012 51.1293 3057.00 3025.05 55.29
3013 51.1437 3047.00 3012.28 55.20
3014 51.1580 3055.00 2999.00 55.27
3015 51.1723 3041.00 2985.45 55.15
3016 51.1866 2995.00 2970.13 54.73
3017 51.2010 3057.00 2953.99 55.29
3018 51.2153 2972.00 2937.83 54.52
3019 51.2296 3005.00 2921.48 54.82
3020 51.2439 2880.00 2904.97 53.67
3021 51.2582 2986.00 2888.35 54.64
3022 51.2726 2858.00 2871.09 53.46
3023 51.2869 2785.00 2854.50 52.77
3024 51.3012 2862.00 2838.36 53.50
3025 51.3155 2846.00 2822.47 53.35
3026 51.3299 2789.00 2807.13 52.81
3027 51.3442 2845.00 2792.74 53.34
3028 51.3585 2809.00 2779.51 53.00
3029 51.3728 2799.00 2767.11 52.91
3030 51.3871 2782.00 2755.78 52.74
3031 51.4015 2744.00 2745.43 52.38
3032 51.4158 2795.00 2736.19 52.87
3033 51.4301 2822.00 2727.94 53.12
3034 51.4444 2713.00 2720.60 52.09
3035 51.4588 2714.00 2714.08 52.10
3036 51.4731 2812.00 2708.40 53.03
3037 51.4874 2728.00 2703.47 52.23
3038 51.5017 2667.00 2700.19 51.64
3039 51.5160 2737.00 2697.05 52.32
3040 51.5304 2683.00 2694.03 51.80
3041 51.5447 2678.00 2691.59 51.75
3042 51.5590 2742.00 2689.67 52.36
3043 51.5733 2737.00 2688.23 52.32
3044 51.5877 2697.00 2687.24 51.93
3045 51.6020 2704.00 2686.71 52.00
3046 51.6163 2695.00 2686.61 51.91
3047 51.6306 2679.00 2687.37 51.76
3048 51.6449 2737.00 2688.16 52.32
3049 51.6593 2772.00 2689.64 52.65
3050 51.6736 2803.00 2691.60 52.94
3051 51.6879 2622.00 2693.92 51.21
3052 51.7022 2732.00 2696.86 52.27
3053 51.7166 2677.00 2700.54 51.74
3054 51.7309 2707.00 2705.01 52.03
3055 51.7452 2614.00 2710.38 51.13
3056 51.7595 2754.00 2716.84 52.48
3057 51.7738 2736.00 2724.53 52.31
3058 51.7882 2778.00 2733.65 52.71
3059 51.8025 2699.00 2744.26 51.95
3060 51.8168 2653.00 2756.66 51.51
3061 51.8311 2710.00 2770.80 52.06
3062 51.8455 2870.00 2788.73 53.57
3063 51.8598 2838.00 2806.86 53.27
3064 51.8741 2813.00 2827.00 53.04
3065 51.8884 2838.00 2849.06 53.27
3066 51.9027 2916.00 2872.91 54.00
3067 51.9171 2889.00 2898.42 53.75
3068 51.9314 2844.00 2924.86 53.33
3069 51.9457 2854.00 2952.37 53.42
3070 51.9600 3054.00 2979.12 55.26
3071 51.9744 2983.00 3005.21 54.62
3072 51.9887 2983.00 3030.06 54.62
3073 52.0030 3139.00 3052.24 56.03
3074 52.0173 3053.00 3071.73 55.25
3075 52.0316 3001.00 3088.08 54.78
3076 52.0460 3129.00 3101.02 55.94
3077 52.0603 3179.00 3110.16 56.38
3078 52.0746 3078.00 3115.62 55.48
3079 52.0889 3206.00 3117.85 56.62
3080 52.1033 3121.00 3116.64 55.87
3081 52.1176 3138.00 3112.93 56.02
3082 52.1319 3115.00 3106.97 55.81
3083 52.1462 3081.00 3100.44 55.51
3084 52.1605 3061.00 3093.51 55.33
3085 52.1749 3084.00 3086.60 55.53
3086 52.1892 3159.00 3080.21 56.21
3087 52.2035 3128.00 3074.50 55.93
3088 52.2178 3059.00 3069.75 55.31
3089 52.2322 3011.00 3066.09 54.87
3090 52.2465 3055.00 3063.78 55.27
3091 52.2608 3019.00 3062.81 54.95
3092 52.2751 3140.00 3063.25 56.04
3093 52.2894 2937.00 3065.40 54.19
3094 52.3038 3102.00 3068.77 55.70
3095 52.3181 3073.00 3072.87 55.43
3096 52.3324 3007.00 3077.19 54.84
3097 52.3467 3072.00 3081.24 55.43
3098 52.3611 3100.00 3084.67 55.68
3099 52.3754 3104.00 3087.28 55.71
3100 52.3897 3093.00 3089.23 55.61
3101 52.4040 3089.00 3090.85 55.58
3102 52.4183 3080.00 3092.46 55.50
3103 52.4327 3033.00 3094.62 55.07
3104 52.4470 3037.00 3097.29 55.11
3105 52.4613 3100.00 3100.71 55.68
3106 52.4756 3084.00 3104.31 55.53
3107 52.4900 3173.00 3107.83 56.33
3108 52.5043 3222.00 3111.30 56.76
3109 52.5186 3062.00 3113.38 55.34
3110 52.5329 3166.00 3114.60 56.27
3111 52.5472 3203.00 3114.38 56.60
3112 52.5616 3074.00 3112.92 55.44
3113 52.5759 3129.00 3110.60 55.94
3114 52.5902 3107.00 3107.57 55.74
3115 52.6045 3104.00 3104.22 55.71
3116 52.6189 3156.00 3100.63 56.18
3117 52.6332 3019.00 3097.08 54.95
3118 52.6475 3118.00 3093.91 55.84
3119 52.6618 3103.00 3090.69 55.70
3120 52.6761 3037.00 3087.73 55.11
3121 52.6905 3171.00 3084.64 56.31
3122 52.7048 3087.00 3081.39 55.56
3123 52.7191 3090.00 3077.79 55.59
3124 52.7334 3082.00 3073.53 55.52
3125 52.7478 3084.00 3068.30 55.53
3126 52.7621 2986.00 3061.88 54.64
3127 52.7764 2961.00 3054.05 54.42
3128 52.7907 3148.00 3044.73 56.11
3129 52.8050 3065.00 3034.01 55.36
3130 52.8194 2985.00 3022.06 54.64
3131 52.8337 2961.00 3009.03 54.42
3132 52.8480 2953.00 2996.09 54.34
3133 52.8623 3027.00 2983.25 55.02
3134 52.8766 2919.00 2970.86 54.03
3135 52.8910 2916.00 2959.08 54.00
3136 52.9053 2981.00 2948.21 54.60
3137 52.9196 2871.00 2938.24 53.58
3138 52.9339 2951.00 2929.25 54.32
3139 52.9483 2946.00 2920.98 54.28
3140 52.9626 2819.00 2914.53 53.09
3141 52.9769 2983.00 2909.18 54.62
3142 52.9912 2918.00 2905.75 54.02
3143 53.0055 2950.00 2904.29 54.31
3144 53.0199 2921.00 2905.03 54.05
3145 53.0342 2807.00 2908.10 52.98
3146 53.0485 2803.00 2913.56 52.94
3147 53.0628 2998.00 2921.41 54.75
3148 53.0772 2945.00 2932.00 54.27
3149 53.0915 3004.00 2944.13 54.81
3150 53.1058 2958.00 2958.40 54.39
3151 53.1201 3106.00 2974.28 55.73
3152 53.1344 2994.00 2991.14 54.72
3153 53.1488 3019.00 3008.60 54.95
3154 53.1631 3003.00 3026.12 54.80
3155 53.1774 3077.00 3042.98 55.47
3156 53.1917 3004.00 3058.58 54.81
3157 53.2061 3000.00 3072.19 54.77
3158 53.2204 3124.00 3083.36 55.89
3159 53.2347 3037.00 3091.54 55.11
3160 53.2490 3153.00 3096.88 56.15
3161 53.2633 3177.00 3099.74 56.36
3162 53.2777 3021.00 3100.48 54.96
3163 53.2920 3208.00 3099.74 56.64
3164 53.3063 2995.00 3098.34 54.73
3165 53.3206 3037.00 3095.77 55.11
3166 53.3350 3095.00 3094.13 55.63
3167 53.3493 3103.00 3093.52 55.70
3168 53.3636 3114.00 3093.80 55.80
3169 53.3779 3143.00 3095.23 56.06
3170 53.3922 3065.00 3098.12 55.36
3171 53.4066 3070.00 3102.93 55.41
3172 53.4209 3086.00 3110.06 55.55
3173 53.4352 3155.00 3120.04 56.17
3174 53.4495 3225.00 3133.35 56.79
3175 53.4639 3217.00 3150.00 56.72
3176 53.4782 3237.00 3170.75 56.89
3177 53.4925 3213.00 3196.46 56.68
3178 53.5068 3200.00 3225.28 56.57
3179 53.5211 3226.00 3257.69 56.80
3180 53.5355 3298.00 3293.50 57.43
3181 53.5498 3406.00 3331.69 58.36
3182 53.5641 3460.00 3371.91 58.82
3183 53.5784 3520.00 3413.54 59.33
3184 53.5928 3503.00 3456.19 59.19
3185 53.6071 3594.00 3499.27 59.95
3186 53.6214 3500.00 3542.53 59.16
3187 53.6357 3566.00 3586.08 59.72
3188 53.6500 3660.00 3628.50 60.50
3189 53.6644 3875.00 3671.05 62.25
3190 53.6787 3856.00 3712.25 62.10
3191 53.6930 3695.00 3752.01 60.79
3192 53.7073 3829.00 3789.84 61.88
3193 53.7217 3849.00 3825.80 62.04
3194 53.7360 3933.00 3858.40 62.71
3195 53.7503 3920.00 3888.12 62.61
3196 53.7646 3869.00 3914.77 62.20
3197 53.7789 3927.00 3938.38 62.67
3198 53.7933 3926.00 3958.94 62.66
3199 53.8076 3951.00 3976.66 62.86
3200 53.8219 3902.00 3991.33 62.47
3201 53.8362 3990.00 4002.55 63.17
3202 53.8506 4062.00 4009.74 63.73
3203 53.8649 4182.00 4011.79 64.67
3204 53.8792 3971.00 4007.52 63.02
3205 53.8935 3994.00 3996.13 63.20
3206 53.9078 3895.00 3977.12 62.41
3207 53.9222 3895.00 3950.24 62.41
3208 53.9365 3947.00 3916.63 62.83
3209 53.9508 3861.00 3877.16 62.14
3210 53.9651 3872.00 3833.39 62.23
3211 53.9795 3717.00 3786.29 60.97
3212 53.9938 3747.00 3737.70 61.21
3213 54.0081 3761.00 3687.86 61.33
3214 54.0224 3639.00 3637.17 60.32
3215 54.0367 3658.00 3585.74 60.48
3216 54.0511 3551.00 3533.32 59.59
3217 54.0654 3459.00 3480.84 58.81
3218 54.0797 3513.00 3428.51 59.27
3219 54.0940 3480.00 3377.03 58.99
3220 54.1084 3297.00 3326.90 57.42
3221 54.1227 3357.00 3279.75 57.94
3222 54.1370 3215.00 3235.98 56.70
3223 54.1513 3177.00 3196.62 56.36
3224 54.1656 3237.00 3161.34 56.89
3225 54.1800 3169.00 3130.58 56.29
3226 54.1943 3162.00 3104.91 56.23
3227 54.2086 3153.00 3084.18 56.15
3228 54.2229 3222.00 3068.35 56.76
3229 54.2373 3134.00 3057.28 55.98
3230 54.2516 3025.00 3050.98 55.00
3231 54.2659 3092.00 3048.89 55.61
3232 54.2802 3094.00 3051.19 55.62
3233 54.2945 3094.00 3057.25 55.62
3234 54.3089 3114.00 3066.88 55.80
3235 54.3232 3162.00 3078.96 56.23
3236 54.3375 3152.00 3093.14 56.14
3237 54.3518 3143.00 3108.73 56.06
3238 54.3662 3295.00 3124.60 57.40
3239 54.3805 3162.00 3140.83 56.23
3240 54.3948 3211.00 3156.28 56.67
3241 54.4091 3251.00 3170.18 57.02
3242 54.4234 3189.00 3182.26 56.47
3243 54.4378 3288.00 3192.10 57.34
3244 54.4521 3250.00 3199.45 57.01
3245 54.4664 3259.00 3204.46 57.09
3246 54.4807 3262.00 3207.38 57.11
3247 54.4951 3255.00 3208.39 57.05
3248 54.5094 3326.00 3207.63 57.67
3249 54.5237 3271.00 3205.64 57.19
3250 54.5380 3204.00 3202.11 56.60
3251 54.5523 3314.00 3196.88 57.57
3252 54.5667 3221.00 3189.62 56.75
3253 54.5810 3178.00 3180.23 56.37
3254 54.5953 3198.00 3168.52 56.55
3255 54.6096 3163.00 3154.57 56.24
3256 54.6240 3162.00 3138.52 56.23
3257 54.6383 3110.00 3121.01 55.77
3258 54.6526 3108.00 3102.61 55.75
3259 54.6669 3028.00 3083.89 55.03
3260 54.6812 3107.00 3065.46 55.74
3261 54.6956 3123.00 3047.20 55.88
3262 54.7099 2926.00 3030.73 54.09
3263 54.7242 2942.00 3015.69 54.24
3264 54.7385 3018.00 3002.23 54.94
3265 54.7528 2980.00 2990.48 54.59
3266 54.7672 2971.00 2980.48 54.51
3267 54.7815 2887.00 2972.64 53.73
3268 54.7958 2939.00 2966.77 54.21
3269 54.8101 2937.00 2963.20 54.19
3270 54.8245 2938.00 2962.10 54.20
3271 54.8388 2918.00 2963.52 54.02
3272 54.8531 2888.00 2967.68 53.74
3273 54.8674 3016.00 2974.44 54.92
3274 54.8817 3029.00 2983.66 55.04
3275 54.8961 2946.00 2995.13 54.28
3276 54.9104 3014.00 3008.32 54.90
3277 54.9247 3009.00 3022.86 54.85
3278 54.9390 2988.00 3038.01 54.66
3279 54.9534 3090.00 3053.30 55.59
3280 54.9677 3037.00 3067.82 55.11
3281 54.9820 3120.00 3081.07 55.86
3282 54.9963 3176.00 3092.65 56.36
3283 55.0106 3109.00 3102.48 55.76
3284 55.0250 3109.00 3109.93 55.76
3285 55.0393 3044.00 3115.46 55.17
3286 55.0536 3238.00 3119.56 56.90
3287 55.0679 3075.00 3122.72 55.45
3288 55.0823 3022.00 3125.60 54.97
3289 55.0966 3051.00 3128.37 55.24
3290 55.1109 3177.00 3131.46 56.36
3291 55.1252 3179.00 3135.08 56.38
3292 55.1395 3182.00 3139.35 56.41
3293 55.1539 3134.00 3144.03 55.98
3294 55.1682 3142.00 3150.10 56.05
3295 55.1825 3140.00 3157.02 56.04
3296 55.1968 3116.00 3165.22 55.82
3297 55.2112 3159.00 3175.00 56.21
3298 55.2255 3100.00 3186.35 55.68
3299 55.2398 3149.00 3200.00 56.12
3300 55.2541 3221.00 3215.46 56.75
3301 55.2684 3131.00 3232.92 55.96
3302 55.2828 3202.00 3252.33 56.59
3303 55.2971 3273.00 3272.92 57.21
3304 55.3114 3309.00 3294.81 57.52
3305 55.3257 3255.00 3317.25 57.05
3306 55.3401 3380.00 3339.34 58.14
3307 55.3544 3381.00 3361.00 58.15
3308 55.3687 3335.00 3381.41 57.75
3309 55.3830 3571.00 3399.50 59.76
3310 55.3973 3507.00 3415.14 59.22
3311 55.4117 3456.00 3427.62 58.79
3312 55.4260 3348.00 3436.78 57.86
3313 55.4403 3443.00 3441.95 58.68
3314 55.4546 3404.00 3443.33 58.34
3315 55.4690 3443.00 3440.98 58.68
3316 55.4833 3417.00 3434.93 58.46
3317 55.4976 3373.00 3425.90 58.08
3318 55.5119 3431.00 3414.14 58.57
3319 55.5262 3405.00 3399.92 58.35
3320 55.5406 3338.00 3383.62 57.78
3321 55.5549 3383.00 3365.93 58.16
3322 55.5692 3292.00 3347.31 57.38
3323 55.5835 3182.00 3327.92 56.41
3324 55.5979 3234.00 3307.82 56.87
3325 55.6122 3252.00 3288.24 57.03
3326 55.6265 3244.00 3269.41 56.96
3327 55.6408 3304.00 3251.58 57.48
3328 55.6551 3224.00 3235.09 56.78
3329 55.6695 3165.00 3220.18 56.26
3330 55.6838 3142.00 3207.37 56.05
3331 55.6981 3174.00 3196.60 56.34
3332 55.7124 3127.00 3188.02 55.92
3333 55.7268 3087.00 3181.59 55.56
3334 55.7411 3154.00 3177.09 56.16
3335 55.7554 3120.00 3174.43 55.86
3336 55.7697 3059.00 3173.33 55.31
3337 55.7840 3109.00 3173.26 55.76
3338 55.7984 3227.00 3173.74 56.81
3339 55.8127 3115.00 3174.25 55.81
3340 55.8270 3211.00 3174.31 56.67
3341 55.8413 3163.00 3173.52 56.24
3342 55.8557 3136.00 3171.28 56.00
3343 55.8700 3179.00 3167.88 56.38
3344 55.8843 3135.00 3163.06 55.99
3345 55.8986 3121.00 3156.94 55.87
3346 55.9129 3125.00 3149.70 55.90
3347 55.9273 3136.00 3141.50 56.00
3348 55.9416 3101.00 3132.66 55.69
3349 55.9559 3067.00 3123.30 55.38
3350 55.9702 3179.00 3113.51 56.38
3351 55.9846 2985.00 3103.36 54.64
3352 55.9989 3087.00 3092.64 55.56
3353 56.0132 3048.00 3081.55 55.21
3354 56.0275 3012.00 3069.94 54.88
3355 56.0418 3183.00 3057.37 56.42
3356 56.0562 3035.00 3044.55 55.09
3357 56.0705 2976.00 3031.29 54.55
3358 56.0848 3006.00 3017.55 54.83
3359 56.0991 3017.00 3003.48 54.93
3360 56.1135 3000.00 2989.21 54.77
3361 56.1278 2888.00 2975.20 53.74
3362 56.1421 2839.00 2961.92 53.28
3363 56.1564 2849.00 2949.25 53.38
3364 56.1707 2991.00 2937.71 54.69
3365 56.1851 2831.00 2927.27 53.21
3366 56.1994 2899.00 2918.63 53.84
3367 56.2137 2892.00 2911.58 53.78
3368 56.2280 2811.00 2906.11 53.02
3369 56.2424 2970.00 2902.16 54.50
3370 56.2567 3012.00 2899.74 54.88
3371 56.2710 2885.00 2898.76 53.71
3372 56.2853 2939.00 2899.19 54.21
3373 56.2996 3084.00 2901.06 55.53
3374 56.3140 2885.00 2904.17 53.71
3375 56.3283 3005.00 2907.59 54.82
3376 56.3426 3012.00 2912.91 54.88
3377 56.3569 2921.00 2918.59 54.05
3378 56.3713 2983.00 2925.33 54.62
3379 56.3856 3005.00 2932.28 54.82
3380 56.3999 2993.00 2939.24 54.71
3381 56.4142 2964.00 2946.21 54.44
3382 56.4285 2941.00 2952.57 54.23
3383 56.4429 2920.00 2958.52 54.04
3384 56.4572 2996.00 2964.01 54.74
3385 56.4715 3055.00 2968.48 55.27
3386 56.4858 2989.00 2972.89 54.67
3387 56.5002 3025.00 2977.53 55.00
3388 56.5145 3021.00 2980.97 54.96
3389 56.5288 2848.00 2985.21 53.37
3390 56.5431 3042.00 2989.24 55.15
3391 56.5574 2982.00 2993.13 54.61
3392 56.5718 3002.00 2996.62 54.79
3393 56.5861 2884.00 2999.73 53.70
3394 56.6004 2994.00 3002.63 54.72
3395 56.6147 3084.00 3004.94 55.53
3396 56.6290 2990.00 3006.48 54.68
3397 56.6434 3047.00 3007.82 55.20
3398 56.6577 2907.00 3008.71 53.92
3399 56.6720 3003.00 3008.44 54.80
3400 56.6863 2916.00 3007.85 54.00
3401 56.7007 3021.00 3006.49 54.96
3402 56.7150 3018.00 3004.29 54.94
3403 56.7293 3054.00 3000.96 55.26
3404 56.7436 3017.00 2996.77 54.93
3405 56.7579 2889.00 2991.43 53.75
3406 56.7723 2949.00 2984.48 54.30
3407 56.7866 2922.00 2975.92 54.06
3408 56.8009 2959.00 2965.57 54.40
3409 56.8152 2960.00 2953.46 54.41
3410 56.8296 2922.00 2939.45 54.06
3411 56.8439 2898.00 2924.05 53.83
3412 56.8582 2859.00 2907.51 53.47
3413 56.8725 2889.00 2890.15 53.75
3414 56.8868 2849.00 2872.22 53.38
3415 56.9012 2848.00 2854.05 53.37
3416 56.9155 2869.00 2836.00 53.56
3417 56.9298 2785.00 2817.99 52.77
3418 56.9441 2775.00 2799.47 52.68
3419 56.9585 2873.00 2781.59 53.60
3420 56.9728 2740.00 2764.04 52.35
3421 56.9871 2742.00 2746.77 52.36
3422 57.0014 2735.00 2730.11 52.30
3423 57.0157 2753.00 2714.73 52.47
3424 57.0301 2692.00 2699.05 51.88
3425 57.0444 2733.00 2684.35 52.28
3426 57.0587 2751.00 2670.42 52.45
3427 57.0730 2693.00 2657.73 51.89
3428 57.0874 2692.00 2646.02 51.88
3429 57.1017 2645.00 2635.10 51.43
3430 57.1160 2648.00 2625.61 51.46
3431 57.1303 2639.00 2617.15 51.37
3432 57.1446 2666.00 2609.75 51.63
3433 57.1590 2669.00 2603.14 51.66
3434 57.1733 2687.00 2597.90 51.84
3435 57.1876 2595.00 2593.04 50.94
3436 57.2019 2508.00 2588.87 50.08
3437 57.2163 2553.00 2585.52 50.53
3438 57.2306 2599.00 2582.91 50.98
3439 57.2449 2562.00 2580.98 50.62
3440 57.2592 2502.00 2579.68 50.02
3441 57.2735 2551.00 2578.65 50.51
3442 57.2879 2511.00 2578.66 50.11
3443 57.3022 2534.00 2579.30 50.34
3444 57.3165 2630.00 2580.54 51.28
3445 57.3308 2613.00 2582.39 51.12
3446 57.3452 2677.00 2584.86 51.74
3447 57.3595 2556.00 2588.54 50.56
3448 57.3738 2579.00 2592.21 50.78
3449 57.3881 2558.00 2596.47 50.58
3450 57.4024 2601.00 2601.33 51.00
3451 57.4168 2564.00 2606.61 50.64
3452 57.4311 2615.00 2612.62 51.14
3453 57.4454 2549.00 2619.18 50.49
3454 57.4597 2630.00 2626.25 51.28
3455 57.4741 2687.00 2633.83 51.84
3456 57.4884 2627.00 2641.78 51.25
3457 57.5027 2721.00 2650.07 52.16
3458 57.5170 2551.00 2658.67 50.51
3459 57.5313 2719.00 2667.44 52.14
3460 57.5457 2703.00 2676.28 51.99
3461 57.5600 2622.00 2685.02 51.21
3462 57.5743 2729.00 2694.08 52.24
3463 57.5886 2661.00 2703.39 51.58
3464 57.6030 2685.00 2712.67 51.82
3465 57.6173 2784.00 2722.00 52.76
3466 57.6316 2774.00 2731.51 52.67
3467 57.6459 2674.00 2741.39 51.71
3468 57.6602 2689.00 2751.27 51.86
3469 57.6746 2817.00 2761.25 53.08
3470 57.6889 2734.00 2771.42 52.29
3471 57.7032 2843.00 2781.61 53.32
3472 57.7175 2787.00 2791.78 52.79
3473 57.7319 2787.00 2802.19 52.79
3474 57.7462 2838.00 2812.70 53.27
3475 57.7605 2783.00 2823.20 52.75
3476 57.7748 2805.00 2833.83 52.96
3477 57.7891 2873.00 2844.59 53.60
3478 57.8035 2874.00 2855.58 53.61
3479 57.8178 2817.00 2866.80 53.08
3480 57.8321 2855.00 2877.44 53.43
3481 57.8464 2907.00 2887.74 53.92
3482 57.8608 2959.00 2897.70 54.40
3483 57.8751 2785.00 2907.12 52.77
3484 57.8894 2952.00 2915.58 54.33
3485 57.9037 2927.00 2923.34 54.10
3486 57.9180 3000.00 2930.45 54.77
3487 57.9324 2880.00 2937.05 53.67
3488 57.9467 2933.00 2943.12 54.16
3489 57.9610 2987.00 2948.70 54.65
3490 57.9753 2957.00 2953.95 54.38
3491 57.9897 2949.00 2958.38 54.30
3492 58.0040 2979.00 2961.94 54.58
3493 58.0183 2871.00 2964.55 53.58
3494 58.0326 2921.00 2966.09 54.05
3495 58.0469 2992.00 2966.28 54.70
3496 58.0613 2934.00 2965.24 54.17
3497 58.0756 2959.00 2963.02 54.40
3498 58.0899 3039.00 2959.73 55.13
3499 58.1042 2939.00 2955.44 54.21
3500 58.1186 2880.00 2950.18 53.67
3501 58.1329 2993.00 2944.02 54.71
3502 58.1472 2853.00 2936.98 53.41
3503 58.1615 2811.00 2929.08 53.02
3504 58.1758 2963.00 2920.37 54.43
3505 58.1902 2808.00 2910.91 52.99
3506 58.2045 2838.00 2901.00 53.27
3507 58.2188 2941.00 2890.79 54.23
3508 58.2331 2890.00 2880.49 53.76
3509 58.2475 2813.00 2870.19 53.04
3510 58.2618 2966.00 2859.94 54.46
3511 58.2761 2904.00 2850.12 53.89
3512 58.2904 2782.00 2840.49 52.74
3513 58.3047 2765.00 2831.01 52.58
3514 58.3191 2740.00 2821.51 52.35
3515 58.3334 2758.00 2812.06 52.52
3516 58.3477 2756.00 2802.54 52.50
3517 58.3620 2836.00 2792.94 53.25
3518 58.3763 2726.00 2783.29 52.21
3519 58.3907 2705.00 2773.58 52.01
3520 58.4050 2717.00 2764.07 52.12
3521 58.4193 2719.00 2754.67 52.14
3522 58.4336 2622.00 2745.70 51.21
3523 58.4480 2736.00 2737.11 52.31
3524 58.4623 2731.00 2729.24 52.26
3525 58.4766 2601.00 2721.86 51.00
3526 58.4909 2675.00 2715.13 51.72
3527 58.5052 2725.00 2709.10 52.20
3528 58.5196 2728.00 2703.75 52.23
3529 58.5339 2740.00 2699.14 52.35
3530 58.5482 2685.00 2695.24 51.82
3531 58.5625 2788.00 2692.03 52.80
3532 58.5769 2814.00 2689.50 53.05
3533 58.5912 2727.00 2687.78 52.22
3534 58.6055 2596.00 2686.58 50.95
3535 58.6198 2648.00 2685.98 51.46
3536 58.6341 2769.00 2685.83 52.62
3537 58.6485 2712.00 2685.95 52.08
3538 58.6628 2745.00 2686.52 52.39
3539 58.6771 2640.00 2690.87 51.38
3540 58.6914 2645.00 2691.24 51.43
3541 58.7058 2793.00 2691.81 52.85
3542 58.7201 2676.00 2691.86 51.73
3543 58.7344 2724.00 2691.38 52.19
3544 58.7487 2625.00 2690.90 51.23
3545 58.7630 2682.00 2690.02 51.79
3546 58.7774 2751.00 2688.86 52.45
3547 58.7917 2635.00 2687.56 51.33
3548 58.8060 2522.00 2686.19 50.22
3549 58.8203 2658.00 2684.97 51.56
3550 58.8347 2695.00 2685.67 51.91
3551 58.8490 2716.00 2684.55 52.12
3552 58.8633 2701.00 2683.73 51.97
3553 58.8776 2683.00 2682.86 51.80
3554 58.8919 2666.00 2681.91 51.63
3555 58.9063 2610.00 2681.44 51.09
3556 58.9206 2737.00 2680.57 52.32
3557 58.9349 2743.00 2679.64 52.37
3558 58.9492 2723.00 2678.67 52.18
3559 58.9636 2655.00 2677.68 51.53
3560 58.9779 2647.00 2676.70 51.45
3561 58.9922 2676.00 2675.75 51.73
3562 59.0065 2652.00 2674.84 51.50
3563 59.0208 2642.00 2674.01 51.40
3564 59.0352 2654.00 2673.29 51.52
3565 59.0495 2707.00 2672.75 52.03
3566 59.0638 2696.00 2672.52 51.92
3567 59.0781 2799.00 2670.95 52.91
3568 59.0925 2716.00 2671.40 52.12
3569 59.1068 2695.00 2672.33 51.91
3570 59.1211 2645.00 2673.83 51.43
3571 59.1354 2610.00 2675.94 51.09
3572 59.1497 2680.00 2678.69 51.77
3573 59.1641 2636.00 2682.25 51.34
3574 59.1784 2686.00 2686.60 51.83
3575 59.1927 2663.00 2691.71 51.60
3576 59.2070 2790.00 2697.83 52.82
3577 59.2214 2552.00 2704.97 50.52
3578 59.2357 2653.00 2712.25 51.51
3579 59.2500 2794.00 2721.45 52.86
3580 59.2643 2750.00 2731.72 52.44
3581 59.2786 2696.00 2743.05 51.92
3582 59.2930 2877.00 2755.48 53.64
3583 59.3073 2723.00 2768.72 52.18
3584 59.3216 2836.00 2782.97 53.25
3585 59.3359 2743.00 2797.61 52.37
3586 59.3503 2799.00 2812.71 52.91
3587 59.3646 2833.00 2827.86 53.23
3588 59.3789 2899.00 2842.36 53.84
3589 59.3932 2876.00 2856.86 53.63
3590 59.4075 2863.00 2870.60 53.51
3591 59.4219 2864.00 2883.47 53.52
3592 59.4362 2920.00 2894.86 54.04
3593 59.4505 2946.00 2904.81 54.28
3594 59.4648 2982.00 2913.13 54.61
3595 59.4792 2965.00 2919.62 54.45
3596 59.4935 2924.00 2925.02 54.07
3597 59.5078 2908.00 2928.90 53.93
3598 59.5221 2923.00 2931.46 54.06
3599 59.5364 2760.00 2932.82 52.54
3600 59.5508 2982.00 2932.87 54.61
3601 59.5651 2900.00 2932.21 53.85
3602 59.5794 2807.00 2930.74 52.98
3603 59.5937 2931.00 2928.64 54.14
3604 59.6081 2950.00 2925.95 54.31
3605 59.6224 2911.00 2922.93 53.95
3606 59.6367 2889.00 2919.49 53.75
3607 59.6510 2874.00 2916.30 53.61
3608 59.6653 2887.00 2913.01 53.73
3609 59.6797 2907.00 2910.31 53.92
3610 59.6940 2902.00 2908.09 53.87
3611 59.7083 2887.00 2906.44 53.73
3612 59.7226 2921.00 2905.46 54.05
3613 59.7370 2850.00 2905.20 53.39
3614 59.7513 2897.00 2905.75 53.82
3615 59.7656 2886.00 2907.15 53.72
3616 59.7799 2878.00 2909.44 53.65
3617 59.7942 2873.00 2912.63 53.60
3618 59.8086 2999.00 2916.76 54.76
3619 59.8229 2896.00 2921.57 53.81
3620 59.8372 2933.00 2927.26 54.16
3621 59.8515 2884.00 2933.54 53.70
3622 59.8659 2965.00 2940.29 54.45
3623 59.8802 2947.00 2947.17 54.29
3624 59.8945 2984.00 2954.00 54.63
3625 59.9088 3057.00 2960.54 55.29
3626 59.9231 2949.00 2966.57 54.30
3627 59.9375 3021.00 2971.94 54.96
3628 59.9518 2983.00 2976.38 54.62
3629 59.9661 2952.00 2979.96 54.33
3630 59.9804 2936.00 2982.32 54.18
3631 59.9948 3011.00 2983.63 54.87
3632 60.0091 2964.00 2983.98 54.44
3633 60.0234 2907.00 2983.57 53.92
3634 60.0377 2996.00 2982.70 54.74
3635 60.0520 2880.00 2981.68 53.67
3636 60.0664 2906.00 2980.84 53.91
3637 60.0807 3022.00 2980.50 54.97
3638 60.0950 3030.00 2980.81 55.05
3639 60.1093 3015.00 2981.96 54.91
3640 60.1237 2991.00 2984.01 54.69
3641 60.1380 2938.00 2987.01 54.20
3642 60.1523 3085.00 2990.81 55.54
3643 60.1666 3087.00 2995.41 55.56
3644 60.1809 2968.00 3000.75 54.48
3645 60.1953 3039.00 3006.79 55.13
3646 60.2096 3059.00 3013.38 55.31
3647 60.2239 3094.00 3020.43 55.62
3648 60.2382 3060.00 3027.83 55.32
3649 60.2525 3098.00 3035.40 55.66
3650 60.2669 3138.00 3043.03 56.02
3651 60.2812 3023.00 3050.40 54.98
3652 60.2955 3006.00 3057.74 54.83
3653 60.3098 3027.00 3064.21 55.02
3654 60.3242 3029.00 3070.04 55.04
3655 60.3385 3082.00 3075.00 55.52
3656 60.3528 3057.00 3079.17 55.29
3657 60.3671 3043.00 3082.19 55.16
3658 60.3814 3003.00 3084.20 54.80
3659 60.3958 3077.00 3085.13 55.47
3660 60.4101 3121.00 3085.41 55.87
3661 60.4244 3044.00 3085.15 55.17
3662 60.4387 3098.00 3084.66 55.66
3663 60.4531 3082.00 3084.43 55.52
3664 60.4674 3051.00 3084.49 55.24
3665 60.4817 3057.00 3085.29 55.29
3666 60.4960 3102.00 3087.11 55.70
3667 60.5103 3092.00 3090.15 55.61
3668 60.5247 3012.00 3094.56 54.88
3669 60.5390 3083.00 3100.64 55.52
3670 60.5533 3181.00 3107.79 56.40
3671 60.5676 3092.00 3116.46 55.61
3672 60.5820 3038.00 3126.68 55.12
3673 60.5963 3071.00 3138.23 55.42
3674 60.6106 3043.00 3150.93 55.16
3675 60.6249 3124.00 3164.95 55.89
3676 60.6392 3133.00 3179.88 55.97
3677 60.6536 3248.00 3195.53 56.99
3678 60.6679 3229.00 3211.40 56.82
3679 60.6822 3337.00 3227.08 57.77
3680 60.6965 3197.00 3242.25 56.54
3681 60.7109 3300.00 3256.96 57.45
3682 60.7252 3299.00 3270.22 57.44
3683 60.7395 3288.00 3282.21 57.34
3684 60.7538 3327.00 3292.85 57.68
3685 60.7681 3360.00 3301.72 57.97
3686 60.7825 3428.00 3309.49 58.55
3687 60.7968 3427.00 3315.86 58.54
3688 60.8111 3348.00 3320.73 57.86
3689 60.8254 3218.00 3324.08 56.73
3690 60.8398 3375.00 3325.70 58.09
3691 60.8541 3383.00 3325.24 58.16
3692 60.8684 3345.00 3323.20 57.84
3693 60.8827 3374.00 3318.86 58.09
3694 60.8970 3410.00 3312.45 58.40
3695 60.9114 3264.00 3303.75 57.13
3696 60.9257 3322.00 3292.82 57.64
3697 60.9400 3276.00 3280.16 57.24
3698 60.9543 3233.00 3266.11 56.86
3699 60.9687 3200.00 3250.65 56.57
3700 60.9830 3180.00 3234.32 56.39
3701 60.9973 3162.00 3217.71 56.23
3702 61.0116 3130.00 3200.12 55.95
3703 61.0259 3143.00 3182.47 56.06
3704 61.0403 3173.00 3164.50 56.33
3705 61.0546 3065.00 3146.67 55.36
3706 61.0689 3096.00 3128.93 55.64
3707 61.0832 3049.00 3111.09 55.22
3708 61.0976 3083.00 3093.38 55.52
3709 61.1119 3147.00 3075.91 56.10
3710 61.1262 2964.00 3058.61 54.44
3711 61.1405 3028.00 3041.81 55.03
3712 61.1548 2954.00 3025.20 54.35
3713 61.1692 3057.00 3009.14 55.29
3714 61.1835 3104.00 2993.61 55.71
3715 61.1978 2950.00 2978.97 54.31
3716 61.2121 2943.00 2965.29 54.25
3717 61.2265 2946.00 2952.57 54.28
3718 61.2408 2898.00 2940.99 53.83
3719 61.2551 2898.00 2930.46 53.83
3720 61.2694 2813.00 2920.89 53.04
3721 61.2837 3002.00 2912.18 54.79
3722 61.2981 2894.00 2904.27 53.80
3723 61.3124 2883.00 2897.05 53.69
3724 61.3267 2862.00 2890.48 53.50
3725 61.3410 2923.00 2884.09 54.06
3726 61.3554 2908.00 2877.84 53.93
3727 61.3697 2945.00 2872.26 54.27
3728 61.3840 2863.00 2867.14 53.51
3729 61.3983 2898.00 2862.40 53.83
3730 61.4126 2864.00 2858.46 53.52
3731 61.4270 2952.00 2855.27 54.33
3732 61.4413 2773.00 2852.94 52.66
3733 61.4556 2840.00 2851.52 53.29
3734 61.4699 2818.00 2851.02 53.08
3735 61.4843 2817.00 2851.50 53.08
3736 61.4986 2816.00 2852.86 53.07
3737 61.5129 2830.00 2854.75 53.20
3738 61.5272 2900.00 2857.33 53.85
3739 61.5415 2937.00 2860.39 54.19
3740 61.5559 2892.00 2863.73 53.78
3741 61.5702 2891.00 2867.35 53.77
3742 61.5845 2882.00 2871.04 53.68
3743 61.5988 2892.00 2874.67 53.78
3744 61.6132 2773.00 2878.14 52.66
3745 61.6275 2889.00 2881.27 53.75
3746 61.6418 2984.00 2883.97 54.63
3747 61.6561 2832.00 2886.18 53.22
3748 61.6704 2887.00 2887.84 53.73
3749 61.6848 2997.00 2889.02 54.74
3750 61.6991 2898.00 2889.94 53.83
3751 61.7134 2918.00 2890.42 54.02
3752 61.7277 2888.00 2890.77 53.74
3753 61.7421 2981.00 2891.30 54.60
3754 61.7564 2992.00 2891.83 54.70
3755 61.7707 2855.00 2892.57 53.43
3756 61.7850 2980.00 2893.55 54.59
3757 61.7993 2796.00 2894.77 52.88
3758 61.8137 2861.00 2896.20 53.49
3759 61.8280 2886.00 2897.78 53.72
3760 61.8423 2900.00 2899.50 53.85
3761 61.8566 3030.00 2901.35 55.05
3762 61.8710 2885.00 2903.44 53.71
3763 61.8853 2809.00 2905.63 53.00
3764 61.8996 3013.00 2908.16 54.89
3765 61.9139 2851.00 2910.97 53.39
3766 61.9282 2949.00 2914.08 54.30
3767 61.9426 2911.00 2917.67 53.95
3768 61.9569 2901.00 2921.74 53.86
3769 61.9712 2961.00 2926.39 54.42
3770 61.9855 2889.00 2931.68 53.75
3771 61.9999 3029.00 2937.71 55.04
3772 62.0142 3008.00 2944.44 54.85
3773 62.0285 3061.00 2951.93 55.33
3774 62.0428 2988.00 2960.16 54.66
3775 62.0571 2953.00 2969.34 54.34
3776 62.0715 3093.00 2979.06 55.61
3777 62.0858 2988.00 2989.25 54.66
3778 62.1001 2980.00 2999.89 54.59
3779 62.1144 3006.00 3010.87 54.83
3780 62.1287 3079.00 3022.05 55.49
3781 62.1431 3158.00 3033.59 56.20
3782 62.1574 3057.00 3044.96 55.29
3783 62.1717 3156.00 3056.37 56.18
3784 62.1860 3125.00 3067.86 55.90
3785 62.2004 3117.00 3079.62 55.83
3786 62.2147 3181.00 3091.63 56.40
3787 62.2290 3060.00 3104.28 55.32
3788 62.2433 3086.00 3117.57 55.55
3789 62.2576 3224.00 3131.86 56.78
3790 62.2720 3243.00 3147.50 56.95
3791 62.2863 3176.00 3164.49 56.36
3792 62.3006 3127.00 3183.13 55.92
3793 62.3149 3257.00 3203.66 57.07
3794 62.3293 3269.00 3226.27 57.18
3795 62.3436 3207.00 3251.12 56.63
3796 62.3579 3241.00 3277.92 56.93
3797 62.3722 3331.00 3307.05 57.71
3798 62.3865 3240.00 3338.61 56.92
3799 62.4009 3362.00 3372.94 57.98
3800 62.4152 3343.00 3409.57 57.82
3801 62.4295 3282.00 3448.81 57.29
3802 62.4438 3403.00 3490.46 58.34
3803 62.4582 3481.00 3535.06 59.00
3804 62.4725 3494.00 3581.41 59.11
3805 62.4868 3585.00 3630.14 59.87
3806 62.5011 3780.00 3680.59 61.48
3807 62.5154 3771.00 3732.47 61.41
3808 62.5298 3894.00 3785.52 62.40
3809 62.5441 3912.00 3838.08 62.55
3810 62.5584 3973.00 3890.25 63.03
3811 62.5727 4040.00 3941.01 63.56
3812 62.5871 4110.00 3989.87 64.11
3813 62.6014 4154.00 4035.20 64.45
3814 62.6157 4027.00 4076.34 63.46
3815 62.6300 4064.00 4112.61 63.75
3816 62.6443 4149.00 4143.14 64.41
3817 62.6587 4314.00 4167.22 65.68
3818 62.6730 4284.00 4184.63 65.45
3819 62.6873 4273.00 4195.10 65.37
3820 62.7016 4147.00 4198.69 64.40
3821 62.7160 4089.00 4195.38 63.95
3822 62.7303 4243.00 4185.82 65.14
3823 62.7446 4222.00 4170.42 64.98
3824 62.7589 4084.00 4149.75 63.91
3825 62.7732 4070.00 4124.36 63.80
3826 62.7876 4014.00 4094.55 63.36
3827 62.8019 4007.00 4061.24 63.30
3828 62.8162 4032.00 4024.57 63.50
3829 62.8305 3954.00 3985.01 62.88
3830 62.8449 3873.00 3942.88 62.23
3831 62.8592 3909.00 3899.00 62.52
3832 62.8735 3817.00 3853.51 61.78
3833 62.8878 3815.00 3806.75 61.77
3834 62.9021 3856.00 3759.55 62.10
3835 62.9165 3783.00 3711.88 61.51
3836 62.9308 3717.00 3664.98 60.97
3837 62.9451 3554.00 3619.00 59.62
3838 62.9594 3687.00 3574.39 60.72
3839 62.9738 3602.00 3531.10 60.02
3840 62.9881 3489.00 3490.34 59.07
3841 63.0024 3368.00 3452.11 58.03
3842 63.0167 3377.00 3416.50 58.11
3843 63.0310 3397.00 3383.67 58.28
3844 63.0454 3264.00 3353.54 57.13
3845 63.0597 3337.00 3326.51 57.77
3846 63.0740 3245.00 3302.52 56.96
3847 63.0883 3283.00 3281.44 57.30
3848 63.1027 3365.00 3263.12 58.01
3849 63.1170 3306.00 3247.69 57.50
3850 63.1313 3307.00 3234.96 57.51
3851 63.1456 3217.00 3224.73 56.72
3852 63.1599 3160.00 3216.91 56.21
3853 63.1743 3191.00 3211.07 56.49
3854 63.1886 3266.00 3207.65 57.15
3855 63.2029 3257.00 3205.94 57.07
3856 63.2172 3223.00 3205.87 56.77
3857 63.2316 3173.00 3207.23 56.33
3858 63.2459 3196.00 3209.74 56.53
3859 63.2602 3210.00 3213.09 56.66
3860 63.2745 3151.00 3217.01 56.13
3861 63.2888 3194.00 3220.92 56.52
3862 63.3032 3220.00 3224.52 56.74
3863 63.3175 3303.00 3227.31 57.47
3864 63.3318 3346.00 3228.81 57.84
3865 63.3461 3214.00 3228.59 56.69
3866 63.3605 3306.00 3226.50 57.50
3867 63.3748 3228.00 3222.39 56.82
3868 63.3891 3271.00 3215.78 57.19
3869 63.4034 3205.00 3207.54 56.61
3870 63.4177 3138.00 3197.61 56.02
3871 63.4321 3289.00 3186.27 57.35
3872 63.4464 3091.00 3174.06 55.60
3873 63.4607 3203.00 3161.34 56.60
3874 63.4750 3162.00 3148.32 56.23
3875 63.4894 3142.00 3135.55 56.05
3876 63.5037 3034.00 3122.63 55.08
3877 63.5180 3178.00 3109.92 56.37
3878 63.5323 3183.00 3097.46 56.42
3879 63.5466 3141.00 3085.30 56.04
3880 63.5610 3090.00 3073.26 55.59
3881 63.5753 3112.00 3061.92 55.79
3882 63.5896 3037.00 3051.22 55.11
3883 63.6039 3180.00 3041.34 56.39
3884 63.6183 3029.00 3032.05 55.04
3885 63.6326 3043.00 3024.53 55.16
3886 63.6469 3024.00 3018.51 54.99
3887 63.6612 3042.00 3014.30 55.15
3888 63.6755 3034.00 3011.70 55.08
3889 63.6899 3027.00 3011.07 55.02
3890 63.7042 2990.00 3012.37 54.68
3891 63.7185 2983.00 3015.54 54.62
3892 63.7328 2973.00 3020.50 54.53
3893 63.7472 3076.00 3027.13 55.46
3894 63.7615 3010.00 3035.07 54.86
3895 63.7758 3055.00 3044.16 55.27
3896 63.7901 3068.00 3053.91 55.39
3897 63.8044 3180.00 3064.44 56.39
3898 63.8188 3180.00 3075.33 56.39
3899 63.8331 3136.00 3086.12 56.00
3900 63.8474 3182.00 3096.41 56.41
3901 63.8617 3220.00 3106.20 56.74
3902 63.8761 3120.00 3115.27 55.86
3903 63.8904 3178.00 3123.17 56.37
3904 63.9047 3217.00 3129.77 56.72
3905 63.9190 3095.00 3134.98 55.63
3906 63.9333 3128.00 3138.66 55.93
3907 63.9477 3186.00 3140.89 56.44
3908 63.9620 3064.00 3141.74 55.35
3909 63.9763 3242.00 3141.43 56.94
3910 63.9906 3080.00 3140.20 55.50
3911 64.0049 3244.00 3138.32 56.96
3912 64.0193 3176.00 3135.94 56.36
3913 64.0336 3215.00 3133.44 56.70
3914 64.0479 3224.00 3130.97 56.78
3915 64.0622 3067.00 3128.60 55.38
3916 64.0766 3157.00 3126.59 56.19
3917 64.0909 3035.00 3124.59 55.09
3918 64.1052 3184.00 3122.78 56.43
3919 64.1195 3053.00 3121.13 55.25
3920 64.1338 3181.00 3119.60 56.40
3921 64.1482 3113.00 3118.20 55.79
3922 64.1625 3113.00 3116.92 55.79
3923 64.1768 3054.00 3115.61 55.26
3924 64.1911 3093.00 3114.52 55.61
3925 64.2055 3044.00 3113.50 55.17
3926 64.2198 3285.00 3112.46 57.31
3927 64.2341 3093.00 3111.35 55.61
3928 64.2484 3101.00 3110.16 55.69
3929 64.2627 3061.00 3108.80 55.33
3930 64.2771 3171.00 3106.92 56.31
3931 64.2914 3048.00 3104.64 55.21
3932 64.3057 3145.00 3101.94 56.08
3933 64.3200 3071.00 3099.05 55.42
3934 64.3344 3089.00 3095.49 55.58
3935 64.3487 3192.00 3091.60 56.50
3936 64.3630 3010.00 3087.35 54.86
3937 64.3773 3169.00 3082.93 56.29
3938 64.3916 3068.00 3078.31 55.39
3939 64.4060 3101.00 3073.49 55.69
3940 64.4203 3104.00 3068.50 55.71
3941 64.4346 3055.00 3063.37 55.27
3942 64.4489 3064.00 3057.62 55.35
3943 64.4633 3038.00 3051.65 55.12
3944 64.4776 3064.00 3045.36 55.35
3945 64.4919 3019.00 3038.41 54.95
3946 64.5062 3023.00 3030.96 54.98
3947 64.5205 3095.00 3022.72 55.63
3948 64.5349 3065.00 3013.65 55.36
3949 64.5492 3021.00 3003.96 54.96
3950 64.5635 3022.00 2993.58 54.97
3951 64.5778 2947.00 2982.56 54.29
3952 64.5922 2934.00 2970.92 54.17
3953 64.6065 2958.00 2958.95 54.39
3954 64.6208 2851.00 2946.72 53.39
3955 64.6351 2904.00 2934.32 53.89
3956 64.6494 2876.00 2922.18 53.63
3957 64.6638 2855.00 2910.18 53.43
3958 64.6781 2905.00 2898.68 53.90
3959 64.6924 2845.00 2887.73 53.34
3960 64.7067 2913.00 2877.39 53.97
3961 64.7211 2861.00 2867.69 53.49
3962 64.7354 2798.00 2858.81 52.90
3963 64.7497 2774.00 2850.64 52.67
3964 64.7640 2929.00 2843.23 54.12
3965 64.7783 2882.00 2836.58 53.68
3966 64.7927 2795.00 2830.70 52.87
3967 64.8070 2805.00 2825.71 52.96
3968 64.8213 2841.00 2821.56 53.30
3969 64.8356 2859.00 2818.31 53.47
3970 64.8500 2827.00 2814.91 53.17
3971 64.8643 2803.00 2813.26 52.94
3972 64.8786 2890.00 2812.33 53.76
3973 64.8929 2934.00 2812.06 54.17
3974 64.9072 2791.00 2812.34 52.83
3975 64.9216 2832.00 2813.04 53.22
3976 64.9359 2826.00 2814.04 53.16
3977 64.9502 2807.00 2815.20 52.98
3978 64.9645 2798.00 2816.39 52.90
3979 64.9789 2903.00 2817.51 53.88
3980 64.9932 2767.00 2818.40 52.60
3981 65.0075 2833.00 2818.96 53.23
3982 65.0218 2824.00 2819.00 53.14
3983 65.0361 2854.00 2820.40 53.42
3984 65.0505 2844.00 2819.48 53.33
3985 65.0648 2838.00 2818.02 53.27
3986 65.0791 2853.00 2815.95 53.41
3987 65.0934 2899.00 2813.55 53.84
3988 65.1078 2906.00 2810.81 53.91
3989 65.1221 2702.00 2807.89 51.98
3990 65.1364 2797.00 2804.93 52.89
3991 65.1507 2805.00 2802.09 52.96
3992 65.1650 2730.00 2799.41 52.25
3993 65.1794 2738.00 2797.01 52.33
3994 65.1937 2744.00 2795.00 52.38
3995 65.2080 2699.00 2794.33 51.95
3996 65.2223 2657.00 2793.25 51.55
3997 65.2367 2769.00 2792.59 52.62
3998 65.2510 2814.00 2792.50 53.05
3999 65.2653 2807.00 2792.99 52.98
4000 65.2796 2816.00 2794.21 53.07
4001 65.2939 2712.00 2796.18 52.08
4002 65.3083 2782.00 2798.98 52.74
4003 65.3226 2776.00 2802.63 52.69
4004 65.3369 2788.00 2807.15 52.80
4005 65.3512 2835.00 2812.54 53.24
4006 65.3656 2852.00 2818.82 53.40
4007 65.3799 2796.00 2825.86 52.88
4008 65.3942 2845.00 2833.62 53.34
4009 65.4085 2884.00 2842.02 53.70
4010 65.4228 2904.00 2850.97 53.89
4011 65.4372 2878.00 2860.44 53.65
4012 65.4515 2815.00 2870.30 53.06
4013 65.4658 2937.00 2880.33 54.19
4014 65.4801 2824.00 2890.53 53.14
4015 65.4945 2878.00 2900.81 53.65
4016 65.5088 2912.00 2910.96 53.96
4017 65.5231 2914.00 2920.74 53.98
4018 65.5374 3000.00 2930.00 54.77
4019 65.5517 3006.00 2938.53 54.83
4020 65.5661 2928.00 2946.09 54.11
4021 65.5804 2961.00 2952.38 54.42
4022 65.5947 3037.00 2957.23 55.11
4023 65.6090 2844.00 2960.50 53.33
4024 65.6234 2955.00 2962.10 54.36
4025 65.6377 2861.00 2962.04 53.49
4026 65.6520 3003.00 2960.35 54.80
4027 65.6663 2918.00 2957.18 54.02
4028 65.6806 2775.00 2952.70 52.68
4029 65.6950 2922.00 2947.06 54.06
4030 65.7093 2916.00 2940.43 54.00
4031 65.7236 2901.00 2932.88 53.86
4032 65.7379 2888.00 2924.54 53.74
4033 65.7522 2883.00 2915.40 53.69
4034 65.7666 2935.00 2905.45 54.18
4035 65.7809 2836.00 2894.88 53.25
4036 65.7952 2886.00 2883.54 53.72
4037 65.8095 2948.00 2871.52 54.30
4038 65.8239 2794.00 2858.87 52.86
4039 65.8382 2813.00 2845.84 53.04
4040 65.8525 2798.00 2832.51 52.90
4041 65.8668 2766.00 2819.18 52.59
4042 65.8811 2821.00 2805.65 53.11
4043 65.8955 2820.00 2792.15 53.10
4044 65.9098 2701.00 2778.99 51.97
4045 65.9241 2745.00 2766.16 52.39
4046 65.9384 2768.00 2753.76 52.61
4047 65.9528 2697.00 2741.78 51.93
4048 65.9671 2696.00 2730.46 51.92
4049 65.9814 2774.00 2719.73 52.67
4050 65.9957 2649.00 2709.64 51.47
4051 66.0100 2720.00 2700.18 52.15
4052 66.0244 2634.00 2691.46 51.32
4053 66.0387 2679.00 2683.59 51.76
4054 66.0530 2712.00 2676.54 52.08
4055 66.0673 2591.00 2670.21 50.90
4056 66.0817 2604.00 2664.66 51.03
4057 66.0960 2574.00 2659.98 50.73
4058 66.1103 2619.00 2656.17 51.18
4059 66.1246 2734.00 2653.24 52.29
4060 66.1389 2656.00 2651.20 51.54
4061 66.1533 2599.00 2650.12 50.98
4062 66.1676 2628.00 2649.96 51.26
4063 66.1819 2699.00 2650.75 51.95
4064 66.1962 2592.00 2652.49 50.91
4065 66.2106 2676.00 2655.27 51.73
4066 66.2249 2533.00 2659.05 50.33
4067 66.2392 2664.00 2663.80 51.61
4068 66.2535 2741.00 2669.19 52.35
4069 66.2678 2698.00 2675.87 51.94
4070 66.2822 2692.00 2683.53 51.88
4071 66.2965 2687.00 2692.04 51.84
4072 66.3108 2657.00 2701.37 51.55
4073 66.3251 2648.00 2711.48 51.46
4074 66.3395 2703.00 2722.37 51.99
4075 66.3538 2662.00 2733.77 51.59
4076 66.3681 2612.00 2745.69 51.11
4077 66.3824 2706.00 2758.09 52.02
4078 66.3967 2782.00 2770.76 52.74
4079 66.4111 2748.00 2783.53 52.42
4080 66.4254 2872.00 2796.22 53.59
4081 66.4397 2858.00 2808.30 53.46
4082 66.4540 2790.00 2820.55 52.82
4083 66.4684 2930.00 2832.42 54.13
4084 66.4827 2940.00 2843.49 54.22
4085 66.4970 2857.00 2853.82 53.45
4086 66.5113 2820.00 2863.05 53.10
4087 66.5256 2827.00 2871.16 53.17
4088 66.5400 2765.00 2877.92 52.58
4089 66.5543 2765.00 2883.07 52.58
4090 66.5686 2937.00 2886.64 54.19
4091 66.5829 2786.00 2888.52 52.78
4092 66.5973 2921.00 2888.68 54.05
4093 66.6116 2913.00 2887.30 53.97
4094 66.6259 2877.00 2884.37 53.64
4095 66.6402 2849.00 2880.36 53.38
4096 66.6545 2920.00 2875.22 54.04
4097 66.6689 2831.00 2869.14 53.21
4098 66.6832 2888.00 2862.31 53.74
4099 66.6975 2765.00 2854.68 52.58
4100 66.7118 2818.00 2842.76 53.08
4101 66.7262 2747.00 2833.60 52.41
4102 66.7405 2803.00 2823.76 52.94
4103 66.7548 2766.00 2813.18 52.59
4104 66.7691 2731.00 2801.79 52.26
4105 66.7834 2749.00 2789.99 52.43
4106 66.7978 2782.00 2777.70 52.74
4107 66.8121 2695.00 2765.06 51.91
4108 66.8264 2783.00 2752.45 52.75
4109 66.8407 2697.00 2740.18 51.93
4110 66.8551 2687.00 2728.18 51.84
4111 66.8694 2709.00 2716.75 52.05
4112 66.8837 2647.00 2705.89 51.45
4113 66.8980 2824.00 2693.91 53.14
4114 66.9123 2704.00 2684.38 52.00
4115 66.9267 2589.00 2675.48 50.88
4116 66.9410 2751.00 2667.36 52.45
4117 66.9553 2630.00 2659.89 51.28
4118 66.9696 2670.00 2653.21 51.67
4119 66.9840 2720.00 2647.24 52.15
4120 66.9983 2749.00 2641.94 52.43
4121 67.0126 2697.00 2637.39 51.93
4122 67.0269 2607.00 2633.76 51.06
4123 67.0412 2595.00 2630.84 50.94
4124 67.0556 2610.00 2628.64 51.09
4125 67.0699 2548.00 2627.18 50.48
4126 67.0842 2549.00 2626.40 50.49
4127 67.0985 2579.00 2626.39 50.78
4128 67.1129 2697.00 2626.89 51.93
4129 67.1272 2724.00 2627.98 52.19
4130 67.1415 2694.00 2629.63 51.90
4131 67.1558 2605.00 2631.82 51.04
4132 67.1701 2608.00 2634.55 51.07
4133 67.1845 2597.00 2637.84 50.96
4134 67.1988 2674.00 2641.67 51.71
4135 67.2131 2703.00 2646.32 51.99
4136 67.2274 2676.00 2651.33 51.73
4137 67.2418 2615.00 2657.01 51.14
4138 67.2561 2664.00 2663.30 51.61
4139 67.2704 2661.00 2670.15 51.58
4140 67.2847 2630.00 2677.78 51.28
4141 67.2990 2645.00 2686.00 51.43
4142 67.3134 2642.00 2694.85 51.40
4143 67.3277 2744.00 2704.16 52.38
4144 67.3420 2695.00 2714.07 51.91
4145 67.3563 2732.00 2724.14 52.27
4146 67.3707 2699.00 2734.28 51.95
4147 67.3850 2723.00 2744.62 52.18
4148 67.3993 2808.00 2754.98 52.99
4149 67.4136 2795.00 2764.98 52.87
4150 67.4279 2773.00 2774.50 52.66
4151 67.4423 2825.00 2783.47 53.15
4152 67.4566 2845.00 2791.84 53.34
4153 67.4709 2857.00 2799.51 53.45
4154 67.4852 2861.00 2806.41 53.49
4155 67.4996 2676.00 2812.54 51.73
4156 67.5139 2864.00 2817.63 53.52
4157 67.5282 2769.00 2821.91 52.62
4158 67.5425 2874.00 2825.62 53.61
4159 67.5568 2821.00 2828.40 53.11
4160 67.5712 2857.00 2830.40 53.45
4161 67.5855 2793.00 2831.42 52.85
4162 67.5998 2863.00 2831.22 53.51
4163 67.6141 2855.00 2829.93 53.43
4164 67.6284 2845.00 2827.27 53.34
4165 67.6428 2801.00 2823.29 52.92
4166 67.6571 2777.00 2817.95 52.70
4167 67.6714 2820.00 2811.29 53.10
4168 67.6857 2816.00 2803.44 53.07
4169 67.7001 2886.00 2794.41 53.72
4170 67.7144 2762.00 2784.59 52.55
4171 67.7287 2799.00 2774.32 52.91
4172 67.7430 2767.00 2763.65 52.60
4173 67.7573 2737.00 2752.78 52.32
4174 67.7717 2760.00 2741.77 52.54
4175 67.7860 2775.00 2730.80 52.68
4176 67.8003 2696.00 2720.01 51.92
4177 67.8146 2594.00 2709.36 50.93
4178 67.8290 2653.00 2698.82 51.51
4179 67.8433 2714.00 2688.63 52.10
4180 67.8576 2681.00 2678.72 51.78
4181 67.8719 2716.00 2669.13 52.12
4182 67.8862 2589.00 2659.98 50.88
4183 67.9006 2626.00 2651.31 51.24
4184 67.9149 2676.00 2643.34 51.73
4185 67.9292 2661.00 2636.11 51.58
4186 67.9435 2747.00 2629.70 52.41
4187 67.9579 2662.00 2624.18 51.59
4188 67.9722 2685.00 2619.57 51.82
4189 67.9865 2523.00 2616.10 50.23
4190 68.0008 2623.00 2613.59 51.22
4191 68.0151 2680.00 2612.26 51.77
4192 68.0295 2674.00 2611.87 51.71
4193 68.0438 2716.00 2612.70 52.12
4194 68.0581 2638.00 2614.56 51.36
4195 68.0724 2556.00 2617.40 50.56
4196 68.0868 2525.00 2621.19 50.25
4197 68.1011 2589.00 2625.82 50.88
4198 68.1154 2653.00 2631.20 51.51
4199 68.1297 2660.00 2637.22 51.58
4200 68.1440 2665.00 2643.78 51.62
4201 68.1584 2704.00 2650.78 52.00
4202 68.1727 2725.00 2657.91 52.20
4203 68.1870 2638.00 2665.15 51.36
4204 68.2013 2782.00 2672.39 52.74
4205 68.2157 2676.00 2679.32 51.73
4206 68.2300 2572.00 2685.91 50.71
4207 68.2443 2729.00 2692.03 52.24
4208 68.2586 2747.00 2697.62 52.41
4209 68.2729 2825.00 2702.53 53.15
4210 68.2873 2757.00 2706.81 52.51
4211 68.3016 2746.00 2710.32 52.40
4212 68.3159 2665.00 2713.16 51.62
4213 68.3302 2733.00 2715.28 52.28
4214 68.3446 2709.00 2716.73 52.05
4215 68.3589 2596.00 2717.65 50.95
4216 68.3732 2782.00 2717.79 52.74
4217 68.3875 2714.00 2717.34 52.10
4218 68.4018 2747.00 2716.34 52.41
4219 68.4162 2701.00 2714.87 51.97
4220 68.4305 2666.00 2713.02 51.63
4221 68.4448 2698.00 2710.89 51.94
4222 68.4591 2601.00 2708.59 51.00
4223 68.4735 2686.00 2706.14 51.83
4224 68.4878 2753.00 2703.70 52.47
4225 68.5021 2718.00 2701.28 52.13
4226 68.5164 2777.00 2698.97 52.70
4227 68.5307 2713.00 2696.81 52.09
4228 68.5451 2624.00 2694.83 51.22
4229 68.5594 2712.00 2693.16 52.08
4230 68.5737 2749.00 2691.62 52.43
4231 68.5880 2624.00 2690.40 51.22
4232 68.6024 2710.00 2689.45 52.06
4233 68.6167 2724.00 2688.82 52.19
4234 68.6310 2629.00 2688.48 51.27
4235 68.6453 2668.00 2688.32 51.65
4236 68.6596 2716.00 2688.55 52.12
4237 68.6740 2740.00 2689.01 52.35
4238 68.6883 2712.00 2689.66 52.08
4239 68.7026 2686.00 2690.45 51.83
4240 68.7169 2694.00 2691.36 51.90
4241 68.7313 2734.00 2692.32 52.29
4242 68.7456 2711.00 2693.30 52.07
4243 68.7599 2847.00 2694.24 53.36
4244 68.7742 2710.00 2695.32 52.06
4245 68.7885 2802.00 2696.55 52.93
4246 68.8029 2779.00 2698.00 52.72
4247 68.8172 2743.00 2699.79 52.37
4248 68.8315 2698.00 2701.65 51.94
4249 68.8458 2767.00 2704.27 52.60
4250 68.8602 2728.00 2707.47 52.23
4251 68.8745 2681.00 2711.28 51.78
4252 68.8888 2629.00 2715.78 51.27
4253 68.9031 2690.00 2720.73 51.87
4254 68.9174 2750.00 2726.70 52.44
4255 68.9318 2715.00 2733.50 52.11
4256 68.9461 2763.00 2741.03 52.56
4257 68.9604 2709.00 2749.32 52.05
4258 68.9747 2781.00 2758.61 52.74
4259 68.9891 2772.00 2768.73 52.65
4260 69.0034 2769.00 2779.67 52.62
4261 69.0177 2713.00 2791.52 52.09
4262 69.0320 2870.00 2804.16 53.57
4263 69.0463 2835.00 2817.83 53.24
4264 69.0607 2785.00 2832.51 52.77
4265 69.0750 2783.00 2847.99 52.75
4266 69.0893 2936.00 2864.34 54.18
4267 69.1036 2823.00 2881.27 53.13
4268 69.1180 2846.00 2899.47 53.35
4269 69.1323 2821.00 2918.36 53.11
4270 69.1466 2898.00 2938.07 53.83
4271 69.1609 2963.00 2958.65 54.43
4272 69.1752 2881.00 2980.14 53.67
4273 69.1896 2981.00 3002.61 54.60
4274 69.2039 2949.00 3025.81 54.30
4275 69.2182 3048.00 3049.86 55.21
4276 69.2325 3000.00 3074.80 54.77
4277 69.2469 3007.00 3100.69 54.84
4278 69.2612 3059.00 3127.07 55.31
4279 69.2755 3109.00 3153.93 55.76
4280 69.2898 3140.00 3181.01 56.04
4281 69.3041 3202.00 3208.21 56.59
4282 69.3185 3333.00 3235.33 57.73
4283 69.3328 3232.00 3261.65 56.85
4284 69.3471 3386.00 3287.02 58.19
4285 69.3614 3333.00 3311.10 57.73
4286 69.3758 3425.00 3333.62 58.52
4287 69.3901 3389.00 3353.96 58.22
4288 69.4044 3377.00 3371.92 58.11
4289 69.4187 3323.00 3387.18 57.65
4290 69.4330 3448.00 3399.55 58.72
4291 69.4474 3452.00 3408.86 58.75
4292 69.4617 3463.00 3414.89 58.85
4293 69.4760 3451.00 3417.66 58.75
4294 69.4903 3402.00 3417.24 58.33
4295 69.5046 3363.00 3413.87 57.99
4296 69.5190 3261.00 3407.38 57.11
4297 69.5333 3292.00 3398.21 57.38
4298 69.5476 3360.00 3386.59 57.97
4299 69.5619 3411.00 3372.74 58.40
4300 69.5763 3325.00 3357.22 57.66
4301 69.5906 3230.00 3339.66 56.83
4302 69.6049 3240.00 3320.60 56.92
4303 69.6192 3266.00 3300.20 57.15
4304 69.6335 3298.00 3278.63 57.43
4305 69.6479 3209.00 3255.84 56.65
4306 69.6622 3128.00 3232.64 55.93
4307 69.6765 3082.00 3208.61 55.52
4308 69.6908 3174.00 3183.71 56.34
4309 69.7052 3134.00 3158.74 55.98
4310 69.7195 3170.00 3133.70 56.30
4311 69.7338 3146.00 3108.52 56.09
4312 69.7481 3021.00 3083.65 54.96
4313 69.7624 3002.00 3059.08 54.79
4314 69.7768 3007.00 3035.18 54.84
4315 69.7911 2999.00 3011.63 54.76
4316 69.8054 2822.00 2988.75 53.12
4317 69.8197 2912.00 2966.60 53.96
4318 69.8341 2924.00 2945.11 54.07
4319 69.8484 2834.00 2924.56 53.24
4320 69.8627 2834.00 2904.91 53.24
4321 69.8770 2866.00 2886.21 53.53
4322 69.8913 2868.00 2868.33 53.55
4323 69.9057 2813.00 2851.27 53.04
4324 69.9200 2850.00 2835.46 53.39
4325 69.9343 2850.00 2820.34 53.39
4326 69.9486 2821.00 2806.15 53.11
4327 69.9630 2812.00 2792.67 53.03
4328 69.9773 2732.00 2780.03 52.27
4329 69.9916 2827.00 2768.08 53.17
4330 70.0059 2763.00 2756.73 52.56
4331 70.0202 2822.00 2745.92 53.12
4332 70.0346 2771.00 2735.53 52.64
4333 70.0489 2770.00 2725.59 52.63
4334 70.0632 2715.00 2716.16 52.11
4335 70.0775 2742.00 2707.18 52.36
4336 70.0919 2680.00 2698.64 51.77
4337 70.1062 2685.00 2690.59 51.82
4338 70.1205 2616.00 2683.19 51.15
4339 70.1348 2610.00 2676.35 51.09
4340 70.1491 2722.00 2670.16 52.17
4341 70.1635 2669.00 2664.63 51.66
4342 70.1778 2638.00 2659.86 51.36
4343 70.1921 2774.00 2655.83 52.67
4344 70.2064 2638.00 2652.52 51.36
4345 70.2208 2685.00 2649.89 51.82
4346 70.2351 2613.00 2647.94 51.12
4347 70.2494 2660.00 2646.62 51.58
4348 70.2637 2706.00 2645.87 52.02
4349 70.2780 2695.00 2645.65 51.91
4350 70.2924 2692.00 2645.87 51.88
4351 70.3067 2765.00 2646.55 52.58
4352 70.3210 2620.00 2647.60 51.19
4353 70.3353 2745.00 2648.97 52.39
4354 70.3497 2562.00 2650.70 50.62
4355 70.3640 2669.00 2652.71 51.66
4356 70.3783 2711.00 2655.01 52.07
4357 70.3926 2690.00 2657.58 51.87
4358 70.4069 2718.00 2660.42 52.13
4359 70.4213 2754.00 2663.51 52.48
4360 70.4356 2737.00 2666.77 52.32
4361 70.4499 2651.00 2670.15 51.49
4362 70.4642 2612.00 2673.56 51.11
4363 70.4786 2728.00 2676.90 52.23
4364 70.4929 2662.00 2679.98 51.59
4365 70.5072 2670.00 2682.72 51.67
4366 70.5215 2633.00 2684.97 51.31
4367 70.5358 2667.00 2686.60 51.64
4368 70.5502 2733.00 2687.54 52.28
4369 70.5645 2721.00 2687.70 52.16
4370 70.5788 2774.00 2687.04 52.67
4371 70.5931 2698.00 2685.55 51.94
4372 70.6075 2706.00 2683.21 52.02
4373 70.6218 2862.00 2680.08 53.50
4374 70.6361 2724.00 2676.23 52.19
4375 70.6504 2706.00 2671.60 52.02
4376 70.6647 2738.00 2666.27 52.33
4377 70.6791 2640.00 2660.20 51.38
4378 70.6934 2647.00 2653.47 51.45
4379 70.7077 2623.00 2646.26 51.22
4380 70.7220 2586.00 2638.52 50.85
4381 70.7364 2601.00 2630.21 51.00
4382 70.7507 2603.00 2621.52 51.02
4383 70.7650 2618.00 2612.47 51.17
4384 70.7793 2588.00 2603.13 50.87
4385 70.7936 2547.00 2593.66 50.47
4386 70.8080 2570.00 2583.91 50.70
4387 70.8223 2640.00 2574.22 51.38
4388 70.8366 2570.00 2564.51 50.70
4389 70.8509 2637.00 2555.02 51.35
4390 70.8653 2512.00 2545.61 50.12
4391 70.8796 2508.00 2536.47 50.08
4392 70.8939 2607.00 2527.53 51.06
4393 70.9082 2594.00 2519.00 50.93
4394 70.9225 2564.00 2510.63 50.64
4395 70.9369 2525.00 2502.72 50.25
4396 70.9512 2468.00 2495.22 49.68
4397 70.9655 2534.00 2488.11 50.34
4398 70.9798 2499.00 2481.38 49.99
4399 70.9942 2540.00 2475.04 50.40
4400 71.0085 2447.00 2469.08 49.47
4401 71.0228 2420.00 2463.25 49.19
4402 71.0371 2419.00 2457.97 49.18
4403 71.0514 2517.00 2453.06 50.17
4404 71.0658 2450.00 2448.39 49.50
4405 71.0801 2440.00 2443.98 49.40
4406 71.0944 2447.00 2439.77 49.47
4407 71.1087 2409.00 2435.83 49.08
4408 71.1231 2457.00 2431.83 49.57
4409 71.1374 2367.00 2428.05 48.65
4410 71.1517 2406.00 2424.40 49.05
4411 71.1660 2493.00 2420.86 49.93
4412 71.1803 2439.00 2417.58 49.39
4413 71.1947 2334.00 2414.31 48.31
4414 71.2090 2441.00 2411.20 49.41
4415 71.2233 2360.00 2408.13 48.58
4416 71.2376 2405.00 2405.34 49.04
4417 71.2520 2403.00 2402.71 49.02
4418 71.2663 2503.00 2400.26 50.03
4419 71.2806 2455.00 2397.97 49.55
4420 71.2949 2344.00 2395.84 48.41
4421 71.3092 2368.00 2393.89 48.66
4422 71.3236 2414.00 2392.05 49.13
4423 71.3379 2351.00 2390.32 48.49
4424 71.3522 2407.00 2388.72 49.06
4425 71.3665 2472.00 2387.26 49.72
4426 71.3808 2432.00 2386.04 49.32
4427 71.3952 2374.00 2384.89 48.72
4428 71.4095 2292.00 2383.90 47.87
4429 71.4238 2423.00 2383.10 49.22
4430 71.4381 2431.00 2382.48 49.31
4431 71.4525 2388.00 2382.05 48.87
4432 71.4668 2442.00 2381.77 49.42
4433 71.4811 2364.00 2381.75 48.62
4434 71.4954 2384.00 2381.93 48.83
4435 71.5097 2426.00 2382.32 49.25
4436 71.5241 2413.00 2382.94 49.12
4437 71.5384 2481.00 2383.73 49.81
4438 71.5527 2400.00 2384.72 48.99
4439 71.5670 2465.00 2385.90 49.65
4440 71.5814 2368.00 2387.28 48.66
4441 71.5957 2446.00 2388.85 49.46
4442 71.6100 2428.00 2390.56 49.27
4443 71.6243 2450.00 2392.42 49.50
4444 71.6386 2429.00 2394.42 49.28
4445 71.6530 2347.00 2396.52 48.45
4446 71.6673 2391.00 2398.64 48.90
4447 71.6816 2343.00 2400.87 48.40
4448 71.6959 2406.00 2402.95 49.05
4449 71.7103 2444.00 2405.24 49.44
4450 71.7246 2396.00 2407.44 48.95
4451 71.7389 2403.00 2409.69 49.02
4452 71.7532 2523.00 2411.98 50.23
4453 71.7675 2338.00 2414.18 48.35
4454 71.7819 2394.00 2416.38 48.93
4455 71.7962 2353.00 2418.58 48.51
4456 71.8105 2421.00 2420.73 49.20
4457 71.8248 2385.00 2422.91 48.84
4458 71.8392 2483.00 2425.04 49.83
4459 71.8535 2396.00 2427.16 48.95
4460 71.8678 2329.00 2429.25 48.26
4461 71.8821 2431.00 2431.34 49.31
4462 71.8964 2341.00 2433.31 48.38
4463 71.9108 2486.00 2435.34 49.86
4464 71.9251 2506.00 2437.31 50.06
4465 71.9394 2471.00 2439.24 49.71
4466 71.9537 2469.00 2441.17 49.69
4467 71.9681 2448.00 2442.98 49.48
4468 71.9824 2438.00 2444.70 49.38
4469 71.9967 2432.00 2446.32 49.32
4470 72.0110 2513.00 2447.80 50.13
4471 72.0253 2541.00 2449.09 50.41
4472 72.0397 2462.00 2450.40 49.62
4473 72.0540 2387.00 2451.34 48.86
4474 72.0683 2475.00 2452.07 49.75
4475 72.0826 2467.00 2452.56 49.67
4476 72.0970 2422.00 2452.82 49.21
4477 72.1113 2393.00 2452.74 48.92
4478 72.1256 2476.00 2452.55 49.76
4479 72.1399 2416.00 2452.15 49.15
4480 72.1542 2515.00 2451.60 50.15
4481 72.1686 2482.00 2450.95 49.82
4482 72.1829 2434.00 2450.21 49.34
4483 72.1972 2440.00 2449.43 49.40
4484 72.2115 2432.00 2448.63 49.32
4485 72.2259 2394.00 2447.79 48.93
4486 72.2402 2412.00 2447.07 49.11
4487 72.2545 2379.00 2446.27 48.78
4488 72.2688 2539.00 2445.47 50.39
4489 72.2831 2391.00 2444.64 48.90
4490 72.2975 2429.00 2443.75 49.28
4491 72.3118 2438.00 2442.75 49.38
4492 72.3261 2324.00 2441.74 48.21
4493 72.3404 2359.00 2440.66 48.57
4494 72.3548 2442.00 2439.51 49.42
4495 72.3691 2493.00 2438.30 49.93
4496 72.3834 2482.00 2437.10 49.82
4497 72.3977 2423.00 2435.82 49.22
4498 72.4120 2447.00 2434.50 49.47
4499 72.4264 2392.00 2433.16 48.91
4500 72.4407 2419.00 2431.71 49.18
4501 72.4550 2393.00 2430.29 48.92
4502 72.4693 2296.00 2428.79 47.92
4503 72.4837 2440.00 2427.03 49.40
4504 72.4980 2420.00 2425.31 49.19
4505 72.5123 2332.00 2423.43 48.29
4506 72.5266 2412.00 2421.40 49.11
4507 72.5409 2415.00 2419.26 49.14
4508 72.5553 2426.00 2416.90 49.25
4509 72.5696 2435.00 2414.43 49.35
4510 72.5839 2348.00 2411.86 48.46
4511 72.5982 2442.00 2409.25 49.42
4512 72.6126 2416.00 2406.59 49.15
4513 72.6269 2445.00 2403.97 49.45
4514 72.6412 2463.00 2401.42 49.63
4515 72.6555 2287.00 2398.99 47.82
4516 72.6698 2391.00 2396.65 48.90
4517 72.6842 2368.00 2394.44 48.66
4518 72.6985 2385.00 2392.31 48.84
4519 72.7128 2420.00 2390.42 49.19
4520 72.7271 2427.00 2388.69 49.26
4521 72.7415 2375.00 2387.14 48.73
4522 72.7558 2386.00 2385.82 48.85
4523 72.7701 2370.00 2384.70 48.68
4524 72.7844 2471.00 2383.81 49.71
4525 72.7987 2302.00 2383.20 47.98
4526 72.8131 2336.00 2382.91 48.33
4527 72.8274 2276.00 2382.98 47.71
4528 72.8417 2369.00 2383.41 48.67
4529 72.8560 2395.00 2384.29 48.94
4530 72.8704 2460.00 2385.59 49.60
4531 72.8847 2385.00 2387.36 48.84
4532 72.8990 2405.00 2389.62 49.04
4533 72.9133 2380.00 2392.39 48.79
4534 72.9276 2407.00 2395.69 49.06
4535 72.9420 2394.00 2399.55 48.93
4536 72.9563 2371.00 2403.92 48.69
4537 72.9706 2422.00 2408.82 49.21
4538 72.9849 2414.00 2414.24 49.13
4539 72.9993 2343.00 2420.22 48.40
4540 73.0136 2458.00 2426.65 49.58
4541 73.0279 2434.00 2433.55 49.34
4542 73.0422 2431.00 2440.89 49.31
4543 73.0565 2458.00 2448.63 49.58
4544 73.0709 2414.00 2456.74 49.13
4545 73.0852 2468.00 2465.13 49.68
4546 73.0995 2441.00 2473.79 49.41
4547 73.1138 2537.00 2482.65 50.37
4548 73.1281 2368.00 2491.64 48.66
4549 73.1425 2550.00 2500.76 50.50
4550 73.1568 2548.00 2509.82 50.48
4551 73.1711 2549.00 2518.84 50.49
4552 73.1854 2501.00 2527.73 50.01
4553 73.1998 2482.00 2536.51 49.82
4554 73.2141 2624.00 2545.06 51.22
4555 73.2284 2581.00 2553.32 50.80
4556 73.2427 2580.00 2561.28 50.79
4557 73.2570 2574.00 2568.91 50.73
4558 73.2714 2590.00 2576.16 50.89
4559 73.2857 2659.00 2582.93 51.57
4560 73.3000 2646.00 2589.17 51.44
4561 73.3143 2547.00 2594.81 50.47
4562 73.3287 2675.00 2599.84 51.72
4563 73.3430 2542.00 2604.03 50.42
4564 73.3573 2584.00 2607.26 50.83
4565 73.3716 2614.00 2609.73 51.13
4566 73.3859 2621.00 2611.23 51.20
4567 73.4003 2689.00 2611.77 51.86
4568 73.4146 2561.00 2611.35 50.61
4569 73.4289 2647.00 2610.02 51.45
4570 73.4432 2573.00 2607.82 50.72
4571 73.4576 2647.00 2604.77 51.45
4572 73.4719 2486.00 2600.99 49.86
4573 73.4862 2557.00 2596.53 50.57
4574 73.5005 2546.00 2591.44 50.46
4575 73.5148 2686.00 2585.77 51.83
4576 73.5292 2486.00 2579.51 49.86
4577 73.5435 2574.00 2572.73 50.73
4578 73.5578 2577.00 2565.58 50.76
4579 73.5721 2599.00 2558.01 50.98
4580 73.5865 2549.00 2550.11 50.49
4581 73.6008 2566.00 2541.97 50.66
4582 73.6151 2458.00 2533.62 49.58
4583 73.6294 2573.00 2525.14 50.72
4584 73.6437 2518.00 2516.60 50.18
4585 73.6581 2539.00 2508.00 50.39
4586 73.6724 2451.00 2499.57 49.51
4587 73.6867 2525.00 2491.19 50.25
4588 73.7010 2534.00 2483.04 50.34
4589 73.7154 2508.00 2474.96 50.08
4590 73.7297 2534.00 2467.32 50.34
4591 73.7440 2548.00 2460.03 50.48
4592 73.7583 2513.00 2452.98 50.13
4593 73.7726 2476.00 2446.36 49.76
4594 73.7870 2499.00 2440.08 49.99
4595 73.8013 2454.00 2434.32 49.54
4596 73.8156 2422.00 2429.02 49.21
4597 73.8299 2395.00 2424.21 48.94
4598 73.8443 2526.00 2419.89 50.26
4599 73.8586 2463.00 2416.15 49.63
4600 73.8729 2394.00 2413.00 48.93
4601 73.8872 2430.00 2410.46 49.29
4602 73.9015 2385.00 2408.44 48.84
4603 73.9159 2469.00 2407.05 49.69
4604 73.9302 2451.00 2404.13 49.51
4605 73.9445 2358.00 2404.01 48.56
4606 73.9588 2351.00 2404.53 48.49
4607 73.9732 2426.00 2405.67 49.25
4608 73.9875 2453.00 2407.33 49.53
4609 74.0018 2424.00 2409.71 49.23
4610 74.0161 2369.00 2412.74 48.67
4611 74.0304 2395.00 2416.39 48.94
4612 74.0448 2368.00 2420.53 48.66
4613 74.0591 2435.00 2425.42 49.35
4614 74.0734 2480.00 2430.90 49.80
4615 74.0877 2456.00 2436.97 49.56
4616 74.1021 2425.00 2443.67 49.24
4617 74.1164 2405.00 2450.84 49.04
4618 74.1307 2506.00 2458.38 50.06
4619 74.1450 2398.00 2465.49 48.97
4620 74.1593 2440.00 2474.06 49.40
4621 74.1737 2448.00 2483.05 49.48
4622 74.1880 2524.00 2492.33 50.24
4623 74.2023 2475.00 2501.76 49.75
4624 74.2166 2570.00 2511.40 50.70
4625 74.2310 2602.00 2521.10 51.01
4626 74.2453 2641.00 2530.81 51.39
4627 74.2596 2674.00 2540.34 51.71
4628 74.2739 2559.00 2549.78 50.59
4629 74.2882 2613.00 2558.94 51.12
4630 74.3026 2584.00 2567.80 50.83
4631 74.3169 2636.00 2576.25 51.34
4632 74.3312 2595.00 2584.13 50.94
4633 74.3455 2607.00 2591.49 51.06
4634 74.3599 2655.00 2598.32 51.53
4635 74.3742 2698.00 2604.51 51.94
4636 74.3885 2567.00 2610.10 50.67
4637 74.4028 2671.00 2615.19 51.68
4638 74.4171 2484.00 2619.61 49.84
4639 74.4315 2537.00 2623.52 50.37
4640 74.4458 2685.00 2626.88 51.82
4641 74.4601 2647.00 2629.79 51.45
4642 74.4744 2627.00 2632.24 51.25
4643 74.4888 2674.00 2634.25 51.71
4644 74.5031 2611.00 2635.78 51.10
4645 74.5174 2636.00 2636.86 51.34
4646 74.5317 2648.00 2637.48 51.46
4647 74.5460 2577.00 2637.55 50.76
4648 74.5604 2599.00 2637.10 50.98
4649 74.5747 2644.00 2636.02 51.42
4650 74.5890 2700.00 2634.33 51.96
4651 74.6033 2622.00 2632.01 51.21
4652 74.6177 2644.00 2629.06 51.42
4653 74.6320 2662.00 2625.47 51.59
4654 74.6463 2559.00 2621.33 50.59
4655 74.6606 2694.00 2616.71 51.90
4656 74.6749 2631.00 2611.75 51.29
4657 74.6893 2654.00 2606.37 51.52
4658 74.7036 2640.00 2600.81 51.38
4659 74.7179 2644.00 2595.13 51.42
4660 74.7322 2534.00 2589.44 50.34
4661 74.7466 2600.00 2583.73 50.99
4662 74.7609 2608.00 2578.11 51.07
4663 74.7752 2650.00 2572.64 51.48
4664 74.7895 2577.00 2567.26 50.76
4665 74.8038 2538.00 2562.03 50.38
4666 74.8182 2521.00 2556.87 50.21
4667 74.8325 2576.00 2551.85 50.75
4668 74.8468 2563.00 2546.96 50.63
4669 74.8611 2581.00 2542.20 50.80
4670 74.8755 2575.00 2537.54 50.74
4671 74.8898 2497.00 2533.10 49.97
4672 74.9041 2584.00 2528.80 50.83
4673 74.9184 2525.00 2524.69 50.25
4674 74.9327 2501.00 2520.80 50.01
4675 74.9471 2460.00 2517.10 49.60
4676 74.9614 2482.00 2513.64 49.82
4677 74.9757 2468.00 2510.41 49.68
4678 74.9900 2502.00 2507.40 50.02
4679 75.0043 2475.00 2504.57 49.75
4680 75.0187 2539.00 2501.92 50.39
4681 75.0330 2479.00 2499.43 49.79
4682 75.0473 2572.00 2497.07 50.71
4683 75.0616 2535.00 2494.83 50.35
4684 75.0760 2498.00 2492.64 49.98
4685 75.0903 2552.00 2490.51 50.52
4686 75.1046 2534.00 2488.40 50.34
4687 75.1189 2575.00 2486.25 50.74
4688 75.1332 2456.00 2484.04 49.56
4689 75.1476 2404.00 2481.71 49.03
4690 75.1619 2530.00 2479.25 50.30
4691 75.1762 2484.00 2476.65 49.84
4692 75.1905 2424.00 2473.89 49.23
4693 75.2049 2442.00 2470.96 49.42
4694 75.2192 2476.00 2467.88 49.76
4695 75.2335 2592.00 2464.78 50.91
4696 75.2478 2399.00 2461.64 48.98
4697 75.2621 2445.00 2458.51 49.45
4698 75.2765 2396.00 2455.50 48.95
4699 75.2908 2404.00 2452.52 49.03
4700 75.3051 2446.00 2449.87 49.46
4701 75.3194 2384.00 2447.19 48.83
4702 75.3338 2441.00 2444.62 49.41
4703 75.3481 2537.00 2442.22 50.37
4704 75.3624 2424.00 2439.99 49.23
4705 75.3767 2497.00 2437.92 49.97
4706 75.3910 2515.00 2436.01 50.15
4707 75.4054 2420.00 2434.24 49.19
4708 75.4197 2386.00 2432.63 48.85
4709 75.4340 2398.00 2431.14 48.97
4710 75.4483 2358.00 2429.81 48.56
4711 75.4627 2361.00 2428.59 48.59
4712 75.4770 2445.00 2427.47 49.45
4713 75.4913 2407.00 2426.49 49.06
4714 75.5056 2431.00 2425.52 49.31
4715 75.5199 2305.00 2424.63 48.01
4716 75.5343 2457.00 2423.64 49.57
4717 75.5486 2311.00 2422.58 48.07
4718 75.5629 2501.00 2421.37 50.01
4719 75.5772 2305.00 2420.02 48.01
4720 75.5916 2440.00 2418.43 49.40
4721 75.6059 2483.00 2416.74 49.83
4722 75.6202 2482.00 2414.89 49.82
4723 75.6345 2359.00 2412.90 48.57
4724 75.6488 2446.00 2410.80 49.46
4725 75.6632 2420.00 2408.68 49.19
4726 75.6775 2489.00 2406.47 49.89
4727 75.6918 2380.00 2404.24 48.79
4728 75.7061 2382.00 2402.00 48.81
4729 75.7205 2418.00 2399.77 49.17
4730 75.7348 2350.00 2397.59 48.48
4731 75.7491 2425.00 2395.38 49.24
4732 75.7634 2335.00 2393.16 48.32
4733 75.7777 2336.00 2390.89 48.33
4734 75.7921 2387.00 2388.53 48.86
4735 75.8064 2298.00 2386.06 47.94
4736 75.8207 2416.00 2383.50 49.15
4737 75.8350 2332.00 2380.81 48.29
4738 75.8494 2381.00 2377.91 48.80
4739 75.8637 2294.00 2374.94 47.90
4740 75.8780 2300.00 2371.83 47.96
4741 75.8923 2337.00 2368.47 48.34
4742 75.9066 2382.00 2365.13 48.81
4743 75.9210 2327.00 2361.66 48.24
4744 75.9353 2395.00 2358.15 48.94
4745 75.9496 2384.00 2354.60 48.83
4746 75.9639 2313.00 2351.01 48.09
4747 75.9783 2354.00 2347.39 48.52
4748 75.9926 2350.00 2343.82 48.48
4749 76.0069 2268.00 2340.30 47.62
4750 76.0212 2335.00 2336.85 48.32
4751 76.0355 2327.00 2333.49 48.24
4752 76.0499 2291.00 2330.22 47.86
4753 76.0642 2295.00 2327.06 47.91
4754 76.0785 2196.00 2324.06 46.86
4755 76.0928 2400.00 2321.18 48.99
4756 76.1072 2297.00 2318.35 47.93
4757 76.1215 2390.00 2315.62 48.89
4758 76.1358 2363.00 2313.17 48.61
4759 76.1501 2275.00 2310.84 47.70
4760 76.1644 2299.00 2308.64 47.95
4761 76.1788 2284.00 2306.57 47.79
4762 76.1931 2321.00 2304.68 48.18
4763 76.2074 2191.00 2302.97 46.81
4764 76.2217 2309.00 2301.41 48.05
4765 76.2361 2329.00 2300.04 48.26
4766 76.2504 2316.00 2298.86 48.12
4767 76.2647 2344.00 2297.90 48.41
4768 76.2790 2360.00 2297.15 48.58
4769 76.2933 2318.00 2296.62 48.15
4770 76.3077 2283.00 2296.31 47.78
4771 76.3220 2285.00 2296.23 47.80
4772 76.3363 2244.00 2296.37 47.37
4773 76.3506 2309.00 2296.68 48.05
4774 76.3650 2236.00 2297.25 47.29
4775 76.3793 2304.00 2298.01 48.00
4776 76.3936 2364.00 2298.95 48.62
4777 76.4079 2270.00 2300.05 47.64
4778 76.4222 2351.00 2301.32 48.49
4779 76.4366 2333.00 2302.73 48.30
4780 76.4509 2278.00 2304.24 47.73
4781 76.4652 2289.00 2305.84 47.84
4782 76.4795 2253.00 2307.56 47.47
4783 76.4939 2287.00 2309.29 47.82
4784 76.5082 2374.00 2311.03 48.72
4785 76.5225 2319.00 2312.78 48.16
4786 76.5368 2255.00 2314.50 47.49
4787 76.5511 2233.00 2316.20 47.25
4788 76.5655 2279.00 2317.85 47.74
4789 76.5798 2284.00 2319.41 47.79
4790 76.5941 2291.00 2320.88 47.86
4791 76.6084 2364.00 2322.26 48.62
4792 76.6228 2169.00 2323.52 46.57
4793 76.6371 2372.00 2324.66 48.70
4794 76.6514 2438.00 2325.66 49.38
4795 76.6657 2308.00 2326.53 48.04
4796 76.6800 2477.00 2327.24 49.77
4797 76.6944 2322.00 2327.82 48.19
4798 76.7087 2275.00 2328.21 47.70
4799 76.7230 2386.00 2328.45 48.85
4800 76.7373 2413.00 2328.52 49.12
4801 76.7517 2247.00 2328.44 47.40
4802 76.7660 2265.00 2328.21 47.59
4803 76.7803 2384.00 2327.86 48.83
4804 76.7946 2311.00 2327.39 48.07
4805 76.8089 2383.00 2326.79 48.82
4806 76.8233 2263.00 2326.16 47.57
4807 76.8376 2368.00 2325.49 48.66
4808 76.8519 2363.00 2324.80 48.61
4809 76.8662 2275.00 2324.41 47.70
4810 76.8805 2396.00 2323.77 48.95
4811 76.8949 2338.00 2323.04 48.35
4812 76.9092 2292.00 2322.40 47.87
4813 76.9235 2351.00 2321.96 48.49
4814 76.9378 2360.00 2321.62 48.58
4815 76.9522 2329.00 2321.36 48.26
4816 76.9665 2320.00 2321.19 48.17
4817 76.9808 2348.00 2321.11 48.46
4818 76.9951 2363.00 2321.04 48.61
4819 77.0094 2386.00 2321.11 48.85
4820 77.0238 2337.00 2321.23 48.34
4821 77.0381 2260.00 2321.40 47.54
4822 77.0524 2395.00 2321.61 48.94
4823 77.0667 2332.00 2321.83 48.29
4824 77.0811 2338.00 2322.03 48.35
4825 77.0954 2298.00 2322.38 47.94
4826 77.1097 2403.00 2322.53 49.02
4827 77.1240 2312.00 2322.56 48.08
4828 77.1383 2291.00 2322.50 47.86
4829 77.1527 2333.00 2322.40 48.30
4830 77.1670 2285.00 2322.18 47.80
4831 77.1813 2370.00 2321.85 48.68
4832 77.1956 2324.00 2321.40 48.21
4833 77.2100 2267.00 2320.78 47.61
4834 77.2243 2360.00 2320.08 48.58
4835 77.2386 2396.00 2319.40 48.95
4836 77.2529 2366.00 2318.56 48.64
4837 77.2672 2283.00 2317.66 47.78
4838 77.2816 2276.00 2316.74 47.71
4839 77.2959 2277.00 2315.89 47.72
4840 77.3102 2326.00 2314.98 48.23
4841 77.3245 2289.00 2314.10 47.84
4842 77.3389 2294.00 2313.28 47.90
4843 77.3532 2334.00 2312.51 48.31
4844 77.3675 2301.00 2311.80 47.97
4845 77.3818 2328.00 2311.16 48.25
4846 77.3961 2330.00 2310.60 48.27
4847 77.4105 2315.00 2309.94 48.11
4848 77.4248 2289.00 2309.57 47.84
4849 77.4391 2306.00 2309.26 48.02
4850 77.4534 2361.00 2309.05 48.59
4851 77.4678 2341.00 2309.06 48.38
4852 77.4821 2335.00 2309.07 48.32
4853 77.4964 2257.00 2309.21 47.51
4854 77.5107 2342.00 2309.52 48.39
4855 77.5250 2257.00 2309.99 47.51
4856 77.5394 2261.00 2310.56 47.55
4857 77.5537 2335.00 2311.30 48.32
4858 77.5680 2323.00 2312.20 48.20
4859 77.5823 2368.00 2313.28 48.66
4860 77.5967 2340.00 2314.51 48.37
4861 77.6110 2375.00 2315.89 48.73
4862 77.6253 2340.00 2317.44 48.37
4863 77.6396 2284.00 2319.05 47.79
4864 77.6539 2362.00 2320.86 48.60
4865 77.6683 2234.00 2322.78 47.27
4866 77.6826 2392.00 2324.75 48.91
4867 77.6969 2368.00 2326.82 48.66
4868 77.7112 2311.00 2328.87 48.07
4869 77.7256 2413.00 2330.94 49.12
4870 77.7399 2315.00 2332.99 48.11
4871 77.7542 2352.00 2334.98 48.50
4872 77.7685 2341.00 2336.90 48.38
4873 77.7828 2329.00 2338.73 48.26
4874 77.7972 2334.00 2340.50 48.31
4875 77.8115 2336.00 2342.25 48.33
4876 77.8258 2294.00 2343.88 47.90
4877 77.8401 2339.00 2345.48 48.36
4878 77.8545 2362.00 2347.09 48.60
4879 77.8688 2436.00 2348.73 49.36
4880 77.8831 2379.00 2350.41 48.78
4881 77.8974 2304.00 2352.17 48.00
4882 77.9117 2326.00 2354.04 48.23
4883 77.9261 2352.00 2356.04 48.50
4884 77.9404 2354.00 2358.16 48.52
4885 77.9547 2304.00 2360.39 48.00
4886 77.9690 2311.00 2362.74 48.07
4887 77.9834 2363.00 2365.19 48.61
4888 77.9977 2428.00 2367.79 49.27
4889 78.0120 2365.00 2370.30 48.63
4890 78.0263 2325.00 2372.82 48.22
4891 78.0406 2364.00 2375.31 48.62
4892 78.0550 2273.00 2377.80 47.68
4893 78.0693 2286.00 2380.09 47.81
4894 78.0836 2318.00 2382.26 48.15
4895 78.0979 2370.00 2384.29 48.68
4896 78.1123 2460.00 2386.18 49.60
4897 78.1266 2295.00 2387.78 47.91
4898 78.1409 2422.00 2389.35 49.21
4899 78.1552 2398.00 2390.76 48.97
4900 78.1695 2313.00 2391.98 48.09
4901 78.1839 2307.00 2393.13 48.03
4902 78.1982 2401.00 2394.14 49.00
4903 78.2125 2362.00 2395.03 48.60
4904 78.2268 2345.00 2395.85 48.43
4905 78.2412 2283.00 2396.48 47.78
4906 78.2555 2270.00 2397.08 47.64
4907 78.2698 2372.00 2397.36 48.70
4908 78.2841 2334.00 2397.56 48.31
4909 78.2984 2347.00 2397.50 48.45
4910 78.3128 2412.00 2397.35 49.11
4911 78.3271 2413.00 2396.96 49.12
4912 78.3414 2383.00 2396.37 48.82
4913 78.3557 2447.00 2395.55 49.47
4914 78.3701 2382.00 2394.61 48.81
4915 78.3844 2353.00 2393.50 48.51
4916 78.3987 2452.00 2392.24 49.52
4917 78.4130 2315.00 2390.88 48.11
4918 78.4273 2362.00 2389.40 48.60
4919 78.4417 2432.00 2387.80 49.32
4920 78.4560 2338.00 2386.10 48.35
4921 78.4703 2341.00 2384.30 48.38
4922 78.4846 2412.00 2382.46 49.11
4923 78.4990 2398.00 2380.45 48.97
4924 78.5133 2447.00 2378.40 49.47
4925 78.5276 2315.00 2376.31 48.11
4926 78.5419 2316.00 2374.22 48.12
4927 78.5562 2313.00 2372.09 48.09
4928 78.5706 2226.00 2370.07 47.18
4929 78.5849 2496.00 2368.20 49.96
4930 78.5992 2420.00 2366.54 49.19
4931 78.6135 2404.00 2365.06 49.03
4932 78.6279 2292.00 2363.94 47.87
4933 78.6422 2428.00 2363.05 49.27
4934 78.6565 2348.00 2362.42 48.46
4935 78.6708 2317.00 2362.24 48.14
4936 78.6851 2403.00 2362.47 49.02
4937 78.6995 2403.00 2363.10 49.02
4938 78.7138 2314.00 2364.19 48.10
4939 78.7281 2348.00 2365.66 48.46
4940 78.7424 2330.00 2367.56 48.27
4941 78.7567 2311.00 2369.88 48.07
4942 78.7711 2358.00 2372.62 48.56
4943 78.7854 2340.00 2375.71 48.37
4944 78.7997 2323.00 2379.18 48.20
4945 78.8140 2273.00 2382.96 47.68
4946 78.8284 2421.00 2387.06 49.20
4947 78.8427 2418.00 2391.31 49.17
4948 78.8570 2477.00 2395.72 49.77
4949 78.8713 2396.00 2400.14 48.95
4950 78.8856 2407.00 2404.46 49.06
4951 78.9000 2313.00 2408.67 48.09
4952 78.9143 2475.00 2412.49 49.75
4953 78.9286 2471.00 2415.94 49.71
4954 78.9429 2477.00 2419.00 49.77
4955 78.9573 2414.00 2421.47 49.13
4956 78.9716 2412.00 2423.28 49.11
4957 78.9859 2332.00 2424.38 48.29
4958 79.0002 2497.00 2424.79 49.97
4959 79.0145 2467.00 2424.43 49.67
4960 79.0289 2486.00 2423.36 49.86
4961 79.0432 2422.00 2421.63 49.21
4962 79.0575 2484.00 2419.30 49.84
4963 79.0718 2433.00 2416.45 49.33
4964 79.0862 2452.00 2413.13 49.52
4965 79.1005 2366.00 2409.53 48.64
4966 79.1148 2382.00 2405.61 48.81
4967 79.1291 2390.00 2401.40 48.89
4968 79.1434 2407.00 2396.99 49.06
4969 79.1578 2417.00 2392.35 49.16
4970 79.1721 2274.00 2387.11 47.69
4971 79.1864 2393.00 2382.08 48.92
4972 79.2007 2398.00 2377.04 48.97
4973 79.2151 2462.00 2371.81 49.62
4974 79.2294 2414.00 2366.46 49.13
4975 79.2437 2319.00 2361.02 48.16
4976 79.2580 2248.00 2355.41 47.41
4977 79.2723 2441.00 2349.71 49.41
4978 79.2867 2386.00 2343.89 48.85
4979 79.3010 2314.00 2338.10 48.10
4980 79.3153 2275.00 2332.33 47.70
4981 79.3296 2342.00 2326.64 48.39
4982 79.3440 2365.00 2321.06 48.63
4983 79.3583 2250.00 2315.67 47.43
4984 79.3726 2326.00 2310.43 48.23
4985 79.3869 2327.00 2305.44 48.24
4986 79.4012 2316.00 2300.48 48.12
4987 79.4156 2302.00 2295.88 47.98
4988 79.4299 2227.00 2291.62 47.19
4989 79.4442 2306.00 2287.60 48.02
4990 79.4585 2283.00 2283.79 47.78
4991 79.4729 2271.00 2280.12 47.65
4992 79.4872 2297.00 2276.66 47.93
4993 79.5015 2308.00 2273.31 48.04
4994 79.5158 2280.00 2270.06 47.75
4995 79.5301 2264.00 2266.84 47.58
4996 79.5445 2244.00 2263.68 47.37
4997 79.5588 2340.00 2260.57 48.37
4998 79.5731 2267.00 2257.48 47.61
4999 79.5874 2279.00 2254.40 47.74
5000 79.6018 2259.00 2251.32 47.53
5001 79.6161 2258.00 2248.30 47.52
5002 79.6304 2311.00 2245.31 48.07
5003 79.6447 2312.00 2242.39 48.08
5004 79.6590 2244.00 2239.55 47.37
5005 79.6734 2237.00 2236.79 47.30
5006 79.6877 2198.00 2234.16 46.88
5007 79.7020 2212.00 2231.63 47.03
5008 79.7163 2183.00 2229.21 46.72
5009 79.7307 2155.00 2226.91 46.42
5010 79.7450 2259.00 2224.73 47.53
5011 79.7593 2200.00 2222.64 46.90
5012 79.7736 2172.00 2220.63 46.60
5013 79.7879 2272.00 2218.71 47.67
5014 79.8023 2213.00 2216.84 47.04
5015 79.8166 2183.00 2215.05 46.72
5016 79.8309 2337.00 2213.30 48.34
5017 79.8452 2235.00 2211.72 47.28
5018 79.8596 2243.00 2210.04 47.36
5019 79.8739 2237.00 2208.40 47.30
5020 79.8882 2257.00 2206.81 47.51
5021 79.9025 2260.00 2205.26 47.54
5022 79.9168 2213.00 2203.74 47.04
5023 79.9312 2125.00 2202.25 46.10
5024 79.9455 2241.00 2200.79 47.34
5025 79.9598 2187.00 2199.37 46.77
5026 79.9741 2181.00 2197.98 46.70
5027 79.9885 2192.00 2196.60 46.82
5028 80.0028 2159.00 2195.25 46.47
5029 80.0171 2160.00 2193.92 46.48
5030 80.0314 2219.00 2192.63 47.11
5031 80.0457 2223.00 2191.37 47.15
5032 80.0601 2060.00 2190.12 45.39
5033 80.0744 2144.00 2188.93 46.30
5034 80.0887 2179.00 2187.79 46.68
5035 80.1030 2191.00 2186.63 46.81
5036 80.1174 2184.00 2185.47 46.73
5037 80.1317 2226.00 2184.33 47.18
5038 80.1460 2235.00 2183.19 47.28
5039 80.1603 2187.00 2182.09 46.77
5040 80.1746 2266.00 2180.96 47.60
5041 80.1890 2259.00 2179.83 47.53
5042 80.2033 2230.00 2178.72 47.22
5043 80.2176 2161.00 2177.62 46.49
5044 80.2319 2156.00 2176.55 46.43
5045 80.2463 2219.00 2175.49 47.11
5046 80.2606 2069.00 2174.48 45.49
5047 80.2749 2217.00 2173.52 47.08
5048 80.2892 2170.00 2172.61 46.58
5049 80.3035 2183.00 2171.77 46.72
5050 80.3179 2153.00 2170.98 46.40
5051 80.3322 2168.00 2170.26 46.56
5052 80.3465 2209.00 2169.58 47.00
5053 80.3608 2208.00 2168.97 46.99
5054 80.3752 2165.00 2168.41 46.53
5055 80.3895 2190.00 2167.89 46.80
5056 80.4038 2084.00 2167.44 45.65
5057 80.4181 2213.00 2166.99 47.04
5058 80.4324 2158.00 2166.58 46.45
5059 80.4468 2135.00 2166.19 46.21
5060 80.4611 2156.00 2165.78 46.43
5061 80.4754 2135.00 2165.42 46.21
5062 80.4897 2211.00 2165.05 47.02
5063 80.5040 2137.00 2164.67 46.23
5064 80.5184 2127.00 2164.35 46.12
5065 80.5327 2170.00 2163.94 46.58
5066 80.5470 2188.00 2163.48 46.78
5067 80.5613 2159.00 2163.03 46.47
5068 80.5757 2191.00 2162.55 46.81
5069 80.5900 2165.00 2162.06 46.53
5070 80.6043 2137.00 2161.55 46.23
5071 80.6186 2108.00 2161.01 45.91
5072 80.6329 2185.00 2160.46 46.74
5073 80.6473 2094.00 2159.90 45.76
5074 80.6616 2186.00 2159.34 46.75
5075 80.6759 2133.00 2158.76 46.18
5076 80.6902 2182.00 2158.25 46.71
5077 80.7046 2175.00 2157.80 46.64
5078 80.7189 2191.00 2157.41 46.81
5079 80.7332 2138.00 2157.08 46.24
5080 80.7475 2188.00 2156.82 46.78
5081 80.7618 2152.00 2156.69 46.39
5082 80.7762 2176.00 2156.59 46.65
5083 80.7905 2064.00 2156.57 45.43
5084 80.8048 2149.00 2156.66 46.36
5085 80.8191 2201.00 2156.83 46.91
5086 80.8335 2165.00 2157.15 46.53
5087 80.8478 2200.00 2157.58 46.90
5088 80.8621 2225.00 2158.15 47.17
5089 80.8764 2149.00 2158.85 46.36
5090 80.8907 2263.00 2159.70 47.57
5091 80.9051 2237.00 2160.72 47.30
5092 80.9194 2218.00 2161.88 47.10
5093 80.9337 2207.00 2163.26 46.98
5094 80.9480 2156.00 2164.83 46.43
5095 80.9624 2166.00 2166.62 46.54
5096 80.9767 2075.00 2168.60 45.55
5097 80.9910 2100.00 2170.79 45.83
5098 81.0053 2128.00 2173.20 46.13
5099 81.0196 2070.00 2175.80 45.50
5100 81.0340 2142.00 2178.62 46.28
5101 81.0483 2099.00 2181.61 45.81
5102 81.0626 2231.00 2184.76 47.23
5103 81.0769 2252.00 2188.04 47.46
5104 81.0913 2219.00 2191.53 47.11
5105 81.1056 2218.00 2195.12 47.10
5106 81.1199 2158.00 2199.11 46.45
5107 81.1342 2191.00 2202.89 46.81
5108 81.1485 2255.00 2206.70 47.49
5109 81.1629 2248.00 2210.58 47.41
5110 81.1772 2176.00 2214.49 46.65
5111 81.1915 2138.00 2218.42 46.24
5112 81.2058 2205.00 2222.35 46.96
5113 81.2202 2200.00 2226.32 46.90
5114 81.2345 2193.00 2230.26 46.83
5115 81.2488 2273.00 2234.20 47.68
5116 81.2631 2234.00 2238.14 47.27
5117 81.2774 2277.00 2242.08 47.72
5118 81.2918 2177.00 2246.05 46.66
5119 81.3061 2277.00 2249.97 47.72
5120 81.3204 2245.00 2253.85 47.38
5121 81.3347 2267.00 2257.71 47.61
5122 81.3491 2377.00 2261.51 48.75
5123 81.3634 2205.00 2265.34 46.96
5124 81.3777 2353.00 2268.88 48.51
5125 81.3920 2294.00 2272.25 47.90
5126 81.4063 2308.00 2275.45 48.04
5127 81.4207 2356.00 2278.45 48.54
5128 81.4350 2370.00 2281.20 48.68
5129 81.4493 2273.00 2283.70 47.68
5130 81.4636 2303.00 2285.94 47.99
5131 81.4780 2305.00 2287.95 48.01
5132 81.4923 2280.00 2289.70 47.75
5133 81.5066 2407.00 2291.24 49.06
5134 81.5209 2283.00 2292.58 47.78
5135 81.5352 2380.00 2293.77 48.79
5136 81.5496 2225.00 2294.82 47.17
5137 81.5639 2309.00 2295.75 48.05
5138 81.5782 2240.00 2296.59 47.33
5139 81.5925 2300.00 2297.35 47.96
5140 81.6069 2328.00 2298.10 48.25
5141 81.6212 2322.00 2298.82 48.19
5142 81.6355 2272.00 2299.50 47.67
5143 81.6498 2346.00 2300.18 48.44
5144 81.6641 2294.00 2300.84 47.90
5145 81.6785 2336.00 2301.50 48.33
5146 81.6928 2291.00 2302.16 47.86
5147 81.7071 2304.00 2302.78 48.00
5148 81.7214 2279.00 2303.47 47.74
5149 81.7358 2403.00 2304.21 49.02
5150 81.7501 2386.00 2305.01 48.85
5151 81.7644 2321.00 2305.90 48.18
5152 81.7787 2282.00 2306.92 47.77
5153 81.7930 2231.00 2308.10 47.23
5154 81.8074 2299.00 2309.48 47.95
5155 81.8217 2359.00 2311.06 48.57
5156 81.8360 2355.00 2312.90 48.53
5157 81.8503 2292.00 2315.12 47.87
5158 81.8647 2299.00 2317.61 47.95
5159 81.8790 2263.00 2320.42 47.57
5160 81.8933 2366.00 2323.52 48.64
5161 81.9076 2291.00 2327.08 47.86
5162 81.9219 2383.00 2331.01 48.82
5163 81.9363 2304.00 2335.32 48.00
5164 81.9506 2302.00 2339.99 47.98
5165 81.9649 2263.00 2345.05 47.57
5166 81.9792 2279.00 2350.36 47.74
5167 81.9936 2408.00 2356.10 49.07
5168 82.0079 2284.00 2362.07 47.79
5169 82.0222 2371.00 2368.23 48.69
5170 82.0365 2394.00 2374.68 48.93
5171 82.0508 2281.00 2381.21 47.76
5172 82.0652 2380.00 2387.86 48.79
5173 82.0795 2313.00 2394.49 48.09
5174 82.0938 2437.00 2401.12 49.37
5175 82.1081 2388.00 2407.60 48.87
5176 82.1225 2429.00 2413.96 49.28
5177 82.1368 2491.00 2419.98 49.91
5178 82.1511 2353.00 2425.71 48.51
5179 82.1654 2401.00 2431.06 49.00
5180 82.1797 2479.00 2435.94 49.79
5181 82.1941 2546.00 2440.31 50.46
5182 82.2084 2495.00 2444.14 49.95
5183 82.2227 2456.00 2447.25 49.56
5184 82.2370 2536.00 2449.76 50.36
5185 82.2514 2413.00 2451.57 49.12
5186 82.2657 2454.00 2452.66 49.54
5187 82.2800 2450.00 2453.01 49.50
5188 82.2943 2507.00 2452.57 50.07
5189 82.3086 2486.00 2451.35 49.86
5190 82.3230 2441.00 2449.36 49.41
5191 82.3373 2428.00 2446.63 49.27
5192 82.3516 2468.00 2443.17 49.68
5193 82.3659 2490.00 2439.00 49.90
5194 82.3802 2366.00 2434.16 48.64
5195 82.3946 2423.00 2428.70 49.22
5196 82.4089 2390.00 2422.68 48.89
5197 82.4232 2471.00 2416.17 49.71
5198 82.4375 2453.00 2409.23 49.53
5199 82.4519 2444.00 2401.86 49.44
5200 82.4662 2385.00 2394.25 48.84
5201 82.4805 2315.00 2386.40 48.11
5202 82.4948 2349.00 2378.37 48.47
5203 82.5091 2395.00 2370.21 48.94
5204 82.5235 2336.00 2362.06 48.33
5205 82.5378 2340.00 2353.76 48.37
5206 82.5521 2423.00 2345.45 49.22
5207 82.5664 2335.00 2337.15 48.32
5208 82.5808 2351.00 2328.84 48.49
5209 82.5951 2322.00 2320.67 48.19
5210 82.6094 2282.00 2312.58 47.77
5211 82.6237 2306.00 2304.63 48.02
5212 82.6380 2258.00 2296.85 47.52
5213 82.6524 2305.00 2289.18 48.01
5214 82.6667 2281.00 2281.79 47.76
5215 82.6810 2231.00 2274.63 47.23
5216 82.6953 2225.00 2267.69 47.17
5217 82.7097 2367.00 2260.86 48.65
5218 82.7240 2266.00 2254.48 47.60
5219 82.7383 2237.00 2248.34 47.30
5220 82.7526 2225.00 2242.48 47.17
5221 82.7669 2231.00 2236.81 47.23
5222 82.7813 2236.00 2232.18 47.29
5223 82.7956 2235.00 2226.86 47.28
5224 82.8099 2138.00 2221.59 46.24
5225 82.8242 2143.00 2216.49 46.29
5226 82.8386 2143.00 2211.42 46.29
5227 82.8529 2211.00 2206.37 47.02
5228 82.8672 2267.00 2201.37 47.61
5229 82.8815 2227.00 2196.38 47.19
5230 82.8958 2133.00 2191.37 46.18
5231 82.9102 2247.00 2186.29 47.40
5232 82.9245 2143.00 2181.23 46.29
5233 82.9388 2210.00 2176.12 47.01
5234 82.9531 2251.00 2171.01 47.44
5235 82.9675 2166.00 2165.78 46.54
5236 82.9818 2103.00 2160.63 45.86
5237 82.9961 2085.00 2155.50 45.66
5238 83.0104 2212.00 2150.35 47.03
5239 83.0247 2158.00 2145.19 46.45
5240 83.0391 2092.00 2140.04 45.74
5241 83.0534 2158.00 2134.93 46.45
5242 83.0677 2179.00 2129.81 46.68
5243 83.0820 2123.00 2124.78 46.08
5244 83.0964 2140.00 2119.74 46.26
5245 83.1107 2148.00 2114.84 46.35
5246 83.1250 2151.00 2110.02 46.38
5247 83.1393 2111.00 2105.31 45.95
5248 83.1536 2016.00 2100.72 44.90
5249 83.1680 2038.00 2096.24 45.14
5250 83.1823 2165.00 2091.93 46.53
5251 83.1966 2094.00 2087.86 45.76
5252 83.2109 2043.00 2083.92 45.20
5253 83.2253 2045.00 2080.16 45.22
5254 83.2396 2108.00 2076.59 45.91
5255 83.2539 2062.00 2073.22 45.41
5256 83.2682 2144.00 2070.09 46.30
5257 83.2825 2055.00 2067.18 45.33
5258 83.2969 2069.00 2064.44 45.49
5259 83.3112 2020.00 2061.93 44.94
5260 83.3255 1942.00 2059.59 44.07
5261 83.3398 2092.00 2057.43 45.74
5262 83.3542 2077.00 2055.42 45.57
5263 83.3685 2092.00 2053.59 45.74
5264 83.3828 2092.00 2051.93 45.74
5265 83.3971 2096.00 2050.31 45.78
5266 83.4114 2055.00 2048.80 45.33
5267 83.4258 2039.00 2047.35 45.16
5268 83.4401 2072.00 2045.99 45.52
5269 83.4544 2059.00 2044.65 45.38
5270 83.4687 2049.00 2043.32 45.27
5271 83.4831 2011.00 2041.97 44.84
5272 83.4974 2036.00 2040.64 45.12
5273 83.5117 2003.00 2039.20 44.75
5274 83.5260 2081.00 2037.80 45.62
5275 83.5403 2018.00 2036.37 44.92
5276 83.5547 2103.00 2034.90 45.86
5277 83.5690 2098.00 2033.39 45.80
5278 83.5833 2059.00 2031.84 45.38
5279 83.5976 1922.00 2030.25 43.84
5280 83.6120 2029.00 2028.60 45.04
5281 83.6263 2021.00 2026.93 44.96
5282 83.6406 2031.00 2025.23 45.07
5283 83.6549 2025.00 2023.47 45.00
5284 83.6692 2036.00 2021.67 45.12
5285 83.6836 1911.00 2019.82 43.72
5286 83.6979 2078.00 2017.93 45.59
5287 83.7122 2077.00 2015.99 45.57
5288 83.7265 2061.00 2014.01 45.40
5289 83.7409 2021.00 2011.97 44.96
5290 83.7552 2005.00 2009.86 44.78
5291 83.7695 2012.00 2007.75 44.86
5292 83.7838 2053.00 2005.60 45.31
5293 83.7981 1999.00 2003.43 44.71
5294 83.8125 2032.00 2001.24 45.08
5295 83.8268 2002.00 1999.06 44.74
5296 83.8411 2035.00 1996.88 45.11
5297 83.8554 1997.00 1994.74 44.69
5298 83.8698 2014.00 1992.59 44.88
5299 83.8841 1996.00 1990.50 44.68
5300 83.8984 1999.00 1988.51 44.71
5301 83.9127 1987.00 1986.59 44.58
5302 83.9270 1996.00 1984.76 44.68
5303 83.9414 2030.00 1983.00 45.06
5304 83.9557 1983.00 1981.35 44.53
5305 83.9700 1936.00 1979.80 44.00
5306 83.9843 2000.00 1978.35 44.72
5307 83.9987 2056.00 1977.00 45.34
5308 84.0130 1983.00 1975.77 44.53
5309 84.0273 1938.00 1974.64 44.02
5310 84.0416 1952.00 1973.62 44.18
5311 84.0559 1986.00 1972.68 44.56
5312 84.0703 1979.00 1971.84 44.49
5313 84.0846 1924.00 1971.08 43.86
5314 84.0989 1973.00 1970.41 44.42
5315 84.1132 2006.00 1969.79 44.79
5316 84.1276 2036.00 1969.22 45.12
5317 84.1419 2091.00 1968.69 45.73
5318 84.1562 2012.00 1968.20 44.86
5319 84.1705 2082.00 1967.72 45.63
5320 84.1848 1973.00 1967.24 44.42
5321 84.1992 2020.00 1966.72 44.94
5322 84.2135 2015.00 1966.17 44.89
5323 84.2278 2036.00 1965.56 45.12
5324 84.2421 1994.00 1964.88 44.65
5325 84.2564 2110.00 1964.15 45.93
5326 84.2708 1987.00 1963.35 44.58
5327 84.2851 1931.00 1962.49 43.94
5328 84.2994 1889.00 1961.59 43.46
5329 84.3137 1931.00 1960.64 43.94
5330 84.3281 1936.00 1959.67 44.00
5331 84.3424 1965.00 1958.69 44.33
5332 84.3567 2006.00 1957.73 44.79
5333 84.3710 2015.00 1956.80 44.89
5334 84.3853 1926.00 1955.90 43.89
5335 84.3997 1999.00 1955.05 44.71
5336 84.4140 1880.00 1954.25 43.36
5337 84.4283 2059.00 1953.49 45.38
5338 84.4426 1922.00 1952.78 43.84
5339 84.4570 1982.00 1952.11 44.52
5340 84.4713 2040.00 1951.48 45.17
5341 84.4856 1991.00 1950.87 44.62
5342 84.4999 1971.00 1950.27 44.40
5343 84.5142 1977.00 1949.68 44.46
5344 84.5286 1924.00 1949.09 43.86
5345 84.5429 1902.00 1948.49 43.61
5346 84.5572 1981.00 1947.87 44.51
5347 84.5715 1918.00 1947.24 43.79
5348 84.5859 1952.00 1946.58 44.18
5349 84.6002 1882.00 1945.92 43.38
5350 84.6145 2001.00 1945.27 44.73
5351 84.6288 1970.00 1944.56 44.38
5352 84.6431 1939.00 1943.83 44.03
5353 84.6575 1960.00 1943.08 44.27
5354 84.6718 1997.00 1942.28 44.69
5355 84.6861 1938.00 1941.44 44.02
5356 84.7004 1921.00 1940.54 43.83
5357 84.7148 1955.00 1939.56 44.22
5358 84.7291 1925.00 1938.50 43.87
5359 84.7434 1920.00 1937.30 43.82
5360 84.7577 2018.00 1936.03 44.92
5361 84.7720 1955.00 1934.63 44.22
5362 84.7864 1954.00 1933.08 44.20
5363 84.8007 1870.00 1931.40 43.24
5364 84.8150 2017.00 1929.58 44.91
5365 84.8293 1943.00 1927.61 44.08
5366 84.8437 1880.00 1925.49 43.36
5367 84.8580 1945.00 1923.29 44.10
5368 84.8723 1938.00 1920.95 44.02
5369 84.8866 1945.00 1918.47 44.10
5370 84.9009 1926.00 1915.90 43.89
5371 84.9153 1909.00 1913.21 43.69
5372 84.9296 1989.00 1910.49 44.60
5373 84.9439 1864.00 1907.66 43.17
5374 84.9582 1912.00 1904.76 43.73
5375 84.9726 1865.00 1901.77 43.19
5376 84.9869 1940.00 1898.75 44.05
5377 85.0012 1866.00 1895.66 43.20
5378 85.0155 1871.00 1892.54 43.26
5379 85.0298 1926.00 1889.39 43.89
5380 85.0442 1873.00 1886.18 43.28
5381 85.0585 1866.00 1882.96 43.20
5382 85.0728 1791.00 1879.73 42.32
5383 85.0871 1846.00 1876.51 42.97
5384 85.1015 1897.00 1873.24 43.55
5385 85.1158 1816.00 1870.00 42.61
5386 85.1301 1918.00 1866.76 43.79
5387 85.1444 1826.00 1863.54 42.73
5388 85.1587 1842.00 1860.35 42.92
5389 85.1731 1909.00 1857.17 43.69
5390 85.1874 1799.00 1854.00 42.41
5391 85.2017 1891.00 1850.94 43.49
5392 85.2160 1858.00 1847.91 43.10
5393 85.2304 1768.00 1844.92 42.05
5394 85.2447 1897.00 1842.02 43.55
5395 85.2590 1770.00 1839.17 42.07
5396 85.2733 1836.00 1836.42 42.85
5397 85.2876 1886.00 1833.76 43.43
5398 85.3020 1786.00 1831.18 42.26
5399 85.3163 1906.00 1828.77 43.66
5400 85.3306 1814.00 1826.42 42.59
5401 85.3449 1781.00 1824.19 42.20
5402 85.3593 1815.00 1822.05 42.60
5403 85.3736 1847.00 1820.08 42.98
5404 85.3879 1827.00 1818.20 42.74
5405 85.4022 1789.00 1816.43 42.30
5406 85.4165 1792.00 1814.78 42.33
5407 85.4309 1796.00 1813.25 42.38
5408 85.4452 1844.00 1811.72 42.94
5409 85.4595 1802.00 1810.44 42.45
5410 85.4738 1817.00 1809.28 42.63
5411 85.4882 1746.00 1808.21 41.79
5412 85.5025 1760.00 1807.26 41.95
5413 85.5168 1836.00 1806.43 42.85
5414 85.5311 1794.00 1805.70 42.36
5415 85.5454 1766.00 1805.09 42.02
5416 85.5598 1890.00 1804.58 43.47
5417 85.5741 1909.00 1804.19 43.69
5418 85.5884 1759.00 1803.90 41.94
5419 85.6027 1799.00 1803.71 42.41
5420 85.6171 1860.00 1803.60 43.13
5421 85.6314 1775.00 1803.62 42.13
5422 85.6457 1841.00 1803.71 42.91
5423 85.6600 1826.00 1803.84 42.73
5424 85.6743 1831.00 1804.06 42.79
5425 85.6887 1807.00 1804.35 42.51
5426 85.7030 1827.00 1804.66 42.74
5427 85.7173 1810.00 1805.05 42.54
5428 85.7316 1777.00 1805.51 42.15
5429 85.7460 1840.00 1805.92 42.90
5430 85.7603 1852.00 1806.40 43.03
5431 85.7746 1689.00 1806.90 41.10
5432 85.7889 1819.00 1807.42 42.65
5433 85.8032 1814.00 1807.92 42.59
5434 85.8176 1909.00 1808.43 43.69
5435 85.8319 1847.00 1808.91 42.98
5436 85.8462 1786.00 1809.37 42.26
5437 85.8605 1857.00 1809.82 43.09
5438 85.8749 1817.00 1810.26 42.63
5439 85.8892 1749.00 1810.69 41.82
5440 85.9035 1799.00 1811.09 42.41
5441 85.9178 1828.00 1811.44 42.76
5442 85.9321 1750.00 1811.79 41.83
5443 85.9465 1777.00 1812.19 42.15
5444 85.9608 1778.00 1812.60 42.17
5445 85.9751 1727.00 1813.03 41.56
5446 85.9894 1804.00 1813.49 42.47
5447 86.0037 1852.00 1813.97 43.03
5448 86.0181 1846.00 1814.52 42.97
5449 86.0324 1825.00 1815.09 42.72
5450 86.0467 1824.00 1815.75 42.71
5451 86.0610 1918.00 1816.49 43.79
5452 86.0754 1852.00 1817.30 43.03
5453 86.0897 1917.00 1818.18 43.78
5454 86.1040 1791.00 1819.15 42.32
5455 86.1183 1765.00 1820.22 42.01
5456 86.1326 1855.00 1821.37 43.07
5457 86.1470 1762.00 1822.66 41.98
5458 86.1613 1877.00 1824.05 43.32
5459 86.1756 1786.00 1825.56 42.26
5460 86.1899 1842.00 1827.22 42.92
5461 86.2043 1783.00 1829.03 42.23
5462 86.2186 1762.00 1830.99 41.98
5463 86.2329 1859.00 1833.19 43.12
5464 86.2472 1803.00 1835.54 42.46
5465 86.2615 1744.00 1838.09 41.76
5466 86.2759 1854.00 1840.81 43.06
5467 86.2902 1826.00 1843.75 42.73
5468 86.3045 1770.00 1846.92 42.07
5469 86.3188 1947.00 1850.30 44.12
5470 86.3332 1777.00 1853.89 42.15
5471 86.3475 1826.00 1857.65 42.73
5472 86.3618 1797.00 1861.49 42.39
5473 86.3761 1780.00 1865.59 42.19
5474 86.3904 1843.00 1869.85 42.93
5475 86.4048 1787.00 1874.25 42.27
5476 86.4191 1858.00 1878.74 43.10
5477 86.4334 1854.00 1883.26 43.06
5478 86.4477 1866.00 1887.83 43.20
5479 86.4621 1833.00 1892.58 42.81
5480 86.4764 1800.00 1897.32 42.43
5481 86.4907 1845.00 1902.09 42.95
5482 86.5050 1840.00 1906.89 42.90
5483 86.5193 1935.00 1911.63 43.99
5484 86.5337 1929.00 1916.40 43.92
5485 86.5480 1844.00 1921.12 42.94
5486 86.5623 1852.00 1925.71 43.03
5487 86.5766 1937.00 1930.33 44.01
5488 86.5910 1875.00 1934.97 43.30
5489 86.6053 1861.00 1939.42 43.14
5490 86.6196 1805.00 1943.79 42.49
5491 86.6339 2001.00 1947.99 44.73
5492 86.6482 1937.00 1952.11 44.01
5493 86.6626 1896.00 1956.10 43.54
5494 86.6769 1937.00 1959.89 44.01
5495 86.6912 2016.00 1963.50 44.90
5496 86.7055 1955.00 1966.83 44.22
5497 86.7199 1960.00 1970.05 44.27
5498 86.7342 1895.00 1973.02 43.53
5499 86.7485 1907.00 1975.76 43.67
5500 86.7628 1984.00 1978.25 44.54
5501 86.7771 1944.00 1980.48 44.09
5502 86.7915 1914.00 1982.46 43.75
5503 86.8058 1936.00 1984.16 44.00
5504 86.8201 1988.00 1985.53 44.59
5505 86.8344 1933.00 1986.67 43.97
5506 86.8488 1941.00 1987.53 44.06
5507 86.8631 1893.00 1988.05 43.51
5508 86.8774 1887.00 1988.23 43.44
5509 86.8917 1921.00 1988.11 43.83
5510 86.9060 1901.00 1987.66 43.60
5511 86.9204 1989.00 1986.87 44.60
5512 86.9347 1969.00 1985.74 44.37
5513 86.9490 1998.00 1984.24 44.70
5514 86.9633 1999.00 1982.44 44.71
5515 86.9777 1980.00 1980.32 44.50
5516 86.9920 1884.00 1977.90 43.41
5517 87.0063 2015.00 1975.24 44.89
5518 87.0206 1824.00 1972.25 42.71
5519 87.0349 1976.00 1969.04 44.45
5520 87.0493 1934.00 1965.57 43.98
5521 87.0636 1878.00 1961.88 43.34
5522 87.0779 1916.00 1958.05 43.77
5523 87.0922 1918.00 1954.02 43.79
5524 87.1066 1890.00 1949.81 43.47
5525 87.1209 1897.00 1945.51 43.55
5526 87.1352 1935.00 1941.10 43.99
5527 87.1495 1902.00 1936.59 43.61
5528 87.1638 1908.00 1932.01 43.68
5529 87.1782 1891.00 1927.37 43.49
5530 87.1925 1853.00 1922.70 43.05
5531 87.2068 1906.00 1918.03 43.66
5532 87.2211 1840.00 1913.33 42.90
5533 87.2355 1938.00 1908.57 44.02
5534 87.2498 1819.00 1904.00 42.65
5535 87.2641 1873.00 1899.44 43.28
5536 87.2784 1933.00 1894.98 43.97
5537 87.2927 1959.00 1890.60 44.26
5538 87.3071 1874.00 1886.31 43.29
5539 87.3214 1852.00 1882.17 43.03
5540 87.3357 1838.00 1878.17 42.87
5541 87.3500 1814.00 1874.34 42.59
5542 87.3644 1828.00 1870.65 42.76
5543 87.3787 1822.00 1867.15 42.68
5544 87.3930 1880.00 1863.83 43.36
5545 87.4073 1840.00 1860.69 42.90
5546 87.4216 1776.00 1857.74 42.14
5547 87.4360 1810.00 1854.96 42.54
5548 87.4503 1810.00 1852.38 42.54
5549 87.4646 1820.00 1849.98 42.66
5550 87.4789 1784.00 1847.74 42.24
5551 87.4933 1748.00 1845.61 41.81
5552 87.5076 1853.00 1843.60 43.05
5553 87.5219 1825.00 1841.82 42.72
5554 87.5362 1830.00 1840.14 42.78
5555 87.5505 1827.00 1838.57 42.74
5556 87.5649 1768.00 1837.06 42.05
5557 87.5792 1841.00 1835.65 42.91
5558 87.5935 1857.00 1834.28 43.09
5559 87.6078 1904.00 1832.99 43.63
5560 87.6222 1835.00 1831.70 42.84
5561 87.6365 1874.00 1830.42 43.29
5562 87.6508 1851.00 1829.16 43.02
5563 87.6651 1829.00 1827.90 42.77
5564 87.6794 1913.00 1826.65 43.74
5565 87.6938 1867.00 1825.41 43.21
5566 87.7081 1817.00 1824.20 42.63
5567 87.7224 1869.00 1822.63 43.23
5568 87.7367 1851.00 1821.52 43.02
5569 87.7511 1897.00 1820.49 43.55
5570 87.7654 1863.00 1819.56 43.16
5571 87.7797 1892.00 1818.72 43.50
5572 87.7940 1825.00 1818.07 42.72
5573 87.8083 1865.00 1817.57 43.19
5574 87.8227 1832.00 1817.25 42.80
5575 87.8370 1854.00 1817.13 43.06
5576 87.8513 1847.00 1817.23 42.98
5577 87.8656 1753.00 1817.53 41.87
5578 87.8799 1772.00 1818.05 42.10
5579 87.8943 1927.00 1818.84 43.90
5580 87.9086 1812.00 1819.82 42.57
5581 87.9229 1853.00 1821.00 43.05
5582 87.9372 1806.00 1822.47 42.50
5583 87.9516 1855.00 1824.20 43.07
5584 87.9659 1855.00 1826.17 43.07
5585 87.9802 1842.00 1828.34 42.92
5586 87.9945 1865.00 1830.71 43.19
5587 88.0088 1855.00 1833.54 43.07
5588 88.0232 1816.00 1836.67 42.61
5589 88.0375 1861.00 1840.09 43.14
5590 88.0518 1924.00 1843.83 43.86
5591 88.0661 1798.00 1847.89 42.40
5592 88.0805 1953.00 1852.31 44.19
5593 88.0948 1837.00 1857.43 42.86
5594 88.1091 1911.00 1862.49 43.72
5595 88.1234 1931.00 1867.88 43.94
5596 88.1377 1852.00 1873.60 43.03
5597 88.1521 1816.00 1879.65 42.61
5598 88.1664 1871.00 1885.96 43.26
5599 88.1807 1921.00 1892.49 43.83
5600 88.1950 1887.00 1899.28 43.44
5601 88.2094 1901.00 1906.37 43.60
5602 88.2237 1927.00 1913.59 43.90
5603 88.2380 1895.00 1920.95 43.53
5604 88.2523 1951.00 1928.39 44.17
5605 88.2666 1973.00 1935.92 44.42
5606 88.2810 1971.00 1943.54 44.40
5607 88.2953 1961.00 1951.07 44.28
5608 88.3096 2064.00 1958.47 45.43
5609 88.3239 1935.00 1965.68 43.99
5610 88.3383 2057.00 1972.75 45.35
5611 88.3526 1985.00 1979.49 44.55
5612 88.3669 2013.00 1986.07 44.87
5613 88.3812 2040.00 1992.07 45.17
5614 88.3955 2055.00 1997.55 45.33
5615 88.4099 2054.00 2002.57 45.32
5616 88.4242 1955.00 2006.96 44.22
5617 88.4385 2019.00 2010.73 44.93
5618 88.4528 2065.00 2013.83 45.44
5619 88.4672 1999.00 2016.26 44.71
5620 88.4815 2039.00 2017.97 45.16
5621 88.4958 2025.00 2018.96 45.00
5622 88.5101 2046.00 2019.24 45.23
5623 88.5244 2097.00 2018.84 45.79
5624 88.5388 2058.00 2017.76 45.37
5625 88.5531 2020.00 2016.04 44.94
5626 88.5674 1990.00 2013.73 44.61
5627 88.5817 1955.00 2010.86 44.22
5628 88.5961 2050.00 2007.45 45.28
5629 88.6104 1985.00 2003.61 44.55
5630 88.6247 2038.00 1999.36 45.14
5631 88.6390 1988.00 1994.72 44.59
5632 88.6533 2078.00 1989.76 45.59
5633 88.6677 1914.00 1984.47 43.75
5634 88.6820 1991.00 1978.92 44.62
5635 88.6963 1989.00 1973.13 44.60
5636 88.7106 1998.00 1967.12 44.70
5637 88.7250 1918.00 1960.87 43.79
5638 88.7393 2016.00 1954.39 44.90
5639 88.7536 1972.00 1947.85 44.41
5640 88.7679 1884.00 1941.16 43.41
5641 88.7822 2019.00 1934.36 44.93
5642 88.7966 2044.00 1927.42 45.21
5643 88.8109 1961.00 1920.47 44.28
5644 88.8252 1941.00 1913.48 44.06
5645 88.8395 1974.00 1906.45 44.43
5646 88.8539 1946.00 1899.37 44.11
5647 88.8682 1932.00 1892.39 43.95
5648 88.8825 1885.00 1885.46 43.42
5649 88.8968 1930.00 1878.61 43.93
5650 88.9111 1850.00 1871.87 43.01
5651 88.9255 1890.00 1865.20 43.47
5652 88.9398 1950.00 1858.73 44.16
5653 88.9541 1884.00 1852.40 43.41
5654 88.9684 1839.00 1846.22 42.88
5655 88.9828 1780.00 1840.16 42.19
5656 88.9971 1865.00 1834.33 43.19
5657 89.0114 1904.00 1828.59 43.63
5658 89.0257 1870.00 1823.03 43.24
5659 89.0400 1814.00 1817.66 42.59
5660 89.0544 1900.00 1812.41 43.59
5661 89.0687 1762.00 1807.31 41.98
5662 89.0830 1793.00 1802.38 42.34
5663 89.0973 1757.00 1797.59 41.92
5664 89.1117 1834.00 1792.83 42.83
5665 89.1260 1824.00 1788.28 42.71
5666 89.1403 1918.00 1783.89 43.79
5667 89.1546 1810.00 1779.62 42.54
5668 89.1689 1790.00 1775.49 42.31
5669 89.1833 1705.00 1771.47 41.29
5670 89.1976 1791.00 1767.64 42.32
5671 89.2119 1858.00 1763.93 43.10
5672 89.2262 1781.00 1760.40 42.20
5673 89.2406 1718.00 1757.02 41.45
5674 89.2549 1785.00 1753.84 42.25
5675 89.2692 1782.00 1750.86 42.21
5676 89.2835 1749.00 1748.04 41.82
5677 89.2978 1744.00 1745.39 41.76
5678 89.3122 1779.00 1742.92 42.18
5679 89.3265 1793.00 1740.65 42.34
5680 89.3408 1754.00 1738.55 41.88
5681 89.3551 1746.00 1736.61 41.79
5682 89.3695 1686.00 1734.84 41.06
5683 89.3838 1744.00 1733.22 41.76
5684 89.3981 1751.00 1731.79 41.85
5685 89.4124 1758.00 1730.49 41.93
5686 89.4267 1711.00 1729.38 41.36
5687 89.4411 1780.00 1728.43 42.19
5688 89.4554 1730.00 1727.60 41.59
5689 89.4697 1731.00 1726.90 41.61
5690 89.4840 1760.00 1726.33 41.95
5691 89.4984 1783.00 1725.86 42.23
5692 89.5127 1708.00 1725.53 41.33
5693 89.5270 1806.00 1725.30 42.50
5694 89.5413 1617.00 1725.18 40.21
5695 89.5556 1742.00 1725.15 41.74
5696 89.5700 1795.00 1725.19 42.37
5697 89.5843 1746.00 1725.30 41.79
5698 89.5986 1722.00 1725.50 41.50
5699 89.6129 1738.00 1725.72 41.69
5700 89.6273 1744.00 1725.97 41.76
5701 89.6416 1709.00 1726.26 41.34
5702 89.6559 1802.00 1726.57 42.45
5703 89.6702 1732.00 1726.89 41.62
5704 89.6845 1775.00 1727.21 42.13
5705 89.6989 1784.00 1727.55 42.24
5706 89.7132 1771.00 1727.89 42.08
5707 89.7275 1735.00 1728.25 41.65
5708 89.7418 1702.00 1728.59 41.26
5709 89.7561 1797.00 1728.93 42.39
5710 89.7705 1700.00 1729.28 41.23
5711 89.7848 1715.00 1729.64 41.41
5712 89.7991 1832.00 1730.01 42.80
5713 89.8134 1824.00 1730.39 42.71
5714 89.8278 1715.00 1730.84 41.41
5715 89.8421 1768.00 1731.26 42.05
5716 89.8564 1825.00 1731.72 42.72
5717 89.8707 1717.00 1732.18 41.44
5718 89.8850 1720.00 1732.70 41.47
5719 89.8994 1764.00 1733.23 42.00
5720 89.9137 1750.00 1733.79 41.83
5721 89.9280 1758.00 1734.37 41.93
5722 89.9423 1734.00 1734.97 41.64
5723 89.9567 1742.00 1735.58 41.74
5724 89.9710 1712.00 1736.19 41.38
5725 89.9853 1745.00 1736.80 41.77
5726 89.9996 1751.00 1737.40 41.85
5727 90.0139 1767.00 1737.98 42.04
5728 90.0283 1753.00 1738.55 41.87
5729 90.0426 1778.00 1739.09 42.17
5730 90.0569 1697.00 1739.60 41.19
5731 90.0712 1763.00 1740.07 41.99
5732 90.0856 1762.00 1740.50 41.98
5733 90.0999 1800.00 1740.88 42.43
5734 90.1142 1726.00 1741.25 41.55
5735 90.1285 1779.00 1741.55 42.18
5736 90.1428 1716.00 1741.79 41.42
5737 90.1572 1811.00 1741.97 42.56
5738 90.1715 1763.00 1742.10 41.99
5739 90.1858 1736.00 1742.19 41.67
5740 90.2001 1747.00 1742.24 41.80
5741 90.2145 1720.00 1742.23 41.47
5742 90.2288 1705.00 1742.20 41.29
5743 90.2431 1735.00 1742.13 41.65
5744 90.2574 1752.00 1742.03 41.86
5745 90.2717 1743.00 1741.91 41.75
5746 90.2861 1712.00 1741.76 41.38
5747 90.3004 1789.00 1741.60 42.30
5748 90.3147 1760.00 1741.43 41.95
5749 90.3290 1670.00 1741.24 40.87
5750 90.3434 1775.00 1741.04 42.13
5751 90.3577 1793.00 1740.81 42.34
5752 90.3720 1805.00 1740.61 42.49
5753 90.3863 1739.00 1740.37 41.70
5754 90.4006 1671.00 1740.12 40.88
5755 90.4150 1782.00 1739.87 42.21
5756 90.4293 1795.00 1739.59 42.37
5757 90.4436 1721.00 1739.30 41.48
5758 90.4579 1713.00 1739.01 41.39
5759 90.4723 1755.00 1738.69 41.89
5760 90.4866 1782.00 1738.36 42.21
5761 90.5009 1732.00 1738.00 41.62
5762 90.5152 1742.00 1737.62 41.74
5763 90.5295 1780.00 1737.20 42.19
5764 90.5439 1627.00 1736.75 40.34
5765 90.5582 1728.00 1736.27 41.57
5766 90.5725 1709.00 1735.73 41.34
5767 90.5868 1776.00 1735.16 42.14
5768 90.6012 1776.00 1734.52 42.14
5769 90.6155 1689.00 1733.81 41.10
5770 90.6298 1669.00 1733.03 40.85
5771 90.6441 1701.00 1732.16 41.24
5772 90.6584 1822.00 1731.24 42.68
5773 90.6728 1735.00 1730.22 41.65
5774 90.6871 1745.00 1729.10 41.77
5775 90.7014 1721.00 1727.91 41.48
5776 90.7157 1719.00 1726.63 41.46
5777 90.7301 1713.00 1725.26 41.39
5778 90.7444 1680.00 1723.82 40.99
5779 90.7587 1740.00 1722.32 41.71
5780 90.7730 1682.00 1720.75 41.01
5781 90.7873 1670.00 1719.14 40.87
5782 90.8017 1701.00 1717.48 41.24
5783 90.8160 1641.00 1715.80 40.51
5784 90.8303 1704.00 1714.10 41.28
5785 90.8446 1664.00 1712.40 40.79
5786 90.8590 1697.00 1710.69 41.19
5787 90.8733 1641.00 1709.03 40.51
5788 90.8876 1701.00 1707.40 41.24
5789 90.9019 1617.00 1705.79 40.21
5790 90.9162 1702.00 1704.23 41.26
5791 90.9306 1772.00 1702.76 42.10
5792 90.9449 1720.00 1701.32 41.47
5793 90.9592 1635.00 1699.93 40.44
5794 90.9735 1713.00 1698.60 41.39
5795 90.9879 1659.00 1697.31 40.73
5796 91.0022 1649.00 1696.10 40.61
5797 91.0165 1706.00 1694.95 41.30
5798 91.0308 1685.00 1693.86 41.05
5799 91.0451 1667.00 1692.86 40.83
5800 91.0595 1667.00 1691.89 40.83
5801 91.0738 1681.00 1691.00 41.00
5802 91.0881 1705.00 1690.18 41.29
5803 91.1024 1619.00 1689.45 40.24
5804 91.1168 1642.00 1688.81 40.52
5805 91.1311 1723.00 1688.22 41.51
5806 91.1454 1700.00 1687.72 41.23
5807 91.1597 1651.00 1687.29 40.63
5808 91.1740 1686.00 1686.96 41.06
5809 91.1884 1684.00 1686.64 41.04
5810 91.2027 1690.00 1686.50 41.11
5811 91.2170 1609.00 1686.45 40.11
5812 91.2313 1718.00 1686.48 41.45
5813 91.2457 1709.00 1686.60 41.34
5814 91.2600 1700.00 1686.81 41.23
5815 91.2743 1621.00 1687.10 40.26
5816 91.2886 1710.00 1687.38 41.35
5817 91.3029 1605.00 1687.83 40.06
5818 91.3173 1605.00 1688.35 40.06
5819 91.3316 1657.00 1688.96 40.71
5820 91.3459 1738.00 1689.61 41.69
5821 91.3602 1730.00 1690.32 41.59
5822 91.3746 1563.00 1691.09 39.53
5823 91.3889 1578.00 1691.91 39.72
5824 91.4032 1695.00 1692.78 41.17
5825 91.4175 1654.00 1693.67 40.67
5826 91.4318 1706.00 1694.57 41.30
5827 91.4462 1693.00 1695.52 41.15
5828 91.4605 1680.00 1696.42 40.99
5829 91.4748 1665.00 1697.43 40.80
5830 91.4891 1624.00 1698.45 40.30
5831 91.5035 1698.00 1699.51 41.21
5832 91.5178 1714.00 1700.60 41.40
5833 91.5321 1674.00 1701.70 40.91
5834 91.5464 1784.00 1702.83 42.24
5835 91.5607 1761.00 1703.98 41.96
5836 91.5751 1675.00 1705.11 40.93
5837 91.5894 1732.00 1706.27 41.62
5838 91.6037 1711.00 1707.45 41.36
5839 91.6180 1706.00 1708.62 41.30
5840 91.6323 1688.00 1709.78 41.09
5841 91.6467 1660.00 1710.93 40.74
5842 91.6610 1697.00 1712.05 41.19
5843 91.6753 1790.00 1713.13 42.31
5844 91.6896 1679.00 1714.18 40.98
5845 91.7040 1793.00 1715.19 42.34
5846 91.7183 1708.00 1716.14 41.33
5847 91.7326 1704.00 1717.06 41.28
5848 91.7469 1721.00 1717.91 41.48
5849 91.7612 1680.00 1718.75 40.99
5850 91.7756 1632.00 1719.58 40.40
5851 91.7899 1799.00 1720.40 42.41
5852 91.8042 1723.00 1721.19 41.51
5853 91.8185 1779.00 1721.98 42.18
5854 91.8329 1714.00 1722.76 41.40
5855 91.8472 1735.00 1723.53 41.65
5856 91.8615 1719.00 1724.33 41.46
5857 91.8758 1685.00 1725.09 41.05
5858 91.8901 1750.00 1725.83 41.83
5859 91.9045 1754.00 1726.55 41.88
5860 91.9188 1745.00 1727.22 41.77
5861 91.9331 1846.00 1727.84 42.97
5862 91.9474 1732.00 1728.40 41.62
5863 91.9618 1718.00 1728.89 41.45
5864 91.9761 1739.00 1729.28 41.70
5865 91.9904 1756.00 1729.56 41.90
5866 92.0047 1707.00 1729.74 41.32
5867 92.0190 1696.00 1729.79 41.18
5868 92.0334 1790.00 1729.72 42.31
5869 92.0477 1686.00 1729.51 41.06
5870 92.0620 1740.00 1729.10 41.71
5871 92.0763 1677.00 1728.66 40.95
5872 92.0907 1705.00 1728.10 41.29
5873 92.1050 1644.00 1727.43 40.55
5874 92.1193 1785.00 1726.67 42.25
5875 92.1336 1730.00 1725.84 41.59
5876 92.1479 1674.00 1724.94 40.91
5877 92.1623 1698.00 1723.91 41.21
5878 92.1766 1717.00 1722.90 41.44
5879 92.1909 1691.00 1721.84 41.12
5880 92.2052 1726.00 1720.76 41.55
5881 92.2196 1776.00 1719.66 42.14
5882 92.2339 1780.00 1718.56 42.19
5883 92.2482 1700.00 1717.55 41.23
5884 92.2625 1701.00 1716.48 41.24
5885 92.2768 1623.00 1715.43 40.29
5886 92.2912 1698.00 1714.40 41.21
5887 92.3055 1679.00 1713.42 40.98
5888 92.3198 1674.00 1712.50 40.91
5889 92.3341 1727.00 1711.61 41.56
5890 92.3485 1719.00 1710.79 41.46
5891 92.3628 1707.00 1709.99 41.32
5892 92.3771 1724.00 1709.32 41.52
5893 92.3914 1695.00 1708.72 41.17
5894 92.4057 1777.00 1708.21 42.15
5895 92.4201 1693.00 1707.79 41.15
5896 92.4344 1678.00 1707.47 40.96
5897 92.4487 1731.00 1707.23 41.61
5898 92.4630 1752.00 1707.12 41.86
5899 92.4774 1695.00 1707.11 41.17
5900 92.4917 1685.00 1707.20 41.05
5901 92.5060 1700.00 1707.41 41.23
5902 92.5203 1675.00 1707.72 40.93
5903 92.5346 1737.00 1708.16 41.68
5904 92.5490 1721.00 1708.67 41.48
5905 92.5633 1762.00 1709.26 41.98
5906 92.5776 1832.00 1709.94 42.80
5907 92.5919 1777.00 1710.67 42.15
5908 92.6063 1629.00 1711.46 40.36
5909 92.6206 1753.00 1712.29 41.87
5910 92.6349 1715.00 1713.16 41.41
5911 92.6492 1740.00 1714.03 41.71
5912 92.6635 1668.00 1714.90 40.84
5913 92.6779 1732.00 1715.76 41.62
5914 92.6922 1678.00 1716.59 40.96
5915 92.7065 1729.00 1717.37 41.58
5916 92.7208 1763.00 1718.11 41.99
5917 92.7352 1806.00 1718.79 42.50
5918 92.7495 1703.00 1719.39 41.27
5919 92.7638 1679.00 1719.93 40.98
5920 92.7781 1738.00 1720.40 41.69
5921 92.7924 1642.00 1720.80 40.52
5922 92.8068 1708.00 1720.84 41.33
5923 92.8211 1708.00 1721.13 41.33
5924 92.8354 1714.00 1721.37 41.40
5925 92.8497 1695.00 1721.56 41.17
5926 92.8641 1715.00 1721.74 41.41
5927 92.8784 1703.00 1721.88 41.27
5928 92.8927 1703.00 1722.01 41.27
5929 92.9070 1732.00 1722.12 41.62
5930 92.9213 1733.00 1722.23 41.63
5931 92.9357 1675.00 1722.33 40.93
5932 92.9500 1742.00 1722.44 41.74
5933 92.9643 1686.00 1722.54 41.06
5934 92.9786 1685.00 1722.64 41.05
5935 92.9930 1721.00 1722.74 41.48
5936 93.0073 1732.00 1722.83 41.62
5937 93.0216 1764.00 1722.90 42.00
5938 93.0359 1735.00 1722.97 41.65
5939 93.0502 1734.00 1723.03 41.64
5940 93.0646 1705.00 1723.07 41.29
5941 93.0789 1815.00 1723.11 42.60
5942 93.0932 1806.00 1723.11 42.50
5943 93.1075 1827.00 1722.99 42.74
5944 93.1219 1770.00 1722.97 42.07
5945 93.1362 1618.00 1722.93 40.22
5946 93.1505 1754.00 1722.88 41.88
5947 93.1648 1740.00 1722.83 41.71
5948 93.1791 1748.00 1722.77 41.81
5949 93.1935 1824.00 1722.70 42.71
5950 93.2078 1721.00 1722.64 41.48
5951 93.2221 1738.00 1722.59 41.69
5952 93.2364 1732.00 1722.55 41.62
5953 93.2508 1765.00 1722.53 42.01
5954 93.2651 1724.00 1722.52 41.52
5955 93.2794 1696.00 1722.54 41.18
5956 93.2937 1772.00 1722.59 42.10
5957 93.3080 1697.00 1722.67 41.19
5958 93.3224 1717.00 1722.78 41.44
5959 93.3367 1755.00 1722.93 41.89
5960 93.3510 1698.00 1723.12 41.21
5961 93.3653 1765.00 1723.34 42.01
5962 93.3796 1689.00 1723.60 41.10
5963 93.3940 1729.00 1723.90 41.58
5964 93.4083 1669.00 1724.24 40.85
5965 93.4226 1782.00 1724.60 42.21
5966 93.4369 1763.00 1724.98 41.99
5967 93.4513 1726.00 1725.39 41.55
5968 93.4656 1701.00 1725.82 41.24
5969 93.4799 1751.00 1726.26 41.85
5970 93.4942 1720.00 1726.70 41.47
5971 93.5085 1757.00 1727.15 41.92
5972 93.5229 1736.00 1727.60 41.67
5973 93.5372 1787.00 1728.05 42.27
5974 93.5515 1699.00 1728.49 41.22
5975 93.5658 1719.00 1728.92 41.46
5976 93.5802 1735.00 1729.35 41.65
5977 93.5945 1757.00 1729.76 41.92
5978 93.6088 1769.00 1730.16 42.06
5979 93.6231 1690.00 1730.85 41.11
5980 93.6374 1740.00 1731.21 41.71
5981 93.6518 1766.00 1731.63 42.02
5982 93.6661 1727.00 1732.07 41.56
5983 93.6804 1748.00 1732.52 41.81
5984 93.6947 1735.00 1733.00 41.65
5985 93.7091 1735.00 1733.52 41.65
5986 93.7234 1743.00 1734.07 41.75
5987 93.7377 1678.00 1734.67 40.96
5988 93.7520 1741.00 1735.31 41.73
5989 93.7663 1685.00 1736.00 41.05
5990 93.7807 1703.00 1736.75 41.27
5991 93.7950 1666.00 1737.54 40.82
5992 93.8093 1718.00 1738.38 41.45
5993 93.8236 1780.00 1739.26 42.19
5994 93.8380 1758.00 1740.20 41.93
5995 93.8523 1743.00 1741.19 41.75
5996 93.8666 1726.00 1742.22 41.55
5997 93.8809 1633.00 1743.29 40.41
5998 93.8952 1762.00 1744.40 41.98
5999 93.9096 1818.00 1745.58 42.64
6000 93.9239 1738.00 1746.91 41.69
6001 93.9382 1630.00 1748.11 40.37
6002 93.9525 1753.00 1749.38 41.87
6003 93.9669 1730.00 1750.69 41.59
6004 93.9812 1762.00 1752.03 41.98
6005 93.9955 1729.00 1753.40 41.58
6006 94.0098 1645.00 1754.81 40.56
6007 94.0241 1727.00 1756.27 41.56
6008 94.0385 1784.00 1757.77 42.24
6009 94.0528 1782.00 1759.32 42.21
6010 94.0671 1693.00 1760.93 41.15
6011 94.0814 1801.00 1762.61 42.44
6012 94.0958 1710.00 1764.36 41.35
6013 94.1101 1743.00 1766.17 41.75
6014 94.1244 1801.00 1768.06 42.44
6015 94.1387 1795.00 1770.05 42.37
6016 94.1530 1888.00 1772.14 43.45
6017 94.1674 1633.00 1774.38 40.41
6018 94.1817 1746.00 1776.70 41.79
6019 94.1960 1678.00 1779.13 40.96
6020 94.2103 1740.00 1781.70 41.71
6021 94.2247 1725.00 1784.40 41.53
6022 94.2390 1750.00 1787.21 41.83
6023 94.2533 1743.00 1790.14 41.75
6024 94.2676 1756.00 1793.19 41.90
6025 94.2819 1796.00 1796.32 42.38
6026 94.2963 1772.00 1799.62 42.10
6027 94.3106 1755.00 1803.00 41.89
6028 94.3249 1735.00 1806.48 41.65
6029 94.3392 1781.00 1810.06 42.20
6030 94.3536 1682.00 1813.71 41.01
6031 94.3679 1761.00 1817.45 41.96
6032 94.3822 1795.00 1821.27 42.37
6033 94.3965 1831.00 1825.15 42.79
6034 94.4108 1747.00 1829.08 41.80
6035 94.4252 1896.00 1833.09 43.54
6036 94.4395 1874.00 1837.10 43.29
6037 94.4538 1814.00 1841.14 42.59
6038 94.4681 1819.00 1845.20 42.65
6039 94.4825 1828.00 1849.26 42.76
6040 94.4968 1892.00 1853.27 43.50
6041 94.5111 1875.00 1856.55 43.30
6042 94.5254 1859.00 1860.41 43.12
6043 94.5397 1834.00 1864.17 42.83
6044 94.5541 1856.00 1867.81 43.08
6045 94.5684 1902.00 1871.22 43.61
6046 94.5827 1931.00 1874.44 43.94
6047 94.5970 1947.00 1877.46 44.12
6048 94.6114 1885.00 1880.21 43.42
6049 94.6257 1936.00 1882.65 44.00
6050 94.6400 1926.00 1884.76 43.89
6051 94.6543 1913.00 1886.51 43.74
6052 94.6686 1974.00 1887.90 44.43
6053 94.6830 1907.00 1888.91 43.67
6054 94.6973 1864.00 1889.51 43.17
6055 94.7116 1927.00 1889.72 43.90
6056 94.7259 1853.00 1889.54 43.05
6057 94.7403 1931.00 1888.95 43.94
6058 94.7546 1961.00 1887.99 44.28
6059 94.7689 1868.00 1886.69 43.22
6060 94.7832 1875.00 1885.00 43.30
6061 94.7975 1948.00 1883.00 44.14
6062 94.8119 1896.00 1880.34 43.54
6063 94.8262 1812.00 1877.75 42.57
6064 94.8405 1918.00 1874.90 43.79
6065 94.8548 1890.00 1871.82 43.47
6066 94.8692 1823.00 1868.49 42.70
6067 94.8835 1891.00 1865.01 43.49
6068 94.8978 1850.00 1861.37 43.01
6069 94.9121 1731.00 1857.55 41.61
6070 94.9264 1780.00 1853.60 42.19
6071 94.9408 1823.00 1849.48 42.70
6072 94.9551 1856.00 1845.26 43.08
6073 94.9694 1867.00 1840.91 43.21
6074 94.9837 1825.00 1836.45 42.72
6075 94.9981 1947.00 1831.84 44.12
6076 95.0124 1815.00 1827.09 42.60
6077 95.0267 1826.00 1822.30 42.73
6078 95.0410 1804.00 1817.42 42.47
6079 95.0553 1885.00 1812.45 43.42
6080 95.0697 1790.00 1807.38 42.31
6081 95.0840 1818.00 1802.26 42.64
6082 95.0983 1732.00 1797.10 41.62
6083 95.1126 1824.00 1791.91 42.71
6084 95.1270 1853.00 1786.67 43.05
6085 95.1413 1811.00 1781.45 42.56
6086 95.1556 1778.00 1776.28 42.17
6087 95.1699 1774.00 1771.15 42.12
6088 95.1842 1782.00 1766.08 42.21
6089 95.1986 1761.00 1761.06 41.96
6090 95.2129 1785.00 1756.17 42.25
6091 95.2272 1764.00 1751.39 42.00
6092 95.2415 1822.00 1746.74 42.68
6093 95.2558 1768.00 1742.23 42.05
6094 95.2702 1733.00 1737.85 41.63
6095 95.2845 1734.00 1733.64 41.64
6096 95.2988 1687.00 1729.61 41.07
6097 95.3131 1745.00 1725.69 41.77
6098 95.3275 1754.00 1721.95 41.88
6099 95.3418 1748.00 1718.34 41.81
6100 95.3561 1794.00 1715.00 42.36
6101 95.3704 1712.00 1711.80 41.38
6102 95.3847 1735.00 1708.76 41.65
6103 95.3991 1702.00 1705.87 41.26
6104 95.4134 1682.00 1703.17 41.01
6105 95.4277 1703.00 1700.63 41.27
6106 95.4420 1702.00 1698.26 41.26
6107 95.4564 1720.00 1696.04 41.47
6108 95.4707 1726.00 1693.99 41.55
6109 95.4850 1683.00 1692.09 41.02
6110 95.4993 1719.00 1690.34 41.46
6111 95.5136 1717.00 1688.74 41.44
6112 95.5280 1719.00 1687.28 41.46
6113 95.5423 1704.00 1685.97 41.28
6114 95.5566 1655.00 1684.80 40.68
6115 95.5709 1672.00 1683.77 40.89
6116 95.5853 1843.00 1682.86 42.93
6117 95.5996 1693.00 1682.08 41.15
6118 95.6139 1651.00 1681.42 40.63
6119 95.6282 1699.00 1680.87 41.22
6120 95.6425 1660.00 1680.43 40.74
6121 95.6569 1633.00 1680.02 40.41
6122 95.6712 1704.00 1679.80 41.28
6123 95.6855 1675.00 1679.66 40.93
6124 95.6998 1672.00 1679.60 40.89
6125 95.7142 1649.00 1679.63 40.61
6126 95.7285 1666.00 1679.72 40.82
6127 95.7428 1648.00 1679.90 40.60
6128 95.7571 1688.00 1680.13 41.09
6129 95.7714 1711.00 1680.40 41.36
6130 95.7858 1740.00 1680.77 41.71
6131 95.8001 1725.00 1681.18 41.53
6132 95.8144 1680.00 1681.64 40.99
6133 95.8287 1631.00 1682.17 40.39
6134 95.8431 1730.00 1682.73 41.59
6135 95.8574 1743.00 1683.35 41.75
6136 95.8717 1667.00 1684.00 40.83
6137 95.8860 1698.00 1684.70 41.21
6138 95.9003 1697.00 1685.45 41.19
6139 95.9147 1670.00 1686.26 40.87
6140 95.9290 1652.00 1687.09 40.64
6141 95.9433 1722.00 1687.98 41.50
6142 95.9576 1612.00 1688.90 40.15
6143 95.9720 1706.00 1689.88 41.30
6144 95.9863 1736.00 1690.88 41.67
6145 96.0006 1664.00 1691.93 40.79
6146 96.0149 1754.00 1693.01 41.88
6147 96.0292 1724.00 1694.12 41.52
6148 96.0436 1752.00 1695.25 41.86
6149 96.0579 1692.00 1696.38 41.13
6150 96.0722 1636.00 1697.52 40.45
6151 96.0865 1712.00 1698.63 41.38
6152 96.1009 1649.00 1699.76 40.61
6153 96.1152 1761.00 1700.85 41.96
6154 96.1295 1730.00 1701.90 41.59
6155 96.1438 1699.00 1702.91 41.22
6156 96.1581 1694.00 1703.86 41.16
6157 96.1725 1727.00 1704.76 41.56
6158 96.1868 1803.00 1705.57 42.46
6159 96.2011 1726.00 1706.30 41.55
6160 96.2154 1721.00 1706.94 41.48
6161 96.2298 1733.00 1707.51 41.63
6162 96.2441 1725.00 1707.97 41.53
6163 96.2584 1644.00 1708.35 40.55
6164 96.2727 1720.00 1708.65 41.47
6165 96.2870 1719.00 1708.86 41.46
6166 96.3014 1659.00 1709.00 40.73
6167 96.3157 1686.00 1709.08 41.06
6168 96.3300 1649.00 1709.09 40.61
6169 96.3443 1699.00 1709.01 41.22
6170 96.3587 1681.00 1708.94 41.00
6171 96.3730 1708.00 1708.80 41.33
6172 96.3873 1690.00 1708.62 41.11
6173 96.4016 1663.00 1708.41 40.78
6174 96.4159 1666.00 1708.13 40.82
6175 96.4303 1617.00 1707.83 40.21
6176 96.4446 1784.00 1707.47 42.24
6177 96.4589 1676.00 1707.02 40.94
6178 96.4732 1646.00 1706.55 40.57
6179 96.4876 1704.00 1706.02 41.28
6180 96.5019 1767.00 1705.41 42.04
6181 96.5162 1722.00 1704.72 41.50
6182 96.5305 1755.00 1703.94 41.89
6183 96.5448 1697.00 1703.08 41.19
6184 96.5592 1735.00 1702.12 41.65
6185 96.5735 1740.00 1701.08 41.71
6186 96.5878 1744.00 1699.96 41.76
6187 96.6021 1658.00 1698.75 40.72
6188 96.6165 1692.00 1697.45 41.13
6189 96.6308 1720.00 1696.10 41.47
6190 96.6451 1678.00 1694.68 40.96
6191 96.6594 1710.00 1693.19 41.35
6192 96.6737 1725.00 1691.70 41.53
6193 96.6881 1688.00 1690.14 41.09
6194 96.7024 1731.00 1688.56 41.61
6195 96.7167 1647.00 1686.99 40.58
6196 96.7310 1684.00 1685.40 41.04
6197 96.7454 1639.00 1683.81 40.48
6198 96.7597 1760.00 1682.23 41.95
6199 96.7740 1615.00 1680.67 40.19
6200 96.7883 1631.00 1679.10 40.39
6201 96.8026 1688.00 1677.58 41.09
6202 96.8170 1684.00 1676.09 41.04
6203 96.8313 1771.00 1674.63 42.08
6204 96.8456 1604.00 1673.20 40.05
6205 96.8599 1736.00 1671.82 41.67
6206 96.8743 1622.00 1670.41 40.27
6207 96.8886 1620.00 1669.09 40.25
6208 96.9029 1624.00 1667.82 40.30
6209 96.9172 1668.00 1666.60 40.84
6210 96.9315 1629.00 1665.40 40.36
6211 96.9459 1700.00 1664.25 41.23
6212 96.9602 1730.00 1663.15 41.59
6213 96.9745 1687.00 1662.09 41.07
6214 96.9888 1641.00 1661.07 40.51
6215 97.0032 1607.00 1660.12 40.09
6216 97.0175 1664.00 1659.19 40.79
6217 97.0318 1674.00 1658.30 40.91
6218 97.0461 1673.00 1657.46 40.90
6219 97.0604 1599.00 1656.67 39.99
6220 97.0748 1680.00 1655.90 40.99
6221 97.0891 1652.00 1655.20 40.64
6222 97.1034 1714.00 1654.52 41.40
6223 97.1177 1664.00 1653.88 40.79
6224 97.1320 1694.00 1653.28 41.16
6225 97.1464 1719.00 1652.72 41.46
6226 97.1607 1699.00 1652.21 41.22
6227 97.1750 1628.00 1651.73 40.35
6228 97.1893 1614.00 1651.28 40.17
6229 97.2037 1658.00 1650.86 40.72
6230 97.2180 1659.00 1650.45 40.73
6231 97.2323 1595.00 1650.12 39.94
6232 97.2466 1601.00 1649.81 40.01
6233 97.2609 1701.00 1649.54 41.24
6234 97.2753 1701.00 1649.33 41.24
6235 97.2896 1616.00 1649.12 40.20
6236 97.3039 1574.00 1648.95 39.67
6237 97.3182 1648.00 1648.82 40.60
6238 97.3326 1719.00 1648.67 41.46
6239 97.3469 1616.00 1648.54 40.20
6240 97.3612 1681.00 1648.46 41.00
6241 97.3755 1662.00 1648.36 40.77
6242 97.3898 1656.00 1648.25 40.69
6243 97.4042 1630.00 1648.15 40.37
6244 97.4185 1657.00 1648.08 40.71
6245 97.4328 1692.00 1647.98 41.13
6246 97.4471 1643.00 1647.87 40.53
6247 97.4615 1598.00 1647.79 39.97
6248 97.4758 1716.00 1647.66 41.42
6249 97.4901 1647.00 1647.54 40.58
6250 97.5044 1605.00 1647.41 40.06
6251 97.5187 1673.00 1647.29 40.90
6252 97.5331 1644.00 1647.11 40.55
6253 97.5474 1571.00 1646.97 39.64
6254 97.5617 1645.00 1646.81 40.56
6255 97.5760 1607.00 1646.68 40.09
6256 97.5904 1603.00 1646.54 40.04
6257 97.6047 1678.00 1646.43 40.96
6258 97.6190 1624.00 1646.31 40.30
6259 97.6333 1609.00 1646.22 40.11
6260 97.6476 1600.00 1646.14 40.00
6261 97.6620 1666.00 1646.06 40.82
6262 97.6763 1589.00 1646.01 39.86
6263 97.6906 1595.00 1645.97 39.94
6264 97.7049 1663.00 1645.95 40.78
6265 97.7193 1629.00 1645.94 40.36
6266 97.7336 1615.00 1645.96 40.19
6267 97.7479 1601.00 1646.00 40.01
6268 97.7622 1725.00 1646.06 41.53
6269 97.7765 1667.00 1646.15 40.83
6270 97.7909 1642.00 1646.26 40.52
6271 97.8052 1660.00 1646.40 40.74
6272 97.8195 1704.00 1646.56 41.28
6273 97.8338 1744.00 1646.74 41.76
6274 97.8482 1675.00 1646.96 40.93
6275 97.8625 1607.00 1647.16 40.09
6276 97.8768 1675.00 1647.40 40.93
6277 97.8911 1647.00 1647.70 40.58
6278 97.9054 1659.00 1648.02 40.73
6279 97.9198 1609.00 1648.36 40.11
6280 97.9341 1643.00 1648.74 40.53
6281 97.9484 1697.00 1649.15 41.19
6282 97.9627 1655.00 1649.58 40.68
6283 97.9771 1660.00 1650.06 40.74
6284 97.9914 1714.00 1650.55 41.40
6285 98.0057 1677.00 1651.08 40.95
6286 98.0200 1719.00 1651.63 41.46
6287 98.0343 1598.00 1652.22 39.97
6288 98.0487 1690.00 1652.84 41.11
6289 98.0630 1572.00 1653.48 39.65
6290 98.0773 1652.00 1654.13 40.64
6291 98.0916 1618.00 1654.83 40.22
6292 98.1060 1616.00 1655.55 40.20
6293 98.1203 1678.00 1656.28 40.96
6294 98.1346 1698.00 1657.03 41.21
6295 98.1489 1597.00 1657.81 39.96
6296 98.1632 1623.00 1658.60 40.29
6297 98.1776 1755.00 1659.40 41.89
6298 98.1919 1664.00 1660.22 40.79
6299 98.2062 1683.00 1661.05 41.02
6300 98.2205 1621.00 1661.89 40.26
6301 98.2349 1676.00 1662.74 40.94
6302 98.2492 1648.00 1663.61 40.60
6303 98.2635 1673.00 1664.44 40.90
6304 98.2778 1595.00 1665.34 39.94
6305 98.2921 1655.00 1666.23 40.68
6306 98.3065 1724.00 1667.11 41.52
6307 98.3208 1675.00 1668.02 40.93
6308 98.3351 1684.00 1668.95 41.04
6309 98.3494 1699.00 1669.88 41.22
6310 98.3638 1610.00 1670.84 40.12
6311 98.3781 1644.00 1671.80 40.55
6312 98.3924 1650.00 1672.77 40.62
6313 98.4067 1661.00 1673.75 40.76
6314 98.4210 1646.00 1674.74 40.57
6315 98.4354 1754.00 1675.75 41.88
6316 98.4497 1691.00 1676.76 41.12
6317 98.4640 1692.00 1677.79 41.13
6318 98.4783 1659.00 1678.81 40.73
6319 98.4927 1636.00 1679.85 40.45
6320 98.5070 1667.00 1680.92 40.83
6321 98.5213 1743.00 1681.95 41.75
6322 98.5356 1671.00 1683.01 40.88
6323 98.5499 1710.00 1684.09 41.35
6324 98.5643 1689.00 1685.18 41.10
6325 98.5786 1699.00 1686.27 41.22
6326 98.5929 1724.00 1687.37 41.52
6327 98.6072 1699.00 1688.48 41.22
6328 98.6216 1723.00 1689.61 41.51
6329 98.6359 1682.00 1690.76 41.01
6330 98.6502 1658.00 1691.91 40.72
6331 98.6645 1738.00 1693.06 41.69
6332 98.6788 1744.00 1694.23 41.76
6333 98.6932 1685.00 1695.41 41.05
6334 98.7075 1699.00 1696.59 41.22
6335 98.7218 1659.00 1697.77 40.73
6336 98.7361 1733.00 1698.96 41.63
6337 98.7505 1578.00 1700.16 39.72
6338 98.7648 1650.00 1701.34 40.62
6339 98.7791 1675.00 1702.53 40.93
6340 98.7934 1684.00 1703.72 41.04
6341 98.8077 1712.00 1704.90 41.38
6342 98.8221 1728.00 1706.09 41.57
6343 98.8364 1668.00 1707.29 40.84
6344 98.8507 1693.00 1708.46 41.15
6345 98.8650 1712.00 1709.64 41.38
6346 98.8794 1808.00 1710.85 42.52
6347 98.8937 1689.00 1712.06 41.10
6348 98.9080 1745.00 1713.28 41.77
6349 98.9223 1693.00 1714.52 41.15
6350 98.9366 1724.00 1715.79 41.52
6351 98.9510 1720.00 1717.08 41.47
6352 98.9653 1670.00 1718.41 40.87
6353 98.9796 1709.00 1719.75 41.34
6354 98.9939 1733.00 1721.13 41.63
6355 99.0082 1777.00 1722.54 42.15
6356 99.0226 1746.00 1724.00 41.79
6357 99.0369 1728.00 1725.49 41.57
6358 99.0512 1693.00 1727.00 41.15
6359 99.0655 1762.00 1728.51 41.98
6360 99.0799 1719.00 1730.10 41.46
6361 99.0942 1711.00 1731.70 41.36
6362 99.1085 1714.00 1733.35 41.40
6363 99.1228 1749.00 1735.00 41.82
6364 99.1371 1707.00 1736.64 41.32
6365 99.1515 1680.00 1738.39 40.99
6366 99.1658 1819.00 1740.04 42.65
6367 99.1801 1726.00 1741.69 41.55
6368 99.1944 1728.00 1743.34 41.57
6369 99.2088 1800.00 1744.97 42.43
6370 99.2231 1733.00 1746.52 41.63
6371 99.2374 1744.00 1748.08 41.76
6372 99.2517 1734.00 1749.59 41.64
6373 99.2660 1767.00 1751.05 42.04
6374 99.2804 1754.00 1752.46 41.88
6375 99.2947 1853.00 1753.81 43.05
6376 99.3090 1763.00 1755.07 41.99
6377 99.3233 1775.00 1756.29 42.13
6378 99.3377 1743.00 1757.44 41.75
6379 99.3520 1762.00 1758.50 41.98
6380 99.3663 1735.00 1759.48 41.65
6381 99.3806 1766.00 1760.39 42.02
6382 99.3949 1727.00 1761.18 41.56
6383 99.4093 1737.00 1761.92 41.68
6384 99.4236 1765.00 1762.58 42.01
6385 99.4379 1812.00 1763.17 42.57
6386 99.4522 1699.00 1763.68 41.22
6387 99.4666 1716.00 1764.11 41.42
6388 99.4809 1747.00 1764.51 41.80
6389 99.4952 1731.00 1764.81 41.61
6390 99.5095 1774.00 1765.05 42.12
6391 99.5238 1758.00 1765.24 41.93
6392 99.5382 1803.00 1765.37 42.46
6393 99.5525 1705.00 1765.43 41.29
6394 99.5668 1691.00 1765.47 41.12
6395 99.5811 1785.00 1765.45 42.25
6396 99.5955 1686.00 1765.39 41.06
6397 99.6098 1743.00 1765.28 41.75
6398 99.6241 1790.00 1765.14 42.31
6399 99.6384 1668.00 1764.95 40.84
6400 99.6527 1782.00 1764.73 42.21
6401 99.6671 1704.00 1764.48 41.28
6402 99.6814 1686.00 1764.18 41.06
6403 99.6957 1779.00 1763.85 42.18
6404 99.7100 1782.00 1763.49 42.21
6405 99.7244 1782.00 1763.04 42.21
6406 99.7387 1768.00 1762.61 42.05
6407 99.7530 1775.00 1762.15 42.13
6408 99.7673 1802.00 1761.67 42.45
6409 99.7816 1826.00 1761.16 42.73
6410 99.7960 1741.00 1760.62 41.73
6411 99.8103 1750.00 1760.08 41.83
6412 99.8246 1793.00 1759.51 42.34
6413 99.8389 1730.00 1758.93 41.59
6414 99.8533 1787.00 1758.34 42.27
6415 99.8676 1822.00 1757.72 42.68
6416 99.8819 1837.00 1757.13 42.86
6417 99.8962 1793.00 1756.53 42.34
6418 99.9105 1732.00 1755.96 41.62
6419 99.9249 1785.00 1755.37 42.25
6420 99.9392 1769.00 1754.80 42.06
6421 99.9535 1753.00 1754.25 41.87
6422 99.9678 1703.00 1753.71 41.27
6423 99.9822 1781.00 1753.21 42.20
6424 99.9965 1738.00 1752.75 41.69
6425 100.0108 1833.00 1752.34 42.81
6426 100.0251 1741.00 1751.97 41.73
6427 100.0394 1773.00 1751.68 42.11
6428 100.0538 1784.00 1751.41 42.24
6429 100.0681 1753.00 1751.23 41.87
6430 100.0824 1765.00 1751.10 42.01
6431 100.0967 1743.00 1751.07 41.75
6432 100.1111 1739.00 1751.12 41.70
6433 100.1254 1803.00 1751.27 42.46
6434 100.1397 1800.00 1751.51 42.43
6435 100.1540 1709.00 1751.85 41.34
6436 100.1683 1700.00 1752.30 41.23
6437 100.1827 1847.00 1752.84 42.98
6438 100.1970 1763.00 1753.48 41.99
6439 100.2113 1736.00 1754.22 41.67
6440 100.2256 1723.00 1755.07 41.51
6441 100.2400 1777.00 1756.05 42.15
6442 100.2543 1679.00 1757.12 40.98
6443 100.2686 1822.00 1758.31 42.68
6444 100.2829 1765.00 1759.60 42.01
6445 100.2972 1736.00 1761.01 41.67
6446 100.3116 1829.00 1762.54 42.77
6447 100.3259 1697.00 1764.18 41.19
6448 100.3402 1773.00 1765.94 42.11
6449 100.3545 1793.00 1767.81 42.34
6450 100.3689 1754.00 1769.82 41.88
6451 100.3832 1818.00 1771.95 42.64
6452 100.3975 1750.00 1774.18 41.83
6453 100.4118 1800.00 1776.53 42.43
6454 100.4261 1747.00 1778.99 41.80
6455 100.4405 1750.00 1781.60 41.83
6456 100.4548 1864.00 1784.30 43.17
6457 100.4691 1801.00 1787.12 42.44
6458 100.4834 1761.00 1790.05 41.96
6459 100.4978 1762.00 1793.10 41.98
6460 100.5121 1762.00 1796.24 41.98
6461 100.5264 1815.00 1799.47 42.60
6462 100.5407 1739.00 1802.80 41.70
6463 100.5550 1789.00 1806.21 42.30
6464 100.5694 1713.00 1809.72 41.39
6465 100.5837 1765.00 1813.27 42.01
6466 100.5980 1848.00 1816.89 42.99
6467 100.6123 1764.00 1820.56 42.00
6468 100.6267 1902.00 1824.29 43.61
6469 100.6410 1825.00 1828.03 42.72
6470 100.6553 1823.00 1831.80 42.70
6471 100.6696 1834.00 1835.57 42.83
6472 100.6839 1881.00 1839.33 43.37
6473 100.6983 1913.00 1843.10 43.74
6474 100.7126 1967.00 1846.80 44.35
6475 100.7269 1848.00 1850.46 42.99
6476 100.7412 1837.00 1854.05 42.86
6477 100.7555 1883.00 1857.55 43.39
6478 100.7699 1811.00 1860.98 42.56
6479 100.7842 1831.00 1864.26 42.79
6480 100.7985 1925.00 1867.40 43.87
6481 100.8128 1863.00 1870.38 43.16
6482 100.8272 1905.00 1873.21 43.65
6483 100.8415 1829.00 1875.81 42.77
6484 100.8558 1961.00 1878.21 44.28
6485 100.8701 1859.00 1880.38 43.12
6486 100.8844 1925.00 1882.30 43.87
6487 100.8988 1847.00 1884.01 42.98
6488 100.9131 1875.00 1885.42 43.30
6489 100.9274 1933.00 1886.55 43.97
6490 100.9417 1900.00 1887.41 43.59
6491 100.9561 1969.00 1888.00 44.37
6492 100.9704 1986.00 1888.31 44.56
6493 100.9847 1844.00 1888.34 42.94
6494 100.9990 1932.00 1888.11 43.95
6495 101.0133 1966.00 1887.63 44.34
6496 101.0277 1960.00 1886.89 44.27
6497 101.0420 1832.00 1885.94 42.80
6498 101.0563 1870.00 1884.77 43.24
6499 101.0706 1954.00 1883.39 44.20
6500 101.0850 1837.00 1881.84 42.86
6501 101.0993 1867.00 1880.12 43.21
6502 101.1136 1819.00 1878.26 42.65
6503 101.1279 1805.00 1876.26 42.49
6504 101.1422 1898.00 1874.13 43.57
6505 101.1566 1781.00 1871.87 42.20
6506 101.1709 1888.00 1869.55 43.45
6507 101.1852 1835.00 1867.10 42.84
6508 101.1995 1889.00 1864.57 43.46
6509 101.2139 1814.00 1861.93 42.59
6510 101.2282 1812.00 1859.23 42.57
6511 101.2425 1841.00 1856.47 42.91
6512 101.2568 1831.00 1853.62 42.79
6513 101.2711 1919.00 1850.70 43.81
6514 101.2855 1763.00 1847.69 41.99
6515 101.2998 1804.00 1844.64 42.47
6516 101.3141 1811.00 1841.52 42.56
6517 101.3284 1788.00 1838.34 42.28
6518 101.3428 1851.00 1835.10 43.02
6519 101.3571 1856.00 1831.43 43.08
6520 101.3714 1812.00 1828.15 42.57
6521 101.3857 1882.00 1824.82 43.38
6522 101.4000 1819.00 1821.46 42.65
6523 101.4144 1839.00 1818.10 42.88
6524 101.4287 1858.00 1814.74 43.10
6525 101.4430 1806.00 1811.42 42.50
6526 101.4573 1871.00 1808.10 43.26
6527 101.4717 1874.00 1804.77 43.29
6528 101.4860 1796.00 1801.54 42.38
6529 101.5003 1820.00 1798.35 42.66
6530 101.5146 1817.00 1795.19 42.63
6531 101.5289 1806.00 1792.13 42.50
6532 101.5433 1791.00 1789.12 42.32
6533 101.5576 1751.00 1786.20 41.85
6534 101.5719 1842.00 1783.37 42.92
6535 101.5862 1809.00 1780.62 42.53
6536 101.6006 1806.00 1777.94 42.50
6537 101.6149 1779.00 1775.32 42.18
6538 101.6292 1796.00 1772.82 42.38
6539 101.6435 1791.00 1770.41 42.32
6540 101.6578 1739.00 1768.09 41.70
6541 101.6722 1769.00 1765.83 42.06
6542 101.6865 1720.00 1763.67 41.47
6543 101.7008 1773.00 1761.40 42.11
6544 101.7151 1781.00 1759.40 42.20
6545 101.7295 1719.00 1757.46 41.46
6546 101.7438 1733.00 1755.60 41.63
6547 101.7581 1794.00 1753.82 42.36
6548 101.7724 1788.00 1752.11 42.28
6549 101.7867 1743.00 1750.47 41.75
6550 101.8011 1780.00 1748.87 42.19
6551 101.8154 1777.00 1747.34 42.15
6552 101.8297 1819.00 1745.90 42.65
6553 101.8440 1768.00 1744.51 42.05
6554 101.8584 1778.00 1743.17 42.17
6555 101.8727 1796.00 1741.89 42.38
6556 101.8870 1805.00 1740.69 42.49
6557 101.9013 1695.00 1739.55 41.17
6558 101.9156 1763.00 1738.46 41.99
6559 101.9300 1700.00 1737.44 41.23
6560 101.9443 1777.00 1736.47 42.15
6561 101.9586 1741.00 1735.53 41.73
6562 101.9729 1721.00 1734.66 41.48
6563 101.9873 1753.00 1733.80 41.87
6564 102.0016 1820.00 1733.03 42.66
6565 102.0159 1772.00 1732.31 42.10
6566 102.0302 1689.00 1731.63 41.10
6567 102.0445 1856.00 1731.00 43.08
6568 102.0589 1725.00 1730.40 41.53
6569 102.0732 1732.00 1729.85 41.62
6570 102.0875 1737.00 1729.33 41.68
6571 102.1018 1690.00 1728.83 41.11
6572 102.1162 1668.00 1728.38 40.84
6573 102.1305 1721.00 1727.96 41.48
6574 102.1448 1701.00 1727.56 41.24
6575 102.1591 1693.00 1727.20 41.15
6576 102.1734 1704.00 1726.86 41.28
6577 102.1878 1736.00 1726.55 41.67
6578 102.2021 1689.00 1726.27 41.10
6579 102.2164 1710.00 1726.01 41.35
6580 102.2307 1685.00 1725.77 41.05
6581 102.2451 1686.00 1725.57 41.06
6582 102.2594 1748.00 1725.39 41.81
6583 102.2737 1690.00 1725.25 41.11
6584 102.2880 1790.00 1725.16 42.31
6585 102.3023 1679.00 1725.09 40.98
6586 102.3167 1770.00 1725.05 42.07
6587 102.3310 1715.00 1725.03 41.41
6588 102.3453 1746.00 1725.08 41.79
6589 102.3596 1821.00 1725.14 42.67
6590 102.3740 1764.00 1725.28 42.00
6591 102.3883 1696.00 1725.47 41.18
6592 102.4026 1712.00 1725.72 41.38
6593 102.4169 1650.00 1726.02 40.62
6594 102.4312 1707.00 1726.39 41.32
6595 102.4456 1772.00 1726.81 42.10
6596 102.4599 1711.00 1727.31 41.36
6597 102.4742 1819.00 1727.87 42.65
6598 102.4885 1714.00 1728.51 41.40
6599 102.5029 1840.00 1729.22 42.90
6600 102.5172 1683.00 1730.01 41.02
6601 102.5315 1775.00 1730.88 42.13
6602 102.5458 1728.00 1731.84 41.57
6603 102.5601 1671.00 1732.88 40.88
6604 102.5745 1705.00 1734.01 41.29
6605 102.5888 1793.00 1735.23 42.34
6606 102.6031 1716.00 1736.54 41.42
6607 102.6174 1730.00 1737.94 41.59
6608 102.6317 1696.00 1739.44 41.18
6609 102.6461 1772.00 1741.07 42.10
6610 102.6604 1738.00 1742.75 41.69
6611 102.6747 1756.00 1744.52 41.90
6612 102.6890 1698.00 1746.39 41.21
6613 102.7034 1781.00 1748.33 42.20
6614 102.7177 1817.00 1750.37 42.63
6615 102.7320 1795.00 1752.48 42.37
6616 102.7463 1766.00 1754.65 42.02
6617 102.7606 1730.00 1756.92 41.59
6618 102.7750 1760.00 1759.24 41.95
6619 102.7893 1796.00 1761.58 42.38
6620 102.8036 1750.00 1763.97 41.83
6621 102.8179 1736.00 1766.37 41.67
6622 102.8323 1761.00 1768.80 41.96
6623 102.8466 1793.00 1771.23 42.34
6624 102.8609 1765.00 1773.64 42.01
6625 102.8752 1768.00 1776.03 42.05
6626 102.8895 1761.00 1778.38 41.96
6627 102.9039 1734.00 1780.70 41.64
6628 102.9182 1725.00 1782.94 41.53
6629 102.9325 1810.00 1785.10 42.54
6630 102.9468 1715.00 1787.20 41.41
6631 102.9612 1856.00 1789.21 43.08
6632 102.9755 1782.00 1791.11 42.21
6633 102.9898 1812.00 1792.92 42.57
6634 103.0041 1772.00 1794.60 42.10
6635 103.0184 1761.00 1796.16 41.96
6636 103.0328 1764.00 1797.61 42.00
6637 103.0471 1741.00 1798.93 41.73
6638 103.0614 1789.00 1800.13 42.30
6639 103.0757 1794.00 1801.21 42.36
6640 103.0901 1768.00 1802.17 42.05
6641 103.1044 1764.00 1803.00 42.00
6642 103.1187 1737.00 1803.73 41.68
6643 103.1330 1788.00 1804.34 42.28
6644 103.1473 1719.00 1804.83 41.46
6645 103.1617 1660.00 1805.22 40.74
6646 103.1760 1781.00 1805.50 42.20
6647 103.1903 1749.00 1805.68 41.82
6648 103.2046 1879.00 1805.77 43.35
6649 103.2190 1783.00 1805.74 42.23
6650 103.2333 1806.00 1805.64 42.50
6651 103.2476 1806.00 1805.45 42.50
6652 103.2619 1778.00 1805.16 42.17
6653 103.2762 1785.00 1804.79 42.25
6654 103.2906 1734.00 1804.31 41.64
6655 103.3049 1813.00 1803.76 42.58
6656 103.3192 1803.00 1803.17 42.46
6657 103.3335 1758.00 1802.45 41.93
6658 103.3479 1816.00 1801.65 42.61
6659 103.3622 1800.00 1800.77 42.43
6660 103.3765 1758.00 1799.80 41.93
6661 103.3908 1791.00 1798.76 42.32
6662 103.4051 1806.00 1797.63 42.50
6663 103.4195 1785.00 1796.44 42.25
6664 103.4338 1803.00 1795.16 42.46
6665 103.4481 1828.00 1793.81 42.76
6666 103.4624 1757.00 1792.39 41.92
6667 103.4768 1873.00 1790.89 43.28
6668 103.4911 1801.00 1789.34 42.44
6669 103.5054 1757.00 1787.72 41.92
6670 103.5197 1787.00 1786.06 42.27
6671 103.5340 1823.00 1784.34 42.70
6672 103.5484 1765.00 1782.57 42.01
6673 103.5627 1749.00 1780.77 41.82
6674 103.5770 1756.00 1778.92 41.90
6675 103.5913 1763.00 1777.06 41.99
6676 103.6057 1762.00 1775.17 41.98
6677 103.6200 1761.00 1773.28 41.96
6678 103.6343 1750.00 1771.39 41.83
6679 103.6486 1831.00 1769.50 42.79
6680 103.6629 1835.00 1767.62 42.84
6681 103.6773 1765.00 1765.85 42.01
6682 103.6916 1754.00 1764.01 41.88
6683 103.7059 1788.00 1762.20 42.28
6684 103.7202 1739.00 1760.43 41.70
6685 103.7346 1659.00 1758.68 40.73
6686 103.7489 1696.00 1757.00 41.18
6687 103.7632 1701.00 1755.36 41.24
6688 103.7775 1706.00 1753.78 41.30
6689 103.7918 1711.00 1752.26 41.36
6690 103.8062 1716.00 1750.78 41.42
6691 103.8205 1749.00 1749.36 41.82
6692 103.8348 1773.00 1748.01 42.11
6693 103.8491 1790.00 1746.72 42.31
6694 103.8635 1727.00 1745.47 41.56
6695 103.8778 1665.00 1744.29 40.80
6696 103.8921 1746.00 1743.18 41.79
6697 103.9064 1736.00 1742.12 41.67
6698 103.9207 1702.00 1741.12 41.26
6699 103.9351 1809.00 1740.17 42.53
6700 103.9494 1770.00 1739.29 42.07
6701 103.9637 1701.00 1738.46 41.24
6702 103.9780 1741.00 1737.71 41.73
6703 103.9924 1731.00 1737.00 41.61
6704 104.0067 1772.00 1736.37 42.10
6705 104.0210 1708.00 1735.81 41.33
6706 104.0353 1722.00 1735.30 41.50
6707 104.0496 1738.00 1734.87 41.69
6708 104.0640 1702.00 1734.51 41.26
6709 104.0783 1713.00 1734.21 41.39
6710 104.0926 1742.00 1733.98 41.74
6711 104.1069 1809.00 1733.83 42.53
6712 104.1213 1765.00 1733.73 42.01
6713 104.1356 1730.00 1733.72 41.59
6714 104.1499 1784.00 1733.78 42.24
6715 104.1642 1788.00 1733.91 42.28
6716 104.1785 1735.00 1734.11 41.65
6717 104.1929 1695.00 1734.38 41.17
6718 104.2072 1749.00 1734.71 41.82
6719 104.2215 1716.00 1735.10 41.42
6720 104.2358 1745.00 1735.55 41.77
6721 104.2502 1760.00 1736.05 41.95
6722 104.2645 1767.00 1736.59 42.04
6723 104.2788 1760.00 1737.18 41.95
6724 104.2931 1719.00 1737.78 41.46
6725 104.3074 1650.00 1738.42 40.62
6726 104.3218 1752.00 1739.07 41.86
6727 104.3361 1626.00 1739.74 40.32
6728 104.3504 1758.00 1740.41 41.93
6729 104.3647 1731.00 1741.09 41.61
6730 104.3791 1683.00 1741.77 41.02
6731 104.3934 1692.00 1742.42 41.13
6732 104.4077 1811.00 1743.06 42.56
6733 104.4220 1679.00 1743.67 40.98
6734 104.4363 1737.00 1744.25 41.68
6735 104.4507 1772.00 1744.80 42.10
6736 104.4650 1775.00 1745.31 42.13
6737 104.4793 1747.00 1745.78 41.80
6738 104.4936 1717.00 1746.20 41.44
6739 104.5079 1736.00 1746.55 41.67
6740 104.5223 1859.00 1746.88 43.12
6741 104.5366 1734.00 1747.17 41.64
6742 104.5509 1722.00 1747.43 41.50
6743 104.5652 1765.00 1747.65 42.01
6744 104.5796 1797.00 1747.83 42.39
6745 104.5939 1775.00 1747.99 42.13
6746 104.6082 1736.00 1748.10 41.67
6747 104.6225 1774.00 1748.19 42.12
6748 104.6368 1728.00 1748.26 41.57
6749 104.6512 1782.00 1748.30 42.21
6750 104.6655 1746.00 1748.32 41.79
6751 104.6798 1838.00 1748.33 42.87
6752 104.6941 1873.00 1748.33 43.28
6753 104.7085 1771.00 1748.48 42.08
6754 104.7228 1754.00 1748.45 41.88
6755 104.7371 1762.00 1748.41 41.98
6756 104.7514 1735.00 1748.36 41.65
6757 104.7657 1774.00 1748.29 42.12
6758 104.7801 1688.00 1748.21 41.09
6759 104.7944 1745.00 1748.11 41.77
6760 104.8087 1703.00 1747.99 41.27
6761 104.8230 1797.00 1747.86 42.39
6762 104.8374 1765.00 1747.70 42.01
6763 104.8517 1773.00 1747.52 42.11
6764 104.8660 1752.00 1747.31 41.86
6765 104.8803 1695.00 1747.06 41.17
6766 104.8946 1796.00 1746.81 42.38
6767 104.9090 1792.00 1746.52 42.33
6768 104.9233 1677.00 1746.22 40.95
6769 104.9376 1764.00 1745.89 42.00
6770 104.9519 1777.00 1745.53 42.15
6771 104.9663 1753.00 1745.14 41.87
6772 104.9806 1782.00 1744.73 42.21
6773 104.9949 1718.00 1744.27 41.45
6774 105.0092 1793.00 1743.83 42.34
6775 105.0235 1766.00 1743.36 42.02
6776 105.0379 1704.00 1742.89 41.28
6777 105.0522 1747.00 1742.41 41.80
6778 105.0665 1783.00 1741.93 42.23
6779 105.0808 1825.00 1741.54 42.72
6780 105.0952 1799.00 1741.05 42.41
6781 105.1095 1733.00 1740.58 41.63
6782 105.1238 1745.00 1740.13 41.77
6783 105.1381 1747.00 1739.70 41.80
6784 105.1524 1784.00 1739.29 42.24
6785 105.1668 1788.00 1738.92 42.28
6786 105.1811 1735.00 1738.54 41.65
6787 105.1954 1747.00 1738.22 41.80
6788 105.2097 1708.00 1737.94 41.33
6789 105.2241 1790.00 1737.69 42.31
6790 105.2384 1683.00 1737.48 41.02
6791 105.2527 1713.00 1737.30 41.39
6792 105.2670 1733.00 1737.16 41.63
6793 105.2813 1718.00 1737.05 41.45
6794 105.2957 1691.00 1736.98 41.12
6795 105.3100 1784.00 1736.94 42.24
6796 105.3243 1721.00 1736.93 41.48
6797 105.3386 1729.00 1736.94 41.58
6798 105.3530 1739.00 1736.98 41.70
6799 105.3673 1742.00 1737.02 41.74
6800 105.3816 1695.00 1737.10 41.17
6801 105.3959 1674.00 1737.19 40.91
6802 105.4102 1753.00 1737.30 41.87
6803 105.4246 1754.00 1737.41 41.88
6804 105.4389 1669.00 1737.53 40.85
6805 105.4532 1740.00 1737.65 41.71
6806 105.4675 1778.00 1737.77 42.17
6807 105.4819 1780.00 1737.90 42.19
6808 105.4962 1743.00 1738.03 41.75
6809 105.5105 1696.00 1738.16 41.18
6810 105.5248 1724.00 1738.28 41.52
6811 105.5391 1827.00 1738.41 42.74
6812 105.5535 1690.00 1738.52 41.11
6813 105.5678 1775.00 1738.64 42.13
6814 105.5821 1753.00 1738.76 41.87
6815 105.5964 1766.00 1738.87 42.02
6816 105.6108 1791.00 1738.98 42.32
6817 105.6251 1751.00 1739.09 41.85
6818 105.6394 1768.00 1739.20 42.05
6819 105.6537 1719.00 1739.31 41.46
6820 105.6680 1779.00 1739.42 42.18
6821 105.6824 1747.00 1739.53 41.80
6822 105.6967 1814.00 1739.65 42.59
6823 105.7110 1734.00 1739.80 41.64
6824 105.7253 1752.00 1739.93 41.86
6825 105.7397 1782.00 1740.07 42.21
6826 105.7540 1690.00 1740.23 41.11
6827 105.7683 1686.00 1740.40 41.06
6828 105.7826 1757.00 1740.57 41.92
6829 105.7969 1757.00 1740.77 41.92
6830 105.8113 1607.00 1740.99 40.09
6831 105.8256 1752.00 1741.23 41.86
6832 105.8399 1712.00 1741.52 41.38
6833 105.8542 1781.00 1741.81 42.20
6834 105.8686 1753.00 1742.14 41.87
6835 105.8829 1712.00 1742.49 41.38
6836 105.8972 1704.00 1742.87 41.28
6837 105.9115 1756.00 1743.27 41.90
6838 105.9258 1770.00 1743.70 42.07
6839 105.9402 1738.00 1744.17 41.69
6840 105.9545 1760.00 1744.66 41.95
6841 105.9688 1745.00 1745.18 41.77
6842 105.9831 1754.00 1745.73 41.88
6843 105.9975 1772.00 1746.32 42.10
6844 106.0118 1724.00 1746.91 41.52
6845 106.0261 1733.00 1747.53 41.63
6846 106.0404 1803.00 1748.20 42.46
6847 106.0547 1735.00 1748.87 41.65
6848 106.0691 1818.00 1749.56 42.64
6849 106.0834 1689.00 1750.26 41.10
6850 106.0977 1725.00 1750.97 41.53
6851 106.1120 1726.00 1751.69 41.55
6852 106.1264 1741.00 1752.43 41.73
6853 106.1407 1738.00 1753.17 41.69
6854 106.1550 1746.00 1753.91 41.79
6855 106.1693 1774.00 1754.65 42.12
6856 106.1836 1697.00 1755.40 41.19
6857 106.1980 1742.00 1756.16 41.74
6858 106.2123 1792.00 1756.92 42.33
6859 106.2266 1753.00 1757.68 41.87
6860 106.2409 1713.00 1758.42 41.39
6861 106.2553 1796.00 1759.16 42.38
6862 106.2696 1776.00 1759.91 42.14
6863 106.2839 1784.00 1760.61 42.24
6864 106.2982 1797.00 1761.29 42.39
6865 106.3125 1793.00 1761.97 42.34
6866 106.3269 1759.00 1762.63 41.94
6867 106.3412 1788.00 1763.26 42.28
6868 106.3555 1847.00 1763.87 42.98
6869 106.3698 1785.00 1764.46 42.25
6870 106.3841 1682.00 1765.01 41.01
6871 106.3985 1847.00 1765.54 42.98
6872 106.4128 1765.00 1766.05 42.01
6873 106.4271 1706.00 1766.52 41.30
6874 106.4414 1739.00 1766.97 41.70
6875 106.4558 1749.00 1767.41 41.82
6876 106.4701 1740.00 1767.81 41.71
6877 106.4844 1745.00 1768.19 41.77
6878 106.4987 1761.00 1768.57 41.96
6879 106.5130 1839.00 1768.92 42.88
6880 106.5274 1787.00 1769.27 42.27
6881 106.5417 1759.00 1769.60 41.94
6882 106.5560 1753.00 1769.92 41.87
6883 106.5703 1761.00 1770.20 41.96
6884 106.5847 1750.00 1770.45 41.83
6885 106.5990 1739.00 1770.77 41.70
6886 106.6133 1802.00 1771.08 42.45
6887 106.6276 1788.00 1771.40 42.28
6888 106.6419 1754.00 1771.73 41.88
6889 106.6563 1770.00 1772.08 42.07
6890 106.6706 1772.00 1772.38 42.10
6891 106.6849 1657.00 1772.76 40.71
6892 106.6992 1765.00 1773.12 42.01
6893 106.7136 1799.00 1773.50 42.41
6894 106.7279 1856.00 1773.89 43.08
6895 106.7422 1788.00 1774.29 42.28
6896 106.7565 1789.00 1774.71 42.30
6897 106.7708 1841.00 1775.15 42.91
6898 106.7852 1818.00 1775.61 42.64
6899 106.7995 1782.00 1776.07 42.21
6900 106.8138 1775.00 1776.56 42.13
6901 106.8281 1746.00 1777.07 41.79
6902 106.8425 1823.00 1777.61 42.70
6903 106.8568 1825.00 1778.16 42.72
6904 106.8711 1743.00 1778.74 41.75
6905 106.8854 1827.00 1779.34 42.74
6906 106.8997 1708.00 1779.97 41.33
6907 106.9141 1807.00 1780.62 42.51
6908 106.9284 1774.00 1781.29 42.12
6909 106.9427 1781.00 1781.99 42.20
6910 106.9570 1797.00 1782.65 42.39
6911 106.9714 1804.00 1783.39 42.47
6912 106.9857 1810.00 1784.15 42.54
6913 107.0000 1836.00 1784.92 42.85
6914 107.0143 1842.00 1785.72 42.92
6915 107.0286 1748.00 1786.50 41.81
6916 107.0430 1799.00 1787.33 42.41
6917 107.0573 1808.00 1788.14 42.52
6918 107.0716 1838.00 1788.97 42.87
6919 107.0859 1875.00 1789.80 43.30
6920 107.1003 1793.00 1790.64 42.34
6921 107.1146 1801.00 1791.46 42.44
6922 107.1289 1839.00 1792.27 42.88
6923 107.1432 1812.00 1793.08 42.57
6924 107.1575 1801.00 1793.87 42.44
6925 107.1719 1763.00 1794.65 41.99
6926 107.1862 1773.00 1795.40 42.11
6927 107.2005 1749.00 1796.13 41.82
6928 107.2148 1809.00 1796.82 42.53
6929 107.2292 1781.00 1797.50 42.20
6930 107.2435 1790.00 1798.14 42.31
6931 107.2578 1855.00 1798.74 43.07
6932 107.2721 1817.00 1799.30 42.63
6933 107.2864 1869.00 1799.84 43.23
6934 107.3008 1750.00 1800.33 41.83
6935 107.3151 1786.00 1800.76 42.26
6936 107.3294 1795.00 1801.15 42.37
6937 107.3437 1762.00 1801.49 41.98
6938 107.3581 1818.00 1801.79 42.64
6939 107.3724 1813.00 1802.03 42.58
6940 107.3867 1847.00 1802.22 42.98
6941 107.4010 1745.00 1802.36 41.77
6942 107.4153 1867.00 1802.44 43.21
6943 107.4297 1747.00 1802.48 41.80
6944 107.4440 1878.00 1802.47 43.34
6945 107.4583 1815.00 1802.42 42.60
6946 107.4726 1845.00 1802.32 42.95
6947 107.4870 1868.00 1802.18 43.22
6948 107.5013 1837.00 1802.00 42.86
6949 107.5156 1738.00 1801.79 41.69
6950 107.5299 1810.00 1801.55 42.54
6951 107.5442 1843.00 1801.28 42.93
6952 107.5586 1826.00 1800.99 42.73
6953 107.5729 1838.00 1800.67 42.87
6954 107.5872 1848.00 1800.33 42.99
6955 107.6015 1828.00 1799.97 42.76
6956 107.6159 1827.00 1799.59 42.74
6957 107.6302 1819.00 1799.20 42.65
6958 107.6445 1783.00 1798.80 42.23
6959 107.6588 1815.00 1798.38 42.60
6960 107.6731 1756.00 1797.95 41.90
6961 107.6875 1765.00 1797.50 42.01
6962 107.7018 1825.00 1797.03 42.72
6963 107.7161 1840.00 1796.55 42.90
6964 107.7304 1779.00 1796.07 42.18
6965 107.7448 1854.00 1795.56 43.06
6966 107.7591 1822.00 1795.06 42.68
6967 107.7734 1823.00 1794.53 42.70
6968 107.7877 1767.00 1794.00 42.04
6969 107.8020 1807.00 1793.46 42.51
6970 107.8164 1791.00 1792.91 42.32
6971 107.8307 1733.00 1792.35 41.63
6972 107.8450 1763.00 1791.79 41.99
6973 107.8593 1771.00 1791.23 42.08
6974 107.8737 1728.00 1790.67 41.57
6975 107.8880 1775.00 1790.12 42.13
6976 107.9023 1772.00 1789.58 42.10
6977 107.9166 1774.00 1789.05 42.12
6978 107.9309 1712.00 1788.53 41.38
6979 107.9453 1765.00 1788.03 42.01
6980 107.9596 1903.00 1787.55 43.62
6981 107.9739 1819.00 1787.09 42.65
6982 107.9882 1787.00 1786.65 42.27
6983 108.0026 1861.00 1786.23 43.14
6984 108.0169 1737.00 1785.84 41.68
6985 108.0312 1703.00 1785.48 41.27
6986 108.0455 1796.00 1785.14 42.38
6987 108.0598 1824.00 1784.82 42.71
6988 108.0742 1734.00 1784.53 41.64
6989 108.0885 1726.00 1784.26 41.55
6990 108.1028 1736.00 1784.00 41.67
6991 108.1171 1839.00 1783.77 42.88
6992 108.1314 1769.00 1783.58 42.06
6993 108.1458 1809.00 1783.40 42.53
6994 108.1601 1800.00 1783.24 42.43
6995 108.1744 1857.00 1783.09 43.09
6996 108.1887 1696.00 1782.97 41.18
6997 108.2031 1708.00 1782.86 41.33
6998 108.2174 1783.00 1782.76 42.23
6999 108.2317 1827.00 1782.68 42.74
7000 108.2460 1659.00 1782.61 40.73
7001 108.2603 1779.00 1782.56 42.18
7002 108.2747 1780.00 1782.53 42.19
7003 108.2890 1764.00 1782.52 42.00
7004 108.3033 1817.00 1782.52 42.63
7005 108.3176 1799.00 1782.54 42.41
7006 108.3320 1755.00 1782.57 41.89
7007 108.3463 1743.00 1782.63 41.75
7008 108.3606 1755.00 1782.43 41.89
7009 108.3749 1749.00 1782.55 41.82
7010 108.3892 1738.00 1782.68 41.69
7011 108.4036 1871.00 1782.84 43.26
7012 108.4179 1785.00 1783.02 42.25
7013 108.4322 1766.00 1783.23 42.02
7014 108.4465 1739.00 1783.47 41.70
7015 108.4609 1824.00 1783.74 42.71
7016 108.4752 1843.00 1784.03 42.93
7017 108.4895 1853.00 1784.35 43.05
7018 108.5038 1774.00 1784.68 42.12
7019 108.5181 1751.00 1785.06 41.85
7020 108.5325 1735.00 1785.45 41.65
7021 108.5468 1723.00 1785.87 41.51
7022 108.5611 1772.00 1786.31 42.10
7023 108.5754 1760.00 1786.76 41.95
7024 108.5898 1772.00 1787.23 42.10
7025 108.6041 1772.00 1787.71 42.10
7026 108.6184 1754.00 1788.20 41.88
7027 108.6327 1806.00 1788.69 42.50
7028 108.6470 1756.00 1789.19 41.90
7029 108.6614 1854.00 1789.69 43.06
7030 108.6757 1819.00 1790.19 42.65
7031 108.6900 1795.00 1790.70 42.37
7032 108.7043 1799.00 1791.18 42.41
7033 108.7187 1818.00 1791.62 42.64
7034 108.7330 1816.00 1792.08 42.61
7035 108.7473 1789.00 1792.39 42.30
7036 108.7616 1761.00 1792.84 41.96
7037 108.7759 1823.00 1793.26 42.70
7038 108.7903 1809.00 1793.67 42.53
7039 108.8046 1742.00 1794.06 41.74
7040 108.8189 1776.00 1794.40 42.14
7041 108.8332 1723.00 1794.75 41.51
7042 108.8476 1768.00 1795.07 42.05
7043 108.8619 1725.00 1795.38 41.53
7044 108.8762 1789.00 1795.66 42.30
7045 108.8905 1816.00 1795.92 42.61
7046 108.9048 1799.00 1796.17 42.41
7047 108.9192 1868.00 1796.41 43.22
7048 108.9335 1841.00 1796.62 42.91
7049 108.9478 1798.00 1796.79 42.40
7050 108.9621 1706.00 1796.98 41.30
7051 108.9765 1755.00 1797.16 41.89
7052 108.9908 1793.00 1797.32 42.34
7053 109.0051 1747.00 1797.48 41.80
7054 109.0194 1758.00 1797.64 41.93
7055 109.0337 1821.00 1797.79 42.67
7056 109.0481 1759.00 1797.94 41.94
7057 109.0624 1755.00 1798.09 41.89
7058 109.0767 1852.00 1798.24 43.03
7059 109.0910 1787.00 1798.39 42.27
7060 109.1054 1786.00 1798.52 42.26
7061 109.1197 1822.00 1798.67 42.68
7062 109.1340 1694.00 1798.80 41.16
7063 109.1483 1835.00 1798.96 42.84
7064 109.1626 1714.00 1799.12 41.40
7065 109.1770 1775.00 1799.28 42.13
7066 109.1913 1794.00 1799.44 42.36
7067 109.2056 1720.00 1799.60 41.47
7068 109.2199 1792.00 1799.69 42.33
7069 109.2343 1796.00 1799.84 42.38
7070 109.2486 1791.00 1799.98 42.32
7071 109.2629 1787.00 1800.12 42.27
7072 109.2772 1825.00 1800.26 42.72
7073 109.2915 1781.00 1800.38 42.20
7074 109.3059 1784.00 1800.50 42.24
7075 109.3202 1756.00 1800.60 41.90
7076 109.3345 1794.00 1800.69 42.36
7077 109.3488 1791.00 1800.75 42.32
7078 109.3632 1855.00 1800.81 43.07
7079 109.3775 1821.00 1800.86 42.67
7080 109.3918 1744.00 1800.89 41.76
7081 109.4061 1829.00 1800.91 42.77
7082 109.4204 1818.00 1800.91 42.64
7083 109.4348 1820.00 1800.89 42.66
7084 109.4491 1790.00 1800.86 42.31
7085 109.4634 1843.00 1800.80 42.93
7086 109.4777 1762.00 1800.73 41.98
7087 109.4921 1831.00 1800.64 42.79
7088 109.5064 1792.00 1800.53 42.33
7089 109.5207 1774.00 1800.41 42.12
7090 109.5350 1857.00 1800.27 43.09
7091 109.5493 1781.00 1800.11 42.20
7092 109.5637 1826.00 1799.95 42.73
7093 109.5780 1807.00 1799.78 42.51
7094 109.5923 1761.00 1799.61 41.96
7095 109.6066 1840.00 1799.41 42.90
7096 109.6210 1730.00 1799.20 41.59
7097 109.6353 1806.00 1799.01 42.50
7098 109.6496 1840.00 1798.80 42.90
7099 109.6639 1785.00 1798.60 42.25
7100 109.6782 1844.00 1798.40 42.94
7101 109.6926 1758.00 1798.19 41.93
7102 109.7069 1731.00 1798.00 41.61
7103 109.7212 1803.00 1797.81 42.46
7104 109.7355 1775.00 1797.62 42.13
7105 109.7499 1776.00 1797.43 42.14
7106 109.7642 1783.00 1797.25 42.23
7107 109.7785 1829.00 1797.07 42.77
7108 109.7928 1721.00 1796.88 41.48
7109 109.8071 1806.00 1796.72 42.50
7110 109.8215 1806.00 1796.57 42.50
7111 109.8358 1776.00 1796.43 42.14
7112 109.8501 1781.00 1796.29 42.20
7113 109.8644 1710.00 1796.15 41.35
7114 109.8788 1870.00 1796.03 43.24
7115 109.8931 1785.00 1795.91 42.25
7116 109.9074 1762.00 1795.79 41.98
7117 109.9217 1801.00 1795.69 42.44
7118 109.9360 1782.00 1795.59 42.21
7119 109.9504 1881.00 1795.50 43.37
7120 109.9647 1816.00 1795.42 42.61
7121 109.9790 1745.00 1795.35 41.77
7122 109.9933 1825.00 1795.29 42.72
7123 110.0076 1779.00 1795.24 42.18
7124 110.0220 1805.00 1795.19 42.49
7125 110.0363 1750.00 1795.16 41.83
7126 110.0506 1726.00 1795.13 41.55
7127 110.0649 1783.00 1795.11 42.23
7128 110.0793 1840.00 1795.09 42.90
7129 110.0936 1782.00 1795.09 42.21
7130 110.1079 1841.00 1795.09 42.91
7131 110.1222 1894.00 1795.09 43.52
7132 110.1365 1805.00 1795.10 42.49
7133 110.1509 1812.00 1795.13 42.57
7134 110.1652 1858.00 1795.14 43.10
7135 110.1795 1789.00 1795.16 42.30
7136 110.1938 1829.00 1795.16 42.77
7137 110.2082 1802.00 1795.17 42.45
7138 110.2225 1750.00 1795.18 41.83
7139 110.2368 1809.00 1795.19 42.53
7140 110.2511 1839.00 1795.20 42.88
7141 110.2654 1723.00 1795.20 41.51
7142 110.2798 1783.00 1795.19 42.23
7143 110.2941 1785.00 1795.18 42.25
7144 110.3084 1748.00 1795.17 41.81
7145 110.3227 1834.00 1795.16 42.83
7146 110.3371 1777.00 1795.42 42.15
7147 110.3514 1734.00 1795.40 41.64
7148 110.3657 1788.00 1795.38 42.28
7149 110.3800 1778.00 1795.36 42.17
7150 110.3943 1848.00 1795.35 42.99
7151 110.4087 1782.00 1795.34 42.21
7152 110.4230 1800.00 1795.33 42.43
7153 110.4373 1801.00 1795.33 42.44
7154 110.4516 1867.00 1795.33 43.21
7155 110.4660 1710.00 1795.35 41.35
7156 110.4803 1847.00 1795.38 42.98
7157 110.4946 1802.00 1795.42 42.45
7158 110.5089 1785.00 1795.49 42.25
7159 110.5232 1768.00 1795.56 42.05
7160 110.5376 1743.00 1795.65 41.75
7161 110.5519 1817.00 1795.77 42.63
7162 110.5662 1826.00 1795.90 42.73
7163 110.5805 1813.00 1796.04 42.58
7164 110.5949 1737.00 1796.21 41.68
7165 110.6092 1816.00 1796.39 42.61
7166 110.6235 1821.00 1796.58 42.67
7167 110.6378 1835.00 1796.79 42.84
7168 110.6521 1794.00 1797.02 42.36
7169 110.6665 1801.00 1797.25 42.44
7170 110.6808 1828.00 1797.50 42.76
7171 110.6951 1814.00 1797.77 42.59
7172 110.7094 1798.00 1798.03 42.40
7173 110.7238 1853.00 1798.45 43.05
7174 110.7381 1752.00 1798.74 41.86
7175 110.7524 1778.00 1799.04 42.17
7176 110.7667 1836.00 1799.34 42.85
7177 110.7810 1805.00 1799.65 42.49
7178 110.7954 1836.00 1799.97 42.85
7179 110.8097 1879.00 1800.29 43.35
7180 110.8240 1789.00 1800.60 42.30
7181 110.8383 1799.00 1800.92 42.41
7182 110.8527 1750.00 1801.25 41.83
7183 110.8670 1764.00 1801.56 42.00
7184 110.8813 1784.00 1801.88 42.24
7185 110.8956 1815.00 1802.20 42.60
7186 110.9099 1837.00 1802.52 42.86
7187 110.9243 1891.00 1802.85 43.49
7188 110.9386 1854.00 1803.17 43.06
7189 110.9529 1896.00 1803.50 43.54
7190 110.9672 1763.00 1803.82 41.99
7191 110.9816 1796.00 1804.16 42.38
7192 110.9959 1842.00 1804.49 42.92
7193 111.0102 1834.00 1804.83 42.83
7194 111.0245 1862.00 1805.20 43.15
7195 111.0388 1863.00 1805.55 43.16
7196 111.0532 1763.00 1805.89 41.99
7197 111.0675 1880.00 1806.25 43.36
7198 111.0818 1800.00 1806.63 42.43
7199 111.0961 1862.00 1807.02 43.15
7200 111.1105 1786.00 1807.41 42.26
7201 111.1248 1760.00 1807.83 41.95
7202 111.1391 1801.00 1808.26 42.44
7203 111.1534 1824.00 1808.71 42.71
7204 111.1677 1785.00 1809.18 42.25
7205 111.1821 1871.00 1809.67 43.26
7206 111.1964 1895.00 1810.18 43.53
7207 111.2107 1881.00 1810.69 43.37
7208 111.2250 1797.00 1811.24 42.39
7209 111.2394 1807.00 1811.82 42.51
7210 111.2537 1854.00 1812.43 43.06
7211 111.2680 1841.00 1813.05 42.91
7212 111.2823 1775.00 1813.69 42.13
7213 111.2966 1805.00 1814.36 42.49
7214 111.3110 1862.00 1815.06 43.15
7215 111.3253 1835.00 1815.78 42.84
7216 111.3396 1854.00 1816.51 43.06
7217 111.3539 1840.00 1817.28 42.90
7218 111.3683 1927.00 1818.07 43.90
7219 111.3826 1834.00 1818.87 42.83
7220 111.3969 1865.00 1819.69 43.19
7221 111.4112 1859.00 1820.53 43.12
7222 111.4255 1824.00 1821.41 42.71
7223 111.4399 1826.00 1822.30 42.73
7224 111.4542 1876.00 1823.18 43.31
7225 111.4685 1837.00 1824.11 42.86
7226 111.4828 1803.00 1825.05 42.46
7227 111.4972 1895.00 1826.01 43.53
7228 111.5115 1855.00 1826.98 43.07
7229 111.5258 1889.00 1827.98 43.46
7230 111.5401 1834.00 1829.00 42.83
7231 111.5544 1828.00 1830.03 42.76
7232 111.5688 1879.00 1831.10 43.35
7233 111.5831 1780.00 1832.19 42.19
7234 111.5974 1802.00 1833.30 42.45
7235 111.6117 1844.00 1834.42 42.94
7236 111.6261 1899.00 1835.58 43.58
7237 111.6404 1801.00 1836.77 42.44
7238 111.6547 1782.00 1837.99 42.21
7239 111.6690 1852.00 1839.23 43.03
7240 111.6833 1931.00 1840.50 43.94
7241 111.6977 1848.00 1841.81 42.99
7242 111.7120 1776.00 1843.13 42.14
7243 111.7263 1869.00 1844.48 43.23
7244 111.7406 1932.00 1845.86 43.95
7245 111.7550 1770.00 1847.27 42.07
7246 111.7693 1892.00 1848.70 43.50
7247 111.7836 1839.00 1850.15 42.88
7248 111.7979 1845.00 1851.63 42.95
7249 111.8122 1853.00 1853.12 43.05
7250 111.8266 1798.00 1854.63 42.40
7251 111.8409 1875.00 1856.16 43.30
7252 111.8552 1836.00 1857.69 42.85
7253 111.8695 1917.00 1859.25 43.78
7254 111.8838 1866.00 1860.80 43.20
7255 111.8982 1887.00 1862.38 43.44
7256 111.9125 1864.00 1863.94 43.17
7257 111.9268 1867.00 1865.51 43.21
7258 111.9411 1821.00 1867.08 42.67
7259 111.9555 1860.00 1868.68 43.13
7260 111.9698 1847.00 1870.24 42.98
7261 111.9841 1911.00 1871.80 43.72
7262 111.9984 1894.00 1873.34 43.52
7263 112.0127 1821.00 1874.87 42.67
7264 112.0271 1890.00 1876.40 43.47
7265 112.0414 1873.00 1877.89 43.28
7266 112.0557 1857.00 1879.36 43.09
7267 112.0700 1824.00 1880.81 42.71
7268 112.0844 1957.00 1882.24 44.24
7269 112.0987 1917.00 1883.63 43.78
7270 112.1130 1980.00 1884.98 44.50
7271 112.1273 1910.00 1886.29 43.70
7272 112.1416 1790.00 1887.56 42.31
7273 112.1560 1876.00 1888.81 43.31
7274 112.1703 1852.00 1889.99 43.03
7275 112.1846 1907.00 1891.13 43.67
7276 112.1989 1974.00 1892.22 44.43
7277 112.2133 1843.00 1893.27 42.93
7278 112.2276 1925.00 1894.26 43.87
7279 112.2419 1864.00 1895.20 43.17
7280 112.2562 1914.00 1896.09 43.75
7281 112.2705 1944.00 1896.92 44.09
7282 112.2849 1830.00 1897.71 42.78
7283 112.2992 1889.00 1898.43 43.46
7284 112.3135 1832.00 1899.11 42.80
7285 112.3278 1882.00 1899.75 43.38
7286 112.3422 1936.00 1900.35 44.00
7287 112.3565 1848.00 1900.90 42.99
7288 112.3708 1938.00 1901.41 44.02
7289 112.3851 1872.00 1901.88 43.27
7290 112.3994 1861.00 1902.32 43.14
7291 112.4138 1888.00 1902.72 43.45
7292 112.4281 1839.00 1903.10 42.88
7293 112.4424 1930.00 1903.44 43.93
7294 112.4567 1891.00 1903.76 43.49
7295 112.4711 1906.00 1904.06 43.66
7296 112.4854 1919.00 1904.35 43.81
7297 112.4997 1873.00 1904.61 43.28
7298 112.5140 1927.00 1904.87 43.90
7299 112.5283 1906.00 1905.11 43.66
7300 112.5427 1955.00 1905.35 44.22
7301 112.5570 1838.00 1905.58 42.87
7302 112.5713 1909.00 1905.82 43.69
7303 112.5856 1890.00 1906.04 43.47
7304 112.6000 1946.00 1906.26 44.11
7305 112.6143 1876.00 1906.49 43.31
7306 112.6286 1887.00 1906.72 43.44
7307 112.6429 1889.00 1906.95 43.46
7308 112.6572 1821.00 1907.17 42.67
7309 112.6716 1890.00 1907.40 43.47
7310 112.6859 1916.00 1907.64 43.77
7311 112.7002 1806.00 1907.88 42.50
7312 112.7145 1866.00 1908.14 43.20
7313 112.7289 1889.00 1908.38 43.46
7314 112.7432 1810.00 1908.64 42.54
7315 112.7575 1908.00 1908.90 43.68
7316 112.7718 1873.00 1909.16 43.28
7317 112.7861 1854.00 1909.42 43.06
7318 112.8005 1954.00 1909.68 44.20
7319 112.8148 1882.00 1909.95 43.38
7320 112.8291 1923.00 1910.21 43.85
7321 112.8434 1903.00 1910.48 43.62
7322 112.8578 1971.00 1910.75 44.40
7323 112.8721 1937.00 1911.04 44.01
7324 112.8864 1880.00 1911.32 43.36
7325 112.9007 1931.00 1911.61 43.94
7326 112.9150 1866.00 1911.90 43.20
7327 112.9294 1937.00 1912.21 44.01
7328 112.9437 1955.00 1912.51 44.22
7329 112.9580 1955.00 1912.84 44.22
7330 112.9723 1911.00 1913.19 43.72
7331 112.9867 1874.00 1913.56 43.29
7332 113.0010 1899.00 1913.95 43.58
7333 113.0153 1930.00 1914.37 43.93
7334 113.0296 1844.00 1914.79 42.94
7335 113.0439 1884.00 1915.27 43.41
7336 113.0583 1936.00 1915.78 44.00
7337 113.0726 1890.00 1916.32 43.47
7338 113.0869 1963.00 1916.90 44.31
7339 113.1012 1911.00 1917.53 43.72
7340 113.1156 1902.00 1918.20 43.61
7341 113.1299 1948.00 1918.90 44.14
7342 113.1442 1819.00 1919.65 42.65
7343 113.1585 1899.00 1920.44 43.58
7344 113.1728 1930.00 1921.27 43.93
7345 113.1872 1966.00 1922.15 44.34
7346 113.2015 1961.00 1923.07 44.28
7347 113.2158 1927.00 1924.03 43.90
7348 113.2301 1964.00 1925.01 44.32
7349 113.2445 1877.00 1926.05 43.32
7350 113.2588 1956.00 1927.11 44.23
7351 113.2731 1958.00 1928.21 44.25
7352 113.2874 1964.00 1929.35 44.32
7353 113.3017 1906.00 1930.50 43.66
7354 113.3161 1976.00 1931.69 44.45
7355 113.3304 1989.00 1932.89 44.60
7356 113.3447 1957.00 1934.11 44.24
7357 113.3590 1832.00 1935.35 42.80
7358 113.3734 1931.00 1936.60 43.94
7359 113.3877 1956.00 1937.87 44.23
7360 113.4020 1957.00 1939.13 44.24
7361 113.4163 1928.00 1940.41 43.91
7362 113.4306 1855.00 1941.71 43.07
7363 113.4450 1875.00 1943.02 43.30
7364 113.4593 1953.00 1944.32 44.19
7365 113.4736 1952.00 1945.64 44.18
7366 113.4879 1967.00 1946.96 44.35
7367 113.5023 1932.00 1948.30 43.95
7368 113.5166 1975.00 1949.64 44.44
7369 113.5309 1864.00 1950.99 43.17
7370 113.5452 1990.00 1952.34 44.61
7371 113.5595 1925.00 1953.71 43.87
7372 113.5739 2034.00 1955.09 45.10
7373 113.5882 1845.00 1956.47 42.95
7374 113.6025 1944.00 1957.87 44.09
7375 113.6168 1899.00 1959.26 43.58
7376 113.6312 1913.00 1960.68 43.74
7377 113.6455 1947.00 1962.09 44.12
7378 113.6598 1960.00 1963.50 44.27
7379 113.6741 1902.00 1964.91 43.61
7380 113.6884 1985.00 1966.32 44.55
7381 113.7028 1944.00 1967.73 44.09
7382 113.7171 2059.00 1969.12 45.38
7383 113.7314 2005.00 1970.49 44.78
7384 113.7457 1965.00 1971.83 44.33
7385 113.7600 1898.00 1973.12 43.57
7386 113.7744 1922.00 1974.40 43.84
7387 113.7887 2024.00 1975.64 44.99
7388 113.8030 2096.00 1976.82 45.78
7389 113.8173 1990.00 1977.95 44.61
7390 113.8317 2095.00 1979.01 45.77
7391 113.8460 2000.00 1980.00 44.72
7392 113.8603 1931.00 1980.92 43.94
7393 113.8746 1901.00 1981.76 43.60
7394 113.8889 1943.00 1982.50 44.08
7395 113.9033 2020.00 1983.16 44.94
7396 113.9176 1944.00 1983.72 44.09
7397 113.9319 1935.00 1984.18 43.99
7398 113.9462 1985.00 1984.53 44.55
7399 113.9606 2079.00 1984.78 45.60
7400 113.9749 2019.00 1984.93 44.93
7401 113.9892 1988.00 1984.98 44.59
7402 114.0035 1996.00 1984.92 44.68
7403 114.0178 1962.00 1984.75 44.29
7404 114.0322 2021.00 1984.48 44.96
7405 114.0465 2001.00 1984.11 44.73
7406 114.0608 2003.00 1983.64 44.75
7407 114.0751 2022.00 1983.09 44.97
7408 114.0895 1947.00 1982.44 44.12
7409 114.1038 1945.00 1981.71 44.10
7410 114.1181 1990.00 1980.90 44.61
7411 114.1324 2026.00 1980.02 45.01
7412 114.1467 1969.00 1979.07 44.37
7413 114.1611 2069.00 1978.05 45.49
7414 114.1754 1907.00 1976.96 43.67
7415 114.1897 1971.00 1975.82 44.40
7416 114.2040 1956.00 1974.64 44.23
7417 114.2184 1987.00 1973.41 44.58
7418 114.2327 1920.00 1972.14 43.82
7419 114.2470 1933.00 1970.84 43.97
7420 114.2613 2037.00 1969.49 45.13
7421 114.2756 1904.00 1968.11 43.63
7422 114.2900 1964.00 1966.68 44.32
7423 114.3043 1987.00 1965.24 44.58
7424 114.3186 1936.00 1963.76 44.00
7425 114.3329 1992.00 1962.26 44.63
7426 114.3473 1930.00 1960.72 43.93
7427 114.3616 1890.00 1959.17 43.47
7428 114.3759 1950.00 1957.59 44.16
7429 114.3902 1956.00 1955.98 44.23
7430 114.4045 1930.00 1954.36 43.93
7431 114.4189 1981.00 1952.71 44.51
7432 114.4332 1979.00 1951.03 44.49
7433 114.4475 2021.00 1949.34 44.96
7434 114.4618 1935.00 1947.63 43.99
7435 114.4762 1968.00 1945.88 44.36
7436 114.4905 1897.00 1944.14 43.55
7437 114.5048 1926.00 1942.38 43.89
7438 114.5191 1929.00 1940.60 43.92
7439 114.5334 1970.00 1938.82 44.38
7440 114.5478 2029.00 1937.01 45.04
7441 114.5621 1952.00 1935.21 44.18
7442 114.5764 1988.00 1933.41 44.59
7443 114.5907 2007.00 1931.63 44.80
7444 114.6051 1930.00 1929.82 43.93
7445 114.6194 1919.00 1928.02 43.81
7446 114.6337 1960.00 1926.23 44.27
7447 114.6480 1941.00 1924.45 44.06
7448 114.6623 1951.00 1922.68 44.17
7449 114.6767 1959.00 1920.92 44.26
7450 114.6910 1898.00 1919.19 43.57
7451 114.7053 1940.00 1917.47 44.05
7452 114.7196 1977.00 1915.78 44.46
7453 114.7340 1932.00 1914.10 43.95
7454 114.7483 1848.00 1912.46 42.99
7455 114.7626 1911.00 1910.85 43.72
7456 114.7769 1956.00 1909.27 44.23
7457 114.7912 1905.00 1907.71 43.65
7458 114.8056 1919.00 1906.18 43.81
7459 114.8199 1924.00 1904.68 43.86
7460 114.8342 1961.00 1903.22 44.28
7461 114.8485 1875.00 1901.78 43.30
7462 114.8629 1889.00 1900.37 43.46
7463 114.8772 1970.00 1899.00 44.38
7464 114.8915 1958.00 1897.65 44.25
7465 114.9058 1813.00 1896.34 42.58
7466 114.9201 1906.00 1895.06 43.66
7467 114.9345 1799.00 1893.79 42.41
7468 114.9488 1815.00 1892.56 42.60
7469 114.9631 1903.00 1891.37 43.62
7470 114.9774 1879.00 1890.19 43.35
7471 114.9918 1871.00 1889.04 43.26
7472 115.0061 1905.00 1888.04 43.65
7473 115.0204 1833.00 1886.95 42.81
7474 115.0347 1878.00 1885.89 43.34
7475 115.0490 1885.00 1884.85 43.42
7476 115.0634 1885.00 1883.83 43.42
7477 115.0777 1868.00 1882.83 43.22
7478 115.0920 1885.00 1881.86 43.42
7479 115.1063 1877.00 1880.93 43.32
7480 115.1207 1875.00 1880.00 43.30
7481 115.1350 1831.00 1879.10 42.79
7482 115.1493 1854.00 1878.24 43.06
7483 115.1636 1911.00 1877.39 43.72
7484 115.1779 1855.00 1876.57 43.07
7485 115.1923 1951.00 1875.77 44.17
7486 115.2066 1929.00 1875.00 43.92
7487 115.2209 1956.00 1874.26 44.23
7488 115.2352 1802.00 1873.55 42.45
7489 115.2496 1874.00 1872.86 43.29
7490 115.2639 1833.00 1872.19 42.81
7491 115.2782 1832.00 1871.51 42.80
7492 115.2925 1854.00 1870.91 43.06
7493 115.3068 1899.00 1870.32 43.58
7494 115.3212 1898.00 1869.76 43.57
7495 115.3355 1864.00 1869.22 43.17
7496 115.3498 1862.00 1868.71 43.15
7497 115.3641 1945.00 1868.22 44.10
7498 115.3785 1895.00 1867.74 43.53
7499 115.3928 1938.00 1867.29 44.02
7500 115.4071 1896.00 1866.87 43.54
7501 115.4214 1890.00 1866.46 43.47
7502 115.4357 1836.00 1866.08 42.85
7503 115.4501 1854.00 1865.70 43.06
7504 115.4644 1862.00 1865.34 43.15
7505 115.4787 1865.00 1865.02 43.19
7506 115.4930 1850.00 1864.70 43.01
7507 115.5073 1785.00 1864.39 42.25
7508 115.5217 1870.00 1864.10 43.24
7509 115.5360 1896.00 1863.82 43.54
7510 115.5503 1893.00 1863.56 43.51
7511 115.5646 1854.00 1863.31 43.06
7512 115.5790 1804.00 1863.07 42.47
7513 115.5933 1967.00 1862.84 44.35
7514 115.6076 1827.00 1862.63 42.74
7515 115.6219 1852.00 1862.35 43.03
7516 115.6362 1866.00 1862.15 43.20
7517 115.6506 1957.00 1861.97 44.24
7518 115.6649 1880.00 1861.80 43.36
7519 115.6792 1845.00 1861.64 42.95
7520 115.6935 1905.00 1861.50 43.65
7521 115.7079 1888.00 1861.35 43.45
7522 115.7222 1831.00 1861.21 42.79
7523 115.7365 1845.00 1861.07 42.95
7524 115.7508 1923.00 1860.97 43.85
7525 115.7651 1798.00 1860.88 42.40
7526 115.7795 1875.00 1860.79 43.30
7527 115.7938 1897.00 1860.71 43.55
7528 115.8081 1830.00 1860.65 42.78
7529 115.8224 1879.00 1860.59 43.35
7530 115.8368 1884.00 1860.54 43.41
7531 115.8511 1898.00 1860.49 43.57
7532 115.8654 1802.00 1860.45 42.45
7533 115.8797 1841.00 1860.42 42.91
7534 115.8940 1897.00 1860.38 43.55
7535 115.9084 1828.00 1860.36 42.76
7536 115.9227 1757.00 1860.34 41.92
7537 115.9370 1826.00 1860.32 42.73
7538 115.9513 1832.00 1860.30 42.80
7539 115.9657 1843.00 1860.29 42.93
7540 115.9800 1802.00 1860.27 42.45
7541 115.9943 1896.00 1860.25 43.54
7542 116.0086 1826.00 1860.23 42.73
7543 116.0229 1886.00 1860.21 43.43
7544 116.0373 1821.00 1860.19 42.67
7545 116.0516 1936.00 1860.15 44.00
7546 116.0659 1832.00 1860.09 42.80
7547 116.0802 1902.00 1860.07 43.61
7548 116.0946 1967.00 1860.04 44.35
7549 116.1089 1881.00 1860.01 43.37
7550 116.1232 1921.00 1859.98 43.83
7551 116.1375 1918.00 1859.94 43.79
7552 116.1518 1909.00 1859.90 43.69
7553 116.1662 1891.00 1859.87 43.49
7554 116.1805 1859.00 1859.83 43.12
7555 116.1948 1865.00 1859.79 43.19
7556 116.2091 1816.00 1859.75 42.61
7557 116.2235 1829.00 1859.72 42.77
7558 116.2378 1852.00 1859.69 43.03
7559 116.2521 1907.00 1859.66 43.67
7560 116.2664 1855.00 1859.63 43.07
7561 116.2807 1792.00 1859.58 42.33
7562 116.2951 1845.00 1859.56 42.95
7563 116.3094 1925.00 1859.55 43.87
7564 116.3237 1924.00 1859.53 43.86
7565 116.3380 1833.00 1859.52 42.81
7566 116.3524 1903.00 1859.51 43.62
7567 116.3667 1886.00 1859.49 43.43
7568 116.3810 1824.00 1859.49 42.71
7569 116.3953 1845.00 1859.51 42.95
7570 116.4096 1869.00 1859.52 43.23
7571 116.4240 1817.00 1859.54 42.63
7572 116.4383 1774.00 1859.57 42.12
7573 116.4526 1836.00 1859.58 42.85
7574 116.4669 1853.00 1859.60 43.05
7575 116.4813 1915.00 1859.63 43.76
7576 116.4956 1853.00 1859.64 43.05
7577 116.5099 1848.00 1859.67 42.99
7578 116.5242 1886.00 1859.70 43.43
7579 116.5385 1785.00 1859.73 42.25
7580 116.5529 1789.00 1859.77 42.30
7581 116.5672 1862.00 1859.80 43.15
7582 116.5815 1818.00 1859.83 42.64
7583 116.5958 1925.00 1859.87 43.87
7584 116.6102 1810.00 1859.89 42.54
7585 116.6245 1916.00 1859.93 43.77
7586 116.6388 1862.00 1859.96 43.15
7587 116.6531 1834.00 1860.00 42.83
7588 116.6674 1876.00 1860.04 43.31
7589 116.6818 1911.00 1860.08 43.72
7590 116.6961 1956.00 1860.12 44.23
7591 116.7104 1892.00 1860.16 43.50
7592 116.7247 1931.00 1860.20 43.94
7593 116.7391 1858.00 1860.24 43.10
7594 116.7534 1786.00 1860.30 42.26
7595 116.7677 1879.00 1860.35 43.35
7596 116.7820 1872.00 1860.41 43.27
7597 116.7963 1782.00 1860.47 42.21
7598 116.8107 1869.00 1860.54 43.23
7599 116.8250 1817.00 1860.61 42.63
7600 116.8393 1834.00 1860.70 42.83
7601 116.8536 1852.00 1860.79 43.03
7602 116.8680 1766.00 1860.89 42.02
7603 116.8823 1913.00 1861.00 43.74
7604 116.8966 1869.00 1861.12 43.23
7605 116.9109 1863.00 1861.24 43.16
7606 116.9252 1831.00 1861.38 42.79
7607 116.9396 1959.00 1861.53 44.26
7608 116.9539 1856.00 1861.70 43.08
7609 116.9682 1818.00 1861.88 42.64
7610 116.9825 1878.00 1862.06 43.34
7611 116.9969 1921.00 1862.26 43.83
7612 117.0112 1886.00 1862.48 43.43
7613 117.0255 1761.00 1862.71 41.96
7614 117.0398 1829.00 1862.95 42.77
7615 117.0541 1798.00 1863.21 42.40
7616 117.0685 1805.00 1863.48 42.49
7617 117.0828 1887.00 1863.77 43.44
7618 117.0971 1936.00 1864.07 44.00
7619 117.1114 1863.00 1864.38 43.16
7620 117.1258 1811.00 1864.72 42.56
7621 117.1401 1830.00 1865.07 42.78
7622 117.1544 1857.00 1865.43 43.09
7623 117.1687 1874.00 1865.81 43.29
7624 117.1830 1875.00 1866.20 43.30
7625 117.1974 1825.00 1866.61 42.72
7626 117.2117 1825.00 1867.04 42.72
7627 117.2260 1823.00 1867.48 42.70
7628 117.2403 1922.00 1867.93 43.84
7629 117.2547 1922.00 1868.40 43.84
7630 117.2690 1843.00 1868.88 42.93
7631 117.2833 1924.00 1869.37 43.86
7632 117.2976 1813.00 1869.87 42.58
7633 117.3119 1835.00 1870.38 42.84
7634 117.3263 1920.00 1870.91 43.82
7635 117.3406 1892.00 1871.45 43.50
7636 117.3549 1861.00 1871.99 43.14
7637 117.3692 1820.00 1872.55 42.66
7638 117.3835 1827.00 1873.11 42.74
7639 117.3979 1883.00 1873.69 43.39
7640 117.4122 1775.00 1874.26 42.13
7641 117.4265 1875.00 1874.84 43.30
7642 117.4408 1854.00 1875.43 43.06
7643 117.4552 1886.00 1876.02 43.43
7644 117.4695 1783.00 1876.60 42.23
7645 117.4838 1940.00 1877.20 44.05
7646 117.4981 1970.00 1877.80 44.38
7647 117.5124 1904.00 1878.38 43.63
7648 117.5268 1897.00 1878.98 43.55
7649 117.5411 1907.00 1879.57 43.67
7650 117.5554 1908.00 1880.15 43.68
7651 117.5697 1840.00 1880.73 42.90
7652 117.5841 1918.00 1881.32 43.79
7653 117.5984 1838.00 1881.90 42.87
7654 117.6127 1908.00 1882.47 43.68
7655 117.6270 1922.00 1883.04 43.84
7656 117.6413 1914.00 1883.61 43.75
7657 117.6557 1852.00 1884.18 43.03
7658 117.6700 1963.00 1884.73 44.31
7659 117.6843 1845.00 1885.29 42.95
7660 117.6986 1890.00 1885.84 43.47
7661 117.7130 1955.00 1886.39 44.22
7662 117.7273 1814.00 1886.93 42.59
7663 117.7416 1909.00 1887.48 43.69
7664 117.7559 1929.00 1888.02 43.92
7665 117.7702 1934.00 1888.56 43.98
7666 117.7846 1950.00 1889.10 44.16
7667 117.7989 1906.00 1889.65 43.66
7668 117.8132 1881.00 1890.19 43.37
7669 117.8275 1937.00 1890.74 44.01
7670 117.8419 1867.00 1891.29 43.21
7671 117.8562 1832.00 1891.83 42.80
7672 117.8705 1907.00 1892.38 43.67
7673 117.8848 1839.00 1892.92 42.88
7674 117.8991 1938.00 1893.46 44.02
7675 117.9135 1972.00 1894.01 44.41
7676 117.9278 1873.00 1894.57 43.28
7677 117.9421 1890.00 1895.11 43.47
7678 117.9564 1854.00 1895.66 43.06
7679 117.9708 1864.00 1896.22 43.17
7680 117.9851 1888.00 1896.76 43.45
7681 117.9994 1871.00 1897.30 43.26
7682 118.0137 1872.00 1897.84 43.27
7683 118.0280 1963.00 1898.38 44.31
7684 118.0424 1884.00 1898.91 43.41
7685 118.0567 1956.00 1899.41 44.23
7686 118.0710 1870.00 1899.93 43.24
7687 118.0853 1932.00 1900.43 43.95
7688 118.0997 1967.00 1900.93 44.35
7689 118.1140 1919.00 1901.41 43.81
7690 118.1283 1857.00 1901.88 43.09
7691 118.1426 1938.00 1902.35 44.02
7692 118.1569 1823.00 1902.79 42.70
7693 118.1713 1852.00 1903.22 43.03
7694 118.1856 1925.00 1903.62 43.87
7695 118.1999 1911.00 1904.02 43.72
7696 118.2142 1821.00 1904.41 42.67
7697 118.2286 1944.00 1904.77 44.09
7698 118.2429 1974.00 1905.12 44.43
7699 118.2572 1938.00 1905.46 44.02
7700 118.2715 1888.00 1905.78 43.45
7701 118.2858 1890.00 1906.10 43.47
7702 118.3002 1984.00 1906.39 44.54
7703 118.3145 1935.00 1906.67 43.99
7704 118.3288 1813.00 1906.95 42.58
7705 118.3431 1817.00 1907.21 42.63
7706 118.3575 1917.00 1907.47 43.78
7707 118.3718 1902.00 1907.72 43.61
7708 118.3861 1878.00 1907.96 43.34
7709 118.4004 1942.00 1908.20 44.07
7710 118.4147 1966.00 1908.45 44.34
7711 118.4291 1900.00 1908.69 43.59
7712 118.4434 1903.00 1908.93 43.62
7713 118.4577 1909.00 1909.18 43.69
7714 118.4720 1838.00 1909.43 42.87
7715 118.4864 2005.00 1909.68 44.78
7716 118.5007 1911.00 1909.94 43.72
7717 118.5150 1885.00 1910.19 43.42
7718 118.5293 1983.00 1910.46 44.53
7719 118.5436 1916.00 1910.73 43.77
7720 118.5580 1908.00 1911.02 43.68
7721 118.5723 1870.00 1911.29 43.24
7722 118.5866 1951.00 1911.59 44.17
7723 118.6009 1954.00 1911.89 44.20
7724 118.6153 1924.00 1912.20 43.86
7725 118.6296 2013.00 1912.51 44.87
7726 118.6439 1960.00 1912.82 44.27
7727 118.6582 1967.00 1913.14 44.35
7728 118.6725 1823.00 1913.47 42.70
7729 118.6869 1890.00 1913.80 43.47
7730 118.7012 1903.00 1914.13 43.62
7731 118.7155 1919.00 1914.46 43.81
7732 118.7298 1944.00 1914.79 44.09
7733 118.7442 1963.00 1915.13 44.31
7734 118.7585 1930.00 1915.46 43.93
7735 118.7728 1880.00 1915.80 43.36
7736 118.7871 1871.00 1916.13 43.26
7737 118.8014 1918.00 1916.46 43.79
7738 118.8158 1975.00 1916.79 44.44
7739 118.8301 1960.00 1917.12 44.27
7740 118.8444 1845.00 1917.46 42.95
7741 118.8587 1907.00 1917.78 43.67
7742 118.8731 1942.00 1918.11 44.07
7743 118.8874 1892.00 1918.44 43.50
7744 118.9017 1933.00 1918.75 43.97
7745 118.9160 1951.00 1919.08 44.17
7746 118.9303 1859.00 1919.40 43.12
7747 118.9447 1935.00 1919.72 43.99
7748 118.9590 1953.00 1920.05 44.19
7749 118.9733 1900.00 1920.37 43.59
7750 118.9876 1951.00 1920.70 44.17
7751 119.0020 1934.00 1921.03 43.98
7752 119.0163 1999.00 1921.36 44.71
7753 119.0306 1907.00 1921.69 43.67
7754 119.0449 1932.00 1922.01 43.95
7755 119.0592 1870.00 1922.34 43.24
7756 119.0736 1838.00 1922.68 42.87
7757 119.0879 1870.00 1923.01 43.24
7758 119.1022 1968.00 1923.36 44.36
7759 119.1165 1916.00 1923.70 43.77
7760 119.1309 1959.00 1924.05 44.26
7761 119.1452 1926.00 1924.41 43.89
7762 119.1595 1961.00 1924.77 44.28
7763 119.1738 1859.00 1925.13 43.12
7764 119.1881 1873.00 1925.50 43.28
7765 119.2025 1951.00 1925.88 44.17
7766 119.2168 1898.00 1926.26 43.57
7767 119.2311 1919.00 1926.65 43.81
7768 119.2454 1917.00 1927.05 43.78
7769 119.2597 1877.00 1927.46 43.32
7770 119.2741 1981.00 1927.86 44.51
7771 119.2884 1893.00 1928.29 43.51
7772 119.3027 1914.00 1928.74 43.75
7773 119.3170 1974.00 1929.19 44.43
7774 119.3314 1905.00 1929.65 43.65
7775 119.3457 1791.00 1930.12 42.32
7776 119.3600 1946.00 1930.63 44.11
7777 119.3743 1909.00 1931.12 43.69
7778 119.3886 1956.00 1931.63 44.23
7779 119.4030 1928.00 1932.16 43.91
7780 119.4173 1863.00 1932.69 43.16
7781 119.4316 1973.00 1933.24 44.42
7782 119.4459 1872.00 1933.80 43.27
7783 119.4603 1997.00 1934.39 44.69
7784 119.4746 1969.00 1934.99 44.37
7785 119.4889 1933.00 1935.61 43.97
7786 119.5032 1857.00 1936.25 43.09
7787 119.5175 1945.00 1936.91 44.10
7788 119.5319 2025.00 1937.59 45.00
7789 119.5462 1937.00 1938.30 44.01
7790 119.5605 1959.00 1939.05 44.26
7791 119.5748 1995.00 1939.82 44.67
7792 119.5892 1995.00 1940.63 44.67
7793 119.6035 1973.00 1941.47 44.42
7794 119.6178 1899.00 1942.35 43.58
7795 119.6321 1977.00 1943.29 44.46
7796 119.6464 1897.00 1944.28 43.55
7797 119.6608 1947.00 1945.33 44.12
7798 119.6751 1923.00 1946.44 43.85
7799 119.6894 1898.00 1947.62 43.57
7800 119.7037 1959.00 1948.88 44.26
7801 119.7181 1989.00 1950.24 44.60
7802 119.7324 1935.00 1951.68 43.99
7803 119.7467 1982.00 1953.23 44.52
7804 119.7610 1985.00 1954.86 44.55
7805 119.7753 2044.00 1956.64 45.21
7806 119.7897 1934.00 1958.56 43.98
7807 119.8040 1954.00 1960.60 44.20
7808 119.8183 2004.00 1962.79 44.77
7809 119.8326 2044.00 1965.16 45.21
7810 119.8470 2001.00 1967.70 44.73
7811 119.8613 1932.00 1970.40 43.95
7812 119.8756 1976.00 1973.30 44.45
7813 119.8899 1935.00 1976.40 43.99
7814 119.9042 2026.00 1979.71 45.01
7815 119.9186 1906.00 1983.26 43.66
7816 119.9329 1959.00 1987.03 44.26
7817 119.9472 2003.00 1991.04 44.75
7818 119.9615 1981.00 1995.32 44.51
7819 119.9759 2033.00 1999.86 45.09
7820 119.9902 1953.00 2004.69 44.19
loop_
_pd_proc_wavelength
1.54051
1.54433
loop_
_refln_index_h
_refln_index_k
_refln_index_l
_refln_F_squared_calc
_refln_F_squared_meas
_refln_F_squared_sigma
_refln_observed_status
_refln_d_spacing
0 0 2 33.98 41.39 26.35 < 9.734982
1 0 0 3413.26 3413.91 70.40 o 7.513345
-1 0 2 299.91 210.79 35.01 o 6.351266
1 0 2 766.38 642.54 45.08 o 5.612759
0 0 4 15034.13 15214.36 298.18 o 4.867491
0 1 1 987.78 929.93 33.85 o 4.593458
-1 0 4 5540.00 5378.76 129.45 o 4.344977
0 1 2 2827.69 2876.73 67.48 o 4.252140
1 1 0 4.74 4.82 0.11 o 4.000947
-1 1 1 5687.86 5603.36 114.31 o 3.972442
1 1 1 1548.98 1553.27 30.05 o 3.867768
1 0 4 20163.19 20174.42 389.19 o 3.866947
0 1 3 179.85 179.17 3.46 o 3.820875
-1 1 2 26440.35 26353.28 500.93 o 3.791964
2 0 0 14944.81 14993.95 286.57 o 3.756672
-2 0 2 67.92 58.93 1.88 o 3.664754
1 1 2 9578.04 9365.04 185.84 o 3.615539
-1 1 3 3635.60 3518.31 82.27 o 3.513695
0 1 4 50.88 55.96 1.51 o 3.391034
2 0 2 1025.75 1046.70 22.55 o 3.364061
1 1 3 3232.98 3229.36 61.81 o 3.307223
0 0 6 2360.97 2192.16 47.41 o 3.244994
-1 1 4 333.72 328.59 6.68 o 3.198872
-2 0 4 21878.28 21466.69 426.23 o 3.175633
-1 0 6 416.85 431.89 11.14 o 3.127255
0 1 5 2206.11 2057.65 67.07 o 3.005498
1 1 4 222.60 208.42 6.82 o 2.993010
-2 1 1 636.50 650.29 16.33 o 2.951715
2 1 0 3220.89 3282.49 79.54 o 2.940993
-2 1 2 6178.47 6026.95 128.20 o 2.896257
-1 1 5 1076.57 1051.81 22.31 o 2.890021
2 1 1 227.08 224.55 5.68 o 2.866179
1 0 6 1340.95 1293.53 44.81 o 2.850047
2 0 4 9766.97 9774.05 230.77 o 2.806379
-2 1 3 265.18 267.43 6.69 o 2.785018
2 1 2 7980.08 8197.37 173.38 o 2.740815
1 1 5 99.31 96.18 2.35 o 2.700626
0 1 6 11184.87 10909.04 223.92 o 2.675264
-2 1 4 157.52 154.40 4.92 o 2.635997
-2 0 6 816.46 821.50 20.01 o 2.626425
-1 1 6 6220.72 6216.20 137.38 o 2.608131
2 1 3 3499.41 3473.61 79.81 o 2.583838
3 0 0 6314.79 6273.11 145.74 o 2.504448
-3 0 2 5295.79 5261.42 121.96 o 2.503485
-2 1 5 1911.06 1931.89 54.35 o 2.467957
1 1 6 5916.82 5853.66 124.10 o 2.440721
0 0 8 4365.67 4360.73 90.36 o 2.433746
2 1 4 3803.39 3973.03 79.02 o 2.413126
-1 0 8 18658.19 19483.66 386.31 o 2.406747
0 1 7 3667.99 3865.41 76.76 o 2.397205
0 2 0 4228.52 4233.81 83.53 o 2.363446
-1 1 7 1134.98 1142.76 22.08 o 2.359886
3 0 2 3958.57 3951.40 76.10 o 2.354322
-3 0 4 5745.39 5712.34 109.89 o 2.351924
0 2 1 5587.07 5599.77 107.39 o 2.346223
2 0 6 881.09 894.94 17.79 o 2.314443
0 2 2 245.70 234.90 5.21 o 2.296729
-2 1 6 5936.09 5681.94 125.07 o 2.295831
1 2 0 1508.74 1466.51 36.74 o 2.254532
-1 2 1 1522.68 1508.69 34.92 o 2.249394
2 1 5 1180.36 1166.33 24.18 o 2.241986
1 0 8 10300.51 10122.95 203.68 o 2.233555
1 2 1 2756.33 2706.14 54.83 o 2.229868
-3 1 1 4055.94 3992.12 80.61 o 2.227115
0 2 3 2974.24 2977.46 59.66 o 2.220772
-1 2 2 7.95 7.96 0.16 o 2.215052
1 1 7 497.65 498.33 10.04 o 2.214590
3 1 0 288.11 290.67 5.98 o 2.213018
-3 1 2 5528.61 5584.36 114.44 o 2.212354
1 2 2 831.10 761.92 23.17 o 2.178210
-2 0 8 3958.37 3745.63 104.45 o 2.172488
3 1 1 55.60 52.54 1.50 o 2.171654
-3 1 3 1077.77 1030.25 28.91 o 2.170399
0 1 8 13.54 13.01 0.35 o 2.163784
-1 2 3 2777.35 2686.79 74.91 o 2.155329
-1 1 8 233.89 223.20 6.36 o 2.144744
-2 1 7 567.74 535.74 12.67 o 2.129395
0 2 4 2110.86 2003.08 46.18 o 2.126070
3 0 4 9572.97 9297.84 203.26 o 2.120005
-3 0 6 1008.16 991.66 21.31 o 2.117089
3 1 2 5853.88 5875.82 126.24 o 2.107394
-3 1 4 421.77 424.81 9.22 o 2.105674
1 2 3 1077.93 1088.65 23.65 o 2.104942
2 1 6 5424.75 5419.25 137.41 o 2.078649
-1 2 4 898.83 894.69 23.13 o 2.076171
3 1 3 1595.94 1590.26 37.17 o 2.026213
-3 1 5 2083.69 2092.02 48.02 o 2.024175
0 2 5 3128.43 3147.64 70.92 o 2.020420
1 1 8 486.13 492.24 10.93 o 2.019456
1 2 4 1327.52 1343.79 29.68 o 2.016613
-2 2 1 1771.88 1858.63 39.55 o 2.003838
2 2 0 775.94 810.27 17.19 o 2.000473
-2 2 2 53.37 53.88 1.15 o 1.986221
-1 2 5 1569.69 1584.95 33.61 o 1.984206
2 2 1 4103.99 4091.22 93.45 o 1.976439
-2 1 8 55.00 55.14 1.24 o 1.973983
0 1 9 1297.70 1312.07 30.56 o 1.967105
-1 1 9 169.44 171.08 4.04 o 1.959270
-2 2 3 4936.37 4819.41 115.51 o 1.949224
0 0 10 651.03 648.09 14.48 o 1.946996
-1 0 10 212.86 211.56 4.67 o 1.945770
3 1 4 816.38 815.41 17.10 o 1.934364
2 2 2 196.73 197.35 4.14 o 1.933884
2 0 8 4223.45 4196.36 86.65 o 1.933474
-3 1 6 4411.02 4399.30 91.28 o 1.932147
2 1 7 2592.60 2574.17 52.05 o 1.927324
1 2 5 6363.52 6256.22 124.92 o 1.919609
0 2 6 0.05 0.05 0.00 o 1.910438
-2 2 4 1569.40 1513.59 32.96 o 1.895982
-4 0 2 2052.58 1972.95 50.08 o 1.889548
-1 2 6 32.42 31.09 0.76 o 1.885533
4 0 0 6236.36 6129.09 152.11 o 1.878336
2 2 3 708.01 690.48 16.77 o 1.876293
3 0 6 3127.97 2997.07 72.66 o 1.870919
-3 0 8 8341.45 7921.40 194.20 o 1.868113
1 1 9 121.55 108.37 3.67 o 1.851250
3 1 5 167.00 163.03 4.64 o 1.837385
-3 1 7 344.96 336.17 9.42 o 1.835106
-4 0 4 7124.40 6959.98 193.34 o 1.832377
-2 1 9 1234.63 1199.26 33.06 o 1.831851
-2 2 5 1282.85 1247.30 34.46 o 1.830480
1 0 10 797.39 777.43 21.26 o 1.829118
-2 0 10 28.81 28.08 0.77 o 1.826072
1 2 6 388.10 382.30 10.54 o 1.819284
2 2 4 1899.82 1872.85 46.62 o 1.807769
4 0 2 3109.94 3064.11 73.46 o 1.802190
0 2 7 719.62 710.14 16.91 o 1.801047
0 1 10 5156.11 5101.32 120.41 o 1.800261
-1 1 10 2154.81 2134.85 50.39 o 1.799291
2 1 8 1032.21 1033.50 24.78 o 1.789554
-1 2 7 2378.13 2392.92 63.28 o 1.785058
-4 1 1 1226.59 1198.57 39.86 o 1.757158
-2 2 6 444.33 434.34 13.74 o 1.756848
-4 1 2 2651.04 2597.12 80.91 o 1.754556
4 1 0 2695.84 2678.15 73.00 o 1.745569
3 1 6 2135.88 2112.60 56.01 o 1.739611
-4 1 3 67.24 66.01 1.82 o 1.737951
-3 1 8 1070.45 1056.15 28.26 o 1.737355
2 2 5 2438.70 2420.66 66.69 o 1.732364
-3 2 1 45.14 44.17 1.31 o 1.725476
-4 0 6 703.03 689.87 19.12 o 1.723408
4 1 1 231.51 230.50 6.35 o 1.720609
1 2 7 1176.77 1177.04 30.56 o 1.719632
3 2 0 1381.01 1379.35 37.68 o 1.718896
-3 2 2 907.93 909.58 24.60 o 1.718584
-4 1 4 2468.57 2494.80 54.67 o 1.708498
1 1 10 3878.50 3914.11 83.09 o 1.705856
-2 1 10 6283.28 6356.91 134.59 o 1.703384
3 2 1 5066.19 5143.94 109.59 o 1.699296
-3 2 3 2656.32 2698.96 57.54 o 1.698694
0 2 8 1265.65 1291.58 27.41 o 1.695517
-1 2 8 1212.47 1242.62 27.65 o 1.686309
4 1 2 3798.01 3976.51 95.07 o 1.683950
4 0 4 874.48 908.25 22.18 o 1.682030
-2 2 7 2559.88 2651.01 65.68 o 1.678818
-4 1 5 758.72 739.89 18.41 o 1.668113
3 2 2 1728.25 1682.82 41.93 o 1.667974
-3 2 4 1628.97 1584.24 39.31 o 1.667120
2 1 9 49.66 48.78 1.15 o 1.665332
-1 1 11 239.12 233.60 5.38 o 1.660808
0 1 11 1444.17 1402.62 31.86 o 1.657598
2 2 6 14.10 13.67 0.32 o 1.653611
2 0 10 2661.06 2569.91 58.79 o 1.645281
3 1 7 1069.97 1030.08 23.99 o 1.644100
3 0 8 5004.42 4822.90 111.57 o 1.644037
-3 1 9 614.18 589.09 14.04 o 1.641923
-3 0 10 150.17 144.26 3.44 o 1.641589
4 1 3 1901.11 1835.34 46.53 o 1.637825
-1 0 12 6971.64 6798.46 173.06 o 1.629253
3 2 3 405.34 396.04 10.82 o 1.626843
-3 2 5 563.76 551.27 15.18 o 1.625788
1 2 8 636.03 628.16 17.23 o 1.623340
0 0 12 4068.11 4007.21 109.03 o 1.622497
-4 1 6 2889.33 2854.96 82.67 o 1.619148
-2 2 8 982.86 946.34 37.43 o 1.599436
0 2 9 1236.44 1193.60 40.31 o 1.595771
-1 2 9 2781.95 2676.50 82.71 o 1.591579
-2 1 11 917.01 866.93 26.11 o 1.587965
-4 0 8 3337.46 3174.32 96.29 o 1.587816
4 1 4 2142.06 2021.16 61.72 o 1.584690
1 1 11 1266.40 1195.03 36.79 o 1.579590
3 2 4 537.99 503.45 16.78 o 1.578141
-3 2 6 1.17 1.08 0.04 o 1.576937
2 2 7 101.27 93.57 3.38 o 1.574311
0 3 1 1408.19 1276.72 59.12 o 1.570496
-4 1 7 25.45 24.49 1.11 o 1.564063
-2 0 12 2019.48 1935.65 79.71 o 1.563627
0 3 2 67.64 65.16 2.28 o 1.555390
2 1 10 2015.20 1940.25 62.46 o 1.553846
3 1 8 2260.69 2176.22 69.46 o 1.552798
-3 1 10 1482.00 1444.21 43.93 o 1.550735
1 0 12 2511.02 2453.95 68.23 o 1.545906
4 0 6 3270.79 3240.32 88.67 o 1.542816
1 3 0 47.16 46.48 1.31 o 1.542086
-1 3 1 2640.26 2606.65 72.72 o 1.540439
-1 1 12 252.09 247.59 6.46 o 1.540323
0 1 12 40.99 40.16 1.02 o 1.534610
1 3 1 1695.70 1658.98 43.47 o 1.534124
1 2 9 2789.03 2762.16 67.99 o 1.532026
0 3 3 1671.32 1652.47 41.41 o 1.531152
-1 3 2 19.84 19.78 0.49 o 1.529274
4 1 5 74.54 74.88 1.77 o 1.526933
3 2 5 3704.15 3668.06 86.39 o 1.524140
-3 2 7 2326.78 2289.47 53.97 o 1.522839
-2 2 9 856.85 844.02 19.87 o 1.520977
1 3 2 0.68 0.67 0.02 o 1.516991
-5 0 2 2258.78 2245.19 56.05 o 1.514392
-1 3 3 1365.39 1327.42 36.31 o 1.509198
-4 1 8 358.42 351.98 10.10 o 1.505167
0 2 10 273.54 274.35 7.82 o 1.502749
5 0 0 4131.59 4140.04 128.06 o 1.502669
-1 2 10 143.58 144.23 4.15 o 1.502185
0 3 4 32.95 34.13 0.99 o 1.499048
2 2 8 1231.07 1259.96 33.95 o 1.496505
1 3 3 1725.24 1736.09 41.52 o 1.491586
-5 0 4 1707.32 1728.08 39.79 o 1.490198
-2 1 12 222.13 223.35 4.65 o 1.484514
-1 3 4 44.72 44.81 0.93 o 1.481244
-4 2 1 226.18 226.46 4.71 o 1.477405
-4 2 2 18.68 18.79 0.40 o 1.475857
4 2 0 661.49 659.09 14.20 o 1.470496
1 1 12 1451.27 1456.75 30.60 o 1.469324
3 2 6 235.82 237.17 5.25 o 1.466930
3 1 9 11.62 11.64 0.25 o 1.466795
4 1 6 3166.58 3189.67 70.85 o 1.466669
-4 2 3 3404.04 3442.92 80.25 o 1.465933
-3 2 8 848.93 861.45 19.53 o 1.465576
-3 1 11 112.24 114.24 2.58 o 1.464863
0 3 5 680.86 700.23 16.80 o 1.460592
1 3 4 157.92 161.93 3.92 o 1.459152
5 0 2 3241.21 3328.63 81.05 o 1.457409
4 2 1 2834.88 2893.59 71.68 o 1.455481
-2 3 1 2615.15 2670.00 66.83 o 1.454291
2 1 11 1061.26 1081.96 25.74 o 1.453942
2 3 0 114.33 116.75 2.91 o 1.453003
3 0 10 1913.68 1950.48 47.10 o 1.450380
-3 0 12 6145.79 6204.55 150.76 o 1.448326
-4 2 4 354.18 359.07 8.96 o 1.448129
-2 3 2 0.85 0.85 0.02 o 1.447514
-4 0 10 1326.16 1336.38 32.84 o 1.446840
-1 3 5 2284.33 2301.48 57.32 o 1.446733
1 2 10 3.66 3.69 0.09 o 1.446519
-2 2 10 6.22 6.24 0.16 o 1.445010
-4 1 9 1337.45 1336.10 33.55 o 1.444443
2 3 1 126.73 126.40 3.32 o 1.443715
-5 1 2 1802.84 1786.61 47.97 o 1.442185
-5 1 1 1438.18 1427.76 39.00 o 1.441021
-5 1 3 53.05 52.07 1.58 o 1.435485
-5 0 6 2142.14 2093.39 62.93 o 1.434899
-1 1 13 225.14 221.69 6.20 o 1.434895
4 2 2 72.38 70.43 2.24 o 1.433089
-2 3 3 1077.50 1048.02 33.40 o 1.433005
5 1 0 1660.20 1595.81 52.32 o 1.432049
0 1 13 23.68 22.72 0.68 o 1.427738
2 3 2 4.68 4.50 0.14 o 1.426876
2 0 12 4985.02 4790.38 140.41 o 1.425024
-4 2 5 453.28 429.37 13.13 o 1.423290
2 2 9 3229.00 3053.80 92.19 o 1.421561
-5 1 4 1374.35 1281.58 39.98 o 1.421243
1 3 5 1092.90 1025.44 31.62 o 1.421113
-1 2 11 1802.10 1677.33 51.91 o 1.418744
0 3 6 20.49 19.24 0.61 o 1.417380
0 2 11 359.16 338.31 10.57 o 1.416742
5 1 1 215.30 202.07 6.57 o 1.415698
-2 3 4 19.03 17.38 0.59 o 1.411447
3 2 7 126.39 116.72 3.82 o 1.408286
-1 3 6 5.69 5.19 0.18 o 1.407120
-3 2 9 837.89 766.86 25.53 o 1.406918
4 1 7 1770.11 1615.12 54.18 o 1.405636
4 2 3 84.81 77.47 2.67 o 1.404337
2 3 3 4422.15 4058.80 140.45 o 1.403267
4 0 8 2054.33 1888.95 64.25 o 1.403190
-5 1 5 1526.87 1411.58 48.68 o 1.400119
-1 0 14 94.69 87.83 2.94 o 1.399701
5 1 2 289.78 276.78 9.60 o 1.392714
-4 2 6 253.66 242.93 8.26 o 1.392509
-2 1 13 632.65 608.01 19.20 o 1.391794
0 0 14 700.42 678.28 21.21 o 1.390712
5 0 4 4731.45 4648.23 156.18 o 1.386966
3 1 10 2395.08 2361.81 77.59 o 1.386576
-3 1 12 63.41 62.95 2.08 o 1.384781
-2 3 5 1275.85 1272.18 42.57 o 1.383790
-4 1 10 3202.90 3143.82 104.19 o 1.383482
1 3 6 22.58 22.63 0.73 o 1.378934
2 3 4 121.41 119.66 4.05 o 1.373899
-5 1 6 2009.83 1980.73 67.90 o 1.373031
-2 2 11 764.18 756.30 24.81 o 1.372524
1 1 13 262.88 260.81 8.29 o 1.372462
0 3 7 2299.75 2300.44 77.46 o 1.370941
4 2 4 384.41 387.84 13.25 o 1.370408
1 2 11 141.42 141.76 4.45 o 1.367105
2 1 12 296.84 288.21 8.34 o 1.364371
5 1 3 847.65 825.64 24.63 o 1.364068
-1 3 7 1234.68 1197.50 34.90 o 1.363850
-2 0 14 14.95 14.56 0.37 o 1.361798
-5 0 8 1946.65 1909.43 45.00 o 1.358102
-4 2 7 2181.07 2133.28 49.34 o 1.357002
-2 3 6 4.44 4.27 0.09 o 1.351143
2 2 10 698.75 675.00 14.90 o 1.350313
3 2 8 472.66 456.94 10.11 o 1.349625
-3 2 10 1.41 1.37 0.03 o 1.348270
4 1 8 1638.14 1595.11 35.59 o 1.345172
-1 1 14 1624.88 1585.13 35.91 o 1.342098
-1 2 12 819.08 795.60 18.38 o 1.341410
-5 1 7 138.01 132.46 3.19 o 1.341048
2 3 5 176.40 170.86 4.27 o 1.339910
0 2 12 673.36 657.58 16.71 o 1.337632
1 0 14 166.31 162.83 4.12 o 1.337392
-3 3 1 1551.82 1568.83 45.63 o 1.336716
0 1 14 1342.38 1358.82 38.18 o 1.334167
1 3 7 1578.63 1627.52 47.95 o 1.333993
3 3 0 300.55 310.13 9.62 o 1.333649
-3 3 2 43.01 44.39 1.38 o 1.333503
4 2 5 2500.34 2576.37 79.50 o 1.332539
5 1 4 2071.40 2131.86 68.92 o 1.330858
3 3 1 604.50 619.12 25.58 o 1.324432
-3 3 3 343.19 350.75 14.76 o 1.324147
-4 1 11 223.85 229.70 9.10 o 1.323483
0 3 8 37.95 38.39 1.65 o 1.322641
-1 3 8 4.80 4.64 0.27 o 1.318256
-4 2 8 299.56 287.62 17.62 o 1.317998
-2 3 7 826.15 779.07 47.75 o 1.314668
-4 0 12 711.88 660.99 38.38 o 1.313213
3 1 11 807.06 737.91 42.03 o 1.312225
-3 1 13 332.72 299.79 16.75 o 1.310564
3 3 2 4.02 3.62 0.20 o 1.309440
-3 3 4 2.74 2.44 0.14 o 1.309027
-2 1 14 2542.29 2294.52 122.82 o 1.308575
-5 1 8 848.20 756.92 40.89 o 1.305295
-2 2 12 314.73 277.08 14.81 o 1.304065
2 3 6 46.22 41.53 2.23 o 1.302457
5 0 6 3322.12 3000.89 159.48 o 1.301911
5 1 5 106.18 100.67 3.93 o 1.294205
1 2 12 279.77 267.16 9.93 o 1.293732
3 2 9 2393.62 2303.22 83.23 o 1.292005
4 2 6 548.86 531.75 19.35 o 1.291919
-3 2 11 1242.09 1217.69 43.19 o 1.290684
3 3 3 1686.62 1660.43 59.16 o 1.289256
3 0 12 545.27 538.15 18.89 o 1.288982
-3 3 5 2291.88 2259.72 80.01 o 1.288730
1 3 8 0.08 0.08 0.00 o 1.287510
-3 0 14 158.38 156.19 5.42 o 1.287278
1 1 14 2981.48 2926.44 101.07 o 1.286875
4 1 9 67.48 66.70 2.31 o 1.286243
2 1 13 11.02 10.93 0.37 o 1.283926
2 2 11 100.48 100.58 3.35 o 1.283195
-4 2 9 58.26 59.25 1.90 o 1.276651
-2 3 8 0.04 0.04 0.00 o 1.275486
-5 2 2 505.18 513.24 16.65 o 1.275091
-5 2 1 0.53 0.53 0.02 o 1.274287
0 3 9 1112.63 1133.45 35.03 o 1.273625
4 0 10 1501.28 1523.11 46.75 o 1.273333
-1 3 9 575.23 578.52 17.71 o 1.271491
-5 2 3 2227.81 2248.99 69.09 o 1.270453
-5 0 10 582.38 589.45 17.84 o 1.270253
-1 2 13 1177.45 1186.44 35.55 o 1.270045
5 2 0 745.66 755.85 22.97 o 1.268070
-5 1 9 555.10 558.87 16.88 o 1.266859
-4 1 12 31.37 31.11 0.96 o 1.265291
0 2 13 1850.52 1830.75 55.31 o 1.265073
3 3 4 133.12 130.90 4.11 o 1.264608
-3 3 6 40.10 39.56 1.26 o 1.263988
2 3 7 1545.57 1515.93 49.72 o 1.262635
-6 0 2 2649.85 2593.90 91.08 o 1.262467
-5 2 4 534.27 513.72 19.06 o 1.260548
-1 1 15 499.61 482.56 16.48 o 1.259941
5 2 1 2635.36 2424.02 107.45 o 1.256675
5 1 6 639.14 582.97 26.51 o 1.255173
2 0 14 1186.56 1066.81 49.79 o 1.253363
6 0 0 100.90 87.77 5.13 o 1.252224
-6 0 4 1660.77 1449.75 84.17 o 1.251742
0 1 15 312.67 272.67 13.97 o 1.251665
4 2 7 48.95 40.59 2.52 o 1.249622
-5 2 5 69.10 56.66 4.48 o 1.245740
3 1 12 911.84 780.38 57.66 o 1.243575
-3 1 14 1036.82 924.48 69.80 o 1.242044
5 2 2 554.64 506.76 40.87 o 1.240515
1 3 9 192.11 173.53 13.65 o 1.240504
-2 2 13 565.05 505.38 38.85 o 1.239866
3 3 5 35.38 32.21 2.40 o 1.236307
3 2 10 51.79 47.50 3.46 o 1.236173
-3 3 7 101.08 93.04 6.85 o 1.235612
-3 2 12 601.19 553.89 38.89 o 1.234900
-2 3 9 878.96 817.71 57.80 o 1.234617
-4 2 10 482.05 448.96 31.24 o 1.233979
-2 1 15 282.69 265.36 17.56 o 1.233711
4 1 10 514.45 471.41 27.88 o 1.229504
-5 1 10 933.10 790.70 44.61 o 1.226731
-5 2 6 175.26 147.74 8.46 o 1.226545
1 2 13 950.55 821.86 43.04 o 1.226140
-1 0 16 1576.86 1364.85 70.54 o 1.226073
0 3 10 5.95 5.13 0.26 o 1.224808
-1 3 10 6.39 5.51 0.28 o 1.224502
6 0 2 3136.04 2670.83 134.07 o 1.222480
-6 0 6 2328.11 1999.15 97.59 o 1.221585
2 3 8 51.01 44.13 2.09 o 1.221420
2 2 12 743.64 638.14 29.26 o 1.220360
5 2 3 0.15 0.13 0.01 o 1.220143
-6 1 2 1505.06 1287.74 61.01 o 1.219714
-6 1 1 751.88 653.16 28.98 o 1.217438
-6 1 3 12.87 11.15 0.49 o 1.217217
0 0 16 3373.04 3017.42 120.77 o 1.216873
5 1 7 603.40 542.31 21.54 o 1.214716
5 0 8 588.82 539.91 21.38 o 1.211587
2 1 14 420.61 383.99 14.96 o 1.211498
-4 3 1 3027.14 2835.05 116.76 o 1.210968
1 1 15 800.07 737.69 28.61 o 1.210822
6 1 0 1886.77 1772.32 72.71 o 1.210469
-4 3 2 23.29 21.97 0.91 o 1.210116
-6 1 4 1089.51 1021.73 42.25 o 1.210034
-4 1 13 538.30 510.24 20.35 o 1.209462
4 3 0 61.86 59.21 2.55 o 1.207155
4 2 8 304.43 291.96 12.38 o 1.206563
3 3 6 23.11 22.17 0.98 o 1.205180
-4 3 3 0.82 0.80 0.04 o 1.204627
-3 3 8 38.23 36.95 1.66 o 1.204429
-1 2 14 73.06 69.82 3.05 o 1.204343
-5 2 7 1307.89 1269.86 59.81 o 1.203585
-2 0 16 1560.14 1503.67 67.05 o 1.203373
6 1 1 0.35 0.33 0.03 o 1.199045
4 3 1 3.88 3.71 0.28 o 1.198807
0 2 14 302.07 281.51 17.79 o 1.198603
-6 1 5 514.72 486.99 37.29 o 1.198411
5 2 4 594.65 558.94 48.68 o 1.196202
-4 3 4 6.62 6.03 0.60 o 1.194689
1 3 10 37.29 34.53 3.23 o 1.193784
-2 3 10 0.22 0.20 0.02 o 1.192936
-4 0 14 339.09 297.19 28.52 o 1.192559
-4 2 11 987.18 872.27 80.74 o 1.190838
-1 1 16 111.47 108.04 5.99 o 1.186799
4 3 2 5.81 5.60 0.32 o 1.186202
-5 1 11 2.54 2.47 0.13 o 1.185766
6 1 2 1718.98 1694.35 75.83 o 1.183540
-6 1 6 552.62 551.35 23.25 o 1.182727
3 2 11 4.23 4.19 0.17 o 1.182617
0 4 0 127.77 127.65 5.19 o 1.181723
-3 2 13 576.77 570.89 21.65 o 1.181401
-4 3 5 1518.47 1498.57 56.07 o 1.180627
3 1 13 16.77 16.31 0.57 o 1.180321
-2 2 14 97.37 94.07 3.25 o 1.179943
-5 0 12 2719.00 2623.15 91.84 o 1.179788
2 3 9 161.48 155.86 5.41 o 1.179640
0 4 1 641.75 623.18 22.33 o 1.179552
-3 1 15 126.26 121.79 3.98 o 1.178911
0 1 16 14.41 14.02 0.46 o 1.178449
-1 3 11 771.84 753.37 23.63 o 1.178028
1 0 16 584.79 573.59 17.53 o 1.177820
-5 2 8 350.00 341.53 10.63 o 1.177537
6 0 4 263.93 259.09 7.95 o 1.177161
0 3 11 893.29 879.89 25.98 o 1.176881
-6 0 8 1880.39 1864.51 53.85 o 1.175962
4 1 11 595.80 592.12 16.51 o 1.175360
5 1 8 1271.38 1265.90 34.28 o 1.173647
0 4 2 1.63 1.62 0.04 o 1.173112
3 3 7 2648.96 2630.62 70.08 o 1.172021
-3 3 9 1626.20 1609.15 42.83 o 1.171232
4 3 3 2035.14 2003.68 53.69 o 1.169742
5 2 5 2498.27 2456.42 65.53 o 1.169376
1 4 0 676.83 664.55 18.08 o 1.167372
-1 4 1 308.94 303.62 8.32 o 1.166657
-2 1 16 0.43 0.42 0.01 o 1.166176
6 1 3 1102.67 1094.25 30.56 o 1.164434
1 2 14 19.84 19.60 0.54 o 1.163960
1 4 1 699.57 695.44 20.01 o 1.163907
4 2 9 1705.59 1694.67 47.31 o 1.163492
-6 1 7 85.27 84.75 2.41 o 1.163467
-4 3 6 27.33 26.97 0.78 o 1.162880
0 4 3 747.58 735.51 21.92 o 1.162607
-1 4 2 0.81 0.79 0.03 o 1.161784
2 2 13 1817.39 1791.24 51.87 o 1.161777
4 0 12 2113.88 2041.81 75.12 o 1.157222
1 4 2 16.04 15.40 0.67 o 1.156371
-4 1 14 1763.49 1706.36 66.53 o 1.156326
3 0 14 2093.06 2043.88 83.20 o 1.155102
-3 0 16 1654.69 1646.72 71.35 o 1.153687
-1 4 3 273.80 272.15 13.53 o 1.152908
-2 3 11 624.64 628.82 30.43 o 1.151165
4 3 4 0.06 0.06 0.00 o 1.149915
-5 2 9 63.38 64.17 3.20 o 1.149086
0 4 4 175.56 177.99 9.14 o 1.148364
1 3 11 2316.07 2327.70 114.77 o 1.147962
-4 2 12 165.10 165.75 8.25 o 1.147916
2 1 15 368.08 369.97 18.12 o 1.146096
1 4 3 47.37 47.52 2.55 o 1.145000
-5 1 12 928.34 925.98 47.54 o 1.144673
-1 2 15 210.85 208.95 10.75 o 1.143916
1 1 16 628.92 613.71 32.40 o 1.142875
6 1 4 1524.76 1470.63 83.03 o 1.142273
-4 3 7 313.24 304.19 17.21 o 1.141961
-6 1 8 518.19 501.56 29.11 o 1.141177
5 2 6 270.44 255.67 15.18 o 1.140345
-1 4 4 475.90 445.62 27.07 o 1.140301
2 3 10 27.53 25.87 1.61 o 1.137966
0 2 15 385.03 361.77 22.09 o 1.137712
3 3 8 0.84 0.78 0.05 o 1.137554
-3 3 10 10.91 10.17 0.66 o 1.136742
5 1 9 10.16 8.50 0.66 o 1.132628
-1 3 12 75.47 63.49 4.74 o 1.132622
3 2 12 166.58 132.06 9.85 o 1.131626
0 4 5 361.08 277.89 22.19 o 1.130799
-3 2 14 153.43 117.22 8.09 o 1.130472
0 3 12 161.87 122.96 8.60 o 1.130345
1 4 4 433.68 331.73 24.48 o 1.130130
-2 4 1 283.49 220.99 12.59 o 1.127867
4 3 5 26.31 21.16 1.05 o 1.127266
2 4 0 140.71 113.93 5.92 o 1.127266
-2 4 2 86.96 72.26 2.85 o 1.124697
-1 4 5 340.55 281.76 10.78 o 1.124331
-2 2 15 302.77 250.99 9.28 o 1.124179
4 1 12 1887.30 1563.03 57.28 o 1.124027
2 4 1 245.13 202.97 7.39 o 1.122912
5 0 10 3205.35 2665.99 93.09 o 1.122552
3 1 14 1473.21 1233.69 42.11 o 1.122085
6 0 6 2189.03 1830.14 62.46 o 1.121354
-1 1 17 278.71 232.54 7.83 o 1.121337
4 2 10 207.94 173.82 5.86 o 1.120993
-3 1 16 0.05 0.04 0.00 o 1.120787
-6 0 10 1098.67 916.89 30.62 o 1.119972
-5 2 10 1.80 1.50 0.06 o 1.118890
-4 3 8 52.50 43.95 1.44 o 1.118423
-2 4 3 781.85 658.46 21.62 o 1.117850
6 1 5 81.15 68.68 2.24 o 1.117629
2 0 16 1866.10 1605.10 50.85 o 1.116778
-6 1 9 384.92 333.19 10.72 o 1.116432
2 4 2 170.49 150.43 4.89 o 1.114934
-6 2 2 190.36 170.27 5.69 o 1.113557
0 1 17 5.36 4.86 0.15 o 1.113086
1 4 5 1155.24 1052.18 34.26 o 1.112178
-6 2 1 196.51 182.42 6.08 o 1.111825
-6 2 3 1453.36 1352.01 45.17 o 1.111656
0 4 6 1.79 1.72 0.06 o 1.110386
-2 3 12 104.03 100.58 3.01 o 1.109871
5 2 7 109.46 106.53 3.23 o 1.109751
-2 4 4 288.17 291.03 8.50 o 1.107526
2 2 14 198.91 199.48 5.58 o 1.107295
1 2 15 29.28 29.75 0.83 o 1.106779
6 2 0 14.32 14.68 0.43 o 1.106509
-6 2 4 86.19 88.97 2.54 o 1.106177
-4 1 15 181.91 185.94 5.15 o 1.106042
-4 2 13 56.86 58.45 1.63 o 1.105740
-1 4 6 34.12 35.59 0.99 o 1.105432
-2 1 17 45.38 46.70 1.29 o 1.105064
-5 1 13 177.78 186.38 5.13 o 1.104008
2 4 3 463.29 484.16 13.44 o 1.103561
1 3 12 51.72 54.20 1.48 o 1.103480
3 3 9 4.78 4.98 0.14 o 1.102408
4 3 6 6.66 6.94 0.19 o 1.102354
-3 3 11 260.19 270.97 7.50 o 1.101587
6 2 1 1234.86 1293.58 37.79 o 1.097763
-6 2 5 0.04 0.04 0.00 o 1.097276
2 3 11 782.28 820.31 23.74 o 1.096919
-2 4 5 83.79 88.13 3.12 o 1.094012
-4 3 9 956.98 1022.33 37.89 o 1.092823
-5 0 14 54.34 57.74 2.17 o 1.092237
5 1 10 844.86 906.79 33.73 o 1.092176
-5 3 2 27.95 29.24 1.26 o 1.091845
1 4 6 34.09 35.57 1.47 o 1.091608
-5 3 1 1068.53 1117.86 49.73 o 1.091339
6 1 6 331.18 344.64 14.35 o 1.091072
-1 0 18 67.35 70.24 2.78 o 1.090357
-6 1 10 449.22 458.26 20.41 o 1.089800
2 4 4 186.39 190.38 8.75 o 1.089105
-5 3 3 33.83 34.64 1.62 o 1.088928
-1 3 13 100.13 102.18 4.55 o 1.088671
-1 2 16 392.82 399.85 17.48 o 1.088342
0 4 7 251.07 252.45 11.74 o 1.087630
-5 2 11 1322.90 1319.14 60.81 o 1.087546
5 3 0 37.29 37.45 1.78 o 1.087427
2 1 16 666.18 648.54 29.50 o 1.086856
-4 0 16 1121.30 1079.98 50.22 o 1.086244
6 2 2 355.78 341.99 16.66 o 1.085827
0 3 13 325.50 312.14 14.73 o 1.085535
-6 2 6 417.99 398.08 19.49 o 1.085199
-1 4 7 242.61 227.60 11.27 o 1.084079
3 2 13 1151.06 1076.88 52.52 o 1.083339
-5 3 4 5.03 4.57 0.24 o 1.082672
-3 2 15 781.27 711.46 35.83 o 1.082249
-7 0 2 1872.89 1660.69 90.63 o 1.081959
0 2 16 365.67 331.21 16.67 o 1.081892
1 1 17 17.24 15.62 0.78 o 1.081860
0 0 18 418.76 379.27 18.97 o 1.081665
5 3 1 36.05 30.88 1.76 o 1.080215
4 2 11 2.31 2.01 0.11 o 1.079500
5 2 8 173.67 147.36 8.31 o 1.078172
-2 4 6 67.07 56.25 3.32 o 1.077664
-7 0 4 594.33 493.42 30.17 o 1.077353
-2 0 18 0.24 0.21 0.01 o 1.076461
4 3 7 1449.11 1218.70 70.86 o 1.075725
4 1 13 142.49 119.99 6.68 o 1.075584
7 0 0 1157.31 979.32 59.17 o 1.073335
-5 3 5 1445.06 1220.67 73.18 o 1.073246
-2 2 16 75.87 64.50 3.63 o 1.072372
2 4 5 395.99 344.46 19.91 o 1.071939
6 2 3 248.49 218.86 12.47 o 1.071017
-3 4 1 0.16 0.14 0.02 o 1.070301
-6 2 7 1628.82 1455.34 81.65 o 1.070264
5 3 2 20.40 18.26 1.02 o 1.069900
-2 3 13 1170.35 1049.74 56.26 o 1.069483
1 4 7 147.19 131.42 7.10 o 1.068902
3 4 0 230.97 208.86 11.40 o 1.068725
-3 4 2 8.11 7.34 0.41 o 1.068650
3 1 15 615.21 549.63 28.54 o 1.068465
-3 1 17 188.93 170.84 8.58 o 1.067270
3 3 10 16.65 15.18 0.77 o 1.067110
-3 3 12 0.96 0.89 0.04 o 1.066291
-4 3 10 9.63 8.91 0.45 o 1.065698
-4 2 14 41.11 38.56 1.87 o 1.064697
-5 1 14 256.10 240.50 11.67 o 1.064197
3 4 1 1456.25 1372.21 69.56 o 1.063964
-3 4 3 725.82 684.36 34.72 o 1.063817
6 1 7 488.61 461.77 22.48 o 1.063139
0 4 8 268.31 252.55 12.42 o 1.063035
-1 1 18 1137.40 1084.36 50.09 o 1.062457
-6 1 11 2.60 2.45 0.12 o 1.061814
-5 3 6 10.33 10.03 0.49 o 1.060898
-1 4 8 196.45 189.32 9.11 o 1.060755
1 3 13 82.95 78.34 3.67 o 1.060636
-7 0 6 1130.58 1082.11 52.52 o 1.060009
6 0 8 606.27 575.40 27.24 o 1.060003
-2 4 7 765.62 720.95 34.20 o 1.058882
-4 1 16 82.75 77.09 3.53 o 1.058651
-6 0 12 745.50 694.42 32.37 o 1.058544
2 3 12 95.89 86.46 3.84 o 1.056888
5 3 3 1309.36 1185.72 54.46 o 1.056748
2 2 15 20.10 18.06 0.79 o 1.056696
3 4 2 19.60 17.42 0.81 o 1.056145
-3 4 4 163.62 145.61 6.59 o 1.055929
-5 2 12 304.89 265.60 11.53 o 1.055580
4 0 14 922.75 802.00 33.64 o 1.055374
-7 1 2 78.94 68.32 3.03 o 1.054683
0 1 18 474.07 420.64 16.36 o 1.054410
1 2 16 145.95 130.19 5.04 o 1.054170
-7 1 3 101.83 89.55 3.75 o 1.054084
6 2 4 103.39 92.36 3.66 o 1.053697
-6 2 8 240.84 221.02 8.20 o 1.052837
5 1 11 703.56 656.62 23.26 o 1.052680
2 4 6 117.45 108.90 3.90 o 1.052471
7 0 2 1489.39 1378.74 50.15 o 1.052395
-7 1 1 443.71 410.83 14.89 o 1.052197
1 0 18 355.54 335.06 11.22 o 1.051930
-7 1 4 1030.71 957.06 32.00 o 1.050415
-2 1 18 832.01 779.14 24.68 o 1.049588
4 3 8 8.93 8.43 0.27 o 1.047888
7 1 0 1716.75 1628.56 51.92 o 1.046690
-1 3 14 14.03 13.28 0.42 o 1.046433
5 2 9 1070.63 1019.36 32.15 o 1.046112
-5 3 7 26.19 24.99 0.79 o 1.045936
3 4 3 1.90 1.82 0.06 o 1.045469
-3 4 5 274.50 263.13 8.38 o 1.045188
1 4 8 246.57 237.41 7.55 o 1.044537
-7 1 5 541.88 524.77 16.95 o 1.043771
3 0 16 286.73 275.98 8.78 o 1.043602
0 3 14 1.26 1.23 0.04 o 1.042661
-3 0 18 0.44 0.42 0.01 o 1.042418
5 3 4 10.51 10.63 0.36 o 1.041079
4 2 12 303.25 305.10 10.54 o 1.039324
5 0 12 117.29 114.80 4.19 o 1.038614
7 1 1 215.91 209.61 8.59 o 1.038303
-2 4 8 302.46 290.42 11.62 o 1.038086
3 2 14 333.98 321.63 12.31 o 1.037788
-4 3 11 318.66 305.02 12.53 o 1.037537
-1 2 17 396.92 381.46 14.99 o 1.037196
0 4 9 335.95 322.25 13.81 o 1.037082
-3 2 16 388.14 373.51 15.41 o 1.036761
-1 4 9 345.39 338.61 15.84 o 1.035928
-7 1 6 531.24 495.37 27.58 o 1.034320
6 1 8 1546.87 1444.49 77.01 o 1.034315
6 2 5 1180.18 1093.19 60.01 o 1.034260
-6 2 9 8.19 7.46 0.43 o 1.033311
2 1 17 6.63 6.16 0.33 o 1.033024
-6 1 12 172.61 156.91 9.01 o 1.032960
3 4 4 134.99 121.17 7.30 o 1.032196
3 3 11 1327.47 1201.73 70.17 o 1.032087
-3 4 6 4.62 4.13 0.25 o 1.031859
-7 0 8 144.44 128.61 7.91 o 1.031690
-3 3 13 424.45 378.06 22.83 o 1.031278
2 4 7 64.79 57.50 3.54 o 1.031122
0 2 17 959.51 853.47 51.14 o 1.030656
-2 3 14 26.08 23.27 1.42 o 1.030308
4 1 14 133.92 119.25 7.35 o 1.030013
-5 3 8 29.54 26.00 1.71 o 1.028705
7 1 2 105.15 89.10 6.54 o 1.027243
1 1 18 652.33 556.82 37.97 o 1.026811
-5 1 15 0.01 0.01 0.00 o 1.025546
-4 2 15 522.27 430.79 34.43 o 1.025057
-2 2 17 558.51 461.94 38.42 o 1.024278
-5 2 13 200.53 166.38 15.44 o 1.023437
5 3 5 75.84 60.36 6.22 o 1.023250
-7 1 7 0.25 0.20 0.03 o 1.022292
7 0 4 300.96 244.29 26.48 o 1.021208
1 3 14 14.66 12.10 1.17 o 1.019616
4 3 9 0.36 0.30 0.03 o 1.019301
3 1 16 341.60 286.53 26.39 o 1.019061
1 4 9 231.94 191.29 18.68 o 1.018963
2 3 13 55.43 46.82 4.12 o 1.018147
-3 1 18 558.74 472.84 40.20 o 1.017959
3 4 5 506.88 437.19 34.72 o 1.016633
-3 4 7 237.44 207.27 15.90 o 1.016246
-2 4 9 161.93 145.23 10.28 o 1.015693
5 1 12 735.82 662.28 40.91 o 1.014415
-4 1 17 139.22 123.94 7.46 o 1.014110
5 2 10 389.68 353.09 21.22 o 1.013990
7 1 3 316.94 285.72 17.36 o 1.013770
6 2 6 488.33 429.36 25.20 o 1.013107
-6 2 10 387.80 343.52 18.97 o 1.012087
-5 0 16 1164.39 1060.94 53.95 o 1.010600
0 4 10 0.26 0.24 0.02 o 1.010210
-1 4 10 48.04 44.17 2.22 o 1.010038
2 2 16 276.17 254.30 12.50 o 1.009728
-5 3 9 1131.23 1046.16 52.15 o 1.009573
-1 1 19 298.15 274.46 13.30 o 1.009251
-4 3 12 18.97 17.42 0.85 o 1.008779
2 4 8 62.79 57.89 2.82 o 1.008307
-7 1 8 1165.61 1068.75 51.85 o 1.007961
-1 3 15 713.43 649.00 28.82 o 1.006062
2 0 18 513.16 466.28 20.41 o 1.005985
1 2 17 549.55 506.87 21.85 o 1.005719
6 1 9 243.40 226.16 9.52 o 1.005026
-6 1 13 446.56 424.23 16.42 o 1.003659
5 3 6 0.49 0.46 0.02 o 1.003629
-4 4 1 146.97 141.78 5.40 o 1.002403
-4 4 2 167.49 160.40 6.01 o 1.001919
0 3 15 403.94 380.83 13.68 o 1.001833
0 1 19 128.15 120.23 4.25 o 1.001472
4 2 13 1272.38 1199.85 42.28 o 1.000670
4 4 0 226.35 217.10 7.83 o 1.000237
3 4 6 57.18 55.20 1.96 o 0.999112
-2 1 19 80.42 77.82 2.69 o 0.999067
-4 4 3 343.76 331.12 11.84 o 0.998797
-3 4 8 55.04 53.27 1.89 o 0.998684
7 1 4 1945.31 1873.70 66.38 o 0.998179
3 3 12 7.57 7.30 0.26 o 0.997670
6 0 10 1503.84 1454.34 51.33 o 0.997104
-3 3 14 24.84 24.03 0.84 o 0.996879
-6 0 14 742.95 716.81 25.55 o 0.995648
4 4 1 295.62 286.70 10.40 o 0.995472
-7 0 10 505.87 488.62 17.68 o 0.994967
3 2 15 95.62 91.83 3.28 o 0.994930
-3 2 17 137.88 132.48 4.81 o 0.993965
-4 0 18 66.45 63.74 2.31 o 0.993569
-4 4 4 194.27 189.57 7.17 o 0.993110
1 4 10 104.10 101.45 3.80 o 0.992591
-2 3 15 256.59 250.03 9.30 o 0.992555
-2 4 10 11.57 11.16 0.43 o 0.992103
-7 1 9 435.09 417.32 16.72 o 0.991634
-5 2 14 0.89 0.85 0.04 o 0.991481
6 2 7 173.48 166.03 7.03 o 0.990625
4 3 10 0.98 0.93 0.04 o 0.990361
-1 2 18 1.47 1.40 0.06 o 0.990074
-6 2 11 816.98 744.81 35.22 o 0.989554
-5 3 10 6.52 6.06 0.30 o 0.988909
-5 1 16 237.64 214.92 10.52 o 0.988266
4 4 2 193.70 182.35 9.95 o 0.988219
4 1 15 263.47 236.20 11.98 o 0.987236
-4 2 16 125.97 112.55 5.88 o 0.986992
-6 3 2 48.78 41.14 2.46 o 0.985222
-4 4 5 36.43 30.80 1.80 o 0.984989
2 4 9 1045.39 891.09 50.50 o 0.984415
-6 3 1 1588.12 1335.79 78.05 o 0.984022
2 1 18 382.52 321.68 17.96 o 0.983949
-6 3 3 6.99 5.87 0.35 o 0.983905
-7 2 2 364.01 303.32 17.87 o 0.983774
0 2 18 41.10 34.41 1.93 o 0.983552
-1 4 11 579.06 478.56 27.50 o 0.983478
-7 2 3 1081.30 884.26 52.39 o 0.983288
0 4 11 24.10 19.75 1.16 o 0.982811
5 3 7 1243.69 1017.38 59.30 o 0.982583
7 0 6 1764.15 1443.05 84.18 o 0.982476
5 2 11 316.45 259.24 14.96 o 0.982147
-7 2 1 100.37 83.34 4.89 o 0.981755
-1 0 20 508.92 417.87 23.92 o 0.981459
2 3 14 3.92 3.27 0.19 o 0.980877
7 1 5 144.62 120.45 6.97 o 0.980788
1 3 15 968.66 808.67 46.16 o 0.980518
6 3 0 0.18 0.15 0.01 o 0.980331
-7 2 4 188.80 157.55 9.17 o 0.980307
-6 3 4 6.70 5.59 0.33 o 0.980100
3 4 7 63.10 52.65 3.03 o 0.979975
-4 3 13 513.75 426.46 24.57 o 0.979796
-2 2 18 0.07 0.06 0.00 o 0.979635
-3 4 9 234.55 193.66 11.23 o 0.979513
4 4 3 0.46 0.39 0.02 o 0.978641
5 1 13 21.66 18.29 1.04 o 0.977567
7 2 0 155.15 129.33 7.79 o 0.977277
1 1 19 304.98 256.11 14.45 o 0.976923
6 1 10 124.09 104.42 6.39 o 0.975634
-7 2 5 75.18 66.41 4.41 o 0.974900
-4 4 6 49.03 43.48 2.89 o 0.974612
-6 1 14 598.68 531.32 34.28 o 0.974269
6 3 1 40.00 35.99 2.51 o 0.974233
-6 3 5 1038.01 929.77 66.70 o 0.973892
-7 1 10 633.17 565.93 39.87 o 0.973632
0 0 20 493.71 432.87 28.04 o 0.973498
3 1 17 1.37 1.21 0.08 o 0.973488
-2 0 20 963.95 855.35 58.26 o 0.972885
-3 1 19 172.05 151.99 10.85 o 0.972471
-4 1 18 361.25 315.88 23.43 o 0.972322
7 2 1 1158.25 1049.73 92.18 o 0.970440
-2 4 11 102.06 90.53 8.01 o 0.967685
-1 3 16 5.55 4.93 0.42 o 0.967630
-7 2 6 139.42 127.37 11.33 o 0.967186
6 2 8 70.25 63.02 5.52 o 0.967182
-5 3 11 0.99 0.89 0.08 o 0.967070
4 4 4 147.89 135.51 11.87 o 0.966942
4 0 16 615.87 545.98 46.48 o 0.966737
2 2 17 780.13 701.46 58.35 o 0.966126
-6 2 12 184.66 165.89 14.36 o 0.966074
6 3 2 36.64 32.86 2.95 o 0.965861
1 4 11 122.93 111.54 9.52 o 0.965780
-6 3 6 3.05 2.72 0.25 o 0.965419
3 3 13 1.17 1.05 0.09 o 0.964109
4 2 14 23.00 20.62 1.76 o 0.963662
-3 3 15 310.21 278.38 23.32 o 0.963340
0 3 16 59.33 54.04 4.41 o 0.963088
-4 4 7 520.60 475.17 39.98 o 0.962198
7 1 6 98.73 91.32 7.44 o 0.961918
5 0 14 1544.33 1416.66 110.09 o 0.961546
4 3 11 877.06 798.84 63.05 o 0.961400
7 2 2 109.05 99.81 8.16 o 0.961392
1 2 18 49.46 44.97 3.40 o 0.961038
-1 1 20 26.06 23.75 1.79 o 0.960964
5 3 8 9.73 8.92 0.68 o 0.960462
-5 2 15 517.47 483.38 35.41 o 0.960000
2 4 10 77.16 71.77 5.28 o 0.959805
3 4 8 151.93 141.46 10.36 o 0.959557
-3 4 10 2.72 2.59 0.18 o 0.959070
-7 2 7 681.34 638.63 44.46 o 0.957330
-1 4 12 73.77 68.13 4.70 o 0.956592
-2 3 16 33.62 30.65 2.10 o 0.956354
6 3 3 1176.21 1081.15 76.08 o 0.955393
0 4 12 92.65 84.96 5.88 o 0.955219
-6 3 7 10.64 9.74 0.69 o 0.954858
3 2 16 42.90 38.76 2.69 o 0.954675
-7 1 11 0.06 0.06 0.00 o 0.954275
-3 2 18 10.87 9.75 0.68 o 0.953769
0 1 20 92.54 82.24 5.73 o 0.953487
4 4 5 600.93 540.85 38.98 o 0.953359
-2 1 20 51.13 45.55 3.16 o 0.952911
-7 0 12 201.71 180.89 13.04 o 0.952649
-5 1 17 194.64 174.96 12.29 o 0.952489
-4 3 14 1.82 1.59 0.12 o 0.950899
5 2 12 73.32 63.71 4.68 o 0.950852
-4 2 17 161.87 138.85 10.20 o 0.950601
7 2 3 132.68 111.90 8.69 o 0.950320
1 0 20 895.15 763.98 55.60 o 0.950158
3 0 18 672.14 577.12 42.13 o 0.950016
-3 0 20 548.43 457.32 34.27 o 0.949018
-4 4 8 281.59 228.02 19.16 o 0.947991
4 1 16 855.23 694.33 56.08 o 0.947131
-1 2 19 37.91 30.54 2.51 o 0.946595
6 1 11 219.14 172.64 14.92 o 0.946434
-8 0 2 1990.13 1518.65 143.98 o 0.946399
-7 2 8 38.68 28.77 2.78 o 0.945530
2 3 15 694.28 527.13 47.90 o 0.945186
-6 1 15 38.78 29.06 2.68 o 0.945084
-8 0 4 154.48 116.48 11.53 o 0.944774
-5 3 12 43.56 33.17 3.13 o 0.944387
0 5 1 0.28 0.21 0.03 o 0.944266
1 3 16 2.07 1.58 0.15 o 0.943376
6 2 9 1150.57 895.39 84.10 o 0.943107
6 3 4 18.17 14.11 1.34 o 0.943038
-2 4 12 286.74 220.65 20.84 o 0.942767
-6 3 8 55.47 42.55 4.11 o 0.942421
5 1 14 263.83 206.02 19.05 o 0.942249
-6 2 13 3.99 3.08 0.29 o 0.941977
7 1 7 374.51 291.81 27.70 o 0.941886
0 5 2 522.22 417.94 40.18 o 0.940952
0 2 19 36.37 28.80 2.63 o 0.940168
8 0 0 31.16 25.36 2.48 o 0.939168
2 1 19 209.88 171.21 15.45 o 0.939072
7 0 8 72.66 59.66 5.58 o 0.938982
1 4 12 217.03 177.93 16.48 o 0.938840
3 4 9 234.84 194.02 18.20 o 0.938179
-2 2 19 299.25 249.67 22.32 o 0.938177
4 4 6 267.58 223.80 20.98 o 0.938147
1 5 0 9.15 7.68 0.75 o 0.937982
-3 4 11 199.30 170.63 15.68 o 0.937673
-1 5 1 162.23 138.57 13.26 o 0.937611
5 3 9 47.92 40.80 3.73 o 0.937589
7 2 4 49.32 41.77 3.92 o 0.937442
1 5 1 103.71 93.62 8.64 o 0.936182
-5 0 18 45.61 41.29 3.51 o 0.936121
0 5 3 14.39 13.18 1.19 o 0.935505
6 0 12 164.44 150.11 12.57 o 0.935460
-1 5 2 198.13 181.21 16.12 o 0.935076
2 4 11 2.69 2.41 0.21 o 0.934790
-8 0 6 908.43 817.18 70.12 o 0.934427
-6 0 16 202.50 182.89 14.47 o 0.934057
-7 1 12 641.68 583.32 45.94 o 0.933872
-4 1 19 13.27 12.27 0.87 o 0.933156
4 3 12 4.83 4.41 0.31 o 0.932692
-4 4 9 6.71 6.14 0.43 o 0.932251
1 5 2 113.78 104.85 7.40 o 0.932247
-7 2 9 59.73 54.93 3.67 o 0.932014
-5 4 2 111.76 101.08 6.83 o 0.931643
3 3 14 29.40 26.60 1.67 o 0.931582
1 1 20 177.49 158.88 9.81 o 0.931524
3 1 18 443.72 398.39 24.42 o 0.931391
-5 4 1 0.05 0.05 0.00 o 0.931329
-1 3 17 208.25 188.15 11.39 o 0.931154
-3 3 16 5.80 5.26 0.31 o 0.930839
-3 1 20 17.61 15.86 0.90 o 0.930451
-1 5 3 80.46 73.53 4.39 o 0.930430
-5 4 3 645.47 580.69 33.51 o 0.929829
-1 4 13 111.09 97.27 5.50 o 0.929669
-5 2 16 145.09 126.95 6.94 o 0.929216
6 3 5 62.11 54.40 3.01 o 0.929027
5 4 0 7.57 6.60 0.38 o 0.928894
4 2 15 5.72 5.09 0.27 o 0.928360
-6 3 9 313.58 277.76 14.73 o 0.928339
-8 1 3 63.18 55.55 2.99 o 0.928268
0 5 4 58.50 51.74 2.70 o 0.928036
-8 1 2 142.30 126.36 6.65 o 0.927982
0 4 13 532.34 472.15 23.79 o 0.927714
-8 1 4 954.28 854.57 41.43 o 0.926450
0 3 17 61.81 55.34 2.60 o 0.926413
1 5 3 14.20 12.79 0.62 o 0.926258
-5 4 4 41.12 36.83 1.75 o 0.925925
2 2 18 11.37 10.12 0.46 o 0.925625
-8 1 1 301.86 267.72 12.56 o 0.925598
5 4 1 733.13 638.45 28.53 o 0.924387
-1 5 4 83.93 73.79 3.17 o 0.923765
8 0 2 2452.59 2162.55 92.56 o 0.923671
7 2 5 591.72 522.87 21.60 o 0.922991
-8 1 5 208.40 185.80 7.59 o 0.922564
-4 3 15 94.70 84.98 3.34 o 0.922340
-2 3 17 249.68 224.17 8.62 o 0.921773
4 4 7 14.79 13.24 0.51 o 0.921568
8 1 0 511.61 459.12 18.11 o 0.921162
-5 3 13 459.42 413.19 15.88 o 0.921159
7 1 8 1203.11 1078.11 41.54 o 0.920987
5 2 13 614.44 553.85 21.00 o 0.920306
-5 4 5 3.58 3.22 0.13 o 0.920008
1 2 19 8.92 8.07 0.30 o 0.919768
6 2 10 190.32 174.33 6.70 o 0.918692
0 5 5 27.98 25.63 1.00 o 0.918692
1 5 4 5.97 5.48 0.22 o 0.918333
-5 1 18 492.79 452.79 17.31 o 0.918287
5 4 2 115.76 106.53 4.23 o 0.917898
6 1 12 1200.63 1096.43 42.83 o 0.917662
-2 4 13 177.44 161.81 6.35 o 0.917634
-6 2 14 166.10 151.62 5.95 o 0.917553
-2 5 1 64.10 59.59 2.41 o 0.917117
-7 2 10 3.23 3.01 0.13 o 0.917020
-1 1 21 11.86 10.82 0.43 o 0.916963
3 2 17 613.36 562.24 22.14 o 0.916900
2 5 0 26.91 25.01 1.02 o 0.916794
-8 1 6 49.67 46.06 1.88 o 0.916687
-6 1 16 67.78 63.01 2.53 o 0.916338
-8 0 8 557.92 515.13 21.12 o 0.916188
3 4 10 52.01 48.15 1.96 o 0.916134
-3 2 19 144.69 134.59 5.38 o 0.916050
-4 2 18 1.29 1.19 0.05 o 0.915926
-3 4 12 31.21 28.90 1.20 o 0.915616
-2 5 2 367.54 342.96 14.50 o 0.915411
-4 4 10 8.33 7.73 0.33 o 0.915240
-1 5 5 102.78 95.86 4.05 o 0.915213
8 1 1 51.14 47.39 2.06 o 0.914764
2 0 20 303.44 281.76 11.75 o 0.914559
2 5 1 2.63 2.42 0.11 o 0.914447
5 3 10 5.22 4.84 0.21 o 0.914253
6 3 6 16.89 15.54 0.70 o 0.913605
-4 0 20 774.64 713.69 31.64 o 0.913036
-6 3 10 7.36 6.84 0.32 o 0.912857
-7 1 13 157.89 146.55 6.82 o 0.912713
-5 4 6 91.60 86.25 4.28 o 0.912195
1 4 13 65.97 62.39 3.01 o 0.912028
-2 5 3 9.10 8.56 0.46 o 0.911708
2 3 16 2.22 2.12 0.11 o 0.911125
-2 1 21 21.35 20.09 1.04 o 0.910614
2 5 2 376.18 346.47 23.25 o 0.910123
0 1 21 28.80 27.33 1.53 o 0.909806
2 4 12 13.14 12.23 0.79 o 0.909642
4 1 17 20.22 18.85 1.15 o 0.909557
5 4 3 3.56 3.31 0.24 o 0.909552
-8 1 7 79.60 76.21 6.24 o 0.908934
1 5 5 37.09 35.67 3.07 o 0.908622
5 1 15 238.80 223.95 16.78 o 0.908517
1 3 17 21.18 19.64 1.58 o 0.908176
0 5 6 336.99 298.67 33.32 o 0.907644
-7 0 14 260.37 232.93 25.44 o 0.907324
7 2 6 78.91 68.29 8.21 o 0.907213
8 1 2 59.83 45.80 7.21 o 0.906525
-1 2 20 139.58 117.02 14.16 o 0.906413
-2 5 4 11.43 8.56 1.48 o 0.906080
-1 5 6 217.70 164.69 30.51 o 0.904933
4 3 13 128.88 97.53 16.88 o 0.904454
2 5 3 217.80 168.40 31.02 o 0.903905
4 4 8 43.49 34.62 6.02 o 0.903885
-1 4 14 41.95 31.45 5.24 o 0.902950
-5 4 7 187.64 141.00 24.38 o 0.902631
8 0 4 15.70 12.14 1.83 o 0.901095
-7 2 11 307.52 241.48 34.69 o 0.900793
0 4 14 2.53 1.99 0.28 o 0.900523
3 3 15 577.46 461.07 61.17 o 0.900209
0 2 20 48.61 39.34 5.11 o 0.900130
-2 2 20 65.00 53.86 6.64 o 0.899645
5 4 4 2.52 2.05 0.28 o 0.899504
-3 3 17 84.55 70.87 8.68 o 0.899494
7 1 9 68.15 56.08 7.04 o 0.899494
-8 1 8 590.40 483.20 61.46 o 0.899449
-5 2 17 78.33 64.32 7.78 o 0.899291
-2 5 5 7.30 6.04 0.74 o 0.898636
2 1 20 233.16 192.03 20.56 o 0.897907
-5 3 14 4.25 3.54 0.38 o 0.897651
1 5 6 178.95 148.93 15.70 o 0.897302
-4 4 11 317.21 261.36 27.00 o 0.897216
6 3 7 492.56 403.17 41.07 o 0.897016
-1 3 18 7.84 6.46 0.61 o 0.896607
8 1 3 225.19 184.78 18.16 o 0.896598
-4 1 20 5.84 4.81 0.45 o 0.896465
-6 3 11 17.49 14.36 1.34 o 0.896220
2 5 4 54.62 45.05 4.15 o 0.895910
0 5 7 101.27 85.70 7.06 o 0.895088
4 2 16 171.89 147.63 11.29 o 0.894777
-4 3 16 1.81 1.59 0.12 o 0.894316
6 2 11 108.88 95.04 6.95 o 0.894189
3 4 11 18.39 16.01 1.12 o 0.893685
7 0 10 1556.74 1359.75 95.50 o 0.893181
-3 4 13 53.78 46.97 3.30 o 0.893160
-1 5 7 17.93 15.64 1.11 o 0.893106
-6 2 15 265.41 232.09 16.34 o 0.893050
-2 4 14 0.56 0.49 0.03 o 0.892529
3 1 19 170.61 149.23 10.50 o 0.892440
-1 0 22 75.38 65.82 4.64 o 0.892199
-7 3 2 3.51 3.05 0.22 o 0.891920
5 0 16 152.68 132.99 9.46 o 0.891847
0 3 18 3.10 2.70 0.19 o 0.891755
-3 1 21 84.76 73.90 5.26 o 0.891570
-7 3 3 74.05 64.55 4.69 o 0.891557
-5 4 8 39.74 34.61 2.51 o 0.891486
-8 0 10 813.63 707.85 51.28 o 0.891408
-7 1 14 308.72 269.53 19.48 o 0.891057
5 3 11 887.74 773.68 56.34 o 0.890707
5 2 14 380.79 331.47 24.03 o 0.890657
-7 3 1 497.29 437.69 32.48 o 0.890415
7 2 7 303.79 266.63 19.59 o 0.890350
1 1 21 2.33 2.04 0.15 o 0.890053
4 0 18 732.12 642.56 47.22 o 0.889711
-2 5 6 165.72 145.77 11.00 o 0.889509
6 1 13 105.64 92.98 6.89 o 0.889502
loop_
_restr_equal_distance_atom_site_label_1
_restr_equal_distance_atom_site_label_2
_restr_equal_distance_class_class_id
_restr_equal_distance_class_target_weight_param
B1 N1 1 0.01
N1 B2 1 0.01
B2 N2 1 0.01
N2 B3 1 0.01
