#------------------------------------------------------------------------------
#$Date: 2017-02-04 04:15:47 +0200 (Sat, 04 Feb 2017) $
#$Revision: 191350 $
#$URL: file:///home/coder/svn-repositories/cod/cif/4/34/49/4344975.cif $
#------------------------------------------------------------------------------
#
# This file is available in the Crystallography Open Database (COD),
# http://www.crystallography.net/
#
# All data on this site have been placed in the public domain by the
# contributors.
#
data_4344975
loop_
_publ_author_name
'Evans, Hayden A.'
'Labram, John G.'
'Smock, Sara R.'
'Wu, Guang'
'Chabinyc, Michael L.'
'Seshadri, Ram'
'Wudl, Fred'
_publ_section_title
;
 Mono- and Mixed-Valence Tetrathiafulvalene Semiconductors (TTF)BiI4 and
 (TTF)4BiI6 with 1D and 0D Bismuth-Iodide Networks.
;
_journal_issue                   1
_journal_name_full               'Inorganic chemistry'
_journal_page_first              395
_journal_page_last               401
_journal_paper_doi               10.1021/acs.inorgchem.6b02287
_journal_volume                  56
_journal_year                    2017
_chemical_formula_sum            'C24 H16 Bi I6 S16'
_chemical_formula_weight         1787.71
_space_group_crystal_system      triclinic
_space_group_IT_number           2
_space_group_name_Hall           '-P 1'
_space_group_name_H-M_alt        'P -1'
_symmetry_space_group_name_Hall  '-P 1'
_symmetry_space_group_name_H-M   'P -1'
_atom_sites_solution_hydrogens   geom
_audit_creation_method           SHELXL-2014/7
_cell_angle_alpha                84.283(15)
_cell_angle_beta                 80.45(2)
_cell_angle_gamma                85.85(3)
_cell_formula_units_Z            1
_cell_length_a                   10.237(8)
_cell_length_b                   10.460(5)
_cell_length_c                   11.166(8)
_cell_measurement_reflns_used    695
_cell_measurement_temperature    296(2)
_cell_measurement_theta_max      25.2
_cell_measurement_theta_min      1.35
_cell_volume                     1171.3(14)
_computing_structure_refinement  'SHELXL-2014/7 (Sheldrick, 2014)'
_diffrn_ambient_temperature      296(2)
_diffrn_measured_fraction_theta_full 0.998
_diffrn_measured_fraction_theta_max 0.983
_diffrn_measurement_device_type  'Bruker Kappa Apex II'
_diffrn_measurement_method       'omega scan'
_diffrn_radiation_type           MoK\a
_diffrn_radiation_wavelength     0.71073
_diffrn_reflns_av_R_equivalents  0.0559
_diffrn_reflns_av_unetI/netI     0.0945
_diffrn_reflns_Laue_measured_fraction_full 0.998
_diffrn_reflns_Laue_measured_fraction_max 0.983
_diffrn_reflns_limit_h_max       12
_diffrn_reflns_limit_h_min       -11
_diffrn_reflns_limit_k_max       13
_diffrn_reflns_limit_k_min       -13
_diffrn_reflns_limit_l_max       13
_diffrn_reflns_limit_l_min       -14
_diffrn_reflns_number            10557
_diffrn_reflns_point_group_measured_fraction_full 0.998
_diffrn_reflns_point_group_measured_fraction_max 0.983
_diffrn_reflns_theta_full        25.242
_diffrn_reflns_theta_max         26.644
_diffrn_reflns_theta_min         1.857
_exptl_absorpt_coefficient_mu    8.449
_exptl_absorpt_correction_T_max  0.7454
_exptl_absorpt_correction_T_min  0.6450
_exptl_absorpt_correction_type   multi-scan
_exptl_absorpt_process_details   SADABS
_exptl_crystal_colour            red
_exptl_crystal_density_diffrn    2.534
_exptl_crystal_description       prism
_exptl_crystal_F_000             817
_exptl_crystal_size_max          0.1
_exptl_crystal_size_mid          0.1
_exptl_crystal_size_min          0.1
_refine_diff_density_max         2.396
_refine_diff_density_min         -1.126
_refine_diff_density_rms         0.279
_refine_ls_extinction_method     none
_refine_ls_goodness_of_fit_ref   1.019
_refine_ls_hydrogen_treatment    constr
_refine_ls_matrix_type           full
_refine_ls_number_parameters     214
_refine_ls_number_reflns         4839
_refine_ls_number_restraints     0
_refine_ls_restrained_S_all      1.019
_refine_ls_R_factor_all          0.1048
_refine_ls_R_factor_gt           0.0591
_refine_ls_shift/su_max          0.000
_refine_ls_shift/su_mean         0.000
_refine_ls_structure_factor_coef Fsqd
_refine_ls_weighting_details
'w=1/[\s^2^(Fo^2^)+(0.0728P)^2^] where P=(Fo^2^+2Fc^2^)/3'
_refine_ls_weighting_scheme      calc
_refine_ls_wR_factor_gt          0.1347
_refine_ls_wR_factor_ref         0.1547
_reflns_Friedel_coverage         0.000
_reflns_number_gt                3121
_reflns_number_total             4839
_reflns_threshold_expression     'I > 2\s(I)'
_cod_data_source_file            ic6b02287_si_003.cif
_cod_data_source_block           hae_135_0m
_cod_depositor_comments          'Adding full bibliography for 4344975.cif.'
_cod_original_cell_volume        1171.4(14)
_cod_database_code               4344975
_shelx_shelxl_version_number     2014/7
_shelx_space_group_comment
;
The symmetry employed for this shelxl refinement is uniquely defined
by the following loop, which should always be used as a source of
symmetry information in preference to the above space-group names.
They are only intended as comments.
;
_shelx_res_file
;

    hae_135_0m.res created by SHELXL-2014/7

TITL hae_135_01_a.res in P-1
CELL  0.71073  10.2373  10.4605  11.1662   84.283   80.452   85.853
ZERR    1.000   0.0083   0.0048   0.0084    0.015    0.022    0.027
LATT 1
SFAC C  S  I  Bi H
UNIT 24  16  6  1  16
L.S. 10
SHEL 100 0.75
ACTA
BOND $H
FMAP 2
PLAN 20
TEMP 23.000
WGHT    0.072800
FVAR       0.08697
MOLE 2
BI01  4    0.000000    0.500000    1.000000    10.50000    0.02819    0.04081 =
         0.02657   -0.00666   -0.00204   -0.00180
I002  3    0.028621    0.497076    0.716857    11.00000    0.04492    0.05177 =
         0.03108   -0.00652   -0.00066   -0.00249
I003  3    0.217423    0.271868    0.998415    11.00000    0.04193    0.06171 =
         0.04069   -0.00823   -0.00547    0.01074
I004  3    0.205406    0.709423    0.967456    11.00000    0.04526    0.07113 =
         0.04232   -0.00739    0.00137   -0.01957
S005  2    0.573267    0.670300    0.298686    11.00000    0.04452    0.05415 =
         0.04184   -0.00334    0.00235   -0.00866
S006  2    0.978362    0.836331    0.398296    11.00000    0.04537    0.04075 =
         0.05185   -0.00937   -0.00610    0.00050
S007  2    0.688548    0.649988    0.555469    11.00000    0.03683    0.05678 =
         0.05263   -0.01346   -0.00193   -0.00838
S008  2    0.412795    0.653571    0.687523    11.00000    0.04126    0.05528 =
         0.03867   -0.01197   -0.00047    0.00332
S009  2    0.298825    0.668773    0.432992    11.00000    0.03659    0.05591 =
         0.04718   -0.00306   -0.00491    0.00150
S00A  2    1.010200    1.108663    0.320854    11.00000    0.07305    0.04610 =
         0.05511    0.00685   -0.00872   -0.01249
S00B  2    0.652077   -0.000774    0.335170    11.00000    0.05114    0.05837 =
         0.11440   -0.00514    0.01398   -0.00124
S00C  2    0.356273    0.012542    0.370405    11.00000    0.04877    0.06303 =
         0.12702   -0.00049   -0.01814   -0.00049
C00D  1    0.986218    0.883812    0.247176    11.00000    0.04847    0.05173 =
         0.05598   -0.00400   -0.00735    0.00718
AFIX  43
H00D  5    0.981172    0.824244    0.191825    11.00000   -1.20000
AFIX   0
C00E  1    0.665535    0.648493    0.710067    11.00000    0.04406    0.05562 =
         0.06165   -0.02455   -0.01684    0.00423
AFIX  43
H00E  5    0.738096    0.647631    0.750477    11.00000   -1.20000
AFIX   0
C5    1    0.317169    0.684539    0.276561    11.00000    0.04061    0.06649 =
         0.04974   -0.00388   -0.01016    0.01013
AFIX  43
H5    5    0.244123    0.695023    0.236162    11.00000   -1.20000
AFIX   0
C4    1    0.442922    0.681016    0.214584    11.00000    0.03290    0.08105 =
         0.03903   -0.00222   -0.00025   -0.00292
AFIX  43
H4    5    0.459196    0.684210    0.129918    11.00000   -1.20000
AFIX   0
C3    1    0.466731    0.663753    0.439288    11.00000    0.04239    0.03128 =
         0.04433    0.00689    0.00690    0.00028
C2    1    0.518546    0.655613    0.548016    11.00000    0.03533    0.03492 =
         0.03841   -0.00896   -0.00088   -0.01063
C1    1    0.541052    0.648566    0.773812    11.00000    0.05322    0.05256 =
         0.04893   -0.01275   -0.01192    0.00283
AFIX  43
H1    5    0.524700    0.646102    0.858437    11.00000   -1.20000
AFIX   0
C7    1    0.443235    0.020060    0.217354    11.00000    0.07709    0.06963 =
         0.07268   -0.00992   -0.00724   -0.00299
AFIX  43
H7    5    0.399257    0.028030    0.150262    11.00000   -1.20000
AFIX   0
C6    1    0.577641    0.013374    0.205492    11.00000    0.09602    0.06766 =
         0.09314    0.00316    0.01278   -0.00072
AFIX  43
H6    5    0.629287    0.016354    0.128556    11.00000   -1.20000
AFIX   0
C8    1    0.995971    0.988772    0.440096    11.00000    0.03318    0.03196 =
         0.05189    0.00954    0.01324   -0.01467
C9    1    0.999596    1.006608    0.209782    11.00000    0.04967    0.07354 =
         0.05561    0.00069   -0.00425    0.00491
AFIX  43
H9    5    1.003155    1.036883    0.128187    11.00000   -1.20000
AFIX   0
C10   1    0.501090    0.004177    0.439921    11.00000    0.03268    0.04208 =
         0.12292   -0.01208    0.00831    0.00277
HKLF 4

REM  hae_135_01_a.res in P-1
REM R1 =  0.0591 for    3121 Fo > 4sig(Fo)  and  0.1048 for all    4839 data
REM    214 parameters refined using      0 restraints

END

WGHT      0.0713      0.0000

REM Highest difference peak  2.396,  deepest hole -1.126,  1-sigma level  0.279
Q1    1  -0.0042  0.3770  1.0013  11.00000  0.05    2.40
Q2    1   0.0159  0.3680  0.7164  11.00000  0.05    2.14
Q3    1   1.0006  1.1609  0.0053  11.00000  0.05    1.63
Q4    1  -0.0004  0.7575  1.0021  11.00000  0.05    1.62
Q5    1   0.2119  0.5225  0.9928  11.00000  0.05    1.59
Q6    1   0.7836  0.0659  0.0128  11.00000  0.05    1.56
Q7    1   0.2248  0.6133  0.9866  11.00000  0.05    1.49
Q8    1   0.7957 -0.0456  0.0221  11.00000  0.05    1.48
Q9    1   0.2059  0.8247  0.9996  11.00000  0.05    1.44
Q10   1   0.9852  0.7255  0.2960  11.00000  0.05    1.42
Q11   1   0.2111  0.3784  0.9908  11.00000  0.05    1.40
Q12   1   0.9779  1.2360  0.2648  11.00000  0.05    1.37
Q13   1   0.9911  1.0545  0.0018  11.00000  0.05    1.36
Q14   1   0.2120  0.1670  0.9804  11.00000  0.05    1.26
Q15   1   0.9960  0.7390  0.5597  11.00000  0.05    1.24
Q16   1   0.9706  1.1792  0.2795  11.00000  0.05    1.22
Q17   1   0.0273  0.6620  0.7247  11.00000  0.05    1.20
Q18   1   0.1866  0.4826  0.9649  11.00000  0.05    1.17
Q19   1   0.2086  0.2135  0.9611  11.00000  0.05    1.08
Q20   1   0.0223  0.6273  0.5579  11.00000  0.05    1.07
;
_shelx_res_checksum              40420
_shelx_hkl_file
;
  -1   0   0  149.83    6.04
  -1   0   0  140.41    6.13
   1   0   0  146.72    6.04
   1   0   0  150.43    6.15
  -2   0   0  102.21    4.37
  -2   0   0   97.35    4.57
   2   0   0  100.70    4.36
   2   0   0  102.23    4.62
  -3   0   0  266.45   10.99
   3   0   0  268.11   11.32
   3   0   0  257.07   10.97
  -4   0   0  535.74   21.50
   4   0   0  517.32   21.48
   4   0   0  511.01   21.16
   4   0   0  527.06   21.91
  -5   0   0  528.11   20.97
   5   0   0  500.93   20.92
   5   0   0  484.42   21.41
   5   0   0  511.34   20.52
   5   0   0  502.06   20.52
   6   0   0  115.55    5.37
   6   0   0  114.57    4.81
   6   0   0  113.08    5.95
   7   0   0    0.92    0.86
   7   0   0    0.90    1.29
   8   0   0    1.73    1.01
   8   0   0    2.53    1.69
   9   0   0   93.75    5.93
   9   0   0   90.87    4.81
  10   0   0   38.28    4.20
  11   0   0   -4.14    1.68
  12   0   0    3.47    2.41
  12  -1   0    0.22    2.21
  11  -1   0   -0.77    2.08
  10  -1   0    3.71    2.03
   9  -1   0    1.10    1.72
   8  -1   0    1.17    1.64
   8  -1   0    0.33    0.90
   7  -1   0   27.90    2.90
   7  -1   0   29.65    2.01
   6  -1   0    1.99    0.44
   6  -1   0   -0.16    1.25
   6  -1   0    1.17    0.70
  -6   1   0    2.33    0.73
   5  -1   0   16.78    0.97
   5  -1   0   15.78    1.95
   5  -1   0   13.61    1.29
  -5   1   0   14.46    1.24
   4  -1   0   77.77    3.26
   4  -1   0   71.07    3.40
   4  -1   0   81.28    4.13
  -4   1   0   73.25    3.41
   3  -1   0   17.75    1.03
   3  -1   0   14.76    1.08
   3  -1   0   17.26    1.74
  -3   1   0   18.64    1.07
  -3   1   0   17.68    1.09
   2  -1   0   31.08    1.49
   2  -1   0   28.74    2.03
   2  -1   0   30.95    1.42
  -2   1   0   28.10    1.41
  -2   1   0   30.27    1.50
  -2   1   0   32.50    2.02
   1  -1   0   86.58    3.88
   1  -1   0   82.87    3.65
  -1   1   0   81.63    3.65
  -1   1   0   92.24    3.89
   0  -1   0  167.83    6.82
   0  -1   0  168.65    6.78
   0   1   0  156.39    6.81
   0   1   0  166.59    6.78
  -1  -1   0  108.49    4.54
  -1  -1   0  110.00    4.68
   1   1   0  104.42    4.67
   1   1   0  106.24    4.52
  -2  -1   0   29.11    1.53
  -2  -1   0   30.39    1.79
   2   1   0   27.54    1.79
   2   1   0   31.36    1.51
  -3  -1   0   23.77    1.66
   3   1   0   22.09    1.65
   3   1   0   22.67    1.28
   3   1   0   23.87    1.73
   4   1   0  152.53    7.15
   4   1   0  155.37    6.45
   4   1   0  154.05    6.88
   5   1   0   81.79    3.98
   5   1   0   74.69    4.33
   5   1   0   75.77    3.40
   6   1   0    8.89    1.79
   6   1   0   13.45    1.52
   6   1   0   11.33    0.92
   7   1   0   24.69    1.35
   7   1   0   22.45    2.17
   7   1   0   23.12    2.76
   8   1   0    2.62    1.22
   8   1   0    0.82    1.60
   9   1   0   22.15    3.23
   9   1   0   23.20    2.40
  10   1   0   27.05    3.49
  11   1   0   -1.04    1.93
  12   1   0    0.17    2.31
  12  -2   0   20.56    3.92
  11  -2   0   13.96    3.04
  10  -2   0    2.01    2.04
   9  -2   0   -0.53    1.69
   8  -2   0   65.73    4.82
   7  -2   0   85.63    3.81
   7  -2   0   81.92    3.83
   7  -2   0   77.33    5.16
   6  -2   0  127.19    5.54
   6  -2   0  125.12    6.67
   6  -2   0  131.60    5.47
  -6   2   0  124.74    5.50
   5  -2   0    3.28    0.57
   5  -2   0    1.60    1.26
   5  -2   0    3.21    0.59
  -5   2   0    2.86    0.55
  -5   2   0    2.44    0.60
   4  -2   0    2.29    0.55
   4  -2   0    1.41    1.06
  -4   2   0    2.07    0.44
  -4   2   0    2.61    0.63
   3  -2   0  443.59   19.62
   3  -2   0  493.99   19.15
  -3   2   0  465.88   19.14
   2  -2   0  723.16   29.19
   2  -2   0  710.71   29.55
  -2   2   0  731.71   29.56
  -2   2   0  709.74   29.19
   1  -2   0  187.77    7.55
   1  -2   0  173.28    7.77
  -1   2   0  179.22    7.78
  -1   2   0  177.43    7.54
   0  -2   0    4.01    0.89
   0  -2   0    3.39    0.68
   0  -2   0    3.97    0.75
   0   2   0    4.20    0.70
   0   2   0    3.05    0.87
   0   2   0    3.60    0.78
  -1  -2   0   75.37    3.46
  -1  -2   0   76.73    3.63
   1   2   0   77.00    3.67
   1   2   0   73.47    3.46
   1   2   0   79.29    3.71
  -2  -2   0  582.32   23.87
  -2  -2   0  589.42   23.61
   2   2   0  581.83   23.54
   2   2   0  585.95   23.87
   2   2   0  555.40   23.58
  -3  -2   0  440.16   18.43
   3   2   0  451.23   18.54
   3   2   0  445.62   18.43
   3   2   0  464.01   18.83
  -4  -2   0    5.64    0.78
   4   2   0    5.75    0.75
   4   2   0    5.55    1.16
   5   2   0    1.57    0.93
   5   2   0    0.40    0.56
   6   2   0   40.18    3.14
   6   2   0   44.87    2.23
   6   2   0   41.77    2.91
   7   2   0   51.19    3.51
   7   2   0   53.61    3.89
   7   2   0   59.81    2.76
   8   2   0   39.22    3.11
   8   2   0   38.51    2.06
   8   2   0   42.68    3.90
   9   2   0   -1.93    1.45
   9   2   0   -0.73    1.16
  10   2   0    4.20    1.60
  10   2   0    1.00    2.00
  11   2   0    5.91    2.44
  12   2   0    3.31    2.46
  12  -3   0    2.50    2.55
  11  -3   0    4.47    2.48
  10  -3   0    1.44    2.15
   9  -3   0    0.11    1.77
   8  -3   0   25.95    3.32
   7  -3   0   21.37    2.83
   6  -3   0   40.68    3.36
  -6   3   0   38.77    2.19
   5  -3   0   40.45    3.01
  -5   3   0   39.20    2.20
   4  -3   0   35.51    2.83
  -4   3   0   37.49    2.07
   3  -3   0   91.33    4.32
   3  -3   0   82.98    4.67
  -3   3   0   90.58    3.96
  -3   3   0   95.85    4.17
   2  -3   0  339.02   14.72
   2  -3   0  354.32   15.23
   2  -3   0  353.89   15.10
  -2   3   0  359.51   14.72
  -2   3   0  366.48   14.62
   1  -3   0  670.54   25.73
   1  -3   0  613.20   26.03
   1  -3   0  664.62   25.83
  -1   3   0  572.08   25.76
  -1   3   0  631.05   25.79
   0  -3   0  131.17    5.44
   0  -3   0  135.13    5.95
   0  -3   0  130.80    5.95
   0   3   0  132.09    5.74
   0   3   0  122.85    5.83
  -1  -3   0  649.88   26.55
  -1  -3   0  632.52   26.38
   1   3   0  630.50   26.17
   1   3   0  646.13   26.38
   2   3   0  331.24   14.12
   2   3   0  347.26   13.86
   2   3   0  339.46   14.44
   3   3   0  201.88    8.40
   3   3   0  200.51    8.52
   3   3   0  193.76    8.92
   4   3   0   93.90    5.03
   4   3   0  102.60    4.54
   5   3   0   15.99    1.88
   5   3   0   12.07    1.21
   6   3   0   33.61    2.06
   6   3   0   33.93    2.81
   7   3   0  101.84    5.52
   7   3   0   98.04    5.82
   7   3   0  102.69    4.68
   8   3   0   55.56    4.53
   8   3   0   61.29    3.07
   8   3   0   63.84    4.19
   9   3   0   -2.78    1.58
   9   3   0    1.57    1.44
  10   3   0    0.15    1.83
  10   3   0    1.49    1.52
  11   3   0    8.79    2.81
  12   3   0    8.82    3.02
  11  -4   0    0.19    2.22
  10  -4   0    2.16    2.14
   9  -4   0   28.23    3.80
   8  -4   0    2.29    1.90
   7  -4   0   27.36    3.27
  -7   4   0   23.29    1.80
   6  -4   0   12.32    2.22
  -6   4   0   17.18    1.48
   5  -4   0  116.34    6.15
  -5   4   0  109.62    5.16
   4  -4   0   82.47    4.40
  -4   4   0   75.98    3.24
  -4   4   0   61.23    3.28
  -4   4   0   71.63    3.55
   3  -4   0   22.32    2.30
  -3   4   0   18.37    1.34
  -3   4   0   19.04    1.54
   2  -4   0    0.33    1.06
  -2   4   0   -0.48    0.63
  -2   4   0    1.02    0.75
   1  -4   0   90.96    4.20
  -1   4   0   93.36    4.44
  -1   4   0   93.98    4.43
   0  -4   0  257.84   10.74
   0  -4   0  262.22   11.40
   0   4   0  270.08   11.30
   0   4   0  255.95   11.11
  -1  -4   0  198.69    8.38
   1   4   0  173.77    8.24
   1   4   0  180.52    8.00
   2   4   0   13.70    1.67
   2   4   0   17.04    1.44
   3   4   0    8.55    0.86
   3   4   0    7.62    1.48
   3   4   0    8.19    1.09
   4   4   0   57.95    3.66
   4   4   0   60.57    2.99
   4   4   0   56.75    3.05
   5   4   0  144.80    6.47
   5   4   0  142.40    7.13
   6   4   0   48.04    3.48
   6   4   0   50.60    2.80
   7   4   0    3.90    0.94
   7   4   0    1.23    1.35
   8   4   0   15.98    2.40
   8   4   0   17.02    2.66
   8   4   0   17.98    1.62
   9   4   0    6.99    1.99
   9   4   0   12.19    2.79
  10   4   0    1.54    1.65
  10   4   0    1.90    2.03
  11   4   0   15.88    3.40
  11   4   0    6.62    2.14
  12   4   0   -2.55    2.27
  11  -5   0    1.73    2.53
  10  -5   0    3.29    2.45
   9  -5   0   19.99    3.29
   8  -5   0    2.98    2.10
   7  -5   0   15.14    2.73
  -7   5   0   15.31    1.57
   6  -5   0   -1.18    1.43
  -6   5   0   -0.13    0.86
   5  -5   0   81.14    5.00
  -5   5   0   76.82    4.01
   4  -5   0  185.00    8.92
  -4   5   0  190.73    7.91
  -4   5   0  174.47    7.85
  -4   5   0  184.23    8.16
   3  -5   0   21.84    2.39
  -3   5   0   19.77    1.63
  -3   5   0   23.97    1.90
   2  -5   0    6.06    1.46
  -2   5   0    7.70    1.14
  -2   5   0    6.86    1.16
   1  -5   0   97.63    4.19
   1  -5   0   89.34    4.89
  -1   5   0   82.35    4.43
  -1   5   0   90.44    4.52
   0  -5   0  266.41   11.12
   0  -5   0  266.97   11.93
   0   5   0  286.96   11.83
   0   5   0  258.88   11.59
  -1  -5   0  206.66    9.64
   1   5   0  212.60    9.57
   1   5   0  214.64    9.28
   2   5   0    8.83    1.60
   2   5   0    8.63    1.23
   3   5   0    0.38    0.76
   3   5   0    0.23    1.13
   4   5   0  110.75    5.45
   4   5   0  117.88    6.13
   4   5   0  118.38    5.15
   5   5   0  145.07    6.78
   5   5   0  151.79    7.56
   6   5   0   20.34    2.58
   6   5   0   22.51    1.91
   7   5   0    0.99    1.40
   7   5   0   -1.02    0.79
   8   5   0    1.55    0.94
   8   5   0    0.21    1.46
   9   5   0   24.37    3.16
   9   5   0   19.17    3.13
  10   5   0   19.77    3.06
  10   5   0   20.83    3.61
  11   5   0   -2.95    1.59
  11   5   0   -1.87    1.98
  10  -6   0    2.10    2.35
   9  -6   0    0.67    2.26
   8  -6   0    2.11    2.03
   7  -6   0   47.48    4.62
  -7   6   0   48.15    3.07
   6  -6   0   20.66    3.04
  -6   6   0   22.90    2.08
   5  -6   0    0.83    1.54
  -5   6   0    1.32    1.06
  -5   6   0    2.09    0.68
   4  -6   0   15.19    2.38
  -4   6   0   15.84    1.52
  -4   6   0   18.64    1.85
   3  -6   0  116.89    6.18
  -3   6   0  109.37    5.33
  -3   6   0  111.83    5.53
   2  -6   0  118.49    6.10
  -2   6   0  116.02    5.50
  -2   6   0  104.82    5.48
   1  -6   0   17.32    1.40
   1  -6   0   17.04    2.25
  -1   6   0   16.76    1.83
  -1   6   0   16.74    1.87
   0  -6   0  219.24    9.97
   0  -6   0  207.56    8.93
   0   6   0  220.97    9.61
   0   6   0  214.79    9.77
  -1  -6   0    1.30    1.41
   1   6   0    1.03    0.99
   1   6   0    0.03    1.08
   2   6   0  143.38    6.93
   2   6   0  130.54    6.42
   3   6   0  163.88    8.10
   3   6   0  163.84    7.53
   4   6   0   29.21    1.61
   4   6   0   28.27    2.24
   4   6   0   32.50    3.18
   5   6   0   23.98    2.06
   5   6   0   20.99    2.71
   6   6   0   24.96    2.21
   6   6   0   29.86    3.27
   7   6   0   19.84    2.76
   7   6   0   16.90    1.88
   8   6   0   13.71    1.72
   8   6   0   11.46    2.49
   9   6   0   13.13    2.68
  10   6   0    0.10    1.89
  10   6   0    5.24    2.59
  11   6   0   -0.58    2.38
  11   6   0   -1.43    1.70
  10  -7   0    4.76    2.73
   9  -7   0    1.40    2.09
   8  -7   0   -0.02    2.08
   7  -7   0   44.25    4.63
  -7   7   0   40.72    3.32
   6  -7   0   12.14    2.67
  -6   7   0    9.43    1.66
   5  -7   0   -1.32    1.51
  -5   7   0    0.96    1.18
   4  -7   0    1.71    1.68
  -4   7   0    0.86    0.90
  -4   7   0   -0.45    1.14
   3  -7   0   22.33    2.88
  -3   7   0   23.59    2.28
  -3   7   0   22.28    2.05
   2  -7   0  122.61    6.64
  -2   7   0  126.72    6.05
  -2   7   0  113.14    5.93
   1  -7   0   33.69    3.31
  -1   7   0   43.16    2.98
  -1   7   0   38.05    2.83
   0  -7   0   -0.93    1.29
   0  -7   0    0.47    0.55
   0  -7   0    0.96    0.52
   0   7   0    0.55    1.13
   0   7   0   -0.38    1.05
  -1  -7   0    0.38    1.37
   1   7   0    2.29    1.31
   1   7   0   -0.07    1.05
   2   7   0   76.66    4.65
   2   7   0   73.98    4.24
   3   7   0  122.76    6.76
   3   7   0  126.95    6.21
   4   7   0   15.27    2.40
   4   7   0   17.70    1.90
   5   7   0    3.50    1.21
   5   7   0    0.77    1.47
   6   7   0    3.05    1.23
   6   7   0    2.70    1.79
   7   7   0   57.07    3.67
   7   7   0   62.37    4.79
   8   7   0    7.76    1.57
   8   7   0    9.41    2.50
   9   7   0   -2.50    1.57
  10   7   0    1.06    2.09
  11   7   0   -0.75    2.31
  11   7   0   -1.57    2.03
   9  -8   0    2.29    2.32
   8  -8   0    2.30    2.46
   7  -8   0    0.21    2.15
   6  -8   0   19.99    3.03
  -6   8   0   24.11    2.49
   5  -8   0   24.88    3.47
  -5   8   0   27.99    2.65
   4  -8   0   18.44    2.88
  -4   8   0   17.94    2.14
  -4   8   0   16.08    2.64
   3  -8   0   33.17    3.61
  -3   8   0   30.81    2.78
  -3   8   0   27.43    2.50
   2  -8   0   26.11    3.16
  -2   8   0   30.47    2.71
  -2   8   0   29.41    2.57
   1  -8   0   49.12    3.94
  -1   8   0   44.77    3.30
  -1   8   0   46.02    3.37
   0  -8   0   59.02    4.43
   0   8   0   66.10    4.09
   0   8   0   61.09    3.93
  -1  -8   0   37.34    3.68
   1   8   0   42.44    3.11
   1   8   0   33.11    3.11
   2   8   0   49.20    3.74
   2   8   0   41.21    3.26
   3   8   0   44.62    3.25
   3   8   0   43.28    3.80
   4   8   0   19.02    2.21
   4   8   0   15.06    2.51
   5   8   0   19.60    2.94
   5   8   0   16.86    2.12
   6   8   0   25.78    2.52
   6   8   0   21.72    3.25
   7   8   0   12.69    1.96
   7   8   0   15.89    2.87
   8   8   0    6.05    1.65
   8   8   0    5.89    2.44
   9   8   0    0.75    1.93
  10   8   0    3.43    2.40
   8  -9   0    4.21    2.68
   7  -9   0    2.33    2.35
   6  -9   0    2.41    2.23
  -6   9   0   -2.56    1.28
   5  -9   0   18.80    3.21
  -5   9   0   31.67    2.92
   4  -9   0   26.10    3.62
  -4   9   0   29.73    2.91
   3  -9   0    5.89    2.26
  -3   9   0    5.31    1.68
  -3   9   0    4.51    1.42
   2  -9   0    0.74    1.84
  -2   9   0    0.72    1.29
  -2   9   0   -0.02    1.38
   1  -9   0   26.10    3.18
  -1   9   0   26.84    2.85
  -1   9   0   26.45    2.64
   0  -9   0   18.51    2.99
   0   9   0   23.84    2.51
   0   9   0   21.63    2.65
   1   9   0  105.71    6.45
   1   9   0  121.50    6.24
   2   9   0    5.46    1.93
   2   9   0    4.40    1.55
   3   9   0    1.25    1.74
   3   9   0    2.84    1.55
   4   9   0   25.89    2.77
   4   9   0   25.78    3.39
   5   9   0   39.62    3.31
   5   9   0   40.28    4.36
   6   9   0   10.30    2.56
   6   9   0   11.42    2.03
   7   9   0    1.14    1.44
   7   9   0    1.00    1.95
   8   9   0   -0.39    2.11
   8   9   0   -1.82    1.26
   9   9   0    2.95    2.39
   7 -10   0    2.31    2.55
   6 -10   0    2.82    2.48
  -6  10   0    6.00    1.99
   5 -10   0    6.35    2.53
  -5  10   0    2.23    1.80
   4 -10   0    5.01    2.49
  -4  10   0    5.21    1.84
   3 -10   0   16.47    3.09
  -3  10   0   19.72    2.64
   2 -10   0    6.60    2.38
  -2  10   0    7.10    1.82
  -2  10   0    5.65    1.88
   1 -10   0   18.18    3.14
  -1  10   0   15.14    2.41
  -1  10   0   15.67    2.43
   0 -10   0   15.43    2.97
   0  10   0   20.17    2.89
   0  10   0   20.92    2.72
  -1 -10   0   26.90    3.43
   1  10   0   29.62    3.39
   1  10   0   27.36    2.99
   2  10   0   10.27    2.38
   2  10   0    9.67    2.03
   3  10   0    5.71    2.24
   3  10   0    7.14    1.96
   4  10   0   13.98    2.39
   4  10   0   20.57    3.29
   5  10   0   21.78    3.32
   5  10   0   23.93    2.86
   6  10   0    7.96    1.98
   6  10   0   11.93    2.78
   7  10   0    1.77    1.44
   7  10   0   -0.60    2.14
   8  10   0    6.40    1.85
   8  10   0    6.69    2.73
   6 -11   0    4.74    2.78
  -6  11   0    3.33    1.96
   5 -11   0   -3.10    2.11
  -5  11   0    1.19    1.80
   4 -11   0    2.82    2.54
  -4  11   0    1.29    1.74
   3 -11   0    3.61    2.39
  -3  11   0    7.11    2.10
   2 -11   0   14.11    3.00
  -2  11   0   22.53    2.90
   1 -11   0    9.87    2.79
  -1  11   0   11.94    2.41
  -1  11   0   13.37    2.43
   0 -11   0    0.68    2.05
   0  11   0   -0.57    1.70
   0  11   0   -1.47    1.56
   1  11   0    3.76    1.84
   1  11   0    2.90    1.97
   2  11   0   11.63    2.52
   2  11   0    8.44    2.13
   3  11   0   10.96    2.34
   3  11   0   12.00    2.79
   4  11   0    8.49    2.61
   4  11   0    3.65    1.87
   5  11   0   -1.48    1.50
   5  11   0   -0.05    1.82
   6  11   0   -0.95    2.12
   6  11   0   -1.45    1.52
   7  11   0    0.77    1.71
   7  11   0    5.85    2.80
   4 -12   0    0.32    2.39
  -4  12   0    2.39    1.96
   3 -12   0    7.03    2.85
  -3  12   0   11.27    2.46
   2 -12   0   10.17    2.91
  -2  12   0    7.31    2.34
   1 -12   0    3.66    2.57
  -1  12   0    4.11    2.34
  -1  12   0    5.45    2.19
   0 -12   0   12.57    3.08
   0  12   0   13.97    2.70
   0  12   0   11.66    2.73
   1  12   0   -1.85    1.78
   1  12   0    2.88    2.10
   2  12   0   13.83    2.65
   2  12   0    7.18    2.60
   3  12   0   14.38    2.65
   3  12   0   21.82    3.59
   4  12   0    1.01    2.34
   4  12   0    3.65    2.01
   5  12   0    4.71    2.61
   5  12   0    0.31    1.74
   0  13   0    9.27    2.70
   0  13   0    9.58    2.57
   1  13   0    6.50    2.42
   1  13   0    7.21    2.62
   2  13   0    1.31    2.24
   5  12  -1    0.99    2.22
   5  12  -1    2.95    2.03
   4  12  -1    0.67    2.19
   4  12  -1   -1.35    1.80
   3  12  -1    1.02    2.06
   3  12  -1   -3.05    1.72
   2  12  -1    1.29    2.00
   2  12  -1    1.86    2.21
   1  12  -1    1.16    2.04
   1  12  -1    2.29    2.01
   0  12  -1    1.73    1.93
   0  12  -1    1.67    2.10
   0 -12   1   -0.16    2.26
  -1  12  -1    1.43    1.94
  -1  12  -1    0.78    2.00
   1 -12   1    6.02    2.56
  -2  12  -1    8.27    2.37
   2 -12   1    6.18    2.68
  -3  12  -1    3.64    2.05
   3 -12   1    7.49    2.86
  -4  12  -1   -0.63    1.78
   4 -12   1    1.52    2.46
   7  11  -1    1.24    2.48
   7  11  -1   -0.74    1.50
   6  11  -1    1.20    2.33
   6  11  -1    1.14    1.73
   5  11  -1    1.87    2.13
   5  11  -1    4.14    1.87
   4  11  -1    0.66    2.05
   4  11  -1   -0.17    1.61
   3  11  -1    7.96    2.21
   3  11  -1    6.69    2.53
   2  11  -1    3.84    2.00
   2  11  -1    5.15    2.31
   1  11  -1    2.31    1.92
   1  11  -1    1.78    1.86
   0  11  -1   -2.29    1.45
   0  11  -1   -1.37    1.66
   0 -11   1   -2.30    1.76
  -1  11  -1    2.33    1.81
  -1  11  -1    5.28    1.98
   1 -11   1    7.38    2.54
  -2  11  -1   12.38    2.46
  -2  11  -1   11.87    2.34
   2 -11   1   12.27    2.90
  -3  11  -1    5.21    1.97
   3 -11   1    7.00    2.56
  -4  11  -1   -0.29    1.70
   4 -11   1    1.11    2.34
  -5  11  -1   -0.74    1.65
   5 -11   1    2.49    2.47
   6 -11   1    7.31    2.80
   8  10  -1    3.09    1.78
   8  10  -1    1.81    2.13
   7  10  -1    1.02    2.16
   7  10  -1    2.57    1.62
   6  10  -1    3.89    2.38
   6  10  -1    0.65    1.58
   5  10  -1    3.32    2.25
   5  10  -1    1.46    1.62
   4  10  -1   -0.39    1.90
   4  10  -1   -0.46    1.52
   3  10  -1    1.24    1.83
   3  10  -1    0.89    1.58
   2  10  -1    0.78    1.69
   2  10  -1    1.08    1.56
   1  10  -1    5.05    1.86
   1  10  -1    2.55    1.73
   0  10  -1    9.88    2.11
   0  10  -1    9.00    2.07
   0 -10   1   13.28    2.80
  -1  10  -1    4.75    1.79
  -1  10  -1    8.88    2.05
   1 -10   1    1.92    2.02
  -2  10  -1    4.91    1.90
  -2  10  -1    4.67    1.67
   2 -10   1    5.97    2.28
  -3  10  -1    6.93    1.92
   3 -10   1    7.11    2.58
  -4  10  -1   22.21    2.75
   4 -10   1   17.32    3.35
  -5  10  -1    2.79    1.74
   5 -10   1    6.62    2.63
  -6  10  -1    5.56    1.87
   6 -10   1   -2.81    2.01
   7 -10   1    9.70    3.24
   9   9  -1   -0.07    2.29
   8   9  -1    2.48    1.49
   8   9  -1   -2.33    1.91
   7   9  -1    7.23    1.79
   7   9  -1    6.91    2.47
   6   9  -1    5.86    2.41
   6   9  -1    4.77    1.64
   5   9  -1    7.48    2.47
   5   9  -1    7.51    1.74
   4   9  -1   -0.10    1.61
   4   9  -1   -0.80    1.27
   3   9  -1    2.82    1.40
   3   9  -1   -0.53    1.54
   2   9  -1    4.11    1.59
   2   9  -1    3.27    1.72
   1   9  -1   10.07    1.92
   1   9  -1    9.55    2.13
  -1  -9   1    7.59    2.28
   0   9  -1   40.39    3.57
   0   9  -1   45.77    3.71
   0  -9   1   45.71    4.44
  -1   9  -1    3.09    1.62
  -1   9  -1    7.29    1.85
   1  -9   1    7.27    2.24
  -2   9  -1    2.20    1.53
  -2   9  -1    4.19    1.60
   2  -9   1    1.68    1.89
  -3   9  -1    3.19    1.58
  -3   9  -1    1.10    1.33
   3  -9   1    0.26    1.84
  -4   9  -1   58.80    4.06
   4  -9   1   60.12    4.99
  -5   9  -1   16.43    2.27
   5  -9   1   15.09    3.05
  -6   9  -1    2.19    1.49
   6  -9   1    2.79    2.26
   7  -9   1    5.64    2.51
   8  -9   1    7.03    2.81
  10   8  -1    0.73    2.21
   9   8  -1   -0.17    2.01
   8   8  -1   -0.67    1.90
   8   8  -1   -1.68    1.06
   7   8  -1   -0.35    1.13
   7   8  -1    2.92    2.05
   6   8  -1   -0.18    1.69
   6   8  -1    1.03    1.21
   5   8  -1   -0.29    1.12
   5   8  -1   -0.36    1.57
   4   8  -1   -0.84    1.49
   4   8  -1    1.73    1.18
   3   8  -1    0.50    1.53
   3   8  -1   -1.07    1.03
   2   8  -1    0.57    1.48
   2   8  -1   -1.23    1.04
   1   8  -1    2.17    1.29
   1   8  -1    2.74    1.51
  -1  -8   1   -0.14    1.50
   0   8  -1    5.06    1.50
   0   8  -1    2.36    1.48
   0  -8   1    1.60    1.69
  -1   8  -1    7.00    1.67
  -1   8  -1    6.34    1.63
   1  -8   1    5.68    1.89
  -2   8  -1    0.76    1.35
  -2   8  -1    4.15    1.47
   2  -8   1    2.61    1.85
  -3   8  -1    1.42    1.20
  -3   8  -1    2.61    1.35
   3  -8   1   -0.60    1.64
  -4   8  -1   14.54    1.99
  -4   8  -1   17.58    2.01
   4  -8   1   16.83    2.81
  -5   8  -1   12.00    1.92
   5  -8   1   13.08    2.71
  -6   8  -1    6.36    1.60
   6  -8   1    1.99    2.05
   7  -8   1    5.24    2.29
   8  -8   1   -1.01    2.09
   9  -8   1    5.37    2.75
  10   7  -1    4.59    2.59
  10   7  -1    6.44    2.47
   9   7  -1   -1.28    1.72
   8   7  -1   10.58    2.60
   8   7  -1    8.60    1.66
   7   7  -1   23.36    3.29
   7   7  -1   28.06    2.57
   6   7  -1    0.26    1.67
   6   7  -1   -1.04    0.97
   5   7  -1   10.06    1.63
   5   7  -1   12.10    2.35
   4   7  -1    3.41    1.20
   4   7  -1    5.29    1.70
   3   7  -1   40.32    3.67
   3   7  -1   31.46    2.72
   2   7  -1   58.52    3.63
   2   7  -1   61.00    4.15
   1   7  -1    1.70    1.10
   1   7  -1    3.19    1.41
  -1  -7   1    2.15    1.44
   0   7  -1    0.77    1.20
   0   7  -1    0.36    1.08
   0  -7   1    0.86    1.44
   0  -7   1    1.98    0.56
  -1   7  -1   28.00    2.55
  -1   7  -1   25.99    2.31
   1  -7   1   20.43    1.88
   1  -7   1   24.54    2.79
  -2   7  -1  118.29    6.11
  -2   7  -1  131.52    6.15
   2  -7   1  113.00    6.56
  -3   7  -1   85.53    4.40
  -3   7  -1   71.84    4.13
   3  -7   1   64.08    4.69
  -4   7  -1    0.42    0.95
  -4   7  -1    1.64    1.23
   4  -7   1    2.54    1.69
  -5   7  -1   11.92    1.68
   5  -7   1    5.33    1.99
  -6   7  -1   63.32    3.81
   6  -7   1   63.10    4.94
   7  -7   1   34.08    4.18
   8  -7   1   19.57    3.41
   9  -7   1   -0.96    2.16
  10  -7   1    3.21    2.46
  11   6  -1   -0.81    1.95
  11   6  -1    2.46    2.39
  10   6  -1    5.57    2.18
  10   6  -1    0.07    2.21
   9   6  -1    1.42    1.84
   8   6  -1   -0.45    1.00
   8   6  -1   -1.14    1.49
   7   6  -1    1.33    1.10
   7   6  -1    3.29    1.84
   6   6  -1   19.38    2.76
   6   6  -1   18.39    1.97
   5   6  -1    7.74    1.11
   5   6  -1    5.66    1.81
   5   6  -1    6.24    1.32
   4   6  -1    1.69    1.47
   4   6  -1    1.75    0.58
   4   6  -1    0.89    0.98
   4   6  -1    1.20    0.61
   3   6  -1    2.47    1.07
   3   6  -1    2.84    1.41
   2   6  -1   11.39    1.50
   2   6  -1   12.24    1.99
   1   6  -1    2.74    1.06
   1   6  -1    2.80    1.29
  -1  -6   1    0.84    1.29
   0   6  -1   15.62    1.60
   0   6  -1   11.30    1.71
   0  -6   1   13.71    1.06
   0  -6   1   13.69    1.96
  -1   6  -1    5.28    1.28
  -1   6  -1    5.30    1.23
   1  -6   1    6.80    0.93
   1  -6   1    7.67    1.69
  -2   6  -1   73.80    3.96
  -2   6  -1   68.58    3.92
   2  -6   1   70.80    4.41
  -3   6  -1   59.93    3.52
  -3   6  -1   56.71    3.37
   3  -6   1   65.13    4.12
  -4   6  -1    0.45    0.99
  -4   6  -1    1.11    0.84
   4  -6   1    0.68    1.38
  -5   6  -1   17.30    1.78
  -5   6  -1   14.92    1.49
   5  -6   1   17.11    2.69
  -6   6  -1   25.15    2.12
   6  -6   1   22.28    3.18
  -7   6  -1   42.27    2.84
   7  -6   1   42.53    4.38
   8  -6   1   43.12    4.67
   9  -6   1    2.58    2.28
  10  -6   1    3.15    2.35
  11   5  -1    1.43    1.98
  11   5  -1    0.92    2.27
  10   5  -1   14.08    3.21
  10   5  -1   13.95    2.79
   9   5  -1   11.24    2.44
   9   5  -1    6.14    2.32
   8   5  -1    1.27    1.53
   8   5  -1    0.66    0.99
   7   5  -1   22.06    2.88
   7   5  -1   19.80    2.00
   6   5  -1    3.60    1.12
   6   5  -1    2.58    1.49
   5   5  -1   38.33    3.21
   5   5  -1   35.96    2.55
   4   5  -1   21.78    1.91
   4   5  -1   22.00    2.43
   4   5  -1   19.30    1.47
   3   5  -1   22.95    2.44
   3   5  -1   20.74    1.30
   3   5  -1   18.71    1.77
   3   5  -1   22.38    1.25
   2   5  -1   16.98    2.06
   2   5  -1   20.50    1.85
   1   5  -1   33.37    2.36
   1   5  -1   35.02    2.63
  -1  -5   1   32.29    2.58
   0   5  -1  112.50    5.31
   0   5  -1  115.53    5.55
   0  -5   1  109.88    5.58
   0  -5   1  107.37    4.77
  -1   5  -1   10.22    1.33
  -1   5  -1    8.44    1.35
   1  -5   1   12.50    1.16
   1  -5   1   12.31    1.84
  -2   5  -1    3.50    1.00
   2  -5   1    3.75    1.27
  -3   5  -1   16.90    1.64
   3  -5   1   17.86    2.24
  -4   5  -1   46.50    2.74
   4  -5   1   42.25    3.28
  -5   5  -1   76.10    3.94
  -5   5  -1   76.78    3.88
   5  -5   1   76.65    4.85
  -6   5  -1   12.70    1.43
   6  -5   1   11.43    2.24
  -7   5  -1    1.02    0.85
   7  -5   1    2.18    1.74
   8  -5   1   26.19    3.43
   9  -5   1   35.44    4.34
  10  -5   1    5.42    2.66
  11  -5   1    1.58    2.40
  12   4  -1   -4.40    2.25
  11   4  -1    1.12    2.34
  11   4  -1    1.97    1.79
  10   4  -1   13.21    2.58
  10   4  -1   11.65    2.93
   9   4  -1    1.40    1.58
   9   4  -1   -0.40    1.95
   8   4  -1    3.20    1.60
   8   4  -1    1.06    1.80
   8   4  -1    4.10    1.12
   7   4  -1   10.41    2.03
   7   4  -1    9.99    1.36
   6   4  -1    4.71    1.06
   6   4  -1    5.85    1.59
   5   4  -1   38.37    2.43
   5   4  -1   36.96    3.00
   4   4  -1    6.96    1.09
   4   4  -1    6.23    1.43
   3   4  -1    1.82    1.13
   3   4  -1    0.69    0.73
   2   4  -1    5.94    1.29
   2   4  -1    8.15    0.72
   2   4  -1    7.71    1.10
   1   4  -1   49.77    3.10
   1   4  -1   54.28    2.89
  -1  -4   1   51.98    3.14
   0   4  -1  274.94   10.68
   0   4  -1  254.59   11.07
   0   4  -1  261.55   11.23
   0  -4   1  257.01   11.26
   0  -4   1  246.32   10.68
  -1   4  -1   86.45    4.34
   1  -4   1   94.86    4.71
   1  -4   1   93.46    4.20
  -2   4  -1    1.52    0.81
   2  -4   1    0.56    1.09
  -3   4  -1    5.02    0.94
   3  -4   1    4.66    1.33
  -4   4  -1  238.19    9.95
  -4   4  -1  235.00    9.96
   4  -4   1  222.30   10.62
  -5   4  -1  180.92    7.85
   5  -4   1  180.10    8.78
  -6   4  -1   24.63    1.67
  -6   4  -1   23.76    1.75
   6  -4   1   22.34    2.75
  -7   4  -1   12.42    1.24
   7  -4   1   11.77    2.27
   8  -4   1    8.05    2.27
   9  -4   1   47.03    4.67
  10  -4   1   36.78    4.46
  11  -4   1    1.47    2.44
  12   3  -1   13.50    3.49
  11   3  -1    1.38    2.29
  10   3  -1    1.47    1.50
  10   3  -1    1.86    2.07
   9   3  -1   19.15    3.06
   9   3  -1   16.32    2.38
   8   3  -1    1.81    0.87
   8   3  -1    0.92    1.68
   8   3  -1    0.58    1.40
   7   3  -1    7.44    1.09
   7   3  -1    4.91    1.69
   7   3  -1    5.61    1.56
   6   3  -1    9.51    1.65
   6   3  -1    9.84    1.16
   5   3  -1   70.34    3.51
   5   3  -1   70.83    4.12
   4   3  -1   85.24    4.50
   4   3  -1   80.42    3.96
   3   3  -1   83.37    4.36
   3   3  -1   81.00    3.93
   2   3  -1   20.15    1.85
   2   3  -1   13.78    1.20
   2   3  -1   18.30    1.50
   1   3  -1   39.72    2.54
   1   3  -1   41.94    1.90
   1   3  -1   38.41    2.30
   0   3  -1    1.79    0.76
   0   3  -1    1.04    0.93
   0   3  -1    2.52    0.60
   0  -3   1    1.69    0.92
   0  -3   1    1.89    0.55
  -1   3  -1    3.65    0.81
  -1   3  -1    2.11    0.80
   1  -3   1    2.25    0.75
   1  -3   1    1.97    0.99
  -2   3  -1   68.16    3.28
   2  -3   1   65.41    3.64
   2  -3   1   69.52    3.46
  -3   3  -1   56.95    2.80
  -3   3  -1   51.98    2.74
   3  -3   1   56.65    2.73
   3  -3   1   52.89    3.31
  -4   3  -1   52.39    2.64
   4  -3   1   52.53    2.62
   4  -3   1   52.30    3.38
  -5   3  -1    3.01    0.68
   5  -3   1    2.58    0.65
  -6   3  -1   64.41    3.08
  -6   3  -1   66.32    3.14
   6  -3   1   63.44    4.25
   6  -3   1   64.68    3.09
  -7   3  -1   83.11    3.77
   7  -3   1   84.48    5.27
   8  -3   1    7.85    2.19
   9  -3   1   22.23    3.25
  10  -3   1   21.89    3.44
  11  -3   1   16.35    3.26
  12  -3   1   -1.09    2.09
  12   2  -1   14.42    3.46
  11   2  -1    9.11    2.88
  10   2  -1    0.06    1.36
  10   2  -1   -2.01    1.68
   9   2  -1    5.43    1.54
   9   2  -1    3.76    2.02
   8   2  -1    7.94    2.10
   8   2  -1    7.31    1.03
   8   2  -1    8.74    1.69
   7   2  -1   80.93    4.52
   7   2  -1   76.64    4.92
   7   2  -1   76.84    3.75
   6   2  -1    0.95    1.42
   6   2  -1    2.52    0.75
   6   2  -1    0.91    1.04
   5   2  -1   49.98    2.58
   5   2  -1   45.27    3.15
   5   2  -1   50.17    3.13
   4   2  -1   22.46    1.63
   4   2  -1   26.42    2.08
   3   2  -1  131.93    6.09
   3   2  -1  129.88    5.73
   2   2  -1  230.49    9.89
   2   2  -1  227.82    9.62
  -2  -2   1  229.06    9.63
   1   2  -1    0.98    0.52
   1   2  -1    3.01    0.75
   1   2  -1    2.56    0.91
  -1  -2   1    2.28    0.70
   0   2  -1   93.64    4.35
   0   2  -1   96.55    4.26
   0   2  -1   95.73    4.09
   0  -2   1   89.43    4.21
   0  -2   1  100.93    4.11
   0  -2   1   93.98    4.33
  -1   2  -1   14.99    1.34
  -1   2  -1   15.22    1.22
  -1   2  -1   12.11    1.32
   1  -2   1   15.20    1.23
   1  -2   1   15.42    1.38
   1  -2   1   12.82    1.15
  -2   2  -1  315.86   13.99
  -2   2  -1  343.08   14.14
  -2   2  -1  353.21   13.91
  -2   2  -1  328.12   13.80
   2  -2   1  330.08   14.12
   2  -2   1  342.94   13.81
   2  -2   1  334.74   14.02
  -3   2  -1  176.66    7.48
  -3   2  -1  186.98    7.38
   3  -2   1  169.57    7.86
   3  -2   1  167.11    7.35
  -4   2  -1   23.03    1.32
  -4   2  -1   24.51    1.49
   4  -2   1   24.05    2.23
   4  -2   1   21.23    1.53
   4  -2   1   20.50    1.29
  -5   2  -1   19.39    1.19
  -5   2  -1   19.76    1.40
   5  -2   1   18.89    1.18
   5  -2   1   21.88    1.50
   5  -2   1   17.04    2.08
  -6   2  -1   29.38    1.92
   6  -2   1   31.51    3.04
   6  -2   1   33.00    1.61
   6  -2   1   34.72    2.02
   7  -2   1  272.30   11.34
   7  -2   1  255.13   12.38
   8  -2   1   18.54    2.69
   8  -2   1   24.25    1.84
   9  -2   1    1.51    1.84
  10  -2   1    2.15    2.01
  11  -2   1   13.39    3.19
  12  -2   1   19.75    3.57
  12   1  -1   -0.42    2.03
  11   1  -1    0.84    2.03
  10   1  -1   -0.68    1.83
   9   1  -1    6.77    1.52
   9   1  -1    7.48    2.22
   8   1  -1    0.72    1.57
   8   1  -1    0.00    1.05
   8   1  -1    1.71    0.69
   7   1  -1    9.09    1.42
   7   1  -1   10.92    1.06
   7   1  -1   12.33    2.21
   6   1  -1    1.81    0.92
   6   1  -1    1.19    1.26
   6   1  -1    2.12    0.63
   5   1  -1   12.57    1.40
   5   1  -1   11.98    1.04
   5   1  -1   10.97    1.77
   4   1  -1   22.81    2.16
   4   1  -1   23.68    1.83
   4   1  -1   25.26    1.54
   3   1  -1    3.04    0.88
   2   1  -1    4.53    0.70
   2   1  -1    4.16    0.88
   1   1  -1   67.85    3.06
   1   1  -1   66.75    3.05
   0   1  -1   80.16    3.41
   0   1  -1   79.18    3.40
   0   1  -1   75.47    3.37
   0  -1   1   76.11    3.38
   0  -1   1   77.36    3.39
   0  -1   1   77.18    3.40
  -1   1  -1   67.14    2.95
  -1   1  -1   70.01    3.12
  -1   1  -1   65.99    3.06
   1  -1   1   62.62    2.94
   1  -1   1   71.88    3.14
  -2   1  -1  106.13    4.84
  -2   1  -1  102.27    4.80
  -2   1  -1  112.39    4.48
  -2   1  -1  105.88    4.66
   2  -1   1  104.54    4.86
   2  -1   1  107.93    4.85
   2  -1   1  108.08    4.46
   2  -1   1  102.01    4.65
  -3   1  -1  162.29    7.11
  -3   1  -1  163.11    6.87
  -3   1  -1  166.73    7.40
   3  -1   1  164.33    7.46
   3  -1   1  174.49    6.87
   3  -1   1  171.66    7.14
  -4   1  -1   58.95    2.82
   4  -1   1   54.07    3.30
   4  -1   1   55.46    2.40
  -5   1  -1   96.47    4.36
   5  -1   1   88.64    4.93
   7  -1   1   41.11    3.45
   8  -1   1   36.43    2.67
   9  -1   1   29.95    3.60
  10  -1   1   13.16    2.92
  11  -1   1   16.71    3.16
  12  -1   1   19.03    3.71
  12   0  -1    4.49    2.51
  11   0  -1   -3.81    1.94
  10   0  -1   -0.08    1.86
   9   0  -1   19.79    2.96
   8   0  -1    8.91    1.38
   8   0  -1   10.17    1.17
   8   0  -1   10.85    2.24
   7   0  -1   60.90    4.25
   7   0  -1   61.25    2.94
   7   0  -1   61.28    2.92
   7   0  -1   61.81    3.37
   6   0  -1   66.30    3.40
   6   0  -1   63.06    3.03
   6   0  -1   67.62    4.13
   5   0  -1   96.56    4.58
   5   0  -1   98.64    4.35
   5   0  -1  101.13    5.23
   4   0  -1  101.07    4.69
   4   0  -1  108.36    5.22
   3   0  -1  380.32   15.96
   3   0  -1  378.28   15.63
   2   0  -1  235.85   10.08
   2   0  -1  241.09    9.87
  -2   0   1  236.85   10.08
   1   0  -1  126.88    5.40
  -1   0   1  127.15    5.41
   0   0  -1   57.26    2.50
   0   0   1   54.06    2.50
   0   0   1   57.22    2.53
  -1   0  -1  221.06    9.19
  -1   0  -1  231.77    9.27
  -1   0  -1  228.38    9.28
   1   0   1  228.71    9.27
   1   0   1  206.39    9.18
  -2   0  -1   63.40    2.96
  -2   0  -1   69.06    3.08
   2   0   1   63.90    3.06
   2   0   1   54.68    2.92
  -3   0  -1   29.59    2.09
  -3   0  -1   33.86    1.90
  -3   0  -1   29.98    2.22
   3   0   1   30.91    1.92
   3   0   1   32.90    2.18
   3   0   1   26.99    2.51
  -4   0  -1  104.28    4.62
   4   0   1   94.45    4.92
   4   0   1   98.18    4.62
   5   0   1  461.63   18.82
   5   0   1  420.68   18.34
   6   0   1   39.34    3.04
   6   0   1   38.37    2.50
   7   0   1   11.05    1.46
   7   0   1    7.91    1.97
   8   0   1   38.02    3.67
   8   0   1   37.85    2.70
   9   0   1   59.39    4.66
   9   0   1   64.71    3.82
  10   0   1   59.58    4.97
  11   0   1    5.07    2.45
  12   0   1    0.20    2.18
  12  -1  -1    6.08    2.86
  11  -1  -1   -1.34    2.14
  10  -1  -1    0.33    1.90
   9  -1  -1   -0.40    1.73
   8  -1  -1    1.31    0.83
   8  -1  -1    4.74    1.95
   7  -1  -1   -0.52    0.65
   7  -1  -1   -0.53    1.30
   7  -1  -1    1.05    0.56
   6  -1  -1    2.17    1.38
   6  -1  -1    2.51    0.70
   6  -1  -1    2.04    0.59
   5  -1  -1    7.27    1.57
   5  -1  -1    7.09    0.77
   5  -1  -1    4.79    0.73
   4  -1  -1   14.16    1.08
   4  -1  -1   17.79    1.20
   4  -1  -1   17.71    1.88
   3  -1  -1   -0.22    0.96
   3  -1  -1    0.79    0.56
   3  -1  -1    0.65    0.38
   2  -1  -1    1.66    0.61
   2  -1  -1    0.76    0.87
  -2   1   1    2.00    0.90
  -2   1   1    1.05    0.61
   1  -1  -1   47.66    2.14
   1  -1  -1   48.35    2.46
   1  -1  -1   49.16    2.30
  -1   1   1   47.10    2.45
  -1   1   1   51.24    2.15
  -1   1   1   50.25    2.31
   0  -1  -1   97.93    4.28
   0  -1  -1  101.45    4.25
   0  -1  -1   95.30    4.26
   0  -1  -1  101.47    4.27
   0   1   1   98.78    4.27
   0   1   1   99.27    4.27
   0   1   1  103.24    4.29
  -1  -1  -1   83.75    3.55
  -1  -1  -1   79.04    3.47
  -1  -1  -1   87.23    3.68
   1   1   1   79.88    3.47
   1   1   1   72.19    3.61
   1   1   1   85.43    3.56
  -2  -1  -1   22.76    1.54
  -2  -1  -1   23.29    1.23
  -2  -1  -1   23.90    1.63
   2   1   1   22.14    1.65
   2   1   1   24.58    1.59
   2   1   1   23.08    1.22
  -3  -1  -1   43.07    2.43
  -3  -1  -1   44.57    1.96
  -3  -1  -1   45.26    2.44
   3   1   1   40.64    2.43
   3   1   1   44.70    2.50
   3   1   1   39.57    1.91
   4   1   1   39.96    2.47
   4   1   1   43.06    2.74
   4   1   1   40.10    1.82
   5   1   1  242.36   10.45
   5   1   1  235.97   10.71
   6   1   1   85.78    4.41
   6   1   1   82.59    4.77
   7   1   1    3.53    1.56
   7   1   1    2.34    1.13
   8   1   1   57.00    3.61
   8   1   1   59.38    4.31
   9   1   1   43.44    3.23
   9   1   1   47.50    4.44
  10   1   1   20.11    3.27
  10   1   1   27.06    2.69
  11   1   1   10.77    2.85
  12   1   1    4.84    2.58
  12  -2  -1    3.26    2.72
  11  -2  -1    0.64    1.99
  10  -2  -1    0.77    2.07
   9  -2  -1   24.36    3.42
   8  -2  -1    1.51    1.66
   7  -2  -1   53.15    4.10
   6  -2  -1    3.33    0.70
   6  -2  -1    4.35    1.63
   5  -2  -1   69.93    4.22
   5  -2  -1   70.51    3.31
   4  -2  -1   74.29    3.35
   4  -2  -1   72.56    4.08
  -4   2   1   68.00    3.35
   3  -2  -1   55.93    2.60
   3  -2  -1   48.45    3.10
  -3   2   1   51.45    2.61
   2  -2  -1  188.80    8.29
   2  -2  -1  189.66    7.94
  -2   2   1  185.06    7.95
   1  -2  -1    2.31    0.54
   1  -2  -1    3.98    1.00
   1  -2  -1    2.57    0.67
  -1   2   1    2.70    0.91
  -1   2   1    3.61    0.59
  -1   2   1    1.98    0.72
   0  -2  -1   83.99    3.97
   0  -2  -1   88.65    3.94
   0  -2  -1   96.26    4.03
   0  -2  -1   86.64    4.15
   0   2   1   92.04    4.03
   0   2   1   89.59    3.99
   0   2   1   88.28    4.14
  -1  -2  -1    3.42    0.70
  -1  -2  -1    3.67    0.63
  -1  -2  -1    2.25    0.79
   1   2   1    3.56    0.68
   1   2   1    3.93    1.02
   1   2   1    1.62    0.78
   1   2   1    3.71    0.66
  -2  -2  -1  253.25   10.45
  -2  -2  -1  250.58   10.42
  -2  -2  -1  252.07   10.72
   2   2   1  259.64   10.46
   2   2   1  245.56   10.42
   2   2   1  247.61   10.72
  -3  -2  -1  237.45    9.94
  -3  -2  -1  235.39    9.76
   3   2   1  226.18   10.14
   3   2   1  240.46    9.96
   3   2   1  233.58    9.75
  -4  -2  -1   51.55    2.49
   4   2   1   52.50    2.46
   4   2   1   50.76    3.01
  -5  -2  -1    1.11    0.54
   5   2   1    1.04    0.50
   5   2   1    0.72    1.00
   6   2   1   32.46    2.48
   6   2   1   30.68    1.67
   6   2   1   37.58    3.21
   7   2   1  184.66    7.71
   7   2   1  187.68    9.16
   7   2   1  183.67    8.67
   8   2   1   56.85    3.77
   8   2   1   57.21    4.28
   9   2   1    2.15    1.85
   9   2   1    9.92    1.86
  10   2   1    8.49    2.51
  10   2   1    8.98    1.91
  11   2   1   10.29    2.79
  12   2   1   14.09    3.23
  11  -3  -1    0.47    2.00
  10  -3  -1    6.15    2.53
   9  -3  -1    4.95    2.26
   8  -3  -1    3.66    1.79
   7  -3  -1    2.31    1.60
   6  -3  -1   16.64    2.26
   5  -3  -1   21.78    2.39
  -5   3   1   27.94    1.80
   4  -3  -1   53.97    3.45
  -4   3   1   51.61    2.74
   3  -3  -1   64.44    3.74
  -3   3   1   63.00    3.16
   2  -3  -1   35.12    2.45
  -2   3   1   37.66    2.12
  -2   3   1   35.99    1.81
   1  -3  -1   18.20    1.36
   1  -3  -1   20.82    1.80
  -1   3   1   19.10    1.37
  -1   3   1   16.53    1.37
   0  -3  -1   32.42    2.12
   0  -3  -1   34.94    2.29
   0  -3  -1   37.80    1.97
   0   3   1   38.37    2.14
   0   3   1   37.13    2.57
   0   3   1   37.97    2.15
  -1  -3  -1   48.22    2.19
  -1  -3  -1   47.08    2.64
  -1  -3  -1   46.93    2.77
   1   3   1   41.67    2.62
   1   3   1   46.59    2.17
   1   3   1   45.72    2.49
  -2  -3  -1  164.25    6.82
   2   3   1  160.49    7.02
   2   3   1  163.58    6.85
   2   3   1  160.36    7.31
  -3  -3  -1  227.73    9.60
   3   3   1  219.64   10.01
   3   3   1  230.33    9.64
   3   3   1  233.49    9.62
   4   3   1   30.42    2.41
   4   3   1   31.50    1.87
   5   3   1    6.55    0.89
   5   3   1    6.51    1.38
   6   3   1   52.80    2.65
   6   3   1   49.86    3.39
   7   3   1  180.84    8.84
   7   3   1  187.79    7.91
   8   3   1   40.46    2.21
   8   3   1   48.61    4.35
   8   3   1   39.81    3.35
   9   3   1    7.58    2.18
   9   3   1    8.94    1.92
  10   3   1    2.82    1.57
  10   3   1    5.25    2.25
  11   3   1   18.11    2.75
  11   3   1   19.79    3.52
  12   3   1   24.09    4.09
  11  -4  -1    1.30    2.18
  10  -4  -1    9.56    2.72
   9  -4  -1    6.76    2.15
   8  -4  -1    3.63    1.91
   7  -4  -1    8.51    2.16
  -7   4   1   10.92    1.32
   6  -4  -1    3.22    1.55
  -6   4   1    6.93    1.10
   5  -4  -1   30.16    3.03
  -5   4   1   28.23    2.07
   4  -4  -1   30.61    2.93
  -4   4   1   26.04    1.96
   3  -4  -1    3.05    1.36
  -3   4   1    3.22    0.89
  -3   4   1    3.22    0.57
   2  -4  -1   38.36    2.76
  -2   4   1   42.48    2.41
  -2   4   1   41.44    2.20
   1  -4  -1    1.80    1.10
   1  -4  -1    0.57    0.68
  -1   4   1   -0.70    0.74
  -1   4   1    0.36    0.71
   0  -4  -1  142.16    6.47
   0  -4  -1  128.33    5.87
   0   4   1  140.74    6.15
   0   4   1  137.14    6.22
  -1  -4  -1   63.14    3.57
  -1  -4  -1   64.33    2.78
   1   4   1   54.99    3.33
   1   4   1   62.70    3.21
  -2  -4  -1    0.38    0.45
   2   4   1    1.56    0.99
   2   4   1    0.34    0.53
   2   4   1    1.36    0.81
   3   4   1    0.56    0.74
   3   4   1    1.68    1.05
   3   4   1    0.98    0.64
   4   4   1   94.64    5.13
   4   4   1  100.45    4.61
   5   4   1   61.34    3.74
   5   4   1   49.89    2.87
   6   4   1   35.67    2.28
   6   4   1   41.26    3.20
   7   4   1   50.81    3.74
   7   4   1   53.08    2.88
   8   4   1   -0.64    1.46
   8   4   1    0.37    0.75
   8   4   1   -0.31    1.39
   9   4   1   29.82    3.69
   9   4   1   29.39    3.23
  10   4   1   30.49    4.09
  10   4   1   38.38    3.78
  11   4   1    6.46    2.66
  11   4   1    7.29    2.13
  12   4   1    3.77    2.65
  11  -5  -1    0.78    2.17
  10  -5  -1    0.34    2.30
   9  -5  -1   10.45    2.68
   8  -5  -1    0.93    2.07
   7  -5  -1   17.89    2.93
  -7   5   1   18.24    1.75
   6  -5  -1    4.99    1.88
  -6   5   1    3.65    1.06
   5  -5  -1   12.48    2.24
  -5   5   1   13.68    1.51
   4  -5  -1   41.04    3.51
  -4   5   1   51.08    2.91
   3  -5  -1    1.68    1.31
  -3   5   1    1.80    0.88
  -3   5   1    1.02    0.62
   2  -5  -1   30.05    2.57
  -2   5   1   32.95    2.08
  -2   5   1   35.55    2.30
   1  -5  -1    2.07    1.18
  -1   5   1    4.04    1.01
  -1   5   1    3.83    0.94
   0  -5  -1  152.44    7.51
   0  -5  -1  151.48    6.81
   0   5   1  158.97    7.27
   0   5   1  172.89    7.21
  -1  -5  -1   84.09    3.71
  -1  -5  -1   77.18    4.68
   1   5   1   91.12    4.55
   1   5   1   90.95    4.33
   2   5   1    0.72    0.84
   2   5   1    0.43    1.06
   3   5   1    0.17    0.56
   3   5   1    1.29    1.13
   3   5   1    0.98    0.86
   4   5   1   47.19    2.53
   4   5   1   47.30    2.79
   4   5   1   50.26    3.39
   5   5   1  186.27    9.33
   5   5   1  202.95    8.68
   6   5   1   69.23    3.72
   6   5   1   71.20    4.55
   7   5   1   -0.30    0.84
   7   5   1    0.61    1.45
   8   5   1    5.42    1.14
   8   5   1    9.09    2.09
   9   5   1   35.30    3.84
   9   5   1   45.60    4.03
  10   5   1   45.43    4.47
  10   5   1   42.94    4.73
  11   5   1    8.52    2.96
  11   5   1   11.62    2.68
  12   5   1   -1.73    1.90
  12   5   1    2.01    2.49
  10  -6  -1    1.18    2.31
   9  -6  -1    0.87    2.14
   8  -6  -1    3.08    2.14
   7  -6  -1    7.47    2.21
  -7   6   1    7.55    1.40
   6  -6  -1    3.23    1.88
  -6   6   1    4.35    1.21
   5  -6  -1    5.92    1.94
  -5   6   1    5.31    1.27
   4  -6  -1    1.99    1.56
  -4   6   1    4.53    1.20
  -4   6   1    5.02    0.81
   3  -6  -1    6.04    1.65
  -3   6   1    5.58    1.05
  -3   6   1    7.53    1.36
   2  -6  -1   21.87    2.52
  -2   6   1   21.55    1.87
  -2   6   1   19.42    1.99
   1  -6  -1   22.66    2.43
  -1   6   1   24.15    2.15
  -1   6   1   22.06    2.08
   0  -6  -1   56.74    2.79
   0  -6  -1   62.96    3.77
   0   6   1   52.96    3.25
   0   6   1   52.04    3.42
  -1  -6  -1   50.93    3.60
   1   6   1   50.77    3.16
   1   6   1   56.09    3.44
   2   6   1   12.87    1.54
   2   6   1   12.92    1.86
   3   6   1   27.95    2.34
   3   6   1   33.30    3.05
   4   6   1   27.61    2.30
   4   6   1   25.08    1.65
   4   6   1   30.80    2.89
   5   6   1   40.24    2.34
   5   6   1   41.22    3.42
   5   6   1   39.00    2.72
   6   6   1   11.80    2.36
   6   6   1   15.75    1.73
   7   6   1   11.16    1.60
   7   6   1   15.54    2.49
   8   6   1   47.62    3.14
   8   6   1   50.93    4.40
   9   6   1   18.65    2.93
  10   6   1   12.84    2.96
  10   6   1   18.08    3.11
  11   6   1    8.39    2.67
  11   6   1    8.69    3.01
  10  -7  -1    0.07    2.32
   9  -7  -1   -1.48    1.96
   8  -7  -1   -0.83    1.94
   7  -7  -1    4.28    2.06
  -7   7   1    5.78    1.50
   6  -7  -1   11.71    2.44
  -6   7   1   15.16    1.96
   5  -7  -1    4.13    2.04
  -5   7   1    7.40    1.52
   4  -7  -1   14.67    2.50
  -4   7   1   20.87    2.17
  -4   7   1   17.78    1.64
   3  -7  -1    0.95    1.53
  -3   7   1   -1.47    1.06
  -3   7   1    0.08    0.88
   2  -7  -1   55.67    4.04
  -2   7   1   52.94    3.22
  -2   7   1   47.36    3.36
   1  -7  -1   12.24    2.11
  -1   7   1   11.81    1.75
  -1   7   1   13.60    1.78
   0  -7  -1   28.46    1.76
   0  -7  -1   26.85    2.81
   0  -7  -1   27.58    1.63
   0   7   1   25.50    2.34
   0   7   1   30.87    2.62
  -1  -7  -1    2.84    1.51
   1   7   1    1.10    1.11
   1   7   1    3.03    1.37
   2   7   1   40.04    2.98
   2   7   1   47.21    3.45
   3   7   1   78.79    5.04
   3   7   1   87.83    4.61
   4   7   1    2.00    1.53
   4   7   1    0.23    1.07
   5   7   1   -0.92    1.29
   5   7   1    0.23    1.06
   6   7   1    5.43    2.03
   6   7   1    4.78    1.29
   7   7   1   14.83    2.85
   7   7   1   15.98    1.89
   8   7   1   73.51    4.30
   8   7   1   74.35    5.50
   9   7   1    2.00    2.07
  10   7   1    0.21    1.98
  11   7   1    6.22    2.60
  11   7   1    5.43    2.95
   9  -8  -1   -0.93    2.22
   8  -8  -1   -0.28    2.21
   7  -8  -1    4.32    2.24
   6  -8  -1    1.83    1.96
  -6   8   1    0.76    1.34
   5  -8  -1    4.73    2.15
  -5   8   1    1.07    1.36
   4  -8  -1    0.44    1.70
  -4   8   1   -0.70    1.16
   3  -8  -1   -2.53    1.48
  -3   8   1   -1.09    1.26
  -3   8   1    1.32    1.03
   2  -8  -1    4.61    1.95
  -2   8   1    1.04    1.31
  -2   8   1    1.62    1.20
   1  -8  -1    4.05    1.89
   1  -8  -1    8.02    1.23
  -1   8   1    6.59    1.56
  -1   8   1    4.81    1.47
   0  -8  -1    3.87    0.78
   0  -8  -1    4.78    1.81
   0   8   1    2.41    1.37
   0   8   1    3.04    1.37
  -1  -8  -1   10.11    2.14
   1   8   1   11.18    1.95
   1   8   1   10.49    1.67
   2   8   1   16.07    2.37
   2   8   1   15.88    2.06
   3   8   1   18.86    2.17
   3   8   1   13.90    2.33
   4   8   1   22.10    2.96
   4   8   1   20.06    2.28
   5   8   1    6.89    2.02
   5   8   1    5.79    1.51
   6   8   1   14.87    2.04
   6   8   1   16.60    2.93
   7   8   1   32.42    3.82
   7   8   1   29.44    2.79
   8   8   1   12.28    1.90
   8   8   1   13.43    2.90
   9   8   1    4.52    2.31
  10   8   1    7.21    2.73
   8  -9  -1    0.29    2.18
   7  -9  -1    0.09    2.08
   6  -9  -1    1.46    2.07
  -6   9   1   -0.03    1.46
   5  -9  -1    0.71    2.11
  -5   9   1    1.78    1.50
   4  -9  -1    4.55    2.28
  -4   9   1    8.12    1.90
   3  -9  -1   -0.99    1.88
  -3   9   1    2.35    1.62
  -3   9   1    0.54    1.38
   2  -9  -1   21.73    3.19
  -2   9   1   22.68    2.59
  -2   9   1   21.05    2.35
   1  -9  -1    7.83    2.17
  -1   9   1    4.67    1.59
  -1   9   1   11.84    1.93
   0  -9  -1   78.33    5.26
   0   9   1   75.21    4.56
   0   9   1   65.16    4.63
  -1  -9  -1    0.52    1.76
   1   9   1    5.30    1.55
   1   9   1    3.25    1.71
   2   9   1    1.77    1.33
   2   9   1    3.51    1.71
   3   9   1    1.97    1.67
   3   9   1   -0.18    1.26
   4   9   1    4.75    1.90
   4   9   1    3.47    1.57
   5   9   1   27.61    2.75
   5   9   1   32.42    3.77
   6   9   1   32.69    3.81
   6   9   1   23.30    2.65
   7   9   1    2.59    1.47
   7   9   1    4.17    2.27
   8   9   1   -1.23    1.25
   8   9   1   -0.98    1.77
   9   9   1   10.26    3.03
   7 -10  -1    1.23    2.37
   6 -10  -1   -2.93    1.94
  -6  10   1   -1.05    1.57
   5 -10  -1    1.91    2.35
  -5  10   1   -0.62    1.44
   4 -10  -1    1.33    2.24
  -4  10   1    2.76    1.65
   3 -10  -1   -0.56    2.05
  -3  10   1    1.50    1.68
   2 -10  -1   -0.84    1.87
  -2  10   1   -0.29    1.31
  -2  10   1    0.28    1.50
   1 -10  -1   -0.39    1.92
  -1  10   1   -0.44    1.47
  -1  10   1    3.15    1.60
   0 -10  -1    2.54    2.15
   0  10   1    4.22    1.69
   0  10   1    8.77    2.06
  -1 -10  -1    3.18    2.07
   1  10   1    2.26    1.72
   1  10   1    3.73    1.82
   2  10   1   -0.35    1.41
   2  10   1    0.98    1.64
   3  10   1    1.74    1.49
   3  10   1    0.42    1.74
   4  10   1    7.48    1.90
   4  10   1    5.90    2.15
   5  10   1    2.87    1.69
   5  10   1    5.22    2.24
   6  10   1    6.57    1.79
   6  10   1    0.82    2.06
   7  10   1    2.13    1.54
   7  10   1    3.27    2.41
   8  10   1    1.15    1.52
   8  10   1    1.63    2.16
   6 -11  -1    3.55    2.66
  -6  11   1    1.20    1.88
   5 -11  -1    2.23    2.59
  -5  11   1    0.15    1.60
   4 -11  -1   -1.85    1.98
  -4  11   1   -0.83    1.70
   3 -11  -1    3.63    2.41
  -3  11   1   -2.56    1.44
   2 -11  -1   10.09    2.87
  -2  11   1    7.55    2.18
   1 -11  -1    6.65    2.45
  -1  11   1    3.97    1.92
  -1  11   1    6.44    2.04
   0 -11  -1    4.59    2.36
   0  11   1   -0.34    1.59
   0  11   1   -1.21    1.56
   1  11   1    1.18    1.73
   1  11   1   -2.09    1.44
   2  11   1    6.28    2.33
   2  11   1    9.83    2.21
   3  11   1   26.95    3.08
   3  11   1   18.28    3.26
   4  11   1    4.91    2.40
   4  11   1    7.90    1.99
   5  11   1    1.56    2.24
   5  11   1    3.63    1.84
   6  11   1    2.80    2.51
   6  11   1    4.84    1.83
   7  11   1    2.70    1.74
   7  11   1    5.82    2.67
   4 -12  -1    2.00    2.59
  -4  12   1    3.29    2.17
   3 -12  -1    4.73    2.63
  -3  12   1    0.67    1.82
   2 -12  -1    2.92    2.49
  -2  12   1    0.38    1.90
   1 -12  -1   -0.37    2.30
  -1  12   1    2.55    2.11
   0 -12  -1    1.08    2.37
   0  12   1    2.62    2.16
   0  12   1    6.72    2.31
   1  12   1    1.27    1.89
   1  12   1    0.04    1.96
   2  12   1    1.03    1.94
   2  12   1   -2.85    1.69
   3  12   1    3.74    2.06
   3  12   1    5.14    2.48
   4  12   1    3.44    2.30
   4  12   1   -1.00    1.61
   5  12   1   -0.54    1.64
   5  12   1    2.21    2.25
   6  12   1   -1.36    2.09
   1 -13  -1    2.99    2.53
   0 -13  -1    0.90    2.14
   0  13   1    0.04    2.00
   1  13   1    3.56    2.36
   1  13   1    1.13    2.11
   2  13   1   -2.93    1.81
   2  13   1    0.80    2.15
   4  12  -2   -1.54    1.74
   4  12  -2    3.31    2.63
   3  12  -2    0.27    2.16
   3  12  -2   -1.52    1.77
   2  12  -2    1.89    2.22
   2  12  -2    3.92    2.13
   1  12  -2   -3.50    1.61
   1  12  -2    3.35    2.23
   0  12  -2   -0.12    2.03
   0  12  -2    3.27    1.98
  -1  12  -2    0.02    2.00
  -1  12  -2    2.38    1.91
   1 -12   2   -0.44    2.05
  -2  12  -2    1.50    2.03
   2 -12   2   -2.61    2.25
  -3  12  -2    0.70    1.83
   3 -12   2    0.99    2.41
   6  11  -2   -1.14    1.59
   6  11  -2    0.52    2.21
   5  11  -2   -0.31    1.64
   5  11  -2   -0.30    2.13
   4  11  -2   -0.10    2.04
   4  11  -2    0.15    1.67
   3  11  -2   10.06    2.37
   3  11  -2    8.11    2.53
   2  11  -2    2.82    2.07
   2  11  -2    2.27    1.85
   1  11  -2    0.14    1.85
   1  11  -2   -1.27    1.69
   0  11  -2   -2.37    1.69
   0  11  -2   -0.59    1.68
   0 -11   2    3.95    2.25
  -1  11  -2    1.33    1.73
  -1  11  -2   -1.48    1.75
   1 -11   2    4.31    2.34
  -2  11  -2    5.31    2.02
  -2  11  -2    4.54    2.03
   2 -11   2    8.01    2.57
  -3  11  -2    0.37    1.71
   3 -11   2    1.78    2.16
  -4  11  -2   -2.79    1.55
   4 -11   2    2.90    2.39
  -5  11  -2   -1.12    1.64
   5 -11   2    2.24    2.52
   8  10  -2   -1.45    2.17
   7  10  -2    0.64    1.51
   7  10  -2    2.33    2.44
   6  10  -2   -0.36    1.48
   6  10  -2   -0.74    1.93
   5  10  -2    0.32    2.03
   5  10  -2    2.23    1.55
   4  10  -2   -0.70    1.69
   4  10  -2    1.44    1.54
   3  10  -2    2.67    2.04
   3  10  -2    2.91    1.74
   2  10  -2    1.10    1.58
   2  10  -2    1.34    1.74
   1  10  -2   -1.35    1.42
   1  10  -2    2.06    1.74
   0  10  -2    2.23    1.77
   0  10  -2    2.09    1.69
   0 -10   2   -0.03    1.78
  -1  10  -2    4.41    1.78
  -1  10  -2    4.93    1.85
   1 -10   2    7.38    2.34
  -2  10  -2   -1.14    1.30
  -2  10  -2   -0.43    1.50
   2 -10   2    0.72    1.87
  -3  10  -2   -0.90    1.46
  -3  10  -2   -0.74    1.26
   3 -10   2    1.67    2.10
  -4  10  -2    0.07    1.59
   4 -10   2    0.71    2.17
  -5  10  -2   -2.79    1.32
   5 -10   2    1.43    2.23
  -6  10  -2   -1.06    1.44
   6 -10   2    1.28    2.16
   7 -10   2    3.25    2.68
   9   9  -2   10.23    3.02
   8   9  -2   -1.52    2.19
   8   9  -2   -1.83    1.26
   7   9  -2    2.18    1.53
   7   9  -2   -0.80    1.98
   6   9  -2    4.27    1.59
   6   9  -2    4.36    2.27
   5   9  -2   25.46    3.66
   5   9  -2   34.46    3.18
   4   9  -2    7.03    1.82
   4   9  -2    3.10    2.02
   3   9  -2    3.58    1.56
   3   9  -2    3.34    1.90
   2   9  -2    3.84    1.91
   2   9  -2   -0.46    1.38
   1   9  -2    7.82    2.00
   1   9  -2    3.97    1.62
   0   9  -2   30.68    2.99
   0   9  -2   21.82    2.91
   0  -9   2   25.72    3.25
  -1   9  -2    2.56    1.61
  -1   9  -2    3.23    1.55
   1  -9   2   -0.32    1.80
  -2   9  -2    6.50    1.79
  -2   9  -2    6.68    1.87
   2  -9   2    5.22    2.07
  -3   9  -2    0.08    1.24
  -3   9  -2   -0.57    1.37
   3  -9   2   -2.89    1.66
  -4   9  -2    0.52    1.36
  -4   9  -2    3.55    2.15
   4  -9   2    2.06    1.97
  -5   9  -2   10.72    2.02
   5  -9   2   10.80    2.68
  -6   9  -2    0.89    1.46
   6  -9   2   -0.23    2.00
   7  -9   2    5.15    2.70
   8  -9   2    2.51    2.31
   9   8  -2    2.73    2.28
   8   8  -2    2.06    2.07
   8   8  -2   -0.14    1.29
   7   8  -2    5.02    1.60
   7   8  -2    7.48    2.60
   6   8  -2    3.82    1.49
   6   8  -2    3.81    2.02
   5   8  -2    0.81    1.27
   5   8  -2    3.21    1.86
   4   8  -2    1.33    1.73
   4   8  -2    1.89    1.43
   3   8  -2   -0.65    1.16
   3   8  -2   -1.43    1.46
   2   8  -2   -0.84    1.37
   2   8  -2    0.14    1.20
   1   8  -2    2.71    1.56
   1   8  -2    2.74    1.33
   0   8  -2    1.07    1.29
   0   8  -2    2.73    1.53
   0  -8   2    3.48    1.89
  -1   8  -2    0.34    1.24
  -1   8  -2    2.72    1.39
   1  -8   2    2.28    1.66
  -2   8  -2    0.03    1.34
  -2   8  -2   -0.09    1.17
   2  -8   2   -2.79    1.43
  -3   8  -2    0.78    1.23
  -3   8  -2    0.25    1.21
   3  -8   2   -1.32    1.59
  -4   8  -2    2.53    1.27
  -4   8  -2    0.81    1.36
   4  -8   2    0.82    1.81
  -5   8  -2   14.50    2.03
   5  -8   2    9.90    2.52
  -6   8  -2    3.33    1.42
   6  -8   2   -1.75    1.75
   7  -8   2    0.66    2.10
   8  -8   2   -1.84    1.98
   9  -8   2    6.40    2.71
  10   7  -2    1.23    2.04
  10   7  -2   -0.99    2.12
   9   7  -2   -1.17    1.76
   8   7  -2   13.89    2.88
   8   7  -2   11.67    1.93
   7   7  -2   12.67    2.73
   7   7  -2    6.57    1.61
   6   7  -2    8.52    1.66
   6   7  -2    9.70    2.35
   5   7  -2   23.60    3.14
   5   7  -2   26.82    2.60
   4   7  -2   11.20    2.24
   4   7  -2    7.01    1.61
   3   7  -2   24.49    3.00
   3   7  -2   27.92    2.59
   2   7  -2    7.48    1.87
   2   7  -2    7.79    1.52
   1   7  -2   16.48    1.94
   1   7  -2   23.52    2.60
   0   7  -2   45.62    3.39
   0   7  -2   43.78    3.14
   0  -7   2   49.52    3.76
   0  -7   2   45.10    2.33
  -1   7  -2    0.95    1.19
  -1   7  -2   -0.26    1.11
   1  -7   2    1.52    1.50
  -2   7  -2    4.74    1.35
  -2   7  -2    4.14    1.37
   2  -7   2    4.06    1.64
  -3   7  -2    0.77    1.07
  -3   7  -2    1.82    1.28
   3  -7   2    1.18    1.55
  -4   7  -2   12.87    1.78
  -4   7  -2   10.80    1.71
   4  -7   2    9.04    2.14
  -5   7  -2   14.06    1.72
  -5   7  -2   16.50    1.94
   5  -7   2   18.36    2.82
  -6   7  -2    3.91    1.26
   6  -7   2   -0.47    1.82
   7  -7   2   12.83    2.83
   8  -7   2   -2.11    1.77
   9  -7   2    1.96    2.29
  10  -7   2    2.49    2.47
  11   6  -2    1.20    2.54
  11   6  -2    4.04    2.34
  10   6  -2    9.40    3.04
  10   6  -2    9.47    2.62
   9   6  -2    7.38    2.49
   9   6  -2    8.28    2.51
   8   6  -2   27.63    3.52
   8   6  -2   29.19    2.75
   7   6  -2   10.29    1.73
   7   6  -2   12.23    1.82
   7   6  -2   10.06    2.38
   6   6  -2   25.63    3.12
   6   6  -2   21.73    2.24
   6   6  -2   24.34    2.23
   5   6  -2    2.33    0.93
   5   6  -2    1.01    0.99
   5   6  -2   -0.59    1.38
   4   6  -2    3.46    1.19
   4   6  -2    5.26    1.63
   4   6  -2    4.63    0.89
   3   6  -2   41.11    2.81
   3   6  -2   35.84    3.25
   2   6  -2   18.14    1.82
   2   6  -2   13.69    2.04
   1   6  -2   -0.07    1.09
   1   6  -2    1.95    1.09
   0   6  -2   28.62    2.38
   0   6  -2   24.65    2.42
   0   6  -2   28.16    1.63
   0  -6   2   27.19    1.69
   0  -6   2   26.14    2.59
  -1   6  -2    7.68    1.34
   1  -6   2   12.80    1.98
  -2   6  -2   12.66    1.62
   2  -6   2   15.75    2.20
  -3   6  -2    3.93    1.19
   3  -6   2    4.17    1.57
  -4   6  -2    7.28    1.40
   4  -6   2    6.46    1.78
  -5   6  -2   31.54    2.47
   5  -6   2   32.18    3.33
  -6   6  -2    0.92    0.93
   6  -6   2    2.62    1.78
   7  -6   2   19.50    3.02
   8  -6   2    9.28    2.57
   9  -6   2   -1.45    1.93
  10  -6   2   -0.34    2.11
  11   5  -2    4.20    2.23
  11   5  -2    0.23    2.28
  10   5  -2   14.59    3.28
  10   5  -2   16.74    2.97
   9   5  -2   18.14    3.29
   9   5  -2   23.44    3.22
   8   5  -2    0.97    1.08
   8   5  -2    0.56    1.66
   7   5  -2   12.41    2.37
   7   5  -2   12.04    1.66
   6   5  -2    2.09    1.49
   6   5  -2    3.77    1.16
   5   5  -2   48.36    2.86
   5   5  -2   41.52    2.85
   5   5  -2   44.45    3.59
   4   5  -2    7.91    1.33
   4   5  -2    7.23    1.10
   4   5  -2    7.23    1.68
   3   5  -2    8.23    1.70
   3   5  -2    5.99    0.91
   3   5  -2    9.26    1.40
   2   5  -2   47.71    3.32
   2   5  -2   48.54    2.40
   2   5  -2   50.29    3.01
   1   5  -2    2.35    0.99
   1   5  -2    1.50    0.55
   1   5  -2    1.83    1.11
  -1  -5   2    0.69    0.53
   0   5  -2   33.19    2.31
   0   5  -2   33.15    1.84
   0  -5   2   29.30    1.83
   0  -5   2   29.65    2.52
  -1   5  -2    1.58    0.95
  -1   5  -2    1.49    0.78
   1  -5   2   -0.90    1.10
   1  -5   2   -0.10    0.68
  -2   5  -2   49.96    2.93
  -2   5  -2   48.98    2.78
   2  -5   2   45.26    3.22
  -3   5  -2   10.57    1.35
   3  -5   2    9.97    1.76
  -4   5  -2   25.47    2.03
   4  -5   2   21.71    2.57
  -5   5  -2    5.94    1.14
   5  -5   2    5.94    1.76
  -6   5  -2   -0.57    0.77
   6  -5   2   -1.49    1.46
  -7   5  -2    2.57    0.95
   7  -5   2    2.48    1.78
   8  -5   2    6.60    2.40
   9  -5   2   11.81    2.86
  10  -5   2    4.46    2.38
  11  -5   2    4.08    2.81
  11   4  -2    3.19    2.58
  10   4  -2   20.70    3.02
  10   4  -2   26.80    3.92
   9   4  -2   24.91    3.54
   9   4  -2   21.23    2.96
   8   4  -2    0.00    1.76
   8   4  -2    4.26    1.77
   8   4  -2    1.01    1.01
   7   4  -2    6.04    1.82
   7   4  -2    4.66    1.19
   6   4  -2    1.38    1.31
   6   4  -2    1.23    0.97
   5   4  -2   80.42    4.08
   5   4  -2   73.90    4.61
   4   4  -2   45.85    3.34
   4   4  -2   46.68    2.73
   4   4  -2   43.77    2.73
   3   4  -2   59.79    3.66
   3   4  -2   59.64    3.21
   3   4  -2   55.25    2.96
   2   4  -2   34.06    2.62
   2   4  -2   34.96    1.99
   2   4  -2   34.27    2.32
   1   4  -2    7.02    1.16
   1   4  -2    6.65    0.84
  -1  -4   2    8.13    0.84
   0   4  -2   53.91    3.01
   0   4  -2   53.20    2.68
   0  -4   2   56.98    2.75
   0  -4   2   53.86    3.17
  -1   4  -2   -0.58    0.75
  -1   4  -2    0.53    0.75
   1  -4   2   -1.22    0.85
   1  -4   2    0.97    0.73
  -2   4  -2   63.28    3.37
  -2   4  -2   65.76    3.42
   2  -4   2   64.65    3.66
  -3   4  -2   41.41    2.73
  -3   4  -2   46.29    2.56
   3  -4   2   43.69    3.06
  -4   4  -2    8.02    1.08
   4  -4   2    7.85    1.61
  -5   4  -2   59.70    3.11
   5  -4   2   60.09    4.00
  -6   4  -2    1.01    0.71
   6  -4   2    2.06    1.55
  -7   4  -2   18.51    1.47
   7  -4   2   25.04    3.08
   8  -4   2    0.91    1.57
   9  -4   2   18.04    3.07
  10  -4   2   20.68    3.45
  11  -4   2    1.43    2.21
  11   3  -2   23.98    3.84
  10   3  -2   -1.19    2.02
  10   3  -2   -0.78    1.41
   9   3  -2    3.41    1.62
   9   3  -2    1.33    1.84
   8   3  -2   15.79    1.64
   8   3  -2   11.90    2.46
   8   3  -2   14.61    2.24
   7   3  -2   93.14    5.29
   7   3  -2   86.98    5.57
   7   3  -2   89.86    4.53
   6   3  -2    3.43    1.41
   6   3  -2    6.03    1.15
   5   3  -2    0.92    0.82
   5   3  -2    1.62    1.16
   4   3  -2    1.11    0.80
   4   3  -2    2.29    1.14
   3   3  -2    8.96    1.17
   3   3  -2    9.94    1.20
   3   3  -2    8.90    1.46
   2   3  -2   57.46    3.06
   2   3  -2   56.23    2.85
   1   3  -2    5.37    0.88
   1   3  -2    6.21    1.05
  -1  -3   2    6.65    0.84
   0   3  -2    3.09    0.77
   0   3  -2    2.56    0.94
   0   3  -2    2.51    0.78
   0  -3   2    2.25    0.73
   0  -3   2    1.20    0.91
  -1   3  -2   42.79    2.45
  -1   3  -2   42.97    2.39
   1  -3   2   44.07    2.38
   1  -3   2   45.09    2.60
  -2   3  -2   24.44    1.78
  -2   3  -2   26.33    1.96
   2  -3   2   27.18    2.08
  -3   3  -2   19.61    1.89
  -3   3  -2   18.76    1.51
   3  -3   2   17.53    1.85
  -4   3  -2   68.76    3.85
  -4   3  -2   69.01    3.32
   4  -3   2   73.71    3.83
   4  -3   2   67.60    4.00
  -5   3  -2   12.73    1.10
   5  -3   2   13.00    1.98
   5  -3   2   12.51    1.11
  -6   3  -2    0.59    0.56
   6  -3   2   -0.58    1.20
   6  -3   2    1.38    0.57
  -7   3  -2    2.35    0.59
   7  -3   2    3.10    1.61
   8  -3   2    0.93    1.63
   9  -3   2    5.96    2.25
  10  -3   2    6.94    2.50
  11  -3   2    1.89    2.33
  12  -3   2    5.92    2.75
  12   2  -2   16.55    3.52
  11   2  -2    9.98    3.03
  10   2  -2    2.54    2.15
   9   2  -2    1.26    1.31
   9   2  -2    2.21    1.98
   8   2  -2   18.34    2.91
   8   2  -2   20.75    1.82
   8   2  -2   22.72    2.49
   7   2  -2  109.50    6.23
   7   2  -2  109.91    5.19
   7   2  -2  109.59    5.73
   6   2  -2   10.82    1.68
   6   2  -2    9.78    1.19
   6   2  -2    9.22    1.87
   5   2  -2   31.56    2.06
   5   2  -2   31.91    2.69
   5   2  -2   29.95    2.50
   4   2  -2    6.71    1.02
   4   2  -2    6.71    1.32
   3   2  -2   23.00    1.67
   3   2  -2   21.82    1.94
   2   2  -2  167.36    7.44
   2   2  -2  175.76    7.49
   1   2  -2    7.57    1.03
   1   2  -2    5.28    0.99
   1   2  -2    5.95    0.95
  -1  -2   2    8.55    0.96
   0   2  -2  252.28   10.68
   0   2  -2  250.89   10.65
   0   2  -2  258.93   10.68
   0  -2   2  255.28   10.64
   0  -2   2  253.74   10.66
   0  -2   2  253.05   10.67
  -1   2  -2   56.01    2.87
  -1   2  -2   54.82    2.90
  -1   2  -2   57.29    2.81
   1  -2   2   54.07    2.76
   1  -2   2   59.92    2.89
   1  -2   2   54.71    2.84
  -2   2  -2  114.32    5.12
  -2   2  -2  117.23    5.11
  -2   2  -2  114.50    5.15
  -2   2  -2  107.70    4.88
   2  -2   2   96.26    5.46
   2  -2   2  109.89    4.86
   2  -2   2  109.38    5.10
  -3   2  -2   78.40    3.45
  -3   2  -2   74.62    3.73
  -3   2  -2   74.05    3.86
   3  -2   2   73.47    3.88
   3  -2   2   74.02    3.41
  -4   2  -2   75.43    3.29
  -4   2  -2   70.16    3.94
   4  -2   2   67.11    3.94
   4  -2   2   69.74    3.65
   4  -2   2   77.06    3.29
  -5   2  -2   44.22    2.13
   5  -2   2   45.63    2.63
   5  -2   2   45.14    3.16
  -6   2  -2    0.19    0.36
   6  -2   2   -0.12    1.24
   6  -2   2    1.49    0.83
   7  -2   2   58.42    3.24
   7  -2   2   53.30    4.09
   8  -2   2   20.49    1.94
   8  -2   2   15.16    2.58
   9  -2   2    1.52    1.74
  10  -2   2   -1.63    1.76
  11  -2   2    4.41    2.24
  12  -2   2   33.43    4.55
  12   1  -2    2.31    2.59
  11   1  -2    3.82    2.27
  10   1  -2   16.21    3.08
   9   1  -2   31.71    3.78
   9   1  -2   26.90    2.63
   8   1  -2   15.77    2.49
   8   1  -2   13.45    1.88
   8   1  -2   16.44    1.49
   7   1  -2    0.03    0.76
   7   1  -2   -0.03    0.97
   7   1  -2   -0.31    1.40
   6   1  -2   29.37    2.42
   6   1  -2   32.50    3.04
   6   1  -2   32.18    2.04
   5   1  -2   13.90    1.61
   5   1  -2   18.91    2.16
   4   1  -2    0.67    1.04
   4   1  -2    3.09    0.97
   3   1  -2   27.32    1.93
   3   1  -2   24.61    2.05
   1   1  -2   -0.27    0.75
  -1  -1   2    0.56    0.79
   0   1  -2    1.25    0.84
   0   1  -2    1.34    0.53
   0  -1   2    2.03    0.55
   0  -1   2    0.91    0.82
  -1   1  -2    0.76    0.62
  -1   1  -2   -0.01    0.86
  -1   1  -2    0.51    0.74
   1  -1   2   -0.09    0.63
   1  -1   2   -0.23    0.78
  -2   1  -2    1.36    0.83
  -2   1  -2    0.62    0.56
  -2   1  -2    1.48    0.92
  -2   1  -2    0.04    0.75
   2  -1   2    2.37    0.84
   2  -1   2    0.74    0.80
   2  -1   2    0.68    0.95
  -3   1  -2    0.76    0.85
  -3   1  -2    1.85    1.02
  -3   1  -2    1.12    0.49
   3  -1   2    0.89    0.86
   3  -1   2    2.06    0.82
  -4   1  -2    0.17    0.36
  -4   1  -2   -0.14    0.92
  -4   1  -2    1.12    0.83
   4  -1   2    0.68    0.76
   4  -1   2    1.33    0.99
  -5   1  -2    3.08    1.17
   5  -1   2    1.26    1.25
   5  -1   2    2.87    1.25
   6  -1   2   -0.48    0.85
   6  -1   2    0.94    1.21
   7  -1   2   14.91    1.76
   7  -1   2   13.40    2.24
   8  -1   2    8.67    1.57
   8  -1   2    8.93    2.17
   9  -1   2    2.94    1.80
   9  -1   2    0.37    1.21
  10  -1   2    2.95    1.92
  11  -1   2    4.62    2.39
  12  -1   2   12.27    3.12
  12   0  -2    1.85    2.45
  11   0  -2   -1.47    2.04
  10   0  -2   60.70    5.29
   9   0  -2   55.70    4.65
   8   0  -2   20.20    1.66
   8   0  -2   19.52    2.76
   8   0  -2   18.03    1.85
   7   0  -2   36.86    2.39
   7   0  -2   29.67    3.18
   6   0  -2   26.37    2.75
   6   0  -2   19.16    1.76
   5   0  -2   98.13    5.03
   5   0  -2   88.69    4.40
   4   0  -2  102.86    5.19
   4   0  -2  104.96    4.81
   3   0  -2    5.68    1.13
   2   0  -2  362.91   14.89
  -2   0   2  351.09   14.84
   1   0  -2    1.48    0.85
   1   0  -2    0.54    0.57
  -1   0   2    0.21    0.79
  -1   0   2    0.92    0.58
   0   0  -2   80.85    3.65
   0   0  -2   79.71    3.74
   0   0   2   74.92    3.65
   0   0   2   76.15    3.70
  -1   0  -2  134.36    5.65
  -1   0  -2  128.60    5.63
   1   0   2  125.33    5.63
   1   0   2  122.37    5.31
   1   0   2  128.23    5.63
  -2   0  -2  447.83   17.04
  -2   0  -2  394.98   17.17
  -2   0  -2  419.84   17.18
   2   0   2  383.14   17.02
   2   0   2  425.82   17.22
   2   0   2  412.22   17.18
  -3   0  -2  348.34   14.26
  -3   0  -2  332.83   14.31
  -3   0  -2  338.20   13.80
  -3   0  -2  345.20   14.21
   3   0   2  332.39   14.26
  -4   0  -2  113.77    5.40
   4   0   2  107.95    5.39
   4   0   2  114.34    5.29
  -5   0  -2    3.69    1.19
   5   0   2    9.87    1.45
   5   0   2    4.99    1.31
   6   0   2    5.11    1.18
   6   0   2    3.61    1.27
   7   0   2   32.72    2.89
   7   0   2   35.00    2.54
   8   0   2    6.39    1.46
   8   0   2    3.82    1.74
   9   0   2   11.25    1.95
   9   0   2   10.61    2.32
  10   0   2   24.54    3.49
  11   0   2    4.95    2.39
  12   0   2    2.99    2.32
  12  -1  -2    9.39    3.03
  11  -1  -2   13.62    3.22
  10  -1  -2   10.77    2.70
   9  -1  -2   19.63    3.01
   8  -1  -2   21.70    3.07
   7  -1  -2    5.20    1.87
   7  -1  -2    6.88    0.98
   6  -1  -2   23.10    2.64
   6  -1  -2   23.92    1.60
   5  -1  -2   22.89    1.51
   5  -1  -2   25.75    2.52
   4  -1  -2   15.77    1.87
   4  -1  -2   13.33    1.13
   3  -1  -2   28.86    1.81
   3  -1  -2   33.18    2.29
   2  -1  -2   17.54    1.17
   2  -1  -2   15.66    1.48
   2  -1  -2   15.52    1.26
  -2   1   2   17.45    1.55
   1  -1  -2    1.74    0.75
   1  -1  -2   -0.21    0.55
   1  -1  -2    0.63    0.66
   1  -1  -2    0.37    0.94
  -1   1   2    0.84    0.60
  -1   1   2    0.92    0.73
   0  -1  -2   64.82    3.21
   0  -1  -2   63.42    2.93
   0  -1  -2   66.62    3.11
   0  -1  -2   68.57    3.04
   0   1   2   65.67    3.14
   0   1   2   63.31    2.93
   0   1   2   64.89    3.19
  -1  -1  -2   30.33    1.90
  -1  -1  -2   28.60    1.61
  -1  -1  -2   30.17    1.88
   1   1   2   27.01    1.85
   1   1   2   25.32    1.60
   1   1   2   27.71    1.86
  -2  -1  -2   31.31    2.20
  -2  -1  -2   37.01    1.84
   2   1   2   41.85    2.32
   2   1   2   34.73    1.84
   2   1   2   36.89    2.27
  -3  -1  -2   38.52    1.90
  -3  -1  -2   40.41    2.52
   3   1   2   41.26    1.92
   3   1   2   41.93    2.54
  -4  -1  -2   44.49    2.68
  -4  -1  -2   42.31    1.98
   4   1   2   45.91    1.99
   4   1   2   43.03    2.67
   4   1   2   44.02    2.78
  -5  -1  -2   13.63    1.61
   5   1   2   12.84    1.55
   5   1   2   14.19    1.77
   6   1   2    6.75    1.57
   6   1   2    7.68    1.40
   7   1   2   -0.22    1.00
   7   1   2    2.41    1.46
   8   1   2    0.87    1.12
   8   1   2    1.10    1.49
   9   1   2   14.43    2.65
   9   1   2   16.44    2.15
  10   1   2   14.38    2.80
  10   1   2   25.99    2.71
  11   1   2    6.92    2.52
  12   1   2    2.79    2.44
  11  -2  -2   26.70    4.13
  10  -2  -2    0.91    1.91
   9  -2  -2    1.51    1.84
   8  -2  -2   12.34    2.57
   7  -2  -2  128.09    7.05
   6  -2  -2   19.06    2.53
   5  -2  -2   19.40    2.29
   4  -2  -2   13.81    1.85
   3  -2  -2    1.07    1.01
  -3   2   2    2.81    0.80
   2  -2  -2  165.08    6.76
   2  -2  -2  158.70    7.26
  -2   2   2  161.17    6.76
  -2   2   2  161.94    7.02
   1  -2  -2    1.19    0.70
   1  -2  -2    1.02    0.85
   1  -2  -2    0.44    0.59
   1  -2  -2    0.64    0.88
  -1   2   2    0.38    0.66
  -1   2   2    0.57    0.86
  -1   2   2    0.72    0.77
   0  -2  -2  238.06    9.57
   0  -2  -2  230.70    9.54
   0  -2  -2  231.03    9.49
   0  -2  -2  213.02    9.54
   0   2   2  218.86    9.52
   0   2   2  217.11    9.49
   0   2   2  226.87    9.54
   0   2   2  225.92    9.57
  -1  -2  -2   76.31    3.53
  -1  -2  -2   73.31    3.67
  -1  -2  -2   74.73    3.74
   1   2   2   82.21    3.74
   1   2   2   73.76    3.55
   1   2   2   82.13    3.74
   1   2   2   73.57    3.75
  -2  -2  -2   36.77    1.94
  -2  -2  -2   37.76    2.14
   2   2   2   35.61    1.96
   2   2   2   36.19    2.17
   2   2   2   34.07    2.27
  -3  -2  -2   53.05    2.99
  -3  -2  -2   56.12    2.70
   3   2   2   55.66    3.18
   3   2   2   59.38    2.68
   3   2   2   56.78    3.01
  -4  -2  -2   14.72    1.52
  -4  -2  -2   12.37    0.97
   4   2   2   12.91    1.59
   4   2   2    9.78    0.89
  -5  -2  -2   46.86    2.30
  -5  -2  -2   50.20    3.00
   5   2   2   47.29    2.25
   5   2   2   45.96    3.01
  -6  -2  -2    0.39    0.46
   6   2   2    1.44    1.29
   6   2   2    0.70    1.05
   6   2   2    0.55    0.43
   7   2   2   25.02    2.51
   7   2   2   28.27    2.94
   8   2   2   27.21    2.76
   8   2   2   30.16    3.25
   9   2   2    1.57    1.34
   9   2   2   -2.74    1.42
  10   2   2   -2.63    1.59
  10   2   2    0.32    1.32
  11   2   2    6.19    2.14
  11   2   2    3.41    2.36
  12   2   2    9.38    2.84
  11  -3  -2   21.69    3.86
  10  -3  -2    5.97    2.46
   9  -3  -2   11.86    2.74
   8  -3  -2    7.82    2.29
   7  -3  -2   66.40    4.72
   6  -3  -2   12.16    2.14
   5  -3  -2    6.17    1.62
  -5   3   2    7.27    1.11
   4  -3  -2    2.46    1.28
  -4   3   2    5.47    0.98
   3  -3  -2    2.49    1.16
   2  -3  -2  120.71    5.69
   2  -3  -2  112.50    5.03
  -2   3   2  115.68    5.04
  -2   3   2  123.66    5.39
   1  -3  -2   -0.50    0.89
   1  -3  -2    0.65    0.89
   1  -3  -2    3.56    0.71
  -1   3   2    2.91    0.88
  -1   3   2    1.63    0.69
   0  -3  -2   69.91    3.70
   0  -3  -2   83.79    3.79
   0  -3  -2   69.75    3.88
   0   3   2   83.87    3.77
   0   3   2   82.26    3.79
  -1  -3  -2  160.40    7.49
  -1  -3  -2  179.84    7.30
   1   3   2  170.51    7.32
   1   3   2  166.79    7.50
   1   3   2  166.22    7.27
  -2  -3  -2   40.45    2.25
   2   3   2   41.93    2.33
   2   3   2   44.12    2.69
   2   3   2   40.19    2.30
  -3  -3  -2   53.63    2.96
   3   3   2   56.30    2.89
   3   3   2   64.59    3.08
   3   3   2   60.90    3.42
  -4  -3  -2  101.72    4.72
   4   3   2   98.70    5.09
   4   3   2   97.11    4.47
  -5  -3  -2   21.15    1.89
   5   3   2   21.42    1.45
   5   3   2   20.36    2.19
  -6  -3  -2   21.25    1.66
   6   3   2   17.24    1.35
   6   3   2   18.32    2.13
  -7  -3  -2   20.17    1.60
   7   3   2   19.05    1.40
   7   3   2   23.13    2.49
   7   3   2   21.64    2.62
   8   3   2   17.61    2.75
   8   3   2   23.01    2.59
   9   3   2    1.83    1.51
   9   3   2    2.51    1.93
  10   3   2   12.10    2.65
  10   3   2    6.99    1.94
  11   3   2    0.46    1.59
  11   3   2   -2.18    1.93
  12   3   2   12.79    3.11
  11  -4  -2    3.34    2.54
  10  -4  -2   21.91    3.77
   9  -4  -2   29.48    3.68
   8  -4  -2    8.68    2.42
   7  -4  -2    1.25    1.69
   6  -4  -2    0.52    1.42
  -6   4   2   -0.43    0.84
   5  -4  -2   74.17    4.63
  -5   4   2   72.06    3.78
   4  -4  -2  108.73    5.78
  -4   4   2  107.22    5.14
   3  -4  -2    5.75    1.54
  -3   4   2    4.71    1.03
  -3   4   2    5.42    0.64
   2  -4  -2    1.62    1.15
   2  -4  -2    3.49    0.72
  -2   4   2    2.57    0.69
  -2   4   2    1.38    0.88
   1  -4  -2    6.90    1.40
   1  -4  -2    6.49    1.13
   1  -4  -2    6.31    0.97
  -1   4   2    5.95    1.08
  -1   4   2    5.03    0.96
   0  -4  -2   56.73    2.79
   0  -4  -2   48.25    3.14
   0   4   2   54.83    2.96
   0   4   2   47.01    2.85
  -1  -4  -2   26.11    1.79
  -1  -4  -2   24.93    2.26
   1   4   2   29.35    1.99
   1   4   2   28.12    2.15
   1   4   2   29.49    1.77
  -2  -4  -2    0.39    0.66
   2   4   2    0.98    0.97
   2   4   2    0.99    0.78
   2   4   2   -0.36    0.67
  -3  -4  -2    4.74    0.88
   3   4   2    3.23    1.26
   3   4   2    4.36    0.87
   3   4   2    4.22    0.88
  -4  -4  -2    3.17    0.86
   4   4   2    1.82    1.14
   4   4   2    3.20    0.82
  -5  -4  -2   73.87    3.80
   5   4   2   70.49    4.34
   5   4   2   76.58    3.65
   6   4   2   13.87    1.33
   6   4   2   15.17    2.09
   7   4   2    2.07    1.35
   7   4   2    0.22    0.68
   8   4   2    3.76    0.87
   8   4   2    3.02    1.65
   9   4   2    5.36    2.20
   9   4   2    4.28    1.84
  10   4   2   12.09    2.48
  10   4   2    8.61    2.63
  11   4   2    4.57    2.41
  11   4   2    3.48    1.88
  12   4   2   13.29    3.37
  12   4   2    9.36    3.02
  10  -5  -2    8.20    2.97
   9  -5  -2   21.20    3.43
   8  -5  -2   13.83    2.94
   7  -5  -2    6.27    2.11
  -7   5   2    3.83    1.16
   6  -5  -2    1.30    1.58
  -6   5   2   -1.17    0.90
   5  -5  -2   19.15    2.62
  -5   5   2   23.03    2.04
   4  -5  -2   30.82    3.08
  -4   5   2   26.77    2.25
   3  -5  -2    0.56    1.27
  -3   5   2    1.95    0.98
  -3   5   2    0.86    0.59
   2  -5  -2   93.42    5.34
   2  -5  -2  111.54    4.74
  -2   5   2   99.30    4.92
  -2   5   2   95.63    4.68
   1  -5  -2   20.07    1.77
   1  -5  -2   17.00    2.12
  -1   5   2   21.89    1.88
  -1   5   2   20.71    1.78
   0  -5  -2   36.31    2.74
   0  -5  -2   32.09    2.13
   0   5   2   35.30    2.37
   0   5   2   37.15    2.48
  -1  -5  -2   16.51    1.34
  -1  -5  -2   12.75    1.90
   1   5   2   15.36    1.74
   1   5   2   16.12    1.62
  -2  -5  -2   50.56    2.56
   2   5   2   54.18    2.61
   2   5   2   50.55    3.30
   2   5   2   52.00    2.96
  -3  -5  -2  107.72    4.81
   3   5   2  100.18    5.11
   3   5   2  117.58    4.92
   3   5   2  102.51    5.53
  -4  -5  -2    0.43    0.70
   4   5   2    1.08    0.80
   4   5   2    1.18    0.75
   4   5   2    1.23    1.23
   5   5   2   42.63    3.34
   5   5   2   42.73    2.59
   6   5   2    2.94    0.92
   6   5   2    5.75    1.73
   7   5   2   15.89    2.34
   7   5   2   13.55    1.48
   8   5   2    8.17    1.26
   8   5   2   10.88    2.25
   9   5   2    8.73    2.32
   9   5   2    9.33    2.30
  10   5   2   28.48    3.95
  10   5   2   23.58    3.30
  11   5   2    1.14    2.22
  11   5   2    3.61    2.02
  12   5   2    1.32    1.92
  12   5   2   -2.17    2.06
  10  -6  -2   13.03    3.38
   9  -6  -2   -2.95    2.00
   8  -6  -2   24.20    3.76
   7  -6  -2   15.26    2.91
  -7   6   2   19.67    2.06
   6  -6  -2   34.65    3.81
  -6   6   2   36.92    2.75
   5  -6  -2    1.05    1.69
  -5   6   2    0.08    1.08
   4  -6  -2   -0.54    1.40
  -4   6   2    0.15    0.51
  -4   6   2   -0.30    1.03
   3  -6  -2   36.48    3.27
  -3   6   2   40.52    2.34
  -3   6   2   40.84    2.79
   2  -6  -2    2.79    1.39
  -2   6   2    3.44    1.16
  -2   6   2    2.14    0.96
   1  -6  -2    2.70    1.36
   1  -6  -2    2.12    0.94
  -1   6   2    0.47    1.00
  -1   6   2    0.66    0.93
   0  -6  -2    1.85    0.77
   0  -6  -2    2.92    1.44
   0   6   2    1.61    1.07
   0   6   2    1.76    1.09
  -1  -6  -2    1.09    1.27
  -1  -6  -2   -0.07    0.65
   1   6   2   -0.20    0.89
   1   6   2    1.28    1.12
  -2  -6  -2    5.55    0.75
   2   6   2    3.92    1.36
   2   6   2    4.68    1.17
  -3  -6  -2    1.58    0.57
   3   6   2    0.20    0.97
   3   6   2    1.09    0.62
   3   6   2    0.87    1.23
   4   6   2    6.81    1.00
   4   6   2    6.41    1.83
   4   6   2    6.17    1.22
   5   6   2   19.04    1.81
   5   6   2   16.00    2.38
   6   6   2    1.26    1.45
   6   6   2   -1.25    0.85
   7   6   2    2.87    1.03
   7   6   2    0.04    1.48
   8   6   2   -0.56    1.58
   8   6   2   -1.70    0.88
   9   6   2   -0.11    1.73
  10   6   2    1.98    1.94
  10   6   2    2.39    2.05
  11   6   2   -1.55    2.03
  11   6   2    1.85    2.02
   9  -7  -2   -0.23    2.14
   8  -7  -2    2.38    2.09
   7  -7  -2   34.26    4.18
  -7   7   2   22.10    2.34
   6  -7  -2   40.40    4.17
  -6   7   2   36.17    3.08
   5  -7  -2   -0.68    1.71
  -5   7   2    1.82    1.29
   4  -7  -2    9.89    2.19
  -4   7   2    9.27    1.68
   3  -7  -2   19.29    2.77
  -3   7   2   25.96    2.37
  -3   7   2   24.53    1.96
   2  -7  -2   42.54    3.66
  -2   7   2   46.37    3.22
  -2   7   2   47.47    2.97
   1  -7  -2   14.37    2.27
   1  -7  -2   13.15    1.59
  -1   7   2   17.45    1.97
  -1   7   2   17.52    1.99
   0  -7  -2    7.35    1.77
   0  -7  -2    6.70    1.07
   0   7   2    6.60    1.52
   0   7   2    8.45    1.53
  -1  -7  -2   12.04    1.13
  -1  -7  -2    8.29    1.90
   1   7   2    7.52    1.46
   1   7   2   11.63    1.82
   2   7   2   13.42    2.08
   2   7   2   14.96    1.85
   3   7   2   48.30    3.74
   3   7   2   51.50    3.37
   4   7   2   15.38    2.41
   4   7   2   22.38    2.16
   5   7   2   32.91    2.56
   5   7   2   26.20    2.98
   6   7   2   -0.87    0.95
   6   7   2   -0.50    1.55
   7   7   2   35.94    3.84
   7   7   2   34.40    2.70
   8   7   2   15.87    1.92
   8   7   2   11.14    2.63
   9   7   2    3.01    2.25
  10   7   2   -1.32    1.76
  11   7   2    4.00    2.64
  11   7   2    1.25    2.07
   9  -8  -2    6.21    2.71
   8  -8  -2    0.85    2.37
   7  -8  -2    4.00    2.33
  -7   8   2    0.76    1.55
   6  -8  -2    4.44    2.22
  -6   8   2    0.46    1.45
   5  -8  -2    3.35    2.03
  -5   8   2    2.77    1.55
   4  -8  -2    0.84    1.73
  -4   8   2    3.68    1.42
   3  -8  -2    5.87    2.06
  -3   8   2    1.11    1.41
  -3   8   2    2.97    1.12
   2  -8  -2    0.27    1.08
   2  -8  -2    0.14    1.70
  -2   8   2    1.71    1.11
  -2   8   2    0.73    1.33
   1  -8  -2    0.68    0.94
   1  -8  -2   -1.05    1.47
  -1   8   2    0.52    1.13
  -1   8   2   -0.14    1.18
   0  -8  -2    4.78    1.85
   0  -8  -2    4.87    1.03
   0   8   2    5.05    1.53
   0   8   2    4.42    1.49
  -1  -8  -2    6.72    1.94
  -1  -8  -2    9.65    0.99
   1   8   2    7.49    1.60
   1   8   2    7.65    1.89
   2   8   2    1.77    1.46
   2   8   2    2.01    1.25
   3   8   2    0.29    1.50
   3   8   2   -0.38    1.11
   4   8   2    0.36    1.07
   4   8   2    3.37    1.82
   5   8   2    8.44    1.63
   5   8   2    9.59    2.35
   6   8   2    1.33    1.20
   6   8   2    0.01    1.65
   7   8   2    3.79    2.12
   7   8   2    3.32    1.30
   8   8   2    0.07    1.16
   8   8   2    1.01    1.88
   9   8   2   -1.28    1.78
  10   8   2    0.38    1.98
   8  -9  -2    4.26    2.53
   7  -9  -2    0.80    2.17
   6  -9  -2    0.87    2.07
  -6   9   2    2.80    1.61
   5  -9  -2   18.50    3.33
  -5   9   2   26.37    2.86
   4  -9  -2   27.18    3.58
  -4   9   2   30.97    3.02
   3  -9  -2    2.13    2.10
  -3   9   2    2.23    1.61
   2  -9  -2   -0.61    1.72
   2  -9  -2    0.66    1.14
  -2   9   2    0.05    1.38
  -2   9   2    2.87    1.31
   1  -9  -2    0.00    1.66
  -1   9   2   -2.25    1.17
  -1   9   2    0.63    1.49
   0  -9  -2   19.43    2.95
   0   9   2   11.87    2.14
   0   9   2    9.35    1.90
  -1  -9  -2   14.85    2.75
   1   9   2   16.92    2.51
   1   9   2   16.37    2.17
   2   9   2   -1.29    1.46
   2   9   2    0.05    1.19
   3   9   2    4.67    1.89
   3   9   2    8.76    1.75
   4   9   2    2.74    1.80
   4   9   2    1.70    1.31
   5   9   2   14.12    2.05
   5   9   2   22.64    3.21
   6   9   2    0.38    1.98
   6   9   2    4.18    1.55
   7   9   2    3.27    2.09
   7   9   2   -0.14    1.23
   8   9   2    4.11    2.34
   8   9   2   -0.55    1.17
   9   9   2    0.38    2.08
   7 -10  -2   -2.22    2.27
   6 -10  -2   -1.32    2.06
  -6  10   2    1.10    1.70
   5 -10  -2    0.69    2.07
  -5  10   2    5.04    1.86
   4 -10  -2    3.35    2.27
  -4  10   2    7.39    2.09
   3 -10  -2   -0.98    1.91
  -3  10   2    1.58    1.74
   2 -10  -2    0.93    1.93
  -2  10   2   -1.32    1.89
  -2  10   2   -0.57    1.56
   1 -10  -2   -0.25    1.93
  -1  10   2    1.95    1.41
  -1  10   2    0.53    1.55
   0 -10  -2   -1.16    1.88
   0  10   2    2.09    1.65
   0  10   2    0.98    1.58
  -1 -10  -2    3.22    2.13
   1  10   2    5.65    1.90
   1  10   2    5.66    1.85
   2  10   2   -2.89    1.23
   2  10   2    0.58    1.71
   3  10   2    0.56    1.84
   3  10   2    2.65    1.60
   4  10   2    1.76    1.39
   4  10   2   -1.73    1.64
   5  10   2   15.92    3.03
   5  10   2   14.39    2.32
   6  10   2    0.72    2.08
   6  10   2    1.82    1.39
   7  10   2    2.16    1.55
   7  10   2   -0.41    1.96
   8  10   2    2.35    2.43
   8  10   2   -1.53    1.40
   9  10   2    1.00    2.24
   5 -11  -2   -0.44    2.31
  -5  11   2    2.53    1.89
   4 -11  -2   -0.64    2.19
  -4  11   2    1.40    1.82
   3 -11  -2   -2.19    2.01
  -3  11   2   -0.57    1.78
   2 -11  -2    1.17    2.22
  -2  11   2    3.05    1.92
   1 -11  -2    3.88    2.23
  -1  11   2    0.76    1.60
  -1  11   2   -0.26    1.70
   0 -11  -2    0.41    1.93
   0  11   2    8.36    2.16
   0  11   2    6.40    2.04
  -1 -11  -2    4.21    2.32
   1  11   2    3.14    1.75
   1  11   2    1.83    1.86
   2  11   2   -0.97    1.61
   2  11   2   -0.80    1.67
   3  11   2   -0.44    1.53
   3  11   2    1.15    1.87
   4  11   2    1.08    1.59
   4  11   2    3.04    2.19
   5  11   2    0.50    2.11
   5  11   2    1.38    1.58
   6  11   2    0.00    1.55
   6  11   2    1.13    2.19
   7  11   2   -0.81    1.47
   7  11   2    0.74    2.22
   4 -12  -2    0.89    2.50
  -4  12   2   -0.29    1.80
   3 -12  -2    0.96    2.34
  -3  12   2    0.30    1.86
   2 -12  -2    2.05    2.47
  -2  12   2   -1.08    1.81
   1 -12  -2    6.49    2.75
  -1  12   2    4.53    2.22
   0 -12  -2   -1.43    2.03
   0  12   2   -0.83    1.82
   0  12   2    1.99    2.00
   1  12   2   -1.36    1.80
   1  12   2    3.02    1.99
   2  12   2    3.49    2.10
   2  12   2    4.23    2.21
   3  12   2    5.88    2.51
   3  12   2    5.68    2.25
   4  12   2    0.01    1.83
   4  12   2    2.10    2.30
   5  12   2    3.31    2.46
   5  12   2    2.41    1.91
   6  12   2    4.04    2.06
   6  12   2   -2.10    2.08
   0 -13  -2    1.88    2.25
   0  13   2    0.48    2.00
   1  13   2    1.22    2.13
   1  13   2    0.28    2.04
   2  13   2    1.79    2.27
   2  13   2    2.24    2.14
   3  12  -3    9.67    2.51
   3  12  -3    7.94    2.69
   2  12  -3    2.97    2.24
   2  12  -3    1.25    2.09
   1  12  -3   -1.96    1.75
   1  12  -3   -1.01    2.05
   0  12  -3    0.70    1.97
   0  12  -3    3.82    2.11
  -1  12  -3    2.69    2.16
  -1  12  -3    0.33    1.88
   1 -12   3    0.07    2.15
  -2  12  -3    3.94    2.26
   2 -12   3    6.25    2.74
   3 -12   3   -0.07    2.33
   6  11  -3    2.15    2.60
   5  11  -3   -2.70    1.96
   5  11  -3    0.87    1.74
   4  11  -3    1.96    2.03
   4  11  -3    1.22    2.13
   3  11  -3   11.23    2.93
   3  11  -3   12.41    2.47
   2  11  -3   12.33    2.85
   2  11  -3    9.06    2.30
   1  11  -3    1.67    2.01
   1  11  -3    1.85    1.87
   0  11  -3    0.27    1.71
   0  11  -3    2.88    1.97
  -1  11  -3   -0.62    1.85
  -1  11  -3    1.19    1.77
   1 -11   3    3.14    2.39
  -2  11  -3   14.04    2.66
  -2  11  -3    8.41    2.34
   2 -11   3   13.61    3.02
  -3  11  -3   -0.99    1.63
   3 -11   3    2.19    2.23
  -4  11  -3   -2.23    1.65
   4 -11   3   -0.77    2.13
  -5  11  -3   -1.30    1.70
   5 -11   3    0.18    2.27
   7  10  -3   -0.42    2.26
   7  10  -3    4.39    1.86
   6  10  -3    8.53    2.98
   6  10  -3   14.77    2.51
   5  10  -3    8.96    2.16
   5  10  -3    7.17    2.57
   4  10  -3   12.13    2.87
   4  10  -3    8.87    2.20
   3  10  -3   10.37    2.20
   3  10  -3    7.74    2.46
   2  10  -3   12.45    2.66
   2  10  -3   12.60    2.29
   1  10  -3    1.12    1.71
   1  10  -3    5.69    1.93
   0  10  -3   10.26    2.18
   0  10  -3    5.49    2.05
   0 -10   3    9.77    2.48
  -1  10  -3    6.74    2.07
  -1  10  -3    6.93    2.12
   1 -10   3    9.45    2.56
  -2  10  -3    4.36    1.77
  -2  10  -3    1.61    1.72
   2 -10   3    2.39    2.15
  -3  10  -3    8.56    2.09
  -3  10  -3    8.54    2.09
   3 -10   3    8.43    2.50
  -4  10  -3    3.47    1.78
   4 -10   3    3.90    2.37
  -5  10  -3   -1.04    1.50
   5 -10   3    0.33    2.08
  -6  10  -3   -3.64    1.96
   6 -10   3    0.35    2.30
   7 -10   3   -0.87    2.13
   8   9  -3    0.15    1.48
   8   9  -3    1.77    2.26
   7   9  -3   -0.42    1.42
   7   9  -3    0.04    2.10
   6   9  -3   11.21    2.79
   6   9  -3   16.18    2.39
   5   9  -3   22.13    2.75
   5   9  -3   22.39    3.53
   4   9  -3   35.37    4.07
   4   9  -3   32.69    3.27
   3   9  -3    2.12    1.58
   3   9  -3   -0.19    1.71
   2   9  -3    7.11    2.24
   2   9  -3    6.54    1.82
   1   9  -3   11.53    2.13
   1   9  -3   14.43    2.50
   0   9  -3   24.90    3.16
   0   9  -3   25.77    2.72
   0  -9   3   27.06    3.31
  -1   9  -3   17.00    2.44
  -1   9  -3   20.96    2.79
   1  -9   3   18.41    2.94
  -2   9  -3    5.31    1.77
  -2   9  -3    5.26    1.78
   2  -9   3    3.06    1.92
  -3   9  -3    3.28    1.52
  -3   9  -3    2.23    1.51
   3  -9   3   -2.34    1.62
  -4   9  -3   18.59    2.50
  -4   9  -3   15.19    2.30
   4  -9   3   14.91    2.90
  -5   9  -3   11.17    2.08
   5  -9   3   10.12    2.67
  -6   9  -3   -0.06    1.42
   6  -9   3   -1.43    1.98
   7  -9   3    1.11    2.22
   8  -9   3    4.99    2.48
   9   8  -3    2.74    2.45
   8   8  -3    7.00    2.59
   8   8  -3    4.31    1.66
   7   8  -3    6.59    2.50
   7   8  -3    5.19    1.65
   6   8  -3   22.96    2.70
   6   8  -3   25.93    3.66
   5   8  -3   14.36    2.78
   5   8  -3   17.15    2.33
   4   8  -3   10.47    2.49
   4   8  -3   15.78    2.24
   3   8  -3   18.47    2.87
   3   8  -3   14.97    2.26
   2   8  -3    5.49    1.93
   2   8  -3    9.96    1.98
   1   8  -3    9.35    2.06
   1   8  -3   12.48    1.99
   0   8  -3   26.57    2.75
   0   8  -3   29.96    3.13
   0  -8   3   33.74    3.47
  -1   8  -3    9.94    1.88
  -1   8  -3   11.21    2.06
   1  -8   3   14.92    2.42
  -2   8  -3   -0.19    1.25
  -2   8  -3   -0.47    1.23
   2  -8   3   -0.67    1.52
  -3   8  -3    1.41    1.37
  -3   8  -3    3.58    1.53
   3  -8   3    1.49    1.80
  -4   8  -3    1.00    1.26
  -4   8  -3    0.51    1.38
   4  -8   3   -1.41    1.63
  -5   8  -3    6.97    2.38
  -5   8  -3    8.71    1.83
   5  -8   3    9.07    2.42
  -6   8  -3    1.63    1.39
   6  -8   3    5.78    2.35
   7  -8   3   -0.65    1.89
   8  -8   3    3.04    2.37
   9  -8   3   -0.86    2.31
  10   7  -3    2.52    2.35
  10   7  -3    5.84    2.70
   9   7  -3   -0.08    2.03
   8   7  -3   24.34    2.70
   8   7  -3   26.40    3.72
   7   7  -3   91.27    6.18
   7   7  -3   80.45    5.01
   6   7  -3   11.15    1.86
   6   7  -3   11.67    2.56
   5   7  -3    8.78    1.75
   5   7  -3    3.72    1.93
   4   7  -3   13.56    2.52
   4   7  -3   17.88    2.16
   3   7  -3   63.57    4.17
   3   7  -3   69.44    4.74
   2   7  -3   95.20    5.21
   2   7  -3   93.59    5.68
   1   7  -3   30.44    1.69
   1   7  -3   24.16    2.45
   1   7  -3   25.27    2.77
   0   7  -3    0.28    0.72
   0   7  -3   -0.54    1.12
   0   7  -3    1.19    1.33
   0  -7   3    0.75    1.42
  -1   7  -3   12.53    1.37
  -1   7  -3   11.93    1.84
   1  -7   3   12.19    2.08
  -2   7  -3   94.63    5.05
   2  -7   3   90.86    5.43
  -3   7  -3   19.20    2.13
   3  -7   3   17.90    2.53
  -4   7  -3   -0.16    1.14
   4  -7   3   -1.52    1.38
  -5   7  -3    3.15    1.34
   5  -7   3    0.90    1.67
  -6   7  -3    3.68    1.35
   6  -7   3    7.36    2.13
   7  -7   3   15.58    2.89
   8  -7   3    2.24    2.15
   9  -7   3    1.15    2.16
  10  -7   3    1.29    2.23
  10   6  -3   -0.91    1.88
  10   6  -3    0.06    2.37
   9   6  -3    0.53    2.06
   9   6  -3    2.27    2.00
   8   6  -3   25.91    2.58
   8   6  -3   23.64    3.39
   7   6  -3   26.50    3.37
   7   6  -3   32.58    2.85
   7   6  -3   33.32    3.02
   6   6  -3    6.16    1.44
   6   6  -3    5.95    1.49
   6   6  -3    8.49    2.17
   5   6  -3   12.23    2.31
   5   6  -3   17.13    1.99
   5   6  -3   14.35    1.66
   4   6  -3    4.17    1.72
   4   6  -3    6.19    1.43
   4   6  -3    6.22    1.15
   3   6  -3  116.41    5.74
   3   6  -3  106.12    6.19
   3   6  -3  111.30    5.12
   2   6  -3   42.54    2.89
   2   6  -3   38.47    2.17
   2   6  -3   37.70    3.21
   1   6  -3   26.20    1.69
   1   6  -3   24.16    2.67
   1   6  -3   24.84    2.33
  -1  -6   3   26.82    1.70
   0   6  -3    4.03    1.26
   0   6  -3    4.76    0.94
   0  -6   3    3.35    0.90
   0  -6   3    2.83    1.38
  -1   6  -3    0.89    1.05
  -1   6  -3    0.99    0.81
   1  -6   3    0.39    1.22
  -2   6  -3   67.31    4.14
  -2   6  -3   81.62    4.07
   2  -6   3   75.39    4.54
  -3   6  -3   60.31    3.65
  -3   6  -3   63.74    3.64
   3  -6   3   59.89    4.13
  -4   6  -3    4.88    1.19
   4  -6   3    1.67    1.55
  -5   6  -3    5.06    1.27
   5  -6   3    3.45    1.75
  -6   6  -3    7.50    1.42
   6  -6   3    6.24    2.01
   7  -6   3   11.04    2.49
   8  -6   3    1.30    2.05
   9  -6   3   -0.26    2.03
  10  -6   3    9.80    2.94
  11   5  -3   -0.90    2.31
  10   5  -3   26.74    3.56
  10   5  -3   24.05    3.83
   9   5  -3   41.65    4.60
   9   5  -3   37.07    4.02
   8   5  -3   12.35    1.81
   8   5  -3   13.15    2.69
   8   5  -3   12.37    2.57
   7   5  -3    5.35    1.60
   7   5  -3   10.42    2.24
   7   5  -3    8.44    1.54
   6   5  -3   12.09    2.30
   6   5  -3   12.33    1.76
   6   5  -3   12.43    1.87
   5   5  -3  136.41    6.64
   5   5  -3  141.48    6.76
   5   5  -3  141.79    7.45
   4   5  -3  138.61    7.27
   4   5  -3  145.16    6.77
   4   5  -3  136.51    6.47
   3   5  -3    8.84    1.68
   3   5  -3   10.55    1.50
   3   5  -3   11.01    1.30
   2   5  -3    9.89    1.44
   2   5  -3    9.68    1.79
   2   5  -3   11.26    1.20
   1   5  -3   85.54    4.18
   1   5  -3   97.11    4.69
  -1  -5   3   88.88    4.19
   0   5  -3  134.86    6.51
   0   5  -3  140.38    6.18
   0  -5   3  139.26    6.71
  -1   5  -3   60.43    3.20
  -1   5  -3   60.55    3.42
   1  -5   3   57.63    3.58
  -2   5  -3    8.71    1.33
  -2   5  -3    5.78    1.18
   2  -5   3    8.02    1.52
  -3   5  -3    2.55    1.07
  -3   5  -3    1.18    0.99
   3  -5   3    0.89    1.20
  -4   5  -3   39.65    2.64
  -4   5  -3   39.14    2.91
   4  -5   3   44.57    3.32
  -5   5  -3   29.76    2.20
   5  -5   3   23.35    2.76
  -6   5  -3    0.30    0.84
   6  -5   3   -1.21    1.48
   7  -5   3    1.40    1.75
   8  -5   3    0.85    1.88
   9  -5   3    9.79    2.76
  10  -5   3    2.39    2.38
  11  -5   3    1.11    2.41
  11   4  -3    5.87    2.82
  10   4  -3    8.28    2.33
  10   4  -3    7.48    2.71
   9   4  -3   51.53    4.70
   9   4  -3   54.90    4.38
   8   4  -3    8.05    1.49
   8   4  -3    6.53    1.99
   8   4  -3    4.04    2.10
   7   4  -3    0.40    1.02
   7   4  -3    1.54    1.58
   7   4  -3    0.85    1.47
   6   4  -3   90.62    4.78
   6   4  -3   89.88    5.38
   5   4  -3  101.46    5.31
   5   4  -3  110.59    5.95
   5   4  -3  108.20    5.52
   4   4  -3  101.24    5.62
   4   4  -3  104.78    5.12
   4   4  -3  105.10    5.16
   3   4  -3   18.24    2.21
   3   4  -3   24.80    1.80
   3   4  -3   16.18    1.72
   2   4  -3    1.55    0.86
   2   4  -3    0.31    0.88
   1   4  -3   48.90    2.96
   1   4  -3   47.97    2.73
  -1  -4   3   51.13    2.65
   0   4  -3  254.42   11.19
   0   4  -3  257.32   10.99
   0  -4   3  255.22   11.27
   0  -4   3  266.59   11.05
  -1   4  -3   77.54    4.05
  -1   4  -3   81.75    3.97
   1  -4   3   79.66    4.20
  -2   4  -3   28.15    2.09
  -2   4  -3   27.91    2.17
   2  -4   3   32.15    2.33
  -3   4  -3    2.50    1.08
  -3   4  -3    2.15    0.87
   3  -4   3    1.76    1.17
  -4   4  -3   19.81    2.16
  -4   4  -3   19.83    1.68
   4  -4   3   21.32    2.29
  -5   4  -3   64.22    3.30
  -5   4  -3   59.08    3.90
   5  -4   3   67.64    4.13
  -6   4  -3    2.11    0.82
   6  -4   3    2.88    1.58
   7  -4   3   36.79    3.59
   8  -4   3    3.24    1.86
   9  -4   3    3.62    2.29
  10  -4   3    2.96    2.26
  11  -4   3   -1.64    2.12
  11   3  -3    6.95    2.82
  10   3  -3    5.97    2.45
   9   3  -3    5.11    1.85
   9   3  -3    8.93    2.55
   8   3  -3   16.69    2.77
   8   3  -3   20.01    2.02
   8   3  -3   18.32    2.60
   7   3  -3   85.78    4.56
   7   3  -3   86.80    5.46
   7   3  -3   86.13    5.16
   6   3  -3  118.66    5.63
   6   3  -3  113.75    6.19
   6   3  -3  113.96    6.23
   5   3  -3   12.33    1.89
   5   3  -3   14.41    1.59
   4   3  -3   84.51    4.18
   4   3  -3   79.18    4.38
   4   3  -3   80.48    4.55
   3   3  -3   77.18    4.09
   3   3  -3   82.09    4.08
   2   3  -3  353.74   14.70
   2   3  -3  342.04   14.73
   1   3  -3   73.30    3.72
   1   3  -3   74.17    3.79
  -1  -3   3   74.47    3.64
   0   3  -3   21.79    1.77
   0   3  -3   21.49    1.78
   0   3  -3   19.69    1.76
   0  -3   3   21.79    1.77
   0  -3   3   19.48    1.76
  -1   3  -3  163.51    7.35
  -1   3  -3  152.78    7.30
  -1   3  -3  174.52    7.37
   1  -3   3  171.75    7.39
  -2   3  -3   56.49    3.06
  -2   3  -3   56.39    3.18
   2  -3   3   60.78    3.23
  -3   3  -3   25.01    2.24
  -3   3  -3   26.43    1.84
   3  -3   3   27.95    2.26
  -4   3  -3   49.59    2.71
  -4   3  -3   51.96    3.24
   4  -3   3   55.57    3.33
  -5   3  -3    2.22    1.21
  -5   3  -3    3.15    0.76
   5  -3   3    2.09    1.31
  -6   3  -3    8.02    0.91
   6  -3   3    5.39    1.59
  -7   3  -3   12.89    1.10
   7  -3   3   13.58    2.36
   8  -3   3    1.18    1.68
   9  -3   3    2.67    1.92
  10  -3   3    7.54    2.44
  11  -3   3    5.40    2.54
  12  -3   3   -1.34    2.14
  11   2  -3    8.80    2.96
  10   2  -3   -1.14    1.95
   9   2  -3    0.32    1.27
   9   2  -3    0.99    1.81
   8   2  -3   32.30    3.65
   8   2  -3   35.68    2.47
   8   2  -3   33.15    3.17
   7   2  -3   91.47    4.61
   7   2  -3   85.49    5.00
   7   2  -3   94.37    5.53
   6   2  -3  124.83    6.52
   6   2  -3  119.74    6.22
   6   2  -3  122.71    5.82
   5   2  -3    3.89    1.40
   5   2  -3    0.24    0.84
   5   2  -3    1.73    1.15
   4   2  -3    1.39    0.99
   4   2  -3    1.27    0.84
   3   2  -3  263.33   11.33
   3   2  -3  255.76   11.14
   2   2  -3  328.30   13.99
   2   2  -3  330.73   13.91
   1   2  -3   44.83    2.32
   1   2  -3   36.92    2.39
   1   2  -3   37.79    2.50
  -1  -2   3   39.13    2.38
   0   2  -3   20.14    1.63
   0   2  -3   19.28    1.49
   0   2  -3   19.27    1.78
   0  -2   3   20.25    1.47
   0  -2   3   18.64    1.74
  -1   2  -3    2.86    1.02
  -1   2  -3    1.74    0.76
  -1   2  -3    2.34    0.83
   1  -2   3    2.82    0.79
  -2   2  -3  134.41    5.74
  -2   2  -3  127.64    5.82
  -2   2  -3  126.20    5.97
   2  -2   3  128.12    5.81
  -3   2  -3  245.29   10.03
  -3   2  -3  238.82   10.44
   3  -2   3  228.96   10.32
  -4   2  -3    5.89    0.81
  -4   2  -3    4.03    1.26
   4  -2   3    3.10    1.18
   4  -2   3    4.63    1.18
  -5   2  -3   53.75    2.54
  -5   2  -3   52.31    3.41
   5  -2   3   49.33    3.35
   5  -2   3   51.92    3.17
  -6   2  -3    3.20    0.54
  -6   2  -3    0.35    1.11
   6  -2   3    2.50    1.07
   6  -2   3    2.69    1.42
   7  -2   3   30.50    2.45
   7  -2   3   25.05    2.94
   8  -2   3   25.53    2.34
   8  -2   3   28.08    3.22
   9  -2   3   18.98    2.62
   9  -2   3   21.16    3.06
  10  -2   3    6.37    2.25
  11  -2   3    4.72    2.32
  12  -2   3    4.43    2.57
  11   1  -3    1.61    2.33
  10   1  -3   27.19    3.83
   9   1  -3   17.31    2.95
   8   1  -3   40.04    2.66
   8   1  -3   38.65    3.00
   8   1  -3   44.33    4.14
   7   1  -3   71.44    4.65
   7   1  -3   67.41    3.73
   7   1  -3   71.54    4.11
   6   1  -3   14.72    2.26
   6   1  -3   17.12    1.92
   5   1  -3  157.80    7.58
   5   1  -3  155.96    7.31
   4   1  -3  142.19    6.66
   4   1  -3  145.30    6.78
   3   1  -3   77.06    3.97
   3   1  -3   78.44    4.17
   2   1  -3  171.81    7.71
   1   1  -3  143.68    6.80
  -1  -1   3  159.55    6.82
   0   1  -3   60.16    2.61
   0   1  -3   49.88    3.10
   0  -1   3   62.24    3.14
  -1   1  -3   54.81    3.11
  -1   1  -3   56.77    2.63
   1  -1   3   56.46    2.62
   1  -1   3   61.07    3.11
  -2   1  -3  109.61    5.13
  -2   1  -3  121.49    5.48
   2  -1   3  123.40    5.51
   2  -1   3  112.18    5.13
  -3   1  -3   27.19    1.69
  -3   1  -3   29.56    2.26
  -3   1  -3   30.08    2.00
   3  -1   3   28.04    2.17
   3  -1   3   29.94    2.06
  -4   1  -3   23.82    1.44
  -4   1  -3   21.37    2.08
   4  -1   3   25.32    2.06
   4  -1   3   24.73    2.06
  -5   1  -3    1.08    1.04
   5  -1   3    1.75    0.97
   5  -1   3    2.32    1.15
  -6   1  -3    0.65    1.06
   6  -1   3    1.83    1.01
   6  -1   3    2.08    1.26
   7  -1   3   19.57    2.52
   7  -1   3   15.77    1.96
   8  -1   3    0.94    1.48
   8  -1   3    0.70    1.21
   9  -1   3   -1.25    1.59
   9  -1   3    1.06    1.18
  10  -1   3    1.63    1.77
  11  -1   3   -1.20    1.79
  12  -1   3    4.57    2.55
  11   0  -3    1.23    2.28
  10   0  -3   24.88    3.72
   9   0  -3   68.30    5.18
   8   0  -3   43.87    3.82
   8   0  -3   37.83    2.71
   7   0  -3   -0.46    1.30
   7   0  -3    0.28    0.90
   6   0  -3    7.25    1.26
   6   0  -3    8.34    1.75
   5   0  -3  452.31   18.52
   5   0  -3  428.22   18.94
   4   0  -3  322.90   13.97
   3   0  -3  125.90    5.86
   2   0  -3   26.78    2.22
   2   0  -3   26.19    1.76
   1   0  -3  209.77    8.97
   1   0  -3  210.65    9.08
   1   0  -3  203.97    8.66
   0   0  -3  849.48   38.41
   0   0  -3 1000.00   38.44
   0   0   3  956.07   38.43
   0   0   3  955.66   38.46
  -1   0  -3  169.62    7.99
  -1   0  -3  179.58    8.02
   1   0   3  182.88    8.03
   1   0   3  194.81    7.50
   1   0   3  182.47    8.03
  -2   0  -3   16.58    1.68
   2   0   3   18.02    1.34
   2   0   3   19.58    1.78
  -3   0  -3   -0.28    0.95
   3   0   3    0.37    0.76
   3   0   3    0.25    0.90
  -4   0  -3   18.08    1.92
  -4   0  -3   19.73    1.13
   4   0   3   12.96    1.70
   4   0   3   17.83    1.75
  -5   0  -3  281.33   12.89
   5   0   3  309.70   12.94
  -6   0  -3   33.45    2.80
  -7   0  -3   20.47    2.34
   7   0   3   24.16    2.68
   8   0   3    5.42    1.79
   8   0   3    2.31    1.38
   9   0   3   38.80    3.69
   9   0   3   25.23    2.89
  10   0   3    9.10    2.45
  10   0   3    8.65    2.00
  11   0   3   -0.97    1.87
  12   0   3    1.13    2.21
  11  -1  -3    5.33    2.59
  10  -1  -3   17.60    3.32
   9  -1  -3   12.13    2.68
   8  -1  -3   31.33    3.54
   7  -1  -3   37.57    2.35
   7  -1  -3   45.03    3.65
   6  -1  -3    5.27    1.68
   6  -1  -3    6.37    1.00
   5  -1  -3  128.21    6.72
   5  -1  -3  137.69    6.00
   4  -1  -3  157.68    7.42
   3  -1  -3   26.01    2.07
   3  -1  -3   26.16    1.70
   2  -1  -3   29.45    2.45
   2  -1  -3   34.39    1.96
   2  -1  -3   33.08    2.12
  -2   1   3   33.38    2.12
   1  -1  -3   74.44    3.61
   1  -1  -3   70.91    3.87
   1  -1  -3   74.97    3.51
  -1   1   3   72.84    3.64
  -1   1   3   80.93    3.54
   0  -1  -3  172.80    7.85
   0  -1  -3  189.01    7.68
   0  -1  -3  173.75    7.42
   0   1   3  175.95    7.84
   0   1   3  180.24    7.42
   0   1   3  176.54    7.76
  -1  -1  -3  106.29    5.15
  -1  -1  -3  119.23    5.13
  -1  -1  -3  109.17    4.83
   1   1   3  104.54    4.68
   1   1   3  111.51    5.11
   1   1   3   99.60    5.07
  -2  -1  -3   20.81    1.86
  -2  -1  -3   19.37    1.41
  -3  -1  -3   26.92    1.50
  -3  -1  -3   22.69    1.98
   3   1   3   23.15    2.04
  -4  -1  -3   20.05    1.22
  -4  -1  -3   18.67    1.89
   4   1   3   19.32    1.89
   4   1   3   21.88    1.93
  -5  -1  -3   96.36    5.04
  -5  -1  -3   94.87    4.15
   5   1   3  101.25    5.12
   5   1   3  100.37    5.03
  -6  -1  -3    8.25    1.60
   6   1   3    9.75    1.66
   6   1   3   11.23    1.63
  -7  -1  -3    6.01    1.59
   7   1   3    5.11    1.56
   7   1   3    6.91    1.51
   8   1   3   23.69    2.59
   8   1   3   25.88    2.95
   9   1   3   16.80    2.34
   9   1   3   14.49    2.56
  10   1   3   10.51    2.58
  10   1   3   10.33    2.15
  11   1   3    1.23    2.00
  12   1   3    0.03    2.05
  11  -2  -3   22.11    3.92
  10  -2  -3    1.93    2.05
   9  -2  -3    1.22    2.02
   8  -2  -3   28.89    3.38
   7  -2  -3  107.22    6.25
   6  -2  -3  222.75   10.58
   5  -2  -3    4.93    1.49
   5  -2  -3    4.55    0.62
   4  -2  -3    6.23    1.46
   4  -2  -3    8.10    0.82
   3  -2  -3  183.28    7.80
   2  -2  -3  393.00   16.57
   2  -2  -3  403.15   16.32
   2  -2  -3  389.58   16.77
  -2   2   3  392.06   16.29
  -2   2   3  392.35   16.46
   1  -2  -3  182.50    7.74
   1  -2  -3  170.24    7.79
   1  -2  -3  188.31    8.03
  -1   2   3  170.40    7.78
  -1   2   3  175.87    7.74
  -1   2   3  189.58    7.83
   0  -2  -3    3.85    1.05
   0  -2  -3    6.58    1.08
   0  -2  -3    5.82    0.96
   0   2   3    5.89    1.13
   0   2   3    6.06    1.02
   0   2   3    6.99    0.97
  -1  -2  -3    7.11    1.27
   1   2   3    6.24    0.97
   1   2   3    5.75    1.16
   1   2   3    6.23    0.96
   1   2   3    7.38    1.21
  -2  -2  -3  141.85    6.83
  -2  -2  -3  159.48    6.65
   2   2   3  155.13    6.62
   2   2   3  146.93    7.13
   2   2   3  160.27    7.01
  -3  -2  -3  254.84   10.63
  -3  -2  -3  234.96   10.92
   3   2   3  272.11   10.66
  -5  -2  -3   13.57    1.65
  -5  -2  -3    9.00    0.83
   5   2   3    7.81    1.45
   5   2   3   10.08    0.87
  -6  -2  -3   -1.01    1.00
  -6  -2  -3    0.94    0.48
   6   2   3    1.62    1.28
   6   2   3    0.52    0.47
   6   2   3    1.68    1.12
   7   2   3   21.46    2.47
   7   2   3   21.06    2.30
   8   2   3   16.21    2.10
   8   2   3   12.25    2.22
   9   2   3    1.43    1.64
   9   2   3    2.37    1.51
  10   2   3    5.27    1.74
  10   2   3    6.20    2.29
  11   2   3   -0.27    1.44
  11   2   3    2.16    2.10
  12   2   3    1.10    2.19
  11  -3  -3   12.38    3.34
  10  -3  -3   11.49    2.95
   9  -3  -3    0.74    2.10
   8  -3  -3    4.50    2.14
   7  -3  -3   61.04    4.54
   6  -3  -3  132.58    7.08
   5  -3  -3    9.47    1.79
   4  -3  -3   30.51    2.62
  -4   3   3   28.80    2.17
   3  -3  -3   92.52    4.11
   3  -3  -3   93.89    4.91
  -3   3   3   96.16    4.55
   2  -3  -3  446.24   19.07
   2  -3  -3  459.17   18.54
   2  -3  -3  447.22   18.97
  -2   3   3  449.67   18.75
  -2   3   3  447.32   18.53
   1  -3  -3  165.38    7.37
   1  -3  -3  148.67    7.38
   1  -3  -3  168.24    7.16
  -1   3   3  168.20    7.19
  -1   3   3  164.89    7.25
   0  -3  -3   -0.16    0.88
   0  -3  -3    0.34    0.91
   0  -3  -3    0.77    0.91
   0   3   3    0.84    0.85
   0   3   3    0.32    0.85
  -1  -3  -3   78.98    3.99
  -1  -3  -3   88.65    4.04
   1   3   3   72.79    3.94
   1   3   3   84.84    3.95
   1   3   3   77.94    4.08
  -2  -3  -3  127.92    6.14
   2   3   3  139.28    6.43
   2   3   3  131.27    6.07
   2   3   3  146.15    6.22
  -3  -3  -3  216.78    9.78
   3   3   3  229.76   10.13
   3   3   3  231.40    9.63
  -4  -3  -3  102.48    5.08
   4   3   3  106.44    4.76
   4   3   3  105.79    5.42
  -5  -3  -3   42.27    2.84
   5   3   3   43.62    2.36
   5   3   3   48.42    3.21
  -6  -3  -3    3.35    1.27
   6   3   3    1.38    1.25
   6   3   3    3.96    0.74
  -7  -3  -3   75.30    4.43
   7   3   3   74.51    4.71
   7   3   3   82.70    4.75
   7   3   3   78.35    3.60
   8   3   3   31.27    3.49
   8   3   3   41.42    3.30
   9   3   3    4.65    2.05
   9   3   3    4.49    1.73
  10   3   3    0.37    1.57
  10   3   3   -0.47    1.79
  11   3   3    1.08    2.08
  11   3   3    0.26    1.63
  12   3   3    1.06    2.35
  11  -4  -3    1.84    2.41
  10  -4  -3    8.84    2.81
   9  -4  -3   38.77    4.27
   8  -4  -3   16.21    3.03
   7  -4  -3   -0.04    1.66
   6  -4  -3   41.44    3.68
   5  -4  -3   50.36    3.86
  -5   4   3   47.19    3.02
   4  -4  -3   98.32    5.48
  -4   4   3  101.36    4.95
   3  -4  -3   59.83    2.58
   3  -4  -3   57.51    3.56
  -3   4   3   43.71    2.60
  -3   4   3   55.20    3.11
   2  -4  -3   -0.37    0.57
   2  -4  -3   -0.59    1.07
   2  -4  -3   -1.05    0.95
  -2   4   3    2.25    1.01
   1  -4  -3   20.14    1.65
   1  -4  -3   22.63    2.10
   1  -4  -3   19.84    1.90
  -1   4   3   19.46    1.66
  -1   4   3   22.85    1.90
   0  -4  -3  122.97    5.44
   0  -4  -3  116.62    5.60
   0   4   3  111.69    5.45
   0   4   3  109.48    5.35
  -1  -4  -3   80.06    4.09
  -1  -4  -3   71.90    3.76
   1   4   3   76.99    4.03
   1   4   3   77.83    3.83
   1   4   3   70.61    3.76
  -2  -4  -3    1.05    0.85
   2   4   3    1.45    1.08
   2   4   3    3.23    0.97
   2   4   3    2.34    0.85
  -3  -4  -3    1.22    0.84
   3   4   3    0.03    0.93
   3   4   3    1.16    0.75
  -4  -4  -3    6.45    1.16
   4   4   3    5.99    0.99
   4   4   3    5.46    1.38
  -5  -4  -3    3.34    1.07
   5   4   3    5.72    0.97
   5   4   3    3.16    1.35
  -6  -4  -3    8.03    1.50
   6   4   3    6.04    1.68
   6   4   3    7.43    1.03
   7   4   3    3.28    1.54
   7   4   3    2.19    0.80
   8   4   3    0.29    0.76
   8   4   3    1.18    1.55
   9   4   3    3.17    1.66
   9   4   3    3.78    2.07
  10   4   3   -1.53    1.84
  10   4   3    2.69    1.78
  11   4   3    3.95    2.37
  11   4   3    7.07    2.25
  12   4   3    2.84    2.58
  12   4   3    0.50    1.85
  10  -5  -3   14.31    3.39
   9  -5  -3   26.13    3.97
   8  -5  -3   34.75    4.04
   7  -5  -3   14.18    2.76
   6  -5  -3    2.98    1.79
  -6   5   3    3.84    1.25
   5  -5  -3  143.49    7.70
  -5   5   3  148.22    6.94
   4  -5  -3  259.87   11.66
  -4   5   3  240.06   10.95
   3  -5  -3   56.06    2.82
   3  -5  -3   60.86    3.88
  -3   5   3   55.04    3.36
   2  -5  -3   17.53    1.53
   2  -5  -3   17.34    1.96
   2  -5  -3   20.28    2.31
  -2   5   3   17.40    1.55
  -2   5   3   17.33    1.84
   1  -5  -3   42.67    2.82
   1  -5  -3   46.05    3.16
  -1   5   3   44.96    2.66
  -1   5   3   42.65    2.77
   0  -5  -3  268.28   12.08
   0  -5  -3  289.68   11.76
   0   5   3  279.96   11.89
   0   5   3  249.92   11.74
  -1  -5  -3  268.39   12.37
  -1  -5  -3  287.90   11.93
   1   5   3  281.21   12.09
   1   5   3  271.84   12.26
   1   5   3  287.12   12.02
  -2  -5  -3   14.17    1.40
   2   5   3   10.30    1.40
   2   5   3   16.92    1.50
   2   5   3   11.34    1.67
  -3  -5  -3   10.53    1.30
   3   5   3    9.94    1.29
   3   5   3   10.70    1.79
   3   5   3    9.47    1.54
  -4  -5  -3   41.34    2.49
   4   5   3   37.73    3.08
   4   5   3   39.59    2.55
  -5  -5  -3   98.70    4.77
   5   5   3   87.76    5.38
   5   5   3  102.52    4.76
  -6  -5  -3   33.35    2.43
   6   5   3   24.38    2.82
   6   5   3   29.37    2.14
   7   5   3    3.17    1.02
   7   5   3    4.70    1.75
   8   5   3   10.53    2.28
   8   5   3    9.04    1.26
   9   5   3    3.96    1.86
  10   5   3   16.96    2.96
  10   5   3   18.56    3.27
  11   5   3   -2.11    1.62
  11   5   3   -1.73    1.86
  12   5   3    2.08    2.60
  12   5   3   -0.69    1.91
  10  -6  -3    0.51    2.24
   9  -6  -3    0.42    2.08
   8  -6  -3    7.71    2.59
   7  -6  -3   27.65    3.61
  -7   6   3   35.25    2.86
   6  -6  -3    8.94    2.35
  -6   6   3    9.85    1.66
   5  -6  -3   38.34    3.75
  -5   6   3   25.30    2.48
   4  -6  -3   11.18    2.21
  -4   6   3   13.47    1.78
   3  -6  -3   60.70    4.18
  -3   6   3   59.92    3.13
  -3   6   3   62.53    3.68
   2  -6  -3   47.04    3.58
   2  -6  -3   47.12    3.21
  -2   6   3   51.50    2.88
  -2   6   3   45.61    3.12
   1  -6  -3   46.90    2.98
   1  -6  -3   44.97    3.44
  -1   6   3   44.58    3.02
  -1   6   3   48.57    2.95
   0  -6  -3   52.69    3.64
   0  -6  -3   53.53    3.11
   0   6   3   57.29    3.35
   0   6   3   54.53    3.40
  -1  -6  -3    4.72    1.52
  -1  -6  -3    5.64    1.08
   1   6   3    4.62    1.36
   1   6   3    3.42    1.13
  -2  -6  -3   56.97    3.08
   2   6   3   55.28    3.40
   2   6   3   61.92    3.14
   2   6   3   61.16    3.81
  -3  -6  -3   31.71    1.95
   3   6   3   25.83    2.29
   3   6   3   29.50    2.79
   3   6   3   28.99    2.00
  -4  -6  -3    1.71    0.83
   4   6   3    1.76    1.45
   4   6   3    0.19    0.95
  -5  -6  -3   48.85    2.77
   5   6   3   42.79    3.62
   5   6   3   44.51    2.91
   6   6   3    2.19    1.59
   6   6   3    1.41    0.98
   7   6   3    1.53    0.97
   7   6   3   -0.77    1.45
   8   6   3    0.11    0.98
   8   6   3    1.65    1.77
   9   6   3    9.43    2.50
  10   6   3    0.85    1.86
  10   6   3    3.76    2.27
  11   6   3    2.14    2.19
  11   6   3    2.31    2.43
   9  -7  -3    2.99    2.54
   8  -7  -3    5.13    2.36
   7  -7  -3   51.77    5.15
  -7   7   3   50.24    3.57
   6  -7  -3   19.91    3.10
  -6   7   3   26.36    2.54
   5  -7  -3   18.70    2.98
  -5   7   3   18.27    2.22
   4  -7  -3   -0.20    1.56
  -4   7   3   -0.65    1.19
   3  -7  -3   16.03    2.51
  -3   7   3   12.01    1.87
  -3   7   3   12.60    1.42
   2  -7  -3  146.87    7.73
   2  -7  -3  145.42    7.21
  -2   7   3  149.62    7.20
  -2   7   3  147.84    6.94
   1  -7  -3   67.79    3.92
   1  -7  -3   79.17    4.73
  -1   7   3   66.49    4.01
  -1   7   3   68.82    4.08
   0  -7  -3   -2.43    1.23
   0  -7  -3   -0.41    0.90
   0   7   3    0.32    1.08
   0   7   3    1.74    1.11
  -1  -7  -3    3.40    1.66
  -1  -7  -3    3.92    0.99
   1   7   3   -0.22    1.10
   1   7   3    3.51    1.41
  -2  -7  -3   53.78    2.81
   2   7   3   50.02    3.69
   2   7   3   52.85    3.37
  -3  -7  -3   62.96    3.09
   3   7   3   60.51    4.25
   3   7   3   64.41    3.23
   3   7   3   59.12    3.71
  -4  -7  -3    4.36    0.91
   4   7   3    6.86    1.40
   4   7   3    4.79    1.75
  -5  -7  -3    3.53    0.93
   5   7   3    4.05    1.78
   5   7   3    3.23    1.22
   6   7   3    5.54    1.97
   6   7   3    5.38    1.35
   7   7   3    9.50    1.64
   7   7   3    9.81    2.42
   8   7   3    8.98    1.58
   8   7   3    8.84    2.42
   9   7   3    1.75    1.88
  10   7   3    5.65    2.47
  11   7   3    1.22    2.28
  11   7   3    5.54    2.65
   8  -8  -3    0.03    2.37
   7  -8  -3    3.54    2.46
  -7   8   3    5.78    1.73
   6  -8  -3   32.31    3.90
  -6   8   3   41.12    3.32
   5  -8  -3   24.80    3.40
  -5   8   3   28.00    2.83
   4  -8  -3   20.87    3.16
  -4   8   3   24.20    2.59
   3  -8  -3   36.36    3.79
   3  -8  -3   41.49    3.29
  -3   8   3   39.94    3.36
   2  -8  -3   31.01    3.49
   2  -8  -3   33.81    2.84
  -2   8   3   35.09    3.06
  -2   8   3   33.74    2.70
   1  -8  -3   53.80    3.44
   1  -8  -3   59.39    4.41
  -1   8   3   55.86    3.82
  -1   8   3   57.01    3.77
   0  -8  -3   25.25    3.03
   0  -8  -3   31.87    2.35
   0   8   3   30.40    2.88
   0   8   3   33.08    2.87
  -1  -8  -3   12.13    2.34
  -1  -8  -3   14.48    1.51
   1   8   3   10.94    2.03
   1   8   3   12.55    1.96
  -2  -8  -3   38.10    2.36
   2   8   3   34.77    2.96
   2   8   3   37.62    3.49
   3   8   3   47.87    3.30
   3   8   3   44.78    3.82
   4   8   3    4.93    1.45
   4   8   3    6.68    1.92
   5   8   3    1.07    1.22
   5   8   3    0.75    1.60
   6   8   3    1.31    1.81
   6   8   3    2.88    1.33
   7   8   3   10.26    1.73
   7   8   3    5.43    2.23
   8   8   3    6.19    1.54
   8   8   3    8.15    2.60
   9   8   3    2.15    2.12
  10   8   3   -2.15    2.08
   8  -9  -3    4.12    2.52
   7  -9  -3   -1.19    2.08
   6  -9  -3    1.02    2.16
  -6   9   3    2.25    1.69
   5  -9  -3   13.03    2.81
  -5   9   3   11.09    2.27
   4  -9  -3   46.61    3.81
   4  -9  -3   44.35    4.71
  -4   9   3   48.04    4.00
   3  -9  -3   15.61    2.19
   3  -9  -3    9.92    2.55
  -3   9   3   17.68    2.36
   2  -9  -3   -0.53    1.69
   2  -9  -3   -0.04    1.14
  -2   9   3    0.19    1.43
  -2   9   3    2.51    1.24
   1  -9  -3    4.30    2.00
  -1   9   3    4.62    1.65
  -1   9   3    4.60    1.56
   0  -9  -3   27.57    3.42
   0   9   3   29.60    3.05
   0   9   3   28.09    2.91
  -1  -9  -3   71.05    5.20
   1   9   3   79.26    5.06
   1   9   3   73.32    4.71
   2   9   3    2.75    1.74
   2   9   3    2.69    1.49
   3   9   3    0.60    1.65
   3   9   3    1.20    1.33
   4   9   3   10.19    2.46
   4   9   3    9.28    1.83
   5   9   3    6.44    1.71
   5   9   3    4.72    2.21
   6   9   3   16.71    3.01
   6   9   3   14.73    2.12
   7   9   3   -0.87    1.90
   7   9   3    0.34    1.25
   8   9   3    1.28    2.17
   8   9   3    1.17    1.38
   9   9   3   -2.36    1.95
   6 -10  -3    8.14    2.76
  -6  10   3    5.96    2.01
   5 -10  -3    3.62    2.48
  -5  10   3    0.96    1.79
   4 -10  -3   18.09    3.42
  -4  10   3   21.92    2.89
   3 -10  -3   22.12    3.53
  -3  10   3   28.40    3.16
   2 -10  -3    1.95    2.08
  -2  10   3    2.34    1.72
   1 -10  -3    4.54    2.14
  -1  10   3    4.22    1.82
  -1  10   3    4.10    1.66
   0 -10  -3   18.45    3.24
   0  10   3   19.69    2.72
   0  10   3   21.89    2.76
  -1 -10  -3   21.88    3.17
   1  10   3   26.69    3.23
   1  10   3   28.29    3.00
   2  10   3    4.81    1.72
   2  10   3    3.46    1.94
   3  10   3   -0.68    1.38
   3  10   3    1.71    1.87
   4  10   3    7.72    1.89
   4  10   3    5.12    2.19
   5  10   3    6.83    1.83
   5  10   3    6.78    2.48
   6  10   3   10.26    2.67
   6  10   3    7.43    1.86
   7  10   3    1.14    2.16
   7  10   3    2.32    1.53
   8  10   3    0.93    1.42
   8  10   3    0.62    2.15
   9  10   3    1.57    2.58
   5 -11  -3    4.20    2.80
  -5  11   3    4.09    2.00
   4 -11  -3    0.12    2.32
  -4  11   3    3.81    1.96
   3 -11  -3    2.53    2.20
  -3  11   3    5.92    2.14
   2 -11  -3   29.03    4.03
  -2  11   3   31.41    3.44
   1 -11  -3    8.32    2.70
  -1  11   3   14.62    2.57
   0 -11  -3    1.16    2.18
   0  11   3    5.91    2.12
   0  11   3    4.51    1.89
  -1 -11  -3    2.81    2.21
   1  11   3    3.76    1.76
   1  11   3    5.49    2.13
   2  11   3    5.32    2.27
   2  11   3    3.85    1.96
   3  11   3   14.09    2.57
   3  11   3   10.56    2.75
   4  11   3    8.11    2.70
   4  11   3    8.09    2.16
   5  11   3    1.36    1.60
   5  11   3    0.26    2.18
   6  11   3    0.85    1.57
   6  11   3    0.70    2.37
   7  11   3    2.21    1.69
   7  11   3    2.19    2.47
   3 -12  -3   -1.51    2.27
  -3  12   3    1.56    2.03
   2 -12  -3   12.80    3.22
  -2  12   3   12.11    2.61
   1 -12  -3    6.55    2.60
  -1  12   3   11.27    2.49
   0 -12  -3    4.35    2.39
   0  12   3    4.26    2.56
   0  12   3    3.98    2.11
   1  12   3   -0.73    1.69
   1  12   3   -3.87    1.75
   2  12   3    8.53    2.69
   2  12   3    6.95    2.22
   3  12   3    8.93    2.37
   3  12   3   10.48    2.95
   4  12   3    3.66    2.06
   4  12   3    2.65    2.43
   5  12   3    0.47    2.38
   5  12   3   -0.29    1.67
   6  12   3   -2.34    1.44
   6  12   3   -2.10    2.31
   0 -13  -3    1.78    2.57
   0  13   3    2.25    2.09
   1  13   3    0.70    2.32
   1  13   3   -0.17    2.01
   2  13   3    0.53    2.31
   2  13   3    1.53    1.97
   2  12  -4    6.97    2.77
   1  12  -4    1.88    2.17
   1  12  -4    0.63    2.09
   0  12  -4    0.09    2.13
   0  12  -4    1.17    2.01
  -1  12  -4    8.84    2.55
  -1  12  -4    8.50    2.55
   5  11  -4   -2.75    1.63
   5  11  -4    1.57    2.31
   4  11  -4    5.03    2.26
   4  11  -4    3.11    2.47
   3  11  -4    5.83    2.22
   3  11  -4    5.24    2.55
   2  11  -4    7.30    2.58
   2  11  -4   13.15    2.71
   1  11  -4   -0.40    1.80
   1  11  -4   -0.46    1.81
   0  11  -4    1.85    1.95
   0  11  -4    0.40    1.85
  -1  11  -4    7.99    2.35
  -1  11  -4    3.94    2.18
   1 -11   4    3.73    2.25
  -2  11  -4   11.98    2.66
  -2  11  -4    8.74    2.35
   2 -11   4   11.69    2.95
  -3  11  -4    8.18    3.14
  -3  11  -4   10.19    2.46
   3 -11   4    9.13    2.78
  -4  11  -4   -2.86    1.70
   4 -11   4    2.48    2.28
   5 -11   4   -1.46    2.25
   6  10  -4    0.45    1.73
   6  10  -4   -0.26    2.18
   5  10  -4    1.49    1.86
   5  10  -4    3.84    2.44
   4  10  -4    7.09    2.52
   4  10  -4   10.29    2.33
   3  10  -4   10.01    2.66
   3  10  -4    9.06    2.25
   2  10  -4    3.13    1.87
   2  10  -4    0.99    1.88
   1  10  -4   13.36    2.82
   1  10  -4   13.03    2.44
   0  10  -4    4.79    2.01
   0  10  -4    4.56    2.03
  -1  10  -4    7.07    2.23
  -1  10  -4    9.98    2.25
   1 -10   4    8.47    2.43
  -2  10  -4   10.54    2.21
  -2  10  -4   10.37    2.43
   2 -10   4   17.27    3.02
  -3  10  -4   11.62    2.51
  -3  10  -4    9.04    2.21
   3 -10   4   10.78    2.69
  -4  10  -4   12.17    2.39
   4 -10   4   11.91    2.93
  -5  10  -4    2.69    1.80
   5 -10   4    2.83    2.32
   6 -10   4    2.48    2.50
   7   9  -4    2.19    1.72
   7   9  -4    3.68    2.30
   6   9  -4   -0.26    1.98
   6   9  -4   -0.70    1.57
   5   9  -4   12.79    2.42
   5   9  -4   15.08    3.16
   4   9  -4    7.88    2.52
   4   9  -4   13.86    2.46
   3   9  -4    1.37    1.71
   3   9  -4    1.64    1.90
   2   9  -4    5.00    1.81
   2   9  -4    2.65    1.82
   1   9  -4   22.88    2.78
   1   9  -4   22.25    3.24
   0   9  -4   39.01    3.47
   0   9  -4   38.29    3.99
  -1   9  -4    3.24    1.77
  -1   9  -4    5.48    1.95
   1  -9   4    3.56    1.97
  -2   9  -4    1.06    1.64
  -2   9  -4   -0.51    1.51
   2  -9   4    3.31    2.00
  -3   9  -4    2.52    1.63
  -3   9  -4    2.95    1.65
   3  -9   4    1.59    1.87
  -4   9  -4   21.16    2.74
  -4   9  -4   22.58    2.67
   4  -9   4   20.01    3.24
  -5   9  -4   15.63    2.40
   5  -9   4   13.92    2.95
  -6   9  -4    8.64    2.00
   6  -9   4   15.31    2.99
   7  -9   4    0.02    2.09
   8  -9   4    2.51    2.47
   8   8  -4    2.42    1.63
   8   8  -4   -1.26    2.07
   7   8  -4    3.18    1.60
   7   8  -4    5.51    2.36
   6   8  -4    1.90    2.04
   6   8  -4    2.66    1.57
   5   8  -4    8.95    2.52
   5   8  -4    9.90    2.06
   4   8  -4    7.62    1.88
   4   8  -4    6.95    2.30
   3   8  -4    3.02    1.60
   3   8  -4    1.79    1.74
   2   8  -4    4.39    1.83
   2   8  -4    5.48    1.76
   1   8  -4   28.93    3.34
   1   8  -4   29.88    2.89
   0   8  -4   29.02    2.85
   0   8  -4   24.97    2.95
   0  -8   4   24.60    3.01
  -1   8  -4   27.67    2.22
  -1   8  -4   30.28    2.99
   1  -8   4   33.07    3.36
  -2   8  -4    8.92    1.88
   2  -8   4   14.60    2.47
  -3   8  -4    2.94    1.47
   3  -8   4    1.63    1.71
  -4   8  -4   33.06    2.91
   4  -8   4   26.67    3.37
  -5   8  -4   25.08    2.61
   5  -8   4   22.38    3.27
  -6   8  -4   15.31    2.18
   6  -8   4   15.86    3.01
   7  -8   4   -2.53    1.85
   8  -8   4    3.29    2.34
   9  -8   4    7.57    2.83
   9   7  -4   -1.49    1.86
   9   7  -4   -0.07    1.98
   8   7  -4   -2.01    1.91
   8   7  -4   -0.60    1.36
   7   7  -4   12.24    2.11
   7   7  -4    9.83    2.70
   6   7  -4   10.56    1.92
   6   7  -4    8.94    2.44
   5   7  -4   -0.43    1.64
   5   7  -4    1.18    1.38
   4   7  -4   -0.03    1.29
   4   7  -4   -0.06    1.50
   3   7  -4   34.65    3.63
   3   7  -4   34.19    3.05
   2   7  -4   89.87    5.13
   2   7  -4   93.06    4.27
   2   7  -4   79.25    5.41
   1   7  -4    5.02    1.02
   1   7  -4    5.80    1.69
   1   7  -4    5.90    1.87
   0   7  -4    7.31    1.65
   0   7  -4    8.95    1.25
   0  -7   4    6.33    1.75
  -1   7  -4   29.55    2.74
  -1   7  -4   32.30    2.32
   1  -7   4   28.67    3.03
  -2   7  -4   73.99    4.22
  -2   7  -4   84.01    4.64
   2  -7   4   76.95    4.89
  -3   7  -4   75.02    4.49
  -3   7  -4   80.54    4.43
   3  -7   4   77.98    5.04
  -4   7  -4    6.40    1.59
   4  -7   4    9.08    2.12
  -5   7  -4   13.40    1.89
   5  -7   4   15.03    2.62
  -6   7  -4   30.01    2.66
   6  -7   4   25.49    3.28
   7  -7   4   28.61    3.61
   8  -7   4   11.11    2.80
   9  -7   4   -0.84    2.05
  10   6  -4   -2.75    1.94
  10   6  -4    3.91    2.43
   9   6  -4    0.06    1.88
   9   6  -4    3.27    2.29
   8   6  -4   -0.57    1.68
   8   6  -4    1.26    1.33
   7   6  -4    6.51    1.67
   7   6  -4    6.93    2.28
   6   6  -4    3.27    1.75
   6   6  -4    1.13    1.27
   6   6  -4    2.24    1.32
   5   6  -4    3.67    1.79
   5   6  -4    0.78    1.21
   5   6  -4    0.39    1.13
   4   6  -4    2.39    1.65
   4   6  -4    0.87    1.09
   4   6  -4    1.31    1.21
   3   6  -4    9.73    1.78
   3   6  -4    7.46    1.90
   3   6  -4   11.88    1.47
   2   6  -4  108.66    5.73
   2   6  -4  109.64    5.19
   1   6  -4    0.95    0.85
   1   6  -4    1.76    1.22
   0   6  -4    0.05    1.07
   0   6  -4   -0.26    0.82
   0  -6   4    1.47    1.26
  -1   6  -4   29.92    2.49
  -1   6  -4   27.10    2.20
   1  -6   4   28.56    2.56
  -2   6  -4   40.18    2.82
  -2   6  -4   45.34    3.03
   2  -6   4   44.92    3.28
  -3   6  -4   74.16    4.19
  -3   6  -4   72.55    4.14
   3  -6   4   71.74    4.54
  -4   6  -4    9.37    1.77
  -4   6  -4   10.69    1.62
   4  -6   4   10.85    2.07
  -5   6  -4    2.95    1.17
   5  -6   4    6.52    1.86
  -6   6  -4    0.69    1.02
   6  -6   4    0.22    1.73
   7  -6   4   53.20    4.42
   8  -6   4   14.48    2.95
   9  -6   4    0.09    2.05
  10  -6   4    5.34    2.54
  10   5  -4    0.03    2.04
  10   5  -4    0.04    1.95
   9   5  -4   15.03    3.13
   9   5  -4   16.50    2.81
   9   5  -4   18.95    3.12
   8   5  -4    1.83    1.73
   8   5  -4   -0.82    1.47
   8   5  -4    1.51    1.30
   8   5  -4    0.29    1.78
   7   5  -4    3.72    1.62
   7   5  -4    1.51    1.25
   7   5  -4    1.80    1.70
   6   5  -4    7.28    1.65
   6   5  -4    7.62    2.13
   6   5  -4    3.25    1.41
   5   5  -4   42.62    2.98
   5   5  -4   36.20    3.43
   5   5  -4   35.67    2.89
   4   5  -4   58.52    3.58
   4   5  -4   54.95    4.08
   4   5  -4   51.30    3.31
   3   5  -4   12.51    1.63
   3   5  -4   13.00    1.73
   3   5  -4   16.51    2.27
   2   5  -4    8.67    1.53
   2   5  -4   11.61    1.46
   1   5  -4   30.56    2.18
   1   5  -4   26.76    2.39
   0   5  -4  187.97    8.37
   0   5  -4  193.31    8.67
   0  -5   4  184.72    8.65
  -1   5  -4   78.62    4.17
  -1   5  -4   78.99    4.34
   1  -5   4   86.11    4.44
  -2   5  -4    9.77    1.56
  -2   5  -4    9.99    1.47
   2  -5   4    9.20    1.64
  -3   5  -4   55.38    3.41
  -3   5  -4   53.43    3.24
   3  -5   4   55.38    3.57
  -4   5  -4   44.67    2.92
  -4   5  -4   43.89    3.23
   4  -5   4   50.82    3.43
  -5   5  -4   85.37    4.41
  -5   5  -4   89.90    5.02
   5  -5   4   80.26    5.04
  -6   5  -4   12.48    1.51
   6  -5   4   13.30    2.31
   7  -5   4    4.69    1.99
   8  -5   4   17.38    2.95
   9  -5   4   10.14    2.67
  10  -5   4    2.90    2.45
  11  -5   4   -0.48    2.12
  10   4  -4    8.60    2.74
  10   4  -4    8.00    2.41
  10   4  -4    7.26    2.82
   9   4  -4    1.25    1.75
   9   4  -4    1.48    1.87
   9   4  -4    1.16    1.96
   8   4  -4   -0.81    1.15
   8   4  -4    0.58    1.64
   8   4  -4   -1.20    1.50
   8   4  -4   -0.47    1.49
   7   4  -4    4.10    1.87
   7   4  -4    3.12    1.74
   7   4  -4    4.34    1.82
   7   4  -4    5.14    1.43
   6   4  -4    0.61    1.10
   6   4  -4    2.13    1.47
   6   4  -4    1.17    1.43
   5   4  -4   60.28    3.86
   5   4  -4   58.65    3.65
   5   4  -4   65.11    4.27
   4   4  -4   76.95    4.12
   4   4  -4   73.22    4.11
   4   4  -4   66.65    4.41
   3   4  -4    0.51    1.03
   3   4  -4    1.73    1.07
   2   4  -4    8.77    1.38
   2   4  -4    8.07    1.38
   1   4  -4  112.92    5.40
   1   4  -4  105.68    5.24
   0   4  -4  207.20    9.20
   0   4  -4  207.59    9.33
   0  -4   4  211.54    9.25
  -1   4  -4  142.72    6.88
  -1   4  -4  150.48    6.88
   1  -4   4  154.49    6.92
  -2   4  -4   19.89    1.95
  -2   4  -4   21.09    1.84
   2  -4   4   21.52    2.03
  -3   4  -4    0.22    0.88
  -3   4  -4    1.60    1.15
   3  -4   4    2.32    1.16
  -4   4  -4  144.08    6.96
  -4   4  -4  157.30    7.45
   4  -4   4  162.73    7.51
  -5   4  -4  166.81    7.94
  -5   4  -4  181.47    8.62
   5  -4   4  193.65    8.76
  -6   4  -4   58.90    3.14
  -6   4  -4   56.69    3.95
   6  -4   4   58.83    4.18
   7  -4   4    2.92    1.79
   8  -4   4    1.02    1.74
   9  -4   4   39.03    4.22
  10  -4   4   37.19    4.38
  11  -4   4    4.37    2.42
  11   3  -4    3.69    2.51
  10   3  -4   -4.18    1.71
   9   3  -4   10.52    2.16
   9   3  -4    4.94    2.31
   8   3  -4    3.57    1.66
   8   3  -4    2.55    1.86
   8   3  -4    2.35    1.22
   7   3  -4   13.63    1.77
   7   3  -4   11.77    2.21
   7   3  -4    9.05    2.02
   7   3  -4   12.55    2.36
   6   3  -4    5.31    1.32
   6   3  -4    7.45    1.92
   6   3  -4    5.12    1.63
   6   3  -4    3.98    1.70
   5   3  -4    1.16    1.22
   5   3  -4    0.19    1.21
   5   3  -4    2.49    1.06
   4   3  -4    1.41    1.15
   4   3  -4    0.32    0.89
   3   3  -4   56.16    3.42
   3   3  -4   60.17    3.39
   2   3  -4    2.46    0.98
   2   3  -4    4.52    1.19
   1   3  -4   96.14    4.79
   1   3  -4   95.77    4.79
   0   3  -4   15.86    1.46
   0   3  -4   14.93    1.63
   0   3  -4   12.82    1.60
  -1   3  -4    5.23    1.00
  -1   3  -4    5.23    1.10
  -1   3  -4    4.75    1.23
   1  -3   4    4.06    0.98
  -2   3  -4  114.27    5.50
  -2   3  -4  120.51    5.75
   2  -3   4  120.42    5.55
  -3   3  -4   40.61    2.85
  -3   3  -4   37.98    2.44
   3  -3   4   40.80    2.67
  -4   3  -4   24.79    2.39
  -4   3  -4   23.61    1.82
   4  -3   4   22.24    2.21
  -5   3  -4   17.12    2.12
  -5   3  -4   17.43    1.48
   5  -3   4   16.52    2.09
  -6   3  -4   89.18    3.98
  -6   3  -4   83.21    4.97
   6  -3   4   75.60    4.83
  -7   3  -4    1.96    1.45
   7  -3   4    5.12    1.77
   8  -3   4    3.20    1.87
   9  -3   4   11.99    2.63
  10  -3   4    3.75    2.21
  11  -3   4    8.61    2.76
  11   2  -4    5.45    2.62
  10   2  -4    1.89    2.11
   9   2  -4   11.12    2.66
   9   2  -4   10.47    2.18
   8   2  -4    8.84    1.86
   8   2  -4    8.58    1.57
   8   2  -4   10.58    2.38
   7   2  -4   83.29    5.23
   7   2  -4   84.72    5.01
   7   2  -4   81.17    4.52
   6   2  -4   20.77    2.50
   6   2  -4   30.05    2.37
   6   2  -4   21.77    2.43
   5   2  -4    0.69    0.92
   5   2  -4    0.36    1.29
   5   2  -4    0.93    1.11
   5   2  -4    1.34    1.20
   4   2  -4   -0.60    1.15
   4   2  -4   -1.59    0.84
   3   2  -4  139.06    6.68
   2   2  -4  355.70   15.23
   1   2  -4  227.25   10.50
   1   2  -4  249.62   10.16
   0   2  -4    4.18    0.77
  -1   2  -4   51.52    2.56
  -1   2  -4   54.05    2.87
  -1   2  -4   51.22    3.11
   1  -2   4   46.96    2.54
  -2   2  -4  537.38   22.61
  -2   2  -4  509.64   22.31
  -2   2  -4  549.99   22.29
   2  -2   4  564.64   22.30
  -3   2  -4  318.76   13.57
  -3   2  -4  310.04   13.15
   3  -2   4  309.28   13.30
  -4   2  -4  122.83    5.44
  -4   2  -4  113.76    6.02
   4  -2   4  121.17    6.00
   4  -2   4  125.13    5.86
  -5   2  -4    1.04    1.10
  -5   2  -4    0.84    0.64
   5  -2   4    0.96    1.08
   5  -2   4   -0.02    0.98
  -6   2  -4   67.90    3.20
  -6   2  -4   66.86    4.22
   6  -2   4   76.64    4.33
   6  -2   4   63.73    3.99
  -7   2  -4  134.14    7.28
   7  -2   4  146.91    7.07
   7  -2   4  143.31    7.36
   8  -2   4   54.86    4.24
   8  -2   4   53.72    3.62
   9  -2   4    5.47    2.08
   9  -2   4    7.14    1.68
  10  -2   4   -0.65    1.84
  11  -2   4    3.82    2.25
  12  -2   4   13.68    3.15
  11   1  -4    0.67    2.18
  10   1  -4    3.20    2.27
   9   1  -4    8.08    2.40
   8   1  -4    3.15    1.16
   8   1  -4    1.34    1.26
   8   1  -4    0.11    1.62
   7   1  -4    7.95    1.96
   7   1  -4    7.93    1.57
   6   1  -4   11.67    2.01
   6   1  -4   12.13    1.79
   5   1  -4    4.16    1.22
   5   1  -4    6.07    1.44
   4   1  -4    8.03    1.42
   4   1  -4    8.93    1.70
   3   1  -4   31.62    2.19
   3   1  -4   30.08    2.54
   2   1  -4   76.53    4.12
   2   1  -4   74.99    3.71
   1   1  -4   20.95    1.94
   0   1  -4   74.21    4.07
   0   1  -4   76.24    3.26
  -1   1  -4   56.53    3.34
  -1   1  -4   52.87    2.47
   1  -1   4   55.93    2.48
  -2   1  -4   98.19    4.54
  -2   1  -4  104.65    5.11
   2  -1   4  103.06    4.57
   2  -1   4  104.95    5.16
  -3   1  -4  227.72    9.98
  -3   1  -4  245.03   10.41
   3  -1   4  226.97   10.01
   3  -1   4  236.69   10.39
  -4   1  -4   56.09    3.56
  -4   1  -4   67.77    2.95
   4  -1   4   54.72    3.30
   4  -1   4   52.86    3.47
  -5   1  -4   41.61    3.08
   5  -1   4   44.89    3.02
   5  -1   4   42.07    2.96
  -6   1  -4   47.38    2.26
  -6   1  -4   45.82    3.35
  -6   1  -4   48.53    2.25
   6  -1   4   44.21    3.28
   6  -1   4   49.73    3.26
  -7   1  -4   55.95    4.09
   7  -1   4   65.80    3.90
   7  -1   4   62.63    4.14
  -8   1  -4   73.74    4.82
   8  -1   4   74.80    4.48
   8  -1   4   76.61    4.94
   9  -1   4   14.45    2.67
   9  -1   4   14.44    2.02
  10  -1   4   -0.80    1.79
  11  -1   4   11.06    2.75
  12  -1   4   10.08    2.87
  11   0  -4    6.71    2.77
  10   0  -4    3.15    2.32
   9   0  -4   59.43    4.90
   8   0  -4    1.91    1.72
   7   0  -4   17.38    1.91
   7   0  -4   18.18    2.63
   6   0  -4    1.70    1.01
   6   0  -4    0.04    1.30
   5   0  -4   76.07    4.33
   5   0  -4   75.18    3.99
   4   0  -4  276.38   12.01
   4   0  -4  268.88   12.29
   2   0  -4    7.53    1.05
   2   0  -4    7.46    1.42
   1   0  -4    2.45    1.12
   1   0  -4    0.63    0.54
   0   0  -4  534.06   22.33
  -1   0  -4  561.66   22.88
   1   0   4  534.05   22.84
  -2   0  -4    4.24    1.18
   2   0   4    4.44    1.15
   2   0   4    4.80    0.75
  -3   0  -4    1.70    1.15
   3   0   4    1.68    1.07
   3   0   4    1.44    0.78
  -4   0  -4  142.58    6.14
  -4   0  -4  140.54    6.79
   4   0   4  149.78    6.94
   4   0   4  134.72    6.49
  -5   0  -4  345.59   14.27
  -5   0  -4  333.69   15.10
   5   0   4  364.31   14.99
   5   0   4  344.30   15.11
  -6   0  -4   34.10    1.63
  -6   0  -4   30.01    2.76
   6   0   4   34.58    2.83
   6   0   4   30.21    2.76
  -7   0  -4   12.31    2.08
   7   0   4   12.60    1.95
   7   0   4   11.91    1.98
  -8   0  -4    3.35    1.62
   8   0   4    2.19    1.53
   8   0   4    3.77    1.61
   9   0   4   12.69    2.40
   9   0   4   20.21    2.53
  10   0   4   52.82    4.16
  10   0   4   53.26    4.68
  11   0   4    1.96    2.05
  12   0   4   -1.56    1.95
  11  -1  -4   -0.37    2.19
  10  -1  -4   -0.91    2.09
   9  -1  -4    8.79    2.52
   8  -1  -4    1.03    1.80
   7  -1  -4   -0.74    1.43
   7  -1  -4   -0.16    0.84
   6  -1  -4   14.65    2.20
   6  -1  -4   11.97    1.44
   5  -1  -4   20.84    2.34
   4  -1  -4   79.76    4.39
   3  -1  -4   48.25    3.43
   3  -1  -4   53.81    3.05
   2  -1  -4   19.11    2.13
   2  -1  -4   23.63    1.75
  -2   1   4   21.72    1.73
   1  -1  -4   30.59    1.80
   1  -1  -4   28.03    2.36
  -1   1   4   33.33    1.85
  -1   1   4   28.80    2.15
   0  -1  -4  473.46   19.21
   0  -1  -4  460.35   19.81
   0   1   4  454.62   19.69
   0   1   4  495.06   19.21
  -1  -1  -4  352.41   15.49
   1   1   4  377.90   14.91
   1   1   4  360.30   15.46
  -2  -1  -4   27.17    2.30
   2   1   4   29.52    2.34
  -3  -1  -4   90.05    4.78
   3   1   4   98.52    4.43
  -4  -1  -4   90.94    4.21
  -4  -1  -4  100.03    4.88
   4   1   4   90.71    4.63
  -5  -1  -4  367.59   15.62
  -5  -1  -4  367.68   16.40
   5   1   4  407.99   16.34
  -6  -1  -4   92.22    4.87
  -6  -1  -4   92.45    3.76
   6   1   4   88.27    4.84
   6   1   4   66.92    4.81
  -7  -1  -4    8.15    1.82
   7   1   4    9.05    1.92
   7   1   4    8.73    1.83
  -8  -1  -4   19.86    2.59
   8   1   4   19.80    2.65
   9   1   4   22.00    2.91
  10   1   4   14.08    2.60
  11   1   4    6.82    2.23
  11   1   4    8.32    2.50
  12   1   4   -1.97    1.80
  11  -2  -4    4.16    2.62
  10  -2  -4    1.24    2.10
   9  -2  -4   25.91    3.67
   8  -2  -4    0.83    1.73
   7  -2  -4   35.98    3.55
   6  -2  -4    2.23    0.73
   6  -2  -4    4.14    1.60
   5  -2  -4    1.93    1.26
   5  -2  -4    3.19    0.66
   4  -2  -4   16.25    1.95
   4  -2  -4   15.43    1.38
   3  -2  -4   18.16    2.11
   3  -2  -4   22.80    2.00
   3  -2  -4   17.74    1.52
   2  -2  -4  188.81    8.51
   2  -2  -4  197.29    8.91
   1  -2  -4  106.61    5.14
   1  -2  -4  114.07    5.57
  -1   2   4  111.22    5.25
  -1   2   4  119.07    5.18
   0  -2  -4    5.27    1.20
   0  -2  -4    5.74    0.92
   0   2   4    5.58    0.88
   0   2   4    4.73    1.11
  -1  -2  -4   18.39    1.84
   1   2   4   13.83    1.41
   1   2   4   16.72    1.36
  -2  -2  -4  209.64    8.98
   2   2   4  192.61    8.59
   2   2   4  193.27    8.62
   2   2   4  206.40    9.15
  -3  -2  -4  193.13    8.38
   3   2   4  178.46    8.49
   3   2   4  182.89    7.99
  -4  -2  -4  108.40    5.66
   4   2   4  115.45    5.18
   4   2   4  124.00    5.98
  -5  -2  -4    5.83    1.44
  -5  -2  -4    6.41    0.99
   5   2   4    7.40    1.55
  -6  -2  -4   25.82    2.49
  -6  -2  -4   24.68    1.50
   6   2   4   23.54    2.43
   6   2   4   25.26    2.51
  -7  -2  -4  104.40    5.69
   7   2   4  102.31    5.76
   7   2   4  106.53    5.79
  -8  -2  -4   40.63    3.54
   8   2   4   43.28    3.93
   8   2   4   45.21    3.51
   9   2   4   10.88    2.16
   9   2   4   18.45    2.71
  10   2   4    5.49    2.08
  10   2   4    5.95    1.93
  11   2   4    0.76    1.77
  11   2   4    2.77    2.09
  12   2   4   11.39    3.03
  11  -3  -4    1.32    2.32
  10  -3  -4    3.87    2.40
   9  -3  -4    9.31    2.69
   8  -3  -4    3.69    2.06
   7  -3  -4   18.35    2.83
   6  -3  -4   19.37    2.65
   5  -3  -4    3.67    1.52
   4  -3  -4   12.65    1.93
   4  -3  -4   14.10    1.15
   3  -3  -4   91.47    5.08
   3  -3  -4   84.76    4.78
   3  -3  -4   95.65    4.25
   2  -3  -4   78.51    3.80
   2  -3  -4   84.66    4.18
   2  -3  -4   77.92    4.39
  -2   3   4   75.90    4.05
  -2   3   4   72.59    3.81
   1  -3  -4  225.54   10.76
   1  -3  -4  249.95   10.57
  -1   3   4  248.35   10.57
  -1   3   4  248.49   10.54
   0  -3  -4    0.81    0.85
   0  -3  -4    1.50    1.07
   0   3   4    1.98    0.95
   0   3   4   -0.42    0.94
  -1  -3  -4    5.40    1.05
  -1  -3  -4    4.71    1.22
   1   3   4    3.53    0.99
   1   3   4    3.24    1.15
  -2  -3  -4  319.08   13.66
   2   3   4  308.21   13.42
   2   3   4  327.47   13.83
  -3  -3  -4  305.44   13.44
   3   3   4  320.11   13.19
   3   3   4  311.86   13.68
  -4  -3  -4   51.62    3.32
   4   3   4   63.15    3.73
   4   3   4   59.24    3.00
  -5  -3  -4    1.80    1.12
   5   3   4    0.53    0.66
   5   3   4   -0.59    1.11
  -6  -3  -4   41.22    2.97
   6   3   4   41.52    3.34
   6   3   4   43.11    2.34
  -7  -3  -4   64.60    4.10
   7   3   4   64.90    3.17
   7   3   4   68.05    4.37
   7   3   4   66.03    4.37
  -8  -3  -4   82.13    4.98
   8   3   4   81.86    5.11
   8   3   4   87.99    5.43
   9   3   4   10.28    2.17
   9   3   4   11.72    2.48
  10   3   4    4.81    1.96
  10   3   4    3.54    2.10
  11   3   4    3.38    1.98
  11   3   4    8.97    2.48
  12   3   4   18.12    3.34
  12   3   4   14.27    3.19
  10  -4  -4    2.50    2.39
   9  -4  -4    5.32    2.51
   8  -4  -4    6.06    2.36
   7  -4  -4    2.55    1.81
   6  -4  -4    3.11    1.83
   5  -4  -4   50.97    3.83
   4  -4  -4   50.79    3.62
   4  -4  -4   51.28    2.45
  -4   4   4   53.61    3.21
   3  -4  -4   14.26    1.92
   3  -4  -4   15.61    2.14
   3  -4  -4   13.80    1.26
  -3   4   4   15.31    1.33
  -3   4   4   13.23    1.60
   2  -4  -4    3.80    1.30
   2  -4  -4    3.68    1.24
   2  -4  -4    4.05    0.89
  -2   4   4    4.79    1.31
  -2   4   4    2.79    1.03
   1  -4  -4   83.93    4.27
   1  -4  -4   88.75    4.37
  -1   4   4   76.62    4.09
  -1   4   4   68.79    4.13
   0  -4  -4   92.04    4.77
   0  -4  -4   91.62    4.81
   0   4   4  106.84    4.96
   0   4   4   89.72    4.71
  -1  -4  -4  131.20    6.39
  -1  -4  -4  148.60    6.49
   1   4   4  129.86    6.34
   1   4   4  137.39    6.54
  -2  -4  -4  126.49    6.16
   2   4   4  131.76    6.43
   2   4   4  133.88    6.09
  -3  -4  -4   16.83    1.79
   3   4   4   16.49    1.64
   3   4   4   16.59    1.99
  -4  -4  -4  107.96    5.38
   4   4   4  114.72    5.86
   4   4   4  106.43    5.16
  -5  -4  -4   77.41    3.98
   5   4   4   61.98    4.24
   5   4   4   66.37    3.55
  -6  -4  -4   94.73    4.95
   6   4   4   90.12    4.48
   6   4   4   92.63    5.40
  -7  -4  -4   38.71    3.16
   7   4   4   41.23    3.52
   7   4   4   42.38    2.46
  -8  -4  -4    7.96    1.79
   8   4   4    8.43    2.03
   8   4   4    8.37    2.09
   9   4   4   22.30    3.02
   9   4   4   25.73    3.32
  10   4   4    9.35    2.31
  10   4   4    9.28    2.58
  11   4   4    4.50    2.37
  11   4   4    5.27    2.21
  12   4   4    7.59    2.44
  12   4   4    7.11    2.84
  10  -5  -4   -1.77    2.14
   9  -5  -4    8.43    2.79
   8  -5  -4    1.54    2.07
   7  -5  -4    6.90    2.29
   6  -5  -4   -0.05    1.68
   5  -5  -4    6.34    1.94
  -5   5   4    3.67    1.30
   4  -5  -4   76.66    4.91
  -4   5   4   78.75    4.31
   3  -5  -4   25.86    2.61
   3  -5  -4   20.69    2.44
   3  -5  -4   22.00    1.62
  -3   5   4   24.33    2.21
  -3   5   4   21.93    1.68
   2  -5  -4   14.80    2.02
   2  -5  -4   13.94    1.99
  -2   5   4   15.82    1.85
   1  -5  -4    2.61    1.24
   1  -5  -4    3.60    1.28
  -1   5   4    3.15    1.05
  -1   5   4    2.78    1.19
   0  -5  -4  197.28    8.93
   0  -5  -4  201.57    8.84
   0   5   4  185.05    8.73
   0   5   4  189.95    8.80
  -1  -5  -4  172.12    8.22
  -1  -5  -4  179.13    8.00
   1   5   4  175.83    8.00
   1   5   4  175.31    8.21
  -2  -5  -4   24.62    2.19
   2   5   4   27.21    2.17
   2   5   4   24.62    2.49
  -3  -5  -4    1.31    1.00
   3   5   4    1.58    1.23
   3   5   4    2.12    0.93
  -4  -5  -4   27.91    2.17
   4   5   4   24.36    2.63
   4   5   4   24.31    2.04
  -5  -5  -4  208.36    9.38
   5   5   4  205.75   10.02
   5   5   4  210.01    9.24
  -6  -5  -4  110.52    5.91
   6   5   4  127.63    5.72
   6   5   4  119.74    6.61
  -7  -5  -4    3.34    1.35
   7   5   4    3.63    1.69
   7   5   4   -0.47    0.89
   8   5   4    1.11    1.62
   8   5   4    3.13    1.06
   9   5   4   24.20    3.20
   9   5   4   21.57    3.14
  10   5   4   25.41    3.66
  10   5   4   33.29    3.84
  11   5   4   13.74    3.00
  11   5   4   15.28    2.90
  12   5   4   -0.96    2.18
  12   5   4   -1.26    1.93
   9  -6  -4    0.89    2.14
   8  -6  -4    2.21    2.27
   7  -6  -4    6.26    2.34
   6  -6  -4    6.68    2.20
  -6   6   4    9.68    1.75
   5  -6  -4    0.03    1.60
  -5   6   4    0.25    1.25
   4  -6  -4   11.30    2.09
   4  -6  -4   13.46    2.39
  -4   6   4   11.13    1.78
   3  -6  -4    5.14    1.75
   3  -6  -4    6.32    1.60
  -3   6   4    4.66    1.38
  -3   6   4    3.93    1.04
   2  -6  -4   78.93    4.48
   2  -6  -4   73.00    4.64
  -2   6   4   69.14    4.22
  -2   6   4   72.38    3.87
   1  -6  -4    6.23    1.65
   1  -6  -4    3.78    1.34
  -1   6   4    3.95    1.19
  -1   6   4    6.06    1.37
   0  -6  -4   39.82    2.88
   0  -6  -4   43.32    3.19
   0   6   4   41.40    2.96
   0   6   4   42.83    2.97
  -1  -6  -4   83.16    4.92
  -1  -6  -4   83.45    4.49
   1   6   4   96.00    4.70
   1   6   4   88.02    4.85
  -2  -6  -4   20.47    1.92
   2   6   4   18.51    2.27
   2   6   4   15.05    1.85
  -3  -6  -4   46.01    2.83
   3   6   4   43.46    3.48
   3   6   4   47.73    3.03
  -4  -6  -4   68.47    3.57
   4   6   4   59.79    3.63
   4   6   4   62.06    4.34
  -5  -6  -4   52.33    3.19
   5   6   4   54.14    4.04
   5   6   4   52.54    3.27
  -6  -6  -4   23.56    2.19
   6   6   4   23.02    2.10
   6   6   4   19.62    2.76
  -7  -6  -4   24.59    2.39
   7   6   4   27.08    3.37
   7   6   4   26.60    2.27
   8   6   4   10.11    2.46
   8   6   4    8.71    1.49
   9   6   4   12.43    2.70
  10   6   4   14.77    3.03
  10   6   4   26.28    3.66
  11   6   4    0.76    2.21
  11   6   4    1.30    2.25
   9  -7  -4   -1.53    2.28
   8  -7  -4   -0.37    2.06
   7  -7  -4    4.20    2.45
  -7   7   4    8.01    1.88
   6  -7  -4   34.88    4.05
  -6   7   4   42.19    3.30
   5  -7  -4    4.18    1.93
  -5   7   4    1.47    1.40
   4  -7  -4    2.33    1.63
   4  -7  -4   -1.13    1.54
  -4   7   4    0.84    1.27
   3  -7  -4   11.16    2.23
   3  -7  -4    8.30    1.92
  -3   7   4   11.26    1.88
  -3   7   4    9.97    1.38
   2  -7  -4   90.98    5.51
   2  -7  -4   90.09    5.09
  -2   7   4   86.52    5.05
  -2   7   4   91.76    4.68
   1  -7  -4   50.37    3.40
   1  -7  -4   51.57    3.91
  -1   7   4   51.73    3.37
  -1   7   4   48.68    3.46
   0  -7  -4    7.65    1.45
   0  -7  -4    7.87    1.90
   0   7   4    7.23    1.56
   0   7   4    8.04    1.63
  -1  -7  -4    1.64    1.06
  -1  -7  -4    4.51    1.67
   1   7   4    1.32    1.15
   1   7   4    0.82    1.32
  -2  -7  -4   27.20    2.24
   2   7   4   30.67    2.97
   2   7   4   31.57    2.75
  -3  -7  -4  178.29    7.86
   3   7   4  175.93    8.26
   3   7   4  171.17    8.77
  -4  -7  -4   39.89    2.59
   4   7   4   43.31    3.68
   4   7   4   41.95    3.00
  -5  -7  -4    4.39    1.11
   5   7   4    7.74    2.03
   5   7   4    5.69    1.42
  -6  -7  -4    2.06    1.02
   6   7   4    2.22    1.69
   6   7   4    1.37    1.14
   7   7   4   30.12    2.65
   7   7   4   31.86    3.71
   8   7   4   59.84    3.78
   8   7   4   64.01    5.08
   9   7   4    4.56    2.31
  10   7   4    3.38    2.18
  11   7   4    0.78    2.19
  11   7   4   -0.08    2.14
   8  -8  -4   -4.37    1.86
   7  -8  -4    3.23    2.32
  -7   8   4    1.33    1.55
   6  -8  -4    2.83    2.07
  -6   8   4    3.87    1.76
   5  -8  -4   10.29    2.23
   5  -8  -4   10.43    2.58
  -5   8   4   12.93    2.14
   4  -8  -4    1.60    1.81
   4  -8  -4    1.22    1.59
  -4   8   4   -2.52    1.27
   3  -8  -4    0.27    1.63
   3  -8  -4    1.53    1.44
  -3   8   4    2.87    1.47
   2  -8  -4   29.34    2.85
   2  -8  -4   21.69    3.00
  -2   8   4   29.00    2.48
  -2   8   4   32.51    3.02
   1  -8  -4   28.51    2.60
   1  -8  -4   28.07    3.22
  -1   8   4   26.57    2.73
  -1   8   4   29.87    2.77
   0  -8  -4   12.45    2.37
   0  -8  -4   12.51    1.74
   0   8   4   13.17    2.08
   0   8   4   10.77    1.90
  -1  -8  -4   18.86    1.92
  -1  -8  -4   14.63    2.47
   1   8   4   19.15    2.21
   1   8   4   20.01    2.48
  -2  -8  -4   37.41    2.40
   2   8   4   31.77    3.24
   2   8   4   27.36    2.71
   3   8   4   67.36    4.64
   3   8   4   56.42    3.97
   4   8   4   49.16    3.58
   4   8   4   49.92    4.27
   5   8   4    4.83    1.51
   5   8   4    4.60    1.99
   6   8   4   11.58    2.56
   6   8   4   11.33    1.85
   7   8   4   40.64    4.33
   7   8   4   43.69    3.28
   8   8   4   26.26    2.58
   8   8   4   24.93    3.62
   9   8   4    6.68    2.61
  10   8   4   -0.87    2.24
   7  -9  -4    0.51    2.33
   7  -9  -4    3.25    2.05
   6  -9  -4    2.17    1.97
   6  -9  -4   -1.79    1.89
  -6   9   4    3.05    1.68
   5  -9  -4    8.19    2.74
   5  -9  -4   10.32    2.34
  -5   9   4    6.30    1.88
   4  -9  -4   14.70    2.97
   4  -9  -4   13.90    2.44
  -4   9   4    8.57    2.12
   3  -9  -4    9.03    2.00
   3  -9  -4    3.33    2.16
  -3   9   4    9.15    2.10
   2  -9  -4   11.31    1.89
   2  -9  -4    3.41    2.13
  -2   9   4    7.38    1.94
   1  -9  -4    7.14    2.14
   1  -9  -4    8.10    1.64
  -1   9   4    5.27    1.62
  -1   9   4    4.29    1.64
   0  -9  -4   27.00    3.34
   0   9   4   28.66    3.03
   0   9   4   27.65    3.05
  -1  -9  -4   24.57    3.29
   1   9   4   27.06    3.07
   1   9   4   24.49    2.74
   2   9   4   22.87    2.92
   2   9   4   22.20    2.53
   3   9   4   -0.09    1.26
   3   9   4   -1.83    1.49
   4   9   4    3.41    2.02
   4   9   4    1.01    1.39
   5   9   4   32.05    3.87
   5   9   4   29.39    2.92
   6   9   4   30.82    2.97
   6   9   4   28.71    3.74
   7   9   4    7.09    2.49
   7   9   4    5.10    1.63
   8   9   4   -0.29    1.33
   8   9   4    6.83    2.63
   9   9   4    2.39    2.33
   6 -10  -4   -0.48    2.39
  -6  10   4    0.65    1.69
   5 -10  -4    5.09    2.48
  -5  10   4    5.04    2.07
   4 -10  -4    1.75    2.22
  -4  10   4    2.53    1.88
   3 -10  -4    6.05    2.44
  -3  10   4   10.22    2.26
   2 -10  -4    3.81    2.10
  -2  10   4    0.74    1.68
   1 -10  -4    7.96    2.33
  -1  10   4    5.17    1.74
  -1  10   4    4.41    1.82
   0 -10  -4   12.49    2.66
   0  10   4   10.52    2.23
   0  10   4   11.21    2.31
  -1 -10  -4   22.87    3.45
   1  10   4   29.53    3.34
   1  10   4   30.04    3.24
   2  10   4   21.34    3.11
   2  10   4   15.81    2.42
   3  10   4   -1.08    1.34
   3  10   4   -1.02    1.78
   4  10   4    9.12    1.97
   4  10   4    9.50    2.60
   5  10   4   23.12    3.47
   5  10   4   19.22    2.62
   6  10   4   19.43    2.63
   6  10   4   20.86    3.48
   7  10   4    4.58    1.75
   7  10   4    0.91    2.31
   8  10   4    0.61    1.48
   8  10   4   -2.54    2.08
   5 -11  -4    1.02    2.43
  -5  11   4   -3.27    1.65
   4 -11  -4   -3.28    2.16
  -4  11   4    0.46    1.91
   3 -11  -4    1.72    2.29
  -3  11   4    4.30    2.07
   2 -11  -4    4.70    2.42
  -2  11   4    8.42    2.24
   1 -11  -4   12.64    3.02
  -1  11   4   14.95    2.71
   0 -11  -4    0.79    2.02
   0  11   4    1.96    1.85
   0  11   4    5.05    2.03
  -1 -11  -4    2.27    2.23
   1  11   4    2.38    1.75
   1  11   4    2.88    1.93
   2  11   4   10.79    2.40
   2  11   4   13.99    2.88
   3  11   4   16.89    2.63
   3  11   4   18.53    3.25
   4  11   4    6.44    2.09
   4  11   4   11.29    2.94
   5  11   4    8.19    2.13
   5  11   4   11.59    2.95
   6  11   4    8.74    2.97
   6  11   4    5.07    1.90
   7  11   4    5.75    2.84
   7  11   4    4.20    1.85
   3 -12  -4    1.68    2.44
  -3  12   4   -1.40    1.83
   2 -12  -4    6.98    2.67
  -2  12   4   13.61    2.74
   1 -12  -4   -2.65    2.05
  -1  12   4    2.70    2.06
   0 -12  -4    2.34    2.46
   0  12   4    2.05    1.98
   1  12   4   -0.37    1.76
   1  12   4    0.65    2.01
   2  12   4    1.15    1.87
   2  12   4    0.07    2.14
   3  12   4    9.84    2.85
   3  12   4    8.70    2.37
   4  12   4    8.05    2.80
   4  12   4    7.90    2.28
   5  12   4    2.14    2.45
   5  12   4    0.71    1.80
   4  11  -5    2.66    2.52
   3  11  -5    4.02    2.53
   3  11  -5    5.32    2.27
   2  11  -5   -2.15    1.91
   2  11  -5   -0.49    1.83
   1  11  -5   -0.73    2.02
   1  11  -5    0.34    2.10
   0  11  -5   -1.12    1.82
   0  11  -5    1.62    2.09
  -1  11  -5    1.00    1.86
  -1  11  -5    1.77    2.06
  -2  11  -5    6.26    2.42
  -2  11  -5    9.52    2.47
   2 -11   5    9.45    2.64
  -3  11  -5    3.28    2.04
  -3  11  -5    7.46    2.35
   3 -11   5    9.07    2.81
   4 -11   5   -0.68    2.12
   5  10  -5    0.79    1.99
   5  10  -5    2.04    2.32
   4  10  -5    2.10    2.03
   4  10  -5    2.03    2.32
   3  10  -5    1.93    2.09
   3  10  -5   -1.31    1.84
   2  10  -5   -0.38    2.02
   2  10  -5   -2.20    1.70
   1  10  -5    0.15    1.85
   1  10  -5    0.62    1.85
   0  10  -5    1.64    1.85
   0  10  -5    3.84    1.99
  -1  10  -5   -0.41    1.72
  -1  10  -5    1.98    1.85
   1 -10   5   -1.21    1.94
  -2  10  -5   -0.82    1.81
  -2  10  -5   -0.12    1.70
   2 -10   5   -4.25    1.66
  -3  10  -5    0.14    1.67
  -3  10  -5    1.61    1.86
   3 -10   5    1.24    2.06
  -4  10  -5    3.36    1.94
  -4  10  -5   -0.10    1.97
   4 -10   5    0.85    2.14
  -5  10  -5    1.88    1.76
   5 -10   5   -1.46    2.03
   6 -10   5   -0.16    2.24
   7   9  -5    2.76    2.39
   7   9  -5    1.39    1.79
   6   9  -5    3.57    2.38
   6   9  -5   -1.32    1.63
   5   9  -5   11.91    2.42
   5   9  -5   15.90    3.25
   4   9  -5   -1.89    1.74
   4   9  -5   -1.53    1.68
   3   9  -5   -3.15    1.74
   3   9  -5   -1.99    1.51
   2   9  -5    0.19    1.91
   2   9  -5   -0.06    1.69
   1   9  -5    0.77    1.74
   1   9  -5    1.53    1.78
   0   9  -5   17.24    2.54
   0   9  -5    8.36    2.24
  -1   9  -5    3.33    1.87
  -1   9  -5    1.54    1.76
   1  -9   5    8.64    2.31
  -2   9  -5    4.13    1.74
   2  -9   5    0.59    1.82
  -3   9  -5   -2.41    1.55
   3  -9   5    2.56    1.99
  -4   9  -5   10.42    2.09
   4  -9   5    6.91    2.37
  -5   9  -5   19.66    2.58
   5  -9   5   16.61    3.08
   6  -9   5    0.97    1.97
   7  -9   5    1.25    2.30
   8   8  -5   -1.48    2.06
   8   8  -5    0.01    1.56
   7   8  -5   -0.12    2.01
   7   8  -5    2.03    1.59
   6   8  -5   -0.54    1.44
   6   8  -5   -2.93    1.61
   5   8  -5   -0.66    1.81
   5   8  -5    1.87    1.65
   4   8  -5    0.65    1.61
   4   8  -5   -2.68    1.57
   3   8  -5    5.26    2.04
   3   8  -5    3.13    1.74
   2   8  -5    0.78    1.49
   2   8  -5    1.59    1.72
   1   8  -5    1.34    1.61
   1   8  -5   -0.61    1.45
   0   8  -5    4.04    1.68
  -1   8  -5    2.18    1.55
   1  -8   5    1.57    1.69
  -2   8  -5   -2.81    1.23
  -2   8  -5   -0.64    1.13
   2  -8   5   -0.20    1.55
  -3   8  -5    0.26    1.27
  -3   8  -5    0.03    1.45
   3  -8   5   -1.79    1.46
  -4   8  -5    7.31    1.83
   4  -8   5    4.65    1.97
  -5   8  -5   21.04    2.46
   5  -8   5   17.80    2.94
  -6   8  -5    3.08    1.51
   6  -8   5    1.97    2.13
   7  -8   5    4.06    2.26
   8  -8   5   -1.55    2.03
   9   7  -5    0.45    2.22
   9   7  -5    0.07    2.34
   8   7  -5    0.79    1.99
   8   7  -5   -2.87    1.27
   7   7  -5   12.16    2.86
   7   7  -5    8.61    1.91
   6   7  -5    2.28    2.09
   6   7  -5    0.29    1.34
   5   7  -5   15.67    2.84
   5   7  -5   16.08    2.45
   4   7  -5    3.01    1.99
   4   7  -5    2.49    1.57
   3   7  -5    1.29    1.64
   3   7  -5    3.01    1.61
   2   7  -5    1.39    1.40
   2   7  -5    1.54    1.11
   2   7  -5    3.10    1.72
   1   7  -5   -0.76    1.31
   1   7  -5    0.65    1.02
   0   7  -5   19.77    1.95
   0   7  -5   18.57    2.38
  -1   7  -5    3.62    1.27
  -1   7  -5    3.54    1.55
   1  -7   5    2.23    1.59
  -2   7  -5    3.53    1.34
  -2   7  -5    6.96    1.63
   2  -7   5    4.28    1.63
  -3   7  -5    6.38    1.62
  -3   7  -5    8.21    1.73
   3  -7   5    7.83    1.96
  -4   7  -5    3.02    1.41
  -4   7  -5    2.13    1.47
   4  -7   5    0.30    1.56
  -5   7  -5    4.01    1.67
  -5   7  -5    1.54    1.36
   5  -7   5    4.50    1.94
  -6   7  -5    5.89    1.55
   6  -7   5    6.99    2.26
   7  -7   5    7.68    2.39
   8  -7   5    2.56    2.21
   9  -7   5    2.59    2.33
   9   6  -5    2.58    2.28
   9   6  -5   -2.20    1.88
   8   6  -5    6.00    1.77
   8   6  -5    3.73    2.18
   8   6  -5   -0.11    1.92
   7   6  -5   10.77    2.07
   7   6  -5   12.12    2.61
   6   6  -5    1.59    1.76
   6   6  -5    2.97    1.92
   6   6  -5    1.85    1.37
   5   6  -5   12.35    2.43
   5   6  -5   11.30    1.99
   5   6  -5   10.52    1.76
   4   6  -5    1.89    1.18
   4   6  -5    1.83    1.63
   4   6  -5    4.37    1.64
   3   6  -5   12.08    1.69
   3   6  -5    5.33    1.65
   3   6  -5    6.95    2.00
   2   6  -5   16.63    2.17
   2   6  -5   12.86    1.72
   1   6  -5   11.88    1.93
   1   6  -5    8.71    1.53
   0   6  -5    3.24    1.25
   0   6  -5    6.27    1.60
  -1   6  -5   -0.27    1.03
  -1   6  -5   -1.51    1.08
   1  -6   5   -0.16    1.16
  -2   6  -5   34.28    2.80
  -2   6  -5   38.95    2.97
   2  -6   5   36.34    3.00
  -3   6  -5   58.95    3.79
  -3   6  -5   66.31    3.88
   3  -6   5   56.22    3.90
  -4   6  -5    3.59    1.34
  -4   6  -5    4.41    1.56
   4  -6   5    5.43    1.69
  -5   6  -5    1.55    1.15
  -5   6  -5    2.03    1.50
   5  -6   5    3.34    1.74
  -6   6  -5   24.60    2.29
  -6   6  -5   27.12    2.99
   6  -6   5   23.78    3.04
   7  -6   5   22.10    3.22
   8  -6   5   26.66    3.62
   9  -6   5    1.87    2.33
  10  -6   5    1.08    2.25
  10   5  -5    1.69    2.38
  10   5  -5   -0.51    2.24
   9   5  -5    3.08    2.18
   9   5  -5    5.04    2.32
   8   5  -5    5.12    2.08
   8   5  -5   -0.70    1.64
   8   5  -5    1.04    1.38
   8   5  -5   -1.83    1.71
   7   5  -5   11.91    2.53
   7   5  -5    8.58    1.90
   7   5  -5   13.25    2.28
   7   5  -5   14.20    2.52
   6   5  -5    3.64    1.42
   6   5  -5    5.24    1.66
   6   5  -5    8.77    2.17
   5   5  -5    2.76    1.33
   5   5  -5    0.14    1.42
   5   5  -5    1.50    1.19
   4   5  -5    4.67    1.37
   4   5  -5    2.97    1.60
   4   5  -5    1.36    1.23
   3   5  -5    9.52    1.71
   3   5  -5    8.89    1.56
   2   5  -5   41.92    3.15
   2   5  -5   42.61    3.00
   1   5  -5   -0.91    1.00
   1   5  -5   -0.55    1.07
   0   5  -5    1.65    1.22
   0   5  -5    0.84    1.18
  -1   5  -5    1.68    1.10
  -1   5  -5   -0.82    0.98
   1  -5   5   -0.40    1.03
  -2   5  -5    7.79    1.44
  -2   5  -5    3.72    1.32
   2  -5   5    5.76    1.42
  -3   5  -5   -0.95    0.94
  -3   5  -5   -1.35    1.01
   3  -5   5    1.89    1.17
  -4   5  -5    9.29    1.49
  -4   5  -5    7.93    1.70
   4  -5   5    4.99    1.45
  -5   5  -5    7.09    1.35
  -5   5  -5    7.31    1.82
   5  -5   5    9.42    1.91
  -6   5  -5   11.66    1.54
  -6   5  -5   14.43    2.36
   6  -5   5   13.42    2.31
  -7   5  -5   -0.16    1.53
   7  -5   5    3.32    1.80
   8  -5   5   14.71    2.79
   9  -5   5   12.23    2.79
  10  -5   5   -1.87    2.08
  10   4  -5   12.62    3.04
  10   4  -5    9.75    2.73
   9   4  -5   22.87    3.49
   9   4  -5   15.12    2.96
   9   4  -5   15.68    2.94
   8   4  -5    0.02    1.63
   8   4  -5    0.38    1.73
   8   4  -5   -0.76    1.20
   8   4  -5    1.95    1.83
   7   4  -5    8.78    1.78
   7   4  -5    6.47    2.01
   7   4  -5    9.26    2.20
   7   4  -5    8.10    2.17
   6   4  -5    1.40    1.24
   6   4  -5    1.13    1.45
   6   4  -5    1.16    1.46
   6   4  -5    1.71    1.56
   5   4  -5   38.97    3.30
   5   4  -5   40.97    2.99
   5   4  -5   37.77    3.42
   4   4  -5    9.55    1.82
   4   4  -5   14.81    1.86
   3   4  -5   11.62    1.69
   3   4  -5   12.19    1.81
   2   4  -5   25.29    2.34
   2   4  -5   27.52    2.43
   1   4  -5    8.05    1.39
   1   4  -5    4.93    1.30
   0   4  -5   68.08    3.84
   0   4  -5   65.47    3.83
  -1   4  -5   19.91    1.94
  -1   4  -5   22.67    2.22
   1  -4   5   20.04    1.90
  -2   4  -5   10.38    1.54
  -2   4  -5   17.33    1.94
   2  -4   5   14.17    1.69
  -3   4  -5   30.21    2.79
  -3   4  -5   31.46    2.42
   3  -4   5   30.04    2.41
  -4   4  -5   15.20    1.68
  -4   4  -5   12.59    2.01
   4  -4   5   17.36    2.05
  -5   4  -5   72.25    4.59
  -5   4  -5   77.84    3.93
   5  -4   5   71.90    4.47
  -6   4  -5    9.29    1.36
  -6   4  -5   11.99    2.17
   6  -4   5   13.07    2.15
  -7   4  -5    1.80    1.58
   7  -4   5    5.23    1.86
   8  -4   5    2.33    1.76
   9  -4   5   23.33    3.39
  10  -4   5   21.17    3.48
  11  -4   5    7.59    2.83
  10   3  -5    2.61    2.32
  10   3  -5    2.01    2.18
   9   3  -5    3.11    2.11
   9   3  -5    0.32    1.98
   9   3  -5    4.94    1.87
   8   3  -5    1.71    1.31
   8   3  -5    1.05    1.87
   8   3  -5    2.49    1.81
   8   3  -5    1.04    1.62
   7   3  -5    4.03    1.46
   7   3  -5    2.44    1.63
   7   3  -5    2.54    1.78
   7   3  -5    1.83    1.53
   6   3  -5    7.36    1.98
   6   3  -5    5.17    1.72
   6   3  -5    7.07    1.82
   6   3  -5    7.67    1.54
   5   3  -5    1.25    1.14
   5   3  -5    2.91    1.54
   5   3  -5    1.08    1.25
   5   3  -5    0.69    1.37
   4   3  -5   21.50    2.21
   4   3  -5   24.37    2.51
   3   3  -5    2.31    1.11
   3   3  -5    3.19    1.33
   2   3  -5   27.84    2.52
   2   3  -5   27.52    2.44
   1   3  -5    5.67    1.41
   1   3  -5    5.08    1.24
   0   3  -5    1.31    1.03
   0   3  -5    1.64    1.21
   0   3  -5    1.23    0.74
  -1   3  -5   19.59    1.87
  -1   3  -5   16.96    1.50
  -1   3  -5   16.81    1.97
   1  -3   5   17.77    1.53
  -2   3  -5    7.37    1.44
  -2   3  -5    5.28    1.21
   2  -3   5    5.01    1.04
  -3   3  -5    6.29    1.18
  -3   3  -5    6.43    1.48
   3  -3   5    7.98    1.29
  -4   3  -5   11.63    1.39
  -4   3  -5    9.84    1.76
   4  -3   5   11.73    1.65
  -5   3  -5   49.94    2.88
  -5   3  -5   48.82    3.62
   5  -3   5   52.11    3.44
  -6   3  -5    6.15    1.74
  -6   3  -5    4.60    0.96
   6  -3   5    5.98    1.66
  -7   3  -5   27.96    3.05
   7  -3   5   35.41    3.41
  -8   3  -5    6.44    2.00
   8  -3   5    9.40    2.20
   9  -3   5    6.14    2.11
  10  -3   5   20.90    3.40
  11  -3   5   12.16    3.05
  10   2  -5    0.01    2.16
  10   2  -5   -3.20    1.80
   9   2  -5    6.53    2.35
   9   2  -5    7.11    2.42
   8   2  -5    0.98    1.28
   8   2  -5   -2.89    1.51
   8   2  -5   -1.46    1.29
   8   2  -5    3.55    1.89
   7   2  -5   27.73    2.55
   7   2  -5   22.42    2.91
   7   2  -5   29.69    3.38
   7   2  -5   25.04    2.82
   6   2  -5    2.12    1.69
   6   2  -5    4.78    1.52
   6   2  -5    4.32    1.57
   6   2  -5    6.58    1.45
   5   2  -5   31.70    3.10
   5   2  -5   31.64    2.93
   4   2  -5   86.48    5.06
   4   2  -5   91.10    4.76
   3   2  -5    1.90    0.96
   3   2  -5    0.00    1.14
   2   2  -5   86.38    4.75
   1   2  -5   16.27    1.95
   1   2  -5   14.45    1.32
   0   2  -5   88.53    3.96
   0   2  -5   87.08    4.69
  -1   2  -5   49.11    3.17
  -1   2  -5   45.94    2.37
   1  -2   5   47.94    2.39
  -2   2  -5   30.50    1.92
  -2   2  -5   32.68    2.58
   2  -2   5   32.45    1.92
  -3   2  -5   75.36    3.82
  -3   2  -5   73.75    4.30
   3  -2   5   73.86    3.77
  -4   2  -5   -0.62    1.10
  -4   2  -5    0.53    0.82
   4  -2   5    0.72    0.92
  -5   2  -5    9.40    1.17
  -5   2  -5    7.46    1.74
   5  -2   5    8.45    1.54
   5  -2   5    6.84    1.59
  -6   2  -5    2.81    0.77
  -6   2  -5    1.46    1.30
   6  -2   5    1.24    1.20
   6  -2   5    2.81    1.34
  -7   2  -5  102.67    5.89
   7  -2   5  101.70    5.66
   7  -2   5  100.19    5.72
  -8   2  -5   38.68    3.78
   8  -2   5   44.17    3.37
   8  -2   5   32.02    3.46
   9  -2   5    5.18    1.67
   9  -2   5   -0.44    1.67
  10  -2   5    0.14    1.82
  11  -2   5   11.88    2.94
  12  -2   5   21.38    3.75
  11   1  -5    8.88    3.00
  10   1  -5    2.86    2.38
   9   1  -5    0.51    1.78
   8   1  -5    5.89    2.09
   8   1  -5    5.73    1.62
   8   1  -5    4.34    1.43
   8   1  -5    4.89    2.17
   7   1  -5    0.77    1.72
   7   1  -5    0.32    1.44
   7   1  -5    1.66    1.30
   6   1  -5    2.04    1.64
   6   1  -5    1.70    1.22
   6   1  -5    2.02    1.37
   5   1  -5    2.59    1.54
   5   1  -5    1.91    1.17
   4   1  -5   -0.63    0.94
   4   1  -5    0.72    1.28
   3   1  -5   -0.20    1.14
   3   1  -5    1.66    0.92
   2   1  -5    0.48    0.71
   2   1  -5    1.18    1.19
   1   1  -5   10.83    1.73
   1   1  -5    9.26    0.90
   0   1  -5   13.89    1.82
  -1   1  -5    5.25    1.38
  -2   1  -5    8.61    1.54
  -2   1  -5   11.77    0.98
   2  -1   5    9.62    1.66
   2  -1   5   10.31    0.97
  -3   1  -5   31.96    2.74
  -3   1  -5   38.13    2.19
   3  -1   5   36.99    2.83
   3  -1   5   37.00    2.18
  -4   1  -5    6.23    1.51
   4  -1   5    5.93    1.19
   4  -1   5    5.72    1.49
  -5   1  -5    3.95    1.44
  -5   1  -5    1.68    0.74
   5  -1   5    3.74    1.23
   5  -1   5    2.84    1.28
  -6   1  -5    4.93    1.63
   6  -1   5    3.41    1.34
  -7   1  -5   36.30    3.44
   7  -1   5   34.53    3.15
   7  -1   5   39.60    3.16
  -8   1  -5   28.33    3.18
   8  -1   5   39.64    3.26
   8  -1   5   32.85    3.35
  -9   1  -5    6.08    2.02
   9  -1   5    4.94    1.96
   9  -1   5    8.24    1.91
  10  -1   5    2.99    1.90
  10  -1   5    2.96    1.49
  11  -1   5    6.53    2.36
  12  -1   5   11.80    2.95
  11   0  -5    2.43    2.50
  10   0  -5    9.89    2.75
   9   0  -5   22.24    3.37
   8   0  -5    6.31    2.17
   7   0  -5   16.33    1.96
   7   0  -5   12.97    2.38
   6   0  -5   20.98    2.15
   6   0  -5   26.18    3.14
   6   0  -5   19.48    2.49
   5   0  -5    8.23    1.94
   5   0  -5    9.41    1.68
   4   0  -5  122.26    5.95
   4   0  -5  121.18    6.46
   3   0  -5    5.82    1.58
   3   0  -5    7.43    1.19
   2   0  -5  228.00   10.25
   2   0  -5  222.00    9.61
   1   0  -5    2.95    1.29
   1   0  -5    4.47    0.66
   0   0  -5   89.47    4.73
  -1   0  -5   39.88    2.85
   1   0   5   37.23    2.77
  -2   0  -5    1.28    1.19
   2   0   5    0.14    0.49
   2   0   5    0.66    0.99
  -3   0  -5   32.49    2.59
   3   0   5   29.84    1.94
   3   0   5   32.28    2.91
  -4   0  -5   29.10    2.64
   4   0   5   20.57    1.91
   4   0   5   24.51    2.43
  -5   0  -5   88.22    4.85
   5   0   5   86.53    4.83
   5   0   5   80.38    4.47
  -6   0  -5  127.99    6.62
  -6   0  -5  127.13    5.52
   6   0   5  125.19    6.34
   6   0   5  125.15    6.54
  -7   0  -5    2.93    1.52
   7   0   5    3.03    1.50
   7   0   5    3.19    1.48
  -8   0  -5    2.70    1.72
   8   0   5    5.32    1.75
   8   0   5    3.96    1.74
  -9   0  -5   50.10    4.15
   9   0   5   46.11    4.08
   9   0   5   51.27    4.08
  10   0   5   31.48    3.36
  10   0   5   30.89    3.70
  11   0   5   10.69    2.63
  12   0   5    3.36    2.29
  10  -1  -5   -0.14    2.21
   9  -1  -5    1.93    2.05
   8  -1  -5    2.94    1.95
   7  -1  -5    4.08    1.83
   6  -1  -5    7.63    1.30
   6  -1  -5    5.54    1.84
   6  -1  -5    4.49    1.69
   5  -1  -5    0.98    1.44
   5  -1  -5    1.99    1.22
   4  -1  -5   17.01    2.35
   4  -1  -5   18.00    1.99
   3  -1  -5    5.83    1.17
   3  -1  -5    6.08    1.55
   2  -1  -5  112.19    5.25
   2  -1  -5  115.56    5.94
  -2   1   5  115.55    5.29
   1  -1  -5    0.30    0.61
   1  -1  -5    1.60    1.17
  -1   1   5   -0.30    0.58
   0  -1  -5    4.26    1.40
   0  -1  -5    4.60    0.60
   0   1   5    2.89    1.13
   0   1   5    5.31    0.62
  -1  -1  -5   22.66    2.18
   1   1   5   18.71    1.09
   1   1   5   16.40    1.80
  -2  -1  -5    5.54    1.39
   2   1   5    8.38    1.47
  -3  -1  -5   47.59    3.08
   3   1   5   39.52    2.39
  -4  -1  -5    8.78    1.62
   4   1   5    5.35    1.12
   4   1   5    4.89    1.50
  -5  -1  -5   47.55    3.36
   5   1   5   46.02    3.52
   5   1   5   52.05    3.10
  -6  -1  -5   72.75    4.47
   6   1   5   60.05    4.55
   6   1   5   87.76    4.45
  -7  -1  -5    5.15    1.70
   7   1   5    6.16    1.65
   7   1   5    5.03    1.77
  -8  -1  -5   -1.82    1.38
   8   1   5   -2.61    1.19
   8   1   5   -1.70    1.31
  -9  -1  -5   29.96    3.34
   9   1   5   29.50    3.34
   9   1   5   30.41    3.47
  10   1   5   38.85    3.91
  10   1   5   32.55    3.75
  11   1   5    8.15    2.45
  11   1   5    6.35    2.36
  12   1   5    0.79    2.10
  10  -2  -5   -1.23    2.11
   9  -2  -5   -1.55    1.84
   8  -2  -5    2.54    1.85
   7  -2  -5   25.45    3.19
   6  -2  -5   21.60    1.79
   6  -2  -5   20.60    2.61
   5  -2  -5    2.99    1.74
   5  -2  -5    5.90    1.64
   4  -2  -5   33.09    2.70
   4  -2  -5   38.80    3.32
   3  -2  -5    1.87    1.34
   3  -2  -5    1.25    1.04
   2  -2  -5   72.49    4.20
   2  -2  -5   65.73    3.56
   1  -2  -5   -0.80    1.02
   1  -2  -5   -0.18    0.71
  -1   2   5    1.97    0.80
  -1   2   5   -1.67    0.91
   0  -2  -5   13.91    1.24
   0  -2  -5   14.96    1.92
   0   2   5   10.30    1.61
   0   2   5   14.68    1.24
  -1  -2  -5   23.25    2.32
   1   2   5   23.25    1.58
   1   2   5   28.65    2.46
  -2  -2  -5   23.68    2.32
   2   2   5   30.10    2.79
   2   2   5   19.89    1.62
   3   2   5   26.78    2.84
  -4  -2  -5    6.95    1.60
   4   2   5    6.15    1.69
  -5  -2  -5   -0.24    1.19
   5   2   5    0.97    1.34
   5   2   5    0.33    0.97
  -6  -2  -5    8.39    1.76
   6   2   5    4.31    1.68
   6   2   5    5.96    1.53
  -7  -2  -5   30.68    3.05
   7   2   5   32.07    3.24
   7   2   5   26.67    2.81
  -8  -2  -5   32.33    3.27
   8   2   5   28.84    3.36
   8   2   5   33.36    3.32
  -9  -2  -5   10.55    2.24
   9   2   5   15.19    2.55
   9   2   5    8.74    2.23
  10   2   5    2.20    1.89
  10   2   5    3.27    1.96
  11   2   5   10.32    2.55
  11   2   5    2.31    1.98
  12   2   5    2.38    2.40
  10  -3  -5   -1.03    2.17
   9  -3  -5   -2.38    1.77
   8  -3  -5   -1.01    1.71
   7  -3  -5    8.20    2.32
   6  -3  -5   18.55    2.63
   5  -3  -5    2.92    1.63
   5  -3  -5    1.72    1.41
   4  -3  -5   70.59    4.33
   4  -3  -5   73.67    3.63
   4  -3  -5   72.48    4.71
   3  -3  -5    3.15    1.48
   3  -3  -5    0.76    1.12
   2  -3  -5  106.14    5.06
   2  -3  -5   96.24    5.41
  -2   3   5   98.69    4.91
   1  -3  -5    3.70    1.39
   1  -3  -5    3.49    1.00
  -1   3   5    3.86    1.13
   0  -3  -5   37.99    2.83
   0  -3  -5   35.30    2.28
   0   3   5   38.00    2.53
   0   3   5   30.44    2.87
  -1  -3  -5   31.96    2.57
   1   3   5   33.47    2.41
  -2  -3  -5    1.91    1.17
   2   3   5    3.86    1.66
   2   3   5    1.27    0.92
  -3  -3  -5  115.71    5.73
   3   3   5  111.72    5.34
   3   3   5  114.79    5.95
  -4  -3  -5    6.98    1.53
   4   3   5    6.51    1.11
   4   3   5    7.92    1.72
  -5  -3  -5    9.02    1.64
   5   3   5    8.86    1.19
   5   3   5   10.74    1.96
  -6  -3  -5   20.29    2.40
   6   3   5   17.78    2.36
  -7  -3  -5   94.18    5.30
   7   3   5   87.25    5.23
   7   3   5   91.99    5.48
  -8  -3  -5   51.82    3.97
   8   3   5   56.25    4.13
   8   3   5   46.67    3.92
  -9  -3  -5    2.48    1.73
   9   3   5    3.30    1.87
   9   3   5    1.84    1.72
  10   3   5   -0.15    1.61
  10   3   5   -1.94    1.64
  11   3   5    3.00    2.17
  11   3   5    2.50    2.14
  12   3   5    5.49    2.49
  12   3   5   17.25    3.30
  10  -4  -5    2.30    2.47
   9  -4  -5   12.82    3.10
   8  -4  -5    1.52    1.97
   7  -4  -5    2.45    1.85
   6  -4  -5    1.42    1.63
   5  -4  -5    4.48    1.91
   5  -4  -5    7.01    1.82
   4  -4  -5    3.26    1.44
   4  -4  -5    5.60    1.81
   3  -4  -5    2.62    1.52
   3  -4  -5    1.23    1.25
  -3   4   5    0.80    1.05
  -3   4   5    0.47    0.77
   2  -4  -5   -0.50    1.21
   2  -4  -5    0.59    1.09
  -2   4   5    1.85    0.90
  -2   4   5    1.97    1.03
   1  -4  -5   21.10    2.07
   1  -4  -5   22.50    2.34
  -1   4   5   20.99    2.00
  -1   4   5   22.89    2.17
   0  -4  -5   30.94    2.65
   0  -4  -5   25.15    2.18
   0   4   5   25.37    2.20
  -1  -4  -5   12.72    1.65
  -1  -4  -5   12.41    1.80
   1   4   5   13.98    1.62
   1   4   5   15.70    1.94
  -2  -4  -5   -0.40    1.11
   2   4   5    1.92    1.23
   2   4   5    2.40    0.94
  -3  -4  -5    4.54    1.36
   3   4   5    5.50    1.48
   3   4   5    3.34    1.06
  -4  -4  -5    5.34    1.43
   4   4   5    4.10    1.04
   4   4   5    3.12    1.40
  -5  -4  -5   39.67    3.05
   5   4   5   45.07    2.68
   5   4   5   42.71    3.41
  -6  -4  -5    3.03    1.49
   6   4   5    2.41    1.56
   6   4   5    3.44    1.00
  -7  -4  -5   36.53    3.17
   7   4   5   37.64    3.49
   7   4   5   42.50    2.47
  -8  -4  -5   16.19    2.43
   8   4   5   17.84    2.76
   8   4   5   18.47    2.71
  -9  -4  -5    6.26    1.89
   9   4   5    9.02    2.23
   9   4   5   10.67    2.44
  10   4   5    7.71    2.43
  10   4   5   12.11    2.54
  11   4   5   13.10    2.91
  11   4   5    9.02    2.60
  12   4   5    7.80    2.64
  12   4   5    5.08    2.66
   9  -5  -5    8.24    2.76
   8  -5  -5   11.51    2.93
   7  -5  -5    3.38    2.03
   6  -5  -5   14.13    2.59
   5  -5  -5    2.54    1.71
   5  -5  -5    5.31    1.91
   4  -5  -5   29.74    3.10
   4  -5  -5   36.61    3.50
  -4   5   5   28.85    2.67
   3  -5  -5    6.00    1.58
   3  -5  -5    4.57    1.61
  -3   5   5    3.19    0.91
  -3   5   5    3.56    1.36
   2  -5  -5   69.81    4.30
   2  -5  -5   76.32    4.51
  -2   5   5   72.36    4.17
  -2   5   5   75.06    3.97
   1  -5  -5   29.62    2.58
   1  -5  -5   33.04    2.74
  -1   5   5   29.08    2.44
   0  -5  -5   13.34    1.89
   0  -5  -5    8.59    1.59
   0   5   5   10.09    1.53
   0   5   5   10.46    1.65
  -1  -5  -5   46.68    3.19
  -1  -5  -5   50.22    3.27
   1   5   5   46.57    3.08
   1   5   5   46.00    3.22
  -2  -5  -5    9.76    1.63
   2   5   5   10.80    1.88
   2   5   5   12.38    1.62
  -3  -5  -5   67.80    3.92
   3   5   5   65.55    4.28
   3   5   5   72.51    3.92
  -4  -5  -5    5.85    1.41
   4   5   5    5.03    1.25
   4   5   5    8.27    1.81
  -5  -5  -5   47.69    3.32
   5   5   5   49.68    3.08
   5   5   5   49.09    3.80
  -6  -5  -5   33.05    2.74
   6   5   5   28.79    3.11
   6   5   5   28.18    2.28
  -7  -5  -5   -0.67    1.25
   7   5   5    1.15    0.90
   7   5   5   -0.91    1.48
  -8  -5  -5    6.39    1.74
   8   5   5    4.11    1.89
  -9  -5  -5    5.81    1.87
   9   5   5    6.89    2.26
   9   5   5    5.09    2.06
  10   5   5   32.87    3.78
  10   5   5   23.40    3.50
  11   5   5    8.84    2.67
  11   5   5    8.91    2.69
   9  -6  -5   -1.77    2.19
   8  -6  -5    2.61    2.27
   7  -6  -5    3.35    2.23
   6  -6  -5    0.17    1.77
   6  -6  -5   -0.14    1.78
   5  -6  -5    0.40    1.63
   5  -6  -5   -0.72    1.60
  -5   6   5    3.25    1.45
   4  -6  -5    2.46    1.77
   4  -6  -5    2.34    1.67
  -4   6   5    1.68    1.41
   3  -6  -5    2.12    1.55
   3  -6  -5    1.99    1.54
  -3   6   5   -2.18    1.00
  -3   6   5    4.15    1.45
   2  -6  -5    4.85    1.60
   2  -6  -5    5.12    1.64
  -2   6   5    1.49    1.19
  -2   6   5    3.53    1.45
   1  -6  -5   11.88    1.89
   1  -6  -5   13.92    2.10
  -1   6   5   16.61    2.10
  -1   6   5   12.87    1.80
   0  -6  -5    0.62    1.12
   0  -6  -5   -0.28    1.20
   0   6   5    2.11    1.20
   0   6   5    0.59    1.20
  -1  -6  -5   -0.52    1.06
  -1  -6  -5    1.50    1.33
   1   6   5    0.24    1.18
   1   6   5    0.43    1.20
  -2  -6  -5   10.00    1.61
   2   6   5    9.52    1.88
   2   6   5   12.57    1.74
  -3  -6  -5   -0.40    1.05
   3   6   5   -0.80    1.07
   3   6   5    2.19    1.47
  -4  -6  -5    5.51    1.38
   4   6   5    4.02    1.73
   4   6   5    5.97    1.33
  -5  -6  -5   12.97    1.78
   5   6   5   11.60    2.30
   5   6   5    9.74    1.60
  -6  -6  -5   34.78    2.85
   6   6   5   32.55    3.48
   6   6   5   36.89    2.71
  -7  -6  -5    0.04    1.17
   7   6   5    1.00    1.68
   7   6   5    1.18    1.06
  -8  -6  -5    6.75    1.70
   8   6   5    5.86    2.15
   8   6   5    4.67    1.36
   9   6   5   19.66    3.28
  10   6   5    7.52    2.50
  10   6   5    8.97    2.62
  11   6   5    7.61    2.78
  11   6   5    2.67    2.36
   8  -7  -5    1.19    2.28
   8  -7  -5   -0.79    1.75
   7  -7  -5    5.68    2.36
   7  -7  -5    2.77    2.41
   6  -7  -5    8.44    2.34
   6  -7  -5    7.60    2.41
  -6   7   5    4.41    1.79
   5  -7  -5    4.03    1.95
   5  -7  -5    5.27    2.06
  -5   7   5    2.26    1.55
   4  -7  -5   14.75    2.65
   4  -7  -5   15.51    2.59
  -4   7   5   14.54    2.24
   3  -7  -5   -0.86    1.58
   3  -7  -5    2.85    1.63
  -3   7   5    3.49    1.51
   2  -7  -5    8.33    1.81
   2  -7  -5    5.20    1.92
  -2   7   5    8.29    1.70
  -2   7   5    6.90    1.55
   1  -7  -5   32.10    3.23
   1  -7  -5   32.92    2.98
  -1   7   5   34.29    3.04
  -1   7   5   28.26    2.71
   0  -7  -5   32.92    3.16
   0  -7  -5   25.72    2.60
   0   7   5   30.74    2.81
   0   7   5   26.38    2.70
  -1  -7  -5   23.80    2.34
  -1  -7  -5   23.26    2.65
   1   7   5   22.49    2.42
   1   7   5   24.07    2.66
  -2  -7  -5    6.98    1.53
   2   7   5    6.08    1.78
   2   7   5    5.47    1.48
  -3  -7  -5   30.09    2.48
   3   7   5   30.02    3.15
   3   7   5   26.93    2.56
  -4  -7  -5   22.55    2.19
   4   7   5   25.88    2.46
   4   7   5   18.40    2.79
  -5  -7  -5    7.08    1.45
   5   7   5    5.77    1.51
   5   7   5   10.17    2.28
  -6  -7  -5    3.94    1.32
   6   7   5    2.01    1.85
   6   7   5    3.37    1.36
  -7  -7  -5    7.89    1.76
   7   7   5   10.88    2.64
   7   7   5    8.50    1.61
   8   7   5   25.16    3.75
   8   7   5   36.43    2.85
   9   7   5   16.78    3.30
  10   7   5   -0.12    2.14
  11   7   5   -2.06    2.01
  11   7   5   -1.90    2.03
   8  -8  -5   -1.17    1.97
   8  -8  -5    3.18    2.43
   7  -8  -5    0.05    1.77
   7  -8  -5    0.04    2.06
   6  -8  -5    3.52    2.12
   6  -8  -5    1.52    2.15
  -6   8   5    2.57    1.77
   5  -8  -5   -1.65    1.72
   5  -8  -5   -1.15    1.56
  -5   8   5   -1.94    1.42
   4  -8  -5   -0.83    1.46
   4  -8  -5   -0.78    1.69
  -4   8   5    0.84    1.45
   3  -8  -5    3.64    1.76
   3  -8  -5    3.17    1.90
  -3   8   5    1.30    1.55
   2  -8  -5    1.29    1.45
   2  -8  -5   -1.30    1.59
  -2   8   5    1.73    1.51
  -2   8   5    1.85    1.25
   1  -8  -5   -0.76    1.25
   1  -8  -5    1.99    1.73
  -1   8   5    0.41    1.23
  -1   8   5   -1.46    1.30
   0  -8  -5    1.74    1.35
   0  -8  -5   -1.35    1.52
   0   8   5    1.45    1.42
   0   8   5    1.93    1.48
  -1  -8  -5    8.39    1.63
  -1  -8  -5   12.21    2.28
   1   8   5   10.24    1.84
   1   8   5   10.70    2.11
  -2  -8  -5    0.20    1.08
   2   8   5   -2.80    1.36
   2   8   5    0.28    1.20
  -3  -8  -5    8.55    1.48
   3   8   5    8.60    2.17
   3   8   5    7.22    1.72
   4   8   5   -0.64    1.24
   4   8   5    3.54    1.91
   5   8   5    3.04    1.45
   5   8   5    2.39    1.95
   6   8   5    1.13    1.93
   6   8   5   -2.20    1.13
   7   8   5    2.51    2.21
   7   8   5    5.75    1.63
   8   8   5   13.46    3.15
   8   8   5   16.24    2.11
   9   8   5    2.23    2.15
  10   8   5    1.67    2.40
   7  -9  -5   -0.29    2.43
   7  -9  -5   -1.87    1.83
   6  -9  -5   -1.47    2.11
   6  -9  -5   -4.13    1.41
  -6   9   5   -3.26    1.50
   5  -9  -5    2.57    1.93
   5  -9  -5    3.66    2.30
  -5   9   5    5.90    1.96
   4  -9  -5    9.71    2.61
   4  -9  -5    9.63    2.33
  -4   9   5   11.73    2.27
   3  -9  -5    1.52    1.58
   3  -9  -5    3.39    2.13
  -3   9   5    3.92    1.79
   2  -9  -5   -0.88    1.82
   2  -9  -5   -0.76    1.30
  -2   9   5    0.41    1.62
   1  -9  -5    8.25    2.27
   1  -9  -5   12.11    2.06
  -1   9   5    8.64    1.96
  -1   9   5   11.67    2.20
   0  -9  -5   13.48    2.66
   0  -9  -5   11.96    2.83
   0   9   5   10.41    2.03
   0   9   5   17.03    2.41
  -1  -9  -5   17.89    2.77
   1   9   5   19.90    2.56
   1   9   5   20.93    2.88
   2   9   5    0.90    1.68
   2   9   5    0.82    1.38
   3   9   5   -0.57    1.65
   3   9   5    1.80    1.36
   4   9   5    1.32    1.36
   4   9   5    1.01    1.85
   5   9   5   13.76    2.90
   5   9   5   14.38    2.23
   6   9   5    7.27    1.86
   6   9   5    9.92    2.83
   7   9   5   10.23    2.76
   7   9   5    9.11    1.97
   8   9   5    0.86    2.31
   8   9   5    3.52    1.64
   9   9   5    0.43    2.23
   6 -10  -5   -0.43    2.70
   6 -10  -5    2.90    2.53
  -6  10   5   -1.84    1.66
   5 -10  -5    1.55    2.20
  -5  10   5   -0.76    1.65
   4 -10  -5    5.58    2.62
  -4  10   5    2.51    1.83
   3 -10  -5    0.44    2.17
  -3  10   5   -0.50    1.70
   2 -10  -5    1.29    2.05
  -2  10   5   -1.19    1.62
   1 -10  -5   10.27    2.65
  -1  10   5   12.38    2.39
   0 -10  -5    4.28    2.34
   0  10   5    3.87    1.82
   0  10   5    3.04    1.78
  -1 -10  -5   11.62    2.64
   1  10   5    2.88    1.91
   1  10   5    5.98    1.96
   2  10   5   -0.75    1.69
   2  10   5    0.36    1.50
   3  10   5    2.96    2.05
   3  10   5    3.37    1.69
   4  10   5    0.24    1.55
   4  10   5    1.38    2.15
   5  10   5   18.42    3.42
   5  10   5   13.86    2.38
   6  10   5    2.66    2.40
   6  10   5    4.57    1.83
   7  10   5    3.60    2.46
   7  10   5    4.59    1.76
   8  10   5   -1.36    2.18
   8  10   5    2.53    1.63
   4 -11  -5    1.23    2.38
  -4  11   5    0.02    1.94
   3 -11  -5   -2.71    1.89
  -3  11   5   -0.51    1.74
   2 -11  -5    0.94    2.17
  -2  11   5   -1.63    1.87
   1 -11  -5   -1.55    1.99
  -1  11   5   -0.82    1.77
   0 -11  -5    0.89    1.96
   0  11   5    1.09    1.86
   0  11   5    4.61    2.01
   1  11   5   -0.64    1.69
   1  11   5    3.86    2.13
   2  11   5   -2.59    1.48
   2  11   5    0.37    2.02
   3  11   5   -1.24    1.92
   3  11   5    0.41    1.59
   4  11   5   -1.59    2.10
   4  11   5    1.18    1.66
   5  11   5    3.99    2.63
   5  11   5   -1.37    1.47
   6  11   5    1.32    1.71
   6  11   5    3.70    2.72
   7  11   5    3.85    2.75
   7  11   5    1.18    1.73
   2 -12  -5    2.30    2.35
  -2  12   5   -0.79    1.95
   1 -12  -5    5.64    2.75
  -1  12   5    7.20    2.46
   0 -12  -5   -2.58    2.02
   0  12   5    2.95    1.95
   1  12   5   -2.98    1.92
   1  12   5   -0.39    1.71
   2  12   5    0.54    2.34
   2  12   5    1.23    1.98
   3  12   5    8.05    2.90
   3  12   5    3.67    2.10
   4  12   5    8.72    2.33
   4  12   5    8.76    3.07
   5  12   5    2.81    2.02
   5  12   5    0.20    2.62
   2  11  -6    7.64    2.83
   1  11  -6    0.58    2.07
   1  11  -6    1.50    2.05
   0  11  -6    2.33    2.19
   0  11  -6    0.56    2.07
  -1  11  -6    0.01    2.02
  -1  11  -6    0.88    2.00
  -2  11  -6    3.64    2.25
  -2  11  -6    3.26    2.14
   2 -11   6    6.30    2.53
   4  10  -6    4.69    2.59
   4  10  -6    2.88    2.12
   3  10  -6    8.17    2.46
   3  10  -6    3.25    2.42
   2  10  -6   -0.12    2.09
   2  10  -6    2.46    2.13
   1  10  -6   -0.18    1.94
   1  10  -6    0.66    1.96
   0  10  -6    0.39    1.91
   0  10  -6    0.99    2.03
  -1  10  -6   -2.53    1.64
  -1  10  -6    1.54    2.01
  -2  10  -6    2.98    2.01
  -2  10  -6    2.46    1.93
   2 -10   6    0.77    2.05
  -3  10  -6    8.10    2.28
  -3  10  -6    2.85    1.97
   3 -10   6    9.11    2.52
  -4  10  -6    3.10    1.87
   4 -10   6   -3.11    1.84
  -5  10  -6   -0.42    1.75
   5 -10   6    0.22    2.08
   6   9  -6   -0.75    1.66
   6   9  -6    1.60    2.38
   5   9  -6    7.09    2.71
   5   9  -6    5.80    2.18
   4   9  -6   17.32    3.40
   4   9  -6   11.49    2.53
   3   9  -6    4.03    2.36
   3   9  -6    0.36    1.69
   2   9  -6    2.52    1.91
   2   9  -6    2.25    2.03
   1   9  -6    2.50    1.92
   1   9  -6    4.68    2.08
   0   9  -6    9.01    2.47
   0   9  -6    7.03    2.15
  -1   9  -6    2.91    1.88
  -2   9  -6    5.88    2.05
   2  -9   6    8.41    2.32
  -3   9  -6    1.78    1.90
   3  -9   6    0.74    1.81
  -4   9  -6    1.40    1.72
   4  -9   6    0.82    1.94
  -5   9  -6    0.78    1.63
   5  -9   6    0.27    1.97
   6  -9   6   -0.81    1.88
   7  -9   6    0.40    2.22
   7   8  -6    0.93    1.71
   7   8  -6    3.94    2.52
   6   8  -6   10.12    2.97
   6   8  -6   13.75    2.53
   5   8  -6    9.46    2.67
   5   8  -6   10.85    2.33
   4   8  -6    7.56    2.52
   4   8  -6   10.17    2.24
   3   8  -6    3.10    2.04
   3   8  -6    2.89    1.85
   2   8  -6   -2.61    1.50
   2   8  -6    1.17    1.65
   1   8  -6    2.58    1.76
   0   8  -6   17.16    2.54
  -1   8  -6    1.03    1.63
   1  -8   6    3.30    1.77
  -2   8  -6    1.78    1.53
  -2   8  -6    1.88    1.40
   2  -8   6    0.36    1.62
  -3   8  -6   -0.15    1.31
  -3   8  -6   -2.51    1.37
   3  -8   6    1.94    1.63
  -4   8  -6    3.35    1.75
  -4   8  -6    1.51    1.51
   4  -8   6   -1.71    1.49
  -5   8  -6    5.44    1.93
  -5   8  -6    5.17    1.78
   5  -8   6    3.69    2.03
  -6   8  -6   -0.91    2.15
   6  -8   6    0.80    1.85
   7  -8   6    0.65    1.98
   8  -8   6    2.39    2.31
   8   7  -6    6.34    2.66
   8   7  -6   11.12    2.26
   8   7  -6    7.97    2.52
   7   7  -6   13.21    3.08
   7   7  -6   12.91    2.37
   6   7  -6    8.84    2.67
   6   7  -6   10.80    2.24
   5   7  -6    1.52    1.94
   5   7  -6    5.22    1.88
   4   7  -6   -0.58    1.63
   4   7  -6   -0.26    1.46
   3   7  -6   11.72    2.27
   3   7  -6    7.61    2.27
   2   7  -6   26.92    2.94
   1   7  -6    4.91    1.83
   1   7  -6    5.63    1.39
   0   7  -6    8.04    1.61
   0   7  -6    6.13    1.84
  -1   7  -6    2.50    1.61
  -1   7  -6    1.88    1.25
   1  -7   6    1.84    1.50
  -2   7  -6   14.33    2.17
  -2   7  -6   12.01    1.94
   2  -7   6   14.24    2.20
  -3   7  -6    1.22    1.40
  -3   7  -6    3.61    1.51
   3  -7   6    1.61    1.53
  -4   7  -6   -1.40    1.35
  -4   7  -6    0.86    1.34
   4  -7   6   -1.00    1.48
  -5   7  -6   -3.00    1.13
  -5   7  -6    0.34    1.53
   5  -7   6   -1.77    1.43
  -6   7  -6    1.93    1.36
  -6   7  -6   -1.43    1.45
   6  -7   6    1.87    1.85
   7  -7   6    4.85    2.04
   8  -7   6    2.07    2.04
   9  -7   6    1.70    2.28
   8   6  -6   14.54    2.46
   8   6  -6   19.59    3.38
   8   6  -6   18.78    3.24
   7   6  -6   11.92    2.48
   7   6  -6   17.28    2.58
   7   6  -6   14.94    2.83
   6   6  -6   13.34    2.71
   6   6  -6   10.21    2.08
   5   6  -6    6.80    1.82
   5   6  -6    5.87    1.86
   5   6  -6    6.71    2.16
   4   6  -6    3.61    1.48
   4   6  -6    3.49    1.69
   4   6  -6    5.45    1.94
   3   6  -6   31.94    3.19
   2   6  -6   27.27    2.59
   2   6  -6   27.96    2.93
   1   6  -6    6.56    1.51
   1   6  -6    5.81    1.67
   0   6  -6   13.07    2.17
   0   6  -6   17.29    2.05
  -1   6  -6    4.10    1.45
  -1   6  -6    3.93    1.55
   1  -6   6    7.40    1.55
  -2   6  -6   17.35    2.27
  -2   6  -6   22.76    2.44
   2  -6   6   21.11    2.35
  -3   6  -6    5.32    1.51
  -3   6  -6    4.67    1.58
   3  -6   6    0.71    1.39
  -4   6  -6    1.64    1.56
  -4   6  -6    1.73    1.27
   4  -6   6    1.54    1.46
  -5   6  -6    8.20    2.01
  -5   6  -6    8.45    1.65
   5  -6   6    9.37    2.05
  -6   6  -6    3.43    1.76
  -6   6  -6    5.02    1.41
   6  -6   6    3.59    1.85
  -7   6  -6   10.12    2.36
   7  -6   6    7.74    2.25
   8  -6   6    5.53    2.35
   9  -6   6   -0.45    1.87
   9   5  -6   15.75    3.09
   9   5  -6   17.72    3.22
   8   5  -6   20.99    3.21
   8   5  -6   18.48    2.65
   8   5  -6   19.88    3.29
   8   5  -6   19.15    3.04
   7   5  -6    4.37    1.88
   7   5  -6    5.21    1.69
   7   5  -6    2.17    1.93
   7   5  -6    4.99    2.01
   6   5  -6    2.84    1.78
   6   5  -6    2.78    1.54
   6   5  -6    3.25    1.47
   6   5  -6    3.57    1.85
   5   5  -6   44.31    3.94
   5   5  -6   42.34    3.62
   5   5  -6   41.07    3.45
   4   5  -6   39.32    3.35
   4   5  -6   33.63    3.18
   3   5  -6    8.09    1.77
   3   5  -6    9.31    1.84
   2   5  -6    0.58    1.21
   2   5  -6    2.20    1.36
   1   5  -6    6.57    1.68
   1   5  -6    6.17    1.61
   0   5  -6    7.81    1.70
   0   5  -6    9.88    1.72
  -1   5  -6   11.71    1.84
  -1   5  -6    9.99    1.82
   1  -5   6   11.61    1.70
  -2   5  -6    1.31    1.22
  -2   5  -6    0.96    1.28
   2  -5   6    0.22    1.09
  -3   5  -6   10.55    1.67
  -3   5  -6    9.13    1.86
   3  -5   6   10.80    1.71
  -4   5  -6   10.54    1.97
  -4   5  -6   12.89    1.80
   4  -5   6   10.79    1.93
  -5   5  -6    2.39    1.21
  -5   5  -6    1.70    1.51
   5  -5   6    0.60    1.34
  -6   5  -6    7.27    2.03
  -6   5  -6    6.96    1.35
   6  -5   6    8.87    2.00
  -7   5  -6    0.58    1.74
   7  -5   6    4.30    1.79
  -8   5  -6   -1.39    1.60
   8  -5   6    0.89    1.87
   9  -5   6    2.53    2.10
  10  -5   6   -1.94    2.03
   9   4  -6   33.99    4.12
   9   4  -6   29.17    3.77
   9   4  -6   37.10    4.16
   8   4  -6    7.56    1.79
   8   4  -6    6.71    2.27
   8   4  -6    2.52    1.88
   8   4  -6    4.15    2.07
   7   4  -6    2.13    1.81
   7   4  -6   -0.82    1.24
   7   4  -6   -2.50    1.36
   7   4  -6    0.19    1.44
   6   4  -6   11.70    2.23
   6   4  -6    6.80    1.65
   6   4  -6   10.94    2.16
   6   4  -6    5.36    1.98
   5   4  -6   36.88    3.61
   5   4  -6   31.96    3.24
   5   4  -6   29.26    2.88
   5   4  -6   32.45    2.85
   4   4  -6   76.66    4.97
   4   4  -6   95.58    5.08
   3   4  -6    6.16    1.53
   3   4  -6    4.89    1.59
   2   4  -6   23.32    2.37
   2   4  -6   17.58    2.25
   1   4  -6    2.15    1.21
   1   4  -6   -1.34    1.17
   0   4  -6   96.64    5.16
   0   4  -6   89.23    5.01
  -1   4  -6   20.46    2.36
  -1   4  -6   18.10    2.00
   1  -4   6   18.08    1.78
  -2   4  -6   18.25    2.28
  -2   4  -6   16.72    1.91
   2  -4   6   17.34    1.77
  -3   4  -6   16.74    1.90
  -3   4  -6   15.91    2.15
   3  -4   6   16.63    1.84
  -4   4  -6    0.01    1.30
  -4   4  -6   -0.46    0.98
   4  -4   6    1.66    1.17
  -5   4  -6   31.82    3.19
  -5   4  -6   30.97    2.43
   5  -4   6   31.22    2.88
  -6   4  -6    2.56    1.73
  -6   4  -6    3.00    1.10
   6  -4   6    5.50    1.66
  -7   4  -6   12.89    2.46
   7  -4   6   14.14    2.49
  -8   4  -6    2.71    1.90
   8  -4   6    9.35    2.29
   9  -4   6    2.82    2.21
  10  -4   6    5.12    2.56
  11  -4   6    0.87    2.41
  10   3  -6    9.01    2.81
  10   3  -6    7.49    2.73
   9   3  -6    4.37    2.14
   9   3  -6    4.64    2.30
   8   3  -6    5.25    2.02
   8   3  -6    4.52    2.17
   8   3  -6    4.29    1.61
   8   3  -6    3.41    1.82
   7   3  -6   42.88    3.84
   7   3  -6   45.15    3.77
   7   3  -6   38.68    3.43
   7   3  -6   39.52    4.04
   6   3  -6   31.65    3.36
   6   3  -6   25.03    3.03
   6   3  -6   28.94    3.02
   6   3  -6   27.28    2.77
   5   3  -6    3.46    1.42
   5   3  -6   -0.51    1.44
   5   3  -6    1.15    1.17
   4   3  -6   51.96    3.77
   4   3  -6   50.88    3.33
   4   3  -6   46.05    3.38
   3   3  -6    1.58    1.38
   3   3  -6    1.76    1.29
   2   3  -6   20.88    2.39
   2   3  -6   18.63    2.16
   1   3  -6   10.82    1.68
   1   3  -6    9.45    1.76
   1   3  -6   12.87    1.47
   0   3  -6   10.04    1.14
   0   3  -6   12.64    1.90
   0   3  -6    9.17    1.57
  -1   3  -6    7.94    1.73
  -1   3  -6    5.58    1.39
  -1   3  -6    5.25    0.94
  -2   3  -6    1.67    0.97
  -2   3  -6    1.55    1.01
  -2   3  -6    2.53    1.43
   2  -3   6    2.20    0.89
  -3   3  -6    6.70    1.33
  -3   3  -6    6.19    1.64
   3  -3   6    8.41    1.27
  -4   3  -6    2.06    1.37
  -4   3  -6    3.13    1.07
   4  -3   6    3.04    1.17
  -5   3  -6    1.05    0.93
  -5   3  -6    0.14    1.39
   5  -3   6    1.14    1.18
  -6   3  -6   10.39    1.36
  -6   3  -6    8.62    2.02
   6  -3   6   13.43    2.01
  -7   3  -6    1.64    1.61
   7  -3   6    2.64    1.57
  -8   3  -6    0.22    1.59
   8  -3   6    1.98    1.74
  -9   3  -6   -0.73    1.58
   9  -3   6    3.67    1.90
  10  -3   6   10.27    2.72
  11  -3   6    1.34    2.18
  10   2  -6    5.81    2.40
  10   2  -6    2.32    2.30
   9   2  -6    1.42    1.98
   9   2  -6    2.30    2.23
   8   2  -6   11.40    2.49
   8   2  -6    9.10    1.83
   8   2  -6    6.47    2.33
   8   2  -6    5.02    1.82
   7   2  -6   72.85    5.45
   7   2  -6   77.21    5.04
   7   2  -6   75.53    5.00
   7   2  -6   81.31    4.72
   6   2  -6   75.99    4.81
   6   2  -6   72.65    5.17
   6   2  -6   75.65    4.70
   5   2  -6    2.03    1.27
   5   2  -6   -1.70    1.44
   4   2  -6   -0.90    1.24
   4   2  -6    1.37    1.08
   3   2  -6   35.01    2.46
   3   2  -6   34.40    3.04
   2   2  -6  104.08    5.00
   2   2  -6  112.09    5.83
   1   2  -6   25.93    1.65
   1   2  -6   23.74    2.44
   0   2  -6   18.81    1.25
   0   2  -6   22.56    2.31
  -1   2  -6   44.83    3.24
  -1   2  -6   45.67    2.22
  -2   2  -6   12.49    1.11
  -2   2  -6   11.24    1.89
   2  -2   6   11.94    1.14
  -3   2  -6  116.16    5.23
  -3   2  -6  106.60    5.91
  -3   2  -6  117.15    5.50
   3  -2   6  111.36    5.22
  -4   2  -6   24.09    1.99
  -4   2  -6   22.87    2.56
   4  -2   6   22.00    2.00
  -5   2  -6   46.94    2.86
  -5   2  -6   48.20    3.61
   5  -2   6   49.91    3.16
   5  -2   6   48.04    3.59
  -6   2  -6    1.15    1.50
  -6   2  -6    2.96    0.90
   6  -2   6    1.15    1.39
   6  -2   6    0.50    1.23
  -7   2  -6    1.14    1.55
   7  -2   6    1.74    1.43
   7  -2   6    1.97    1.51
  -8   2  -6    8.77    2.22
   8  -2   6    7.95    2.08
   8  -2   6   10.78    2.18
  -9   2  -6    3.77    1.97
   9  -2   6    3.20    1.84
   9  -2   6    2.61    1.69
  10  -2   6    0.41    1.93
  11  -2   6    1.84    2.16
  10   1  -6   14.41    3.13
  10   1  -6   11.65    3.14
   9   1  -6   10.52    2.71
   9   1  -6   12.01    3.03
   8   1  -6   29.33    3.52
   8   1  -6   29.25    3.76
   7   1  -6   27.98    3.49
   7   1  -6   29.82    3.21
   7   1  -6   29.06    2.99
   6   1  -6   24.27    2.75
   6   1  -6   25.02    3.18
   6   1  -6   22.77    2.54
   5   1  -6   39.70    3.73
   5   1  -6   40.15    3.04
   4   1  -6    9.04    1.50
   4   1  -6   10.84    2.06
   3   1  -6   31.66    2.25
   3   1  -6   31.55    3.07
   2   1  -6   86.14    4.08
   2   1  -6   86.21    4.96
   1   1  -6   30.99    2.85
   1   1  -6   28.43    1.59
   0   1  -6   -0.18    1.25
  -1   1  -6    2.75    1.46
  -2   1  -6   19.18    2.33
   2  -1   6   17.01    1.12
  -3   1  -6   17.58    2.20
   3  -1   6   16.05    1.41
   3  -1   6   16.46    2.09
  -4   1  -6    6.89    1.65
   4  -1   6    7.42    1.67
   4  -1   6    6.59    1.19
  -5   1  -6   12.36    2.12
   5  -1   6   12.21    1.65
   5  -1   6   12.93    2.01
  -6   1  -6    3.88    0.95
  -6   1  -6    5.42    1.63
   6  -1   6    3.74    1.40
   6  -1   6    4.36    1.59
  -7   1  -6   10.10    2.09
   7  -1   6   10.71    2.00
   7  -1   6    7.32    1.88
  -8   1  -6    4.38    1.90
   8  -1   6    9.88    2.03
   8  -1   6   10.20    2.12
  -9   1  -6    0.38    1.74
   9  -1   6    1.01    1.60
   9  -1   6   -2.27    1.32
 -10   1  -6   -0.74    1.72
  10  -1   6    3.76    1.76
  10  -1   6    1.40    1.81
  11  -1   6   -0.64    1.76
  12  -1   6    3.70    2.44
  10   0  -6    9.90    2.96
  10   0  -6   15.31    3.31
   9   0  -6   59.15    5.31
   9   0  -6   62.35    5.14
   8   0  -6   44.30    4.32
   8   0  -6   45.70    4.71
   7   0  -6    2.49    1.29
   7   0  -6    1.22    1.87
   7   0  -6    3.87    1.81
   6   0  -6    0.91    1.30
   6   0  -6    0.54    1.73
   5   0  -6  147.95    7.22
   5   0  -6  141.62    7.76
   4   0  -6   48.51    3.16
   4   0  -6   52.20    3.86
   3   0  -6   53.92    3.66
   3   0  -6   43.77    2.79
   2   0  -6   21.58    1.59
   2   0  -6   21.82    2.56
   1   0  -6    2.20    0.53
   1   0  -6    2.95    1.42
   0   0  -6   84.22    4.80
  -1   0  -6   87.86    4.80
   1   0   6   81.31    4.70
  -2   0  -6    0.07    1.22
   2   0   6    1.14    1.19
  -3   0  -6  102.90    5.80
   3   0   6  119.27    5.04
   3   0   6  108.14    5.88
  -4   0  -6    4.60    1.50
   4   0   6    4.35    1.00
   4   0   6    6.65    1.54
  -5   0  -6   57.34    3.90
   5   0   6   57.01    3.34
   5   0   6   53.87    3.84
  -6   0  -6    1.00    1.29
   6   0   6    2.09    1.41
   6   0   6    0.64    1.09
  -7   0  -6    2.66    1.70
  -7   0  -6    5.19    0.98
   7   0   6    3.79    1.49
   7   0   6    6.11    1.82
  -8   0  -6    4.66    1.82
   8   0   6    1.00    1.44
   8   0   6    3.06    1.63
  -9   0  -6    3.97    1.92
   9   0   6    3.36    1.89
   9   0   6    4.76    1.80
 -10   0  -6    2.50    1.98
  10   0   6    4.57    2.04
  10   0   6    8.53    2.07
  11   0   6    5.66    2.36
  11   0   6    9.77    2.56
  12   0   6    3.05    2.24
  10  -1  -6   12.90    3.22
  10  -1  -6   18.29    3.34
   9  -1  -6   20.75    3.35
   9  -1  -6   28.58    3.99
   8  -1  -6   34.21    3.90
   8  -1  -6   39.24    4.44
   7  -1  -6   10.19    2.20
   7  -1  -6    7.73    2.47
   6  -1  -6    5.52    2.13
   6  -1  -6    6.90    1.80
   5  -1  -6   78.33    5.38
   5  -1  -6   91.73    4.99
   4  -1  -6   55.58    3.50
   4  -1  -6   62.90    4.26
   3  -1  -6   18.37    2.48
   3  -1  -6   21.98    1.91
   2  -1  -6    0.25    1.14
   2  -1  -6    0.04    0.73
  -2   1   6    2.26    0.95
   1  -1  -6    0.91    1.33
   1  -1  -6    1.96    0.65
   0  -1  -6   35.82    2.92
   0   1   6   35.25    2.75
  -1  -1  -6   75.68    4.39
   1   1   6   72.16    4.25
  -2  -1  -6    2.08    1.27
   2   1   6    2.74    0.59
   2   1   6    0.72    1.18
   2   1   6    3.68    0.61
  -3  -1  -6  114.06    6.42
   3   1   6  136.14    6.77
   3   1   6  133.24    5.71
  -4  -1  -6    2.97    1.36
   4   1   6    3.23    1.54
   4   1   6    2.68    0.95
  -5  -1  -6   28.85    2.91
   5   1   6   24.20    2.16
   5   1   6   25.09    2.77
  -6  -1  -6    0.30    1.46
   6   1   6   -0.06    1.03
   6   1   6   -0.77    1.41
  -7  -1  -6    7.42    1.93
   7   1   6    8.51    2.15
   7   1   6    4.16    1.46
  -8  -1  -6   24.82    3.13
   8   1   6   30.63    3.45
   8   1   6   31.87    3.19
  -9  -1  -6    4.07    1.97
   9   1   6    0.03    1.53
   9   1   6    0.04    1.79
 -10  -1  -6    8.88    2.49
  10   1   6    7.10    2.22
  10   1   6    6.54    2.27
  11   1   6   -0.04    2.03
  11   1   6    1.87    1.99
  12   1   6    2.18    2.25
  10  -2  -6    2.25    2.27
  10  -2  -6    3.48    2.61
   9  -2  -6    1.86    2.27
   9  -2  -6    2.10    2.20
   8  -2  -6    7.04    2.30
   8  -2  -6    6.74    2.46
   7  -2  -6   59.91    4.98
   7  -2  -6   60.94    4.59
   6  -2  -6   91.65    5.97
   6  -2  -6   87.74    5.30
   5  -2  -6    6.31    1.59
   5  -2  -6    4.65    2.08
   4  -2  -6    7.54    1.95
   4  -2  -6    5.54    1.39
   3  -2  -6   35.30    3.27
   3  -2  -6   38.07    2.66
   2  -2  -6   92.09    5.28
   2  -2  -6   93.17    4.57
   1  -2  -6   76.92    4.50
   1  -2  -6   73.51    3.60
  -1   2   6   74.13    3.59
  -1   2   6   68.50    4.11
   0  -2  -6    1.50    1.37
   0  -2  -6    2.39    0.71
   0   2   6    2.28    0.69
   0   2   6   -0.65    1.09
  -1  -2  -6    3.63    1.38
   1   2   6    0.42    1.19
   1   2   6    2.26    0.67
  -2  -2  -6   17.19    2.21
   2   2   6   18.62    1.46
   2   2   6   21.10    2.30
  -3  -2  -6   51.48    3.49
   3   2   6   50.43    3.83
  -4  -2  -6    2.82    1.39
   4   2   6    5.05    1.54
  -5  -2  -6    1.88    1.36
   5   2   6    2.17    1.14
   5   2   6    3.29    1.67
  -6  -2  -6    0.93    1.40
   6   2   6    0.66    1.16
   6   2   6   -0.88    1.51
  -7  -2  -6    4.67    1.73
   7   2   6    3.58    2.04
   7   2   6    4.37    1.48
  -8  -2  -6   10.48    2.13
   8   2   6    2.65    2.01
   8   2   6   10.70    2.00
  -9  -2  -6    4.88    2.01
   9   2   6    0.69    1.65
   9   2   6    3.15    2.09
 -10  -2  -6    0.90    1.87
  10   2   6   -0.48    1.83
  10   2   6    0.16    1.62
  11   2   6   -1.24    2.01
  11   2   6   -2.77    1.62
  12   2   6   -1.71    2.33
  12   2   6    1.48    2.15
  10  -3  -6    6.31    2.70
  10  -3  -6    7.69    2.89
   9  -3  -6   -3.38    1.79
   9  -3  -6    0.00    2.03
   8  -3  -6    0.71    1.95
   8  -3  -6    5.29    2.29
   7  -3  -6   60.60    4.65
   7  -3  -6   56.73    5.30
   6  -3  -6   61.65    4.45
   6  -3  -6   61.12    4.88
   5  -3  -6    0.45    1.39
   5  -3  -6    2.10    1.72
   4  -3  -6    6.96    1.60
   4  -3  -6    7.57    1.97
   3  -3  -6    4.65    1.78
   3  -3  -6    4.48    1.32
   2  -3  -6   97.53    5.01
   2  -3  -6  100.57    5.63
  -2   3   6  103.09    5.16
   1  -3  -6   72.48    4.59
   1  -3  -6   77.67    3.96
  -1   3   6   79.25    4.28
   0  -3  -6   13.78    2.13
   0  -3  -6   12.93    1.41
   0   3   6   14.74    1.90
  -1  -3  -6   51.01    3.37
   1   3   6   41.58    3.42
  -2  -3  -6    5.26    1.44
   2   3   6    6.49    1.81
   4   3   6    7.11    1.96
  -5  -3  -6   53.07    3.52
   5   3   6   42.16    3.82
  -6  -3  -6    5.11    1.71
   6   3   6    3.97    1.82
  -7  -3  -6    4.83    1.72
   7   3   6    8.07    1.81
   7   3   6    3.35    1.84
  -8  -3  -6   21.89    2.82
   8   3   6   23.82    2.86
   8   3   6   23.00    3.22
  -9  -3  -6    4.41    1.80
   9   3   6    1.75    1.62
   9   3   6    3.77    2.17
 -10  -3  -6    5.76    2.14
  10   3   6    4.28    2.06
  10   3   6   -0.26    1.83
  11   3   6    0.54    2.13
  11   3   6    1.94    2.08
  12   3   6    9.42    2.98
  12   3   6    8.74    2.80
   9  -4  -6   32.81    4.42
   9  -4  -6   27.71    4.10
   8  -4  -6   14.19    3.02
   8  -4  -6   14.50    3.07
   7  -4  -6   12.36    2.57
   7  -4  -6    8.84    2.61
   6  -4  -6   15.46    2.94
   6  -4  -6   17.22    2.68
   5  -4  -6   14.26    2.36
   5  -4  -6   17.87    2.68
   4  -4  -6   79.17    4.85
   4  -4  -6   85.44    5.37
   3  -4  -6   14.06    2.00
   3  -4  -6   20.06    2.63
   2  -4  -6    2.15    1.19
   2  -4  -6    1.01    1.41
  -2   4   6    0.54    0.99
   1  -4  -6   15.07    1.82
   1  -4  -6   12.68    2.00
  -1   4   6   12.55    1.74
  -1   4   6   17.41    1.95
   0  -4  -6   11.45    1.97
   0  -4  -6   14.64    1.69
   0   4   6   15.71    2.01
   0   4   6   17.10    1.95
  -1  -4  -6    1.66    1.05
  -1  -4  -6    0.58    1.32
   1   4   6    0.20    1.37
   1   4   6    2.69    1.19
  -2  -4  -6    1.00    1.28
   2   4   6   -0.29    0.96
   2   4   6    1.05    1.39
  -3  -4  -6    2.75    1.37
   3   4   6    4.37    1.17
   3   4   6    4.10    1.60
  -4  -4  -6   15.98    2.12
   4   4   6   16.34    2.34
   4   4   6   16.51    1.73
  -5  -4  -6    3.39    1.43
   5   4   6    3.36    1.08
   5   4   6    2.09    1.60
  -6  -4  -6    0.97    1.36
   6   4   6    4.81    1.79
   6   4   6    0.90    0.93
  -7  -4  -6    6.65    1.85
   7   4   6    5.38    1.93
  -8  -4  -6   -2.57    1.22
   8   4   6    1.86    1.69
   8   4   6    2.99    1.68
  -9  -4  -6    1.35    1.63
   9   4   6   -0.21    1.69
   9   4   6   -0.43    1.66
 -10  -4  -6    0.23    1.60
  10   4   6    0.45    1.89
  10   4   6   -0.69    1.64
  11   4   6    1.31    2.08
  11   4   6   -0.40    1.83
   9  -5  -6   30.42    4.32
   9  -5  -6   23.07    3.80
   8  -5  -6   35.74    4.35
   8  -5  -6   28.25    3.91
   7  -5  -6    0.22    1.89
   7  -5  -6    2.18    2.04
   6  -5  -6   -0.52    1.64
   6  -5  -6   -1.19    1.74
   5  -5  -6   48.32    4.26
   5  -5  -6   51.92    4.02
   4  -5  -6   99.30    5.70
   4  -5  -6   93.08    5.98
   3  -5  -6   42.31    3.29
   3  -5  -6   45.85    3.80
  -3   5   6   36.21    3.06
  -3   5   6   35.46    2.61
   2  -5  -6   -0.82    1.29
   2  -5  -6   -1.14    1.21
  -2   5   6    1.38    1.24
  -2   5   6    1.82    1.01
   1  -5  -6    1.77    1.46
   1  -5  -6   -0.04    1.20
  -1   5   6    0.53    1.09
  -1   5   6    0.92    1.37
   0  -5  -6   66.26    4.01
   0  -5  -6   71.30    4.41
   0   5   6   74.95    4.16
  -1  -5  -6  134.29    6.47
  -1  -5  -6  125.73    6.19
   1   5   6  116.05    6.49
   1   5   6  119.88    6.13
  -2  -5  -6    4.21    1.49
   2   5   6    4.07    1.25
   2   5   6    4.47    1.60
  -3  -5  -6   17.80    2.22
   3   5   6   20.59    2.04
   3   5   6   19.93    2.51
  -4  -5  -6    0.46    1.25
   4   5   6   -0.10    0.97
   4   5   6    0.27    1.43
  -5  -5  -6   35.28    3.02
   5   5   6   38.42    3.69
   5   5   6   36.05    2.67
  -6  -5  -6   39.36    3.17
   6   5   6   38.09    2.74
   6   5   6   34.60    3.55
  -7  -5  -6    0.33    1.45
   7   5   6    2.48    1.88
   7   5   6    0.81    0.98
  -8  -5  -6    7.53    1.94
   8   5   6    9.06    2.36
  -9  -5  -6    1.75    1.61
   9   5   6    2.32    1.91
   9   5   6   -1.08    1.66
  10   5   6    9.78    2.69
  10   5   6   14.07    2.96
  11   5   6    1.25    2.11
  11   5   6   -2.44    1.81
   8  -6  -6   10.23    2.89
   8  -6  -6    8.98    2.83
   7  -6  -6    3.42    2.23
   7  -6  -6   10.22    2.76
   6  -6  -6    9.13    2.53
   6  -6  -6    8.54    2.53
   5  -6  -6   19.74    2.96
   5  -6  -6   10.95    2.41
   4  -6  -6    0.07    1.52
   4  -6  -6    1.72    1.65
  -4   6   6   -0.51    1.33
   3  -6  -6   24.70    3.06
   3  -6  -6   29.01    3.13
  -3   6   6   34.03    2.93
  -3   6   6   26.13    2.25
   2  -6  -6    3.40    1.65
   2  -6  -6    6.05    1.72
  -2   6   6    3.52    1.61
  -2   6   6    4.58    1.47
   1  -6  -6    1.19    1.43
   1  -6  -6    1.44    1.38
  -1   6   6    0.57    1.34
  -1   6   6   -0.18    1.23
   0  -6  -6    8.31    1.79
   0  -6  -6    4.98    1.53
   0   6   6    5.02    1.60
   0   6   6    4.66    1.36
  -1  -6  -6    7.37    1.67
  -1  -6  -6    5.84    1.61
   1   6   6    5.19    1.57
   1   6   6    5.34    1.49
  -2  -6  -6    0.27    1.21
   2   6   6    2.28    1.31
   2   6   6   -0.46    1.33
  -3  -6  -6   13.22    1.90
   3   6   6   11.11    1.82
   3   6   6   11.89    2.12
  -4  -6  -6    1.09    1.27
   4   6   6    0.60    1.53
   4   6   6    1.98    1.17
  -5  -6  -6    3.99    1.53
   5   6   6    5.98    1.39
   5   6   6    2.76    1.74
  -6  -6  -6    3.89    1.50
   6   6   6    2.17    1.72
   6   6   6    0.87    1.11
  -7  -6  -6    1.31    1.36
   7   6   6    0.25    1.05
   7   6   6    2.05    1.81
  -8  -6  -6    5.71    1.77
   8   6   6    3.72    2.07
  -9  -6  -6    1.38    1.61
   9   6   6   -0.11    2.00
  10   6   6    4.30    2.37
  10   6   6    1.95    2.07
  11   6   6   -2.65    1.99
  11   6   6   -0.13    2.09
   8  -7  -6    1.00    2.00
   8  -7  -6    3.34    2.51
   7  -7  -6   19.16    3.47
   7  -7  -6   18.24    3.20
   6  -7  -6   40.42    4.38
   6  -7  -6   41.07    4.34
   5  -7  -6   20.39    3.12
   5  -7  -6   29.31    3.70
  -5   7   6   25.05    2.91
   4  -7  -6   -0.16    1.65
   4  -7  -6    0.87    1.78
  -4   7   6    1.83    1.54
   3  -7  -6   13.73    2.47
   3  -7  -6   10.57    2.29
  -3   7   6   12.65    2.13
   2  -7  -6   85.45    5.48
   2  -7  -6   83.20    5.33
  -2   7   6   94.26    5.28
  -2   7   6   82.94    5.12
   1  -7  -6   26.47    2.97
   1  -7  -6   28.86    3.09
  -1   7   6   17.68    2.52
  -1   7   6   27.61    2.72
   0  -7  -6   -1.29    1.24
   0  -7  -6    1.52    1.45
   0   7   6    0.29    1.26
   0   7   6    1.46    1.42
  -1  -7  -6    2.75    1.55
  -1  -7  -6    3.41    1.50
   1   7   6    2.56    1.43
   1   7   6    8.63    1.93
  -2  -7  -6    3.71    1.43
   2   7   6    4.70    1.85
   2   7   6    1.34    1.34
  -3  -7  -6   15.71    2.04
   3   7   6   10.75    1.89
   3   7   6   10.57    2.24
  -4  -7  -6   22.92    2.38
   4   7   6   18.00    2.82
   4   7   6   21.62    2.41
  -5  -7  -6    4.43    1.48
   5   7   6    5.33    2.00
   5   7   6    7.43    1.62
  -6  -7  -6   28.22    2.64
   6   7   6   23.61    2.48
   6   7   6   17.40    2.93
  -7  -7  -6    5.99    1.66
   7   7   6    4.37    2.15
   7   7   6    7.21    1.60
   8   7   6    4.68    2.25
   9   7   6    2.83    2.20
  10   7   6   -1.56    2.09
   7  -8  -6    5.20    2.52
   7  -8  -6    5.14    2.33
   6  -8  -6   14.32    3.01
   6  -8  -6   13.79    2.97
   5  -8  -6   12.43    2.78
   5  -8  -6    7.98    2.55
  -5   8   6   16.24    2.49
   4  -8  -6    5.12    2.10
   4  -8  -6    5.39    2.26
  -4   8   6    3.93    1.76
   3  -8  -6    5.71    2.14
   3  -8  -6    4.79    1.98
  -3   8   6    8.77    1.98
   2  -8  -6   15.41    2.43
   2  -8  -6   12.94    2.57
  -2   8   6   11.94    2.16
   1  -8  -6   26.38    2.93
   1  -8  -6   24.48    3.15
  -1   8   6   27.64    2.84
  -1   8   6   21.95    2.68
   0  -8  -6    1.66    1.65
   0  -8  -6    1.65    1.52
   0   8   6    1.74    1.53
   0   8   6   -0.21    1.45
  -1  -8  -6    1.52    1.29
  -1  -8  -6   -1.50    1.43
   1   8   6    0.69    1.47
   1   8   6    0.06    1.53
  -2  -8  -6    4.42    1.49
   2   8   6    1.31    1.51
   2   8   6    3.02    1.83
  -3  -8  -6   18.86    2.17
   3   8   6   14.68    2.24
   3   8   6   19.58    2.85
  -4  -8  -6    6.21    1.61
   4   8   6    5.39    1.69
   4   8   6    5.75    2.09
   5   8   6    0.46    1.88
   5   8   6   -1.70    1.29
   6   8   6    3.94    1.49
   6   8   6    2.26    2.18
   7   8   6    0.25    2.12
   7   8   6    3.61    1.53
   8   8   6    8.67    2.86
   8   8   6    9.89    2.72
   9   8   6   -1.52    1.99
  10   8   6    4.05    2.57
   6  -9  -6    2.98    2.22
   6  -9  -6   -0.25    2.04
  -6   9   6    0.93    1.85
   5  -9  -6    5.58    2.26
   5  -9  -6    2.47    2.39
  -5   9   6    8.94    2.34
   4  -9  -6   31.91    3.73
   4  -9  -6   30.53    3.95
  -4   9   6   34.33    3.60
   3  -9  -6    4.64    2.00
   3  -9  -6    6.55    2.39
  -3   9   6    1.64    1.75
   2  -9  -6    0.71    1.79
   2  -9  -6   -0.30    1.49
  -2   9   6    0.39    1.52
   1  -9  -6    0.22    1.74
   1  -9  -6    0.26    1.41
  -1   9   6    1.78    1.56
  -1   9   6   -0.62    1.50
   0  -9  -6    3.70    1.54
   0  -9  -6    1.66    1.92
   0   9   6    2.34    1.78
   0   9   6    1.63    1.66
  -1  -9  -6    7.98    2.35
   1   9   6   11.96    2.22
   1   9   6   12.07    2.41
   2   9   6    2.32    1.56
   2   9   6   -1.20    1.72
   3   9   6    0.79    1.53
   3   9   6    2.74    1.97
   4   9   6    2.85    1.55
   4   9   6    2.66    2.16
   5   9   6   -0.02    1.98
   5   9   6   -0.28    1.42
   6   9   6    4.55    1.75
   6   9   6    5.05    2.27
   7   9   6   -0.39    1.97
   7   9   6   -0.19    1.44
   8   9   6    0.68    2.27
   9   9   6    2.26    2.37
   5 -10  -6    4.35    2.58
  -5  10   6    6.01    2.27
   4 -10  -6   23.64    3.71
  -4  10   6   22.16    3.06
   3 -10  -6   10.73    2.89
  -3  10   6   12.37    2.43
   2 -10  -6   -2.51    1.78
  -2  10   6    0.87    1.88
   1 -10  -6    0.21    1.91
  -1  10   6    2.38    1.90
   0 -10  -6    4.92    2.42
   0  10   6    7.38    2.26
   0  10   6    5.30    2.02
  -1 -10  -6    9.98    2.52
   1  10   6   12.76    2.67
   1  10   6   15.07    2.59
   2  10   6    0.73    1.96
   2  10   6    1.03    1.59
   3  10   6    0.98    2.09
   3  10   6    2.16    1.68
   4  10   6    2.29    1.66
   4  10   6    1.78    2.25
   5  10   6    3.75    2.29
   5  10   6    1.60    1.62
   6  10   6    9.39    2.92
   6  10   6   10.34    2.18
   7  10   6    7.54    1.99
   7  10   6    6.99    2.74
   8  10   6    1.50    2.41
   3 -11  -6    8.70    2.81
  -3  11   6    3.41    2.15
   2 -11  -6   12.67    3.11
  -2  11   6    9.50    2.60
   1 -11  -6    2.94    2.28
  -1  11   6    1.84    2.16
   0 -11  -6   -1.26    2.00
   0  11   6   -0.69    1.86
   1  11   6   -1.92    1.93
   1  11   6   -0.96    1.69
   2  11   6    0.15    2.00
   2  11   6   -0.21    1.68
   3  11   6    3.76    2.36
   3  11   6    3.83    1.93
   4  11   6   -0.89    1.64
   4  11   6    5.45    2.57
   5  11   6    1.29    2.24
   5  11   6    1.32    1.77
   6  11   6    1.35    2.52
   6  11   6    0.31    1.77
   1 -12  -6    7.72    3.09
  -1  12   6    3.55    2.26
   0 -12  -6    5.28    2.63
   0  12   6   -1.74    1.93
   1  12   6    0.78    1.99
   2  12   6    1.34    2.17
   2  12   6   -2.39    1.84
   3  12   6    3.73    2.60
   3  12   6    3.59    2.07
   4  12   6    1.48    2.38
   4  12   6    0.96    1.79
   3  10  -7    2.49    2.16
   3  10  -7   -0.12    2.30
   2  10  -7    4.98    2.30
   2  10  -7    7.75    2.78
   1  10  -7    8.05    2.71
   1  10  -7    5.64    2.41
   0  10  -7    2.11    2.10
   0  10  -7   -0.72    1.97
  -1  10  -7    4.54    2.36
  -1  10  -7    1.72    2.19
  -2  10  -7    8.96    2.50
  -3  10  -7    5.91    2.10
   5   9  -7   18.59    3.24
   5   9  -7   10.87    3.10
   4   9  -7   12.74    3.25
   4   9  -7   14.08    2.87
   3   9  -7    3.25    2.09
   3   9  -7   -0.79    1.94
   2   9  -7    1.65    1.87
   2   9  -7   -2.02    1.77
   1   9  -7   11.74    2.83
   1   9  -7   13.21    2.61
   0   9  -7   14.63    2.79
  -1   9  -7   18.63    2.83
  -2   9  -7    5.17    2.04
  -3   9  -7    0.88    1.89
  -4   9  -7    6.68    2.17
  -5   9  -7    9.89    2.32
   6   8  -7    6.28    2.77
   6   8  -7    3.48    2.07
   5   8  -7   13.44    3.13
   5   8  -7   13.83    2.68
   4   8  -7   15.98    3.30
   4   8  -7   11.71    2.57
   3   8  -7    4.74    2.26
   3   8  -7    2.71    1.99
   2   8  -7    3.89    2.09
   1   8  -7   18.84    2.80
   0   8  -7   17.85    2.73
  -1   8  -7   27.75    3.16
  -2   8  -7    2.30    1.84
   2  -8   7    5.06    1.86
  -3   8  -7   -1.11    1.40
  -3   8  -7    1.14    1.59
   3  -8   7    1.86    1.66
  -4   8  -7    6.39    2.04
  -4   8  -7   12.77    2.31
   4  -8   7    9.55    2.26
  -5   8  -7   17.94    2.54
  -5   8  -7   14.50    2.58
   5  -8   7   12.92    2.65
  -6   8  -7    2.29    1.87
   6  -8   7    7.35    2.70
   7   7  -7   19.41    3.55
   7   7  -7   17.78    2.88
   6   7  -7   12.23    2.95
   6   7  -7   15.77    2.71
   5   7  -7    1.24    1.93
   5   7  -7    4.29    1.95
   4   7  -7    2.20    2.02
   4   7  -7    3.70    1.83
   3   7  -7   23.18    2.96
   2   7  -7   38.64    3.72
   1   7  -7   17.72    2.71
   1   7  -7   15.56    2.19
   0   7  -7   19.15    2.67
   0   7  -7   16.61    2.23
  -1   7  -7    6.74    1.97
  -1   7  -7    8.99    1.83
  -2   7  -7   25.55    2.97
  -2   7  -7   29.63    2.97
   2  -7   7   28.44    2.96
  -3   7  -7   24.11    2.84
  -3   7  -7   25.78    2.94
   3  -7   7   32.39    3.05
  -4   7  -7    4.76    1.80
  -4   7  -7    2.84    1.56
   4  -7   7    5.40    1.83
  -5   7  -7   -1.35    1.57
  -5   7  -7    5.90    1.69
   5  -7   7    0.34    1.59
  -6   7  -7    7.91    2.32
  -6   7  -7   10.78    2.47
   6  -7   7    4.12    2.01
  -7   7  -7    6.59    2.30
   7  -7   7    7.26    2.46
   8  -7   7    0.93    2.06
   8   6  -7    2.45    2.83
   8   6  -7    2.23    2.31
   8   6  -7    3.35    1.80
   7   6  -7   30.66    3.42
   7   6  -7   26.99    3.85
   7   6  -7   28.23    3.64
   6   6  -7    8.22    2.09
   6   6  -7    8.22    2.52
   5   6  -7    2.95    2.07
   5   6  -7    0.53    1.55
   4   6  -7    5.16    1.90
   4   6  -7    1.68    1.54
   3   6  -7   27.03    2.87
   3   6  -7   27.17    3.05
   2   6  -7   79.26    4.87
   2   6  -7   63.38    4.38
   1   6  -7    8.36    1.83
   1   6  -7   12.41    2.22
   0   6  -7    4.88    1.83
   0   6  -7    6.46    1.77
  -1   6  -7    2.33    1.53
  -1   6  -7    1.96    1.54
  -2   6  -7   26.94    2.79
  -2   6  -7   23.60    2.70
   2  -6   7   34.67    2.92
  -3   6  -7   58.57    4.07
  -3   6  -7   47.97    3.84
   3  -6   7   55.65    3.71
  -4   6  -7    5.41    1.96
  -4   6  -7   10.40    1.87
   4  -6   7    5.53    1.77
  -5   6  -7    3.50    1.55
  -5   6  -7    3.44    1.84
   5  -6   7    3.61    1.67
  -6   6  -7    1.12    1.24
  -6   6  -7    0.18    1.72
   6  -6   7   -0.32    1.52
  -7   6  -7   17.17    2.95
   7  -6   7   19.94    2.92
  -8   6  -7    4.71    2.21
   8  -6   7    3.41    2.18
   9  -6   7   -0.64    2.06
   8   5  -7    2.98    2.24
   8   5  -7    2.89    1.99
   8   5  -7    3.51    1.85
   7   5  -7    3.77    1.94
   7   5  -7    4.02    2.10
   7   5  -7    3.91    2.17
   7   5  -7    2.03    1.59
   6   5  -7    4.66    1.77
   6   5  -7    6.76    2.21
   6   5  -7    8.74    2.18
   6   5  -7    5.75    1.87
   5   5  -7   21.55    3.09
   5   5  -7   18.78    2.70
   5   5  -7   19.14    2.62
   4   5  -7   44.65    3.86
   4   5  -7   51.08    3.90
   3   5  -7   39.65    3.51
   3   5  -7   39.74    3.59
   2   5  -7   16.27    2.26
   2   5  -7   18.93    2.40
   1   5  -7   19.72    2.38
   1   5  -7   21.63    2.60
   0   5  -7  102.39    5.61
   0   5  -7   99.00    5.60
  -1   5  -7   31.84    3.04
  -1   5  -7   29.01    2.79
  -2   5  -7   21.86    2.48
  -2   5  -7   21.46    2.72
   2  -5   7   25.31    2.26
  -3   5  -7   43.03    3.30
  -3   5  -7   43.05    3.49
   3  -5   7   42.26    3.02
  -4   5  -7   13.89    1.99
  -4   5  -7   19.25    2.68
   4  -5   7   15.27    2.06
  -5   5  -7   19.43    2.23
  -5   5  -7   20.42    2.85
   5  -5   7   20.82    2.47
  -6   5  -7    5.08    1.45
  -6   5  -7    5.64    1.96
   6  -5   7    8.13    1.89
  -7   5  -7    5.98    2.11
   7  -5   7    2.44    1.80
  -8   5  -7    6.70    2.24
   8  -5   7    5.65    2.25
   9  -5   7    0.50    2.04
  10  -5   7    0.42    2.13
   9   4  -7   10.73    2.86
   9   4  -7    8.97    2.72
   8   4  -7   12.89    2.62
   8   4  -7    8.37    2.07
   8   4  -7   10.36    2.64
   8   4  -7   11.63    2.65
   7   4  -7   -0.46    1.45
   7   4  -7    3.53    2.00
   7   4  -7    2.67    1.89
   7   4  -7    2.78    1.49
   6   4  -7    3.03    1.91
   6   4  -7    3.90    1.92
   6   4  -7    0.17    1.46
   6   4  -7    3.47    1.55
   5   4  -7   55.68    3.94
   5   4  -7   54.73    4.13
   5   4  -7   55.03    4.35
   4   4  -7   84.82    5.04
   4   4  -7   64.41    4.15
   4   4  -7   77.65    4.74
   3   4  -7    9.03    1.81
   3   4  -7    7.81    1.90
   2   4  -7   -1.88    1.36
   2   4  -7    1.91    1.37
   1   4  -7   29.25    2.93
   1   4  -7   30.93    2.88
   0   4  -7   87.43    5.10
   0   4  -7   84.82    4.93
  -1   4  -7  142.82    7.08
  -1   4  -7  127.79    6.76
  -2   4  -7    7.18    1.55
  -2   4  -7    4.81    1.73
   2  -4   7    7.22    1.22
  -3   4  -7    1.48    1.15
  -3   4  -7    3.28    1.60
   3  -4   7    0.58    1.03
  -4   4  -7   32.15    3.17
  -4   4  -7   26.74    2.52
   4  -4   7   29.93    2.49
  -5   4  -7   66.30    3.94
  -5   4  -7   62.24    4.53
   5  -4   7   67.96    4.09
  -6   4  -7   23.93    2.18
  -6   4  -7   20.63    2.87
   6  -4   7   20.53    2.52
  -7   4  -7   -2.29    1.48
   7  -4   7   -1.32    1.37
  -8   4  -7    1.16    1.91
   8  -4   7   -2.21    1.51
  -9   4  -7    2.84    2.17
   9  -4   7    8.83    2.48
  10  -4   7   16.39    3.18
   9   3  -7    0.41    1.93
   9   3  -7   -0.76    2.05
   8   3  -7    9.50    2.37
   8   3  -7   10.02    2.13
   8   3  -7   10.67    2.36
   8   3  -7   10.75    2.66
   7   3  -7    4.85    1.98
   7   3  -7    1.27    1.59
   7   3  -7    1.43    2.04
   7   3  -7    3.80    1.67
   6   3  -7   26.04    2.87
   6   3  -7   30.19    3.10
   6   3  -7   31.58    3.55
   6   3  -7   27.79    3.35
   5   3  -7   32.66    2.89
   5   3  -7   34.80    3.20
   5   3  -7   27.67    3.27
   4   3  -7   14.57    2.20
   4   3  -7   11.53    2.27
   4   3  -7   16.88    1.98
   3   3  -7   40.95    2.78
   3   3  -7   40.97    3.75
   3   3  -7   38.70    3.20
   2   3  -7   25.42    2.58
   2   3  -7   28.66    2.87
   1   3  -7   68.64    4.30
   1   3  -7   71.94    4.55
   1   3  -7   76.05    3.83
   0   3  -7   21.91    2.35
   0   3  -7   19.97    2.56
   0   3  -7   21.93    1.56
  -1   3  -7   52.66    3.79
  -1   3  -7   53.24    2.75
  -1   3  -7   59.57    3.64
  -2   3  -7   46.10    2.53
  -2   3  -7   43.17    3.22
  -2   3  -7   52.59    3.64
   2  -3   7   43.80    2.53
  -3   3  -7    0.84    1.55
  -3   3  -7    2.49    1.21
   3  -3   7    2.08    0.89
  -4   3  -7   12.29    2.11
  -4   3  -7   11.96    1.71
   4  -3   7   13.99    1.64
  -5   3  -7   29.21    2.48
  -5   3  -7   29.81    3.18
   5  -3   7   32.52    2.63
  -6   3  -7    8.82    2.09
  -6   3  -7    9.96    1.49
   6  -3   7   16.26    2.17
  -7   3  -7    2.33    1.77
   7  -3   7    0.08    1.37
  -8   3  -7    0.58    1.78
   8  -3   7    2.03    1.67
  -9   3  -7    1.46    1.95
   9  -3   7    4.07    2.07
 -10   3  -7    1.85    1.93
  10  -3   7    0.60    1.98
  11  -3   7   10.26    2.83
   9   2  -7    2.15    2.08
   9   2  -7    0.85    2.22
   8   2  -7    7.27    2.54
   8   2  -7    5.89    2.12
   8   2  -7    8.61    1.98
   7   2  -7   37.24    3.57
   7   2  -7   37.79    3.44
   7   2  -7   41.17    4.29
   7   2  -7   42.52    3.60
   6   2  -7   53.62    4.67
   6   2  -7   54.73    3.93
   5   2  -7   14.75    2.57
   5   2  -7   13.86    2.01
   4   2  -7    1.29    1.13
   4   2  -7    2.86    1.72
   3   2  -7   56.50    3.27
   3   2  -7   57.41    4.11
   2   2  -7  249.79   10.73
   2   2  -7  249.99   10.75
   2   2  -7  253.67   11.83
   1   2  -7  175.76    8.99
   1   2  -7  184.90    7.88
   1   2  -7  192.91    7.93
   0   2  -7   -1.10    1.40
  -1   2  -7   37.97    3.30
  -2   2  -7  164.55    8.22
  -2   2  -7  166.63    6.95
   2  -2   7  161.70    6.96
  -3   2  -7  134.80    5.95
  -3   2  -7  132.27    6.98
   3  -2   7  132.56    5.94
  -4   2  -7   90.43    4.63
  -4   2  -7   83.75    5.29
   4  -2   7   87.64    4.37
  -5   2  -7    0.69    0.98
  -5   2  -7    1.96    1.60
   5  -2   7   -0.69    0.99
  -6   2  -7    6.48    1.26
  -6   2  -7    3.68    1.84
   6  -2   7    6.19    1.56
  -7   2  -7   46.10    4.06
   7  -2   7   49.74    4.08
   7  -2   7   49.25    3.67
  -8   2  -7   32.39    3.72
   8  -2   7   35.64    3.52
   8  -2   7   41.12    3.73
  -9   2  -7    5.42    2.18
   9  -2   7    1.25    1.83
   9  -2   7    0.08    1.63
 -10   2  -7   -1.08    1.79
  10  -2   7    0.04    1.64
  10  -2   7    3.89    2.01
  11  -2   7    7.31    2.61
   9   1  -7    3.41    2.20
   9   1  -7    1.94    2.36
   8   1  -7    2.75    2.11
   8   1  -7    1.03    1.76
   7   1  -7   18.79    2.70
   7   1  -7   22.55    3.30
   7   1  -7   20.22    2.67
   6   1  -7   16.96    2.35
   6   1  -7   17.97    2.89
   5   1  -7    2.57    1.35
   5   1  -7    3.15    1.98
   4   1  -7    8.01    1.45
   4   1  -7    8.42    2.16
   3   1  -7   45.65    3.87
   3   1  -7   45.06    2.75
   2   1  -7   68.08    4.46
   2   1  -7   67.21    3.34
   1   1  -7   48.27    3.66
   0   1  -7   39.26    3.53
  -1   1  -7    4.77    1.62
  -2   1  -7   61.46    4.11
  -3   1  -7  120.27    6.57
   3  -1   7  125.69    5.44
  -4   1  -7   21.93    2.73
   4  -1   7   22.04    2.61
   4  -1   7   21.04    1.81
  -5   1  -7    4.01    1.58
   5  -1   7    3.24    1.49
  -6   1  -7    2.97    1.65
   6  -1   7    3.69    1.70
   6  -1   7    3.20    1.28
  -7   1  -7   21.81    2.98
   7  -1   7   20.12    2.56
   7  -1   7   20.53    2.87
  -8   1  -7   20.24    2.97
   8  -1   7   26.43    3.20
   8  -1   7   30.95    3.24
  -9   1  -7    0.43    1.80
   9  -1   7    3.10    1.81
   9  -1   7    2.26    1.80
 -10   1  -7    4.26    2.14
  10  -1   7    1.64    1.94
  10  -1   7    5.83    2.02
  11  -1   7   -1.82    1.77
   9   0  -7   31.45    4.33
   9   0  -7   32.31    3.86
   8   0  -7   13.06    2.89
   8   0  -7   14.13    2.68
   7   0  -7   12.33    2.66
   7   0  -7   14.15    2.43
   6   0  -7   -1.68    1.61
   6   0  -7    1.40    1.43
   5   0  -7   52.32    4.33
   5   0  -7   55.53    3.66
   4   0  -7  238.61   11.71
   4   0  -7  247.76   10.90
   3   0  -7   64.44    4.41
   3   0  -7   61.52    3.39
   2   0  -7   14.68    1.31
   2   0  -7   10.58    2.05
   1   0  -7   17.90    2.57
   0   0  -7  290.87   13.22
  -1   0  -7  227.44   10.65
  -3   0  -7   28.09    2.87
   3   0   7   20.92    1.41
   3   0   7   23.34    2.69
  -4   0  -7   18.57    2.38
   4   0   7   23.05    1.81
   4   0   7   18.11    2.39
  -5   0  -7   69.09    4.73
   5   0   7   75.55    4.78
   5   0   7   74.01    4.00
  -6   0  -7   79.26    4.99
   6   0   7   70.88    4.26
  -7   0  -7    4.75    1.83
   7   0   7    6.25    1.64
   7   0   7    7.33    1.99
  -8   0  -7    0.44    1.70
   8   0   7    2.60    1.56
   8   0   7    2.54    1.82
  -9   0  -7    6.83    2.19
   9   0   7    5.09    1.89
   9   0   7    1.53    1.74
 -10   0  -7   19.44    3.10
  10   0   7   19.24    2.84
  10   0   7   16.10    2.86
  11   0   7    5.24    2.31
  11   0   7    6.00    2.03
   9  -1  -7    7.22    2.61
   9  -1  -7   20.41    3.50
   8  -1  -7    5.33    2.40
   8  -1  -7    7.02    2.10
   7  -1  -7    3.62    2.16
   7  -1  -7    7.85    1.98
   6  -1  -7    8.29    1.85
   6  -1  -7    1.45    1.89
   5  -1  -7   31.20    2.82
   5  -1  -7   34.79    3.73
   4  -1  -7  138.12    7.64
   4  -1  -7  139.66    6.75
   3  -1  -7   81.63    5.29
   3  -1  -7   88.55    4.42
   2  -1  -7    6.32    1.75
   2  -1  -7    8.24    1.12
   1  -1  -7   27.08    1.60
   1  -1  -7   25.68    2.85
   0  -1  -7  326.82   14.62
  -1  -1  -7  174.14    8.68
   1   1   7  181.88    8.64
  -2  -1  -7   66.20    4.23
   2   1   7   62.09    4.09
  -3  -1  -7   36.22    3.17
   3   1   7   34.07    3.08
   3   1   7   37.75    2.06
  -4  -1  -7   15.44    2.33
   4   1   7   15.30    2.22
   4   1   7   15.98    1.56
  -5  -1  -7  177.69    8.60
   5   1   7  162.95    7.75
   5   1   7  171.93    8.66
  -6  -1  -7  114.00    6.35
   6   1   7  109.49    6.50
   6   1   7  110.02    5.68
  -7  -1  -7    2.70    1.81
   7   1   7    4.21    1.51
   7   1   7    6.45    2.03
  -8  -1  -7   -1.22    1.47
   8   1   7    0.48    1.44
   8   1   7    3.03    1.95
  -9  -1  -7    6.06    2.08
   9   1   7    8.83    2.44
   9   1   7    8.25    2.15
  10   1   7   39.29    4.14
  10   1   7   35.80    3.83
 -11  -1  -7    0.95    1.95
  11   1   7    3.42    1.73
  11   1   7    1.91    2.04
   9  -2  -7    0.26    2.24
   9  -2  -7    0.04    2.08
   8  -2  -7    1.88    1.97
   8  -2  -7    1.88    2.12
   7  -2  -7   20.01    2.83
   7  -2  -7   19.30    3.32
   6  -2  -7   26.71    2.94
   6  -2  -7   23.42    3.34
   5  -2  -7   11.02    2.48
   5  -2  -7   11.74    2.03
   4  -2  -7    1.17    1.68
   4  -2  -7    0.73    1.16
   3  -2  -7   18.74    1.93
   3  -2  -7   16.89    2.67
   2  -2  -7  112.11    5.32
   2  -2  -7  111.77    6.32
   1  -2  -7   76.53    3.80
   1  -2  -7   78.54    4.87
  -1   2   7   80.53    3.81
   0  -2  -7    7.06    0.91
   0  -2  -7    6.68    1.82
   0   2   7    6.48    1.61
   0   2   7    5.69    0.87
  -1  -2  -7   26.75    2.75
   1   2   7   19.88    1.33
   1   2   7   22.44    2.52
  -2  -2  -7   40.68    3.35
   2   2   7   43.00    2.25
   2   2   7   42.64    3.31
  -3  -2  -7   64.93    4.24
   3   2   7   63.89    4.28
   3   2   7   63.12    3.24
  -4  -2  -7   40.26    3.39
   4   2   7   40.47    2.53
   4   2   7   39.56    3.56
  -5  -2  -7    1.79    1.52
   5   2   7    3.21    1.76
   5   2   7    4.01    1.22
  -6  -2  -7    6.59    1.88
   6   2   7    3.59    1.27
  -7  -2  -7   11.68    2.33
   7   2   7   14.92    2.16
   7   2   7   16.73    2.89
  -8  -2  -7    4.85    1.91
   8   2   7    6.31    2.25
   8   2   7    5.33    1.77
  -9  -2  -7    1.28    1.80
   9   2   7   -2.09    1.47
   9   2   7   -0.50    2.01
 -10  -2  -7    0.65    1.97
  10   2   7    1.09    1.75
  10   2   7    0.41    2.08
 -11  -2  -7   -2.74    1.78
  11   2   7    1.84    1.95
  11   2   7   -0.43    2.14
   9  -3  -7   -1.82    2.22
   9  -3  -7    2.18    2.20
   8  -3  -7    3.53    2.21
   8  -3  -7    6.52    2.48
   7  -3  -7   15.62    3.20
   7  -3  -7   25.99    3.24
   6  -3  -7   82.90    5.98
   6  -3  -7   80.18    5.24
   5  -3  -7   35.61    4.00
   5  -3  -7   36.90    3.22
   4  -3  -7    0.20    1.15
   4  -3  -7    0.05    1.63
   3  -3  -7   56.96    3.63
   3  -3  -7   62.26    4.42
   2  -3  -7  176.08    9.22
   2  -3  -7  191.74    8.42
   1  -3  -7  242.30   11.32
   1  -3  -7  247.44   10.45
  -1   3   7  227.65   10.87
   0  -3  -7    9.00    1.97
   0  -3  -7    8.59    1.21
   0   3   7    7.80    1.59
  -1  -3  -7    7.18    1.72
   1   3   7    4.63    1.05
   1   3   7    8.57    1.74
  -2  -3  -7  145.07    7.25
   2   3   7  134.63    7.18
  -3  -3  -7  144.98    7.44
   3   3   7  147.56    7.64
  -4  -3  -7  100.65    5.89
   4   3   7  116.39    6.56
  -5  -3  -7    1.28    1.53
   5   3   7   -0.95    1.59
  -6  -3  -7    0.91    1.57
   6   3   7   11.15    2.80
   6   3   7    2.21    1.27
  -7  -3  -7   32.42    3.17
   7   3   7   25.60    2.72
   7   3   7   11.81    3.02
  -8  -3  -7   53.71    4.22
   8   3   7   52.08    3.99
  -9  -3  -7    2.76    1.86
   9   3   7   -0.12    2.10
   9   3   7    4.47    1.86
 -10  -3  -7   11.53    2.57
  10   3   7    6.79    2.57
  10   3   7    5.94    2.19
 -11  -3  -7    1.14    1.94
  11   3   7   -0.86    2.21
  11   3   7    2.97    1.98
   9  -4  -7    2.26    2.51
   9  -4  -7    4.44    2.54
   8  -4  -7   14.34    2.83
   8  -4  -7   11.03    2.85
   7  -4  -7   -1.50    1.65
   7  -4  -7    0.13    1.90
   6  -4  -7    3.32    2.05
   6  -4  -7    4.40    1.91
   5  -4  -7   51.24    4.36
   5  -4  -7   35.95    3.57
   4  -4  -7   41.18    3.98
   4  -4  -7   22.63    2.68
   3  -4  -7   35.99    3.75
   3  -4  -7   31.98    2.78
   2  -4  -7   44.17    3.06
   2  -4  -7   42.90    3.67
  -2   4   7   40.11    3.01
   1  -4  -7   61.98    4.36
   1  -4  -7   60.07    3.56
  -1   4   7   58.63    3.78
   0  -4  -7   28.74    3.08
   0  -4  -7   29.33    2.27
   0   4   7   31.14    2.93
  -1  -4  -7  117.71    6.56
   1   4   7  128.75    6.63
  -2  -4  -7   73.02    4.69
   2   4   7   78.74    5.10
  -3  -4  -7   16.76    2.26
   3   4   7    6.43    2.23
  -5  -4  -7   18.90    2.49
   5   4   7   12.06    2.72
  -6  -4  -7   15.90    2.36
   6   4   7   11.99    2.50
  -7  -4  -7   27.33    3.02
   7   4   7   20.32    3.36
  -8  -4  -7   16.39    2.65
   8   4   7   20.72    2.80
   8   4   7   13.86    2.99
  -9  -4  -7    5.21    2.10
   9   4   7    6.42    2.07
   9   4   7    3.78    2.31
 -10  -4  -7   -0.61    1.85
  10   4   7   -2.90    1.91
  10   4   7    0.21    1.71
 -11  -4  -7    6.92    2.35
  11   4   7   -5.02    1.94
  11   4   7    4.85    2.31
   8  -5  -7    8.05    2.73
   8  -5  -7    2.89    2.32
   7  -5  -7    2.23    2.21
   7  -5  -7    3.76    2.21
   6  -5  -7    1.23    1.91
   6  -5  -7   -1.41    1.57
   5  -5  -7   14.70    2.45
   5  -5  -7   13.52    2.75
   4  -5  -7   86.22    5.32
   4  -5  -7   93.86    5.92
   3  -5  -7   47.87    3.60
   3  -5  -7   52.54    4.21
   2  -5  -7   -0.69    1.49
   2  -5  -7    0.19    1.19
  -2   5   7   -1.18    1.07
   1  -5  -7    4.20    1.75
   1  -5  -7    2.72    1.30
  -1   5   7    3.75    1.51
  -1   5   7    0.99    1.24
   0  -5  -7  101.15    5.16
   0  -5  -7   93.97    5.72
   0   5   7   89.80    5.46
   0   5   7  103.71    5.38
  -1  -5  -7  120.42    6.48
   1   5   7  116.43    6.63
   1   5   7  121.50    6.21
  -2  -5  -7   30.95    3.05
   2   5   7   30.29    2.63
  -3  -5  -7    2.21    1.53
   3   5   7    1.11    1.13
   3   5   7   -0.68    1.54
  -4  -5  -7    3.88    1.64
   4   5   7   -0.01    1.07
   4   5   7    1.79    1.74
  -5  -5  -7   73.60    4.65
   5   5   7   72.59    5.15
   5   5   7   67.20    4.05
  -6  -5  -7   47.70    3.72
   6   5   7   43.97    3.09
   6   5   7   45.15    4.27
  -7  -5  -7    0.45    1.58
   7   5   7    2.89    1.89
  -8  -5  -7    0.19    1.61
   8   5   7   -0.33    1.82
  -9  -5  -7    1.84    1.72
   9   5   7    2.40    2.12
   9   5   7    0.38    1.68
 -10  -5  -7    6.63    2.19
  10   5   7    5.73    2.65
  10   5   7    4.19    2.19
  11   5   7    8.75    2.76
  11   5   7    4.50    2.71
   8  -6  -7    2.98    2.39
   8  -6  -7    3.15    2.38
   7  -6  -7   18.29    3.32
   7  -6  -7   27.76    3.75
   6  -6  -7    7.53    2.54
   6  -6  -7    6.88    2.29
   5  -6  -7    6.04    2.44
   5  -6  -7    6.44    2.09
   4  -6  -7   54.70    4.62
   4  -6  -7   54.48    4.25
   3  -6  -7   24.96    2.94
   3  -6  -7   27.56    3.36
   2  -6  -7   45.86    3.82
   2  -6  -7   43.47    3.49
  -2   6   7   40.12    3.48
  -2   6   7   38.89    3.38
   1  -6  -7   22.21    2.92
   1  -6  -7   23.81    2.63
  -1   6   7   21.78    2.51
  -1   6   7   26.83    2.78
   0  -6  -7   72.10    5.05
   0  -6  -7   83.15    4.79
   0   6   7   90.25    5.47
   0   6   7   82.66    4.83
  -1  -6  -7   81.23    4.54
  -1  -6  -7   70.49    4.61
   1   6   7   73.69    4.50
  -2  -6  -7   26.77    2.90
   2   6   7   37.30    3.72
   2   6   7   25.76    2.58
  -3  -6  -7   41.44    3.54
   3   6   7   47.56    3.47
   3   6   7   57.34    4.55
  -4  -6  -7   11.78    2.09
   4   6   7   11.23    1.85
   4   6   7   12.64    2.47
  -5  -6  -7   38.91    3.35
   5   6   7   35.11    3.79
   5   6   7   40.32    3.08
  -6  -6  -7   35.80    3.26
   6   6   7   34.25    3.76
   6   6   7   39.04    2.93
  -7  -6  -7    2.65    1.67
   7   6   7    2.26    1.98
   7   6   7    2.22    1.25
  -8  -6  -7   -0.19    1.49
   8   6   7   -1.65    1.76
  -9  -6  -7    2.33    1.75
   9   6   7    6.31    2.44
 -10  -6  -7   14.34    2.67
  10   6   7   11.80    2.88
  10   6   7   15.05    3.11
   7  -7  -7   16.53    3.27
   7  -7  -7   18.98    3.22
   6  -7  -7   22.22    3.38
   6  -7  -7   25.15    3.58
   5  -7  -7    4.69    2.12
   5  -7  -7    2.66    2.24
   4  -7  -7   -0.20    1.84
   4  -7  -7    2.58    1.80
   3  -7  -7    6.28    2.01
   3  -7  -7    7.09    2.06
  -3   7   7    5.87    1.93
   2  -7  -7   56.24    4.20
   2  -7  -7   50.77    4.28
  -2   7   7   51.77    4.07
  -2   7   7   45.68    3.91
   1  -7  -7   60.25    4.43
   1  -7  -7   63.96    4.21
  -1   7   7   60.48    4.36
  -1   7   7   51.93    4.07
   0  -7  -7   27.71    3.12
   0  -7  -7   31.92    3.32
   0   7   7   33.99    3.23
  -1  -7  -7   -1.75    1.28
  -1  -7  -7   -0.85    1.34
   1   7   7    4.61    2.01
   1   7   7    0.56    1.34
  -2  -7  -7   22.24    2.61
   2   7   7   19.63    2.85
   2   7   7   17.30    2.24
  -3  -7  -7  118.93    6.33
   3   7   7  122.90    6.97
   3   7   7  108.62    6.17
  -4  -7  -7   17.87    2.49
   4   7   7   17.71    2.29
   4   7   7   18.30    2.95
  -5  -7  -7    5.49    1.75
   5   7   7    5.00    2.29
   5   7   7    7.21    1.60
  -6  -7  -7    1.89    1.52
   6   7   7    1.37    1.98
   6   7   7    0.74    1.26
  -7  -7  -7    4.97    1.76
   7   7   7    5.24    1.52
   7   7   7    4.34    2.23
   8   7   7   19.60    3.52
   9   7   7    2.77    2.33
  10   7   7    1.75    2.50
   6  -8  -7    7.10    2.57
   6  -8  -7    7.47    2.63
   5  -8  -7   15.45    2.99
   5  -8  -7   11.61    2.83
   4  -8  -7   -1.37    1.65
   4  -8  -7    3.41    2.11
  -4   8   7    1.49    1.87
   3  -8  -7    4.44    2.03
   3  -8  -7    7.87    2.30
  -3   8   7    2.86    1.88
   2  -8  -7   32.69    3.62
   2  -8  -7   32.53    3.69
  -2   8   7   29.59    3.26
   1  -8  -7   38.33    3.69
   1  -8  -7   43.40    3.63
  -1   8   7   31.88    3.25
  -1   8   7   29.16    3.39
   0  -8  -7   18.42    2.75
   0  -8  -7   16.69    2.54
   0   8   7   30.85    3.65
   0   8   7   19.55    2.59
  -1  -8  -7    1.31    1.59
  -1  -8  -7    5.62    1.71
   1   8   7    2.81    1.64
   1   8   7    6.11    2.07
  -2  -8  -7   12.13    2.12
   2   8   7   10.59    2.06
   2   8   7   12.87    2.57
  -3  -8  -7   53.69    3.77
   3   8   7   42.66    3.79
   3   8   7   50.42    4.46
  -4  -8  -7   32.71    2.96
   4   8   7   30.77    3.60
   4   8   7   26.40    2.89
   5   8   7    1.95    1.40
   5   8   7    2.01    2.05
   6   8   7    2.18    2.04
   6   8   7    2.46    1.44
   7   8   7   10.00    1.91
   7   8   7   13.32    2.97
   8   8   7   15.20    3.40
   9   8   7    6.66    2.74
   5  -9  -7   16.01    3.24
   5  -9  -7    8.38    2.61
  -5   9   7   15.68    2.76
   4  -9  -7   12.93    3.06
   4  -9  -7    7.31    2.42
  -4   9   7   21.24    2.94
   3  -9  -7   27.93    3.76
   3  -9  -7   28.64    3.61
  -3   9   7   26.52    3.32
   2  -9  -7    2.63    1.88
   2  -9  -7    3.65    2.09
  -2   9   7    4.15    1.95
   1  -9  -7    3.91    2.01
   1  -9  -7    7.58    2.13
  -1   9   7    7.67    2.07
   0  -9  -7   20.35    3.17
   0  -9  -7   24.01    2.85
   0   9   7   24.32    2.99
   0   9   7   24.68    3.15
   1   9   7   42.79    4.16
   1   9   7   41.14    3.87
   2   9   7   27.93    3.18
   2   9   7   32.57    3.71
   3   9   7    0.58    1.51
   3   9   7    0.59    1.86
   4   9   7   13.98    2.31
   4   9   7   11.28    2.75
   5   9   7   13.01    2.93
   5   9   7    9.85    2.20
   6   9   7   11.63    2.91
   6   9   7    9.62    2.09
   7   9   7   12.09    3.09
   7   9   7    5.36    1.80
   8   9   7    3.43    2.42
   4 -10  -7    6.85    2.79
  -4  10   7    8.03    2.33
   3 -10  -7   17.17    3.35
  -3  10   7   17.47    2.87
   2 -10  -7    7.55    2.47
  -2  10   7    4.42    2.10
   1 -10  -7    0.74    2.08
  -1  10   7    2.62    1.94
   0 -10  -7   10.02    2.57
   0  10   7    8.87    2.61
   0  10   7    7.93    2.24
   1  10   7   44.17    4.15
   1  10   7   48.22    4.49
   2  10   7   18.25    3.20
   2  10   7   16.00    2.71
   3  10   7    1.52    2.18
   3  10   7   -0.07    1.68
   4  10   7    5.51    2.59
   4  10   7    8.67    2.24
   5  10   7    9.28    2.82
   5  10   7   10.85    2.34
   6  10   7   12.34    2.43
   6  10   7   14.20    3.34
   7  10   7    3.34    2.69
   7  10   7    7.78    2.13
   2 -11  -7    4.41    2.62
  -2  11   7    6.97    2.36
   1 -11  -7   12.93    3.20
  -1  11   7   11.77    2.73
   0 -11  -7    6.98    2.59
   0  11   7    6.95    2.34
   1  11   7    6.08    2.50
   1  11   7    4.71    2.20
   2  11   7    7.06    2.37
   2  11   7    7.45    2.68
   3  11   7    5.29    2.63
   3  11   7    5.33    2.16
   4  11   7    7.41    2.29
   4  11   7    9.83    3.17
   5  11   7    3.32    2.11
   5  11   7    7.91    2.94
   6  11   7   -1.16    1.68
   6  11   7    3.64    2.59
   2  12   7    4.77    2.38
   2  12   7    5.33    2.68
   3   9  -8    1.16    2.07
   3   9  -8    1.39    2.27
   2   9  -8    0.28    2.16
   2   9  -8   -1.02    2.04
   1   9  -8    0.85    1.99
   0   9  -8   28.00    3.64
  -1   9  -8    3.04    2.10
  -2   9  -8    6.21    2.36
  -3   9  -8   -1.09    1.85
  -4   9  -8   10.47    2.53
   5   8  -8    2.49    2.55
   5   8  -8   -0.68    1.95
   4   8  -8   -1.68    1.88
   4   8  -8    2.95    2.34
   3   8  -8    2.92    2.14
   3   8  -8   -1.44    1.89
   2   8  -8    1.67    1.96
   1   8  -8    0.22    1.73
   0   8  -8    6.24    2.21
  -1   8  -8    5.17    2.11
  -2   8  -8    0.60    1.74
  -3   8  -8    2.86    1.84
  -4   8  -8    4.94    2.13
  -4   8  -8    4.18    1.86
  -5   8  -8   12.10    2.35
  -5   8  -8   11.61    2.66
  -6   8  -8   10.06    2.52
   6   7  -8    2.67    2.35
   6   7  -8    1.02    1.90
   5   7  -8   -1.70    1.66
   5   7  -8   -0.97    1.82
   4   7  -8   -1.04    1.87
   4   7  -8   -1.16    1.86
   3   7  -8    2.05    1.93
   2   7  -8   10.04    2.38
   1   7  -8    9.34    2.30
   0   7  -8   -0.01    1.42
   0   7  -8   -2.18    1.56
  -1   7  -8    2.01    1.66
  -1   7  -8    4.79    1.95
  -2   7  -8   11.54    2.23
  -2   7  -8   16.19    2.57
  -3   7  -8   11.08    2.36
  -3   7  -8   14.32    2.41
  -4   7  -8    4.32    1.95
  -4   7  -8    6.74    1.96
  -5   7  -8    4.01    1.77
  -5   7  -8    7.67    2.29
  -6   7  -8   11.54    2.60
  -7   7  -8    8.49    2.60
  -8   7  -8    1.52    2.12
   7   6  -8   -0.09    2.04
   7   6  -8   -0.17    1.68
   6   6  -8    3.80    1.94
   6   6  -8    3.79    2.36
   5   6  -8    3.46    2.13
   5   6  -8    4.07    1.96
   4   6  -8    2.51    1.74
   4   6  -8    2.31    2.81
   3   6  -8    2.33    1.66
   3   6  -8    0.89    1.73
   2   6  -8   20.79    2.70
   2   6  -8   17.43    2.66
   1   6  -8   17.39    2.53
   1   6  -8   15.41    2.56
   0   6  -8    5.58    1.97
   0   6  -8    6.91    2.00
  -1   6  -8    3.92    1.82
  -1   6  -8    5.16    1.76
  -2   6  -8   22.17    2.88
  -2   6  -8   24.33    2.78
  -3   6  -8   51.93    4.19
  -3   6  -8   57.43    4.04
  -4   6  -8    5.60    1.83
  -4   6  -8    5.06    2.15
  -5   6  -8    4.36    1.65
  -5   6  -8    3.15    1.97
  -6   6  -8    7.91    2.11
  -6   6  -8    6.29    2.24
  -7   6  -8   12.85    2.76
  -8   6  -8   23.64    3.50
   7   5  -8    2.03    2.16
   7   5  -8    2.98    1.83
   6   5  -8   -1.03    1.84
   6   5  -8    1.37    2.07
   6   5  -8   -0.76    1.59
   5   5  -8   -0.76    1.48
   5   5  -8   -0.01    1.80
   4   5  -8    1.92    1.76
   4   5  -8    4.49    1.95
   3   5  -8   -0.69    1.55
   3   5  -8    2.27    1.63
   2   5  -8   -1.76    1.41
   2   5  -8    0.44    1.54
   1   5  -8    1.80    1.66
   1   5  -8    3.44    1.65
   0   5  -8    0.62    1.49
   0   5  -8    3.07    1.62
  -1   5  -8    8.88    2.26
  -1   5  -8   16.41    2.26
  -2   5  -8    0.87    1.48
  -2   5  -8    1.37    1.63
  -3   5  -8    6.55    2.05
  -3   5  -8    5.85    1.74
  -4   5  -8    8.58    1.79
  -4   5  -8    8.57    2.22
  -5   5  -8   14.03    2.12
  -5   5  -8   15.78    2.88
  -6   5  -8    3.71    2.09
  -6   5  -8    5.26    1.52
  -7   5  -8    1.54    2.01
  -8   5  -8   16.73    3.20
  -9   5  -8    5.53    2.44
   8   4  -8    0.96    1.56
   8   4  -8   -0.47    2.04
   8   4  -8    0.57    2.21
   7   4  -8    2.47    1.65
   7   4  -8    0.47    1.97
   7   4  -8    4.02    2.23
   6   4  -8    2.69    1.97
   6   4  -8    4.13    1.80
   6   4  -8   -1.37    1.85
   5   4  -8    8.16    2.08
   5   4  -8    6.53    2.22
   4   4  -8   23.04    3.05
   4   4  -8   22.77    2.89
   3   4  -8    3.30    1.84
   3   4  -8    4.99    1.77
   2   4  -8   12.39    2.35
   2   4  -8   12.65    2.21
   1   4  -8   -0.28    1.38
   1   4  -8   -0.38    1.50
   0   4  -8   68.35    4.60
   0   4  -8   65.15    4.38
  -1   4  -8   46.14    3.86
  -1   4  -8   46.06    3.54
  -2   4  -8    3.25    1.48
  -3   4  -8   -0.37    1.65
  -3   4  -8   -1.21    1.21
  -4   4  -8   15.74    2.09
  -4   4  -8   20.14    2.79
  -5   4  -8   59.55    3.81
  -5   4  -8   58.84    4.55
  -6   4  -8   26.85    2.57
  -6   4  -8   30.92    3.57
  -7   4  -8   -0.46    1.79
  -8   4  -8    0.88    1.97
  -9   4  -8    6.40    2.51
 -10   4  -8    5.94    2.45
   8   3  -8    5.41    2.44
   8   3  -8    0.90    1.64
   7   3  -8    1.97    1.51
   7   3  -8    2.96    1.96
   7   3  -8    4.04    2.26
   6   3  -8    0.74    1.50
   6   3  -8   -1.02    1.97
   5   3  -8    3.23    2.11
   5   3  -8    1.60    1.53
   4   3  -8    1.64    1.33
   4   3  -8    0.19    1.45
   4   3  -8    1.11    1.82
   3   3  -8    5.42    2.07
   3   3  -8    3.28    1.62
   3   3  -8    7.64    1.55
   2   3  -8    3.94    1.53
   2   3  -8   -1.01    1.60
   2   3  -8    2.47    1.09
   1   3  -8    0.68    1.58
   1   3  -8   -0.13    1.25
   0   3  -8   48.38    3.97
  -1   3  -8    8.25    1.75
  -1   3  -8   11.61    2.22
  -2   3  -8   26.37    2.57
  -2   3  -8   30.52    3.30
  -3   3  -8    8.05    1.61
  -3   3  -8    7.14    2.04
  -4   3  -8   37.41    3.01
  -4   3  -8   41.49    3.82
   4  -3   8   38.90    2.73
  -5   3  -8   30.23    2.68
  -5   3  -8   34.79    3.71
   5  -3   8   34.15    2.62
  -6   3  -8   39.58    2.87
  -6   3  -8   38.23    3.87
   6  -3   8   40.70    3.11
  -7   3  -8   26.41    3.60
   7  -3   8   37.90    3.36
  -8   3  -8    4.46    2.18
   8  -3   8   -0.30    1.74
  -9   3  -8    7.65    2.55
 -10   3  -8   24.52    3.55
   8   2  -8    5.09    1.94
   8   2  -8    5.56    2.62
   7   2  -8   14.32    3.01
   7   2  -8   10.04    2.10
   7   2  -8    9.39    2.37
   6   2  -8    7.45    2.12
   6   2  -8    9.98    2.52
   5   2  -8    6.98    1.62
   5   2  -8    8.23    2.36
   4   2  -8   35.53    3.70
   4   2  -8   37.03    2.74
   3   2  -8    3.60    1.95
   3   2  -8    2.18    1.03
   2   2  -8   28.62    3.14
   2   2  -8   27.15    1.86
   1   2  -8   13.06    2.27
   0   2  -8    0.41    1.44
  -1   2  -8   18.04    2.64
  -2   2  -8   32.92    3.41
  -3   2  -8   74.33    5.00
   3  -2   8   80.92    3.84
  -4   2  -8   22.07    2.85
  -4   2  -8   19.42    2.13
   4  -2   8   22.71    1.78
  -5   2  -8    0.11    1.62
  -5   2  -8   -0.63    1.03
   5  -2   8    3.32    1.15
  -6   2  -8    4.35    2.00
  -6   2  -8    7.57    1.45
   6  -2   8    8.72    1.66
  -7   2  -8   57.95    4.69
   7  -2   8   47.74    3.72
  -8   2  -8   15.00    2.86
   8  -2   8   16.94    2.57
  -9   2  -8    9.79    2.61
   9  -2   8    8.55    2.21
 -10   2  -8    2.57    2.25
  10  -2   8   -0.02    2.36
 -11   2  -8   -1.01    1.98
   9   1  -8   -0.46    2.33
   8   1  -8    4.05    2.40
   7   1  -8    1.83    2.25
   7   1  -8   -1.23    1.65
   6   1  -8    2.21    1.47
   6   1  -8    7.25    2.41
   5   1  -8    2.15    1.81
   5   1  -8    2.32    1.28
   4   1  -8   -0.66    0.98
   4   1  -8   -0.73    1.79
   3   1  -8    1.23    0.92
   3   1  -8    3.03    1.84
   2   1  -8   41.62    2.30
   2   1  -8   48.29    3.90
   1   1  -8   31.29    3.27
   0   1  -8    3.46    1.69
  -1   1  -8    1.38    1.68
  -2   1  -8   40.08    3.55
  -3   1  -8   97.79    5.86
  -4   1  -8   53.24    4.19
   4  -1   8   60.13    2.99
   4  -1   8   52.64    4.18
  -5   1  -8    9.34    2.16
   5  -1   8    7.87    2.09
  -6   1  -8   10.06    1.47
  -6   1  -8    8.64    2.25
   6  -1   8    9.36    2.32
   6  -1   8   10.53    1.69
  -7   1  -8   50.38    4.31
   7  -1   8   47.19    3.54
   7  -1   8   49.29    4.38
  -8   1  -8   42.08    4.38
   8  -1   8   45.85    4.25
   8  -1   8   40.94    3.60
  -9   1  -8   13.72    2.63
   9  -1   8   13.37    2.54
   9  -1   8   13.03    2.67
 -10   1  -8    0.92    2.11
  10  -1   8    0.41    1.89
  10  -1   8    4.09    2.04
 -11   1  -8    1.37    2.35
  11  -1   8    0.15    2.74
   9   0  -8    3.58    2.72
   8   0  -8    6.75    2.76
   8   0  -8    3.16    2.43
   7   0  -8   20.96    2.83
   7   0  -8   20.59    3.40
   6   0  -8   10.66    2.08
   6   0  -8   10.41    2.65
   5   0  -8    2.25    1.23
   5   0  -8   -1.35    1.72
   4   0  -8   34.14    3.66
   4   0  -8   34.96    2.59
   3   0  -8    1.59    0.87
   3   0  -8    1.51    1.79
   2   0  -8   17.50    1.39
   2   0  -8   13.87    2.53
   1   0  -8    2.49    1.77
   0   0  -8    9.68    2.15
  -1   0  -8  123.70    6.76
  -2   0  -8    5.90    1.91
   2   0   8    7.15    1.93
  -3   0  -8    1.16    1.46
   3   0   8    0.31    1.44
  -4   0  -8   11.95    2.18
   4   0   8   12.63    1.28
   4   0   8   14.23    2.37
  -5   0  -8  119.04    6.69
   5   0   8  119.74    5.59
   5   0   8  104.94    6.59
  -6   0  -8   49.70    4.24
   6   0   8   59.63    3.56
   6   0   8   45.73    4.18
  -7   0  -8    2.20    1.77
   7   0   8    4.37    1.56
   7   0   8    4.47    1.92
  -8   0  -8   23.64    3.31
   8   0   8   22.32    3.17
   8   0   8   20.45    2.69
  -9   0  -8   25.34    3.40
   9   0   8   25.13    3.09
   9   0   8   24.34    3.34
 -10   0  -8   14.96    3.00
  10   0   8   11.91    2.67
  10   0   8   14.25    2.84
 -11   0  -8    8.43    2.63
  11   0   8   14.12    2.88
  11   0   8   15.49    3.04
   9  -1  -8    0.81    2.46
   8  -1  -8    2.91    2.44
   8  -1  -8    6.35    2.26
   7  -1  -8    4.43    1.92
   7  -1  -8    4.48    2.35
   6  -1  -8    2.31    2.05
   6  -1  -8    5.78    1.74
   5  -1  -8    3.25    2.08
   5  -1  -8    1.97    1.23
   4  -1  -8   26.23    2.31
   4  -1  -8   17.94    2.93
   3  -1  -8    0.66    0.92
   3  -1  -8    0.34    1.70
   2  -1  -8    6.10    1.90
   2  -1  -8    7.25    1.09
   1  -1  -8    0.79    1.59
   0  -1  -8   11.68    2.19
  -1  -1  -8  132.67    7.08
   1   1   8  130.89    6.99
  -2  -1  -8    8.57    2.00
   2   1   8    6.31    1.79
  -3  -1  -8    4.86    1.81
   3   1   8    5.46    1.76
  -4  -1  -8   10.66    2.24
   4   1   8    8.65    1.14
   4   1   8    9.45    2.07
  -5  -1  -8  112.53    6.38
   5   1   8  100.24    6.44
   5   1   8  107.38    5.23
  -6  -1  -8   71.32    4.95
   6   1   8   73.25    5.10
   6   1   8   68.79    4.02
  -7  -1  -8    0.21    1.61
   7   1   8    2.30    1.29
   7   1   8    4.00    1.92
  -8  -1  -8    2.52    1.84
   8   1   8    3.95    1.97
   8   1   8    1.46    1.44
  -9  -1  -8   15.62    2.81
   9   1   8    9.65    2.20
   9   1   8   13.03    2.65
 -10  -1  -8   24.55    3.60
  10   1   8   23.35    3.20
  10   1   8   29.28    3.71
 -11  -1  -8   16.47    3.14
  11   1   8   13.82    2.81
  11   1   8   18.65    3.11
   8  -2  -8    1.80    2.44
   8  -2  -8    3.53    2.05
   7  -2  -8    5.55    2.47
   7  -2  -8    6.65    2.14
   6  -2  -8    8.38    2.58
   6  -2  -8    6.13    1.90
   5  -2  -8   -0.26    1.26
   5  -2  -8   -1.77    1.79
   4  -2  -8    9.35    2.42
   4  -2  -8    6.91    1.56
   3  -2  -8    3.71    1.96
   3  -2  -8    1.31    1.05
   2  -2  -8   16.28    2.70
   2  -2  -8   18.84    1.71
   1  -2  -8   20.58    1.58
   1  -2  -8   19.14    2.72
   0  -2  -8    9.58    2.03
   0   2   8    6.70    1.77
  -1  -2  -8    1.27    1.42
   1   2   8   -0.45    1.32
  -2  -2  -8   26.69    3.09
   2   2   8   24.61    1.53
   2   2   8   25.18    2.91
  -3  -2  -8   53.21    4.12
   3   2   8   60.74    2.94
   3   2   8   54.21    4.16
  -4  -2  -8   29.77    3.10
   4   2   8   30.21    2.06
   4   2   8   22.64    2.95
  -5  -2  -8   22.16    2.82
   5   2   8   12.28    3.03
   5   2   8   23.94    2.03
  -6  -2  -8   20.99    2.95
   6   2   8   18.92    3.07
   6   2   8   21.49    2.23
  -7  -2  -8   20.24    2.86
   7   2   8   22.22    2.50
   7   2   8   25.04    3.33
  -8  -2  -8   25.49    3.31
   8   2   8   22.68    3.40
   8   2   8   28.03    2.99
  -9  -2  -8    8.26    2.39
   9   2   8   13.51    2.44
   9   2   8    8.76    2.64
 -10  -2  -8    7.92    2.35
  10   2   8    1.73    1.86
  10   2   8    6.54    2.69
 -11  -2  -8   10.98    2.71
  11   2   8   10.84    2.89
  11   2   8    5.13    2.27
   8  -3  -8    8.80    2.49
   8  -3  -8   10.88    2.99
   7  -3  -8    7.53    2.67
   7  -3  -8    9.63    2.39
   6  -3  -8    6.07    2.43
   6  -3  -8    1.46    1.59
   5  -3  -8    0.02    1.33
   5  -3  -8   -0.87    1.89
   4  -3  -8   29.75    3.66
   4  -3  -8   29.39    2.82
   3  -3  -8    3.73    1.92
   3  -3  -8    0.01    1.05
   2  -3  -8   43.66    4.00
   2  -3  -8   47.09    2.99
   1  -3  -8   22.81    1.97
   1  -3  -8   20.23    2.90
  -1   3   8   25.68    2.71
   0  -3  -8    8.81    1.17
   0  -3  -8    7.41    1.95
   0   3   8    9.40    1.80
  -1  -3  -8   24.33    2.82
   1   3   8   25.45    2.73
  -2  -3  -8   27.08    3.08
   2   3   8   30.20    3.11
  -3  -3  -8  133.11    7.27
   3   3   8  139.42    7.46
  -4  -3  -8   78.92    5.02
   4   3   8   75.93    5.43
  -5  -3  -8    0.11    1.49
   5   3   8    0.41    0.98
   5   3   8   -1.51    2.03
  -6  -3  -8    1.89    1.80
   6   3   8    4.36    1.42
   6   3   8   10.07    2.90
  -7  -3  -8   61.80    4.60
   7   3   8   61.73    5.24
   7   3   8   58.16    4.00
  -8  -3  -8   56.24    4.40
   8   3   8   39.34    3.63
   8   3   8   55.01    4.95
  -9  -3  -8   14.91    2.72
   9   3   8   19.47    3.37
   9   3   8   15.22    2.60
 -10  -3  -8    1.78    1.97
  10   3   8    3.27    1.89
  10   3   8    2.08    2.63
 -11  -3  -8    1.46    2.08
  11   3   8   -0.82    1.80
  11   3   8   -1.84    2.38
   8  -4  -8   -0.06    1.99
   8  -4  -8   -0.23    1.85
   7  -4  -8   -1.60    1.99
   7  -4  -8   -0.78    1.71
   6  -4  -8    0.16    2.08
   6  -4  -8    3.84    1.91
   5  -4  -8    0.28    1.45
   5  -4  -8    2.23    2.08
   4  -4  -8    0.96    1.40
   4  -4  -8    0.54    1.82
   3  -4  -8    0.55    1.81
   3  -4  -8    3.29    1.35
   2  -4  -8    2.54    1.20
   2  -4  -8    2.22    1.80
   1  -4  -8    2.10    1.74
   1  -4  -8   -0.19    1.05
  -1   4   8   -0.43    1.31
   0  -4  -8   29.73    3.31
   0  -4  -8   25.67    2.29
   0   4   8   26.23    2.85
  -1  -4  -8   -0.42    1.39
   1   4   8    1.78    1.58
  -2  -4  -8   16.41    2.47
   2   4   8   13.48    2.35
  -3  -4  -8   36.51    3.56
   3   4   8   31.44    3.58
  -4  -4  -8   16.45    2.52
   4   4   8   23.12    3.70
  -5  -4  -8   10.93    2.20
   5   4   8    5.03    2.38
  -6  -4  -8   15.38    2.47
   6   4   8   10.01    2.88
  -7  -4  -8   30.59    3.35
   7   4   8   28.28    4.17
   7   4   8   27.74    2.93
  -8  -4  -8   16.31    2.76
   8   4   8    9.51    2.91
   8   4   8   15.60    2.46
  -9  -4  -8   11.75    2.56
   9   4   8   10.61    2.33
   9   4   8    3.66    2.55
 -10  -4  -8    7.80    2.43
  10   4   8    2.81    2.63
  10   4   8   12.60    2.65
 -11  -4  -8    3.46    2.31
  11   4   8    3.15    2.73
  11   4   8   -1.36    1.72
   8  -5  -8    4.66    2.74
   8  -5  -8    4.02    2.38
   7  -5  -8    5.30    2.65
   7  -5  -8    5.50    2.31
   6  -5  -8    7.27    2.52
   6  -5  -8    3.42    1.97
   5  -5  -8    0.27    1.57
   5  -5  -8    1.81    2.13
   4  -5  -8   22.35    3.41
   4  -5  -8   28.94    3.07
   3  -5  -8    9.59    1.91
   3  -5  -8    7.32    2.17
   2  -5  -8    7.74    1.71
   2  -5  -8    2.57    1.87
  -2   5   8    4.34    1.51
   1  -5  -8    4.46    1.81
   1  -5  -8    4.76    1.45
  -1   5   8    5.75    1.69
   0  -5  -8   27.36    2.59
   0  -5  -8   27.65    3.23
   0   5   8   24.99    2.88
  -1  -5  -8   89.16    5.41
   1   5   8   86.15    5.60
  -2  -5  -8   24.05    2.93
   2   5   8   16.39    2.93
  -3  -5  -8   -0.04    1.53
   3   5   8    3.75    2.28
  -4  -5  -8    7.92    1.98
   4   5   8    4.30    2.29
   5   5   8   17.38    3.31
   6   5   8   21.19    3.46
  -7  -5  -8   13.24    2.41
   7   5   8    5.41    2.62
  -8  -5  -8    2.06    1.83
   8   5   8    1.17    1.50
   8   5   8    2.02    2.24
  -9  -5  -8    8.34    2.30
   9   5   8   -2.21    2.02
   9   5   8    3.63    1.95
 -10  -5  -8   29.17    3.56
  10   5   8   24.40    3.49
 -11  -5  -8    6.54    2.46
   7  -6  -8    3.56    2.31
   7  -6  -8    1.18    2.38
   6  -6  -8   -1.88    1.57
   6  -6  -8   -0.09    1.98
   5  -6  -8    1.63    2.04
   5  -6  -8    1.04    1.74
   4  -6  -8    5.35    2.25
   4  -6  -8    0.23    1.64
   3  -6  -8    1.96    1.59
   3  -6  -8    5.19    2.32
   2  -6  -8    2.79    1.56
   2  -6  -8    1.15    1.99
  -2   6   8   -1.56    1.44
   1  -6  -8    3.54    1.46
   1  -6  -8    1.23    1.71
  -1   6   8    3.44    1.59
   0  -6  -8    1.85    1.42
   0  -6  -8    0.90    1.67
   0   6   8   -0.92    1.36
   0   6   8   -0.80    1.82
  -1  -6  -8   45.21    3.80
   1   6   8   47.39    3.66
   1   6   8   50.96    4.83
  -2  -6  -8   16.61    2.53
   2   6   8   16.05    2.27
   2   6   8   17.73    3.27
  -3  -6  -8   -1.57    1.25
   3   6   8    6.96    2.75
   3   6   8    0.83    1.41
  -4  -6  -8    8.35    2.05
   4   6   8   10.49    1.82
   4   6   8    7.11    2.59
  -5  -6  -8   46.53    3.91
   5   6   8   47.09    4.73
   5   6   8   50.08    3.57
  -6  -6  -8   36.11    3.57
   6   6   8   32.80    4.13
   6   6   8   30.45    2.86
  -7  -6  -8    7.35    2.12
   7   6   8    9.72    2.69
  -8  -6  -8    4.53    2.12
   8   6   8   11.53    2.94
  -9  -6  -8   12.54    2.60
   9   6   8    3.43    2.79
   9   6   8   12.06    2.47
 -10  -6  -8   13.09    2.86
  10   6   8    8.48    3.18
  10   6   8   11.24    2.83
   6  -7  -8    9.02    2.73
   6  -7  -8    9.87    2.57
   5  -7  -8    2.54    1.93
   5  -7  -8    1.32    2.07
   4  -7  -8    7.36    2.16
   4  -7  -8    7.27    2.43
   3  -7  -8    2.45    2.00
   3  -7  -8    5.37    1.98
   2  -7  -8   14.59    2.71
   2  -7  -8   15.36    2.51
  -2   7   8   16.03    2.54
   1  -7  -8   23.33    3.16
   1  -7  -8   19.67    2.58
  -1   7   8   21.99    2.95
  -1   7   8   25.94    2.90
   0  -7  -8    1.79    1.67
   0  -7  -8    2.30    1.64
   0   7   8   16.07    3.34
   0   7   8    4.40    1.75
  -1  -7  -8   -0.35    1.58
   1   7   8   -1.60    1.44
   1   7   8    6.86    2.46
  -2  -7  -8    6.34    1.89
   2   7   8    2.14    2.14
   2   7   8    3.45    1.57
  -3  -7  -8   24.99    2.99
   3   7   8   23.02    2.71
   3   7   8   34.77    4.07
  -4  -7  -8   35.83    3.54
   4   7   8   35.08    3.26
   4   7   8   40.58    4.32
  -5  -7  -8    3.52    1.73
   5   7   8    5.62    2.36
   5   7   8    9.47    1.88
  -6  -7  -8   -0.83    1.44
   6   7   8   -2.96    1.86
   6   7   8    1.39    1.39
  -7  -7  -8    8.42    2.08
   7   7   8    6.95    2.66
   7   7   8    7.52    1.71
   8   7   8   31.94    4.34
   9   7   8   12.30    3.25
   6  -8  -8    2.54    2.38
   5  -8  -8    5.64    2.46
   5  -8  -8    3.72    2.18
   4  -8  -8    4.47    2.25
   4  -8  -8    1.90    2.06
   3  -8  -8    1.83    2.03
   3  -8  -8    0.02    1.82
  -3   8   8   -1.20    1.72
   2  -8  -8    1.48    1.91
   2  -8  -8    3.99    1.94
  -2   8   8    5.75    2.05
   1  -8  -8   16.68    2.63
   1  -8  -8   12.75    2.57
  -1   8   8   16.16    2.64
  -1   8   8   11.07    2.53
   0  -8  -8    4.42    1.93
   0  -8  -8   -0.14    1.62
   0   8   8    5.03    2.61
   0   8   8    6.00    1.82
  -1  -8  -8    0.57    1.66
   1   8   8    6.40    2.64
   1   8   8    0.28    1.53
  -2  -8  -8    3.82    1.84
   2   8   8    1.70    2.30
   2   8   8    0.54    1.49
  -3  -8  -8   29.63    3.16
   3   8   8   26.08    3.56
   3   8   8   25.41    2.93
  -4  -8  -8   17.09    2.50
   4   8   8   15.65    2.39
   4   8   8   17.24    3.07
   5   8   8    5.06    1.69
   5   8   8    3.88    2.34
   6   8   8    1.69    1.55
   6   8   8    1.51    2.30
   7   8   8    4.50    2.57
   7   8   8    4.80    1.74
   8   8   8   22.03    3.94
   9   8   8    3.80    2.66
   5  -9  -8    2.35    2.37
   4  -9  -8    2.00    2.17
   4  -9  -8    3.38    2.29
  -4   9   8    3.26    2.10
   3  -9  -8    0.94    2.05
   3  -9  -8    2.85    2.07
  -3   9   8    2.68    2.00
   2  -9  -8   -1.09    1.82
   2  -9  -8   -2.05    1.74
  -2   9   8    1.93    1.93
   1  -9  -8    1.61    1.96
   1  -9  -8   -1.43    1.74
  -1   9   8    2.03    1.86
   0  -9  -8   10.33    2.43
   0  -9  -8   11.06    2.34
   0   9   8    8.68    2.68
   0   9   8   13.55    2.52
  -1  -9  -8    9.77    2.35
   1   9   8    9.37    2.23
   1   9   8    6.82    2.60
   2   9   8   10.71    2.25
   2   9   8    8.26    2.53
   3   9   8    5.28    2.41
   3   9   8    5.88    1.95
   4   9   8    5.92    2.46
   4   9   8    6.88    1.94
   5   9   8    6.32    2.61
   5   9   8    7.23    2.02
   6   9   8   14.81    3.38
   6   9   8   22.34    2.75
   7   9   8   11.64    3.11
   7   9   8   16.60    2.50
   8   9   8    1.04    2.62
   3 -10  -8    3.16    2.31
  -3  10   8    1.04    2.17
   2 -10  -8    3.37    2.36
  -2  10   8    2.40    2.01
   1 -10  -8    3.66    2.32
  -1  10   8    6.25    2.37
   0 -10  -8    4.78    2.27
   0  10   8    1.57    1.92
   1  10   8    6.55    2.76
   1  10   8    1.07    1.86
   2  10   8    6.03    2.55
   2  10   8    5.84    2.01
   3  10   8    0.49    1.71
   3  10   8   -2.19    2.05
   4  10   8   -1.08    2.30
   4  10   8   -0.63    1.59
   5  10   8    7.62    2.90
   5  10   8    4.74    1.90
   6  10   8   15.80    2.53
   6  10   8    5.36    2.74
   7  10   8   -1.65    2.40
   7  10   8    6.99    1.99
   1 -11  -8    6.58    2.66
  -1  11   8    2.24    2.21
   0 -11  -8    2.10    2.17
   0  11   8    0.72    1.93
   1  11   8    0.42    1.86
   2  11   8    2.09    2.57
   2  11   8    2.51    1.97
   3  11   8    3.65    2.07
   3  11   8    1.36    2.59
   4  11   8    5.20    2.76
   4  11   8    5.31    2.18
   5  11   8    2.70    1.94
   0   9  -9   -0.76    2.05
  -1   9  -9    0.17    1.95
  -2   9  -9    2.55    2.16
   3   8  -9    0.94    2.15
   2   8  -9   -0.84    2.18
   1   8  -9   -1.35    1.98
   0   8  -9    2.66    2.14
  -1   8  -9    0.40    2.04
  -2   8  -9    0.97    2.03
  -3   8  -9   -0.67    1.76
  -4   8  -9   -3.28    1.65
  -5   8  -9    8.35    2.23
   5   7  -9    1.04    2.09
   5   7  -9    2.79    2.27
   4   7  -9   -0.51    2.09
   3   7  -9   -0.73    1.85
   2   7  -9    0.64    2.01
   1   7  -9    0.90    1.93
   0   7  -9    1.97    2.03
  -1   7  -9   -0.67    1.85
  -1   7  -9   -0.88    1.49
  -2   7  -9    1.04    1.69
  -2   7  -9   -1.08    1.69
  -3   7  -9   -2.34    1.56
  -3   7  -9    2.39    1.94
  -4   7  -9    3.76    2.07
  -4   7  -9    0.01    1.77
  -5   7  -9    2.69    2.08
  -5   7  -9    0.46    1.71
  -6   7  -9   -1.33    1.96
  -7   7  -9   -1.24    2.07
   6   6  -9   15.29    2.80
   6   6  -9    8.16    2.83
   5   6  -9   -1.17    1.82
   5   6  -9   -0.55    2.03
   4   6  -9    0.55    1.96
   3   6  -9    2.37    2.13
   3   6  -9    6.06    2.35
   2   6  -9    4.69    1.96
   2   6  -9    6.55    2.09
   1   6  -9   -0.15    1.72
   1   6  -9   -1.14    1.53
   0   6  -9    5.07    1.95
   0   6  -9    2.44    1.86
  -1   6  -9   11.46    2.40
  -1   6  -9    4.30    1.97
  -2   6  -9    2.14    1.71
  -2   6  -9    2.02    1.78
  -3   6  -9    3.64    1.75
  -3   6  -9    6.32    2.12
  -4   6  -9    1.31    1.82
  -4   6  -9    1.37    1.92
  -5   6  -9    7.56    2.07
  -5   6  -9   10.35    2.61
  -6   6  -9    1.05    1.83
  -7   6  -9    4.31    2.32
  -8   6  -9    0.32    2.32
   6   5  -9   -2.75    1.49
   6   5  -9    0.02    2.76
   6   5  -9   -0.54    1.92
   5   5  -9    0.19    1.72
   5   5  -9    2.39    2.02
   4   5  -9    0.03    1.78
   4   5  -9    3.96    2.03
   3   5  -9    7.32    2.20
   3   5  -9    2.82    1.91
   2   5  -9    1.47    1.74
   2   5  -9    0.31    1.64
   1   5  -9    0.55    1.70
   1   5  -9    4.96    1.91
   0   5  -9    0.27    1.70
   0   5  -9    3.19    1.80
  -1   5  -9    0.31    1.55
  -1   5  -9    1.06    1.74
  -2   5  -9    1.51    1.82
  -2   5  -9    2.22    1.72
  -3   5  -9    1.47    1.54
  -3   5  -9   -0.16    1.63
  -4   5  -9    5.12    1.68
  -4   5  -9    6.55    2.11
  -5   5  -9   -0.96    1.72
  -5   5  -9    0.10    1.38
  -6   5  -9    1.92    2.17
  -6   5  -9    0.14    1.96
  -7   5  -9   -1.12    1.88
  -8   5  -9    2.62    2.22
   7   4  -9    1.09    2.06
   7   4  -9    0.50    1.67
   7   4  -9    0.29    2.19
   6   4  -9    0.62    1.67
   6   4  -9    4.68    2.34
   6   4  -9    2.11    2.05
   5   4  -9    7.66    2.57
   5   4  -9   10.20    2.32
   4   4  -9   17.63    2.72
   4   4  -9   14.76    2.66
   3   4  -9    0.35    1.66
   3   4  -9   -1.30    1.79
   2   4  -9   17.84    2.74
   2   4  -9   14.75    2.38
   1   4  -9    4.52    1.79
   1   4  -9    4.41    2.04
   0   4  -9    7.81    2.04
   0   4  -9    7.29    2.14
  -1   4  -9    8.69    2.01
  -1   4  -9    8.77    2.29
  -2   4  -9    4.19    1.95
  -2   4  -9    2.21    1.54
  -3   4  -9   17.58    2.97
  -3   4  -9   18.44    2.45
  -4   4  -9   -1.51    1.73
  -4   4  -9    0.80    1.36
  -5   4  -9   15.84    2.20
  -5   4  -9   13.70    2.76
  -6   4  -9    6.34    2.41
  -6   4  -9    6.28    1.64
  -7   4  -9    2.97    2.26
  -8   4  -9    2.10    2.26
  -9   4  -9    0.01    2.18
   7   3  -9    1.51    1.75
   7   3  -9    2.65    2.12
   7   3  -9    6.88    2.76
   6   3  -9    1.59    2.12
   6   3  -9    0.78    1.65
   5   3  -9    4.52    1.90
   5   3  -9    4.62    2.28
   4   3  -9    5.31    1.93
   4   3  -9    4.38    2.29
   3   3  -9    2.21    1.60
   3   3  -9    3.61    1.90
   2   3  -9   -0.06    1.53
   2   3  -9    0.46    1.81
   1   3  -9    2.80    1.81
   0   3  -9    4.12    1.68
   0   3  -9    2.08    1.82
  -1   3  -9    2.05    1.87
  -1   3  -9    2.03    1.51
  -2   3  -9    3.58    1.52
  -2   3  -9    2.35    1.87
  -3   3  -9    0.14    1.58
  -3   3  -9    1.32    1.36
  -4   3  -9    8.22    2.27
  -4   3  -9    7.19    1.70
  -5   3  -9    9.08    1.78
  -5   3  -9    7.89    2.34
  -6   3  -9    6.69    1.54
  -6   3  -9    8.32    2.38
  -7   3  -9   -1.06    1.89
  -8   3  -9    0.18    1.98
  -9   3  -9    0.11    2.03
 -10   3  -9    4.00    2.42
   8   2  -9   -2.31    1.54
   8   2  -9    2.68    2.57
   7   2  -9   12.57    2.40
   7   2  -9   10.14    2.90
   7   2  -9   20.21    3.25
   6   2  -9   20.83    3.41
   5   2  -9   -1.29    1.83
   4   2  -9    6.24    2.22
   3   2  -9    0.36    1.87
   2   2  -9   27.96    3.29
   1   2  -9    8.84    2.31
   0   2  -9   11.70    2.50
  -1   2  -9   13.72    2.53
  -2   2  -9    1.37    1.65
  -3   2  -9   32.13    3.48
  -4   2  -9    1.91    1.72
  -5   2  -9   -0.02    1.20
  -5   2  -9    0.14    1.80
  -6   2  -9    1.86    1.77
  -6   2  -9    0.39    1.18
  -7   2  -9    4.48    2.10
  -8   2  -9   19.21    3.23
  -9   2  -9    2.12    2.18
 -10   2  -9    1.70    2.33
   8   1  -9    0.71    2.26
   7   1  -9    3.59    2.54
   6   1  -9    2.55    2.23
   5   1  -9    0.39    1.95
   4   1  -9    2.08    1.97
   3   1  -9    1.16    1.91
   2   1  -9    7.34    2.25
   1   1  -9    4.08    1.97
   0   1  -9   14.11    2.45
  -1   1  -9   18.00    2.71
  -2   1  -9   -0.92    1.65
  -3   1  -9   11.99    2.35
  -4   1  -9    2.81    1.82
  -5   1  -9    7.39    2.12
  -6   1  -9    7.20    2.21
   6  -1   9    3.39    1.96
  -7   1  -9    2.73    2.07
   7  -1   9    6.08    2.28
  -8   1  -9   20.72    3.39
   8  -1   9   16.13    3.05
  -9   1  -9   -1.27    1.92
   9  -1   9    1.84    2.05
 -10   1  -9    0.61    1.98
  10  -1   9    0.08    1.78
   8   0  -9   15.89    3.47
   7   0  -9   -1.92    1.95
   6   0  -9   -2.60    1.84
   5   0  -9    4.48    2.34
   4   0  -9   15.10    2.99
   3   0  -9   16.71    2.99
   2   0  -9   23.36    3.29
   1   0  -9   11.98    2.43
   0   0  -9   23.59    3.08
  -1   0  -9    6.24    2.06
  -2   0  -9   -1.24    1.36
  -3   0  -9   25.86    3.17
   3   0   9   24.30    3.10
  -4   0  -9    2.92    1.88
   4   0   9    5.10    1.92
  -5   0  -9    0.99    1.82
   5   0   9    4.28    1.97
  -6   0  -9    4.56    2.03
   6   0   9    2.79    1.99
  -7   0  -9    2.29    1.96
   7   0   9    2.08    1.98
  -8   0  -9    2.10    2.03
   8   0   9    2.52    2.05
  -9   0  -9    4.11    2.07
   9   0   9    5.26    2.25
 -10   0  -9    6.24    2.37
  10   0   9   11.70    2.85
 -11   0  -9    3.40    2.45
   8  -1  -9   13.95    3.46
   7  -1  -9   -2.10    1.84
   6  -1  -9    0.93    2.06
   5  -1  -9    3.81    2.29
   4  -1  -9   15.04    3.03
   3  -1  -9   10.68    2.60
   2  -1  -9   23.01    3.12
   1  -1  -9   23.59    3.17
   0  -1  -9   10.73    2.41
  -1  -1  -9   17.34    2.79
  -2  -1  -9    2.97    1.70
   2   1   9   -0.60    1.45
  -3  -1  -9   58.54    4.39
   3   1   9   49.23    4.25
  -4  -1  -9    1.48    1.70
   4   1   9   -0.35    1.55
  -5  -1  -9    2.37    1.89
   5   1   9    1.45    1.83
  -6  -1  -9   11.83    2.61
   6   1   9   17.32    2.70
  -7  -1  -9   -1.60    1.65
   7   1   9   -1.33    1.70
  -8  -1  -9   14.69    2.95
   8   1   9   18.12    2.98
  -9  -1  -9    2.49    2.21
   9   1   9    2.91    2.08
 -10  -1  -9    9.96    2.68
  10   1   9   10.98    2.72
 -11  -1  -9    5.44    2.55
   8  -2  -9    1.06    2.41
   7  -2  -9    5.54    2.67
   6  -2  -9   12.39    3.04
   5  -2  -9    0.45    2.02
   4  -2  -9   -2.17    1.73
   3  -2  -9    1.84    2.06
   2  -2  -9   10.82    2.58
   1  -2  -9    3.71    1.99
   0  -2  -9   -0.21    1.60
  -1  -2  -9    0.93    1.54
   1   2   9   -0.60    1.50
  -2  -2  -9    3.48    1.83
   2   2   9   -3.28    1.48
  -3  -2  -9    4.10    1.93
   3   2   9    4.28    2.01
  -4  -2  -9    2.38    1.68
   4   2   9    1.37    1.65
  -5  -2  -9   -1.03    1.53
   5   2   9   -2.45    1.71
  -6  -2  -9    1.06    1.74
   6   2   9    3.23    2.04
  -7  -2  -9    6.19    2.23
   7   2   9    2.81    1.96
  -8  -2  -9    0.64    1.92
   8   2   9    8.11    2.45
  -9  -2  -9    4.79    2.25
   9   2   9    7.74    2.46
 -10  -2  -9    1.75    2.21
  10   2   9    7.41    2.35
 -11  -2  -9    1.36    2.41
   7  -3  -9    9.59    3.10
   6  -3  -9   22.56    3.87
   5  -3  -9    6.61    2.37
   4  -3  -9    6.10    2.39
   3  -3  -9   16.44    3.10
   2  -3  -9   18.52    3.08
   1  -3  -9   17.72    3.02
   0  -3  -9   34.97    3.70
   0   3   9   40.07    3.60
  -1  -3  -9   30.90    3.38
   1   3   9   27.78    3.13
  -2  -3  -9    5.78    1.93
   2   3   9    8.49    2.10
  -3  -3  -9   33.59    3.53
   3   3   9   30.11    3.50
  -4  -3  -9    0.24    1.69
   4   3   9   -1.82    1.86
  -5  -3  -9    9.44    2.29
   5   3   9    6.05    2.29
  -6  -3  -9   17.80    2.84
   6   3   9   24.46    3.77
  -7  -3  -9    1.12    1.84
   7   3   9    0.25    2.30
  -8  -3  -9   24.34    3.36
   8   3   9   26.47    3.87
  -9  -3  -9    2.38    2.14
   9   3   9    4.54    2.58
 -10  -3  -9    1.41    2.04
  10   3   9   -0.01    2.36
   7  -4  -9    3.01    2.51
   6  -4  -9    0.55    2.34
   5  -4  -9    9.89    2.75
   4  -4  -9    7.38    2.46
   3  -4  -9    0.19    1.92
   3  -4  -9   -1.12    1.79
   2  -4  -9    4.60    2.03
   2  -4  -9    3.30    1.47
   1  -4  -9    2.51    1.21
   1  -4  -9    3.84    1.98
  -1   4   9   -0.16    1.45
   0  -4  -9    3.16    1.91
   0   4   9    0.37    1.64
  -1  -4  -9   -1.36    1.61
   1   4   9   -0.55    1.46
  -2  -4  -9    0.12    1.51
   2   4   9   -1.68    1.68
  -3  -4  -9    2.95    1.88
   3   4   9    3.49    2.40
  -4  -4  -9    0.02    1.56
   4   4   9    0.69    2.15
  -5  -4  -9   -1.09    1.67
   5   4   9    0.64    2.20
  -6  -4  -9    1.80    1.81
   6   4   9    2.24    2.45
   6   4   9    1.97    1.28
  -7  -4  -9   -0.21    1.80
   7   4   9   -1.34    1.36
   7   4   9    2.77    2.62
  -8  -4  -9   10.28    2.56
   8   4   9   11.40    3.19
   8   4   9   13.61    3.40
  -9  -4  -9   -1.13    1.83
   9   4   9    3.27    2.87
 -10  -4  -9    0.96    1.99
  10   4   9   -3.09    2.25
   7  -5  -9    3.06    2.45
   6  -5  -9    6.22    2.72
   5  -5  -9    2.85    2.28
   4  -5  -9   19.56    3.35
   4  -5  -9   18.64    3.30
   3  -5  -9    7.28    1.81
   3  -5  -9    5.23    2.26
   2  -5  -9    7.18    2.35
   2  -5  -9    7.00    1.68
  -2   5   9    6.17    1.78
   1  -5  -9   14.62    1.93
   1  -5  -9   12.29    2.74
  -1   5   9   11.21    2.22
   0  -5  -9    5.57    1.41
   0  -5  -9    5.05    1.97
   0   5   9    3.45    1.70
  -1  -5  -9   28.48    3.44
   1   5   9   30.64    3.44
  -2  -5  -9    0.72    1.64
   2   5   9   -0.52    1.92
  -3  -5  -9   12.10    2.45
   3   5   9   11.24    2.78
  -4  -5  -9    5.51    2.04
   4   5   9    5.36    2.59
  -5  -5  -9   10.83    2.39
   5   5   9   16.23    3.54
  -6  -5  -9   19.29    3.01
   6   5   9   21.03    3.55
  -7  -5  -9    1.74    1.89
   7   5   9    0.77    2.38
  -8  -5  -9   -0.09    1.82
   8   5   9    1.28    1.62
   8   5   9    0.08    2.49
  -9  -5  -9    0.71    1.91
   9   5   9    3.53    2.86
 -10  -5  -9    7.41    2.46
  10   5   9    9.89    3.56
   6  -6  -9   -0.29    2.24
   5  -6  -9    1.91    2.26
   4  -6  -9    0.60    1.70
   4  -6  -9    0.10    2.13
   3  -6  -9    7.75    1.96
   3  -6  -9    8.07    2.63
   2  -6  -9    3.05    1.65
   2  -6  -9    2.33    2.15
  -2   6   9    3.39    1.71
   1  -6  -9    8.77    2.61
   1  -6  -9    9.32    1.83
  -1   6   9    1.85    1.77
   0  -6  -9   -0.96    1.62
   0  -6  -9    2.86    1.46
   0   6   9   -6.93    1.65
  -1  -6  -9    0.13    1.70
   1   6   9   -4.14    2.71
   2   6   9   12.93    3.43
  -3  -6  -9   16.30    2.73
   3   6   9   29.02    4.39
  -4  -6  -9   -0.92    1.66
   4   6   9    2.23    2.62
  -5  -6  -9   -1.37    1.62
   5   6   9    2.66    2.64
  -6  -6  -9    6.85    2.12
   6   6   9   -2.95    2.15
  -7  -6  -9   -0.11    1.75
   7   6   9    0.34    2.41
  -8  -6  -9    3.03    2.02
   8   6   9    2.92    2.84
  -9  -6  -9    2.51    2.16
   9   6   9    1.72    2.68
   9   6   9    1.66    2.54
 -10  -6  -9    6.09    2.31
   5  -7  -9    3.26    2.42
   4  -7  -9    1.53    2.12
   4  -7  -9    2.97    1.91
   3  -7  -9    1.71    2.25
   3  -7  -9    1.52    1.76
   2  -7  -9    7.07    1.99
   2  -7  -9    7.03    2.43
   1  -7  -9    6.40    2.43
   1  -7  -9    9.78    2.11
  -1   7   9    9.70    2.12
   0  -7  -9    0.66    1.47
   0  -7  -9    0.07    1.74
   0   7   9   -3.14    1.90
  -1  -7  -9    8.30    2.30
   1   7   9    9.62    2.15
   1   7   9   17.82    3.32
  -2  -7  -9    1.22    1.74
   2   7   9   10.07    3.07
   2   7   9   -1.05    1.43
  -3  -7  -9    2.38    1.80
   3   7   9    3.32    1.74
   3   7   9    6.85    2.98
  -4  -7  -9   13.18    2.43
   4   7   9   13.59    2.26
   4   7   9   11.00    3.06
  -5  -7  -9    4.28    1.85
   5   7   9    3.53    2.61
   5   7   9    0.43    1.60
  -6  -7  -9    1.35    1.81
   6   7   9    0.84    2.44
  -7  -7  -9    3.09    2.09
   7   7   9    5.49    3.01
  -8  -7  -9   -1.04    2.21
   8   7   9    0.50    2.75
   9   7   9    3.25    3.03
   4  -8  -9   -0.10    1.91
   4  -8  -9    0.11    2.19
   3  -8  -9    1.58    1.93
   3  -8  -9   -1.33    1.97
   2  -8  -9    1.26    2.06
   2  -8  -9    1.78    1.77
   1  -8  -9    9.87    2.63
   1  -8  -9    5.75    2.04
  -1   8   9    5.26    2.22
   0  -8  -9    0.15    1.67
   0  -8  -9   -0.18    1.74
   0   8   9    0.12    1.70
   0   8   9   -2.35    2.08
  -1  -8  -9    6.68    2.27
   1   8   9    6.09    2.74
   1   8   9   10.22    2.33
  -2  -8  -9   -0.49    1.68
   2   8   9   -0.06    1.59
   2   8   9    4.10    2.62
  -3  -8  -9    8.18    2.19
   3   8   9    5.97    1.92
   3   8   9    4.12    2.55
  -4  -8  -9    9.50    2.30
   4   8   9    8.86    2.05
   4   8   9    2.87    2.72
  -5  -8  -9    4.96    2.32
   5   8   9    0.30    1.47
   5   8   9    0.98    2.52
   6   8   9    0.91    2.81
   6   8   9    1.53    1.59
   7   8   9    0.19    2.55
   7   8   9    3.19    1.69
   8   8   9    2.33    2.77
   3  -9  -9   -0.20    2.15
   3  -9  -9   -2.44    1.81
   2  -9  -9    0.53    2.01
   2  -9  -9    0.67    1.91
  -2   9   9    0.59    1.91
   1  -9  -9    1.61    1.96
   1  -9  -9   -1.17    1.90
  -1   9   9   -1.06    1.85
   0  -9  -9    0.36    1.79
   0  -9  -9    1.33    1.83
   0   9   9   -1.54    1.73
  -1  -9  -9    4.05    2.08
   1   9   9    4.62    2.11
   1   9   9   13.38    3.50
   2   9   9    7.23    3.14
   2   9   9    2.22    1.86
   3   9   9    5.33    2.99
   3   9   9    4.15    1.85
   4   9   9    4.11    3.05
   4   9   9    2.98    1.85
   5   9   9    2.25    2.64
   5   9   9    1.21    1.61
   6   9   9    4.04    1.82
   6   9   9    3.15    2.67
   7   9   9    0.32    2.64
   7   9   9   -0.71    1.46
   2 -10  -9    1.58    2.19
  -2  10   9    3.19    2.22
   1 -10  -9   -0.32    2.04
  -1  10   9    1.09    2.04
   0 -10  -9    2.38    2.01
   0  10   9   -2.60    1.80
   1  10   9   10.89    3.59
   1  10   9   13.26    2.71
   2  10   9   -1.32    1.71
   2  10   9    9.64    3.10
   3  10   9   -0.48    1.74
   3  10   9    0.32    2.64
   4  10   9   -1.18    1.68
   4  10   9   -0.44    2.50
   5  10   9    8.80    3.21
   5  10   9    7.02    2.19
   0   8 -10    6.24    2.48
  -1   8 -10    5.39    2.35
  -2   8 -10   -0.92    2.14
   3   7 -10    7.16    2.50
   2   7 -10    7.65    2.65
   1   7 -10    7.46    2.64
   0   7 -10    4.61    2.39
  -1   7 -10    0.58    1.97
  -2   7 -10    5.26    2.33
  -2   7 -10    4.44    2.10
  -3   7 -10    3.79    2.07
  -3   7 -10    5.14    2.20
  -4   7 -10    2.55    2.18
  -4   7 -10   -2.00    1.78
  -5   7 -10    0.49    1.86
  -5   7 -10    2.51    2.25
   4   6 -10    0.20    2.01
   3   6 -10    5.77    2.22
   2   6 -10   20.13    3.19
   2   6 -10   31.48    3.76
   1   6 -10   10.84    2.54
   1   6 -10   13.57    2.57
   0   6 -10    0.63    1.85
   0   6 -10   -1.04    1.88
  -1   6 -10    2.17    1.93
  -1   6 -10    1.87    1.99
  -2   6 -10    8.48    2.50
  -2   6 -10   14.89    2.63
  -3   6 -10   13.66    2.79
  -3   6 -10   14.32    2.60
  -4   6 -10    2.29    2.09
  -4   6 -10    0.19    1.66
  -5   6 -10    0.20    2.13
  -5   6 -10   -2.55    1.55
  -6   6 -10   -0.07    2.05
  -7   6 -10    1.44    2.36
   5   5 -10    8.22    2.48
   5   5 -10    9.01    2.87
   4   5 -10   10.96    2.58
   4   5 -10    9.22    2.45
   3   5 -10   13.21    2.78
   3   5 -10   10.24    2.43
   2   5 -10   11.57    2.45
   2   5 -10    9.29    2.50
   1   5 -10    7.41    2.34
   1   5 -10    7.78    2.33
   0   5 -10    5.79    2.29
   0   5 -10   11.47    2.44
  -1   5 -10    4.19    2.14
  -1   5 -10    2.13    1.84
  -2   5 -10    6.37    2.07
  -2   5 -10   12.37    2.69
  -3   5 -10    4.17    2.33
  -3   5 -10    2.97    1.79
  -4   5 -10    1.20    1.50
  -4   5 -10    5.62    2.24
  -5   5 -10    4.02    1.72
  -5   5 -10    0.32    2.06
  -6   5 -10    1.01    2.15
  -7   5 -10    0.26    2.15
  -8   5 -10   -0.66    2.18
   6   4 -10    3.59    2.56
   6   4 -10    0.67    1.97
   5   4 -10   15.41    2.81
   5   4 -10   12.22    2.87
   4   4 -10   45.40    4.34
   4   4 -10   40.15    4.46
   3   4 -10   16.58    2.95
   3   4 -10   16.80    2.79
   2   4 -10    1.16    1.82
   2   4 -10   -2.70    1.80
   1   4 -10    2.61    1.76
   1   4 -10    4.91    2.25
   0   4 -10   23.20    3.35
   0   4 -10   22.69    2.87
  -1   4 -10   38.86    3.71
  -1   4 -10   37.69    4.05
  -2   4 -10   -0.48    1.86
  -2   4 -10   -0.15    1.59
  -3   4 -10    1.86    2.05
  -3   4 -10    2.50    1.73
  -4   4 -10   -0.27    1.98
  -4   4 -10    0.30    1.49
  -5   4 -10   10.97    1.95
  -5   4 -10    7.97    2.53
  -6   4 -10    5.86    2.51
  -7   4 -10    0.38    2.20
  -8   4 -10    3.86    2.54
   6   3 -10   26.38    3.39
   6   3 -10   22.27    3.82
   5   3 -10    6.96    2.18
   5   3 -10    5.73    2.77
   4   3 -10   20.03    3.27
   4   3 -10   21.89    2.95
   3   3 -10   17.27    2.61
   3   3 -10   15.98    2.96
   2   3 -10   -0.38    1.59
   2   3 -10    3.52    2.21
   1   3 -10    6.41    2.04
   1   3 -10    9.56    2.59
   0   3 -10   14.86    2.86
   0   3 -10   20.06    2.62
  -1   3 -10   26.82    3.01
  -1   3 -10   34.34    3.78
  -2   3 -10    0.12    1.80
  -2   3 -10    2.44    1.58
  -3   3 -10    1.24    1.49
  -3   3 -10    0.25    1.94
  -4   3 -10    0.65    1.36
  -4   3 -10    4.25    2.13
  -5   3 -10    4.61    1.61
  -5   3 -10   -0.08    1.88
  -6   3 -10    3.21    1.46
  -6   3 -10    5.91    2.48
  -7   3 -10   -2.09    1.81
  -8   3 -10    0.12    2.26
  -9   3 -10   -2.44    1.90
   7   2 -10   14.40    3.35
   6   2 -10   44.73    4.96
   5   2 -10   13.43    3.07
   4   2 -10    0.09    2.12
   3   2 -10   12.43    2.79
   2   2 -10   54.87    4.81
   1   2 -10   52.26    4.87
   0   2 -10    2.48    2.10
  -1   2 -10    1.95    1.97
  -2   2 -10    5.23    2.07
  -3   2 -10   30.85    3.61
  -4   2 -10   12.02    2.58
  -5   2 -10    5.44    1.66
  -5   2 -10    3.44    2.17
  -6   2 -10    1.77    1.35
  -6   2 -10   -1.87    1.94
  -7   2 -10    6.80    2.40
  -8   2 -10    7.66    2.67
  -9   2 -10    2.66    2.27
   7   1 -10   21.81    3.86
   6   1 -10   14.14    3.37
   5   1 -10   15.81    3.18
   4   1 -10    4.44    2.39
   3   1 -10   16.55    3.19
   2   1 -10   39.53    4.29
   1   1 -10   37.78    4.12
   0   1 -10    2.32    1.96
  -1   1 -10   -2.82    1.54
  -2   1 -10    4.36    2.19
  -3   1 -10   28.36    3.59
  -4   1 -10    7.63    2.38
  -5   1 -10    2.99    2.08
  -6   1 -10    5.31    2.12
  -7   1 -10    0.32    1.90
   7  -1  10   -1.44    1.80
  -8   1 -10    8.58    2.63
   8  -1  10    9.95    2.80
  -9   1 -10    1.37    2.31
   9  -1  10    0.84    2.14
 -10   1 -10    3.19    2.26
  10  -1  10    2.67    2.31
   7   0 -10   10.85    3.23
   6   0 -10    0.09    2.31
   4   0 -10   58.58    5.21
   3   0 -10   33.73    4.03
   2   0 -10   22.75    3.46
   1   0 -10    8.71    2.47
   0   0 -10   49.74    4.42
  -1   0 -10   47.04    4.30
  -2   0 -10   23.19    3.17
  -3   0 -10   -0.47    1.77
  -4   0 -10    0.99    1.78
   4   0  10   -0.40    1.69
  -5   0 -10   18.54    3.08
   5   0  10   23.39    3.46
  -6   0 -10    2.24    1.87
   6   0  10    1.63    2.07
  -7   0 -10    1.14    2.11
   7   0  10    2.19    2.04
  -8   0 -10    0.71    2.07
   8   0  10    0.64    2.02
  -9   0 -10    3.40    2.42
   9   0  10   -2.30    1.83
 -10   0 -10   -6.88    1.76
  10   0  10   -2.69    2.08
   7  -1 -10    9.43    3.04
   6  -1 -10   -0.25    2.27
   5  -1 -10   24.05    3.87
   4  -1 -10   51.86    5.21
   3  -1 -10   29.22    3.75
   2  -1 -10    3.82    2.24
   1  -1 -10   -0.04    1.79
   0  -1 -10   39.84    4.01
  -1  -1 -10   59.85    4.74
  -2  -1 -10   22.17    3.17
  -3  -1 -10    6.38    2.26
   3   1  10    4.16    1.93
  -4  -1 -10    2.10    1.88
   4   1  10    0.69    1.98
  -5  -1 -10   43.40    4.45
   5   1  10   46.28    4.82
  -6  -1 -10   17.76    3.03
   6   1  10   17.18    3.17
  -7  -1 -10    5.64    2.26
   7   1  10    4.64    2.10
  -8  -1 -10    2.11    2.13
   8   1  10    1.28    2.01
  -9  -1 -10    2.07    2.18
   9   1  10    1.73    2.01
 -10  -1 -10    7.12    2.73
  10   1  10   12.35    3.12
   7  -2 -10    7.92    2.97
   6  -2 -10   25.66    4.12
   5  -2 -10   13.89    3.18
   4  -2 -10    8.94    2.70
   3  -2 -10   14.41    2.93
   2  -2 -10   29.14    4.03
   1  -2 -10   17.29    2.86
   0  -2 -10   11.38    2.58
  -1  -2 -10    3.44    1.98
   1   2  10    8.54    2.22
  -2  -2 -10   10.79    2.50
   2   2  10    9.82    2.33
  -3  -2 -10    6.41    2.16
   3   2  10    9.08    2.36
  -4  -2 -10    3.64    1.95
   4   2  10    1.11    1.88
  -5  -2 -10    2.06    1.96
   5   2  10   -2.45    1.76
  -6  -2 -10   -0.36    1.82
   6   2  10    2.56    2.09
  -7  -2 -10   -2.47    1.61
   7   2  10    2.40    2.10
  -8  -2 -10    1.43    2.22
   8   2  10   -0.41    1.90
  -9  -2 -10   -0.06    2.14
   9   2  10    1.62    1.99
 -10  -2 -10    1.53    2.06
  10   2  10    0.59    2.18
   6  -3 -10   81.52    6.72
   5  -3 -10   10.95    3.18
   4  -3 -10    2.45    2.26
   3  -3 -10   15.87    3.02
   2  -3 -10   60.38    5.19
   1  -3 -10   95.14    6.31
   0  -3 -10   13.27    2.61
   0   3  10    9.43    2.31
  -1  -3 -10   -0.35    1.79
   1   3  10    0.42    1.68
  -2  -3 -10    6.40    2.26
   2   3  10   11.62    2.44
  -3  -3 -10   52.01    4.56
   3   3  10   63.83    4.87
  -4  -3 -10   42.16    4.14
   4   3  10   26.63    3.78
  -5  -3 -10    1.39    1.96
   5   3  10    3.27    2.11
  -6  -3 -10    4.55    2.22
   6   3  10   -0.54    1.98
  -7  -3 -10    1.56    2.06
   7   3  10    5.37    2.45
  -8  -3 -10   10.32    2.80
   8   3  10   20.09    3.57
  -9  -3 -10    5.77    2.52
   9   3  10    3.73    2.49
 -10  -3 -10    2.55    2.18
  10   3  10    2.97    2.65
   6  -4 -10    7.12    2.76
   5  -4 -10   13.42    3.25
   4  -4 -10   12.39    3.01
   3  -4 -10   20.09    3.49
   2  -4 -10   18.87    3.36
   1  -4 -10   17.70    3.00
   0  -4 -10   12.41    2.75
   0   4  10    8.29    2.36
  -1  -4 -10    5.92    2.30
   1   4  10    3.47    2.21
  -2  -4 -10    3.17    1.99
   2   4  10   -5.55    1.85
  -3  -4 -10   12.96    2.49
   3   4  10    4.85    2.82
  -4  -4 -10   24.41    3.24
   4   4  10   18.12    3.33
  -5  -4 -10    1.96    1.81
   5   4  10   -1.67    2.12
  -6  -4 -10    0.06    1.91
   6   4  10    1.00    2.33
  -7  -4 -10    2.55    2.10
   7   4  10    3.47    2.57
  -8  -4 -10   -0.88    2.03
   8   4  10    2.71    2.85
  -9  -4 -10    1.72    2.21
   9   4  10   -3.63    2.33
 -10  -4 -10   -0.88    2.08
  10   4  10   -0.24    3.04
   6  -5 -10   -0.43    2.35
   5  -5 -10    9.01    2.95
   4  -5 -10   48.53    5.36
   3  -5 -10   37.09    4.47
   2  -5 -10    0.23    1.98
   1  -5 -10    1.19    2.03
  -1   5  10   -0.73    1.60
   0  -5 -10   17.16    3.04
   0   5  10   19.12    2.97
  -1  -5 -10   51.71    4.48
   1   5  10   47.13    4.47
  -2  -5 -10   18.28    2.97
   2   5  10    8.59    2.64
  -3  -5 -10    0.01    1.74
   3   5  10   -2.17    2.03
  -4  -5 -10    0.04    1.85
   4   5  10    0.89    2.52
  -5  -5 -10    4.91    2.16
   5   5  10    3.90    2.70
  -6  -5 -10   11.19    2.58
   6   5  10   11.86    3.33
  -7  -5 -10    3.14    1.98
   7   5  10    0.50    2.67
  -8  -5 -10    2.31    2.08
   8   5  10    3.80    2.98
  -9  -5 -10   -1.80    1.98
   9   5  10   -0.36    2.81
   5  -6 -10   16.44    3.63
   4  -6 -10   13.18    3.13
   3  -6 -10   18.64    3.56
   2  -6 -10   19.46    3.44
   1  -6 -10    4.42    2.33
  -1   6  10    7.50    2.09
   0  -6 -10   15.75    3.03
   0   6  10   18.61    2.84
  -1  -6 -10   36.84    4.05
   1   6  10   44.74    4.37
  -2  -6 -10   18.14    3.04
   2   6  10   16.14    3.27
  -3  -6 -10    1.04    1.86
   3   6  10    2.49    2.53
  -4  -6 -10   -0.18    1.75
   4   6  10   -4.03    2.42
  -5  -6 -10   15.94    2.83
   5   6  10   23.51    3.95
  -6  -6 -10   10.61    2.69
   6   6  10   15.94    3.64
  -7  -6 -10    5.99    2.26
   7   6  10    6.84    3.25
  -8  -6 -10    1.88    2.00
   8   6  10   -1.64    2.72
  -9  -6 -10   -0.89    1.90
   9   6  10   14.89    4.25
   4  -7 -10    0.05    2.37
   3  -7 -10   -3.06    1.94
   2  -7 -10   24.47    3.79
   1  -7 -10   27.95    3.84
   0  -7 -10    5.34    2.41
   0   7  10    7.20    2.19
  -1  -7 -10    1.52    1.98
   1   7  10   -0.75    1.80
  -2  -7 -10    3.20    2.04
   2   7  10    3.92    2.53
  -3  -7 -10    9.86    2.42
   3   7  10   11.72    3.23
  -4  -7 -10    1.55    1.98
   4   7  10    7.53    3.02
  -5  -7 -10    3.95    2.04
   5   7  10    5.97    3.05
  -6  -7 -10    1.01    1.91
   6   7  10   10.90    3.73
  -7  -7 -10   -1.37    1.81
   7   7  10    3.10    2.90
  -8  -7 -10    6.33    2.81
   8   7  10    8.54    3.63
   3  -8 -10    4.86    2.52
   2  -8 -10   26.03    3.95
   1  -8 -10   20.65    3.27
   0  -8 -10    9.16    2.49
   0   8  10   -0.23    2.19
  -1  -8 -10   -1.73    1.77
   1   8  10   -2.62    2.58
  -2  -8 -10    2.97    2.16
   2   8  10    9.00    3.31
  -3  -8 -10   15.10    2.84
   3   8  10   22.54    4.24
  -4  -8 -10   12.81    2.70
   4   8  10   15.05    3.99
  -5  -8 -10   -0.56    1.99
   5   8  10    4.88    3.26
   6   8  10    3.49    3.04
   7   8  10    2.30    3.38
   2  -9 -10    3.50    2.41
   1  -9 -10    4.88    2.37
   0  -9 -10   14.91    2.95
  -1  -9 -10   15.70    2.98
   1   9  10    9.42    3.39
   1   9  10   10.67    2.73
   2   9  10   11.03    3.49
   2   9  10    8.20    2.31
   3   9  10    9.57    3.49
   3   9  10    5.09    2.10
   4   9  10    4.19    2.00
   4   9  10    6.71    3.14
   5   9  10    0.54    1.66
   5   9  10    8.56    3.53
   6   9  10    2.79    1.94
   6   9  10   15.92    4.52
   1  10  10   11.12    2.72
   2  10  10    8.96    2.61
   3  10  10    4.18    2.06
  -1   7 -11    6.73    2.62
   2   6 -11   15.86    2.91
   1   6 -11   11.47    2.79
   1   6 -11    2.00    2.42
   0   6 -11    4.54    2.38
   0   6 -11    2.25    2.30
  -1   6 -11    3.31    2.27
  -1   6 -11    2.04    2.19
  -2   6 -11    9.03    2.43
  -2   6 -11    5.53    2.68
  -3   6 -11   27.50    3.76
  -3   6 -11   22.26    3.16
  -4   6 -11    8.90    2.72
  -4   6 -11    7.88    2.29
  -5   6 -11   -0.38    2.23
   3   5 -11    6.77    2.53
   3   5 -11    3.19    2.29
   2   5 -11    5.49    2.26
   2   5 -11    2.92    2.26
   1   5 -11    0.57    2.05
   1   5 -11    3.22    2.40
   0   5 -11    6.23    2.43
   0   5 -11    1.17    1.98
  -1   5 -11    8.90    2.40
  -1   5 -11    6.13    2.51
  -2   5 -11    3.68    2.25
  -2   5 -11    2.28    1.99
  -3   5 -11   10.74    2.87
  -3   5 -11   12.22    2.47
  -4   5 -11   10.03    2.27
  -4   5 -11   10.10    2.80
  -5   5 -11    3.23    1.76
  -5   5 -11    5.84    2.60
  -6   5 -11    2.39    2.42
   4   4 -11   15.88    3.31
   4   4 -11   29.19    3.78
   3   4 -11    9.94    2.72
   3   4 -11   14.67    2.81
   2   4 -11   -1.17    1.82
   2   4 -11   -0.77    2.02
   1   4 -11    6.75    2.37
   1   4 -11    5.33    2.32
   0   4 -11   35.73    3.70
   0   4 -11   35.22    4.03
  -1   4 -11   36.04    4.17
  -1   4 -11   44.07    4.16
  -2   4 -11   14.91    3.06
  -2   4 -11   10.13    2.45
  -3   4 -11    1.06    1.80
  -3   4 -11    3.23    2.46
  -4   4 -11    9.81    2.17
  -4   4 -11    9.87    2.75
  -5   4 -11   31.18    3.25
  -5   4 -11   26.44    3.93
  -6   4 -11   12.40    2.96
  -7   4 -11    1.04    2.25
   5   3 -11    4.70    2.68
   5   3 -11    7.83    2.52
   4   3 -11    0.58    2.20
   4   3 -11    1.23    2.04
   3   3 -11    2.22    2.23
   3   3 -11    2.06    2.02
   2   3 -11    2.65    2.13
   2   3 -11   -0.88    1.72
   1   3 -11    9.91    2.36
   1   3 -11    1.87    2.23
   0   3 -11   13.47    2.98
   0   3 -11   10.78    2.22
  -1   3 -11   12.26    2.43
  -1   3 -11   19.27    3.26
  -2   3 -11   19.31    2.81
  -2   3 -11   23.05    3.64
  -3   3 -11    1.19    2.00
  -3   3 -11    1.02    1.62
  -4   3 -11    2.45    2.51
  -4   3 -11    6.08    1.89
  -5   3 -11   20.08    3.42
  -5   3 -11   21.66    2.74
  -6   3 -11   13.53    3.09
  -7   3 -11    7.48    2.67
  -8   3 -11    0.37    2.39
   5   2 -11    3.83    2.82
   4   2 -11    0.87    2.10
   3   2 -11    3.18    2.40
   2   2 -11   27.16    3.84
   1   2 -11   35.99    4.15
   0   2 -11    3.80    2.35
  -1   2 -11    1.38    2.12
  -2   2 -11   33.91    3.98
  -3   2 -11   36.05    4.14
  -4   2 -11   11.99    2.91
  -4   2 -11   12.77    2.13
  -5   2 -11    4.09    1.69
  -5   2 -11    6.89    2.66
  -6   2 -11    3.31    1.93
  -6   2 -11    4.97    2.31
  -7   2 -11   11.31    2.93
  -8   2 -11   10.21    3.01
   6   1 -11    9.45    3.17
   5   1 -11    5.29    2.87
   4   1 -11    1.59    2.27
   3   1 -11    5.89    2.49
   2   1 -11   40.13    4.50
   1   1 -11   46.86    4.84
   0   1 -11   12.64    2.79
  -1   1 -11    8.28    2.67
  -2   1 -11   31.51    4.01
  -3   1 -11   67.05    5.48
  -4   1 -11   43.41    4.60
  -5   1 -11    7.16    2.48
  -6   1 -11    5.71    2.54
  -7   1 -11   18.63    3.33
  -8   1 -11   15.53    3.31
  -9   1 -11   11.60    3.09
   6   0 -11    3.38    2.70
   5   0 -11   -1.14    2.37
   4   0 -11   22.94    4.00
   3   0 -11   13.36    3.11
   2   0 -11    6.23    2.56
   1   0 -11    3.45    2.25
   0   0 -11   26.00    3.56
  -1   0 -11   59.67    5.25
  -2   0 -11   13.23    2.75
  -3   0 -11   15.35    2.82
  -4   0 -11   11.34    2.95
  -5   0 -11   24.23    3.56
   6   0  11   22.07    3.54
  -7   0 -11    6.01    2.59
   7   0  11    7.42    2.66
  -8   0 -11    8.96    2.76
   8   0  11    8.37    2.82
  -9   0 -11    2.85    2.53
   9   0  11    4.06    2.65
   6  -1 -11    0.72    2.62
   5  -1 -11    3.61    2.67
   4  -1 -11   32.33    4.42
   3  -1 -11   17.52    3.34
   2  -1 -11    7.41    2.49
   1  -1 -11    0.36    1.96
   0  -1 -11   36.24    4.22
  -1  -1 -11  111.28    7.18
  -2  -1 -11   14.00    2.89
  -3  -1 -11    5.61    2.29
  -4  -1 -11    5.31    2.24
   4   1  11    8.22    2.61
  -5  -1 -11   31.19    4.08
   5   1  11   33.83    4.11
  -6  -1 -11   46.16    4.73
   6   1  11   43.61    4.70
  -7  -1 -11    2.73    2.20
   7   1  11    6.61    2.70
  -8  -1 -11    0.30    2.17
   8   1  11    0.89    2.09
  -9  -1 -11   -1.43    2.08
   9   1  11    0.37    2.27
   6  -2 -11    5.46    3.01
   5  -2 -11    2.58    2.47
   4  -2 -11    3.70    2.55
   3  -2 -11    7.31    2.81
   2  -2 -11   14.57    3.14
   1  -2 -11   17.28    3.28
   0  -2 -11   14.41    2.91
  -1  -2 -11   27.22    3.74
  -2  -2 -11   25.45    3.70
   2   2  11   28.72    3.59
  -3  -2 -11   29.42    3.72
   3   2  11   32.32    3.99
  -4  -2 -11   15.04    2.90
   4   2  11   24.78    3.64
  -5  -2 -11   23.75    3.51
   5   2  11   26.27    3.86
  -6  -2 -11   20.73    3.49
   6   2  11   32.65    4.20
  -7  -2 -11    9.66    2.87
   7   2  11   12.87    3.09
  -8  -2 -11    7.07    2.70
   8   2  11    9.85    2.95
  -9  -2 -11    2.33    2.42
   9   2  11    5.78    2.65
   5  -3 -11   10.07    3.38
   4  -3 -11   -1.01    2.32
   3  -3 -11   -1.47    2.19
   2  -3 -11   28.22    4.08
   1  -3 -11   36.55    4.20
   0  -3 -11    9.75    2.82
  -1  -3 -11    1.66    1.95
   1   3  11   -0.52    1.84
  -2  -3 -11   19.45    3.16
   2   3  11   19.22    3.17
  -3  -3 -11   51.25    4.99
   3   3  11   46.45    4.72
  -4  -3 -11   41.47    4.45
   4   3  11   39.46    4.30
  -5  -3 -11    4.05    2.28
   5   3  11    6.15    2.43
  -6  -3 -11   -1.08    2.01
   6   3  11   -2.05    1.93
  -7  -3 -11   10.41    2.72
   7   3  11    8.31    2.90
  -8  -3 -11   19.28    3.46
   8   3  11   20.17    3.50
  -9  -3 -11   13.05    3.08
   9   3  11    8.78    3.37
   5  -4 -11    5.15    2.95
   4  -4 -11    0.37    2.41
   3  -4 -11    6.55    2.81
   2  -4 -11   10.16    2.87
   1  -4 -11   29.56    4.03
   0  -4 -11   13.98    2.86
   0   4  11   19.24    2.99
  -1  -4 -11    7.53    2.45
   1   4  11    2.07    1.98
  -2  -4 -11   34.31    4.19
   2   4  11   38.62    4.25
  -3  -4 -11   26.57    3.71
   3   4  11   30.68    3.89
  -4  -4 -11   25.80    3.54
   4   4  11   27.70    3.83
  -5  -4 -11   16.90    3.14
   5   4  11   17.09    3.34
  -6  -4 -11    2.94    2.20
   6   4  11    3.27    2.47
  -7  -4 -11   15.10    3.01
   7   4  11   13.21    3.16
  -8  -4 -11   11.97    3.00
   8   4  11    9.31    2.87
  -9  -4 -11   10.08    2.98
   9   4  11    3.76    3.24
   4  -5 -11   12.79    3.14
   3  -5 -11   13.94    3.38
   2  -5 -11    5.46    2.48
   1  -5 -11    1.94    2.08
   0  -5 -11   19.82    3.22
   0   5  11   17.51    2.93
  -1  -5 -11   46.52    4.77
   1   5  11   45.53    4.55
  -2  -5 -11   23.14    3.71
   2   5  11   37.06    4.13
  -3  -5 -11    1.83    2.04
   3   5  11    4.22    2.30
  -4  -5 -11    5.00    2.32
   4   5  11    4.55    2.55
  -5  -5 -11   22.24    3.46
   5   5  11   25.65    3.87
  -6  -5 -11   27.58    3.68
   6   5  11   30.44    4.62
  -7  -5 -11   11.38    2.90
   7   5  11    9.73    3.45
  -8  -5 -11    2.37    2.17
   8   5  11    2.20    2.91
   4  -6 -11    5.98    2.88
   3  -6 -11   12.47    3.26
   2  -6 -11    0.77    2.33
   1  -6 -11    0.91    2.02
  -1   6  11   -1.80    1.65
   0  -6 -11    9.71    2.70
   0   6  11   10.83    2.65
  -1  -6 -11   40.12    4.61
   1   6  11   44.14    4.49
  -2  -6 -11   12.16    2.90
   2   6  11   11.91    2.94
  -3  -6 -11    9.54    2.63
   3   6  11    5.38    2.55
  -4  -6 -11    3.33    2.27
   4   6  11    3.57    2.76
  -5  -6 -11   14.54    2.84
   5   6  11   17.03    3.87
  -6  -6 -11   25.77    3.67
   6   6  11   26.29    4.61
  -7  -6 -11    6.60    2.55
   7   6  11    6.64    3.39
  -8  -6 -11    2.46    2.23
   8   6  11    6.43    3.82
   3  -7 -11    1.25    2.34
   2  -7 -11   12.33    3.15
   1  -7 -11   18.64    3.43
   0  -7 -11    9.42    2.71
   0   7  11    8.33    2.53
  -1  -7 -11    7.56    2.48
   1   7  11    3.41    2.38
  -2  -7 -11   -1.33    1.95
   2   7  11   -4.52    2.03
  -3  -7 -11   30.94    3.82
   3   7  11   17.55    3.98
  -4  -7 -11   18.30    3.25
   4   7  11   23.78    4.31
  -5  -7 -11    6.09    2.31
   5   7  11    9.69    3.62
  -6  -7 -11    3.63    2.30
   6   7  11   10.06    3.64
   7   7  11   19.13    4.86
   1  -8 -11   18.42    3.38
   0  -8 -11   11.14    2.86
  -1  -8 -11    4.13    2.31
   1   8  11   -0.19    2.15
  -2  -8 -11    3.88    2.25
   2   8  11   -6.56    2.21
  -3  -8 -11   21.84    3.39
   3   8  11   22.43    4.20
  -4  -8 -11   24.90    3.60
   4   8  11   30.94    4.90
  -5  -8 -11    4.97    2.70
   5   8  11    9.27    3.78
  -1  -9 -11    3.41    2.50
   2   9  11   -4.68    4.03
   3   9  11    7.71    4.51
   1   5 -12    4.68    2.67
   1   5 -12    0.57    2.22
   0   5 -12    1.06    2.20
   0   5 -12   -0.13    2.13
  -1   5 -12    1.69    1.96
  -1   5 -12   -3.52    1.95
  -2   5 -12   -1.08    2.01
  -2   5 -12    4.36    2.37
  -3   5 -12    5.54    2.28
  -3   5 -12    8.23    2.78
  -4   5 -12    7.65    2.71
  -4   5 -12    5.51    2.25
   2   4 -12    5.72    2.64
   2   4 -12    0.42    2.05
   1   4 -12    8.22    2.49
   1   4 -12    4.46    2.58
   0   4 -12   -2.11    2.14
   0   4 -12    3.28    2.06
  -1   4 -12    6.61    2.42
  -1   4 -12    4.41    2.52
  -2   4 -12    0.96    1.91
  -2   4 -12   -2.74    1.86
  -3   4 -12    1.13    2.38
  -3   4 -12    3.76    2.08
  -4   4 -12    0.68    1.79
  -4   4 -12    1.04    2.21
  -5   4 -12    6.67    2.11
  -5   4 -12    4.88    2.64
  -6   4 -12    3.57    2.47
   3   3 -12    1.53    2.08
   3   3 -12    2.04    2.48
   2   3 -12   -1.14    1.80
   2   3 -12    2.29    2.34
   1   3 -12    3.58    2.58
   1   3 -12    1.95    2.03
   0   3 -12    5.29    2.70
   0   3 -12    2.85    1.93
  -1   3 -12    6.73    2.73
  -1   3 -12    8.01    2.39
  -2   3 -12    2.48    1.96
  -2   3 -12    0.53    2.45
  -3   3 -12    0.22    2.19
  -3   3 -12    1.40    1.83
  -4   3 -12    0.96    1.71
  -4   3 -12    2.73    2.54
  -5   3 -12    8.21    2.90
  -5   3 -12   10.35    2.26
  -6   3 -12    6.34    2.87
   4   2 -12    4.12    2.80
   3   2 -12    1.84    2.48
   2   2 -12    1.99    2.32
   1   2 -12   -0.26    2.15
   0   2 -12    3.44    2.32
  -1   2 -12    0.52    2.30
  -2   2 -12   -2.57    2.04
  -3   2 -12    7.83    2.79
  -4   2 -12    4.04    2.70
  -4   2 -12    8.26    2.04
  -5   2 -12    1.43    1.61
  -5   2 -12    1.38    2.52
  -6   2 -12    1.22    2.35
  -7   2 -12    9.04    2.96
   4   1 -12    2.37    2.60
   3   1 -12    1.07    2.33
   2   1 -12    4.32    2.65
   1   1 -12    5.37    2.39
   0   1 -12    0.13    2.06
  -1   1 -12   10.29    2.83
  -2   1 -12   -0.93    2.04
  -3   1 -12   15.67    3.30
  -4   1 -12    8.10    2.81
  -5   1 -12    1.86    2.36
  -6   1 -12    1.67    2.33
  -7   1 -12    2.88    2.51
  -8   1 -12   11.71    3.15
   4   0 -12    2.17    2.80
   3   0 -12    0.29    2.20
   2   0 -12    6.22    2.80
   1   0 -12    0.47    2.26
   0   0 -12    0.09    2.20
  -1   0 -12    5.93    2.42
  -2   0 -12   -0.29    1.94
  -3   0 -12    0.21    2.15
  -4   0 -12    1.71    2.22
  -5   0 -12    7.04    2.58
  -6   0 -12   11.55    3.17
  -7   0 -12    5.37    2.64
  -8   0 -12    2.13    2.50
   8   0  12    8.11    3.00
   4  -1 -12    5.18    2.77
   3  -1 -12    5.22    2.74
   2  -1 -12    5.49    2.86
   1  -1 -12    0.28    2.34
   0  -1 -12   -1.14    1.92
  -1  -1 -12   12.43    2.85
  -2  -1 -12    7.44    2.58
  -3  -1 -12    0.68    2.15
  -4  -1 -12   -0.61    1.98
  -5  -1 -12    9.80    2.75
   5   1  12   16.60    3.33
  -6  -1 -12   22.34    3.93
   6   1  12   38.92    4.77
  -7  -1 -12    3.16    2.30
   7   1  12    0.89    2.25
  -8  -1 -12   -2.89    1.99
   8   1  12   -0.14    2.53
   4  -2 -12    3.60    2.85
   3  -2 -12    0.39    2.61
   2  -2 -12   -2.45    2.12
   1  -2 -12    2.98    2.34
   0  -2 -12    0.04    2.11
  -1  -2 -12    4.89    2.33
  -2  -2 -12    1.06    2.10
  -3  -2 -12    5.64    2.49
   3   2  12    1.78    2.20
  -4  -2 -12    0.66    2.06
   4   2  12   -0.76    1.99
  -5  -2 -12    0.67    2.06
   5   2  12    5.17    2.68
  -6  -2 -12    4.58    2.40
   6   2  12    4.99    2.76
  -7  -2 -12   -0.30    2.23
   7   2  12    3.61    2.59
  -8  -2 -12    5.82    2.68
   8   2  12   -1.17    2.68
   4  -3 -12    8.08    3.36
   3  -3 -12    2.77    2.88
   2  -3 -12    4.79    2.74
   1  -3 -12    3.40    2.53
   0  -3 -12   -0.92    2.11
  -1  -3 -12    5.36    2.51
  -2  -3 -12    4.92    2.43
   2   3  12    2.04    2.29
  -3  -3 -12   17.00    3.34
   3   3  12   17.42    3.31
  -4  -3 -12   14.82    3.13
   4   3  12   15.75    3.28
  -5  -3 -12    3.43    2.24
   5   3  12    1.90    2.44
  -6  -3 -12   -0.94    2.06
   6   3  12   -0.16    2.41
  -7  -3 -12    2.43    2.40
   7   3  12    4.52    2.66
  -8  -3 -12   14.61    3.20
   8   3  12   16.25    3.86
   3  -4 -12   -1.87    2.29
   2  -4 -12    4.68    2.60
   1  -4 -12    1.39    2.13
   0  -4 -12    3.09    2.48
  -1  -4 -12    2.70    2.18
   1   4  12   -0.69    1.92
  -2  -4 -12    1.14    2.12
   2   4  12   -2.17    1.79
  -3  -4 -12    6.34    2.51
   3   4  12   10.67    2.84
  -4  -4 -12    3.20    2.31
   4   4  12    6.75    2.68
  -5  -4 -12   -0.06    1.97
   5   4  12    0.10    2.41
  -6  -4 -12    0.58    2.00
   6   4  12   -1.59    2.11
  -7  -4 -12    5.73    2.67
   7   4  12    5.97    2.73
  -8  -4 -12   10.89    3.09
   3  -5 -12    1.44    2.65
   2  -5 -12    0.03    2.34
   1  -5 -12    1.19    2.35
   0  -5 -12    0.23    2.09
   0   5  12   -1.37    1.86
  -1  -5 -12    8.32    2.66
   1   5  12   10.99    2.79
  -2  -5 -12   -0.09    2.08
   2   5  12    0.59    2.21
  -3  -5 -12    1.82    2.17
   3   5  12   -4.19    2.04
  -4  -5 -12   -3.37    1.70
   4   5  12   -2.52    2.11
  -5  -5 -12    8.01    2.59
   5   5  12    2.87    2.70
  -6  -5 -12    5.57    2.65
   6   5  12   10.57    3.27
  -7  -5 -12   -0.46    2.12
   7   5  12   -7.41    2.71
   2  -6 -12    3.28    2.66
   1  -6 -12    1.00    2.28
   0  -6 -12   -1.97    1.99
   0   6  12   -0.71    1.88
  -1  -6 -12    1.33    2.07
   1   6  12   -0.62    1.93
  -2  -6 -12    6.83    2.62
   2   6  12    6.90    2.65
  -3  -6 -12    5.04    2.26
   3   6  12   -1.19    2.08
  -4  -6 -12    1.91    2.20
   4   6  12    0.33    2.26
  -5  -6 -12    2.58    2.25
   5   6  12    3.09    2.77
  -6  -6 -12    6.75    2.56
   6   6  12    1.28    3.32
   1  -7 -12    4.21    2.46
   0  -7 -12   -0.09    2.30
  -1  -7 -12    1.71    2.14
   1   7  12   -3.57    1.82
  -2  -7 -12    0.12    2.13
   2   7  12    0.65    2.25
  -3  -7 -12    1.85    2.29
   3   7  12   -1.69    2.24
  -4  -7 -12    5.18    2.31
   4   7  12   -2.30    2.65
  -5  -7 -12    1.03    2.14
   5   7  12   -9.69    3.35
   0   3 -13    2.71    2.73
   0   3 -13   -2.85    1.80
  -1   3 -13    3.75    2.26
  -1   3 -13    2.63    2.51
  -2   3 -13    0.79    1.99
  -2   3 -13    0.66    2.41
  -3   3 -13    0.14    1.95
  -3   3 -13   -2.13    2.19
  -4   3 -13    5.91    2.85
   1   2 -13    4.91    2.97
   0   2 -13   -0.01    2.20
  -1   2 -13   -0.50    2.43
  -2   2 -13   -0.05    2.40
  -3   2 -13    3.79    2.71
  -4   2 -13    0.06    1.75
  -4   2 -13    0.54    2.28
  -5   2 -13   -3.35    1.60
  -5   2 -13    0.35    2.51
   2   1 -13   10.00    3.12
   1   1 -13    6.78    2.98
   0   1 -13    0.74    2.53
  -1   1 -13    7.70    2.92
  -2   1 -13    2.16    2.54
  -3   1 -13    5.30    2.56
  -4   1 -13    2.92    2.51
  -5   1 -13    1.80    2.39
  -6   1 -13    0.47    2.56
   2   0 -13    3.85    2.64
   1   0 -13    1.91    2.44
   0   0 -13    4.65    2.82
  -1   0 -13    5.05    2.56
  -2   0 -13    0.24    2.18
  -3   0 -13   -1.04    2.02
  -4   0 -13   -2.42    2.03
  -5   0 -13   -2.76    2.10
  -6   0 -13   -2.75    2.03
   2  -1 -13    3.57    2.68
   1  -1 -13    2.11    2.54
   0  -1 -13    3.27    2.40
  -1  -1 -13   17.16    3.61
  -2  -1 -13    1.18    2.36
  -3  -1 -13    3.41    2.60
  -4  -1 -13    3.96    2.50
  -5  -1 -13    0.13    2.08
  -6  -1 -13    2.93    2.49
   2  -2 -13    0.01    2.66
   1  -2 -13    0.48    2.25
   0  -2 -13    1.15    2.28
  -1  -2 -13    2.28    2.46
  -2  -2 -13    1.12    2.11
  -3  -2 -13    1.59    2.29
  -4  -2 -13   -0.39    2.28
  -5  -2 -13    0.18    2.22
   5   2  13    0.63    2.29
  -6  -2 -13   -0.20    2.44
   6   2  13    0.62    2.48
   2  -3 -13    4.91    2.96
   1  -3 -13   35.11    4.81
   0  -3 -13    0.54    2.32
  -1  -3 -13    5.88    2.81
  -2  -3 -13   -1.56    2.13
  -3  -3 -13    4.05    2.63
   3   3  13   14.51    3.27
  -4  -3 -13    8.97    2.92
   4   3  13    6.64    2.75
  -5  -3 -13    1.27    2.30
   5   3  13   -0.04    2.41
  -6  -3 -13    1.77    2.31
   6   3  13   -5.38    2.24
   1  -4 -13    5.69    2.94
   0  -4 -13    0.05    2.32
  -1  -4 -13   -1.54    2.04
  -2  -4 -13    1.74    2.34
   2   4  13   -3.09    1.88
  -3  -4 -13    2.67    2.30
   3   4  13    1.74    2.45
  -4  -4 -13    0.76    2.12
   4   4  13    1.56    2.38
  -5  -4 -13    6.40    2.65
   5   4  13    3.13    2.77
  -6  -4 -13   -3.52    2.02
   6   4  13   -4.72    2.30
   0  -5 -13    3.64    2.63
  -1  -5 -13   10.38    3.00
   1   5  13   11.52    2.90
  -2  -5 -13    2.23    2.47
   2   5  13   -1.22    2.08
  -3  -5 -13    0.05    2.21
   3   5  13    0.24    2.30
  -4  -5 -13    0.73    2.20
   4   5  13   -0.08    2.56
  -5  -5 -13   -0.90    2.19
   5   5  13   -4.83    2.48
  -1  -6 -13    8.15    2.71
   1   6  13    1.76    2.52
  -2  -6 -13    6.54    2.76
   2   6  13   -2.73    2.47
  -3  -6 -13    0.02    2.27
   3   6  13   -3.24    2.47
  -1  -1 -14   22.72    4.09
  -2  -1 -14    8.16    3.30
  -3  -1 -14    0.78    2.56
  -2  -2 -14    7.77    2.93
  -3  -2 -14    6.66    2.66
   0   0   0    0.00    0.00
;
_shelx_hkl_checksum              25031
loop_
_space_group_symop_operation_xyz
'x, y, z'
'-x, -y, -z'
loop_
_atom_site_label
_atom_site_type_symbol
_atom_site_fract_x
_atom_site_fract_y
_atom_site_fract_z
_atom_site_U_iso_or_equiv
_atom_site_adp_type
_atom_site_occupancy
_atom_site_site_symmetry_order
_atom_site_calc_flag
_atom_site_refinement_flags_posn
_atom_site_refinement_flags_adp
_atom_site_refinement_flags_occupancy
Bi01 Bi 0.0000 0.5000 1.0000 0.0319(2) Uani 1 2 d S . P
I002 I 0.02862(9) 0.49708(8) 0.71686(8) 0.0430(3) Uani 1 1 d . . .
I003 I 0.21742(9) 0.27187(9) 0.99841(9) 0.0487(3) Uani 1 1 d . . .
I004 I 0.20541(10) 0.70942(10) 0.96746(9) 0.0529(3) Uani 1 1 d . . .
S005 S 0.5733(4) 0.6703(4) 0.2987(3) 0.0477(9) Uani 1 1 d . . .
S006 S 0.9784(4) 0.8363(3) 0.3983(4) 0.0460(9) Uani 1 1 d . . .
S007 S 0.6885(4) 0.6500(4) 0.5555(4) 0.0485(9) Uani 1 1 d . . .
S008 S 0.4128(4) 0.6536(3) 0.6875(3) 0.0455(9) Uani 1 1 d . . .
S009 S 0.2988(4) 0.6688(4) 0.4330(4) 0.0471(9) Uani 1 1 d . . .
S00A S 1.0102(4) 1.1087(4) 0.3209(4) 0.0586(11) Uani 1 1 d . . .
S00B S 0.6521(5) -0.0008(4) 0.3352(5) 0.0780(15) Uani 1 1 d . . .
S00C S 0.3563(5) 0.0125(4) 0.3704(6) 0.0798(15) Uani 1 1 d . . .
C00D C 0.9862(14) 0.8838(14) 0.2472(14) 0.053(4) Uani 1 1 d . . .
H00D H 0.9812 0.8242 0.1918 0.063 Uiso 1 1 calc R U .
C00E C 0.6655(15) 0.6485(13) 0.7101(14) 0.052(4) Uani 1 1 d . . .
H00E H 0.7381 0.6476 0.7505 0.062 Uiso 1 1 calc R U .
C5 C 0.3172(15) 0.6845(14) 0.2766(14) 0.053(4) Uani 1 1 d . . .
H5 H 0.2441 0.6950 0.2362 0.063 Uiso 1 1 calc R U .
C4 C 0.4429(13) 0.6810(14) 0.2146(13) 0.052(4) Uani 1 1 d . . .
H4 H 0.4592 0.6842 0.1299 0.062 Uiso 1 1 calc R U .
C3 C 0.4667(13) 0.6638(12) 0.4393(13) 0.042(3) Uani 1 1 d . . .
C2 C 0.5185(12) 0.6556(11) 0.5480(12) 0.036(3) Uani 1 1 d . . .
C1 C 0.5411(15) 0.6486(13) 0.7738(14) 0.051(4) Uani 1 1 d . . .
H1 H 0.5247 0.6461 0.8584 0.061 Uiso 1 1 calc R U .
C7 C 0.443(2) 0.0201(16) 0.2174(18) 0.073(5) Uani 1 1 d . . .
H7 H 0.3993 0.0280 0.1503 0.088 Uiso 1 1 calc R U .
C6 C 0.578(2) 0.0134(17) 0.205(2) 0.090(6) Uani 1 1 d . . .
H6 H 0.6293 0.0164 0.1286 0.108 Uiso 1 1 calc R U .
C8 C 0.9960(13) 0.9888(12) 0.4401(12) 0.042(3) Uani 1 1 d . . .
C9 C 0.9996(15) 1.0066(16) 0.2098(16) 0.061(4) Uani 1 1 d . . .
H9 H 1.0032 1.0369 0.1282 0.073 Uiso 1 1 calc R U .
C10 C 0.5011(16) 0.0042(15) 0.4399(16) 0.068(6) Uani 1 1 d . . .
loop_
_atom_site_aniso_label
_atom_site_aniso_U_11
_atom_site_aniso_U_22
_atom_site_aniso_U_33
_atom_site_aniso_U_23
_atom_site_aniso_U_13
_atom_site_aniso_U_12
Bi01 0.0282(4) 0.0408(4) 0.0266(4) -0.0067(3) -0.0020(3) -0.0018(3)
I002 0.0449(5) 0.0518(5) 0.0311(5) -0.0065(4) -0.0007(4) -0.0025(4)
I003 0.0419(6) 0.0617(6) 0.0407(6) -0.0082(4) -0.0055(4) 0.0107(4)
I004 0.0453(6) 0.0711(7) 0.0423(6) -0.0074(5) 0.0014(4) -0.0196(5)
S005 0.045(2) 0.054(2) 0.042(2) -0.0033(16) 0.0024(16) -0.0087(17)
S006 0.045(2) 0.0407(19) 0.052(2) -0.0094(16) -0.0061(17) 0.0005(16)
S007 0.037(2) 0.057(2) 0.053(2) -0.0135(17) -0.0019(17) -0.0084(17)
S008 0.041(2) 0.055(2) 0.039(2) -0.0120(16) -0.0005(16) 0.0033(16)
S009 0.037(2) 0.056(2) 0.047(2) -0.0031(17) -0.0049(16) 0.0015(16)
S00A 0.073(3) 0.046(2) 0.055(3) 0.0068(18) -0.009(2) -0.012(2)
S00B 0.051(3) 0.058(3) 0.114(4) -0.005(3) 0.014(3) -0.001(2)
S00C 0.049(3) 0.063(3) 0.127(5) 0.000(3) -0.018(3) 0.000(2)
C00D 0.048(9) 0.052(9) 0.056(10) -0.004(7) -0.007(7) 0.007(7)
C00E 0.044(9) 0.056(9) 0.062(11) -0.025(7) -0.017(8) 0.004(7)
C5 0.041(9) 0.066(10) 0.050(10) -0.004(7) -0.010(7) 0.010(7)
C4 0.033(8) 0.081(11) 0.039(9) -0.002(7) 0.000(6) -0.003(7)
C3 0.042(8) 0.031(7) 0.044(9) 0.007(6) 0.007(6) 0.000(6)
C2 0.035(7) 0.035(7) 0.038(8) -0.009(6) -0.001(6) -0.011(6)
C1 0.053(10) 0.053(9) 0.049(10) -0.013(7) -0.012(8) 0.003(7)
C7 0.077(14) 0.070(12) 0.073(14) -0.010(9) -0.007(10) -0.003(10)
C6 0.096(17) 0.068(12) 0.093(17) 0.003(11) 0.013(13) -0.001(11)
C8 0.033(7) 0.032(7) 0.052(9) 0.010(6) 0.013(7) -0.015(6)
C9 0.050(10) 0.074(12) 0.056(11) 0.001(8) -0.004(8) 0.005(8)
C10 0.033(8) 0.042(8) 0.123(17) -0.012(11) 0.008(11) 0.003(7)
loop_
_atom_type_symbol
_atom_type_description
_atom_type_scat_dispersion_real
_atom_type_scat_dispersion_imag
_atom_type_scat_source
C C 0.0033 0.0016 'International Tables Vol C Tables 4.2.6.8 and 6.1.1.4'
S S 0.1246 0.1234 'International Tables Vol C Tables 4.2.6.8 and 6.1.1.4'
I I -0.4742 1.8119 'International Tables Vol C Tables 4.2.6.8 and 6.1.1.4'
Bi Bi -4.1077 10.2566 'International Tables Vol C Tables 4.2.6.8 and 6.1.1.4'
H H 0.0000 0.0000 'International Tables Vol C Tables 4.2.6.8 and 6.1.1.4'
loop_
_geom_angle_atom_site_label_1
_geom_angle_atom_site_label_2
_geom_angle_atom_site_label_3
_geom_angle
_geom_angle_site_symmetry_1
_geom_angle_site_symmetry_3
I004 Bi01 I004 180.0 2_567 .
I004 Bi01 I002 90.41(3) 2_567 2_567
I004 Bi01 I002 89.59(3) . 2_567
I004 Bi01 I002 89.59(3) 2_567 .
I004 Bi01 I002 90.41(3) . .
I002 Bi01 I002 180.0 2_567 .
I004 Bi01 I003 93.58(6) 2_567 2_567
I004 Bi01 I003 86.42(6) . 2_567
I002 Bi01 I003 88.20(3) 2_567 2_567
I002 Bi01 I003 91.80(3) . 2_567
I004 Bi01 I003 86.42(6) 2_567 .
I004 Bi01 I003 93.58(6) . .
I002 Bi01 I003 91.80(3) 2_567 .
I002 Bi01 I003 88.20(3) . .
I003 Bi01 I003 180.0 2_567 .
C4 S005 C3 93.4(7) . .
C00D S006 C8 94.9(7) . .
C00E S007 C2 94.2(7) . .
C2 S008 C1 94.5(7) . .
C5 S009 C3 95.3(7) . .
C8 S00A C9 94.9(7) . .
C6 S00B C10 95.5(10) . .
C10 S00C C7 95.3(9) . .
C9 C00D S006 118.9(13) . .
C9 C00D H00D 120.5 . .
S006 C00D H00D 120.5 . .
C1 C00E S007 119.6(12) . .
C1 C00E H00E 120.2 . .
S007 C00E H00E 120.2 . .
C4 C5 S009 117.0(12) . .
C4 C5 H5 121.5 . .
S009 C5 H5 121.5 . .
C5 C4 S005 117.9(12) . .
C5 C4 H4 121.0 . .
S005 C4 H4 121.0 . .
C2 C3 S009 123.6(10) . .
C2 C3 S005 120.2(10) . .
S009 C3 S005 116.2(8) . .
C3 C2 S008 120.3(10) . .
C3 C2 S007 123.9(10) . .
S008 C2 S007 115.7(8) . .
C00E C1 S008 116.0(12) . .
C00E C1 H1 122.0 . .
S008 C1 H1 122.0 . .
C6 C7 S00C 115.6(16) . .
C6 C7 H7 122.2 . .
S00C C7 H7 122.2 . .
C7 C6 S00B 119.4(17) . .
C7 C6 H6 120.3 . .
S00B C6 H6 120.3 . .
C8 C8 S00A 122.9(12) 2_776 .
C8 C8 S006 122.3(12) 2_776 .
S00A C8 S006 114.7(8) . .
C00D C9 S00A 116.5(13) . .
C00D C9 H9 121.7 . .
S00A C9 H9 121.7 . .
C10 C10 S00B 122.1(18) 2_656 .
C10 C10 S00C 123.8(17) 2_656 .
S00B C10 S00C 114.1(10) . .
loop_
_geom_bond_atom_site_label_1
_geom_bond_atom_site_label_2
_geom_bond_distance
_geom_bond_site_symmetry_2
Bi01 I004 3.0995(18) 2_567
Bi01 I004 3.0995(18) .
Bi01 I002 3.129(3) 2_567
Bi01 I002 3.129(3) .
Bi01 I003 3.1426(19) 2_567
Bi01 I003 3.1427(18) .
S005 C4 1.746(15) .
S005 C3 1.755(14) .
S006 C00D 1.701(16) .
S006 C8 1.735(13) .
S007 C00E 1.702(16) .
S007 C2 1.753(13) .
S008 C2 1.743(13) .
S008 C1 1.748(15) .
S009 C5 1.718(16) .
S009 C3 1.729(14) .
S00A C8 1.731(12) .
S00A C9 1.736(17) .
S00B C6 1.73(2) .
S00B C10 1.778(17) .
S00C C10 1.777(18) .
S00C C7 1.79(2) .
C00D C9 1.32(2) .
C00D H00D 0.9300 .
C00E C1 1.35(2) .
C00E H00E 0.9300 .
C5 C4 1.357(19) .
C5 H5 0.9300 .
C4 H4 0.9300 .
C3 C2 1.396(19) .
C1 H1 0.9300 .
C7 C6 1.36(3) .
C7 H7 0.9300 .
C6 H6 0.9300 .
C8 C8 1.40(3) 2_776
C9 H9 0.9300 .
C10 C10 1.33(4) 2_656
