#------------------------------------------------------------------------------
#$Date: 2016-02-04 03:18:57 +0200 (Thu, 04 Feb 2016) $
#$Revision: 175662 $
#$URL: svn://www.crystallography.net/cod/cif/4/34/48/4344833.cif $
#------------------------------------------------------------------------------
#
# This file is available in the Crystallography Open Database (COD),
# http://www.crystallography.net/
#
# All data on this site have been placed in the public domain by the
# contributors.
#
data_4344833
loop_
_publ_author_name
'Owarzany, Rafa\/l'
'Fijalkowski, Karol J.'
'Jaro\'n, Tomasz'
'Leszczy\'nski, Piotr J'
'Dobrzycki, \/Lukasz'
'Cyra\'nski, Micha\/l K'
'Grochala, Wojciech'
_publ_section_title
;
 Complete Series of Alkali-Metal M(BH3NH2BH2NH2BH3) Hydrogen-Storage Salts
 Accessed via Metathesis in Organic Solvents.
;
_journal_issue                   1
_journal_name_full               'Inorganic chemistry'
_journal_page_first              37
_journal_paper_doi               10.1021/acs.inorgchem.5b01688
_journal_volume                  55
_journal_year                    2015
_chemical_formula_moiety         'B3 H12 N2, K'
_chemical_formula_sum            'B3 H12 K N2'
_chemical_formula_weight         111.65
_chemical_name_systematic        ' ?'
_space_group_IT_number           63
_symmetry_cell_setting           orthorhombic
_symmetry_Int_Tables_number      63
_symmetry_space_group_name_Hall  '-C 2c 2'
_symmetry_space_group_name_H-M   'C m c m'
_cell_angle_alpha                90
_cell_angle_beta                 90
_cell_angle_gamma                90
_cell_formula_units_Z            4
_cell_length_a                   4.7091(19)
_cell_length_b                   7.599(2)
_cell_length_c                   18.744(6)
_cell_measurement_temperature    298
_cell_volume                     670.7(4)
_diffrn_ambient_temperature      298
_diffrn_detector                 one-dimensional
_diffrn_detector_type            LYNXEYE
_diffrn_measurement_device_type  'Bruker D8 Discover'
_diffrn_radiation_monochromator  none
_diffrn_radiation_probe          x-ray
_diffrn_radiation_type           'Cu K\a'
_diffrn_radiation_wavelength     1.5418
_exptl_absorpt_coefficient_mu    5.891
_exptl_crystal_density_diffrn    1.1055
_exptl_crystal_F_000             240
_pd_char_colour                  white
_pd_instr_location               ' ?'
_pd_meas_2theta_range_inc        0.013
_pd_meas_2theta_range_max        119.995
_pd_meas_2theta_range_min        8.003
_pd_meas_number_of_points        8422
_pd_meas_scan_method             cont
_pd_prep_temperature             298
_pd_proc_2theta_range_inc        0.013
_pd_proc_2theta_range_max        119.995
_pd_proc_2theta_range_min        8.003
_pd_proc_ls_background_function  '36 Legendre polynoms'
_pd_proc_ls_pref_orient_corr     none
_pd_proc_ls_profile_function     Pseudo-Voigt
_pd_proc_ls_prof_R_factor        0.0122
_pd_proc_ls_prof_wR_expected     0.0079
_pd_proc_ls_prof_wR_factor       0.0183
_pd_spec_mounting                'quartz capillary'
_pd_spec_mount_mode              transmission
_pd_spec_shape                   cylinder
_pd_spec_size_axial              18
_pd_spec_size_equat              0.5
_refine_ls_goodness_of_fit_all   2.32
_refine_ls_hydrogen_treatment    refall
_refine_ls_number_constraints    1
_refine_ls_number_parameters     79
_refine_ls_number_restraints     10
_refine_ls_R_factor_all          0.0404
_refine_ls_R_factor_gt           0.0396
_refine_ls_shift/su_max          0.0107
_refine_ls_shift/su_mean         0.0022
_refine_ls_weighting_scheme      sigma
_refine_ls_wR_factor_all         0.0463
_refine_ls_wR_factor_gt          0.0462
_cod_data_source_file            ic5b01688_si_002.cif
_cod_data_source_block           I
_cod_original_formula_sum        'B3 H12 K1 N2'
_cod_database_code               4344833
loop_
_space_group_symop_id
_space_group_symop_operation_xyz
1 x,y,z
2 -x,-y,z+1/2
3 -x,y,-z+1/2
4 x,-y,-z
5 -x,-y,-z
6 x,y,-z+1/2
7 x,-y,z+1/2
8 -x,y,z
9 x+1/2,y+1/2,z
10 -x+1/2,-y+1/2,z+1/2
11 -x+1/2,y+1/2,-z+1/2
12 x+1/2,-y+1/2,-z
13 -x+1/2,-y+1/2,-z
14 x+1/2,y+1/2,-z+1/2
15 x+1/2,-y+1/2,z+1/2
16 -x+1/2,y+1/2,z
loop_
_atom_site_label
_atom_site_type_symbol
_atom_site_fract_x
_atom_site_fract_y
_atom_site_fract_z
_atom_site_adp_type
_atom_site_U_iso_or_equiv
_atom_site_site_symmetry_multiplicity
_atom_site_occupancy
_atom_site_calc_flag
K1 K 0.5 0 0 Uani 0.037(2) 4 1 d
B1 B 0 0.1968(18) 0.3924(6) Uiso 0.061(7) 8 1 d
N1 N 0 0.0908(9) 0.3182(3) Uiso 0.040(4) 8 1 d
B2 B 0 0.207(3) 0.25 Uiso 0.104(11) 4 1 d
H1 H 0 0.336(3) 0.3819(10) Uiso 0.0921 8 1 d
H2 H 0.190(3) 0.162(2) 0.4230(7) Uiso 0.0921 16 1 d
H3 H 0.153(3) 0.0238(17) 0.3182(3) Uiso 0.0486 16 1 d
H4 H 0.194(3) 0.292(3) 0.25 Uiso 0.125 8 1 d
loop_
_atom_site_aniso_label
_atom_site_aniso_type_symbol
_atom_site_aniso_U_11
_atom_site_aniso_U_22
_atom_site_aniso_U_33
_atom_site_aniso_U_12
_atom_site_aniso_U_13
_atom_site_aniso_U_23
K1 K 0.049(5) 0.045(4) 0.017(3) 0 0 0.008(5)
loop_
_atom_type_symbol
_atom_type_scat_dispersion_real
_atom_type_scat_dispersion_imag
_atom_type_scat_source
_atom_type_scat_Cromer_Mann_a1
_atom_type_scat_Cromer_Mann_b1
_atom_type_scat_Cromer_Mann_a2
_atom_type_scat_Cromer_Mann_b2
_atom_type_scat_Cromer_Mann_a3
_atom_type_scat_Cromer_Mann_b3
_atom_type_scat_Cromer_Mann_a4
_atom_type_scat_Cromer_Mann_b4
_atom_type_scat_Cromer_Mann_c
B 0.0090 0.0039 'International Tables Vol C tables 4.2.6.8 and 6.1.1.4' 2.0545
23.2185 1.3326 1.021 1.0979 60.3498 0.7068 0.1403 -0.1932
H 0.0000 0.0000 'International Tables Vol C tables 4.2.6.8 and 6.1.1.4'
0.493002 10.5109 0.322912 26.1257 0.140191 3.14236 0.04081 57.799702 0.003038
K 0.3868 1.0657 'International Tables Vol C tables 4.2.6.8 and 6.1.1.4' 8.2186
12.7949 7.4398 0.7748 1.0519 213.186996 0.8659 41.684101 1.4228
N 0.0311 0.0180 'International Tables Vol C tables 4.2.6.8 and 6.1.1.4' 12.2126
0.0057 3.1322 9.8933 2.0125 28.997499 1.1663 0.5826 -11.529
loop_
_geom_angle_atom_site_label_1
_geom_angle_atom_site_label_2
_geom_angle_atom_site_label_3
_geom_angle_site_symmetry_1
_geom_angle_site_symmetry_3
_geom_angle
B1 K1 B1 10_554 11_545 180.0(5)
B1 K1 H1 10_554 10_554 19.5(6)
B1 K1 H1 10_554 11_545 160.5(6)
B1 K1 H2 10_554 2_654 89.5(4)
B1 K1 H2 10_554 3_655 90.5(4)
B1 K1 H2 10_554 6_555 90.5(4)
B1 K1 H2 10_554 7_554 89.5(4)
B1 K1 H1 11_545 10_554 160.5(6)
B1 K1 H1 11_545 11_545 19.5(6)
B1 K1 H2 11_545 2_654 90.5(4)
B1 K1 H2 11_545 3_655 89.5(4)
B1 K1 H2 11_545 6_555 89.5(4)
B1 K1 H2 11_545 7_554 90.5(4)
H1 K1 H1 10_554 11_545 180.0(5)
H1 K1 H2 10_554 2_654 74.2(5)
H1 K1 H2 10_554 3_655 105.8(5)
H1 K1 H2 10_554 6_555 105.8(5)
H1 K1 H2 10_554 7_554 74.2(5)
H1 K1 H2 11_545 2_654 105.8(5)
H1 K1 H2 11_545 3_655 74.2(5)
H1 K1 H2 11_545 6_555 74.2(5)
H1 K1 H2 11_545 7_554 105.8(5)
H2 K1 H2 2_654 3_655 104.8(5)
H2 K1 H2 2_654 6_555 180.0(5)
H2 K1 H2 2_654 7_554 75.2(5)
H2 K1 H2 3_655 6_555 75.2(5)
H2 K1 H2 3_655 7_554 180.0(5)
H2 K1 H2 6_555 7_554 104.8(5)
N1 B1 H1 . . 109.5(14)
N1 B1 H2 . . 109.5(11)
N1 B1 H2 . 8_555 109.5(11)
H1 B1 H2 . . 109.5(14)
H1 B1 H2 . 8_555 109.5(14)
H2 B1 H2 . 8_555 109.5(15)
B1 N1 B2 . . 115.4(9)
B1 N1 H3 . . 106.8(7)
B1 N1 H3 . 8_555 106.8(7)
B2 N1 H3 . . 109.1(8)
B2 N1 H3 . 8_555 109.1(8)
H3 N1 H3 . 8_555 109.5(15)
N1 B2 N1 . 3_555 110.9(14)
N1 B2 H4 . . 109.1(6)
N1 B2 H4 . 3_555 109.1(6)
N1 B2 H4 3_555 . 109.1(6)
N1 B2 H4 3_555 3_555 109.1(6)
H4 B2 H4 . 3_555 109(2)
loop_
_geom_bond_atom_site_label_1
_geom_bond_atom_site_label_2
_geom_bond_site_symmetry_2
_geom_bond_distance
K1 B1 10_554 3.062(13)
K1 B1 11_545 3.062(13)
K1 H1 10_554 2.54(2)
K1 H1 11_545 2.54(2)
K1 H2 2_654 2.395(16)
K1 H2 3_655 2.395(16)
K1 H2 6_555 2.395(16)
K1 H2 7_554 2.395(16)
B1 N1 . 1.609(14)
B1 H1 . 1.08(3)
B1 H2 . 1.093(17)
B1 H2 8_555 1.093(17)
N1 B2 . 1.551(14)
N1 H3 . 0.881(15)
N1 H3 8_555 0.881(15)
B2 H4 . 1.12(2)
B2 H4 3_555 1.12(2)
loop_
_pd_proc_point_id
_pd_proc_2theta_corrected
_pd_proc_intensity_net
_pd_calc_intensity_net
_pd_proc_ls_weight
1 7.9730 88090.00 86961.30 296.80
2 7.9863 87932.00 87017.90 296.53
3 7.9996 87692.00 87063.60 296.13
4 8.0129 87236.00 87099.00 295.36
5 8.0262 87939.00 87124.50 296.55
6 8.0395 87285.00 87140.50 295.44
7 8.0528 87220.00 87147.60 295.33
8 8.0661 87399.00 87146.20 295.63
9 8.0794 87300.00 87136.70 295.47
10 8.0927 87121.00 87119.50 295.16
11 8.1060 87182.00 87095.00 295.27
12 8.1193 86813.00 87063.60 294.64
13 8.1326 87091.00 87025.70 295.11
14 8.1459 86760.00 86981.60 294.55
15 8.1592 87031.00 86931.60 295.01
16 8.1725 86186.00 86876.10 293.58
17 8.1858 86069.00 86815.30 293.38
18 8.1991 86159.00 86749.70 293.53
19 8.2124 86876.00 86679.50 294.75
20 8.2257 85915.00 86604.90 293.11
21 8.2390 85819.00 86526.30 292.95
22 8.2523 85713.00 86443.90 292.77
23 8.2656 85961.00 86357.90 293.19
24 8.2789 85780.00 86268.60 292.88
25 8.2922 85352.00 86176.20 292.15
26 8.3055 85975.00 86081.00 293.21
27 8.3188 85396.00 85983.10 292.23
28 8.3321 85543.00 85882.70 292.48
29 8.3454 85873.00 85780.10 293.04
30 8.3587 85384.00 85675.40 292.20
31 8.3720 85291.00 85594.40 292.05
32 8.3853 85046.00 85486.70 291.63
33 8.3986 84811.00 85390.20 291.22
34 8.4119 85266.00 85280.00 292.00
35 8.4252 84317.00 85168.50 290.37
36 8.4385 84169.00 85055.90 290.12
37 8.4518 84772.00 84942.30 291.16
38 8.4651 84378.00 84828.00 290.48
39 8.4784 84347.00 84712.90 290.43
40 8.4917 84618.00 84597.30 290.89
41 8.5050 84404.00 84481.20 290.52
42 8.5183 84255.00 84364.80 290.27
43 8.5316 84299.00 84248.10 290.34
44 8.5449 83576.00 84131.20 289.10
45 8.5582 84208.00 84014.30 290.19
46 8.5715 84246.00 83897.40 290.25
47 8.5848 83908.00 83780.60 289.67
48 8.5981 84322.00 83664.00 290.38
49 8.6114 83464.00 83547.60 288.90
50 8.6247 83267.00 83431.60 288.56
51 8.6380 83452.00 83316.00 288.88
52 8.6513 82703.00 83200.90 287.58
53 8.6646 82930.00 83086.30 287.98
54 8.6779 83385.00 82972.20 288.77
55 8.6912 82712.00 82858.80 287.60
56 8.7045 83190.00 82746.10 288.43
57 8.7178 82366.00 82634.20 286.99
58 8.7311 82639.00 82523.00 287.47
59 8.7444 83184.00 82412.70 288.42
60 8.7577 82364.00 82303.30 286.99
61 8.7710 82658.00 82194.70 287.50
62 8.7843 82808.00 82087.20 287.76
63 8.7976 82642.00 81980.70 287.48
64 8.8109 82272.00 81875.20 286.83
65 8.8242 81964.00 81770.90 286.29
66 8.8375 82842.00 81667.70 287.82
67 8.8508 82003.00 81565.60 286.36
68 8.8641 81715.00 81464.80 285.86
69 8.8774 82271.00 81365.30 286.83
70 8.8907 81883.00 81267.10 286.15
71 8.9040 81879.00 81170.30 286.14
72 8.9173 81438.00 81074.90 285.37
73 8.9306 82365.00 80981.00 286.99
74 8.9439 81304.00 80888.70 285.14
75 8.9572 81065.00 80798.20 284.72
76 8.9705 81297.00 80709.40 285.13
77 8.9838 81248.00 80622.70 285.04
78 8.9971 80607.00 80538.20 283.91
79 9.0104 80737.00 80456.30 284.14
80 9.0237 80649.00 80377.50 283.99
81 9.0370 80462.00 80302.30 283.66
82 9.0503 80643.00 80231.60 283.98
83 9.0636 81229.00 80166.30 285.01
84 9.0769 80543.00 80107.80 283.80
85 9.0902 80360.00 80057.40 283.48
86 9.1035 80886.00 80016.80 284.40
87 9.1168 80139.00 79987.50 283.09
88 9.1301 79907.00 79971.00 282.68
89 9.1434 80133.00 79968.00 283.08
90 9.1567 80056.00 79978.70 282.94
91 9.1700 79859.00 80002.50 282.59
92 9.1833 80103.00 80037.90 283.02
93 9.1966 80241.00 80083.20 283.27
94 9.2099 80013.00 80137.60 282.87
95 9.2232 79911.00 80203.60 282.68
96 9.2365 80669.00 80290.00 284.02
97 9.2498 81162.00 80416.70 284.89
98 9.2631 80743.00 80620.20 284.15
99 9.2764 81849.00 80962.40 286.09
100 9.2897 81753.00 81540.00 285.92
101 9.3029 83168.00 82485.70 288.39
102 9.3162 84263.00 83997.80 290.28
103 9.3295 85540.00 86271.90 292.47
104 9.3428 87784.00 89450.70 296.28
105 9.3561 90385.00 93494.70 300.64
106 9.3694 93833.00 98048.10 306.32
107 9.3827 98430.00 102369.00 313.74
108 9.3960 102871.00 105411.00 320.73
109 9.4093 105404.00 106130.00 324.66
110 9.4226 104199.00 103964.00 322.80
111 9.4359 100229.00 99283.30 316.59
112 9.4492 93972.00 93348.10 306.55
113 9.4625 88202.00 87681.20 296.99
114 9.4758 84228.00 83364.20 290.22
115 9.4891 81944.00 80715.70 286.26
116 9.5024 80306.00 79431.60 283.38
117 9.5157 79302.00 78956.30 281.61
118 9.5290 79238.00 78797.20 281.49
119 9.5423 78366.00 78662.00 279.94
120 9.5556 77885.00 78447.30 279.08
121 9.5689 77650.00 78161.20 278.66
122 9.5822 77834.00 77848.40 278.99
123 9.5955 77391.00 77547.80 278.19
124 9.6088 76856.00 77280.90 277.23
125 9.6221 76420.00 77055.00 276.44
126 9.6354 77125.00 76869.60 277.71
127 9.6487 77297.00 76720.80 278.02
128 9.6620 76625.00 76603.10 276.81
129 9.6753 76286.00 76509.80 276.20
130 9.6886 76504.00 76433.80 276.59
131 9.7019 76501.00 76368.50 276.59
132 9.7152 76831.00 76308.30 277.18
133 9.7285 76287.00 76248.90 276.20
134 9.7418 76188.00 76187.40 276.02
135 9.7551 76389.00 76122.30 276.39
136 9.7684 75840.00 76053.20 275.39
137 9.7817 76172.00 75980.30 275.99
138 9.7950 75658.00 75904.30 275.06
139 9.8083 75739.00 75825.90 275.21
140 9.8216 75876.00 75745.90 275.46
141 9.8349 75649.00 75665.10 275.04
142 9.8482 75948.00 75584.00 275.59
143 9.8615 75405.00 75503.10 274.60
144 9.8748 75126.00 75422.60 274.09
145 9.8881 75010.00 75342.70 273.88
146 9.9014 74550.00 75263.40 273.04
147 9.9147 74922.00 75184.90 273.72
148 9.9280 74665.00 75106.90 273.25
149 9.9413 75180.00 75029.60 274.19
150 9.9546 74705.00 74952.90 273.32
151 9.9679 74826.00 74876.80 273.54
152 9.9812 74689.00 74801.10 273.29
153 9.9945 74830.00 74725.80 273.55
154 10.0078 74300.00 74651.00 272.58
155 10.0211 74388.00 74576.40 272.74
156 10.0344 74596.00 74502.20 273.12
157 10.0477 74589.00 74428.20 273.11
158 10.0610 74777.00 74354.50 273.45
159 10.0743 73606.00 74281.00 271.30
160 10.0876 74056.00 74207.60 272.13
161 10.1009 74190.00 74134.40 272.38
162 10.1142 74003.00 74061.30 272.04
163 10.1275 74724.00 73988.40 273.36
164 10.1408 73840.00 73915.50 271.73
165 10.1541 74440.00 73842.60 272.84
166 10.1674 73430.00 73769.90 270.98
167 10.1807 73847.00 73697.20 271.75
168 10.1940 73020.00 73624.50 270.22
169 10.2073 73229.00 73551.80 270.61
170 10.2206 73395.00 73479.20 270.92
171 10.2339 73446.00 73406.50 271.01
172 10.2472 73144.00 73333.90 270.45
173 10.2605 73501.00 73261.20 271.11
174 10.2738 73195.00 73188.50 270.55
175 10.2871 72880.00 73115.70 269.96
176 10.3004 72838.00 73042.90 269.89
177 10.3137 72751.00 72970.10 269.72
178 10.3270 72887.00 72897.30 269.98
179 10.3403 72997.00 72824.30 270.18
180 10.3536 73178.00 72751.40 270.51
181 10.3669 72792.00 72678.30 269.80
182 10.3802 72739.00 72605.20 269.70
183 10.3935 72813.00 72532.10 269.84
184 10.4068 72658.00 72458.90 269.55
185 10.4201 72186.00 72385.60 268.67
186 10.4334 72034.00 72312.20 268.39
187 10.4467 72465.00 72238.80 269.19
188 10.4600 72317.00 72165.30 268.92
189 10.4733 71854.00 72091.70 268.06
190 10.4866 71823.00 72018.10 268.00
191 10.4999 71435.00 71919.50 267.27
192 10.5132 71273.00 71833.80 266.97
193 10.5265 71323.00 71760.80 267.06
194 10.5398 71467.00 71687.80 267.33
195 10.5531 71565.00 71614.60 267.52
196 10.5664 71269.00 71541.40 266.96
197 10.5797 71654.00 71468.10 267.68
198 10.5930 71283.00 71394.60 266.99
199 10.6063 71427.00 71321.10 267.26
200 10.6196 70916.00 71247.60 266.30
201 10.6329 70503.00 71173.90 265.52
202 10.6462 71457.00 71100.20 267.31
203 10.6595 71233.00 71026.30 266.89
204 10.6728 71003.00 70952.50 266.46
205 10.6861 70980.00 70878.50 266.42
206 10.6994 70652.00 70804.50 265.80
207 10.7127 70609.00 70730.50 265.72
208 10.7260 70031.00 70656.30 264.63
209 10.7393 70273.00 70582.20 265.09
210 10.7526 70446.00 70507.90 265.42
211 10.7659 70197.00 70433.70 264.95
212 10.7792 69980.00 70359.40 264.54
213 10.7925 70627.00 70285.00 265.76
214 10.8058 70438.00 70210.70 265.40
215 10.8190 69803.00 70136.80 264.20
216 10.8323 70241.00 70062.40 265.03
217 10.8456 69742.00 69988.00 264.09
218 10.8589 69444.00 69913.50 263.52
219 10.8722 70144.00 69839.10 264.85
220 10.8855 70054.00 69764.60 264.68
221 10.8988 69845.00 69690.10 264.28
222 10.9121 69900.00 69615.60 264.39
223 10.9254 69541.00 69541.10 263.71
224 10.9387 69338.00 69466.70 263.32
225 10.9520 69620.00 69392.30 263.86
226 10.9653 68658.00 69317.80 262.03
227 10.9786 69243.00 69243.40 263.14
228 10.9919 68936.00 69169.00 262.56
229 11.0052 69104.00 69094.60 262.88
230 11.0185 69470.00 69020.30 263.57
231 11.0318 69026.00 68946.00 262.73
232 11.0451 68818.00 68871.80 262.33
233 11.0584 68806.00 68797.60 262.31
234 11.0717 68188.00 68723.40 261.13
235 11.0850 69029.00 68649.30 262.73
236 11.0983 69048.00 68575.20 262.77
237 11.1116 68571.00 68501.20 261.86
238 11.1249 68255.00 68427.30 261.26
239 11.1382 68417.00 68353.50 261.57
240 11.1515 68626.00 68279.70 261.97
241 11.1648 68412.00 68206.00 261.56
242 11.1781 68144.00 68132.30 261.04
243 11.1914 67748.00 68058.80 260.28
244 11.2047 68238.00 67985.30 261.22
245 11.2180 67477.00 67911.90 259.76
246 11.2313 67627.00 67838.60 260.05
247 11.2446 67476.00 67765.40 259.76
248 11.2579 67460.00 67692.30 259.73
249 11.2712 67286.00 67619.30 259.39
250 11.2845 67657.00 67546.50 260.11
251 11.2978 67505.00 67473.70 259.82
252 11.3111 68153.00 67401.00 261.06
253 11.3244 67485.00 67328.40 259.78
254 11.3377 67151.00 67256.00 259.14
255 11.3510 67031.00 67183.70 258.90
256 11.3643 66934.00 67111.50 258.72
257 11.3776 67425.00 67039.40 259.66
258 11.3909 67010.00 66967.50 258.86
259 11.4042 67075.00 66895.70 258.99
260 11.4175 66907.00 66824.00 258.66
261 11.4308 66292.00 66752.50 257.47
262 11.4441 66359.00 66681.10 257.60
263 11.4574 66647.00 66609.90 258.16
264 11.4707 66702.00 66538.80 258.27
265 11.4840 66362.00 66467.80 257.61
266 11.4973 66570.00 66397.00 258.01
267 11.5106 65994.00 66326.30 256.89
268 11.5239 66687.00 66255.80 258.24
269 11.5372 66481.00 66185.40 257.84
270 11.5505 65939.00 66115.20 256.79
271 11.5638 66153.00 66045.20 257.20
272 11.5771 65998.00 65975.30 256.90
273 11.5904 66077.00 65905.60 257.05
274 11.6037 65801.00 65836.00 256.52
275 11.6170 66160.00 65766.60 257.22
276 11.6303 66302.00 65697.40 257.49
277 11.6436 65835.00 65628.40 256.58
278 11.6569 65283.00 65559.50 255.51
279 11.6702 65482.00 65490.80 255.90
280 11.6835 65032.00 65422.20 255.01
281 11.6968 65510.00 65353.90 255.95
282 11.7101 65404.00 65285.70 255.74
283 11.7234 65775.00 65217.60 256.47
284 11.7367 65242.00 65149.80 255.43
285 11.7500 65397.00 65082.10 255.73
286 11.7633 65276.00 65014.70 255.49
287 11.7766 65232.00 64947.40 255.41
288 11.7899 64637.00 64880.20 254.24
289 11.8032 64822.00 64813.30 254.60
290 11.8165 64693.00 64746.50 254.35
291 11.8298 64824.00 64679.90 254.61
292 11.8431 65117.00 64613.50 255.18
293 11.8564 64418.00 64547.30 253.81
294 11.8697 64564.00 64481.30 254.09
295 11.8830 64296.00 64415.40 253.57
296 11.8963 64461.00 64349.70 253.89
297 11.9096 64570.00 64284.20 254.11
298 11.9229 64435.00 64218.90 253.84
299 11.9362 63977.00 64153.80 252.94
300 11.9495 64790.00 64088.90 254.54
301 11.9628 63810.00 64024.10 252.61
302 11.9761 64151.00 63959.60 253.28
303 11.9894 63684.00 63895.20 252.36
304 12.0027 64035.00 63831.00 253.05
305 12.0160 64086.00 63766.90 253.15
306 12.0293 63653.00 63703.10 252.29
307 12.0426 64114.00 63639.40 253.21
308 12.0559 64292.00 63575.90 253.56
309 12.0692 63814.00 63512.60 252.61
310 12.0825 63808.00 63449.50 252.60
311 12.0958 63985.00 63386.60 252.95
312 12.1091 63365.00 63323.80 251.72
313 12.1224 63591.00 63261.20 252.17
314 12.1357 63423.00 63198.80 251.84
315 12.1490 63258.00 63136.50 251.51
316 12.1623 63476.00 63074.50 251.94
317 12.1756 62505.00 63012.60 250.01
318 12.1889 63389.00 62950.90 251.77
319 12.2022 62995.00 62889.30 250.99
320 12.2155 63613.00 62828.00 252.22
321 12.2288 63364.00 62766.80 251.72
322 12.2421 62964.00 62705.70 250.93
323 12.2554 62681.00 62644.80 250.36
324 12.2687 62909.00 62584.10 250.82
325 12.2820 63052.00 62523.60 251.10
326 12.2953 62604.00 62463.20 250.21
327 12.3086 62568.00 62403.00 250.14
328 12.3219 62011.00 62343.00 249.02
329 12.3352 62468.00 62283.10 249.94
330 12.3484 62323.00 62223.80 249.65
331 12.3617 62336.00 62164.20 249.67
332 12.3750 62034.00 62104.80 249.07
333 12.3883 62156.00 62045.50 249.31
334 12.4016 62056.00 61986.40 249.11
335 12.4149 61600.00 61927.40 248.19
336 12.4282 61898.00 61868.60 248.79
337 12.4415 61855.00 61809.90 248.71
338 12.4548 61959.00 61751.40 248.92
339 12.4681 61785.00 61693.00 248.57
340 12.4814 61519.00 61634.70 248.03
341 12.4947 61595.00 61576.60 248.18
342 12.5080 61869.00 61518.70 248.74
343 12.5213 61701.00 61460.80 248.40
344 12.5346 61400.00 61403.10 247.79
345 12.5479 61677.00 61345.60 248.35
346 12.5612 60980.00 61288.10 246.94
347 12.5745 61199.00 61230.80 247.38
348 12.5878 60968.00 61173.70 246.92
349 12.6011 61731.00 61116.60 248.46
350 12.6144 61119.00 61059.70 247.22
351 12.6277 61280.00 61002.90 247.55
352 12.6410 60797.00 60946.20 246.57
353 12.6543 61053.00 60889.60 247.09
354 12.6676 60625.00 60833.20 246.22
355 12.6809 60687.00 60776.80 246.35
356 12.6942 60681.00 60720.60 246.34
357 12.7075 60345.00 60664.50 245.65
358 12.7208 60794.00 60608.50 246.56
359 12.7341 60633.00 60552.60 246.24
360 12.7474 60414.00 60496.80 245.79
361 12.7607 60246.00 60441.10 245.45
362 12.7740 60488.00 60385.50 245.94
363 12.7873 60541.00 60330.00 246.05
364 12.8006 60190.00 60274.60 245.34
365 12.8139 60409.00 60219.30 245.78
366 12.8272 60783.00 60164.10 246.54
367 12.8405 59820.00 60109.00 244.58
368 12.8538 59902.00 60054.00 244.75
369 12.8671 59791.00 59999.00 244.52
370 12.8804 59978.00 59944.20 244.90
371 12.8937 59568.00 59889.40 244.07
372 12.9070 59852.00 59834.70 244.65
373 12.9203 59851.00 59780.10 244.65
374 12.9336 59923.00 59725.60 244.79
375 12.9469 59381.00 59671.10 243.68
376 12.9602 59564.00 59616.70 244.06
377 12.9735 59095.00 59562.40 243.10
378 12.9868 59460.00 59508.20 243.84
379 13.0001 59159.00 59454.00 243.23
380 13.0134 59446.00 59399.90 243.82
381 13.0267 59223.00 59345.80 243.36
382 13.0400 58702.00 59291.90 242.29
383 13.0533 59359.00 59237.90 243.64
384 13.0666 59073.00 59184.10 243.05
385 13.0799 59495.00 59130.30 243.92
386 13.0932 59059.00 59076.50 243.02
387 13.1065 58704.00 59022.80 242.29
388 13.1198 59220.00 58969.20 243.35
389 13.1331 58479.00 58915.60 241.82
390 13.1464 59278.00 58862.10 243.47
391 13.1597 59023.00 58808.60 242.95
392 13.1730 59165.00 58755.10 243.24
393 13.1863 58666.00 58701.70 242.21
394 13.1996 58369.00 58648.40 241.60
395 13.2129 58698.00 58595.10 242.28
396 13.2262 58885.00 58541.80 242.66
397 13.2395 58638.00 58488.60 242.15
398 13.2528 58660.00 58435.40 242.20
399 13.2661 58385.00 58382.20 241.63
400 13.2794 58185.00 58329.10 241.22
401 13.2927 58026.00 58276.00 240.89
402 13.3060 58565.00 58222.90 242.00
403 13.3193 58337.00 58169.90 241.53
404 13.3326 57977.00 58116.90 240.78
405 13.3459 58135.00 58063.90 241.11
406 13.3592 57953.00 58011.00 240.73
407 13.3725 57610.00 57958.10 240.02
408 13.3858 57705.00 57905.20 240.22
409 13.3991 58099.00 57852.30 241.04
410 13.4124 57271.00 57799.40 239.31
411 13.4257 57338.00 57746.60 239.45
412 13.4390 57660.00 57693.80 240.12
413 13.4523 57566.00 57641.00 239.93
414 13.4656 57206.00 57588.20 239.18
415 13.4789 57506.00 57535.50 239.80
416 13.4922 57075.00 57482.80 238.90
417 13.5055 56872.00 57430.00 238.48
418 13.5188 57439.00 57377.30 239.66
419 13.5321 57008.00 57324.60 238.76
420 13.5454 57205.00 57271.90 239.18
421 13.5587 56957.00 57219.30 238.66
422 13.5720 56880.00 57166.60 238.49
423 13.5853 57054.00 57114.00 238.86
424 13.5986 56818.00 57061.30 238.37
425 13.6119 56660.00 57008.70 238.03
426 13.6252 57009.00 56956.10 238.77
427 13.6385 57361.00 56903.50 239.50
428 13.6518 56605.00 56850.90 237.92
429 13.6651 56820.00 56798.30 238.37
430 13.6784 56198.00 56745.70 237.06
431 13.6917 56613.00 56693.10 237.93
432 13.7050 56532.00 56640.50 237.76
433 13.7183 56679.00 56587.90 238.07
434 13.7316 56309.00 56535.40 237.29
435 13.7449 56405.00 56482.80 237.50
436 13.7582 56808.00 56430.30 238.34
437 13.7715 56237.00 56377.70 237.14
438 13.7848 56191.00 56325.20 237.05
439 13.7981 56203.00 56272.60 237.07
440 13.8114 56059.00 56220.10 236.77
441 13.8247 56091.00 56167.50 236.84
442 13.8380 56418.00 56115.00 237.52
443 13.8513 55530.00 56062.50 235.65
444 13.8645 55887.00 56010.40 236.40
445 13.8778 55660.00 55957.80 235.92
446 13.8911 55488.00 55905.30 235.56
447 13.9044 55731.00 55852.80 236.07
448 13.9177 55806.00 55800.30 236.23
449 13.9310 55294.00 55747.80 235.15
450 13.9443 55538.00 55695.30 235.66
451 13.9576 55600.00 55642.80 235.80
452 13.9709 55034.00 55590.30 234.59
453 13.9842 55731.00 55537.80 236.07
454 13.9975 55501.00 55485.30 235.59
455 14.0108 55122.00 55432.90 234.78
456 14.0241 55560.00 55380.40 235.71
457 14.0374 55119.00 55327.90 234.77
458 14.0507 54476.00 55275.50 233.40
459 14.0640 54917.00 55223.00 234.34
460 14.0773 54966.00 55170.60 234.45
461 14.0906 54974.00 55118.20 234.46
462 14.1039 54750.00 55065.80 233.99
463 14.1172 54689.00 55013.30 233.86
464 14.1305 54464.00 54960.90 233.38
465 14.1438 54421.00 54908.60 233.28
466 14.1571 54769.00 54856.20 234.03
467 14.1704 54553.00 54803.80 233.57
468 14.1837 54129.00 54751.50 232.66
469 14.1970 54641.00 54699.10 233.75
470 14.2103 54198.00 54646.80 232.80
471 14.2236 54442.00 54594.50 233.33
472 14.2369 54043.00 54542.20 232.47
473 14.2502 54192.00 54490.00 232.79
474 14.2635 54271.00 54437.70 232.96
475 14.2768 54406.00 54385.50 233.25
476 14.2901 53789.00 54333.30 231.93
477 14.3034 53651.00 54281.10 231.63
478 14.3167 53990.00 54228.90 232.36
479 14.3300 54178.00 54176.80 232.76
480 14.3433 53900.00 54124.70 232.16
481 14.3566 53829.00 54072.60 232.01
482 14.3699 53415.00 54020.50 231.12
483 14.3832 53741.00 53968.50 231.82
484 14.3965 53119.00 53916.40 230.48
485 14.4098 53554.00 53864.50 231.42
486 14.4231 53441.00 53812.50 231.17
487 14.4364 53355.00 53760.60 230.99
488 14.4497 53475.00 53708.70 231.25
489 14.4630 53299.00 53656.90 230.87
490 14.4763 53263.00 53605.10 230.79
491 14.4896 53184.00 53553.30 230.62
492 14.5029 53249.00 53501.60 230.76
493 14.5162 53689.00 53449.90 231.71
494 14.5295 53160.00 53398.30 230.57
495 14.5428 53160.00 53346.70 230.57
496 14.5561 52762.00 53295.10 229.70
497 14.5694 52685.00 53243.60 229.53
498 14.5827 52798.00 53192.10 229.78
499 14.5960 53020.00 53140.70 230.26
500 14.6093 52922.00 53089.40 230.05
501 14.6226 53062.00 53038.10 230.35
502 14.6359 53024.00 52986.80 230.27
503 14.6492 52470.00 52935.60 229.06
504 14.6625 52582.00 52884.50 229.31
505 14.6758 52499.00 52833.40 229.13
506 14.6891 52771.00 52782.40 229.72
507 14.7024 52606.00 52731.40 229.36
508 14.7157 52369.00 52680.50 228.84
509 14.7290 52918.00 52629.70 230.04
510 14.7423 52685.00 52578.90 229.53
511 14.7556 52575.00 52528.20 229.29
512 14.7689 52366.00 52477.60 228.84
513 14.7822 52504.00 52427.00 229.14
514 14.7955 52382.00 52376.60 228.87
515 14.8088 52435.00 52326.20 228.99
516 14.8221 52307.00 52275.80 228.71
517 14.8354 52710.00 52225.60 229.59
518 14.8487 52481.00 52175.40 229.09
519 14.8620 52095.00 52125.30 228.24
520 14.8753 52264.00 52075.30 228.61
521 14.8886 52320.00 52025.40 228.74
522 14.9019 52284.00 51975.60 228.66
523 14.9152 52122.00 51925.80 228.30
524 14.9285 51973.00 51876.20 227.98
525 14.9418 52198.00 51826.60 228.47
526 14.9551 51700.00 51777.20 227.38
527 14.9684 51453.00 51727.80 226.83
528 14.9817 51661.00 51678.60 227.29
529 14.9950 51561.00 51629.40 227.07
530 15.0083 51871.00 51580.30 227.75
531 15.0216 51552.00 51531.40 227.05
532 15.0349 51884.00 51482.50 227.78
533 15.0482 51300.00 51433.80 226.49
534 15.0615 51398.00 51385.10 226.71
535 15.0748 51239.00 51336.60 226.36
536 15.0881 51389.00 51288.20 226.69
537 15.1014 51321.00 51239.90 226.54
538 15.1147 51076.00 51191.70 226.00
539 15.1280 51491.00 51143.60 226.92
540 15.1413 51509.00 51095.70 226.96
541 15.1546 50465.00 51047.90 224.64
542 15.1679 51334.00 51000.20 226.57
543 15.1812 50648.00 50952.60 225.05
544 15.1945 50987.00 50905.20 225.80
545 15.2078 50953.00 50857.80 225.73
546 15.2211 50601.00 50810.70 224.95
547 15.2344 50978.00 50763.60 225.78
548 15.2477 50827.00 50716.70 225.45
549 15.2610 50952.00 50669.90 225.73
550 15.2743 50464.00 50623.30 224.64
551 15.2876 50980.00 50576.80 225.79
552 15.3009 50584.00 50530.40 224.91
553 15.3142 51104.00 50484.20 226.06
554 15.3275 50308.00 50438.10 224.29
555 15.3408 50497.00 50392.20 224.71
556 15.3541 50821.00 50346.40 225.43
557 15.3674 50474.00 50300.80 224.66
558 15.3807 50350.00 50255.30 224.39
559 15.3939 50197.00 50210.30 224.05
560 15.4072 50287.00 50165.20 224.25
561 15.4205 50396.00 50120.20 224.49
562 15.4338 50003.00 50075.30 223.61
563 15.4471 50574.00 50030.60 224.89
564 15.4604 50296.00 49986.10 224.27
565 15.4737 50262.00 49941.80 224.19
566 15.4870 50565.00 49897.60 224.87
567 15.5003 50291.00 49853.60 224.26
568 15.5136 50157.00 49809.70 223.96
569 15.5269 49816.00 49766.00 223.20
570 15.5402 49903.00 49722.50 223.39
571 15.5535 50022.00 49679.20 223.66
572 15.5668 50188.00 49636.00 224.03
573 15.5801 50529.00 49593.00 224.79
574 15.5934 50176.00 49550.20 224.00
575 15.6067 50040.00 49507.60 223.70
576 15.6200 49748.00 49465.20 223.04
577 15.6333 49985.00 49422.90 223.57
578 15.6466 50139.00 49380.80 223.92
579 15.6599 49387.00 49338.90 222.23
580 15.6732 49792.00 49297.30 223.14
581 15.6865 49885.00 49255.70 223.35
582 15.6998 49581.00 49214.40 222.67
583 15.7131 49783.00 49173.30 223.12
584 15.7264 49417.00 49132.40 222.30
585 15.7397 49609.00 49091.60 222.73
586 15.7530 49532.00 49051.10 222.56
587 15.7663 49408.00 49010.80 222.28
588 15.7796 49583.00 48970.60 222.67
589 15.7929 49600.00 48930.70 222.71
590 15.8062 49376.00 48891.00 222.21
591 15.8195 49595.00 48851.40 222.70
592 15.8328 48984.00 48812.10 221.32
593 15.8461 49336.00 48773.00 222.12
594 15.8594 49248.00 48734.10 221.92
595 15.8727 49240.00 48695.40 221.90
596 15.8860 49189.00 48656.90 221.79
597 15.8993 49475.00 48618.60 222.43
598 15.9126 48965.00 48580.50 221.28
599 15.9259 48774.00 48542.60 220.85
600 15.9392 48790.00 48505.00 220.88
601 15.9525 48848.00 48467.60 221.02
602 15.9658 48612.00 48430.40 220.48
603 15.9791 48882.00 48393.40 221.09
604 15.9924 48626.00 48356.60 220.51
605 16.0057 48734.00 48320.00 220.76
606 16.0190 48433.00 48283.70 220.07
607 16.0323 48713.00 48247.60 220.71
608 16.0456 48332.00 48211.70 219.85
609 16.0589 48590.00 48176.00 220.43
610 16.0722 48439.00 48140.60 220.09
611 16.0855 48087.00 48105.40 219.29
612 16.0988 48101.00 48070.40 219.32
613 16.1121 48461.00 48035.60 220.14
614 16.1254 48104.00 48001.10 219.33
615 16.1387 47896.00 47966.80 218.85
616 16.1520 47967.00 47932.70 219.01
617 16.1653 47815.00 47898.80 218.67
618 16.1786 48105.00 47865.20 219.33
619 16.1919 47876.00 47831.80 218.81
620 16.2052 47832.00 47798.70 218.71
621 16.2185 48058.00 47765.80 219.22
622 16.2318 47882.00 47733.10 218.82
623 16.2451 47609.00 47700.60 218.20
624 16.2584 47858.00 47668.40 218.76
625 16.2717 47661.00 47636.40 218.31
626 16.2850 47682.00 47604.70 218.36
627 16.2983 47332.00 47573.20 217.56
628 16.3116 47325.00 47541.90 217.54
629 16.3249 47367.00 47510.90 217.64
630 16.3382 47204.00 47480.10 217.26
631 16.3515 47320.00 47449.50 217.53
632 16.3648 47516.00 47419.20 217.98
633 16.3781 47416.00 47389.10 217.75
634 16.3914 47488.00 47359.20 217.92
635 16.4047 47445.00 47329.70 217.82
636 16.4180 47057.00 47300.30 216.93
637 16.4313 47145.00 47271.20 217.13
638 16.4446 47137.00 47242.30 217.11
639 16.4579 47347.00 47213.60 217.59
640 16.4712 47370.00 47185.20 217.65
641 16.4845 47468.00 47157.10 217.87
642 16.4978 47220.00 47129.20 217.30
643 16.5111 47199.00 47101.50 217.25
644 16.5244 46936.00 47074.00 216.65
645 16.5377 46842.00 47046.90 216.43
646 16.5510 47094.00 47019.90 217.01
647 16.5643 47093.00 46993.20 217.01
648 16.5776 47033.00 46966.70 216.87
649 16.5909 47312.00 46940.50 217.51
650 16.6042 47237.00 46914.50 217.34
651 16.6175 46859.00 46888.80 216.47
652 16.6308 46989.00 46863.20 216.77
653 16.6441 46840.00 46838.00 216.43
654 16.6574 47106.00 46813.00 217.04
655 16.6707 47069.00 46788.20 216.95
656 16.6840 47072.00 46763.60 216.96
657 16.6973 47111.00 46739.30 217.05
658 16.7106 46967.00 46715.30 216.72
659 16.7239 46859.00 46691.40 216.47
660 16.7372 46644.00 46667.90 215.97
661 16.7505 46653.00 46644.50 215.99
662 16.7638 46745.00 46621.40 216.21
663 16.7771 46796.00 46598.50 216.32
664 16.7904 46523.00 46575.90 215.69
665 16.8037 46283.00 46553.50 215.13
666 16.8170 46831.00 46531.40 216.40
667 16.8303 46552.00 46509.50 215.76
668 16.8436 46640.00 46487.80 215.96
669 16.8569 46246.00 46466.30 215.05
670 16.8702 46136.00 46445.10 214.79
671 16.8835 46835.00 46424.10 216.41
672 16.8968 46528.00 46403.40 215.70
673 16.9100 46072.00 46383.00 214.64
674 16.9233 46017.00 46362.70 214.52
675 16.9366 46449.00 46342.70 215.52
676 16.9499 46124.00 46322.90 214.76
677 16.9632 46077.00 46303.30 214.66
678 16.9765 46115.00 46283.90 214.74
679 16.9898 46205.00 46264.80 214.95
680 17.0031 45984.00 46245.90 214.44
681 17.0164 45801.00 46227.20 214.01
682 17.0297 46482.00 46208.80 215.60
683 17.0430 46055.00 46190.60 214.60
684 17.0563 45829.00 46172.60 214.08
685 17.0696 46228.00 46154.80 215.01
686 17.0829 45742.00 46137.20 213.87
687 17.0962 45466.00 46119.90 213.23
688 17.1095 46242.00 46102.80 215.04
689 17.1228 45868.00 46085.90 214.17
690 17.1361 45906.00 46069.20 214.26
691 17.1494 45987.00 46052.80 214.45
692 17.1627 45911.00 46036.60 214.27
693 17.1760 45767.00 46020.50 213.93
694 17.1893 46225.00 46004.70 215.00
695 17.2026 45730.00 45989.10 213.85
696 17.2159 46099.00 45973.80 214.71
697 17.2292 45649.00 45958.60 213.66
698 17.2425 46045.00 45943.60 214.58
699 17.2558 45766.00 45928.90 213.93
700 17.2691 45459.00 45914.30 213.21
701 17.2824 46005.00 45900.00 214.49
702 17.2957 45817.00 45885.90 214.05
703 17.3090 45750.00 45871.90 213.89
704 17.3223 45989.00 45858.20 214.45
705 17.3356 45828.00 45844.70 214.07
706 17.3489 45429.00 45831.40 213.14
707 17.3622 45781.00 45818.20 213.96
708 17.3755 45371.00 45805.30 213.01
709 17.3888 45587.00 45792.60 213.51
710 17.4021 45540.00 45780.10 213.40
711 17.4154 45625.00 45767.70 213.60
712 17.4287 45238.00 45755.60 212.69
713 17.4420 45652.00 45743.60 213.66
714 17.4553 45521.00 45731.80 213.36
715 17.4686 45171.00 45720.20 212.54
716 17.4819 45864.00 45708.80 214.16
717 17.4952 44956.00 45697.60 212.03
718 17.5085 45412.00 45686.60 213.10
719 17.5218 45593.00 45675.70 213.52
720 17.5351 45409.00 45665.00 213.09
721 17.5484 45879.00 45654.50 214.19
722 17.5617 45125.00 45644.20 212.43
723 17.5750 45357.00 45634.10 212.97
724 17.5883 45238.00 45624.10 212.69
725 17.6016 45337.00 45614.30 212.93
726 17.6149 45440.00 45604.60 213.17
727 17.6282 44961.00 45595.20 212.04
728 17.6415 45326.00 45585.90 212.90
729 17.6548 45502.00 45576.70 213.31
730 17.6681 45104.00 45567.80 212.38
731 17.6814 45423.00 45558.90 213.13
732 17.6947 45396.00 45550.30 213.06
733 17.7080 45586.00 45541.80 213.51
734 17.7213 44838.00 45533.40 211.75
735 17.7346 45234.00 45525.30 212.68
736 17.7479 45454.00 45517.20 213.20
737 17.7612 45362.00 45509.30 212.98
738 17.7745 45500.00 45501.60 213.31
739 17.7878 45470.00 45494.00 213.24
740 17.8011 45073.00 45486.60 212.30
741 17.8144 45479.00 45479.20 213.26
742 17.8277 45335.00 45472.10 212.92
743 17.8410 45330.00 45465.10 212.91
744 17.8543 45929.00 45458.20 214.31
745 17.8676 45533.00 45451.40 213.38
746 17.8809 44996.00 45444.80 212.12
747 17.8942 45466.00 45438.30 213.23
748 17.9075 45148.00 45431.90 212.48
749 17.9208 45348.00 45425.70 212.95
750 17.9341 45572.00 45419.60 213.48
751 17.9474 45617.00 45413.60 213.58
752 17.9607 45252.00 45442.50 212.73
753 17.9740 44838.00 45437.70 211.75
754 17.9873 45661.00 45433.10 213.68
755 18.0006 45084.00 45445.60 212.33
756 18.0139 45046.00 45441.80 212.24
757 18.0272 45254.00 45438.10 212.73
758 18.0405 45610.00 45434.70 213.57
759 18.0538 45431.00 45431.40 213.15
760 18.0671 44769.00 45428.30 211.59
761 18.0804 45534.00 45425.50 213.39
762 18.0937 45155.00 45422.80 212.50
763 18.1070 45277.00 45420.30 212.78
764 18.1203 45371.00 45418.00 213.01
765 18.1336 45253.00 45415.90 212.73
766 18.1469 44970.00 45414.00 212.06
767 18.1602 44934.00 45412.40 211.98
768 18.1735 44856.00 45411.00 211.79
769 18.1868 45411.00 45409.80 213.10
770 18.2001 44969.00 45408.90 212.06
771 18.2134 44629.00 45408.20 211.26
772 18.2267 44754.00 45407.80 211.55
773 18.2400 45010.00 45407.60 212.16
774 18.2533 44978.00 45407.70 212.08
775 18.2666 44869.00 45408.20 211.82
776 18.2799 45019.00 45409.00 212.18
777 18.2932 45199.00 45410.10 212.60
778 18.3065 44647.00 45411.50 211.30
779 18.3198 44883.00 45413.40 211.86
780 18.3331 45108.00 45415.60 212.39
781 18.3464 45355.00 45418.30 212.97
782 18.3597 44913.00 45421.50 211.93
783 18.3730 45004.00 45425.10 212.14
784 18.3863 44977.00 45429.40 212.08
785 18.3996 45031.00 45434.20 212.21
786 18.4129 44982.00 45439.60 212.09
787 18.4262 45273.00 45445.80 212.77
788 18.4394 44674.00 45452.70 211.36
789 18.4527 45203.00 45460.50 212.61
790 18.4660 44821.00 45469.20 211.71
791 18.4793 44814.00 45479.10 211.69
792 18.4926 45088.00 45490.10 212.34
793 18.5059 45226.00 45502.50 212.66
794 18.5192 44702.00 45516.60 211.43
795 18.5325 44899.00 45532.60 211.89
796 18.5458 45110.00 45550.90 212.39
797 18.5591 44975.00 45572.10 212.07
798 18.5724 44902.00 45596.90 211.90
799 18.5857 45110.00 45626.10 212.39
800 18.5990 45442.00 45661.00 213.17
801 18.6123 44965.00 45702.80 212.05
802 18.6256 45174.00 45753.00 212.54
803 18.6389 45570.00 45813.10 213.47
804 18.6522 45598.00 45884.50 213.54
805 18.6655 45299.00 45968.50 212.84
806 18.6788 46263.00 46065.70 215.09
807 18.6921 46359.00 46176.50 215.31
808 18.7054 46427.00 46300.90 215.47
809 18.7187 46613.00 46439.90 215.90
810 18.7320 47602.00 46597.00 218.18
811 18.7453 48130.00 46780.50 219.38
812 18.7586 49201.00 47008.30 221.81
813 18.7719 49891.00 47312.30 223.36
814 18.7852 51195.00 47745.90 226.26
815 18.7985 51964.00 48390.80 227.96
816 18.8118 52572.00 49360.60 229.29
817 18.8251 54123.00 50792.00 232.64
818 18.8384 54840.00 52810.70 234.18
819 18.8517 57430.00 55465.60 239.65
820 18.8650 60824.00 58643.60 246.62
821 18.8783 64160.00 62002.10 253.30
822 18.8916 67471.00 64958.70 259.75
823 18.9049 69664.00 66811.40 263.94
824 18.9182 69990.00 67054.60 264.56
825 18.9315 67698.00 65753.20 260.19
826 18.9448 64683.00 63480.60 254.33
827 18.9581 61110.00 60790.90 247.20
828 18.9714 58188.00 57978.20 241.22
829 18.9847 54740.00 55281.30 233.97
830 18.9980 52291.00 52959.50 228.67
831 19.0113 49749.00 51148.80 223.04
832 19.0246 48198.00 49814.90 219.54
833 19.0379 47480.00 48838.60 217.90
834 19.0512 46644.00 48102.40 215.97
835 19.0645 46228.00 47525.40 215.01
836 19.0778 45911.00 47063.90 214.27
837 19.0911 45686.00 46695.90 213.74
838 19.1044 45271.00 46407.60 212.77
839 19.1177 45710.00 46186.30 213.80
840 19.1310 45495.00 46019.40 213.30
841 19.1443 45807.00 45895.20 214.03
842 19.1576 45436.00 45803.50 213.16
843 19.1709 44996.00 45735.60 212.12
844 19.1842 45208.00 45684.40 212.62
845 19.1975 45218.00 45644.10 212.65
846 19.2108 44841.00 45610.40 211.76
847 19.2241 44812.00 45580.30 211.69
848 19.2374 44463.00 45551.90 210.86
849 19.2507 45370.00 45524.10 213.00
850 19.2640 45105.00 45496.50 212.38
851 19.2773 44718.00 45469.30 211.47
852 19.2906 44912.00 45442.50 211.93
853 19.3039 44991.00 45416.40 212.11
854 19.3172 44760.00 45391.30 211.57
855 19.3305 44675.00 45367.20 211.37
856 19.3438 44911.00 45344.40 211.92
857 19.3571 44882.00 45322.80 211.85
858 19.3704 44844.00 45302.40 211.76
859 19.3837 45244.00 45283.00 212.71
860 19.3970 45047.00 45264.80 212.24
861 19.4103 45134.00 45247.40 212.45
862 19.4236 44840.00 45231.00 211.76
863 19.4369 44715.00 45215.30 211.46
864 19.4502 44784.00 45200.30 211.62
865 19.4635 44694.00 45185.90 211.41
866 19.4768 44888.00 45172.00 211.87
867 19.4901 44894.00 45158.60 211.88
868 19.5034 44827.00 45145.60 211.72
869 19.5167 45044.00 45133.00 212.24
870 19.5300 44883.00 45120.80 211.86
871 19.5433 45265.00 45108.80 212.76
872 19.5566 44977.00 45097.10 212.08
873 19.5699 45002.00 45085.60 212.14
874 19.5832 45201.00 45074.30 212.60
875 19.5965 45074.00 45063.20 212.31
876 19.6098 45195.00 45052.20 212.59
877 19.6231 45010.00 45041.40 212.16
878 19.6364 45047.00 45030.60 212.24
879 19.6497 44854.00 45020.00 211.79
880 19.6630 45226.00 45009.40 212.66
881 19.6763 44877.00 44998.80 211.84
882 19.6896 44543.00 44988.30 211.05
883 19.7029 44474.00 44977.90 210.89
884 19.7162 44699.00 44967.40 211.42
885 19.7295 45077.00 44957.00 212.31
886 19.7428 44370.00 44946.50 210.64
887 19.7561 44695.00 44936.00 211.41
888 19.7694 44472.00 44925.50 210.88
889 19.7827 45054.00 44915.00 212.26
890 19.7960 44398.00 44904.40 210.71
891 19.8093 44535.00 44893.80 211.03
892 19.8226 44662.00 44883.10 211.33
893 19.8359 44633.00 44872.40 211.26
894 19.8492 44676.00 44861.60 211.37
895 19.8625 45101.00 44850.70 212.37
896 19.8758 44716.00 44839.80 211.46
897 19.8891 44944.00 44828.70 212.00
898 19.9024 44670.00 44784.30 211.35
899 19.9157 44329.00 44774.00 210.54
900 19.9290 44810.00 44763.50 211.68
901 19.9423 44869.00 44736.20 211.82
902 19.9555 44809.00 44726.00 211.68
903 19.9688 44795.00 44715.50 211.65
904 19.9821 44600.00 44704.90 211.19
905 19.9954 44653.00 44694.20 211.31
906 20.0087 44701.00 44683.30 211.43
907 20.0220 44505.00 44672.20 210.96
908 20.0353 44497.00 44661.00 210.94
909 20.0486 44721.00 44649.60 211.47
910 20.0619 44811.00 44638.10 211.69
911 20.0752 44640.00 44626.40 211.28
912 20.0885 44759.00 44614.50 211.56
913 20.1018 44243.00 44602.50 210.34
914 20.1151 44837.00 44590.30 211.75
915 20.1284 44687.00 44577.90 211.39
916 20.1417 44430.00 44565.40 210.78
917 20.1550 44335.00 44552.70 210.56
918 20.1683 44646.00 44539.80 211.30
919 20.1816 44580.00 44526.80 211.14
920 20.1949 44731.00 44513.60 211.50
921 20.2082 44574.00 44500.20 211.13
922 20.2215 44583.00 44486.70 211.15
923 20.2348 44673.00 44473.00 211.36
924 20.2481 44636.00 44459.10 211.27
925 20.2614 44383.00 44445.00 210.67
926 20.2747 44761.00 44430.80 211.57
927 20.2880 44559.00 44416.40 211.09
928 20.3013 44778.00 44401.80 211.61
929 20.3146 44322.00 44387.10 210.53
930 20.3279 44682.00 44372.10 211.38
931 20.3412 44885.00 44357.00 211.86
932 20.3545 44145.00 44341.70 210.11
933 20.3678 44406.00 44326.20 210.73
934 20.3811 44642.00 44310.60 211.29
935 20.3944 44609.00 44294.80 211.21
936 20.4077 44646.00 44278.80 211.30
937 20.4210 44641.00 44262.60 211.28
938 20.4343 44373.00 44246.20 210.65
939 20.4476 44626.00 44229.70 211.25
940 20.4609 44603.00 44212.90 211.19
941 20.4742 44295.00 44196.00 210.46
942 20.4875 44550.00 44178.90 211.07
943 20.5008 44117.00 44161.60 210.04
944 20.5141 44267.00 44144.20 210.40
945 20.5274 44340.00 44126.50 210.57
946 20.5407 44175.00 44108.70 210.18
947 20.5540 44435.00 44090.70 210.80
948 20.5673 44127.00 44072.50 210.06
949 20.5806 44086.00 44054.10 209.97
950 20.5939 44341.00 44035.50 210.57
951 20.6072 44352.00 44016.70 210.60
952 20.6205 44436.00 43997.80 210.80
953 20.6338 44407.00 43978.70 210.73
954 20.6471 44220.00 43959.30 210.29
955 20.6604 44242.00 43939.80 210.34
956 20.6737 44219.00 43920.10 210.28
957 20.6870 44111.00 43900.30 210.03
958 20.7003 44218.00 43880.20 210.28
959 20.7136 43890.00 43859.90 209.50
960 20.7269 44311.00 43839.50 210.50
961 20.7402 43829.00 43818.90 209.35
962 20.7535 44142.00 43798.00 210.10
963 20.7668 44402.00 43777.00 210.72
964 20.7801 43760.00 43755.80 209.19
965 20.7934 43881.00 43734.40 209.48
966 20.8067 43806.00 43712.90 209.30
967 20.8200 43989.00 43691.10 209.74
968 20.8333 44133.00 43669.20 210.08
969 20.8466 43935.00 43647.00 209.61
970 20.8599 44120.00 43624.70 210.05
971 20.8732 43946.00 43602.20 209.63
972 20.8865 43982.00 43579.50 209.72
973 20.8998 43892.00 43556.60 209.50
974 20.9131 43557.00 43533.50 208.70
975 20.9264 43794.00 43510.20 209.27
976 20.9397 43808.00 43486.70 209.30
977 20.9530 43747.00 43463.10 209.16
978 20.9663 43923.00 43439.30 209.58
979 20.9796 43865.00 43415.20 209.44
980 20.9929 43421.00 43391.00 208.38
981 21.0062 43686.00 43366.60 209.01
982 21.0195 43546.00 43342.00 208.68
983 21.0328 43679.00 43317.20 208.99
984 21.0461 43309.00 43292.30 208.11
985 21.0594 43939.00 43268.60 209.62
986 21.0727 43836.00 43243.30 209.37
987 21.0860 43893.00 43217.80 209.51
988 21.0993 43231.00 43192.20 207.92
989 21.1126 43671.00 43167.00 208.98
990 21.1259 43426.00 43141.00 208.39
991 21.1392 43726.00 43114.80 209.11
992 21.1525 43267.00 43088.40 208.01
993 21.1658 43440.00 43061.80 208.42
994 21.1791 43825.00 43035.10 209.34
995 21.1924 43504.00 43008.10 208.58
996 21.2057 43726.00 42981.00 209.11
997 21.2190 43448.00 42953.70 208.44
998 21.2323 43291.00 42926.20 208.07
999 21.2456 43205.00 42898.50 207.86
1000 21.2589 43462.00 42870.70 208.48
1001 21.2722 43122.00 42842.70 207.66
1002 21.2855 43715.00 42814.50 209.08
1003 21.2988 43295.00 42786.10 208.07
1004 21.3121 43281.00 42757.50 208.04
1005 21.3254 43529.00 42728.80 208.64
1006 21.3387 43268.00 42699.90 208.01
1007 21.3520 43475.00 42670.80 208.51
1008 21.3653 43056.00 42641.60 207.50
1009 21.3786 43161.00 42612.10 207.75
1010 21.3919 43017.00 42582.50 207.40
1011 21.4052 42898.00 42552.80 207.12
1012 21.4185 43352.00 42522.80 208.21
1013 21.4318 43085.00 42492.70 207.57
1014 21.4451 43017.00 42618.60 207.40
1015 21.4584 42600.00 42591.50 206.40
1016 21.4717 43080.00 42564.30 207.56
1017 21.4849 43123.00 42537.30 207.66
1018 21.4982 43070.00 42510.10 207.53
1019 21.5115 43102.00 42561.30 207.61
1020 21.5248 43126.00 42535.70 207.67
1021 21.5381 43133.00 42510.10 207.68
1022 21.5514 42702.00 42484.60 206.65
1023 21.5647 42953.00 42459.10 207.25
1024 21.5780 42947.00 42433.70 207.24
1025 21.5913 42860.00 42408.40 207.03
1026 21.6046 42996.00 42383.20 207.35
1027 21.6179 42678.00 42358.00 206.59
1028 21.6312 43166.00 42333.00 207.76
1029 21.6445 43091.00 42308.20 207.58
1030 21.6578 42640.00 42283.50 206.49
1031 21.6711 42878.00 42259.00 207.07
1032 21.6844 43208.00 42234.60 207.87
1033 21.6977 42881.00 42210.50 207.08
1034 21.7110 43052.00 42186.70 207.49
1035 21.7243 42974.00 42163.10 207.30
1036 21.7376 43060.00 42139.80 207.51
1037 21.7509 43215.00 42116.80 207.88
1038 21.7642 42963.00 42094.20 207.27
1039 21.7775 42997.00 42072.00 207.36
1040 21.7908 42814.00 42050.30 206.91
1041 21.8041 42711.00 42029.10 206.67
1042 21.8174 42895.00 42008.50 207.11
1043 21.8307 42467.00 41988.60 206.07
1044 21.8440 42431.00 41969.30 205.99
1045 21.8573 42588.00 41950.90 206.37
1046 21.8706 42279.00 41933.40 205.62
1047 21.8839 42670.00 41916.80 206.57
1048 21.8972 42534.00 41901.30 206.24
1049 21.9105 42197.00 41886.80 205.42
1050 21.9238 42661.00 41873.60 206.54
1051 21.9371 42171.00 41861.60 205.36
1052 21.9504 42060.00 41851.00 205.09
1053 21.9637 42126.00 41841.80 205.25
1054 21.9770 42417.00 41834.50 205.95
1055 21.9903 42301.00 41829.30 205.67
1056 22.0036 41983.00 41827.00 204.90
1057 22.0169 42416.00 41828.40 205.95
1058 22.0302 41895.00 41835.20 204.68
1059 22.0435 42275.00 41849.20 205.61
1060 22.0568 41927.00 41873.20 204.76
1061 22.0701 42066.00 41910.10 205.10
1062 22.0834 42104.00 41963.30 205.19
1063 22.0967 41835.00 42035.20 204.54
1064 22.1100 42070.00 42126.50 205.11
1065 22.1233 42546.00 42234.50 206.27
1066 22.1366 41919.00 42352.20 204.74
1067 22.1499 42261.00 42467.60 205.57
1068 22.1632 42563.00 42564.90 206.31
1069 22.1765 42323.00 42628.60 205.73
1070 22.1898 42361.00 42651.60 205.82
1071 22.2031 42325.00 42661.10 205.73
1072 22.2164 42272.00 42630.60 205.60
1073 22.2297 42141.00 42594.70 205.28
1074 22.2430 41822.00 42561.40 204.50
1075 22.2563 42269.00 42537.70 205.59
1076 22.2696 41968.00 42542.60 204.86
1077 22.2829 42346.00 42563.80 205.78
1078 22.2962 42224.00 42616.80 205.49
1079 22.3095 42109.00 42703.70 205.21
1080 22.3228 42312.00 42824.80 205.70
1081 22.3361 42366.00 42980.50 205.83
1082 22.3494 42418.00 43171.30 205.96
1083 22.3627 42601.00 43398.20 206.40
1084 22.3760 42291.00 43662.10 205.65
1085 22.3893 42439.00 43963.60 206.01
1086 22.4026 42924.00 44303.10 207.18
1087 22.4159 42905.00 44681.40 207.13
1088 22.4292 43299.00 45100.10 208.08
1089 22.4425 43612.00 45564.20 208.84
1090 22.4558 43788.00 46084.00 209.26
1091 22.4691 44480.00 46678.80 210.90
1092 22.4824 45271.00 47381.50 212.77
1093 22.4957 46159.00 48243.60 214.85
1094 22.5090 47057.00 49341.90 216.93
1095 22.5223 48214.00 50785.30 219.58
1096 22.5356 50527.00 52720.60 224.78
1097 22.5489 53093.00 55334.20 230.42
1098 22.5622 56460.00 58845.40 237.61
1099 22.5755 61257.00 63483.50 247.50
1100 22.5888 67079.00 69442.70 259.00
1101 22.6021 74747.00 76814.80 273.40
1102 22.6154 83886.00 85510.90 289.63
1103 22.6287 94003.00 95173.30 306.60
1104 22.6420 105185.00 105111.00 324.32
1105 22.6553 113963.00 114290.00 337.58
1106 22.6686 119829.00 121434.00 346.16
1107 22.6819 122687.00 125329.00 350.27
1108 22.6952 122328.00 125329.00 349.75
1109 22.7085 118018.00 121720.00 343.54
1110 22.7218 112313.00 115509.00 335.13
1111 22.7351 104924.00 107775.00 323.92
1112 22.7484 96646.00 99270.70 310.88
1113 22.7617 88376.00 90547.90 297.28
1114 22.7750 80084.00 82172.00 282.99
1115 22.7883 73133.00 74662.90 270.43
1116 22.8016 67326.00 68321.10 259.47
1117 22.8149 62621.00 63172.50 250.24
1118 22.8282 58368.00 59129.50 241.60
1119 22.8415 55460.00 55840.10 235.50
1120 22.8548 52924.00 53168.70 230.05
1121 22.8681 51248.00 50960.50 226.38
1122 22.8814 49274.00 49657.70 221.98
1123 22.8947 47515.00 48109.50 217.98
1124 22.9080 46387.00 46807.30 215.38
1125 22.9213 45771.00 45718.20 213.94
1126 22.9346 45002.00 44814.20 212.14
1127 22.9479 44628.00 44069.90 211.25
1128 22.9612 44080.00 43462.00 209.95
1129 22.9745 43475.00 42969.20 208.51
1130 22.9878 43323.00 42572.10 208.14
1131 23.0010 42925.00 42255.90 207.18
1132 23.0143 42472.00 42000.70 206.09
1133 23.0276 42719.00 41795.90 206.69
1134 23.0409 42408.00 41630.30 205.93
1135 23.0542 42019.00 41494.90 204.99
1136 23.0675 42071.00 41382.40 205.11
1137 23.0808 41645.00 41287.60 204.07
1138 23.0941 41527.00 41206.60 203.78
1139 23.1074 41359.00 41137.10 203.37
1140 23.1207 41431.00 41077.80 203.55
1141 23.1340 41473.00 41028.50 203.65
1142 23.1473 41153.00 40989.80 202.86
1143 23.1606 40630.00 40963.70 201.57
1144 23.1739 40998.00 40954.10 202.48
1145 23.1872 41179.00 40967.40 202.93
1146 23.2005 41316.00 41013.70 203.26
1147 23.2138 41439.00 41108.80 203.57
1148 23.2271 41557.00 41275.30 203.85
1149 23.2404 41782.00 41544.60 204.41
1150 23.2537 42329.00 41957.80 205.74
1151 23.2670 42914.00 42563.60 207.16
1152 23.2803 43742.00 43411.90 209.15
1153 23.2936 44539.00 44541.10 211.04
1154 23.3069 45424.00 45959.50 213.13
1155 23.3202 46681.00 47626.30 216.06
1156 23.3335 47864.00 49434.00 218.78
1157 23.3468 49624.00 51210.90 222.76
1158 23.3601 51216.00 52727.20 226.31
1159 23.3734 51820.00 53743.90 227.64
1160 23.3867 52698.00 54090.90 229.56
1161 23.4000 52370.00 53755.40 228.85
1162 23.4133 51978.00 52883.70 227.99
1163 23.4266 50859.00 51679.20 225.52
1164 23.4399 49643.00 50293.00 222.81
1165 23.4532 48213.00 48816.30 219.57
1166 23.4665 46647.00 47335.20 215.98
1167 23.4798 45284.00 45951.40 212.80
1168 23.4931 44405.00 44749.60 210.73
1169 23.5064 43237.00 43768.40 207.93
1170 23.5197 42235.00 43002.70 205.51
1171 23.5330 41874.00 42424.20 204.63
1172 23.5463 41352.00 41998.90 203.35
1173 23.5596 41171.00 41698.30 202.91
1174 23.5729 41139.00 41502.30 202.83
1175 23.5862 40985.00 41397.60 202.45
1176 23.5995 41046.00 41375.60 202.60
1177 23.6128 41627.00 41429.40 204.03
1178 23.6261 41672.00 41553.30 204.14
1179 23.6394 42657.00 41742.80 206.54
1180 23.6527 42835.00 41995.80 206.97
1181 23.6660 43052.00 42314.50 207.49
1182 23.6793 43600.00 42708.20 208.81
1183 23.6926 44491.00 43197.20 210.93
1184 23.7059 45227.00 43818.20 212.67
1185 23.7192 46032.00 44630.80 214.55
1186 23.7325 47690.00 45725.60 218.38
1187 23.7458 49656.00 47230.30 222.84
1188 23.7591 51462.00 49310.50 226.85
1189 23.7724 54566.00 52152.00 233.59
1190 23.7857 57161.00 55916.70 239.08
1191 23.7990 61663.00 60667.70 248.32
1192 23.8123 66014.00 66277.30 256.93
1193 23.8256 71392.00 72350.60 267.19
1194 23.8389 76391.00 78200.80 276.39
1195 23.8522 80900.00 82929.30 284.43
1196 23.8655 84239.00 85699.20 290.24
1197 23.8788 86334.00 86206.00 293.83
1198 23.8921 86314.00 84948.30 293.79
1199 23.9054 85147.00 82818.10 291.80
1200 23.9187 82087.00 80416.50 286.51
1201 23.9320 78707.00 77931.20 280.55
1202 23.9453 76242.00 75549.90 276.12
1203 23.9586 73957.00 73586.20 271.95
1204 23.9719 72915.00 72935.20 270.03
1205 23.9852 73291.00 73890.00 270.72
1206 23.9985 76063.00 76715.50 275.80
1207 24.0118 80180.00 81498.20 283.16
1208 24.0251 86149.00 88517.00 293.51
1209 24.0384 95546.00 97778.20 309.11
1210 24.0517 107849.00 109263.00 328.40
1211 24.0650 122128.00 122757.00 349.47
1212 24.0783 137852.00 137767.00 371.28
1213 24.0916 155071.00 153441.00 393.79
1214 24.1049 170908.00 168553.00 413.41
1215 24.1182 182652.00 181565.00 427.38
1216 24.1315 190518.00 190844.00 436.48
1217 24.1448 193887.00 195076.00 440.33
1218 24.1581 192074.00 193757.00 438.26
1219 24.1714 185398.00 187404.00 430.58
1220 24.1847 175307.00 177246.00 418.70
1221 24.1980 162695.00 164624.00 403.36
1222 24.2113 149186.00 150629.00 386.25
1223 24.2246 134326.00 136139.00 366.51
1224 24.2379 120725.00 121975.00 347.45
1225 24.2512 107350.00 108866.00 327.64
1226 24.2645 96320.00 97310.70 310.36
1227 24.2778 86740.00 87489.90 294.52
1228 24.2911 79146.00 79376.20 281.33
1229 24.3044 71887.00 72636.30 268.12
1230 24.3177 66539.00 67057.20 257.95
1231 24.3310 61341.00 62396.70 247.67
1232 24.3443 57948.00 58488.10 240.72
1233 24.3576 54962.00 55137.40 234.44
1234 24.3709 51456.00 52269.30 226.84
1235 24.3842 49574.00 49811.50 222.65
1236 24.3975 47665.00 47709.20 218.32
1237 24.4108 46138.00 45916.40 214.80
1238 24.4241 44638.00 44393.80 211.28
1239 24.4374 43665.00 43105.50 208.96
1240 24.4507 42234.00 42019.10 205.51
1241 24.4640 41547.00 41105.30 203.83
1242 24.4773 41063.00 40337.80 202.64
1243 24.4906 39287.00 39693.10 198.21
1244 24.5039 39045.00 39150.30 197.60
1245 24.5171 38585.00 38693.70 196.43
1246 24.5304 38430.00 38300.00 196.04
1247 24.5437 37581.00 37958.60 193.86
1248 24.5570 37434.00 37657.20 193.48
1249 24.5703 36788.00 37386.00 191.80
1250 24.5836 36637.00 37137.10 191.41
1251 24.5969 36584.00 36883.70 191.27
1252 24.6102 35865.00 36663.40 189.38
1253 24.6235 35572.00 36452.00 188.60
1254 24.6368 35500.00 36247.70 188.41
1255 24.6501 35558.00 36039.10 188.57
1256 24.6634 34996.00 35846.80 187.07
1257 24.6767 34770.00 35660.10 186.47
1258 24.6900 34523.00 35479.20 185.80
1259 24.7033 34614.00 35304.40 186.05
1260 24.7166 34421.00 35135.80 185.53
1261 24.7299 34135.00 34973.90 184.76
1262 24.7432 34299.00 34818.70 185.20
1263 24.7565 34128.00 34670.40 184.74
1264 24.7698 33584.00 34529.10 183.26
1265 24.7831 33818.00 34394.60 183.90
1266 24.7964 33834.00 34266.90 183.94
1267 24.8097 33681.00 34146.00 183.52
1268 24.8230 33988.00 34033.40 184.36
1269 24.8363 33470.00 33925.80 182.95
1270 24.8496 33330.00 33824.80 182.57
1271 24.8629 33467.00 33730.40 182.94
1272 24.8762 33044.00 33642.80 181.78
1273 24.8895 33542.00 33563.00 183.15
1274 24.9028 33198.00 33489.90 182.20
1275 24.9161 32936.00 33424.90 181.48
1276 24.9294 33386.00 33368.90 182.72
1277 24.9427 33199.00 33257.40 182.21
1278 24.9560 33445.00 33224.40 182.88
1279 24.9693 33377.00 33204.30 182.69
1280 24.9826 33240.00 33198.60 182.32
1281 24.9959 33457.00 33176.20 182.91
1282 25.0092 33623.00 33204.80 183.37
1283 25.0225 34032.00 33252.00 184.48
1284 25.0358 33593.00 33318.60 183.28
1285 25.0491 33907.00 33405.60 184.14
1286 25.0624 34383.00 33515.20 185.43
1287 25.0757 34817.00 33652.10 186.59
1288 25.0890 35287.00 33827.00 187.85
1289 25.1023 35441.00 34060.00 188.26
1290 25.1156 36335.00 34386.40 190.62
1291 25.1289 37058.00 34863.30 192.51
1292 25.1422 38201.00 35577.20 195.45
1293 25.1555 39467.00 36648.20 198.66
1294 25.1688 41134.00 38224.40 202.82
1295 25.1821 42960.00 40455.00 207.27
1296 25.1954 45647.00 43432.80 213.65
1297 25.2087 48778.00 47110.70 220.86
1298 25.2220 51815.00 51223.40 227.63
1299 25.2353 54376.00 55239.20 233.19
1300 25.2486 57568.00 58405.80 239.93
1301 25.2619 58878.00 59978.60 242.65
1302 25.2752 59535.00 59678.40 244.00
1303 25.2885 58946.00 57982.20 242.79
1304 25.3018 57182.00 55697.00 239.13
1305 25.3151 54838.00 53245.30 234.18
1306 25.3284 51639.00 50550.00 227.24
1307 25.3417 48836.00 47495.30 220.99
1308 25.3550 45136.00 44291.10 212.45
1309 25.3683 42717.00 41335.90 206.68
1310 25.3816 39761.00 38892.90 199.40
1311 25.3949 38133.00 36998.50 195.28
1312 25.4082 35540.00 35555.90 188.52
1313 25.4215 34254.00 34443.30 185.08
1314 25.4348 33568.00 33566.70 183.22
1315 25.4481 33164.00 32867.40 182.11
1316 25.4614 32366.00 32309.10 179.91
1317 25.4747 31709.00 31865.30 178.07
1318 25.4880 31461.00 31512.80 177.37
1319 25.5013 31384.00 31231.20 177.15
1320 25.5146 30698.00 31003.40 175.21
1321 25.5279 30583.00 30815.90 174.88
1322 25.5412 30188.00 30658.30 173.75
1323 25.5545 30385.00 30522.50 174.31
1324 25.5678 29950.00 30402.40 173.06
1325 25.5811 30131.00 30293.40 173.58
1326 25.5944 29749.00 29913.40 172.48
1327 25.6077 29939.00 29822.30 173.03
1328 25.6210 29511.00 29735.00 171.79
1329 25.6343 29569.00 29650.70 171.96
1330 25.6476 29564.00 29568.80 171.94
1331 25.6609 29473.00 29352.50 171.68
1332 25.6742 28966.00 29277.80 170.19
1333 25.6875 29193.00 29205.40 170.86
1334 25.7008 29230.00 29135.30 170.97
1335 25.7141 29483.00 29067.30 171.71
1336 25.7274 28967.00 29001.50 170.20
1337 25.7407 29099.00 28937.80 170.58
1338 25.7540 28957.00 28876.00 170.17
1339 25.7673 28866.00 28816.00 169.90
1340 25.7806 28874.00 28757.60 169.92
1341 25.7939 28716.00 28700.70 169.46
1342 25.8072 28589.00 28645.30 169.08
1343 25.8205 28756.00 28591.10 169.58
1344 25.8338 28389.00 28538.10 168.49
1345 25.8471 28515.00 28486.20 168.86
1346 25.8604 28743.00 28435.30 169.54
1347 25.8737 28465.00 28385.30 168.72
1348 25.8870 28225.00 28336.20 168.00
1349 25.9003 28186.00 28288.00 167.89
1350 25.9136 28024.00 28240.60 167.40
1351 25.9269 28028.00 28193.90 167.42
1352 25.9402 28051.00 28147.90 167.48
1353 25.9535 27897.00 28102.60 167.02
1354 25.9668 27900.00 28058.00 167.03
1355 25.9801 27877.00 28014.10 166.96
1356 25.9934 27752.00 27970.80 166.59
1357 26.0067 27583.00 27928.10 166.08
1358 26.0200 27354.00 27886.00 165.39
1359 26.0333 27817.00 27844.40 166.78
1360 26.0465 27509.00 27803.80 165.86
1361 26.0598 27667.00 27763.30 166.33
1362 26.0731 27292.00 27723.50 165.20
1363 26.0864 27707.00 27684.20 166.45
1364 26.0997 27718.00 27645.50 166.49
1365 26.1130 27403.00 27607.40 165.54
1366 26.1263 27254.00 27570.00 165.09
1367 26.1396 27474.00 27533.60 165.75
1368 26.1529 27424.00 27498.10 165.60
1369 26.1662 27169.00 27464.10 164.83
1370 26.1795 27384.00 27431.80 165.48
1371 26.1928 27374.00 27401.80 165.45
1372 26.2061 26956.00 27374.70 164.18
1373 26.2194 27122.00 27351.30 164.69
1374 26.2327 27231.00 27332.60 165.02
1375 26.2460 27224.00 27319.70 165.00
1376 26.2593 27135.00 27313.60 164.73
1377 26.2726 27159.00 27263.40 164.80
1378 26.2859 27130.00 27275.30 164.71
1379 26.2992 27345.00 27296.20 165.36
1380 26.3125 27171.00 27325.70 164.84
1381 26.3258 27340.00 27362.60 165.35
1382 26.3391 27311.00 27378.70 165.26
1383 26.3524 27408.00 27422.10 165.55
1384 26.3657 27163.00 27461.70 164.81
1385 26.3790 27550.00 27491.20 165.98
1386 26.3923 27596.00 27504.50 166.12
1387 26.4056 27397.00 27496.50 165.52
1388 26.4189 27568.00 27463.90 166.04
1389 26.4322 27261.00 27407.60 165.11
1390 26.4455 27592.00 27331.50 166.11
1391 26.4588 27164.00 27240.70 164.82
1392 26.4721 27237.00 27140.30 165.04
1393 26.4854 27244.00 27034.00 165.06
1394 26.4987 27185.00 26925.70 164.88
1395 26.5120 26895.00 26818.80 164.00
1396 26.5253 26697.00 26716.10 163.39
1397 26.5386 26930.00 26619.90 164.10
1398 26.5519 26731.00 26531.10 163.50
1399 26.5652 26516.00 26449.90 162.84
1400 26.5785 26715.00 26375.50 163.45
1401 26.5918 26829.00 26307.10 163.80
1402 26.6051 26718.00 26243.70 163.46
1403 26.6184 26606.00 26184.40 163.11
1404 26.6317 26688.00 26128.60 163.37
1405 26.6450 26549.00 26075.80 162.94
1406 26.6583 26554.00 26025.40 162.95
1407 26.6716 26419.00 25977.10 162.54
1408 26.6849 26071.00 25930.80 161.46
1409 26.6982 26159.00 25886.00 161.74
1410 26.7115 26217.00 25842.80 161.92
1411 26.7248 26180.00 25800.80 161.80
1412 26.7381 25972.00 25759.90 161.16
1413 26.7514 26010.00 25719.90 161.28
1414 26.7647 25508.00 25680.90 159.71
1415 26.7780 26135.00 25642.50 161.66
1416 26.7913 25878.00 25604.80 160.87
1417 26.8046 25966.00 25567.60 161.14
1418 26.8179 25838.00 25530.90 160.74
1419 26.8312 25544.00 25494.60 159.82
1420 26.8445 25730.00 25458.60 160.41
1421 26.8578 25752.00 25423.00 160.47
1422 26.8711 25642.00 25387.60 160.13
1423 26.8844 25610.00 25352.30 160.03
1424 26.8977 25723.00 25317.30 160.38
1425 26.9110 25980.00 25282.40 161.18
1426 26.9243 26646.00 25247.70 163.24
1427 26.9376 27058.00 25213.10 164.49
1428 26.9509 27388.00 25178.60 165.49
1429 26.9642 27616.00 25144.20 166.18
1430 26.9775 28211.00 25110.00 167.96
1431 26.9908 28245.00 25075.80 168.06
1432 27.0041 28322.00 25041.80 168.29
1433 27.0174 28318.00 25007.90 168.28
1434 27.0307 27375.00 24974.00 165.45
1435 27.0440 26678.00 24940.30 163.33
1436 27.0573 26871.00 24906.70 163.92
1437 27.0706 26451.00 24873.30 162.64
1438 27.0839 25461.00 24840.00 159.57
1439 27.0972 25356.00 24806.80 159.24
1440 27.1105 24864.00 24773.70 157.68
1441 27.1238 24802.00 24740.80 157.49
1442 27.1371 24668.00 24708.10 157.06
1443 27.1504 24593.00 24675.50 156.82
1444 27.1637 24550.00 24643.10 156.68
1445 27.1770 24205.00 24610.90 155.58
1446 27.1903 24334.00 24578.90 155.99
1447 27.2036 24512.00 24547.00 156.56
1448 27.2169 24401.00 24515.40 156.21
1449 27.2302 24089.00 24483.90 155.21
1450 27.2435 24393.00 24452.80 156.18
1451 27.2568 24278.00 24421.90 155.81
1452 27.2701 24175.00 24391.40 155.48
1453 27.2834 24645.00 24361.50 156.99
1454 27.2967 24483.00 24332.40 156.47
1455 27.3100 24005.00 24304.70 154.93
1456 27.3233 24195.00 24278.70 155.55
1457 27.3366 24153.00 24255.40 155.41
1458 27.3499 24036.00 24235.40 155.04
1459 27.3632 24202.00 24219.30 155.57
1460 27.3765 23997.00 24207.40 154.91
1461 27.3898 24250.00 24199.00 155.72
1462 27.4031 23762.00 24192.10 154.15
1463 27.4164 23741.00 24183.70 154.08
1464 27.4297 23673.00 24169.60 153.86
1465 27.4430 24131.00 24146.20 155.34
1466 27.4563 24299.00 24112.70 155.88
1467 27.4696 23881.00 24071.90 154.54
1468 27.4829 23889.00 24028.30 154.56
1469 27.4962 23628.00 24016.10 153.71
1470 27.5095 23559.00 23971.50 153.49
1471 27.5228 23599.00 23924.70 153.62
1472 27.5361 23549.00 23876.50 153.46
1473 27.5494 23633.00 23828.70 153.73
1474 27.5626 23245.00 23877.90 152.46
1475 27.5759 23527.00 23837.20 153.38
1476 27.5892 23470.00 23799.50 153.20
1477 27.6025 23328.00 23764.20 152.74
1478 27.6158 23246.00 23730.80 152.47
1479 27.6291 23348.00 23737.20 152.80
1480 27.6424 23278.00 23706.80 152.57
1481 27.6557 23290.00 23677.40 152.61
1482 27.6690 23468.00 23648.90 153.19
1483 27.6823 23284.00 23621.00 152.59
1484 27.6956 23426.00 23593.80 153.06
1485 27.7089 23052.00 23567.10 151.83
1486 27.7222 23088.00 23540.80 151.95
1487 27.7355 23314.00 23514.90 152.69
1488 27.7488 22985.00 23489.40 151.61
1489 27.7621 23044.00 23464.30 151.80
1490 27.7754 23155.00 23439.50 152.17
1491 27.7887 22810.00 23415.00 151.03
1492 27.8020 22972.00 23390.80 151.57
1493 27.8153 23132.00 23366.90 152.09
1494 27.8286 22868.00 23343.40 151.22
1495 27.8419 22959.00 23320.20 151.52
1496 27.8552 22819.00 23297.30 151.06
1497 27.8685 22874.00 23274.80 151.24
1498 27.8818 23009.00 23252.70 151.69
1499 27.8951 22899.00 23231.10 151.32
1500 27.9084 22790.00 23209.80 150.96
1501 27.9217 22884.00 23189.00 151.27
1502 27.9350 22851.00 23168.70 151.16
1503 27.9483 22909.00 23148.90 151.36
1504 27.9616 22943.00 23129.60 151.47
1505 27.9749 22748.00 23110.90 150.82
1506 27.9882 22845.00 23092.80 151.15
1507 28.0015 22828.00 23075.40 151.09
1508 28.0148 22991.00 23058.70 151.63
1509 28.0281 22733.00 23042.80 150.77
1510 28.0414 22860.00 23026.20 151.20
1511 28.0547 22524.00 23012.10 150.08
1512 28.0680 23033.00 22999.00 151.77
1513 28.0813 22514.00 22986.90 150.05
1514 28.0946 22659.00 22976.10 150.53
1515 28.1079 22856.00 22965.90 151.18
1516 28.1212 22478.00 22958.00 149.93
1517 28.1345 22666.00 22952.00 150.55
1518 28.1478 22605.00 22948.00 150.35
1519 28.1611 22701.00 22946.40 150.67
1520 28.1744 22710.00 22947.80 150.70
1521 28.1877 22666.00 22952.50 150.55
1522 28.2010 22631.00 22961.30 150.44
1523 28.2143 22575.00 22975.00 150.25
1524 28.2276 22675.00 22994.10 150.58
1525 28.2409 22402.00 23019.70 149.67
1526 28.2542 22774.00 23052.40 150.91
1527 28.2675 22695.00 23093.10 150.65
1528 28.2808 22737.00 23142.30 150.79
1529 28.2941 22609.00 23200.70 150.36
1530 28.3074 22805.00 23268.80 151.01
1531 28.3207 22761.00 23347.80 150.87
1532 28.3340 22693.00 23439.80 150.64
1533 28.3473 22547.00 23549.00 150.16
1534 28.3606 22651.00 23683.20 150.50
1535 28.3739 22874.00 23855.40 151.24
1536 28.3872 22963.00 24086.80 151.54
1537 28.4005 23145.00 24409.20 152.13
1538 28.4138 23620.00 24867.70 153.69
1539 28.4271 24226.00 25521.40 155.65
1540 28.4404 24844.00 26439.30 157.62
1541 28.4537 25947.00 27686.20 161.08
1542 28.4670 27870.00 29299.90 166.94
1543 28.4803 30097.00 31257.20 173.49
1544 28.4936 32740.00 33443.00 180.94
1545 28.5069 34808.00 35629.40 186.57
1546 28.5202 37108.00 37485.10 192.63
1547 28.5335 38419.00 38646.50 196.01
1548 28.5468 38553.00 38892.10 196.35
1549 28.5601 38508.00 38323.90 196.24
1550 28.5734 37575.00 37309.40 193.84
1551 28.5867 36060.00 36176.00 189.90
1552 28.6000 34162.00 35001.00 184.83
1553 28.6133 32453.00 33680.50 180.15
1554 28.6266 31253.00 32144.20 176.79
1555 28.6399 29555.00 30490.50 171.92
1556 28.6532 27707.00 28914.30 166.45
1557 28.6665 26185.00 27565.30 161.82
1558 28.6798 24755.00 26487.80 157.34
1559 28.6931 24018.00 25654.60 154.98
1560 28.7064 23429.00 25012.80 153.07
1561 28.7197 23061.00 24514.80 151.86
1562 28.7330 22789.00 24127.00 150.96
1563 28.7463 22612.00 23827.40 150.37
1564 28.7596 22852.00 23600.40 151.17
1565 28.7729 22308.00 23433.50 149.36
1566 28.7862 22270.00 23315.50 149.23
1567 28.7995 22704.00 23237.10 150.68
1568 28.8128 22304.00 23190.90 149.35
1569 28.8261 22345.00 23170.90 149.48
1570 28.8394 22337.00 23172.80 149.46
1571 28.8527 22161.00 23193.30 148.87
1572 28.8660 22426.00 23230.00 149.75
1573 28.8793 22910.00 23280.90 151.36
1574 28.8926 22634.00 23344.70 150.45
1575 28.9059 22602.00 23420.40 150.34
1576 28.9192 22689.00 23507.70 150.63
1577 28.9325 22725.00 23606.70 150.75
1578 28.9458 23321.00 23717.80 152.71
1579 28.9591 23196.00 23842.40 152.30
1580 28.9724 23543.00 23982.50 153.44
1581 28.9857 23763.00 24141.30 154.15
1582 28.9990 23824.00 24323.40 154.35
1583 29.0123 24283.00 24535.20 155.83
1584 29.0256 24605.00 24785.50 156.86
1585 29.0389 25143.00 25086.30 158.57
1586 29.0522 25666.00 25452.50 160.21
1587 29.0655 26191.00 25904.00 161.84
1588 29.0788 26551.00 26464.80 162.95
1589 29.0920 27395.00 27158.40 165.51
1590 29.1053 28830.00 28029.80 169.79
1591 29.1186 29936.00 29113.60 173.02
1592 29.1319 31047.00 30500.30 176.20
1593 29.1452 32768.00 32135.50 181.02
1594 29.1585 35066.00 34103.90 187.26
1595 29.1718 37085.00 36433.30 192.57
1596 29.1851 39873.00 39135.10 199.68
1597 29.1984 42914.00 42194.00 207.16
1598 29.2117 46289.00 45590.60 215.15
1599 29.2250 50181.00 49191.20 224.01
1600 29.2383 54015.00 52895.10 232.41
1601 29.2516 58349.00 56530.90 241.55
1602 29.2649 61622.00 59887.60 248.24
1603 29.2782 64654.00 62732.20 254.27
1604 29.2915 66989.00 64834.00 258.82
1605 29.3048 67982.00 66014.40 260.73
1606 29.3181 68315.00 66188.90 261.37
1607 29.3314 67610.00 65392.20 260.02
1608 29.3447 65434.00 63759.30 255.80
1609 29.3580 63406.00 61474.10 251.80
1610 29.3713 60468.00 58716.90 245.90
1611 29.3846 57153.00 55644.20 239.07
1612 29.3979 54226.00 52389.20 232.87
1613 29.4112 50696.00 49081.70 225.16
1614 29.4245 47625.00 45844.00 218.23
1615 29.4378 43964.00 42785.00 209.68
1616 29.4511 41174.00 39979.50 202.91
1617 29.4644 38284.00 37468.40 195.66
1618 29.4777 36577.00 35257.30 191.25
1619 29.4910 34224.00 33331.60 185.00
1620 29.5043 32834.00 31662.80 181.20
1621 29.5176 31011.00 30218.50 176.10
1622 29.5309 29903.00 28968.00 172.93
1623 29.5442 28743.00 27882.80 169.54
1624 29.5575 27661.00 26940.10 166.32
1625 29.5708 27040.00 26119.70 164.44
1626 29.5841 25908.00 25406.00 160.96
1627 29.5974 25105.00 24785.10 158.45
1628 29.6107 24643.00 24214.30 156.98
1629 29.6240 23808.00 23746.90 154.30
1630 29.6373 23945.00 23341.90 154.74
1631 29.6506 23274.00 22991.10 152.56
1632 29.6639 22828.00 22687.20 151.09
1633 29.6772 22664.00 22424.10 150.55
1634 29.6905 22286.00 22180.80 149.29
1635 29.7038 22005.00 21983.80 148.34
1636 29.7171 21902.00 21813.20 147.99
1637 29.7304 21739.00 21665.20 147.44
1638 29.7437 21766.00 21536.90 147.53
1639 29.7570 21535.00 21425.50 146.75
1640 29.7703 21306.00 21328.70 145.97
1641 29.7836 21278.00 21244.50 145.87
1642 29.7969 21326.00 21171.10 146.03
1643 29.8102 20832.00 21107.30 144.33
1644 29.8235 21093.00 21051.80 145.23
1645 29.8368 20849.00 21004.00 144.39
1646 29.8501 20991.00 20963.30 144.88
1647 29.8634 21168.00 20929.50 145.49
1648 29.8767 21080.00 20902.80 145.19
1649 29.8900 20916.00 20883.50 144.62
1650 29.9033 20932.00 20872.10 144.68
1651 29.9166 20993.00 20869.30 144.89
1652 29.9299 20770.00 20876.10 144.12
1653 29.9432 20755.00 20893.20 144.07
1654 29.9565 20985.00 20921.60 144.86
1655 29.9698 21193.00 20962.10 145.58
1656 29.9831 20849.00 21015.40 144.39
1657 29.9964 21509.00 21082.20 146.66
1658 30.0097 21366.00 21163.80 146.17
1659 30.0230 21759.00 21262.10 147.51
1660 30.0363 21931.00 21381.00 148.09
1661 30.0496 22263.00 21527.40 149.21
1662 30.0629 22811.00 21712.90 151.03
1663 30.0762 22847.00 21956.60 151.15
1664 30.0895 23589.00 22287.20 153.59
1665 30.1028 24138.00 22746.80 155.36
1666 30.1161 25052.00 23392.50 158.28
1667 30.1294 25694.00 24297.90 160.29
1668 30.1427 27420.00 25546.70 165.59
1669 30.1560 29359.00 27218.80 171.35
1670 30.1693 30722.00 29366.90 175.28
1671 30.1826 33323.00 31981.50 182.55
1672 30.1959 36276.00 34954.00 190.46
1673 30.2092 39138.00 38052.80 197.83
1674 30.2225 41726.00 40911.20 204.27
1675 30.2358 43728.00 43074.80 209.11
1676 30.2491 45468.00 44139.30 213.23
1677 30.2624 45831.00 43988.60 214.08
1678 30.2757 45083.00 42912.40 212.33
1679 30.2890 44226.00 41399.40 210.30
1680 30.3023 41979.00 39781.20 204.89
1681 30.3156 39722.00 38082.60 199.30
1682 30.3289 37713.00 36161.90 194.20
1683 30.3422 35081.00 33951.90 187.30
1684 30.3555 32727.00 31585.80 180.91
1685 30.3688 30148.00 29309.70 173.63
1686 30.3821 28179.00 27314.70 167.87
1687 30.3954 26368.00 25672.80 162.38
1688 30.4087 24780.00 24361.00 157.42
1689 30.4220 23127.00 23319.40 152.08
1690 30.4353 22570.00 22485.40 150.23
1691 30.4486 21686.00 21811.40 147.26
1692 30.4619 20990.00 21263.80 144.88
1693 30.4752 20836.00 20819.20 144.35
1694 30.4885 20239.00 20458.70 142.26
1695 30.5018 20082.00 20166.50 141.71
1696 30.5151 19677.00 19928.60 140.27
1697 30.5284 19590.00 19733.30 139.96
1698 30.5417 19537.00 19571.00 139.77
1699 30.5550 19220.00 19434.40 138.64
1700 30.5683 19463.00 19317.70 139.51
1701 30.5816 19455.00 19216.30 139.48
1702 30.5949 19128.00 19126.70 138.30
1703 30.6081 18982.00 19046.60 137.77
1704 30.6214 18704.00 18972.70 136.76
1705 30.6347 18487.00 18904.00 135.97
1706 30.6480 18726.00 18839.40 136.84
1707 30.6613 18693.00 18777.90 136.72
1708 30.6746 18588.00 18719.20 136.34
1709 30.6879 18403.00 18662.80 135.66
1710 30.7012 18339.00 18608.50 135.42
1711 30.7145 18121.00 18556.30 134.61
1712 30.7278 18166.00 18506.10 134.78
1713 30.7411 17813.00 18457.70 133.46
1714 30.7544 18101.00 18411.10 134.54
1715 30.7677 17982.00 18366.20 134.10
1716 30.7810 18007.00 18323.00 134.19
1717 30.7943 17899.00 18281.80 133.79
1718 30.8076 17869.00 18241.50 133.68
1719 30.8209 17860.00 18202.60 133.64
1720 30.8342 17937.00 18164.90 133.93
1721 30.8475 17874.00 18128.30 133.69
1722 30.8608 17730.00 18092.80 133.15
1723 30.8741 17825.00 18058.60 133.51
1724 30.8874 17917.00 18025.00 133.85
1725 30.9007 17638.00 17992.20 132.81
1726 30.9140 17610.00 17960.20 132.70
1727 30.9273 17806.00 17928.90 133.44
1728 30.9406 17499.00 17898.30 132.28
1729 30.9539 17674.00 17868.30 132.94
1730 30.9672 17630.00 17838.90 132.78
1731 30.9805 17584.00 17810.00 132.60
1732 30.9938 17405.00 17781.60 131.93
1733 31.0071 17322.00 17753.70 131.61
1734 31.0204 17521.00 17726.20 132.37
1735 31.0337 17338.00 17699.10 131.67
1736 31.0470 17439.00 17672.50 132.06
1737 31.0603 17424.00 17646.20 132.00
1738 31.0736 17416.00 17620.20 131.97
1739 31.0869 17280.00 17517.10 131.45
1740 31.1002 17348.00 17493.00 131.71
1741 31.1135 17266.00 17469.10 131.40
1742 31.1268 17185.00 17445.40 131.09
1743 31.1401 17217.00 17422.00 131.21
1744 31.1534 17325.00 17398.80 131.62
1745 31.1667 17102.00 17337.80 130.77
1746 31.1800 17093.00 17315.60 130.74
1747 31.1933 16984.00 17293.60 130.32
1748 31.2066 17228.00 17271.80 131.26
1749 31.2199 16955.00 17250.10 130.21
1750 31.2332 16900.00 17228.60 130.00
1751 31.2465 16991.00 17207.30 130.35
1752 31.2598 17022.00 17186.10 130.47
1753 31.2731 16838.00 17165.00 129.76
1754 31.2864 16897.00 17144.10 129.99
1755 31.2997 16907.00 17123.30 130.03
1756 31.3130 16944.00 17102.60 130.17
1757 31.3263 17038.00 17082.10 130.53
1758 31.3396 17098.00 17061.70 130.76
1759 31.3529 16933.00 17041.40 130.13
1760 31.3662 16787.00 17021.10 129.57
1761 31.3795 17022.00 17001.00 130.47
1762 31.3928 17122.00 16932.70 130.85
1763 31.4061 17118.00 16913.90 130.84
1764 31.4194 16923.00 16895.20 130.09
1765 31.4327 17051.00 16876.50 130.58
1766 31.4460 16782.00 16857.90 129.54
1767 31.4593 16878.00 16839.30 129.91
1768 31.4726 16854.00 16797.00 129.82
1769 31.4859 16864.00 16779.00 129.86
1770 31.4992 16787.00 16761.10 129.57
1771 31.5125 17410.00 16743.30 131.95
1772 31.5258 16937.00 16725.40 130.14
1773 31.5391 16845.00 16707.70 129.79
1774 31.5524 16858.00 16689.90 129.84
1775 31.5657 16981.00 16672.20 130.31
1776 31.5790 17009.00 16654.50 130.42
1777 31.5923 17091.00 16636.80 130.73
1778 31.6056 17187.00 16619.20 131.10
1779 31.6189 17164.00 16601.60 131.01
1780 31.6322 17457.00 16584.00 132.12
1781 31.6455 17388.00 16566.50 131.86
1782 31.6588 17553.00 16549.00 132.49
1783 31.6721 17701.00 16531.50 133.04
1784 31.6854 17752.00 16514.10 133.24
1785 31.6987 17621.00 16496.70 132.74
1786 31.7120 17802.00 16479.30 133.42
1787 31.7253 17454.00 16462.00 132.11
1788 31.7386 17096.00 16444.70 130.75
1789 31.7519 17309.00 16427.40 131.56
1790 31.7652 17375.00 16410.20 131.81
1791 31.7785 16983.00 16393.00 130.32
1792 31.7918 16819.00 16375.90 129.69
1793 31.8051 16831.00 16358.70 129.73
1794 31.8184 16546.00 16341.70 128.63
1795 31.8317 16503.00 16324.60 128.46
1796 31.8450 16467.00 16307.60 128.32
1797 31.8583 16403.00 16290.60 128.07
1798 31.8716 16313.00 16273.70 127.72
1799 31.8849 16207.00 16256.80 127.31
1800 31.8982 16378.00 16239.90 127.98
1801 31.9115 16179.00 16223.10 127.20
1802 31.9248 16222.00 16206.30 127.37
1803 31.9381 15983.00 16189.50 126.42
1804 31.9514 15814.00 16172.80 125.75
1805 31.9647 16060.00 16156.10 126.73
1806 31.9780 16102.00 16139.50 126.89
1807 31.9913 16141.00 16122.90 127.05
1808 32.0046 16252.00 16106.30 127.48
1809 32.0179 16170.00 16089.80 127.16
1810 32.0312 15736.00 16073.40 125.44
1811 32.0445 15909.00 16057.00 126.13
1812 32.0578 15845.00 16040.60 125.88
1813 32.0711 15901.00 16024.30 126.10
1814 32.0844 15918.00 16008.00 126.17
1815 32.0977 15734.00 15991.80 125.43
1816 32.1110 15912.00 15975.60 126.14
1817 32.1243 15799.00 15959.60 125.69
1818 32.1375 15798.00 15943.60 125.69
1819 32.1508 15640.00 15927.70 125.06
1820 32.1641 15922.00 15911.80 126.18
1821 32.1774 15671.00 15895.90 125.18
1822 32.1907 15761.00 15880.20 125.54
1823 32.2040 15679.00 15864.50 125.22
1824 32.2173 15703.00 15848.80 125.31
1825 32.2306 15667.00 15833.30 125.17
1826 32.2439 15621.00 15817.80 124.98
1827 32.2572 15822.00 15802.40 125.79
1828 32.2705 15489.00 15787.10 124.46
1829 32.2838 15729.00 15771.80 125.42
1830 32.2971 15674.00 15756.70 125.20
1831 32.3104 15607.00 15741.70 124.93
1832 32.3237 15462.00 15726.70 124.35
1833 32.3370 15578.00 15713.10 124.81
1834 32.3503 15674.00 15698.50 125.20
1835 32.3636 15536.00 15684.00 124.64
1836 32.3769 15511.00 15669.80 124.54
1837 32.3902 15532.00 15655.80 124.63
1838 32.4035 15340.00 15642.20 123.86
1839 32.4168 15097.00 15629.70 122.87
1840 32.4301 15311.00 15617.00 123.74
1841 32.4434 15344.00 15605.10 123.87
1842 32.4567 15417.00 15593.90 124.17
1843 32.4700 15484.00 15583.80 124.43
1844 32.4833 15563.00 15574.80 124.75
1845 32.4966 15423.00 15567.30 124.19
1846 32.5099 15581.00 15561.40 124.82
1847 32.5232 15297.00 15557.30 123.68
1848 32.5365 15423.00 15555.20 124.19
1849 32.5498 15271.00 15555.10 123.58
1850 32.5631 15490.00 15557.10 124.46
1851 32.5764 15413.00 15560.90 124.15
1852 32.5897 15420.00 15566.30 124.18
1853 32.6030 15229.00 15572.70 123.41
1854 32.6163 15312.00 15579.60 123.74
1855 32.6296 15366.00 15585.90 123.96
1856 32.6429 15569.00 15590.70 124.78
1857 32.6562 15484.00 15592.80 124.43
1858 32.6695 15161.00 15591.00 123.13
1859 32.6828 15430.00 15584.40 124.22
1860 32.6961 15300.00 15572.60 123.69
1861 32.7094 15307.00 15555.60 123.72
1862 32.7227 15312.00 15533.80 123.74
1863 32.7360 15450.00 15508.10 124.30
1864 32.7493 15253.00 15479.40 123.50
1865 32.7626 15484.00 15448.40 124.43
1866 32.7759 15307.00 15415.90 123.72
1867 32.7892 15051.00 15382.40 122.68
1868 32.8025 14991.00 15348.50 122.44
1869 32.8158 15173.00 15314.80 123.18
1870 32.8291 15192.00 15281.90 123.26
1871 32.8424 15286.00 15250.30 123.64
1872 32.8557 15142.00 15220.10 123.05
1873 32.8690 14981.00 15191.50 122.40
1874 32.8823 15011.00 15164.50 122.52
1875 32.8956 14921.00 15139.00 122.15
1876 32.9089 15261.00 15115.00 123.54
1877 32.9222 15118.00 15092.20 122.96
1878 32.9355 14875.00 15070.50 121.96
1879 32.9488 15023.00 15049.70 122.57
1880 32.9621 14950.00 15029.90 122.27
1881 32.9754 14907.00 15010.80 122.09
1882 32.9887 14998.00 14992.40 122.47
1883 33.0020 14878.00 14974.60 121.97
1884 33.0153 15125.00 14957.30 122.98
1885 33.0286 14890.00 14940.50 122.03
1886 33.0419 14951.00 14924.20 122.27
1887 33.0552 14786.00 14908.20 121.60
1888 33.0685 14902.00 14892.60 122.07
1889 33.0818 14960.00 14877.30 122.31
1890 33.0951 15057.00 14862.30 122.71
1891 33.1084 14634.00 14847.60 120.97
1892 33.1217 14763.00 14833.10 121.50
1893 33.1350 14894.00 14818.90 122.04
1894 33.1483 14826.00 14804.90 121.76
1895 33.1616 14890.00 14791.20 122.03
1896 33.1749 14613.00 14777.70 120.88
1897 33.1882 14706.00 14764.50 121.27
1898 33.2015 14863.00 14751.50 121.91
1899 33.2148 14664.00 14738.80 121.10
1900 33.2281 14711.00 14726.40 121.29
1901 33.2414 14681.00 14714.20 121.17
1902 33.2547 14625.00 14702.40 120.93
1903 33.2680 14752.00 14690.90 121.46
1904 33.2813 14689.00 14679.70 121.20
1905 33.2946 14683.00 14668.80 121.17
1906 33.3079 14596.00 14658.40 120.81
1907 33.3212 14622.00 14648.60 120.92
1908 33.3345 14690.00 14639.40 121.20
1909 33.3478 14676.00 14631.30 121.14
1910 33.3611 14658.00 14624.70 121.07
1911 33.3744 14616.00 14620.10 120.90
1912 33.3877 14577.00 14618.60 120.74
1913 33.4010 14636.00 14621.20 120.98
1914 33.4143 14492.00 14629.40 120.38
1915 33.4276 14498.00 14644.90 120.41
1916 33.4409 14601.00 14669.10 120.83
1917 33.4542 14572.00 14703.30 120.71
1918 33.4675 14743.00 14747.60 121.42
1919 33.4808 14690.00 14800.50 121.20
1920 33.4941 14610.00 14858.60 120.87
1921 33.5074 14782.00 14915.80 121.58
1922 33.5207 14775.00 14964.40 121.55
1923 33.5340 14981.00 14995.20 122.40
1924 33.5473 14764.00 15001.60 121.51
1925 33.5606 14919.00 14983.10 122.14
1926 33.5739 14765.00 14946.20 121.51
1927 33.5872 14709.00 14900.50 121.28
1928 33.6005 14567.00 14852.60 120.69
1929 33.6138 14399.00 14803.50 120.00
1930 33.6271 14568.00 14750.40 120.70
1931 33.6404 14743.00 14691.10 121.42
1932 33.6536 14521.00 14626.50 120.50
1933 33.6669 14569.00 14560.00 120.70
1934 33.6802 14504.00 14496.70 120.43
1935 33.6935 14366.00 14439.80 119.86
1936 33.7068 14457.00 14390.20 120.24
1937 33.7201 14371.00 14347.50 119.88
1938 33.7334 14186.00 14310.60 119.11
1939 33.7467 14215.00 14278.20 119.23
1940 33.7600 14148.00 14249.50 118.94
1941 33.7733 14134.00 14223.80 118.89
1942 33.7866 14053.00 14200.50 118.54
1943 33.7999 14085.00 14179.30 118.68
1944 33.8132 14074.00 14159.70 118.63
1945 33.8265 14108.00 14141.50 118.78
1946 33.8398 14150.00 14124.30 118.95
1947 33.8531 13993.00 14108.10 118.29
1948 33.8664 13992.00 14092.50 118.29
1949 33.8797 14184.00 14077.40 119.10
1950 33.8930 14060.00 14062.80 118.57
1951 33.9063 14028.00 14048.50 118.44
1952 33.9196 13953.00 14034.50 118.12
1953 33.9329 13835.00 14020.70 117.62
1954 33.9462 14028.00 14007.20 118.44
1955 33.9595 13899.00 13993.70 117.89
1956 33.9728 13956.00 13980.40 118.14
1957 33.9861 13858.00 13967.20 117.72
1958 33.9994 13781.00 13954.10 117.39
1959 34.0127 13873.00 13941.10 117.78
1960 34.0260 13896.00 13928.10 117.88
1961 34.0393 13873.00 13915.30 117.78
1962 34.0526 13810.00 13902.50 117.52
1963 34.0659 13691.00 13889.70 117.01
1964 34.0792 13655.00 13877.10 116.86
1965 34.0925 13895.00 13864.50 117.88
1966 34.1058 13632.00 13852.00 116.76
1967 34.1191 13810.00 13839.50 117.52
1968 34.1324 13561.00 13827.10 116.45
1969 34.1457 13513.00 13814.70 116.25
1970 34.1590 13781.00 13802.40 117.39
1971 34.1723 13857.00 13790.20 117.72
1972 34.1856 13841.00 13778.00 117.65
1973 34.1989 13790.00 13765.80 117.43
1974 34.2122 13774.00 13753.70 117.36
1975 34.2255 13628.00 13741.70 116.74
1976 34.2388 13968.00 13729.70 118.19
1977 34.2521 13545.00 13717.70 116.38
1978 34.2654 13837.00 13705.80 117.63
1979 34.2787 13828.00 13693.90 117.59
1980 34.2920 13661.00 13682.10 116.88
1981 34.3053 13925.00 13670.30 118.00
1982 34.3186 13638.00 13658.50 116.78
1983 34.3319 13793.00 13646.80 117.44
1984 34.3452 13596.00 13635.10 116.60
1985 34.3585 13707.00 13623.40 117.08
1986 34.3718 13688.00 13611.80 117.00
1987 34.3851 13637.00 13600.20 116.78
1988 34.3984 13780.00 13588.70 117.39
1989 34.4117 13814.00 13586.70 117.53
1990 34.4250 13572.00 13575.30 116.50
1991 34.4383 13757.00 13564.00 117.29
1992 34.4516 13720.00 13552.70 117.13
1993 34.4649 13807.00 13541.40 117.50
1994 34.4782 13780.00 13530.20 117.39
1995 34.4915 13709.00 13523.70 117.08
1996 34.5048 13480.00 13512.60 116.10
1997 34.5181 13758.00 13501.50 117.29
1998 34.5314 13581.00 13490.50 116.54
1999 34.5447 13700.00 13479.50 117.05
2000 34.5580 13379.00 13468.50 115.67
2001 34.5713 13530.00 13457.60 116.32
2002 34.5846 13468.00 13446.70 116.05
2003 34.5979 13353.00 13435.90 115.56
2004 34.6112 13319.00 13425.00 115.41
2005 34.6245 13374.00 13413.80 115.65
2006 34.6378 13558.00 13403.00 116.44
2007 34.6511 13474.00 13392.30 116.08
2008 34.6644 13250.00 13381.60 115.11
2009 34.6777 13181.00 13371.00 114.81
2010 34.6910 13356.00 13360.40 115.57
2011 34.7043 13255.00 13349.50 115.13
2012 34.7176 13528.00 13339.00 116.31
2013 34.7309 13351.00 13328.50 115.55
2014 34.7442 13449.00 13318.00 115.97
2015 34.7575 13444.00 13307.50 115.95
2016 34.7708 13510.00 13297.10 116.23
2017 34.7841 13614.00 13285.50 116.68
2018 34.7974 13172.00 13275.20 114.77
2019 34.8107 13296.00 13264.90 115.31
2020 34.8240 13361.00 13254.70 115.59
2021 34.8373 13090.00 13244.50 114.41
2022 34.8506 13266.00 13234.30 115.18
2023 34.8639 13249.00 13223.50 115.10
2024 34.8772 13195.00 13213.40 114.87
2025 34.8905 13208.00 13203.40 114.93
2026 34.9038 13076.00 13193.30 114.35
2027 34.9171 13118.00 13183.30 114.53
2028 34.9304 13267.00 13173.30 115.18
2029 34.9437 13235.00 13163.40 115.04
2030 34.9570 13220.00 13153.50 114.98
2031 34.9703 13088.00 13143.60 114.40
2032 34.9836 13055.00 13133.80 114.26
2033 34.9969 13146.00 13124.00 114.66
2034 35.0102 13100.00 13114.30 114.46
2035 35.0235 13095.00 13104.60 114.43
2036 35.0368 13546.00 13094.90 116.39
2037 35.0501 12900.00 13085.20 113.58
2038 35.0634 12896.00 13075.60 113.56
2039 35.0767 12959.00 13066.10 113.84
2040 35.0900 12956.00 13056.50 113.82
2041 35.1033 13077.00 13047.10 114.36
2042 35.1166 13017.00 13037.60 114.09
2043 35.1299 13077.00 13028.20 114.36
2044 35.1432 13085.00 13018.90 114.39
2045 35.1565 12755.00 13009.50 112.94
2046 35.1697 12849.00 13000.30 113.35
2047 35.1830 13041.00 12991.10 114.20
2048 35.1963 12802.00 12981.90 113.15
2049 35.2096 12891.00 12972.80 113.54
2050 35.2229 12894.00 12963.70 113.55
2051 35.2362 12882.00 12954.60 113.50
2052 35.2495 13012.00 12945.60 114.07
2053 35.2628 12779.00 12936.70 113.04
2054 35.2761 12862.00 12927.80 113.41
2055 35.2894 12795.00 12918.90 113.11
2056 35.3027 12794.00 12910.10 113.11
2057 35.3160 13007.00 12901.40 114.05
2058 35.3293 12776.00 12892.70 113.03
2059 35.3426 13035.00 12884.10 114.17
2060 35.3559 12780.00 12875.50 113.05
2061 35.3692 12757.00 12867.00 112.95
2062 35.3825 12888.00 12858.50 113.53
2063 35.3958 12885.00 12850.10 113.51
2064 35.4091 12594.00 12841.80 112.22
2065 35.4224 12970.00 12833.60 113.89
2066 35.4357 12795.00 12825.40 113.11
2067 35.4490 12843.00 12817.30 113.33
2068 35.4623 13006.00 12809.20 114.04
2069 35.4756 12848.00 12801.30 113.35
2070 35.4889 12892.00 12793.40 113.54
2071 35.5022 12739.00 12785.60 112.87
2072 35.5155 12801.00 12777.90 113.14
2073 35.5288 12710.00 12770.30 112.74
2074 35.5421 13024.00 12762.80 114.12
2075 35.5554 12896.00 12755.40 113.56
2076 35.5687 12955.00 12748.10 113.82
2077 35.5820 12833.00 12740.90 113.28
2078 35.5953 12684.00 12733.80 112.62
2079 35.6086 12812.00 12726.90 113.19
2080 35.6219 12757.00 12720.10 112.95
2081 35.6352 12794.00 12713.40 113.11
2082 35.6485 12712.00 12706.90 112.75
2083 35.6618 12903.00 12700.50 113.59
2084 35.6751 12842.00 12694.30 113.32
2085 35.6884 12706.00 12688.30 112.72
2086 35.7017 12783.00 12682.50 113.06
2087 35.7150 12973.00 12677.00 113.90
2088 35.7283 12637.00 12671.60 112.41
2089 35.7416 12897.00 12666.60 113.57
2090 35.7549 12555.00 12661.80 112.05
2091 35.7682 12611.00 12657.30 112.30
2092 35.7815 12646.00 12653.10 112.45
2093 35.7948 12708.00 12649.40 112.73
2094 35.8081 13023.00 12646.00 114.12
2095 35.8214 12650.00 12643.00 112.47
2096 35.8347 12785.00 12640.50 113.07
2097 35.8480 12684.00 12638.40 112.62
2098 35.8613 12610.00 12636.90 112.29
2099 35.8746 12725.00 12635.90 112.81
2100 35.8879 12942.00 12635.50 113.76
2101 35.9012 12540.00 12692.50 111.98
2102 35.9145 12573.00 12694.50 112.13
2103 35.9278 12997.00 12697.20 114.00
2104 35.9411 12957.00 12700.60 113.83
2105 35.9544 12817.00 12704.80 113.21
2106 35.9677 12984.00 12709.80 113.95
2107 35.9810 13020.00 12715.60 114.11
2108 35.9943 12895.00 12766.30 113.56
2109 36.0076 12787.00 12774.70 113.08
2110 36.0209 12711.00 12784.20 112.74
2111 36.0342 12653.00 12795.00 112.49
2112 36.0475 12588.00 12807.20 112.20
2113 36.0608 12891.00 12821.10 113.54
2114 36.0741 12998.00 12837.10 114.01
2115 36.0874 12831.00 12863.40 113.27
2116 36.1007 12663.00 12885.10 112.53
2117 36.1140 12774.00 12910.70 113.02
2118 36.1273 12939.00 12941.30 113.75
2119 36.1406 13030.00 12978.00 114.15
2120 36.1539 13006.00 13022.30 114.04
2121 36.1672 13083.00 13076.20 114.38
2122 36.1805 13242.00 13141.70 115.07
2123 36.1938 13402.00 13221.40 115.77
2124 36.2071 13330.00 13318.20 115.46
2125 36.2204 13504.00 13435.10 116.21
2126 36.2337 13636.00 13575.30 116.77
2127 36.2470 13544.00 13742.20 116.38
2128 36.2603 13979.00 13938.60 118.23
2129 36.2736 14057.00 14167.00 118.56
2130 36.2869 14009.00 14428.80 118.36
2131 36.3002 14517.00 14724.20 120.49
2132 36.3135 14613.00 15051.40 120.88
2133 36.3268 14771.00 15407.00 121.54
2134 36.3401 15320.00 15784.60 123.77
2135 36.3534 15603.00 16175.60 124.91
2136 36.3667 15974.00 16568.30 126.39
2137 36.3800 16172.00 16948.20 127.17
2138 36.3933 16763.00 17299.00 129.47
2139 36.4066 17111.00 17602.90 130.81
2140 36.4199 17334.00 17842.90 131.66
2141 36.4332 17376.00 18005.20 131.82
2142 36.4465 17421.00 18082.00 131.99
2143 36.4598 17525.00 18072.80 132.38
2144 36.4731 17485.00 17984.40 132.23
2145 36.4864 17180.00 17828.30 131.07
2146 36.4997 17142.00 17617.70 130.93
2147 36.5130 17091.00 17364.60 130.73
2148 36.5263 16537.00 17078.80 128.60
2149 36.5396 16209.00 16768.70 127.32
2150 36.5529 16008.00 16442.10 126.52
2151 36.5662 15738.00 16107.80 125.45
2152 36.5795 15635.00 15774.70 125.04
2153 36.5928 14989.00 15451.70 122.43
2154 36.6061 15047.00 15145.80 122.67
2155 36.6194 14816.00 14862.70 121.72
2156 36.6327 14413.00 14605.00 120.05
2157 36.6460 14196.00 14374.10 119.15
2158 36.6593 14224.00 14169.50 119.26
2159 36.6726 13884.00 13990.00 117.83
2160 36.6859 13754.00 13833.90 117.28
2161 36.6991 13887.00 13700.20 117.84
2162 36.7124 13526.00 13584.90 116.30
2163 36.7257 13526.00 13487.60 116.30
2164 36.7390 13462.00 13406.60 116.03
2165 36.7523 13341.00 13340.80 115.50
2166 36.7656 13239.00 13289.00 115.06
2167 36.7789 13228.00 13250.40 115.01
2168 36.7922 13347.00 13224.30 115.53
2169 36.8055 13241.00 13210.30 115.07
2170 36.8188 13254.00 13208.00 115.13
2171 36.8321 13163.00 13217.20 114.73
2172 36.8454 13202.00 13237.60 114.90
2173 36.8587 13389.00 13269.40 115.71
2174 36.8720 13509.00 13312.30 116.23
2175 36.8853 13237.00 13366.70 115.05
2176 36.8986 13652.00 13432.40 116.84
2177 36.9119 13700.00 13509.90 117.05
2178 36.9252 13577.00 13599.70 116.52
2179 36.9385 14053.00 13702.70 118.54
2180 36.9518 14048.00 13820.60 118.52
2181 36.9651 14074.00 13956.30 118.63
2182 36.9784 14294.00 14114.70 119.56
2183 36.9917 14483.00 14303.20 120.35
2184 37.0050 14976.00 14532.90 122.38
2185 37.0183 15267.00 14820.20 123.56
2186 37.0316 15792.00 15187.80 125.67
2187 37.0449 16445.00 15666.50 128.24
2188 37.0582 17033.00 16299.70 130.51
2189 37.0715 17542.00 17128.70 132.45
2190 37.0848 18426.00 18212.90 135.74
2191 37.0981 19753.00 19610.00 140.54
2192 37.1114 21224.00 21368.80 145.68
2193 37.1247 22833.00 23517.90 151.11
2194 37.1380 25053.00 26045.30 158.28
2195 37.1513 27963.00 28894.30 167.22
2196 37.1646 30938.00 31921.80 175.89
2197 37.1779 34163.00 34928.40 184.83
2198 37.1912 36723.00 37638.10 191.63
2199 37.2045 39218.00 39741.70 198.04
2200 37.2178 40739.00 40971.80 201.84
2201 37.2311 41708.00 41223.70 204.23
2202 37.2444 42028.00 40626.60 205.01
2203 37.2577 40713.00 39484.00 201.77
2204 37.2710 39573.00 38106.40 198.93
2205 37.2843 37833.00 36664.70 194.51
2206 37.2976 35473.00 35161.10 188.34
2207 37.3109 33460.00 33494.80 182.92
2208 37.3242 31411.00 31577.20 177.23
2209 37.3375 29468.00 29418.50 171.66
2210 37.3508 27251.00 27143.70 165.08
2211 37.3641 24990.00 24922.10 158.08
2212 37.3774 23029.00 22894.00 151.75
2213 37.3907 20949.00 21130.20 144.74
2214 37.4040 19307.00 19643.20 138.95
2215 37.4173 18038.00 18408.00 134.31
2216 37.4306 16873.00 17387.30 129.90
2217 37.4439 15902.00 16543.90 126.10
2218 37.4572 15398.00 15846.20 124.09
2219 37.4705 14661.00 15270.10 121.08
2220 37.4838 14268.00 14795.40 119.45
2221 37.4971 14033.00 14406.30 118.46
2222 37.5104 13847.00 14088.30 117.67
2223 37.5237 13403.00 13828.70 115.77
2224 37.5370 13100.00 13616.30 114.46
2225 37.5503 13157.00 13441.90 114.70
2226 37.5636 12897.00 13297.80 113.57
2227 37.5769 12955.00 13178.10 113.82
2228 37.5902 12732.00 13078.00 112.84
2229 37.6035 12639.00 12994.00 112.42
2230 37.6168 12422.00 12923.10 111.45
2231 37.6301 12449.00 12863.00 111.57
2232 37.6434 12524.00 12812.00 111.91
2233 37.6567 12568.00 12768.60 112.11
2234 37.6700 12455.00 12731.60 111.60
2235 37.6833 12361.00 12700.20 111.18
2236 37.6966 12231.00 12673.60 110.59
2237 37.7099 12335.00 12651.50 111.06
2238 37.7232 12186.00 12633.60 110.39
2239 37.7365 12446.00 12619.70 111.56
2240 37.7498 12449.00 12609.90 111.57
2241 37.7631 12318.00 12604.50 110.99
2242 37.7764 12284.00 12603.70 110.83
2243 37.7897 12279.00 12608.10 110.81
2244 37.8030 12492.00 12618.50 111.77
2245 37.8163 12314.00 12635.90 110.97
2246 37.8296 12371.00 12661.60 111.22
2247 37.8429 12542.00 12697.10 111.99
2248 37.8562 12619.00 12744.60 112.33
2249 37.8695 12785.00 12806.50 113.07
2250 37.8828 12694.00 12885.80 112.67
2251 37.8961 12668.00 12986.20 112.55
2252 37.9094 13049.00 13111.60 114.23
2253 37.9227 13129.00 13267.00 114.58
2254 37.9360 13532.00 13457.30 116.33
2255 37.9493 13651.00 13688.10 116.84
2256 37.9626 13831.00 13965.00 117.61
2257 37.9759 14013.00 14293.40 118.38
2258 37.9892 14517.00 14677.80 120.49
2259 38.0025 14996.00 15122.00 122.46
2260 38.0158 15313.00 15627.40 123.75
2261 38.0291 16349.00 16193.70 127.86
2262 38.0424 16900.00 16817.00 130.00
2263 38.0557 18075.00 17490.80 134.44
2264 38.0690 19237.00 18204.00 138.70
2265 38.0823 20443.00 18942.10 142.98
2266 38.0956 20981.00 19686.20 144.85
2267 38.1089 22269.00 20414.00 149.23
2268 38.1222 23154.00 21099.50 152.16
2269 38.1355 23448.00 21716.10 153.13
2270 38.1488 24132.00 22236.40 155.35
2271 38.1621 24517.00 22637.20 156.58
2272 38.1754 24335.00 22901.70 156.00
2273 38.1887 24640.00 23023.20 156.97
2274 38.2020 24177.00 23006.10 155.49
2275 38.2152 23595.00 22866.40 153.61
2276 38.2285 23269.00 22623.30 152.54
2277 38.2418 22831.00 22301.40 151.10
2278 38.2551 22139.00 21924.10 148.79
2279 38.2684 21637.00 21511.10 147.10
2280 38.2817 20897.00 21079.20 144.56
2281 38.2950 20413.00 20641.20 142.87
2282 38.3083 19957.00 20206.50 141.27
2283 38.3216 19813.00 19779.30 140.76
2284 38.3349 19863.00 19358.60 140.94
2285 38.3482 19428.00 18936.20 139.38
2286 38.3615 19152.00 18499.80 138.39
2287 38.3748 19041.00 18037.30 137.99
2288 38.3881 18403.00 17546.70 135.66
2289 38.4014 17876.00 17040.20 133.70
2290 38.4147 17540.00 16540.50 132.44
2291 38.4280 17009.00 16067.60 130.42
2292 38.4413 16607.00 15631.20 128.87
2293 38.4546 16352.00 15227.70 127.88
2294 38.4679 16107.00 14846.30 126.91
2295 38.4812 15780.00 14475.90 125.62
2296 38.4945 15547.00 14113.40 124.69
2297 38.5078 15472.00 13755.00 124.39
2298 38.5211 15488.00 13429.30 124.45
2299 38.5344 15060.00 13135.60 122.72
2300 38.5477 14844.00 12877.80 121.84
2301 38.5610 14195.00 12655.60 119.14
2302 38.5743 14123.00 12410.10 118.84
2303 38.5876 13779.00 12248.90 117.38
2304 38.6009 13527.00 12106.60 116.31
2305 38.6142 13193.00 11989.00 114.86
2306 38.6275 12939.00 11888.20 113.75
2307 38.6408 13014.00 11801.70 114.08
2308 38.6541 12573.00 11727.20 112.13
2309 38.6674 12703.00 11663.00 112.71
2310 38.6807 12316.00 11580.40 110.98
2311 38.6940 12249.00 11532.30 110.68
2312 38.7073 11880.00 11490.00 109.00
2313 38.7206 11844.00 11452.50 108.83
2314 38.7339 11734.00 11419.00 108.32
2315 38.7472 11689.00 11388.90 108.12
2316 38.7605 11426.00 11361.60 106.89
2317 38.7738 11489.00 11336.70 107.19
2318 38.7871 11502.00 11313.80 107.25
2319 38.8004 11288.00 11292.60 106.25
2320 38.8137 11250.00 11272.90 106.07
2321 38.8270 11315.00 11254.60 106.37
2322 38.8403 11256.00 11237.30 106.09
2323 38.8536 11296.00 11221.00 106.28
2324 38.8669 11228.00 11205.50 105.96
2325 38.8802 11204.00 11190.90 105.85
2326 38.8935 10976.00 11176.90 104.77
2327 38.9068 11202.00 11163.70 105.84
2328 38.9201 11113.00 11151.00 105.42
2329 38.9334 10810.00 11139.00 103.97
2330 38.9467 11017.00 11127.60 104.96
2331 38.9600 10944.00 11116.90 104.61
2332 38.9733 10931.00 11106.80 104.55
2333 38.9866 11093.00 11118.50 105.32
2334 38.9999 10992.00 11110.30 104.84
2335 39.0132 10872.00 11103.10 104.27
2336 39.0265 10929.00 11096.80 104.54
2337 39.0398 10825.00 11091.70 104.04
2338 39.0531 10988.00 11087.90 104.82
2339 39.0664 10924.00 11085.70 104.52
2340 39.0797 10910.00 11097.40 104.45
2341 39.0930 10846.00 11099.10 104.14
2342 39.1063 10757.00 11103.20 103.72
2343 39.1196 10994.00 11110.00 104.85
2344 39.1329 10802.00 11119.80 103.93
2345 39.1462 10724.00 11133.10 103.56
2346 39.1595 10942.00 11150.30 104.60
2347 39.1728 10870.00 11171.70 104.26
2348 39.1861 10886.00 11197.60 104.34
2349 39.1994 10917.00 11228.50 104.48
2350 39.2127 11095.00 11264.60 105.33
2351 39.2260 11160.00 11305.80 105.64
2352 39.2393 11112.00 11352.20 105.41
2353 39.2526 11290.00 11406.60 106.25
2354 39.2659 11233.00 11462.40 105.99
2355 39.2792 11363.00 11522.10 106.60
2356 39.2925 11611.00 11584.60 107.75
2357 39.3058 11644.00 11648.70 107.91
2358 39.3191 11891.00 11713.00 109.05
2359 39.3324 11936.00 11775.80 109.25
2360 39.3457 11945.00 11835.10 109.29
2361 39.3590 11817.00 11890.50 108.71
2362 39.3723 11982.00 11936.80 109.46
2363 39.3856 12164.00 11973.70 110.29
2364 39.3989 12200.00 11999.50 110.45
2365 39.4122 12066.00 12013.10 109.85
2366 39.4255 12023.00 12014.10 109.65
2367 39.4388 11894.00 12002.60 109.06
2368 39.4521 11878.00 11979.40 108.99
2369 39.4654 12008.00 11945.80 109.58
2370 39.4787 11665.00 11903.30 108.00
2371 39.4920 11850.00 11853.20 108.86
2372 39.5053 11632.00 11797.10 107.85
2373 39.5186 11701.00 11736.30 108.17
2374 39.5319 11648.00 11672.20 107.93
2375 39.5452 11182.00 11605.90 105.75
2376 39.5585 11424.00 11538.90 106.88
2377 39.5718 11295.00 11472.30 106.28
2378 39.5851 11203.00 11407.10 105.84
2379 39.5984 11086.00 11344.40 105.29
2380 39.6117 10910.00 11284.60 104.45
2381 39.6250 10792.00 11228.50 103.89
2382 39.6383 10736.00 11176.10 103.61
2383 39.6516 10814.00 11127.70 103.99
2384 39.6649 10714.00 11083.20 103.51
2385 39.6782 10742.00 11042.50 103.64
2386 39.6915 10861.00 11005.50 104.22
2387 39.7048 10779.00 10972.10 103.82
2388 39.7181 10761.00 10938.10 103.74
2389 39.7314 10598.00 10912.80 102.95
2390 39.7446 10578.00 10888.90 102.85
2391 39.7579 10689.00 10867.70 103.39
2392 39.7712 10479.00 10849.00 102.37
2393 39.7845 10518.00 10832.70 102.56
2394 39.7978 10443.00 10818.60 102.19
2395 39.8111 10611.00 10806.70 103.01
2396 39.8244 10517.00 10794.90 102.55
2397 39.8377 10574.00 10787.70 102.83
2398 39.8510 10512.00 10781.60 102.53
2399 39.8643 10633.00 10777.20 103.12
2400 39.8776 10431.00 10774.60 102.13
2401 39.8909 10574.00 10773.60 102.83
2402 39.9042 10440.00 10774.40 102.18
2403 39.9175 10569.00 10777.00 102.81
2404 39.9308 10505.00 10781.30 102.49
2405 39.9441 10638.00 10787.60 103.14
2406 39.9574 10456.00 10795.90 102.25
2407 39.9707 10656.00 10806.30 103.23
2408 39.9840 10662.00 10819.00 103.26
2409 39.9973 10679.00 10834.20 103.34
2410 40.0106 10806.00 10851.90 103.95
2411 40.0239 10737.00 10872.30 103.62
2412 40.0372 10734.00 10895.70 103.61
2413 40.0505 10798.00 10922.20 103.91
2414 40.0638 10842.00 10951.90 104.12
2415 40.0771 10907.00 11003.80 104.44
2416 40.0904 11161.00 11041.60 105.65
2417 40.1037 10957.00 11084.20 104.68
2418 40.1170 11269.00 11132.60 106.16
2419 40.1303 11155.00 11188.40 105.62
2420 40.1436 11611.00 11254.20 107.75
2421 40.1569 11619.00 11333.30 107.79
2422 40.1702 11687.00 11431.00 108.11
2423 40.1835 11727.00 11566.20 108.29
2424 40.1968 12141.00 11724.10 110.19
2425 40.2101 12534.00 11928.90 111.96
2426 40.2234 12638.00 12195.40 112.42
2427 40.2367 12978.00 12541.40 113.92
2428 40.2500 13195.00 12985.90 114.87
2429 40.2633 13778.00 13547.90 117.38
2430 40.2766 14180.00 14242.00 119.08
2431 40.2899 15212.00 15075.30 123.34
2432 40.3032 15966.00 16041.40 126.36
2433 40.3165 17050.00 17117.00 130.58
2434 40.3298 18079.00 18257.50 134.46
2435 40.3431 19214.00 19397.00 138.62
2436 40.3564 20282.00 20447.80 142.41
2437 40.3697 20965.00 21312.30 144.79
2438 40.3830 21676.00 21898.30 147.23
2439 40.3963 22150.00 22139.10 148.83
2440 40.4096 22327.00 22080.80 149.42
2441 40.4229 22246.00 21786.30 149.15
2442 40.4362 21657.00 21359.60 147.16
2443 40.4495 21369.00 20882.90 146.18
2444 40.4628 20500.00 20389.00 143.18
2445 40.4761 20224.00 19866.00 142.21
2446 40.4894 19109.00 19279.20 138.24
2447 40.5027 18568.00 18595.90 136.26
2448 40.5160 17982.00 17838.30 134.10
2449 40.5293 17316.00 17040.10 131.59
2450 40.5426 16288.00 16258.80 127.62
2451 40.5559 15562.00 15546.10 124.75
2452 40.5692 14915.00 14933.40 122.13
2453 40.5825 14359.00 14432.40 119.83
2454 40.5958 14040.00 14039.30 118.49
2455 40.6091 13631.00 13741.90 116.75
2456 40.6224 13289.00 13523.50 115.28
2457 40.6357 13010.00 13365.80 114.06
2458 40.6490 13174.00 13249.10 114.78
2459 40.6623 13018.00 13153.30 114.10
2460 40.6756 13005.00 13059.20 114.04
2461 40.6889 12874.00 12952.20 113.46
2462 40.7022 13023.00 12825.70 114.12
2463 40.7155 12759.00 12683.00 112.96
2464 40.7288 12609.00 12533.70 112.29
2465 40.7421 12483.00 12387.70 111.73
2466 40.7554 12310.00 12249.70 110.95
2467 40.7687 12011.00 12118.40 109.60
2468 40.7820 11809.00 11988.10 108.67
2469 40.7953 11833.00 11853.20 108.78
2470 40.8086 11677.00 11711.00 108.06
2471 40.8219 11571.00 11564.10 107.57
2472 40.8352 11525.00 11418.40 107.36
2473 40.8485 11060.00 11280.80 105.17
2474 40.8618 10861.00 11156.20 104.22
2475 40.8751 10939.00 11046.80 104.59
2476 40.8884 10561.00 10952.80 102.77
2477 40.9017 10582.00 10872.80 102.87
2478 40.9150 10574.00 10805.30 102.83
2479 40.9283 10380.00 10748.70 101.88
2480 40.9416 10473.00 10701.70 102.34
2481 40.9549 10412.00 10663.10 102.04
2482 40.9682 10433.00 10632.40 102.14
2483 40.9815 10278.00 10609.20 101.38
2484 40.9948 10391.00 10593.30 101.94
2485 41.0081 10149.00 10584.80 100.74
2486 41.0214 10259.00 10584.10 101.29
2487 41.0347 10377.00 10592.00 101.87
2488 41.0480 10205.00 10609.10 101.02
2489 41.0613 10388.00 10636.70 101.92
2490 41.0746 10359.00 10675.50 101.78
2491 41.0879 10588.00 10726.20 102.90
2492 41.1012 10402.00 10788.90 101.99
2493 41.1145 10784.00 10862.40 103.85
2494 41.1278 10736.00 10944.80 103.61
2495 41.1411 10884.00 11032.50 104.33
2496 41.1544 10944.00 11120.60 104.61
2497 41.1677 11264.00 11202.70 106.13
2498 41.1810 11150.00 11272.10 105.59
2499 41.1943 11443.00 11323.10 106.97
2500 41.2076 11412.00 11352.70 106.83
2501 41.2209 11362.00 11362.80 106.59
2502 41.2342 11501.00 11359.20 107.24
2503 41.2475 11340.00 11349.50 106.49
2504 41.2607 11522.00 11339.60 107.34
2505 41.2740 11418.00 11332.10 106.86
2506 41.2873 11766.00 11327.40 108.47
2507 41.3006 11553.00 11324.70 107.49
2508 41.3139 11588.00 11324.10 107.65
2509 41.3272 11668.00 11328.90 108.02
2510 41.3405 11552.00 11345.50 107.48
2511 41.3538 11721.00 11383.00 108.26
2512 41.3671 11687.00 11451.80 108.11
2513 41.3804 11851.00 11562.90 108.86
2514 41.3937 11896.00 11728.10 109.07
2515 41.4070 12114.00 11959.80 110.06
2516 41.4203 12446.00 12270.80 111.56
2517 41.4336 12542.00 12674.80 111.99
2518 41.4469 13059.00 13179.80 114.28
2519 41.4602 13768.00 13792.40 117.34
2520 41.4735 14227.00 14510.20 119.28
2521 41.4868 14723.00 15320.20 121.34
2522 41.5001 15429.00 16196.60 124.21
2523 41.5134 16290.00 17098.20 127.63
2524 41.5267 17019.00 17969.60 130.46
2525 41.5400 18208.00 18742.70 134.94
2526 41.5533 18353.00 19344.50 135.47
2527 41.5666 18589.00 19715.70 136.34
2528 41.5799 19233.00 19831.50 138.68
2529 41.5932 19209.00 19714.60 138.60
2530 41.6065 19205.00 19428.00 138.58
2531 41.6198 18903.00 19045.80 137.49
2532 41.6331 18446.00 18622.90 135.82
2533 41.6464 17847.00 18181.10 133.59
2534 41.6597 17286.00 17711.10 131.48
2535 41.6730 16524.00 17190.40 128.55
2536 41.6863 15968.00 16601.40 126.36
2537 41.6996 15485.00 15948.60 124.44
2538 41.7129 14791.00 15258.90 121.62
2539 41.7262 14255.00 14571.30 119.39
2540 41.7395 13553.00 13921.50 116.42
2541 41.7528 13207.00 13333.60 114.92
2542 41.7661 12609.00 12817.50 112.29
2543 41.7794 12099.00 12373.20 110.00
2544 41.7927 11598.00 11994.40 107.69
2545 41.8060 11471.00 11673.10 107.10
2546 41.8193 11032.00 11400.80 105.03
2547 41.8326 10812.00 11149.70 103.98
2548 41.8459 10579.00 10955.00 102.85
2549 41.8592 10515.00 10790.80 102.54
2550 41.8725 10289.00 10652.60 101.43
2551 41.8858 10469.00 10536.50 102.32
2552 41.8991 10187.00 10438.90 100.93
2553 41.9124 10198.00 10356.70 100.99
2554 41.9257 10177.00 10287.00 100.88
2555 41.9390 10238.00 10217.50 101.18
2556 41.9523 9893.00 10164.80 99.46
2557 41.9656 10107.00 10120.50 100.53
2558 41.9789 10201.00 10081.70 101.00
2559 41.9922 10282.00 10047.40 101.40
2560 42.0055 10121.00 10016.80 100.60
2561 42.0188 10129.00 9989.24 100.64
2562 42.0321 10073.00 9964.28 100.36
2563 42.0454 9943.00 9941.47 99.71
2564 42.0587 10070.00 9919.65 100.35
2565 42.0720 10069.00 9900.22 100.34
2566 42.0853 10129.00 9882.10 100.64
2567 42.0986 10011.00 9865.11 100.06
2568 42.1119 9969.00 9849.10 99.84
2569 42.1252 9857.00 9833.95 99.28
2570 42.1385 9907.00 9819.58 99.53
2571 42.1518 9711.00 9802.91 98.54
2572 42.1651 9709.00 9789.93 98.53
2573 42.1784 9763.00 9777.55 98.81
2574 42.1917 9837.00 9765.73 99.18
2575 42.2050 9600.00 9754.44 97.98
2576 42.2183 9646.00 9743.67 98.21
2577 42.2316 9584.00 9733.37 97.90
2578 42.2449 9642.00 9723.55 98.19
2579 42.2582 9535.00 9712.69 97.65
2580 42.2715 9565.00 9703.78 97.80
2581 42.2848 9630.00 9695.29 98.13
2582 42.2981 9378.00 9687.21 96.84
2583 42.3114 9376.00 9679.53 96.83
2584 42.3247 9420.00 9672.25 97.06
2585 42.3380 9260.00 9665.36 96.23
2586 42.3513 9258.00 9658.87 96.22
2587 42.3646 9239.00 9652.79 96.12
2588 42.3779 9293.00 9647.13 96.40
2589 42.3912 9383.00 9641.90 96.87
2590 42.4045 9472.00 9637.15 97.32
2591 42.4178 9290.00 9632.89 96.38
2592 42.4311 9300.00 9629.18 96.44
2593 42.4444 9423.00 9648.98 97.07
2594 42.4577 9527.00 9646.80 97.61
2595 42.4710 9391.00 9645.37 96.91
2596 42.4843 9260.00 9644.77 96.23
2597 42.4976 9340.00 9645.13 96.64
2598 42.5109 9383.00 9646.55 96.87
2599 42.5242 9458.00 9649.19 97.25
2600 42.5375 9372.00 9653.19 96.81
2601 42.5508 9569.00 9669.98 97.82
2602 42.5641 9310.00 9677.38 96.49
2603 42.5774 9476.00 9686.72 97.34
2604 42.5907 9465.00 9698.21 97.29
2605 42.6040 9465.00 9712.08 97.29
2606 42.6173 9514.00 9728.56 97.54
2607 42.6306 9582.00 9747.86 97.89
2608 42.6439 9604.00 9770.23 98.00
2609 42.6572 9627.00 9795.85 98.12
2610 42.6705 9533.00 9824.93 97.64
2611 42.6838 9863.00 9857.58 99.31
2612 42.6971 9674.00 9891.75 98.36
2613 42.7104 10010.00 9931.91 100.05
2614 42.7237 9775.00 9975.84 98.87
2615 42.7370 9968.00 10023.50 99.84
2616 42.7503 9954.00 10074.70 99.77
2617 42.7636 10103.00 10129.40 100.51
2618 42.7769 10122.00 10187.30 100.61
2619 42.7901 10256.00 10247.70 101.27
2620 42.8034 10380.00 10310.10 101.88
2621 42.8167 10434.00 10376.00 102.15
2622 42.8300 10681.00 10443.90 103.35
2623 42.8433 10765.00 10513.30 103.75
2624 42.8566 10931.00 10583.90 104.55
2625 42.8699 10901.00 10655.10 104.41
2626 42.8832 10980.00 10726.30 104.79
2627 42.8965 11186.00 10796.40 105.76
2628 42.9098 11165.00 10864.30 105.67
2629 42.9231 11261.00 10928.50 106.12
2630 42.9364 11432.00 10987.00 106.92
2631 42.9497 11423.00 11037.50 106.88
2632 42.9630 11414.00 11077.30 106.84
2633 42.9763 11396.00 11103.40 106.75
2634 42.9896 11588.00 11113.00 107.65
2635 43.0029 11289.00 11103.90 106.25
2636 43.0162 11344.00 11075.60 106.51
2637 43.0295 11338.00 11029.70 106.48
2638 43.0428 11401.00 10969.90 106.78
2639 43.0561 11220.00 10900.50 105.92
2640 43.0694 11175.00 10825.40 105.71
2641 43.0827 10996.00 10746.80 104.86
2642 43.0960 11034.00 10647.50 105.04
2643 43.1093 10846.00 10563.90 104.14
2644 43.1226 10794.00 10477.30 103.89
2645 43.1359 10660.00 10388.20 103.25
2646 43.1492 10538.00 10297.90 102.65
2647 43.1625 10296.00 10208.50 101.47
2648 43.1758 10169.00 10122.20 100.84
2649 43.1891 10136.00 10040.70 100.68
2650 43.2024 10175.00 9956.07 100.87
2651 43.2157 10086.00 9886.72 100.43
2652 43.2290 9928.00 9823.49 99.64
2653 43.2423 10139.00 9765.99 100.69
2654 43.2556 9855.00 9713.81 99.27
2655 43.2689 9843.00 9666.45 99.21
2656 43.2822 9748.00 9623.52 98.73
2657 43.2955 9744.00 9594.49 98.71
2658 43.3088 9879.00 9559.36 99.39
2659 43.3221 9797.00 9527.56 98.98
2660 43.3354 9512.00 9498.78 97.53
2661 43.3487 9654.00 9472.73 98.25
2662 43.3620 9531.00 9449.16 97.63
2663 43.3753 9498.00 9427.80 97.46
2664 43.3886 9450.00 9408.45 97.21
2665 43.4019 9378.00 9399.72 96.84
2666 43.4152 9365.00 9383.89 96.77
2667 43.4285 9485.00 9369.52 97.39
2668 43.4418 9241.00 9356.45 96.13
2669 43.4551 9249.00 9344.56 96.17
2670 43.4684 9215.00 9333.72 95.99
2671 43.4817 9205.00 9323.83 95.94
2672 43.4950 9236.00 9314.79 96.10
2673 43.5083 9197.00 9308.48 95.90
2674 43.5216 9196.00 9300.93 95.90
2675 43.5349 9184.00 9294.02 95.83
2676 43.5482 9097.00 9287.66 95.38
2677 43.5615 9069.00 9281.83 95.23
2678 43.5748 9117.00 9276.47 95.48
2679 43.5881 9108.00 9271.53 95.44
2680 43.6014 9108.00 9267.00 95.44
2681 43.6147 9174.00 9262.84 95.78
2682 43.6280 9051.00 9259.02 95.14
2683 43.6413 9227.00 9255.54 96.06
2684 43.6546 9254.00 9252.36 96.20
2685 43.6679 8969.00 9249.49 94.70
2686 43.6812 9146.00 9246.90 95.63
2687 43.6945 9214.00 9244.59 95.99
2688 43.7078 9069.00 9242.55 95.23
2689 43.7211 9065.00 9240.78 95.21
2690 43.7344 9186.00 9239.28 95.84
2691 43.7477 9175.00 9238.04 95.79
2692 43.7610 9287.00 9237.07 96.37
2693 43.7743 8989.00 9236.35 94.81
2694 43.7876 9091.00 9235.91 95.35
2695 43.8009 9127.00 9236.83 95.54
2696 43.8142 8991.00 9236.96 94.82
2697 43.8275 9089.00 9237.37 95.34
2698 43.8408 9129.00 9238.07 95.55
2699 43.8541 9246.00 9239.08 96.16
2700 43.8674 9267.00 9240.40 96.27
2701 43.8807 9148.00 9242.05 95.65
2702 43.8940 9043.00 9244.05 95.09
2703 43.9073 9111.00 9255.64 95.45
2704 43.9206 9060.00 9258.55 95.18
2705 43.9339 9054.00 9261.86 95.15
2706 43.9472 9190.00 9265.62 95.86
2707 43.9605 9048.00 9269.85 95.12
2708 43.9738 8975.00 9274.57 94.74
2709 43.9871 9022.00 9279.82 94.98
2710 44.0004 9250.00 9285.64 96.18
2711 44.0137 9144.00 9292.06 95.62
2712 44.0270 9116.00 9299.13 95.48
2713 44.0403 9104.00 9306.89 95.41
2714 44.0536 9220.00 9315.37 96.02
2715 44.0669 9225.00 9324.64 96.05
2716 44.0802 9330.00 9334.73 96.59
2717 44.0935 9167.00 9345.69 95.74
2718 44.1068 8995.00 9357.58 94.84
2719 44.1201 9296.00 9370.45 96.42
2720 44.1334 9302.00 9384.34 96.45
2721 44.1467 9202.00 9399.31 95.93
2722 44.1600 9284.00 9415.41 96.35
2723 44.1733 9244.00 9432.70 96.15
2724 44.1866 9196.00 9451.23 95.90
2725 44.1999 9455.00 9471.06 97.24
2726 44.2132 9432.00 9492.26 97.12
2727 44.2265 9369.00 9521.69 96.79
2728 44.2398 9560.00 9545.95 97.78
2729 44.2531 9556.00 9571.87 97.75
2730 44.2664 9628.00 9599.56 98.12
2731 44.2797 9523.00 9629.23 97.59
2732 44.2930 9506.00 9661.08 97.50
2733 44.3062 9627.00 9695.12 98.12
2734 44.3195 9665.00 9732.27 98.31
2735 44.3328 9744.00 9772.75 98.71
2736 44.3461 9903.00 9820.49 99.51
2737 44.3594 9890.00 9869.64 99.45
2738 44.3727 9914.00 9924.42 99.57
2739 44.3860 10014.00 9986.06 100.07
2740 44.3993 10134.00 10056.00 100.67
2741 44.4126 10141.00 10136.00 100.70
2742 44.4259 10479.00 10228.20 102.37
2743 44.4392 10617.00 10335.10 103.04
2744 44.4525 10813.00 10459.80 103.99
2745 44.4658 11099.00 10605.70 105.35
2746 44.4791 11338.00 10776.70 106.48
2747 44.4924 11238.00 10977.20 106.01
2748 44.5057 11502.00 11212.20 107.25
2749 44.5190 11916.00 11486.60 109.16
2750 44.5323 12282.00 11805.80 110.82
2751 44.5456 12661.00 12175.10 112.52
2752 44.5589 13076.00 12599.30 114.35
2753 44.5722 13003.00 13082.50 114.03
2754 44.5855 13615.00 13627.90 116.68
2755 44.5988 14377.00 14236.40 119.90
2756 44.6121 14925.00 14907.20 122.17
2757 44.6254 15490.00 15638.70 124.46
2758 44.6387 16310.00 16424.60 127.71
2759 44.6520 17371.00 17255.40 131.80
2760 44.6653 18074.00 18119.40 134.44
2761 44.6786 19131.00 19000.30 138.32
2762 44.6919 20236.00 19879.30 142.25
2763 44.7052 20809.00 20733.80 144.25
2764 44.7185 22063.00 21539.70 148.54
2765 44.7318 22864.00 22271.20 151.21
2766 44.7451 23226.00 22906.40 152.40
2767 44.7584 24148.00 23426.30 155.40
2768 44.7717 24560.00 23821.20 156.72
2769 44.7850 24948.00 24091.00 157.95
2770 44.7983 24620.00 24246.70 156.91
2771 44.8116 25191.00 24307.00 158.72
2772 44.8249 25196.00 24294.50 158.73
2773 44.8382 25025.00 24230.50 158.19
2774 44.8515 24546.00 24131.00 156.67
2775 44.8648 24564.00 24004.20 156.73
2776 44.8781 24255.00 23850.60 155.74
2777 44.8914 23900.00 23664.30 154.60
2778 44.9047 23560.00 23434.40 153.49
2779 44.9180 23142.00 23147.30 152.12
2780 44.9313 23016.00 22788.70 151.71
2781 44.9446 22265.00 22346.00 149.21
2782 44.9579 21859.00 21814.50 147.85
2783 44.9712 21216.00 21201.80 145.66
2784 44.9845 20656.00 20530.00 143.72
2785 44.9978 19858.00 19830.60 140.92
2786 45.0111 19402.00 19136.20 139.29
2787 45.0244 18876.00 18470.10 137.39
2788 45.0377 18168.00 17843.90 134.79
2789 45.0510 17630.00 17256.30 132.78
2790 45.0643 16922.00 16699.80 130.09
2791 45.0776 16646.00 16165.50 129.02
2792 45.0909 15978.00 15650.50 126.40
2793 45.1042 15493.00 15159.20 124.47
2794 45.1175 15434.00 14702.60 124.23
2795 45.1308 14992.00 14293.10 122.44
2796 45.1441 14808.00 13941.00 121.69
2797 45.1574 14456.00 13650.60 120.23
2798 45.1707 14572.00 13421.20 120.71
2799 45.1840 14383.00 13246.90 119.93
2800 45.1973 14540.00 13118.70 120.58
2801 45.2106 14463.00 13025.20 120.26
2802 45.2239 14296.00 12954.40 119.57
2803 45.2372 14386.00 12894.40 119.94
2804 45.2505 14196.00 12835.40 119.15
2805 45.2638 13920.00 12771.10 117.98
2806 45.2771 13990.00 12699.60 118.28
2807 45.2904 13767.00 12623.80 117.33
2808 45.3037 13537.00 12549.70 116.35
2809 45.3170 13255.00 12484.00 115.13
2810 45.3303 13379.00 12432.00 115.67
2811 45.3436 12938.00 12395.90 113.75
2812 45.3569 12878.00 12375.10 113.48
2813 45.3702 12798.00 12366.90 113.13
2814 45.3835 12722.00 12367.80 112.79
2815 45.3968 12582.00 12374.40 112.17
2816 45.4101 12474.00 12384.40 111.69
2817 45.4234 12577.00 12396.50 112.15
2818 45.4367 12551.00 12410.20 112.03
2819 45.4500 12529.00 12425.30 111.93
2820 45.4633 12663.00 12441.40 112.53
2821 45.4766 12359.00 12456.60 111.17
2822 45.4899 12623.00 12466.70 112.35
2823 45.5032 12488.00 12465.30 111.75
2824 45.5165 12538.00 12444.90 111.97
2825 45.5298 12601.00 12398.40 112.25
2826 45.5431 12452.00 12321.70 111.59
2827 45.5564 12283.00 12215.00 110.83
2828 45.5697 12327.00 12082.50 111.03
2829 45.5830 12048.00 11931.30 109.76
2830 45.5963 11880.00 11770.40 109.00
2831 45.6096 11619.00 11602.10 107.79
2832 45.6229 11577.00 11431.20 107.60
2833 45.6362 11528.00 11258.50 107.37
2834 45.6495 11361.00 11083.60 106.59
2835 45.6628 11173.00 10906.20 105.70
2836 45.6761 10915.00 10727.50 104.47
2837 45.6894 10736.00 10549.70 103.61
2838 45.7027 10458.00 10376.30 102.26
2839 45.7160 10252.00 10213.30 101.25
2840 45.7293 10344.00 10058.40 101.71
2841 45.7426 10062.00 9916.11 100.31
2842 45.7559 9811.00 9787.32 99.05
2843 45.7692 10011.00 9672.10 100.06
2844 45.7825 9842.00 9569.84 99.21
2845 45.7958 9441.00 9479.65 97.16
2846 45.8091 9426.00 9400.46 97.09
2847 45.8224 9439.00 9331.11 97.15
2848 45.8356 9432.00 9271.01 97.12
2849 45.8489 9289.00 9218.29 96.38
2850 45.8622 9250.00 9172.58 96.18
2851 45.8755 9126.00 9133.19 95.53
2852 45.8888 9305.00 9099.59 96.46
2853 45.9021 9065.00 9071.00 95.21
2854 45.9154 9208.00 9047.07 95.96
2855 45.9287 9007.00 9027.45 94.91
2856 45.9420 9110.00 9011.85 95.45
2857 45.9553 8929.00 9000.10 94.49
2858 45.9686 9040.00 8992.11 95.08
2859 45.9819 8994.00 8987.96 94.84
2860 45.9952 8978.00 8987.83 94.75
2861 46.0085 8819.00 9002.01 93.91
2862 46.0218 8977.00 9011.26 94.75
2863 46.0351 9058.00 9026.14 95.17
2864 46.0484 9064.00 9047.54 95.21
2865 46.0617 8889.00 9074.93 94.28
2866 46.0750 9119.00 9112.97 95.49
2867 46.0883 9080.00 9161.56 95.29
2868 46.1016 9283.00 9222.38 96.35
2869 46.1149 9340.00 9297.33 96.64
2870 46.1282 9379.00 9388.28 96.85
2871 46.1415 9351.00 9497.11 96.70
2872 46.1548 9562.00 9625.39 97.79
2873 46.1681 9867.00 9774.43 99.33
2874 46.1814 9859.00 9944.00 99.29
2875 46.1947 10119.00 10135.70 100.59
2876 46.2080 10406.00 10347.30 102.01
2877 46.2213 10491.00 10576.90 102.43
2878 46.2346 10987.00 10820.50 104.82
2879 46.2479 11105.00 11073.10 105.38
2880 46.2612 11588.00 11328.00 107.65
2881 46.2745 11840.00 11577.00 108.81
2882 46.2878 11931.00 11810.40 109.23
2883 46.3011 12183.00 12018.10 110.38
2884 46.3144 12380.00 12189.80 111.26
2885 46.3277 12495.00 12316.80 111.78
2886 46.3410 12278.00 12393.50 110.81
2887 46.3543 12334.00 12418.50 111.06
2888 46.3676 12534.00 12395.00 111.96
2889 46.3809 12029.00 12329.70 109.68
2890 46.3942 12055.00 12230.80 109.79
2891 46.4075 11971.00 12106.10 109.41
2892 46.4208 11971.00 11961.30 109.41
2893 46.4341 11845.00 11800.00 108.83
2894 46.4474 11462.00 11623.60 107.06
2895 46.4607 11020.00 11433.00 104.98
2896 46.4740 10946.00 11229.60 104.62
2897 46.4873 10758.00 11016.30 103.72
2898 46.5006 10542.00 10797.20 102.67
2899 46.5139 10307.00 10577.60 101.52
2900 46.5272 10122.00 10362.70 100.61
2901 46.5405 9795.00 10157.10 98.97
2902 46.5538 9938.00 9963.87 99.69
2903 46.5671 9776.00 9785.45 98.87
2904 46.5804 9413.00 9622.49 97.02
2905 46.5937 9414.00 9475.15 97.03
2906 46.6070 9315.00 9342.78 96.51
2907 46.6203 9179.00 9224.45 95.81
2908 46.6336 9261.00 9118.97 96.23
2909 46.6469 8949.00 9025.19 94.60
2910 46.6602 8930.00 8932.20 94.50
2911 46.6735 8768.00 8858.46 93.64
2912 46.6868 8951.00 8793.10 94.61
2913 46.7001 8756.00 8735.24 93.57
2914 46.7134 8654.00 8684.04 93.03
2915 46.7267 8662.00 8638.75 93.07
2916 46.7400 8513.00 8598.69 92.27
2917 46.7533 8731.00 8563.23 93.44
2918 46.7666 8409.00 8531.80 91.70
2919 46.7799 8591.00 8499.12 92.69
2920 46.7932 8627.00 8474.34 92.88
2921 46.8065 8491.00 8457.45 92.15
2922 46.8198 8402.00 8437.71 91.66
2923 46.8331 8476.00 8419.97 92.07
2924 46.8464 8353.00 8403.96 91.39
2925 46.8597 8396.00 8389.49 91.63
2926 46.8730 8264.00 8376.35 90.91
2927 46.8863 8411.00 8364.41 91.71
2928 46.8996 8339.00 8353.53 91.32
2929 46.9129 8389.00 8343.61 91.59
2930 46.9262 8356.00 8337.12 91.41
2931 46.9395 8286.00 8332.95 91.03
2932 46.9528 8257.00 8325.51 90.87
2933 46.9661 8219.00 8318.75 90.66
2934 46.9794 8316.00 8312.63 91.19
2935 46.9927 8369.00 8307.13 91.48
2936 47.0060 8274.00 8302.24 90.96
2937 47.0193 8225.00 8297.97 90.69
2938 47.0326 8317.00 8294.35 91.20
2939 47.0459 8226.00 8291.42 90.70
2940 47.0592 8447.00 8302.53 91.91
2941 47.0725 8170.00 8301.47 90.39
2942 47.0858 8234.00 8301.51 90.74
2943 47.0991 8427.00 8301.82 91.80
2944 47.1124 8419.00 8304.86 91.76
2945 47.1257 8325.00 8309.95 91.24
2946 47.1390 8289.00 8295.03 91.04
2947 47.1523 8397.00 8306.00 91.64
2948 47.1656 8255.00 8316.84 90.86
2949 47.1789 8507.00 8336.13 92.23
2950 47.1922 8425.00 8360.69 91.79
2951 47.2055 8306.00 8391.32 91.14
2952 47.2188 8609.00 8428.11 92.78
2953 47.2321 8327.00 8472.63 91.25
2954 47.2454 8200.00 8524.47 90.55
2955 47.2587 8517.00 8572.25 92.29
2956 47.2720 8467.00 8637.48 92.02
2957 47.2853 8471.00 8705.60 92.04
2958 47.2986 8585.00 8778.30 92.66
2959 47.3119 8497.00 8850.75 92.18
2960 47.3252 8691.00 8919.46 93.23
2961 47.3385 8499.00 8980.35 92.19
2962 47.3517 8613.00 9029.12 92.81
2963 47.3650 8803.00 9063.17 93.82
2964 47.3783 8629.00 9080.37 92.89
2965 47.3916 8683.00 9081.24 93.18
2966 47.4049 8527.00 9068.46 92.34
2967 47.4182 8761.00 9045.98 93.60
2968 47.4315 8644.00 9017.74 92.97
2969 47.4448 8805.00 8986.58 93.83
2970 47.4581 8682.00 8953.83 93.18
2971 47.4714 8834.00 8919.42 93.99
2972 47.4847 8602.00 8882.51 92.75
2973 47.4980 8668.00 8842.33 93.10
2974 47.5113 8515.00 8794.60 92.28
2975 47.5246 8564.00 8748.79 92.54
2976 47.5379 8397.00 8702.57 91.64
2977 47.5512 8547.00 8658.32 92.45
2978 47.5645 8317.00 8618.22 91.20
2979 47.5778 8666.00 8583.97 93.09
2980 47.5911 8627.00 8556.53 92.88
2981 47.6044 8518.00 8536.36 92.29
2982 47.6177 8468.00 8523.43 92.02
2983 47.6310 8739.00 8515.42 93.48
2984 47.6443 8866.00 8516.08 94.16
2985 47.6576 8845.00 8522.84 94.05
2986 47.6709 9104.00 8535.20 95.41
2987 47.6842 9153.00 8552.64 95.67
2988 47.6975 8972.00 8574.63 94.72
2989 47.7108 9085.00 8600.52 95.32
2990 47.7241 8811.00 8629.56 93.87
2991 47.7374 8835.00 8660.85 93.99
2992 47.7507 8775.00 8693.34 93.68
2993 47.7640 8996.00 8725.80 94.85
2994 47.7773 8748.00 8756.99 93.53
2995 47.7906 8958.00 8785.60 94.65
2996 47.8039 9015.00 8810.51 94.95
2997 47.8172 9022.00 8830.82 94.98
2998 47.8305 9027.00 8846.07 95.01
2999 47.8438 8815.00 8856.28 93.89
3000 47.8571 8840.00 8862.00 94.02
3001 47.8704 8973.00 8864.10 94.73
3002 47.8837 8906.00 8863.74 94.37
3003 47.8970 8816.00 8862.03 93.89
3004 47.9103 8851.00 8859.96 94.08
3005 47.9236 8589.00 8858.31 92.68
3006 47.9369 8867.00 8857.67 94.16
3007 47.9502 8714.00 8858.50 93.35
3008 47.9635 8697.00 8861.27 93.26
3009 47.9768 8749.00 8866.54 93.54
3010 47.9901 8687.00 8874.93 93.20
3011 48.0034 8668.00 8887.15 93.10
3012 48.0167 8741.00 8903.90 93.49
3013 48.0300 8543.00 8925.78 92.43
3014 48.0433 8615.00 8953.24 92.82
3015 48.0566 8778.00 8987.39 93.69
3016 48.0699 8743.00 9026.70 93.50
3017 48.0832 8626.00 9071.96 92.88
3018 48.0965 8846.00 9123.04 94.05
3019 48.1098 8972.00 9179.75 94.72
3020 48.1231 8891.00 9241.85 94.29
3021 48.1364 9094.00 9309.06 95.36
3022 48.1497 8975.00 9381.00 94.74
3023 48.1630 9138.00 9457.26 95.59
3024 48.1763 9316.00 9537.67 96.52
3025 48.1896 9360.00 9620.92 96.75
3026 48.2029 9328.00 9706.73 96.58
3027 48.2162 9486.00 9794.57 97.40
3028 48.2295 9626.00 9883.87 98.11
3029 48.2428 9730.00 9974.33 98.64
3030 48.2561 9945.00 10065.80 99.72
3031 48.2694 10121.00 10158.40 100.60
3032 48.2827 10092.00 10252.60 100.46
3033 48.2960 10201.00 10349.30 101.00
3034 48.3093 10372.00 10449.90 101.84
3035 48.3226 10428.00 10556.10 102.12
3036 48.3359 10448.00 10670.10 102.21
3037 48.3492 10563.00 10794.50 102.78
3038 48.3625 10530.00 10931.50 102.62
3039 48.3758 10816.00 11083.30 104.00
3040 48.3891 10784.00 11251.60 103.85
3041 48.4024 11022.00 11435.30 104.99
3042 48.4157 11120.00 11632.90 105.45
3043 48.4290 11267.00 11840.30 106.15
3044 48.4423 11656.00 12050.90 107.96
3045 48.4556 12090.00 12255.40 109.96
3046 48.4689 12119.00 12442.40 110.09
3047 48.4822 12503.00 12592.00 111.82
3048 48.4955 12798.00 12704.40 113.13
3049 48.5088 13089.00 12769.50 114.41
3050 48.5221 12779.00 12766.20 113.04
3051 48.5354 13095.00 12704.40 114.43
3052 48.5487 12885.00 12594.50 113.51
3053 48.5620 12952.00 12451.60 113.81
3054 48.5753 12464.00 12291.00 111.64
3055 48.5886 12462.00 12124.40 111.63
3056 48.6019 12038.00 11957.90 109.72
3057 48.6152 11807.00 11789.40 108.66
3058 48.6285 11835.00 11623.30 108.79
3059 48.6418 11523.00 11453.80 107.35
3060 48.6551 11537.00 11280.70 107.41
3061 48.6684 11321.00 11107.60 106.40
3062 48.6817 11010.00 10941.80 104.93
3063 48.6950 10966.00 10792.60 104.72
3064 48.7083 10623.00 10668.60 103.07
3065 48.7216 10561.00 10576.40 102.77
3066 48.7349 10459.00 10519.20 102.27
3067 48.7482 10211.00 10497.00 101.05
3068 48.7615 10315.00 10507.20 101.56
3069 48.7748 10345.00 10544.90 101.71
3070 48.7881 10258.00 10603.30 101.28
3071 48.8014 10611.00 10674.40 103.01
3072 48.8147 10728.00 10749.30 103.58
3073 48.8280 10691.00 10818.20 103.40
3074 48.8413 11056.00 10871.70 105.15
3075 48.8546 11067.00 10902.10 105.20
3076 48.8678 10959.00 10903.90 104.68
3077 48.8811 11237.00 10876.00 106.00
3078 48.8944 11126.00 10820.70 105.48
3079 48.9077 11255.00 10743.70 106.09
3080 48.9210 11204.00 10651.00 105.85
3081 48.9343 11109.00 10548.80 105.40
3082 48.9476 10807.00 10440.40 103.96
3083 48.9609 10879.00 10327.20 104.30
3084 48.9742 10633.00 10208.60 103.12
3085 48.9875 10617.00 10083.40 103.04
3086 49.0008 10250.00 9951.10 101.24
3087 49.0141 10005.00 9812.45 100.03
3088 49.0274 9837.00 9670.29 99.18
3089 49.0407 9778.00 9528.80 98.88
3090 49.0540 9626.00 9392.43 98.11
3091 49.0673 9669.00 9265.52 98.33
3092 49.0806 9510.00 9151.49 97.52
3093 49.0939 9351.00 9052.56 96.70
3094 49.1072 9045.00 8970.11 95.11
3095 49.1205 8928.00 8904.68 94.49
3096 49.1338 8959.00 8856.46 94.65
3097 49.1471 8616.00 8825.30 92.82
3098 49.1604 8872.00 8811.11 94.19
3099 49.1737 8876.00 8812.08 94.21
3100 49.1870 8758.00 8831.68 93.58
3101 49.2003 8740.00 8868.28 93.49
3102 49.2136 8853.00 8922.00 94.09
3103 49.2269 8754.00 8993.03 93.56
3104 49.2402 8970.00 9081.45 94.71
3105 49.2535 8986.00 9187.30 94.79
3106 49.2668 9066.00 9310.37 95.22
3107 49.2801 9018.00 9450.36 94.96
3108 49.2934 9492.00 9606.52 97.43
3109 49.3067 9646.00 9777.05 98.21
3110 49.3200 9636.00 9962.03 98.16
3111 49.3333 9911.00 10158.60 99.55
3112 49.3466 10124.00 10363.90 100.62
3113 49.3599 10286.00 10574.50 101.42
3114 49.3732 10565.00 10786.20 102.79
3115 49.3865 10670.00 10994.00 103.30
3116 49.3998 10996.00 11192.40 104.86
3117 49.4131 11000.00 11375.40 104.88
3118 49.4264 11180.00 11536.90 105.74
3119 49.4397 11294.00 11671.10 106.27
3120 49.4530 11184.00 11773.40 105.75
3121 49.4663 11562.00 11840.30 107.53
3122 49.4796 11561.00 11870.60 107.52
3123 49.4929 11410.00 11864.90 106.82
3124 49.5062 11342.00 11825.70 106.50
3125 49.5195 11279.00 11756.90 106.20
3126 49.5328 11199.00 11662.70 105.82
3127 49.5461 11157.00 11547.20 105.63
3128 49.5594 10964.00 11414.00 104.71
3129 49.5727 10724.00 11265.90 103.56
3130 49.5860 10697.00 11104.80 103.43
3131 49.5993 10579.00 10932.90 102.85
3132 49.6126 10547.00 10752.20 102.70
3133 49.6259 10092.00 10565.30 100.46
3134 49.6392 10028.00 10375.10 100.14
3135 49.6525 9848.00 10185.10 99.24
3136 49.6658 9588.00 9998.72 97.92
3137 49.6791 9474.00 9819.28 97.33
3138 49.6924 9456.00 9649.61 97.24
3139 49.7057 9301.00 9492.10 96.44
3140 49.7190 9148.00 9348.36 95.65
3141 49.7323 9061.00 9219.51 95.19
3142 49.7456 8870.00 9105.95 94.18
3143 49.7589 8886.00 9007.63 94.27
3144 49.7722 8873.00 8923.93 94.20
3145 49.7855 8811.00 8853.87 93.87
3146 49.7988 8809.00 8795.96 93.86
3147 49.8121 8781.00 8748.49 93.71
3148 49.8254 8650.00 8709.35 93.01
3149 49.8387 8617.00 8676.32 92.83
3150 49.8520 8622.00 8647.07 92.85
3151 49.8653 8571.00 8619.54 92.58
3152 49.8786 8845.00 8592.23 94.05
3153 49.8919 8689.00 8564.64 93.21
3154 49.9052 8652.00 8537.41 93.02
3155 49.9185 8646.00 8512.25 92.98
3156 49.9318 8611.00 8491.51 92.80
3157 49.9451 8451.00 8477.61 91.93
3158 49.9584 8610.00 8472.70 92.79
3159 49.9717 8514.00 8478.45 92.27
3160 49.9850 8519.00 8496.10 92.30
3161 49.9983 8770.00 8526.62 93.65
3162 50.0116 8657.00 8570.76 93.04
3163 50.0249 8732.00 8633.08 93.45
3164 50.0382 8519.00 8708.00 92.30
3165 50.0515 8753.00 8799.67 93.56
3166 50.0648 8757.00 8908.42 93.58
3167 50.0781 8710.00 9033.64 93.33
3168 50.0914 8922.00 9173.29 94.46
3169 50.1047 9041.00 9323.88 95.08
3170 50.1180 9226.00 9480.25 96.05
3171 50.1313 9244.00 9635.37 96.15
3172 50.1446 9316.00 9783.42 96.52
3173 50.1579 9381.00 9917.55 96.86
3174 50.1712 9615.00 10026.70 98.06
3175 50.1845 9705.00 10105.50 98.51
3176 50.1978 9652.00 10149.20 98.24
3177 50.2111 9826.00 10156.10 99.13
3178 50.2244 9641.00 10128.30 98.19
3179 50.2377 9687.00 10071.60 98.42
3180 50.2510 9726.00 9993.09 98.62
3181 50.2643 9687.00 9894.35 98.42
3182 50.2776 9413.00 9791.79 97.02
3183 50.2909 9502.00 9682.42 97.48
3184 50.3042 9211.00 9566.71 95.97
3185 50.3175 9142.00 9443.70 95.61
3186 50.3308 9103.00 9311.94 95.41
3187 50.3441 9165.00 9171.45 95.73
3188 50.3574 8755.00 9023.34 93.57
3189 50.3707 8856.00 8870.78 94.11
3190 50.3840 8593.00 8717.86 92.70
3191 50.3972 8485.00 8567.54 92.11
3192 50.4105 8410.00 8426.29 91.71
3193 50.4238 8260.00 8295.16 90.88
3194 50.4371 8268.00 8175.60 90.93
3195 50.4504 8152.00 8067.88 90.29
3196 50.4637 7834.00 7971.69 88.51
3197 50.4770 7811.00 7886.36 88.38
3198 50.4903 7942.00 7810.91 89.12
3199 50.5036 7661.00 7744.36 87.53
3200 50.5169 7757.00 7685.70 88.07
3201 50.5302 7700.00 7634.08 87.75
3202 50.5435 7602.00 7588.67 87.19
3203 50.5568 7577.00 7548.77 87.05
3204 50.5701 7425.00 7513.69 86.17
3205 50.5834 7601.00 7482.86 87.18
3206 50.5967 7350.00 7455.71 85.73
3207 50.6100 7375.00 7431.74 85.88
3208 50.6233 7508.00 7410.50 86.65
3209 50.6366 7347.00 7391.59 85.71
3210 50.6499 7338.00 7374.64 85.66
3211 50.6632 7552.00 7359.35 86.90
3212 50.6765 7367.00 7345.48 85.83
3213 50.6898 7295.00 7332.79 85.41
3214 50.7031 7195.00 7321.11 84.82
3215 50.7164 7349.00 7310.30 85.73
3216 50.7297 7291.00 7300.24 85.39
3217 50.7430 7277.00 7290.83 85.31
3218 50.7563 7300.00 7281.98 85.44
3219 50.7696 7345.00 7273.64 85.70
3220 50.7829 7347.00 7265.73 85.71
3221 50.7962 7261.00 7258.22 85.21
3222 50.8095 7173.00 7251.06 84.69
3223 50.8228 7255.00 7240.20 85.18
3224 50.8361 7108.00 7233.69 84.31
3225 50.8494 7175.00 7227.44 84.71
3226 50.8627 7321.00 7221.41 85.56
3227 50.8760 7378.00 7215.61 85.90
3228 50.8893 7021.00 7210.00 83.79
3229 50.9026 7356.00 7204.57 85.77
3230 50.9159 7278.00 7199.32 85.31
3231 50.9292 7177.00 7194.23 84.72
3232 50.9425 7124.00 7189.30 84.40
3233 50.9558 7218.00 7184.51 84.96
3234 50.9691 7036.00 7177.92 83.88
3235 50.9824 7185.00 7173.43 84.76
3236 50.9957 7262.00 7169.08 85.22
3237 51.0090 7220.00 7164.86 84.97
3238 51.0223 7244.00 7160.76 85.11
3239 51.0356 7060.00 7156.79 84.02
3240 51.0489 7308.00 7152.93 85.49
3241 51.0622 7186.00 7149.20 84.77
3242 51.0755 7252.00 7145.58 85.16
3243 51.0888 7147.00 7142.08 84.54
3244 51.1021 7297.00 7138.70 85.42
3245 51.1154 7115.00 7135.43 84.35
3246 51.1287 7227.00 7132.29 85.01
3247 51.1420 7125.00 7129.26 84.41
3248 51.1553 7021.00 7126.36 83.79
3249 51.1686 7070.00 7123.58 84.08
3250 51.1819 7312.00 7120.93 85.51
3251 51.1952 7207.00 7118.42 84.89
3252 51.2085 7152.00 7116.05 84.57
3253 51.2218 7267.00 7113.84 85.25
3254 51.2351 7118.00 7111.79 84.37
3255 51.2484 7185.00 7109.92 84.76
3256 51.2617 7176.00 7108.23 84.71
3257 51.2750 7098.00 7106.75 84.25
3258 51.2883 7204.00 7105.49 84.88
3259 51.3016 7164.00 7104.48 84.64
3260 51.3149 7163.00 7103.74 84.63
3261 51.3282 7240.00 7103.30 85.09
3262 51.3415 7191.00 7106.17 84.80
3263 51.3548 7252.00 7106.45 85.16
3264 51.3681 7123.00 7107.13 84.40
3265 51.3814 7237.00 7108.25 85.07
3266 51.3947 7293.00 7109.84 85.40
3267 51.4080 7218.00 7111.95 84.96
3268 51.4213 7084.00 7114.64 84.17
3269 51.4346 7225.00 7117.93 85.00
3270 51.4479 7328.00 7121.90 85.60
3271 51.4612 7102.00 7126.59 84.27
3272 51.4745 7282.00 7137.71 85.33
3273 51.4878 7312.00 7144.09 85.51
3274 51.5011 7358.00 7151.41 85.78
3275 51.5144 7070.00 7159.74 84.08
3276 51.5277 7620.00 7169.20 87.29
3277 51.5410 7273.00 7179.94 85.28
3278 51.5543 7401.00 7192.13 86.03
3279 51.5676 7351.00 7206.03 85.74
3280 51.5809 7191.00 7221.95 84.80
3281 51.5942 7266.00 7240.30 85.24
3282 51.6075 7291.00 7261.61 85.39
3283 51.6208 7258.00 7286.53 85.19
3284 51.6341 7416.00 7315.91 86.12
3285 51.6474 7349.00 7350.72 85.73
3286 51.6607 7593.00 7392.14 87.14
3287 51.6740 7468.00 7441.46 86.42
3288 51.6873 7572.00 7500.12 87.02
3289 51.7006 7522.00 7569.50 86.73
3290 51.7139 7760.00 7650.92 88.09
3291 51.7272 7708.00 7745.36 87.80
3292 51.7405 7976.00 7852.57 89.31
3293 51.7538 7844.00 7973.85 88.57
3294 51.7671 7980.00 8107.40 89.33
3295 51.7804 7980.00 8250.88 89.33
3296 51.7937 8095.00 8400.93 89.97
3297 51.8070 8220.00 8552.56 90.66
3298 51.8203 8267.00 8700.37 90.92
3299 51.8336 8351.00 8837.30 91.38
3300 51.8469 8562.00 8955.88 92.53
3301 51.8602 8546.00 9049.07 92.44
3302 51.8735 8588.00 9110.84 92.67
3303 51.8868 8764.00 9139.35 93.62
3304 51.9001 8802.00 9135.34 93.82
3305 51.9133 8695.00 9103.92 93.25
3306 51.9266 8679.00 9051.17 93.16
3307 51.9399 8784.00 8985.24 93.72
3308 51.9532 8593.00 8911.65 92.70
3309 51.9665 8734.00 8833.50 93.46
3310 51.9798 8458.00 8751.43 91.97
3311 51.9931 8547.00 8664.25 92.45
3312 52.0064 8532.00 8569.98 92.37
3313 52.0197 8185.00 8466.93 90.47
3314 52.0330 8263.00 8354.96 90.90
3315 52.0463 8141.00 8235.69 90.23
3316 52.0596 8131.00 8105.67 90.17
3317 52.0729 7932.00 7982.44 89.06
3318 52.0862 7975.00 7860.53 89.30
3319 52.0995 7921.00 7748.07 89.00
3320 52.1128 7805.00 7644.45 88.35
3321 52.1261 7717.00 7550.53 87.85
3322 52.1394 7767.00 7462.26 88.13
3323 52.1527 7509.00 7387.65 86.65
3324 52.1660 7592.00 7321.80 87.13
3325 52.1793 7288.00 7263.88 85.37
3326 52.1926 7311.00 7213.13 85.50
3327 52.2059 7328.00 7165.57 85.60
3328 52.2192 7366.00 7126.98 85.83
3329 52.2325 7333.00 7107.86 85.63
3330 52.2458 7249.00 7079.08 85.14
3331 52.2591 7289.00 7054.27 85.38
3332 52.2724 7158.00 7032.91 84.61
3333 52.2857 7268.00 7012.47 85.25
3334 52.2990 7137.00 6996.62 84.48
3335 52.3123 7056.00 6982.90 84.00
3336 52.3256 7005.00 6970.94 83.70
3337 52.3389 7150.00 6960.43 84.56
3338 52.3522 7087.00 6951.15 84.18
3339 52.3655 7008.00 6942.85 83.71
3340 52.3788 6954.00 6935.40 83.39
3341 52.3921 6976.00 6928.64 83.52
3342 52.4054 7035.00 6922.47 83.87
3343 52.4187 7023.00 6916.81 83.80
3344 52.4320 6986.00 6911.58 83.58
3345 52.4453 7039.00 6906.74 83.90
3346 52.4586 6855.00 6902.23 82.79
3347 52.4719 7014.00 6898.03 83.75
3348 52.4852 7042.00 6894.09 83.92
3349 52.4985 7048.00 6893.27 83.95
3350 52.5118 6829.00 6889.83 82.64
3351 52.5251 7057.00 6886.59 84.01
3352 52.5384 6871.00 6883.54 82.89
3353 52.5517 6947.00 6880.66 83.35
3354 52.5650 7036.00 6877.95 83.88
3355 52.5783 6843.00 6875.39 82.72
3356 52.5916 6955.00 6872.99 83.40
3357 52.6049 7033.00 6870.72 83.86
3358 52.6182 6830.00 6868.59 82.64
3359 52.6315 6957.00 6870.62 83.41
3360 52.6448 6882.00 6868.82 82.96
3361 52.6581 7006.00 6867.15 83.70
3362 52.6714 6979.00 6865.62 83.54
3363 52.6847 6995.00 6864.23 83.64
3364 52.6980 6879.00 6862.98 82.94
3365 52.7113 7000.00 6861.88 83.67
3366 52.7246 6846.00 6860.92 82.74
3367 52.7379 7014.00 6860.12 83.75
3368 52.7512 6813.00 6859.47 82.54
3369 52.7645 7031.00 6858.99 83.85
3370 52.7778 7055.00 6858.67 83.99
3371 52.7911 6851.00 6858.53 82.77
3372 52.8044 7081.00 6858.56 84.15
3373 52.8177 6984.00 6858.78 83.57
3374 52.8310 7040.00 6859.20 83.90
3375 52.8443 7121.00 6859.81 84.39
3376 52.8576 6935.00 6860.64 83.28
3377 52.8709 6948.00 6861.68 83.35
3378 52.8842 6894.00 6862.95 83.03
3379 52.8975 7259.00 6864.46 85.20
3380 52.9108 7118.00 6866.22 84.37
3381 52.9241 7214.00 6868.25 84.94
3382 52.9374 7159.00 6870.55 84.61
3383 52.9507 7262.00 6873.17 85.22
3384 52.9640 7353.00 6876.13 85.75
3385 52.9773 7372.00 6879.46 85.86
3386 52.9906 7302.00 6883.23 85.45
3387 53.0039 7275.00 6887.50 85.29
3388 53.0172 7231.00 6892.37 85.04
3389 53.0305 7438.00 6897.94 86.24
3390 53.0438 7360.00 6904.37 85.79
3391 53.0571 7503.00 6911.86 86.62
3392 53.0704 7489.00 6920.65 86.54
3393 53.0837 7647.00 6931.05 87.45
3394 53.0970 7532.00 6943.43 86.79
3395 53.1103 7623.00 6958.27 87.31
3396 53.1236 7594.00 6976.09 87.14
3397 53.1369 7647.00 6997.55 87.45
3398 53.1502 7422.00 7023.38 86.15
3399 53.1635 7552.00 7054.43 86.90
3400 53.1768 7564.00 7091.57 86.97
3401 53.1901 7782.00 7135.74 88.22
3402 53.2034 7703.00 7187.84 87.77
3403 53.2167 7653.00 7248.71 87.48
3404 53.2300 7664.00 7318.98 87.54
3405 53.2433 7906.00 7399.06 88.92
3406 53.2566 7859.00 7488.94 88.65
3407 53.2699 7853.00 7588.22 88.62
3408 53.2832 7986.00 7695.90 89.36
3409 53.2965 8118.00 7810.33 90.10
3410 53.3098 8316.00 7929.27 91.19
3411 53.3231 8193.00 8049.69 90.52
3412 53.3364 8416.00 8167.94 91.74
3413 53.3497 8570.00 8279.68 92.57
3414 53.3630 8566.00 8380.29 92.55
3415 53.3763 8707.00 8465.06 93.31
3416 53.3896 8826.00 8530.12 93.95
3417 53.4029 8601.00 8572.86 92.74
3418 53.4162 8910.00 8592.84 94.39
3419 53.4295 8900.00 8591.80 94.34
3420 53.4427 8823.00 8573.48 93.93
3421 53.4560 8801.00 8541.99 93.81
3422 53.4693 8782.00 8501.62 93.71
3423 53.4826 8578.00 8455.53 92.62
3424 53.4959 8631.00 8405.51 92.90
3425 53.5092 8551.00 8352.01 92.47
3426 53.5225 8477.00 8294.51 92.07
3427 53.5358 8650.00 8232.24 93.01
3428 53.5491 8481.00 8164.69 92.09
3429 53.5624 8354.00 8092.31 91.40
3430 53.5757 8297.00 8016.49 91.09
3431 53.5890 8189.00 7939.55 90.49
3432 53.6023 7946.00 7864.23 89.14
3433 53.6156 8028.00 7793.28 89.60
3434 53.6289 7984.00 7728.99 89.35
3435 53.6422 8005.00 7673.17 89.47
3436 53.6555 7717.00 7626.97 87.85
3437 53.6688 7766.00 7591.09 88.12
3438 53.6821 7623.00 7565.84 87.31
3439 53.6954 7614.00 7551.32 87.26
3440 53.7087 7808.00 7547.42 88.36
3441 53.7220 7750.00 7553.99 88.03
3442 53.7353 7774.00 7570.82 88.17
3443 53.7486 7572.00 7597.61 87.02
3444 53.7619 7684.00 7630.80 87.66
3445 53.7752 7805.00 7676.45 88.35
3446 53.7885 7753.00 7730.77 88.05
3447 53.8018 7888.00 7793.04 88.81
3448 53.8151 7718.00 7862.49 87.85
3449 53.8284 7983.00 7938.07 89.35
3450 53.8417 8032.00 8018.65 89.62
3451 53.8550 8053.00 8102.84 89.74
3452 53.8683 8172.00 8189.14 90.40
3453 53.8816 8206.00 8275.82 90.59
3454 53.8949 8346.00 8361.09 91.36
3455 53.9082 8405.00 8441.46 91.68
3456 53.9215 8607.00 8518.30 92.77
3457 53.9348 8522.00 8588.39 92.31
3458 53.9481 8673.00 8650.46 93.13
3459 53.9614 8709.00 8703.80 93.32
3460 53.9747 8876.00 8748.29 94.21
3461 53.9880 8695.00 8784.48 93.25
3462 54.0013 8891.00 8813.42 94.29
3463 54.0146 8755.00 8836.55 93.57
3464 54.0279 8831.00 8855.41 93.97
3465 54.0412 8957.00 8871.57 94.64
3466 54.0545 8975.00 8886.43 94.74
3467 54.0678 8980.00 8901.29 94.76
3468 54.0811 8984.00 8917.35 94.78
3469 54.0944 9119.00 8935.88 95.49
3470 54.1077 8989.00 8958.16 94.81
3471 54.1210 8928.00 8985.57 94.49
3472 54.1343 8983.00 9019.48 94.78
3473 54.1476 9197.00 9061.24 95.90
3474 54.1609 9100.00 9112.03 95.39
3475 54.1742 8994.00 9172.84 94.84
3476 54.1875 9257.00 9244.33 96.21
3477 54.2008 9242.00 9326.88 96.14
3478 54.2141 9322.00 9420.47 96.55
3479 54.2274 9394.00 9524.86 96.92
3480 54.2407 9465.00 9639.38 97.29
3481 54.2540 9844.00 9763.17 99.22
3482 54.2673 9725.00 9894.92 98.62
3483 54.2806 9878.00 10033.20 99.39
3484 54.2939 10141.00 10176.00 100.70
3485 54.3072 10207.00 10321.40 101.03
3486 54.3205 10545.00 10467.10 102.69
3487 54.3338 10599.00 10610.90 102.95
3488 54.3471 10403.00 10750.40 102.00
3489 54.3604 10725.00 10883.60 103.56
3490 54.3737 10868.00 11008.70 104.25
3491 54.3870 10869.00 11124.30 104.25
3492 54.4003 11010.00 11229.30 104.93
3493 54.4136 10966.00 11322.70 104.72
3494 54.4269 10961.00 11404.00 104.69
3495 54.4402 10986.00 11472.10 104.81
3496 54.4535 11147.00 11525.80 105.58
3497 54.4668 11064.00 11563.10 105.19
3498 54.4801 10957.00 11581.40 104.68
3499 54.4934 11242.00 11577.40 106.03
3500 54.5067 11035.00 11547.70 105.05
3501 54.5200 10988.00 11489.50 104.82
3502 54.5333 10957.00 11401.90 104.68
3503 54.5466 10855.00 11283.80 104.19
3504 54.5599 10668.00 11138.80 103.29
3505 54.5732 10543.00 10971.90 102.68
3506 54.5865 10583.00 10789.30 102.87
3507 54.5998 10082.00 10597.20 100.41
3508 54.6131 9923.00 10400.30 99.61
3509 54.6264 9836.00 10202.20 99.18
3510 54.6397 9525.00 10004.80 97.60
3511 54.6530 9424.00 9808.58 97.08
3512 54.6663 9213.00 9613.18 95.98
3513 54.6796 9153.00 9418.85 95.67
3514 54.6929 8880.00 9224.72 94.23
3515 54.7062 8771.00 9037.13 93.65
3516 54.7195 8469.00 8848.29 92.03
3517 54.7328 8510.00 8665.61 92.25
3518 54.7461 8325.00 8491.31 91.24
3519 54.7594 8150.00 8327.54 90.28
3520 54.7727 7977.00 8175.65 89.31
3521 54.7860 7869.00 8036.48 88.71
3522 54.7993 7750.00 7910.26 88.03
3523 54.8126 7628.00 7796.66 87.34
3524 54.8259 7371.00 7695.21 85.85
3525 54.8392 7372.00 7605.13 85.86
3526 54.8525 7269.00 7528.50 85.26
3527 54.8658 7380.00 7458.87 85.91
3528 54.8791 7441.00 7398.29 86.26
3529 54.8924 7272.00 7345.99 85.28
3530 54.9057 7392.00 7301.29 85.98
3531 54.9190 7157.00 7263.52 84.60
3532 54.9323 7165.00 7232.06 84.65
3533 54.9456 7173.00 7206.30 84.69
3534 54.9588 7046.00 7185.83 83.94
3535 54.9721 7141.00 7169.78 84.50
3536 54.9854 7139.00 7157.81 84.49
3537 54.9987 6963.00 7149.44 83.44
3538 55.0120 7147.00 7144.20 84.54
3539 55.0253 7182.00 7141.69 84.75
3540 55.0386 6933.00 7141.50 83.26
3541 55.0519 6960.00 7143.26 83.43
3542 55.0652 6974.00 7146.64 83.51
3543 55.0785 6975.00 7151.31 83.52
3544 55.0918 7091.00 7156.97 84.21
3545 55.1051 6958.00 7163.32 83.41
3546 55.1184 6911.00 7170.08 83.13
3547 55.1317 6897.00 7176.97 83.05
3548 55.1450 6954.00 7183.74 83.39
3549 55.1583 6971.00 7190.12 83.49
3550 55.1716 7119.00 7195.86 84.37
3551 55.1849 7082.00 7200.75 84.15
3552 55.1982 6992.00 7204.57 83.62
3553 55.2115 7021.00 7207.13 83.79
3554 55.2248 6872.00 7208.28 82.90
3555 55.2381 7113.00 7207.87 84.34
3556 55.2514 6960.00 7205.82 83.43
3557 55.2647 7198.00 7202.06 84.84
3558 55.2780 7145.00 7196.59 84.53
3559 55.2913 6933.00 7189.40 83.26
3560 55.3046 7066.00 7180.53 84.06
3561 55.3179 7029.00 7170.07 83.84
3562 55.3312 6957.00 7158.08 83.41
3563 55.3445 6942.00 7144.69 83.32
3564 55.3578 6820.00 7130.01 82.58
3565 55.3711 6848.00 7114.16 82.75
3566 55.3844 6955.00 7097.27 83.40
3567 55.3977 6968.00 7079.49 83.47
3568 55.4110 6875.00 7060.93 82.92
3569 55.4243 6804.00 7041.76 82.49
3570 55.4376 6832.00 7022.09 82.66
3571 55.4509 6704.00 7002.07 81.88
3572 55.4642 6840.00 6981.83 82.70
3573 55.4775 6728.00 6961.49 82.02
3574 55.4908 6602.00 6938.21 81.25
3575 55.5041 6821.00 6918.07 82.59
3576 55.5174 6774.00 6898.15 82.30
3577 55.5307 6707.00 6878.56 81.90
3578 55.5440 6682.00 6859.36 81.74
3579 55.5573 6725.00 6840.63 82.01
3580 55.5706 6794.00 6822.41 82.43
3581 55.5839 6705.00 6804.77 81.88
3582 55.5972 6770.00 6787.71 82.28
3583 55.6105 6860.00 6771.28 82.83
3584 55.6238 6821.00 6755.49 82.59
3585 55.6371 6833.00 6738.89 82.66
3586 55.6504 6913.00 6724.43 83.14
3587 55.6637 6904.00 6710.62 83.09
3588 55.6770 6840.00 6697.46 82.70
3589 55.6903 6833.00 6684.94 82.66
3590 55.7036 6732.00 6673.06 82.05
3591 55.7169 6667.00 6661.81 81.65
3592 55.7302 6703.00 6651.16 81.87
3593 55.7435 6633.00 6641.10 81.44
3594 55.7568 6897.00 6631.62 83.05
3595 55.7701 6722.00 6622.71 81.99
3596 55.7834 6786.00 6614.33 82.38
3597 55.7967 6775.00 6606.47 82.31
3598 55.8100 6830.00 6599.11 82.64
3599 55.8233 6744.00 6592.24 82.12
3600 55.8366 6563.00 6585.83 81.01
3601 55.8499 6579.00 6579.86 81.11
3602 55.8632 6545.00 6574.31 80.90
3603 55.8765 6517.00 6569.17 80.73
3604 55.8898 6471.00 6564.42 80.44
3605 55.9031 6712.00 6560.03 81.93
3606 55.9164 6569.00 6555.99 81.05
3607 55.9297 6612.00 6552.28 81.31
3608 55.9430 6449.00 6548.93 80.31
3609 55.9563 6506.00 6545.84 80.66
3610 55.9696 6523.00 6543.04 80.77
3611 55.9829 6480.00 6540.52 80.50
3612 55.9962 6497.00 6538.25 80.60
3613 56.0095 6459.00 6536.24 80.37
3614 56.0228 6635.00 6534.47 81.46
3615 56.0361 6549.00 6532.93 80.93
3616 56.0494 6679.00 6531.61 81.73
3617 56.0627 6578.00 6530.34 81.10
3618 56.0760 6610.00 6529.46 81.30
3619 56.0893 6551.00 6528.81 80.94
3620 56.1026 6554.00 6528.35 80.96
3621 56.1159 6507.00 6528.09 80.67
3622 56.1292 6441.00 6528.04 80.26
3623 56.1425 6588.00 6528.20 81.17
3624 56.1558 6426.00 6528.57 80.16
3625 56.1691 6632.00 6529.16 81.44
3626 56.1824 6559.00 6529.96 80.99
3627 56.1957 6564.00 6531.00 81.02
3628 56.2090 6582.00 6532.20 81.13
3629 56.2223 6612.00 6533.76 81.31
3630 56.2356 6536.00 6535.60 80.85
3631 56.2489 6535.00 6537.75 80.84
3632 56.2622 6530.00 6540.27 80.81
3633 56.2755 6521.00 6543.18 80.75
3634 56.2888 6608.00 6546.56 81.29
3635 56.3021 6556.00 6550.48 80.97
3636 56.3154 6538.00 6555.03 80.86
3637 56.3287 6438.00 6560.32 80.24
3638 56.3420 6585.00 6566.50 81.15
3639 56.3553 6611.00 6573.73 81.31
3640 56.3686 6567.00 6582.21 81.04
3641 56.3819 6611.00 6592.17 81.31
3642 56.3952 6625.00 6603.86 81.39
3643 56.4085 6664.00 6617.57 81.63
3644 56.4218 6705.00 6633.61 81.88
3645 56.4351 6798.00 6652.29 82.45
3646 56.4484 6641.00 6673.92 81.49
3647 56.4617 6742.00 6698.76 82.11
3648 56.4750 6619.00 6727.07 81.36
3649 56.4882 6638.00 6758.71 81.47
3650 56.5015 6729.00 6794.21 82.03
3651 56.5148 6775.00 6833.26 82.31
3652 56.5281 6760.00 6875.63 82.22
3653 56.5414 6857.00 6920.93 82.81
3654 56.5547 6941.00 6968.64 83.31
3655 56.5680 7089.00 7018.06 84.20
3656 56.5813 7029.00 7068.43 83.84
3657 56.5946 7182.00 7118.83 84.75
3658 56.6079 7239.00 7165.64 85.08
3659 56.6212 7289.00 7213.75 85.38
3660 56.6345 7457.00 7259.91 86.35
3661 56.6478 7246.00 7304.18 85.12
3662 56.6611 7389.00 7347.34 85.96
3663 56.6744 7428.00 7388.36 86.19
3664 56.6877 7378.00 7434.32 85.90
3665 56.7010 7476.00 7485.13 86.46
3666 56.7143 7692.00 7543.25 87.70
3667 56.7276 7598.00 7610.81 87.17
3668 56.7409 7730.00 7689.44 87.92
3669 56.7542 7805.00 7780.10 88.35
3670 56.7675 7820.00 7881.77 88.43
3671 56.7808 7984.00 7996.84 89.35
3672 56.7941 8075.00 8123.04 89.86
3673 56.8074 8089.00 8258.89 89.94
3674 56.8207 8306.00 8402.54 91.14
3675 56.8340 8455.00 8550.29 91.95
3676 56.8473 8486.00 8701.64 92.12
3677 56.8606 8873.00 8853.08 94.20
3678 56.8739 8601.00 8997.21 92.74
3679 56.8872 8886.00 9130.24 94.27
3680 56.9005 9431.00 9246.63 97.11
3681 56.9138 9341.00 9340.88 96.65
3682 56.9271 9501.00 9408.44 97.47
3683 56.9404 9325.00 9446.55 96.57
3684 56.9537 9386.00 9454.82 96.88
3685 56.9670 9501.00 9435.38 97.47
3686 56.9803 9523.00 9392.41 97.59
3687 56.9936 9279.00 9331.12 96.33
3688 57.0069 9242.00 9256.71 96.14
3689 57.0202 9263.00 9174.03 96.24
3690 57.0335 9136.00 9084.27 95.58
3691 57.0468 8985.00 8989.15 94.79
3692 57.0601 8861.00 8888.45 94.13
3693 57.0734 8672.00 8781.14 93.12
3694 57.0867 8815.00 8666.28 93.89
3695 57.1000 8556.00 8543.43 92.50
3696 57.1133 8374.00 8413.30 91.51
3697 57.1266 8371.00 8277.64 91.49
3698 57.1399 8215.00 8139.25 90.64
3699 57.1532 8000.00 8001.17 89.44
3700 57.1665 7896.00 7866.55 88.86
3701 57.1798 7843.00 7737.89 88.56
3702 57.1931 7697.00 7617.18 87.73
3703 57.2064 7556.00 7505.56 86.93
3704 57.2197 7426.00 7403.65 86.17
3705 57.2330 7357.00 7311.46 85.77
3706 57.2463 7138.00 7228.77 84.49
3707 57.2596 7244.00 7154.97 85.11
3708 57.2729 7173.00 7089.51 84.69
3709 57.2862 6924.00 7031.60 83.21
3710 57.2995 7095.00 6980.60 84.23
3711 57.3128 6984.00 6935.80 83.57
3712 57.3261 6827.00 6896.52 82.63
3713 57.3394 6945.00 6863.01 83.34
3714 57.3527 6672.00 6832.93 81.68
3715 57.3660 6958.00 6806.57 83.41
3716 57.3793 6932.00 6783.39 83.26
3717 57.3926 6895.00 6762.91 83.04
3718 57.4059 6860.00 6744.66 82.83
3719 57.4192 6771.00 6728.23 82.29
3720 57.4325 6562.00 6713.26 81.01
3721 57.4458 6646.00 6699.45 81.52
3722 57.4591 6699.00 6686.55 81.85
3723 57.4724 6826.00 6674.37 82.62
3724 57.4857 6574.00 6657.40 81.08
3725 57.4990 6670.00 6647.93 81.67
3726 57.5123 6597.00 6637.19 81.22
3727 57.5256 6743.00 6626.75 82.12
3728 57.5389 6609.00 6616.56 81.30
3729 57.5522 6490.00 6606.57 80.56
3730 57.5655 6536.00 6596.77 80.85
3731 57.5788 6559.00 6587.12 80.99
3732 57.5921 6594.00 6577.64 81.20
3733 57.6054 6415.00 6568.32 80.09
3734 57.6187 6598.00 6559.16 81.23
3735 57.6320 6569.00 6550.20 81.05
3736 57.6453 6369.00 6538.82 79.81
3737 57.6586 6594.00 6530.33 81.20
3738 57.6719 6494.00 6522.11 80.59
3739 57.6852 6516.00 6514.19 80.72
3740 57.6985 6592.00 6506.57 81.19
3741 57.7118 6444.00 6499.29 80.27
3742 57.7251 6431.00 6492.33 80.19
3743 57.7384 6469.00 6485.73 80.43
3744 57.7517 6540.00 6479.46 80.87
3745 57.7650 6497.00 6473.54 80.60
3746 57.7783 6295.00 6467.95 79.34
3747 57.7916 6360.00 6462.68 79.75
3748 57.8049 6502.00 6457.73 80.64
3749 57.8182 6522.00 6453.09 80.76
3750 57.8315 6318.00 6448.74 79.49
3751 57.8448 6282.00 6444.67 79.26
3752 57.8581 6422.00 6440.86 80.14
3753 57.8714 6365.00 6437.30 79.78
3754 57.8847 6339.00 6433.98 79.62
3755 57.8980 6471.00 6430.89 80.44
3756 57.9113 6385.00 6428.01 79.91
3757 57.9246 6400.00 6425.33 80.00
3758 57.9379 6423.00 6422.83 80.14
3759 57.9512 6346.00 6420.52 79.66
3760 57.9645 6389.00 6418.37 79.93
3761 57.9778 6307.00 6416.37 79.42
3762 57.9911 6320.00 6414.52 79.50
3763 58.0043 6529.00 6412.82 80.80
3764 58.0176 6559.00 6411.24 80.99
3765 58.0309 6367.00 6409.77 79.79
3766 58.0442 6279.00 6408.41 79.24
3767 58.0575 6330.00 6407.16 79.56
3768 58.0708 6468.00 6406.01 80.42
3769 58.0841 6296.00 6404.94 79.35
3770 58.0974 6484.00 6403.96 80.52
3771 58.1107 6273.00 6403.07 79.20
3772 58.1240 6511.00 6402.24 80.69
3773 58.1373 6338.00 6401.50 79.61
3774 58.1506 6402.00 6400.82 80.01
3775 58.1639 6401.00 6400.20 80.01
3776 58.1772 6420.00 6399.66 80.12
3777 58.1905 6309.00 6399.17 79.43
3778 58.2038 6406.00 6398.74 80.04
3779 58.2171 6362.00 6398.37 79.76
3780 58.2304 6358.00 6398.05 79.74
3781 58.2437 6400.00 6397.79 80.00
3782 58.2570 6412.00 6397.59 80.07
3783 58.2703 6354.00 6397.45 79.71
3784 58.2836 6393.00 6397.35 79.96
3785 58.2969 6317.00 6397.32 79.48
3786 58.3102 6335.00 6397.34 79.59
3787 58.3235 6362.00 6397.43 79.76
3788 58.3368 6347.00 6397.57 79.67
3789 58.3501 6334.00 6398.39 79.59
3790 58.3634 6434.00 6398.66 80.21
3791 58.3767 6385.00 6399.01 79.91
3792 58.3900 6260.00 6399.43 79.12
3793 58.4033 6428.00 6399.92 80.17
3794 58.4166 6434.00 6400.49 80.21
3795 58.4299 6516.00 6401.14 80.72
3796 58.4432 6326.00 6401.88 79.54
3797 58.4565 6357.00 6402.71 79.73
3798 58.4698 6396.00 6403.64 79.97
3799 58.4831 6266.00 6404.68 79.16
3800 58.4964 6380.00 6405.83 79.87
3801 58.5097 6307.00 6415.11 79.42
3802 58.5230 6330.00 6416.59 79.56
3803 58.5363 6409.00 6418.22 80.06
3804 58.5496 6379.00 6419.99 79.87
3805 58.5629 6418.00 6421.92 80.11
3806 58.5762 6251.00 6424.02 79.06
3807 58.5895 6415.00 6426.30 80.09
3808 58.6028 6443.00 6428.77 80.27
3809 58.6161 6472.00 6431.47 80.45
3810 58.6294 6504.00 6434.39 80.65
3811 58.6427 6506.00 6437.58 80.66
3812 58.6560 6486.00 6441.07 80.54
3813 58.6693 6464.00 6444.89 80.40
3814 58.6826 6501.00 6449.10 80.63
3815 58.6959 6500.00 6453.76 80.62
3816 58.7092 6522.00 6458.96 80.76
3817 58.7225 6433.00 6464.80 80.21
3818 58.7358 6554.00 6471.42 80.96
3819 58.7491 6439.00 6478.97 80.24
3820 58.7624 6563.00 6487.65 81.01
3821 58.7757 6392.00 6497.71 79.95
3822 58.7890 6330.00 6508.56 79.56
3823 58.8023 6522.00 6522.26 80.76
3824 58.8156 6490.00 6538.30 80.56
3825 58.8289 6664.00 6557.10 81.63
3826 58.8422 6634.00 6579.11 81.45
3827 58.8555 6624.00 6604.76 81.39
3828 58.8688 6482.00 6634.50 80.51
3829 58.8821 6536.00 6668.73 80.85
3830 58.8954 6579.00 6707.73 81.11
3831 58.9087 6695.00 6751.68 81.82
3832 58.9220 6427.00 6800.58 80.17
3833 58.9353 6607.00 6854.24 81.28
3834 58.9486 6588.00 6911.72 81.17
3835 58.9619 6729.00 6973.16 82.03
3836 58.9752 6766.00 7037.09 82.26
3837 58.9885 6986.00 7102.25 83.58
3838 59.0018 6990.00 7166.97 83.61
3839 59.0151 7107.00 7229.46 84.30
3840 59.0284 7144.00 7287.70 84.52
3841 59.0417 7518.00 7339.63 86.71
3842 59.0550 7439.00 7383.20 86.25
3843 59.0683 7534.00 7416.87 86.80
3844 59.0816 7742.00 7439.56 87.99
3845 59.0949 7656.00 7451.12 87.50
3846 59.1082 7572.00 7452.23 87.02
3847 59.1215 7444.00 7444.33 86.28
3848 59.1348 7668.00 7429.28 87.57
3849 59.1481 7583.00 7408.99 87.08
3850 59.1614 7492.00 7385.08 86.56
3851 59.1747 7523.00 7358.63 86.74
3852 59.1880 7417.00 7330.24 86.12
3853 59.2013 7375.00 7295.27 85.88
3854 59.2146 7254.00 7262.92 85.17
3855 59.2279 7198.00 7228.07 84.84
3856 59.2412 7160.00 7190.52 84.62
3857 59.2545 7097.00 7150.32 84.24
3858 59.2678 7240.00 7107.98 85.09
3859 59.2811 7218.00 7064.35 84.96
3860 59.2944 6945.00 7020.64 83.34
3861 59.3077 6997.00 6978.12 83.65
3862 59.3210 7098.00 6937.96 84.25
3863 59.3343 6690.00 6901.26 81.79
3864 59.3476 6821.00 6868.81 82.59
3865 59.3609 6904.00 6838.89 83.09
3866 59.3742 6848.00 6816.54 82.75
3867 59.3875 6748.00 6799.70 82.15
3868 59.4008 6695.00 6788.44 81.82
3869 59.4141 6738.00 6782.81 82.09
3870 59.4274 6559.00 6782.73 80.99
3871 59.4407 6689.00 6788.04 81.79
3872 59.4540 6646.00 6798.48 81.52
3873 59.4673 6680.00 6813.67 81.73
3874 59.4806 6644.00 6833.10 81.51
3875 59.4939 6956.00 6856.13 83.40
3876 59.5072 6818.00 6881.98 82.57
3877 59.5204 6963.00 6909.45 83.44
3878 59.5337 6966.00 6937.94 83.46
3879 59.5470 6902.00 6966.02 83.08
3880 59.5603 7108.00 6992.44 84.31
3881 59.5736 6970.00 7015.25 83.49
3882 59.5869 7122.00 7034.64 84.39
3883 59.6002 7160.00 7049.00 84.62
3884 59.6135 7402.00 7057.77 86.03
3885 59.6268 7101.00 7060.86 84.27
3886 59.6401 7327.00 7058.66 85.60
3887 59.6534 7311.00 7051.96 85.50
3888 59.6667 7349.00 7041.73 85.73
3889 59.6800 7307.00 7028.96 85.48
3890 59.6933 7225.00 7014.45 85.00
3891 59.7066 7371.00 6998.79 85.85
3892 59.7199 7173.00 6982.20 84.69
3893 59.7332 7171.00 6964.38 84.68
3894 59.7465 7020.00 6945.87 83.79
3895 59.7598 7263.00 6926.10 85.22
3896 59.7731 7001.00 6904.96 83.67
3897 59.7864 7019.00 6882.51 83.78
3898 59.7997 7005.00 6858.97 83.70
3899 59.8130 7081.00 6834.81 84.15
3900 59.8263 7073.00 6810.60 84.10
3901 59.8396 6647.00 6787.00 81.53
3902 59.8529 6882.00 6764.59 82.96
3903 59.8662 6831.00 6743.85 82.65
3904 59.8795 6765.00 6725.14 82.25
3905 59.8928 6704.00 6708.68 81.88
3906 59.9061 6748.00 6694.58 82.15
3907 59.9194 6706.00 6682.86 81.89
3908 59.9327 6512.00 6673.48 80.70
3909 59.9460 6755.00 6666.35 82.19
3910 59.9593 6804.00 6661.34 82.49
3911 59.9726 6606.00 6658.33 81.28
3912 59.9859 6711.00 6657.19 81.92
3913 59.9992 6583.00 6657.76 81.14
3914 60.0125 6635.00 6659.92 81.46
3915 60.0258 6774.00 6663.52 82.30
3916 60.0391 6540.00 6668.41 80.87
3917 60.0524 6782.00 6674.45 82.35
3918 60.0657 6776.00 6681.49 82.32
3919 60.0790 6685.00 6689.38 81.76
3920 60.0923 6751.00 6697.97 82.16
3921 60.1056 6702.00 6707.15 81.87
3922 60.1189 6671.00 6716.76 81.68
3923 60.1322 6674.00 6726.71 81.69
3924 60.1455 6560.00 6736.90 80.99
3925 60.1588 6773.00 6747.23 82.30
3926 60.1721 6773.00 6757.63 82.30
3927 60.1854 6824.00 6768.03 82.61
3928 60.1987 6740.00 6778.38 82.10
3929 60.2120 6763.00 6788.60 82.24
3930 60.2253 6800.00 6798.63 82.46
3931 60.2386 6855.00 6808.40 82.79
3932 60.2519 6848.00 6817.82 82.75
3933 60.2652 6883.00 6826.82 82.96
3934 60.2785 6848.00 6835.30 82.75
3935 60.2918 6776.00 6843.21 82.32
3936 60.3051 6776.00 6850.48 82.32
3937 60.3184 6808.00 6857.07 82.51
3938 60.3317 6950.00 6862.97 83.37
3939 60.3450 6951.00 6868.60 83.37
3940 60.3583 6788.00 6873.25 82.39
3941 60.3716 6732.00 6877.42 82.05
3942 60.3849 6859.00 6881.25 82.82
3943 60.3982 6778.00 6884.92 82.33
3944 60.4115 6963.00 6888.65 83.44
3945 60.4248 6892.00 6892.68 83.02
3946 60.4381 6966.00 6897.27 83.46
3947 60.4514 6811.00 6902.68 82.53
3948 60.4647 6959.00 6909.19 83.42
3949 60.4780 6642.00 6917.07 81.50
3950 60.4913 6882.00 6926.62 82.96
3951 60.5046 6819.00 6940.07 82.58
3952 60.5179 6895.00 6953.83 83.04
3953 60.5312 6690.00 6970.13 81.79
3954 60.5445 6950.00 6989.25 83.37
3955 60.5578 6973.00 7011.47 83.50
3956 60.5711 7004.00 7037.04 83.69
3957 60.5844 7078.00 7066.18 84.13
3958 60.5977 7037.00 7099.09 83.89
3959 60.6110 7037.00 7135.83 83.89
3960 60.6243 7216.00 7176.45 84.95
3961 60.6376 7095.00 7221.78 84.23
3962 60.6509 7192.00 7269.93 84.81
3963 60.6642 7270.00 7321.45 85.26
3964 60.6775 7238.00 7376.04 85.08
3965 60.6908 7296.00 7440.13 85.42
3966 60.7041 7499.00 7499.24 86.60
3967 60.7174 7359.00 7559.57 85.78
3968 60.7307 7575.00 7620.37 87.03
3969 60.7440 7633.00 7680.75 87.37
3970 60.7573 7456.00 7739.93 86.35
3971 60.7706 7653.00 7797.19 87.48
3972 60.7839 7691.00 7851.80 87.70
3973 60.7972 7834.00 7903.78 88.51
3974 60.8105 7912.00 7952.85 88.95
3975 60.8238 7905.00 7999.13 88.91
3976 60.8371 8023.00 8042.76 89.57
3977 60.8504 8111.00 8083.97 90.06
3978 60.8637 8144.00 8122.89 90.24
3979 60.8770 7913.00 8159.49 88.96
3980 60.8903 8158.00 8193.51 90.32
3981 60.9036 8425.00 8224.57 91.79
3982 60.9169 8436.00 8252.12 91.85
3983 60.9302 8397.00 8275.56 91.64
3984 60.9435 8452.00 8294.24 91.93
3985 60.9568 8449.00 8307.50 91.92
3986 60.9701 8376.00 8315.13 91.52
3987 60.9834 8460.00 8316.76 91.98
3988 60.9967 8346.00 8312.30 91.36
3989 61.0100 8328.00 8301.81 91.26
3990 61.0233 8391.00 8285.51 91.60
3991 61.0366 8212.00 8263.72 90.62
3992 61.0498 8361.00 8237.03 91.44
3993 61.0631 8048.00 8205.48 89.71
3994 61.0764 8292.00 8169.71 91.06
3995 61.0897 8188.00 8130.17 90.49
3996 61.1030 8165.00 8087.35 90.36
3997 61.1163 7965.00 8043.87 89.25
3998 61.1296 8106.00 7995.72 90.03
3999 61.1429 7750.00 7945.42 88.03
4000 61.1562 7864.00 7893.32 88.68
4001 61.1695 7889.00 7839.70 88.82
4002 61.1828 7720.00 7784.85 87.86
4003 61.1961 7562.00 7729.00 86.96
4004 61.2094 7601.00 7672.52 87.18
4005 61.2227 7522.00 7615.66 86.73
4006 61.2360 7519.00 7558.75 86.71
4007 61.2493 7349.00 7502.08 85.73
4008 61.2626 7276.00 7446.01 85.30
4009 61.2759 7090.00 7390.83 84.20
4010 61.2892 7242.00 7340.37 85.10
4011 61.3025 7080.00 7287.79 84.14
4012 61.3158 7219.00 7236.89 84.96
4013 61.3291 7130.00 7186.95 84.44
4014 61.3424 7071.00 7139.83 84.09
4015 61.3557 7111.00 7094.77 84.33
4016 61.3690 6917.00 7051.84 83.17
4017 61.3823 6849.00 7011.06 82.76
4018 61.3956 6962.00 6972.48 83.44
4019 61.4089 6893.00 6936.08 83.02
4020 61.4222 6785.00 6901.80 82.37
4021 61.4355 6776.00 6869.64 82.32
4022 61.4488 6861.00 6839.52 82.83
4023 61.4621 6920.00 6811.37 83.19
4024 61.4754 6612.00 6785.11 81.31
4025 61.4887 6820.00 6760.69 82.58
4026 61.5020 6565.00 6737.60 81.02
4027 61.5153 6706.00 6716.58 81.89
4028 61.5286 6675.00 6697.11 81.70
4029 61.5419 6624.00 6679.13 81.39
4030 61.5552 6700.00 6662.55 81.85
4031 61.5685 6666.00 6647.28 81.65
4032 61.5818 6739.00 6633.23 82.09
4033 61.5951 6674.00 6620.33 81.69
4034 61.6084 6763.00 6608.51 82.24
4035 61.6217 6603.00 6597.69 81.26
4036 61.6350 6668.00 6587.78 81.66
4037 61.6483 6651.00 6578.75 81.55
4038 61.6616 6570.00 6570.49 81.06
4039 61.6749 6679.00 6562.96 81.73
4040 61.6882 6663.00 6556.11 81.63
4041 61.7015 6521.00 6549.87 80.75
4042 61.7148 6596.00 6544.19 81.22
4043 61.7281 6425.00 6539.04 80.16
4044 61.7414 6634.00 6534.35 81.45
4045 61.7547 6608.00 6530.11 81.29
4046 61.7680 6460.00 6526.21 80.37
4047 61.7813 6574.00 6522.72 81.08
4048 61.7946 6478.00 6519.55 80.49
4049 61.8079 6521.00 6516.69 80.75
4050 61.8212 6447.00 6514.11 80.29
4051 61.8345 6455.00 6511.77 80.34
4052 61.8478 6593.00 6509.67 81.20
4053 61.8611 6510.00 6507.79 80.68
4054 61.8744 6534.00 6507.25 80.83
4055 61.8877 6427.00 6505.76 80.17
4056 61.9010 6505.00 6504.45 80.65
4057 61.9143 6612.00 6502.41 81.31
4058 61.9276 6432.00 6501.42 80.20
4059 61.9409 6508.00 6500.55 80.67
4060 61.9542 6666.00 6499.83 81.65
4061 61.9675 6518.00 6499.23 80.73
4062 61.9808 6477.00 6498.76 80.48
4063 61.9941 6478.00 6498.40 80.49
4064 62.0074 6556.00 6498.16 80.97
4065 62.0207 6514.00 6498.02 80.71
4066 62.0340 6463.00 6497.98 80.39
4067 62.0473 6491.00 6498.91 80.57
4068 62.0606 6789.00 6499.08 82.40
4069 62.0739 6606.00 6499.34 81.28
4070 62.0872 6486.00 6499.26 80.54
4071 62.1005 6615.00 6499.71 81.33
4072 62.1138 6697.00 6500.29 81.84
4073 62.1271 6630.00 6500.93 81.42
4074 62.1404 6566.00 6501.65 81.03
4075 62.1537 6470.00 6502.47 80.44
4076 62.1670 6614.00 6503.38 81.33
4077 62.1803 6699.00 6504.39 81.85
4078 62.1936 6598.00 6505.49 81.23
4079 62.2069 6600.00 6506.70 81.24
4080 62.2202 6616.00 6508.02 81.34
4081 62.2335 6586.00 6509.45 81.15
4082 62.2468 6486.00 6510.99 80.54
4083 62.2601 6568.00 6512.66 81.04
4084 62.2734 6666.00 6514.45 81.65
4085 62.2867 6643.00 6518.69 81.50
4086 62.3000 6565.00 6520.79 81.02
4087 62.3133 6548.00 6523.05 80.92
4088 62.3266 6681.00 6525.49 81.74
4089 62.3399 6714.00 6528.12 81.94
4090 62.3532 6641.00 6530.96 81.49
4091 62.3665 6632.00 6534.04 81.44
4092 62.3798 6539.00 6537.39 80.86
4093 62.3931 6669.00 6541.05 81.66
4094 62.4064 6659.00 6545.08 81.60
4095 62.4197 6674.00 6549.52 81.69
4096 62.4330 6714.00 6556.13 81.94
4097 62.4463 6433.00 6561.65 80.21
4098 62.4596 6851.00 6567.84 82.77
4099 62.4729 6645.00 6574.82 81.52
4100 62.4862 6667.00 6582.73 81.65
4101 62.4995 6705.00 6591.71 81.88
4102 62.5128 6755.00 6601.97 82.19
4103 62.5261 6671.00 6613.69 81.68
4104 62.5394 6905.00 6627.10 83.10
4105 62.5527 6757.00 6642.45 82.20
4106 62.5659 6741.00 6659.87 82.10
4107 62.5792 6702.00 6679.88 81.87
4108 62.5925 6825.00 6703.05 82.61
4109 62.6058 6609.00 6728.92 81.30
4110 62.6191 6767.00 6758.17 82.26
4111 62.6324 6995.00 6791.07 83.64
4112 62.6457 6976.00 6827.93 83.52
4113 62.6590 7011.00 6868.93 83.73
4114 62.6723 6999.00 6914.29 83.66
4115 62.6856 6904.00 6964.11 83.09
4116 62.6989 7060.00 7018.45 84.02
4117 62.7122 6972.00 7077.18 83.50
4118 62.7255 7191.00 7140.13 84.80
4119 62.7388 7208.00 7206.93 84.90
4120 62.7521 7211.00 7277.16 84.92
4121 62.7654 7357.00 7350.12 85.77
4122 62.7787 7429.00 7425.15 86.19
4123 62.7920 7417.00 7501.47 86.12
4124 62.8053 7427.00 7578.25 86.18
4125 62.8186 7693.00 7654.51 87.71
4126 62.8319 7749.00 7729.26 88.03
4127 62.8452 7859.00 7801.33 88.65
4128 62.8585 7959.00 7869.45 89.21
4129 62.8718 8239.00 7932.09 90.77
4130 62.8851 8205.00 7987.78 90.58
4131 62.8984 8442.00 8035.10 91.88
4132 62.9117 8594.00 8072.92 92.70
4133 62.9250 8842.00 8100.57 94.03
4134 62.9383 8654.00 8118.04 93.03
4135 62.9516 8560.00 8125.97 92.52
4136 62.9649 8529.00 8125.56 92.35
4137 62.9782 8619.00 8118.39 92.84
4138 62.9915 8388.00 8106.12 91.59
4139 63.0048 8269.00 8090.29 90.93
4140 63.0181 8348.00 8072.12 91.37
4141 63.0314 8440.00 8052.43 91.87
4142 63.0447 8217.00 8031.66 90.65
4143 63.0580 8246.00 8009.91 90.81
4144 63.0713 8266.00 7987.07 90.92
4145 63.0846 8170.00 7962.98 90.39
4146 63.0979 8136.00 7937.60 90.20
4147 63.1112 8101.00 7911.10 90.01
4148 63.1245 8008.00 7883.90 89.49
4149 63.1378 7968.00 7856.64 89.26
4150 63.1511 7913.00 7830.20 88.96
4151 63.1644 7799.00 7805.42 88.31
4152 63.1777 7961.00 7783.12 89.22
4153 63.1910 7835.00 7763.99 88.52
4154 63.2043 8093.00 7748.55 89.96
4155 63.2176 7774.00 7737.15 88.17
4156 63.2309 7749.00 7729.97 88.03
4157 63.2442 7925.00 7726.47 89.02
4158 63.2575 7863.00 7727.86 88.67
4159 63.2708 7678.00 7733.47 87.62
4160 63.2841 7782.00 7743.20 88.22
4161 63.2974 7759.00 7757.00 88.09
4162 63.3107 7808.00 7774.83 88.36
4163 63.3240 7664.00 7796.70 87.54
4164 63.3373 7751.00 7822.64 88.04
4165 63.3506 7946.00 7852.77 89.14
4166 63.3639 7982.00 7887.27 89.34
4167 63.3772 8007.00 7926.29 89.48
4168 63.3905 8154.00 7970.09 90.30
4169 63.4038 8085.00 8018.88 89.92
4170 63.4171 8188.00 8072.62 90.49
4171 63.4304 8150.00 8132.00 90.28
4172 63.4437 8152.00 8196.86 90.29
4173 63.4570 8348.00 8267.16 91.37
4174 63.4703 8166.00 8342.80 90.37
4175 63.4836 8385.00 8423.37 91.57
4176 63.4969 8592.00 8508.39 92.69
4177 63.5102 8646.00 8598.35 92.98
4178 63.5235 8745.00 8689.94 93.51
4179 63.5368 8744.00 8783.08 93.51
4180 63.5501 8735.00 8876.42 93.46
4181 63.5634 8951.00 8968.33 94.61
4182 63.5767 9286.00 9057.04 96.36
4183 63.5900 9220.00 9140.46 96.02
4184 63.6033 9258.00 9216.74 96.22
4185 63.6166 9364.00 9283.81 96.77
4186 63.6299 9415.00 9340.01 97.03
4187 63.6432 9328.00 9384.11 96.58
4188 63.6565 9488.00 9415.50 97.41
4189 63.6698 9245.00 9434.11 96.15
4190 63.6831 9430.00 9441.81 97.11
4191 63.6964 9324.00 9438.60 96.56
4192 63.7097 9145.00 9426.88 95.63
4193 63.7230 9234.00 9408.45 96.09
4194 63.7363 9281.00 9384.87 96.34
4195 63.7496 9259.00 9357.28 96.22
4196 63.7629 8942.00 9326.28 94.56
4197 63.7762 9175.00 9292.05 95.79
4198 63.7895 9052.00 9254.30 95.14
4199 63.8028 8913.00 9212.50 94.41
4200 63.8161 8882.00 9166.06 94.24
4201 63.8294 8763.00 9114.44 93.61
4202 63.8427 8711.00 9057.30 93.33
4203 63.8560 8759.00 8994.80 93.59
4204 63.8693 8626.00 8927.31 92.88
4205 63.8826 8580.00 8855.44 92.63
4206 63.8959 8525.00 8780.08 92.33
4207 63.9092 8373.00 8702.10 91.50
4208 63.9225 8280.00 8622.66 90.99
4209 63.9358 8127.00 8542.55 90.15
4210 63.9491 8111.00 8462.83 90.06
4211 63.9624 8200.00 8383.96 90.55
4212 63.9757 8103.00 8307.38 90.02
4213 63.9890 7976.00 8233.37 89.31
4214 64.0023 8013.00 8162.42 89.52
4215 64.0156 7879.00 8094.98 88.76
4216 64.0289 7905.00 8031.31 88.91
4217 64.0422 7643.00 7971.61 87.42
4218 64.0555 7830.00 7915.97 88.49
4219 64.0688 7777.00 7864.58 88.19
4220 64.0821 7854.00 7817.47 88.62
4221 64.0953 7750.00 7775.11 88.03
4222 64.1086 7531.00 7737.03 86.78
4223 64.1219 7461.00 7703.83 86.38
4224 64.1352 7553.00 7675.77 86.91
4225 64.1485 7471.00 7652.95 86.43
4226 64.1618 7503.00 7635.99 86.62
4227 64.1751 7538.00 7624.98 86.82
4228 64.1884 7376.00 7620.06 85.88
4229 64.2017 7470.00 7621.30 86.43
4230 64.2150 7544.00 7628.65 86.86
4231 64.2283 7529.00 7641.89 86.77
4232 64.2416 7563.00 7660.69 86.97
4233 64.2549 7669.00 7684.55 87.57
4234 64.2682 7932.00 7712.83 89.06
4235 64.2815 7612.00 7744.67 87.25
4236 64.2948 7576.00 7779.16 87.04
4237 64.3081 7787.00 7815.22 88.24
4238 64.3214 7673.00 7851.74 87.60
4239 64.3347 7772.00 7887.48 88.16
4240 64.3480 8006.00 7921.26 89.48
4241 64.3613 7993.00 7951.89 89.40
4242 64.3746 8184.00 7978.30 90.47
4243 64.3879 8122.00 7999.43 90.12
4244 64.4012 8117.00 8014.49 90.09
4245 64.4145 8125.00 8022.89 90.14
4246 64.4278 8168.00 8024.32 90.38
4247 64.4411 8260.00 8018.33 90.88
4248 64.4544 8213.00 8006.41 90.63
4249 64.4677 8115.00 7988.74 90.08
4250 64.4810 8197.00 7966.28 90.54
4251 64.4943 8215.00 7940.06 90.64
4252 64.5076 8174.00 7911.07 90.41
4253 64.5209 8145.00 7880.16 90.25
4254 64.5342 7970.00 7848.08 89.27
4255 64.5475 7832.00 7815.37 88.50
4256 64.5608 7810.00 7782.44 88.37
4257 64.5741 7845.00 7749.63 88.57
4258 64.5874 7687.00 7717.34 87.68
4259 64.6007 7803.00 7685.94 88.33
4260 64.6140 7610.00 7655.73 87.24
4261 64.6273 7625.00 7627.87 87.32
4262 64.6406 7737.00 7602.96 87.96
4263 64.6539 7596.00 7581.90 87.15
4264 64.6672 7610.00 7565.61 87.24
4265 64.6805 7609.00 7554.99 87.23
4266 64.6938 7545.00 7550.78 86.86
4267 64.7071 7455.00 7553.54 86.34
4268 64.7204 7393.00 7563.60 85.98
4269 64.7337 7421.00 7581.06 86.15
4270 64.7470 7415.00 7605.74 86.11
4271 64.7603 7467.00 7637.26 86.41
4272 64.7736 7620.00 7674.97 87.29
4273 64.7869 7536.00 7718.02 86.81
4274 64.8002 7589.00 7763.45 87.11
4275 64.8135 7557.00 7813.64 86.93
4276 64.8268 7758.00 7865.21 88.08
4277 64.8401 7867.00 7916.52 88.70
4278 64.8534 7756.00 7965.69 88.07
4279 64.8667 7900.00 8010.91 88.88
4280 64.8800 7839.00 8050.43 88.54
4281 64.8933 8071.00 8082.65 89.84
4282 64.9066 7960.00 8106.46 89.22
4283 64.9199 8102.00 8121.29 90.01
4284 64.9332 8120.00 8127.15 90.11
4285 64.9465 8177.00 8124.69 90.43
4286 64.9598 8144.00 8115.03 90.24
4287 64.9731 7924.00 8099.58 89.02
4288 64.9864 8046.00 8078.89 89.70
4289 64.9997 7794.00 8057.22 88.28
4290 65.0130 8068.00 8032.31 89.82
4291 65.0263 7937.00 8005.89 89.09
4292 65.0396 7901.00 7978.13 88.89
4293 65.0529 7927.00 7948.92 89.03
4294 65.0662 7853.00 7917.87 88.62
4295 65.0795 7761.00 7884.54 88.10
4296 65.0928 7758.00 7848.48 88.08
4297 65.1061 7778.00 7809.49 88.19
4298 65.1194 7702.00 7767.50 87.76
4299 65.1327 7776.00 7722.73 88.18
4300 65.1460 7633.00 7675.52 87.37
4301 65.1593 7807.00 7626.43 88.36
4302 65.1726 7600.00 7577.95 87.18
4303 65.1859 7650.00 7526.71 87.46
4304 65.1992 7447.00 7475.12 86.30
4305 65.2125 7526.00 7423.70 86.75
4306 65.2258 7398.00 7372.83 86.01
4307 65.2391 7434.00 7322.92 86.22
4308 65.2524 7412.00 7274.27 86.09
4309 65.2657 7377.00 7226.91 85.89
4310 65.2790 7506.00 7181.74 86.64
4311 65.2923 7297.00 7138.54 85.42
4312 65.3056 7351.00 7097.41 85.74
4313 65.3189 7069.00 7058.30 84.08
4314 65.3322 7210.00 7021.10 84.91
4315 65.3455 7146.00 6985.63 84.53
4316 65.3588 6933.00 6951.75 83.26
4317 65.3721 7114.00 6919.23 84.34
4318 65.3854 7021.00 6887.92 83.79
4319 65.3987 6766.00 6857.69 82.26
4320 65.4120 6678.00 6826.83 81.72
4321 65.4253 6872.00 6798.71 82.90
4322 65.4386 6949.00 6771.68 83.36
4323 65.4519 6902.00 6747.58 83.08
4324 65.4652 6822.00 6722.98 82.60
4325 65.4785 6728.00 6699.69 82.02
4326 65.4918 6735.00 6677.78 82.07
4327 65.5051 6699.00 6657.25 81.85
4328 65.5184 6596.00 6638.11 81.22
4329 65.5317 6636.00 6620.36 81.46
4330 65.5450 6492.00 6603.95 80.57
4331 65.5583 6685.00 6588.79 81.76
4332 65.5716 6517.00 6574.85 80.73
4333 65.5849 6556.00 6561.20 80.97
4334 65.5982 6450.00 6549.45 80.31
4335 65.6114 6548.00 6538.76 80.92
4336 65.6247 6534.00 6528.92 80.83
4337 65.6380 6479.00 6519.94 80.49
4338 65.6513 6558.00 6511.77 80.98
4339 65.6646 6558.00 6504.36 80.98
4340 65.6779 6561.00 6497.66 81.00
4341 65.6912 6655.00 6491.66 81.58
4342 65.7045 6568.00 6486.29 81.04
4343 65.7178 6637.00 6481.57 81.47
4344 65.7311 6449.00 6477.48 80.31
4345 65.7444 6413.00 6474.01 80.08
4346 65.7577 6488.00 6471.16 80.55
4347 65.7710 6347.00 6469.10 79.67
4348 65.7843 6680.00 6467.57 81.73
4349 65.7976 6349.00 6466.76 79.68
4350 65.8109 6538.00 6466.72 80.86
4351 65.8242 6335.00 6467.54 79.59
4352 65.8375 6347.00 6469.29 79.67
4353 65.8508 6483.00 6472.11 80.52
4354 65.8641 6581.00 6476.10 81.12
4355 65.8774 6392.00 6481.43 79.95
4356 65.8907 6582.00 6488.24 81.13
4357 65.9040 6542.00 6496.72 80.88
4358 65.9173 6596.00 6507.06 81.22
4359 65.9306 6422.00 6519.44 80.14
4360 65.9439 6448.00 6534.12 80.30
4361 65.9572 6539.00 6551.13 80.86
4362 65.9705 6487.00 6570.73 80.54
4363 65.9838 6578.00 6593.01 81.10
4364 65.9971 6720.00 6618.07 81.98
4365 66.0104 6633.00 6645.92 81.44
4366 66.0237 6566.00 6676.57 81.03
4367 66.0370 6663.00 6709.85 81.63
4368 66.0503 6749.00 6745.58 82.15
4369 66.0636 6746.00 6783.47 82.13
4370 66.0769 6873.00 6823.15 82.90
4371 66.0902 6850.00 6864.06 82.76
4372 66.1035 6856.00 6905.64 82.80
4373 66.1168 7075.00 6947.18 84.11
4374 66.1301 6921.00 6987.89 83.19
4375 66.1434 6826.00 7026.85 82.62
4376 66.1567 7119.00 7063.14 84.37
4377 66.1700 7257.00 7095.83 85.19
4378 66.1833 6992.00 7124.04 83.62
4379 66.1966 7215.00 7146.97 84.94
4380 66.2099 7215.00 7164.10 84.94
4381 66.2232 7124.00 7173.00 84.40
4382 66.2365 7168.00 7178.08 84.66
4383 66.2498 7122.00 7177.52 84.39
4384 66.2631 7230.00 7171.91 85.03
4385 66.2764 7141.00 7162.02 84.50
4386 66.2897 7245.00 7148.63 85.12
4387 66.3030 7129.00 7132.46 84.43
4388 66.3163 6970.00 7114.10 83.49
4389 66.3296 7102.00 7093.93 84.27
4390 66.3429 6938.00 7072.17 83.29
4391 66.3562 7067.00 7048.90 84.07
4392 66.3695 7019.00 7024.07 83.78
4393 66.3828 6920.00 6997.58 83.19
4394 66.3961 6898.00 6969.41 83.05
4395 66.4094 6887.00 6938.51 82.99
4396 66.4227 6820.00 6907.16 82.58
4397 66.4360 6900.00 6874.53 83.07
4398 66.4493 6889.00 6841.07 83.00
4399 66.4626 6848.00 6807.21 82.75
4400 66.4759 6745.00 6773.42 82.13
4401 66.4892 6577.00 6740.15 81.10
4402 66.5025 6707.00 6707.81 81.90
4403 66.5158 6763.00 6676.73 82.24
4404 66.5291 6586.00 6647.09 81.15
4405 66.5424 6647.00 6619.04 81.53
4406 66.5557 6755.00 6592.72 82.19
4407 66.5690 6504.00 6568.10 80.65
4408 66.5823 6460.00 6545.19 80.37
4409 66.5956 6471.00 6523.94 80.44
4410 66.6089 6492.00 6504.31 80.57
4411 66.6222 6462.00 6486.22 80.39
4412 66.6355 6484.00 6469.59 80.52
4413 66.6488 6374.00 6454.34 79.84
4414 66.6621 6408.00 6440.40 80.05
4415 66.6754 6466.00 6427.68 80.41
4416 66.6887 6326.00 6416.08 79.54
4417 66.7020 6428.00 6405.50 80.17
4418 66.7153 6376.00 6395.88 79.85
4419 66.7286 6321.00 6387.12 79.50
4420 66.7419 6381.00 6379.14 79.88
4421 66.7552 6504.00 6371.86 80.65
4422 66.7685 6364.00 6365.22 79.77
4423 66.7818 6323.00 6359.15 79.52
4424 66.7951 6340.00 6353.60 79.62
4425 66.8084 6319.00 6348.53 79.49
4426 66.8217 6364.00 6343.90 79.77
4427 66.8350 6318.00 6339.66 79.49
4428 66.8483 6323.00 6335.79 79.52
4429 66.8616 6433.00 6332.25 80.21
4430 66.8749 6185.00 6329.02 78.64
4431 66.8882 6402.00 6326.07 80.01
4432 66.9015 6339.00 6323.37 79.62
4433 66.9148 6279.00 6320.91 79.24
4434 66.9281 6246.00 6318.84 79.03
4435 66.9414 6288.00 6316.81 79.30
4436 66.9547 6396.00 6314.96 79.97
4437 66.9680 6200.00 6313.30 78.74
4438 66.9813 6320.00 6311.80 79.50
4439 66.9946 6133.00 6310.47 78.31
4440 67.0079 6274.00 6308.21 79.21
4441 67.0212 6342.00 6307.19 79.64
4442 67.0345 6294.00 6306.32 79.33
4443 67.0478 6251.00 6305.59 79.06
4444 67.0611 6321.00 6305.00 79.50
4445 67.0744 6199.00 6304.55 78.73
4446 67.0877 6377.00 6303.05 79.86
4447 67.1010 6324.00 6302.90 79.52
4448 67.1143 6350.00 6302.89 79.69
4449 67.1276 6269.00 6303.03 79.18
4450 67.1408 6299.00 6303.32 79.37
4451 67.1541 6302.00 6303.78 79.39
4452 67.1674 6341.00 6304.41 79.63
4453 67.1807 6389.00 6305.24 79.93
4454 67.1940 6281.00 6306.27 79.25
4455 67.2073 6387.00 6306.96 79.92
4456 67.2206 6437.00 6308.48 80.23
4457 67.2339 6392.00 6310.27 79.95
4458 67.2472 6370.00 6312.38 79.81
4459 67.2605 6450.00 6314.85 80.31
4460 67.2738 6360.00 6317.14 79.75
4461 67.2871 6462.00 6320.49 80.39
4462 67.3004 6383.00 6324.38 79.89
4463 67.3137 6372.00 6328.89 79.82
4464 67.3270 6408.00 6334.11 80.05
4465 67.3403 6410.00 6340.14 80.06
4466 67.3536 6537.00 6347.12 80.85
4467 67.3669 6507.00 6355.13 80.67
4468 67.3802 6506.00 6364.42 80.66
4469 67.3935 6416.00 6374.45 80.10
4470 67.4068 6574.00 6386.72 81.08
4471 67.4201 6484.00 6400.77 80.52
4472 67.4334 6506.00 6416.79 80.66
4473 67.4467 6507.00 6434.98 80.67
4474 67.4600 6374.00 6455.53 79.84
4475 67.4733 6627.00 6478.68 81.41
4476 67.4866 6516.00 6504.51 80.72
4477 67.4999 6500.00 6533.17 80.62
4478 67.5132 6670.00 6564.77 81.67
4479 67.5265 6698.00 6599.34 81.84
4480 67.5398 6682.00 6636.79 81.74
4481 67.5531 6632.00 6677.03 81.44
4482 67.5664 6648.00 6719.80 81.54
4483 67.5797 6754.00 6765.25 82.18
4484 67.5930 6795.00 6812.03 82.43
4485 67.6063 6782.00 6858.55 82.35
4486 67.6196 6699.00 6907.67 81.85
4487 67.6329 6845.00 6956.90 82.73
4488 67.6462 6941.00 7005.37 83.31
4489 67.6595 6828.00 7052.25 82.63
4490 67.6728 7098.00 7096.63 84.25
4491 67.6861 6926.00 7137.58 83.22
4492 67.6994 7163.00 7174.19 84.63
4493 67.7127 7098.00 7205.69 84.25
4494 67.7260 7058.00 7231.50 84.01
4495 67.7393 7151.00 7251.27 84.56
4496 67.7526 7190.00 7264.97 84.79
4497 67.7659 7084.00 7272.83 84.17
4498 67.7792 7147.00 7275.39 84.54
4499 67.7925 7236.00 7273.85 85.06
4500 67.8058 7215.00 7267.88 84.94
4501 67.8191 7179.00 7258.67 84.73
4502 67.8324 7227.00 7246.83 85.01
4503 67.8457 7088.00 7233.16 84.19
4504 67.8590 7069.00 7217.10 84.08
4505 67.8723 7065.00 7199.16 84.05
4506 67.8856 6928.00 7179.31 83.23
4507 67.8989 7062.00 7157.49 84.04
4508 67.9122 6988.00 7133.64 83.59
4509 67.9255 6932.00 7107.74 83.26
4510 67.9388 6899.00 7079.89 83.06
4511 67.9521 6847.00 7050.34 82.75
4512 67.9654 6961.00 7019.44 83.43
4513 67.9787 6776.00 6987.65 82.32
4514 67.9920 6993.00 6954.55 83.62
4515 68.0053 6723.00 6922.53 81.99
4516 68.0186 6881.00 6890.57 82.95
4517 68.0319 6856.00 6860.22 82.80
4518 68.0452 6826.00 6831.43 82.62
4519 68.0585 6689.00 6804.10 81.79
4520 68.0718 6739.00 6778.58 82.09
4521 68.0851 6605.00 6754.99 81.27
4522 68.0984 6685.00 6733.40 81.76
4523 68.1117 6639.00 6713.86 81.48
4524 68.1250 6616.00 6696.36 81.34
4525 68.1383 6588.00 6680.92 81.17
4526 68.1516 6603.00 6667.49 81.26
4527 68.1649 6483.00 6656.10 80.52
4528 68.1782 6560.00 6646.22 80.99
4529 68.1915 6462.00 6638.75 80.39
4530 68.2048 6284.00 6632.90 79.27
4531 68.2181 6433.00 6629.17 80.21
4532 68.2314 6520.00 6627.21 80.75
4533 68.2447 6439.00 6626.92 80.24
4534 68.2580 6491.00 6628.23 80.57
4535 68.2713 6541.00 6630.15 80.88
4536 68.2846 6614.00 6634.28 81.33
4537 68.2979 6206.00 6639.63 78.78
4538 68.3112 6389.00 6646.07 79.93
4539 68.3245 6569.00 6653.44 81.05
4540 68.3378 6516.00 6661.59 80.72
4541 68.3511 6688.00 6670.37 81.78
4542 68.3644 6535.00 6679.59 80.84
4543 68.3777 6629.00 6689.08 81.42
4544 68.3910 6516.00 6698.67 80.72
4545 68.4043 6613.00 6708.16 81.32
4546 68.4176 6674.00 6717.26 81.69
4547 68.4309 6557.00 6725.94 80.98
4548 68.4442 6511.00 6733.92 80.69
4549 68.4575 6823.00 6740.59 82.60
4550 68.4708 6584.00 6746.61 81.14
4551 68.4841 6674.00 6751.41 81.69
4552 68.4974 6645.00 6754.84 81.52
4553 68.5107 6618.00 6756.81 81.35
4554 68.5240 6557.00 6757.26 80.98
4555 68.5373 6837.00 6756.13 82.69
4556 68.5506 6680.00 6753.45 81.73
4557 68.5639 6730.00 6749.24 82.04
4558 68.5772 6656.00 6743.55 81.58
4559 68.5905 6737.00 6736.48 82.08
4560 68.6038 6714.00 6728.11 81.94
4561 68.6171 6576.00 6718.49 81.09
4562 68.6304 6580.00 6707.81 81.12
4563 68.6437 6571.00 6696.13 81.06
4564 68.6569 6556.00 6683.64 80.97
4565 68.6702 6578.00 6670.21 81.10
4566 68.6835 6538.00 6656.06 80.86
4567 68.6968 6440.00 6641.24 80.25
4568 68.7101 6695.00 6625.86 81.82
4569 68.7234 6428.00 6609.98 80.17
4570 68.7367 6622.00 6593.72 81.38
4571 68.7500 6606.00 6577.18 81.28
4572 68.7633 6303.00 6560.46 79.39
4573 68.7766 6590.00 6543.65 81.18
4574 68.7899 6422.00 6526.90 80.14
4575 68.8032 6504.00 6510.29 80.65
4576 68.8165 6420.00 6493.95 80.12
4577 68.8298 6324.00 6477.97 79.52
4578 68.8431 6503.00 6464.34 80.64
4579 68.8564 6381.00 6449.39 79.88
4580 68.8697 6357.00 6435.05 79.73
4581 68.8830 6299.00 6421.38 79.37
4582 68.8963 6284.00 6408.45 79.27
4583 68.9096 6356.00 6396.29 79.72
4584 68.9229 6383.00 6384.92 79.89
4585 68.9362 6397.00 6374.33 79.98
4586 68.9495 6088.00 6364.60 78.03
4587 68.9628 6389.00 6354.48 79.93
4588 68.9761 6204.00 6346.38 78.77
4589 68.9894 6342.00 6339.05 79.64
4590 69.0027 6358.00 6332.49 79.74
4591 69.0160 6217.00 6326.64 78.85
4592 69.0293 6366.00 6321.45 79.79
4593 69.0426 6267.00 6319.02 79.16
4594 69.0559 6381.00 6315.04 79.88
4595 69.0692 6257.00 6311.55 79.10
4596 69.0825 6284.00 6308.49 79.27
4597 69.0958 6214.00 6305.79 78.83
4598 69.1091 6155.00 6303.35 78.45
4599 69.1224 6287.00 6301.11 79.29
4600 69.1357 6294.00 6298.97 79.33
4601 69.1490 6232.00 6296.29 78.94
4602 69.1623 6324.00 6294.18 79.52
4603 69.1756 6306.00 6292.00 79.41
4604 69.1889 6398.00 6289.69 79.99
4605 69.2022 6336.00 6287.23 79.60
4606 69.2155 6438.00 6284.62 80.24
4607 69.2288 6221.00 6281.85 78.87
4608 69.2421 6434.00 6278.93 80.21
4609 69.2554 6213.00 6275.87 78.82
4610 69.2687 6241.00 6272.75 79.00
4611 69.2820 6101.00 6269.55 78.11
4612 69.2953 6279.00 6266.31 79.24
4613 69.3086 6380.00 6263.06 79.87
4614 69.3219 6184.00 6259.81 78.64
4615 69.3352 6304.00 6256.59 79.40
4616 69.3485 6350.00 6253.42 79.69
4617 69.3618 6244.00 6250.34 79.02
4618 69.3751 6254.00 6247.37 79.08
4619 69.3884 6304.00 6244.56 79.40
4620 69.4017 6182.00 6241.95 78.63
4621 69.4150 6140.00 6239.58 78.36
4622 69.4283 6297.00 6237.49 79.35
4623 69.4416 6281.00 6235.73 79.25
4624 69.4549 6229.00 6234.31 78.92
4625 69.4682 6068.00 6233.29 77.90
4626 69.4815 6267.00 6232.68 79.16
4627 69.4948 6359.00 6232.47 79.74
4628 69.5081 6276.00 6232.65 79.22
4629 69.5214 6160.00 6233.21 78.49
4630 69.5347 6252.00 6234.09 79.07
4631 69.5480 6193.00 6235.26 78.70
4632 69.5613 6331.00 6236.64 79.57
4633 69.5746 6204.00 6238.17 78.77
4634 69.5879 6312.00 6239.75 79.45
4635 69.6012 6238.00 6241.31 78.98
4636 69.6145 6207.00 6242.73 78.78
4637 69.6278 6486.00 6243.92 80.54
4638 69.6411 6276.00 6244.79 79.22
4639 69.6544 6414.00 6245.24 80.09
4640 69.6677 6359.00 6245.22 79.74
4641 69.6810 6511.00 6244.68 80.69
4642 69.6943 6509.00 6243.60 80.68
4643 69.7076 6369.00 6242.00 79.81
4644 69.7209 6544.00 6239.92 80.89
4645 69.7342 6579.00 6237.44 81.11
4646 69.7475 6546.00 6234.62 80.91
4647 69.7608 6393.00 6231.56 79.96
4648 69.7741 6527.00 6228.31 80.79
4649 69.7874 6479.00 6224.96 80.49
4650 69.8007 6376.00 6221.52 79.85
4651 69.8140 6483.00 6218.04 80.52
4652 69.8273 6291.00 6214.54 79.32
4653 69.8406 6423.00 6211.01 80.14
4654 69.8539 6206.00 6207.47 78.78
4655 69.8672 6336.00 6203.91 79.60
4656 69.8805 6228.00 6200.74 78.92
4657 69.8938 6238.00 6197.24 78.98
4658 69.9071 6434.00 6193.82 80.21
4659 69.9204 6238.00 6190.57 78.98
4660 69.9337 6388.00 6187.54 79.93
4661 69.9470 6151.00 6184.84 78.43
4662 69.9603 6359.00 6182.55 79.74
4663 69.9736 6184.00 6180.78 78.64
4664 69.9869 6204.00 6179.63 78.77
4665 70.0002 6248.00 6179.18 79.04
4666 70.0135 6277.00 6179.53 79.23
4667 70.0268 6122.00 6180.77 78.24
4668 70.0401 6185.00 6182.98 78.64
4669 70.0534 6058.00 6186.26 77.83
4670 70.0667 6196.00 6190.70 78.71
4671 70.0800 6121.00 6199.08 78.24
4672 70.0933 6220.00 6206.11 78.87
4673 70.1066 5972.00 6214.57 77.28
4674 70.1199 6269.00 6224.54 79.18
4675 70.1332 6283.00 6236.12 79.27
4676 70.1465 6331.00 6249.39 79.57
4677 70.1598 6376.00 6264.42 79.85
4678 70.1731 6337.00 6281.31 79.61
4679 70.1863 6181.00 6299.93 78.62
4680 70.1996 6127.00 6320.62 78.28
4681 70.2129 6400.00 6343.28 80.00
4682 70.2262 6274.00 6367.92 79.21
4683 70.2395 6410.00 6394.48 80.06
4684 70.2528 6330.00 6422.94 79.56
4685 70.2661 6320.00 6453.16 79.50
4686 70.2794 6539.00 6485.09 80.86
4687 70.2927 6389.00 6518.50 79.93
4688 70.3060 6564.00 6553.18 81.02
4689 70.3193 6527.00 6588.84 80.79
4690 70.3326 6464.00 6625.18 80.40
4691 70.3459 6644.00 6661.79 81.51
4692 70.3592 6597.00 6698.31 81.22
4693 70.3725 6703.00 6734.30 81.87
4694 70.3858 6812.00 6769.37 82.53
4695 70.3991 6905.00 6803.05 83.10
4696 70.4124 6743.00 6834.94 82.12
4697 70.4257 6765.00 6864.64 82.25
4698 70.4390 6977.00 6891.73 83.53
4699 70.4523 6846.00 6915.81 82.74
4700 70.4656 6997.00 6936.50 83.65
4701 70.4789 6898.00 6953.48 83.05
4702 70.4922 6932.00 6966.45 83.26
4703 70.5055 6981.00 6974.05 83.55
4704 70.5188 6971.00 6978.55 83.49
4705 70.5321 6923.00 6978.83 83.20
4706 70.5454 6955.00 6975.07 83.40
4707 70.5587 6946.00 6967.56 83.34
4708 70.5720 7017.00 6956.66 83.77
4709 70.5853 6891.00 6942.79 83.01
4710 70.5986 7084.00 6926.35 84.17
4711 70.6119 6901.00 6907.72 83.07
4712 70.6252 6888.00 6887.23 82.99
4713 70.6385 7065.00 6865.11 84.05
4714 70.6518 6757.00 6841.57 82.20
4715 70.6651 6896.00 6816.71 83.04
4716 70.6784 6694.00 6790.62 81.82
4717 70.6917 6689.00 6763.34 81.79
4718 70.7050 6758.00 6734.40 82.21
4719 70.7183 6720.00 6705.07 81.98
4720 70.7316 6733.00 6674.88 82.05
4721 70.7449 6595.00 6644.03 81.21
4722 70.7582 6539.00 6612.86 80.86
4723 70.7715 6715.00 6581.60 81.95
4724 70.7848 6462.00 6550.57 80.39
4725 70.7981 6461.00 6520.07 80.38
4726 70.8114 6489.00 6491.29 80.55
4727 70.8247 6487.00 6462.70 80.54
4728 70.8380 6552.00 6435.39 80.94
4729 70.8513 6529.00 6409.48 80.80
4730 70.8646 6401.00 6385.14 80.01
4731 70.8779 6257.00 6362.41 79.10
4732 70.8912 6314.00 6341.34 79.46
4733 70.9045 6494.00 6321.97 80.59
4734 70.9178 6299.00 6304.30 79.37
4735 70.9311 6161.00 6288.31 78.49
4736 70.9444 6312.00 6273.99 79.45
4737 70.9577 6055.00 6261.33 77.81
4738 70.9710 6345.00 6250.27 79.66
4739 70.9843 6182.00 6240.84 78.63
4740 70.9976 6261.00 6233.00 79.13
4741 71.0109 6120.00 6227.15 78.23
4742 71.0242 6149.00 6222.40 78.42
4743 71.0375 6323.00 6219.12 79.52
4744 71.0508 6342.00 6217.29 79.64
4745 71.0641 6273.00 6216.86 79.20
4746 71.0774 6208.00 6217.77 78.79
4747 71.0907 6325.00 6219.94 79.53
4748 71.1040 6324.00 6223.33 79.52
4749 71.1173 6312.00 6227.82 79.45
4750 71.1306 6278.00 6233.34 79.23
4751 71.1439 6240.00 6239.79 78.99
4752 71.1572 6278.00 6247.05 79.23
4753 71.1705 6343.00 6254.98 79.64
4754 71.1838 6358.00 6263.49 79.74
4755 71.1971 6515.00 6272.41 80.72
4756 71.2104 6462.00 6281.60 80.39
4757 71.2237 6649.00 6290.89 81.54
4758 71.2370 6642.00 6300.13 81.50
4759 71.2503 6450.00 6309.14 80.31
4760 71.2636 6578.00 6317.78 81.10
4761 71.2769 6535.00 6325.88 80.84
4762 71.2902 6573.00 6333.31 81.07
4763 71.3035 6545.00 6339.97 80.90
4764 71.3168 6640.00 6345.77 81.49
4765 71.3301 6659.00 6350.69 81.60
4766 71.3434 6492.00 6354.75 80.57
4767 71.3567 6534.00 6358.01 80.83
4768 71.3700 6485.00 6360.59 80.53
4769 71.3833 6619.00 6362.64 81.36
4770 71.3966 6709.00 6364.34 81.91
4771 71.4099 6491.00 6365.92 80.57
4772 71.4232 6566.00 6367.58 81.03
4773 71.4365 6673.00 6369.57 81.69
4774 71.4498 6713.00 6372.11 81.93
4775 71.4631 6614.00 6375.44 81.33
4776 71.4764 6754.00 6379.79 82.18
4777 71.4897 6521.00 6385.40 80.75
4778 71.5030 6448.00 6395.82 80.30
4779 71.5163 6690.00 6404.72 81.79
4780 71.5296 6602.00 6415.65 81.25
4781 71.5429 6616.00 6428.86 81.34
4782 71.5562 6542.00 6444.65 80.88
4783 71.5695 6772.00 6463.31 82.29
4784 71.5828 6611.00 6485.08 81.31
4785 71.5961 6693.00 6510.22 81.81
4786 71.6094 6628.00 6538.93 81.41
4787 71.6227 6787.00 6571.36 82.38
4788 71.6360 6679.00 6607.57 81.73
4789 71.6493 6702.00 6647.55 81.87
4790 71.6626 6758.00 6691.20 82.21
4791 71.6759 6884.00 6738.32 82.97
4792 71.6892 6875.00 6788.54 82.92
4793 71.7024 6710.00 6841.01 81.91
4794 71.7157 6945.00 6895.99 83.34
4795 71.7290 6896.00 6952.43 83.04
4796 71.7423 6945.00 7009.49 83.34
4797 71.7556 7074.00 7066.28 84.11
4798 71.7689 7128.00 7121.81 84.43
4799 71.7822 7245.00 7175.05 85.12
4800 71.7955 7286.00 7224.95 85.36
4801 71.8088 7146.00 7270.19 84.53
4802 71.8221 7269.00 7309.85 85.26
4803 71.8354 7338.00 7343.05 85.66
4804 71.8487 7522.00 7369.08 86.73
4805 71.8620 7536.00 7387.57 86.81
4806 71.8753 7393.00 7398.43 85.98
4807 71.8886 7727.00 7401.94 87.90
4808 71.9019 7647.00 7398.63 87.45
4809 71.9152 7672.00 7389.27 87.59
4810 71.9285 7607.00 7374.74 87.22
4811 71.9418 7500.00 7355.92 86.60
4812 71.9551 7432.00 7333.62 86.21
4813 71.9684 7550.00 7308.94 86.89
4814 71.9817 7440.00 7281.46 86.26
4815 71.9950 7360.00 7251.94 85.79
4816 72.0083 7222.00 7220.51 84.98
4817 72.0216 7105.00 7187.17 84.29
4818 72.0349 7346.00 7151.85 85.71
4819 72.0482 7117.00 7114.52 84.36
4820 72.0615 7186.00 7075.16 84.77
4821 72.0748 6953.00 7033.86 83.38
4822 72.0881 6823.00 6990.81 82.60
4823 72.1014 7055.00 6946.42 83.99
4824 72.1147 6877.00 6901.14 82.93
4825 72.1280 7043.00 6855.50 83.92
4826 72.1413 6814.00 6810.07 82.55
4827 72.1546 6793.00 6765.45 82.42
4828 72.1679 6696.00 6723.02 81.83
4829 72.1812 6921.00 6681.46 83.19
4830 72.1945 6468.00 6641.96 80.42
4831 72.2078 6598.00 6604.82 81.23
4832 72.2211 6676.00 6570.18 81.71
4833 72.2344 6476.00 6538.12 80.47
4834 72.2477 6571.00 6508.65 81.06
4835 72.2610 6492.00 6481.77 80.57
4836 72.2743 6464.00 6457.36 80.40
4837 72.2876 6346.00 6435.36 79.66
4838 72.3009 6224.00 6415.61 78.89
4839 72.3142 6263.00 6398.01 79.14
4840 72.3275 6309.00 6382.38 79.43
4841 72.3408 6360.00 6368.59 79.75
4842 72.3541 6358.00 6356.47 79.74
4843 72.3674 6476.00 6345.91 80.47
4844 72.3807 6227.00 6336.73 78.91
4845 72.3940 6261.00 6328.81 79.13
4846 72.4073 6489.00 6322.02 80.55
4847 72.4206 6442.00 6316.22 80.26
4848 72.4339 6174.00 6311.28 78.57
4849 72.4472 6222.00 6307.08 78.88
4850 72.4605 6411.00 6303.51 80.07
4851 72.4738 6244.00 6300.44 79.02
4852 72.4871 6344.00 6297.79 79.65
4853 72.5004 6294.00 6295.43 79.33
4854 72.5137 6516.00 6293.31 80.72
4855 72.5270 6352.00 6291.34 79.70
4856 72.5403 6367.00 6289.45 79.79
4857 72.5536 6413.00 6287.60 80.08
4858 72.5669 6329.00 6285.59 79.56
4859 72.5802 6277.00 6283.70 79.23
4860 72.5935 6318.00 6281.78 79.49
4861 72.6068 6038.00 6279.83 77.70
4862 72.6201 6333.00 6277.86 79.58
4863 72.6334 6425.00 6275.75 80.16
4864 72.6467 6447.00 6273.84 80.29
4865 72.6600 6279.00 6272.02 79.24
4866 72.6733 6381.00 6270.34 79.88
4867 72.6866 6218.00 6269.84 78.85
4868 72.6999 6322.00 6268.61 79.51
4869 72.7132 6332.00 6267.69 79.57
4870 72.7265 6240.00 6266.41 78.99
4871 72.7398 6189.00 6266.29 78.67
4872 72.7531 5979.00 6266.63 77.32
4873 72.7664 6172.00 6267.50 78.56
4874 72.7797 6224.00 6268.85 78.89
4875 72.7930 6304.00 6270.86 79.40
4876 72.8063 6210.00 6273.48 78.80
4877 72.8196 6237.00 6276.71 78.97
4878 72.8329 6287.00 6280.54 79.29
4879 72.8462 6226.00 6284.88 78.90
4880 72.8595 6310.00 6289.84 79.44
4881 72.8728 6224.00 6295.29 78.89
4882 72.8861 6257.00 6301.15 79.10
4883 72.8994 6315.00 6307.83 79.47
4884 72.9127 6302.00 6314.25 79.39
4885 72.9260 6340.00 6320.75 79.62
4886 72.9393 6194.00 6326.85 78.70
4887 72.9526 6319.00 6333.11 79.49
4888 72.9659 6318.00 6338.73 79.49
4889 72.9792 6370.00 6344.12 79.81
4890 72.9925 6398.00 6348.83 79.99
4891 73.0058 6375.00 6352.74 79.84
4892 73.0191 6249.00 6355.77 79.05
4893 73.0324 6329.00 6357.85 79.56
4894 73.0457 6386.00 6359.00 79.91
4895 73.0590 6142.00 6359.27 78.37
4896 73.0723 6298.00 6358.76 79.36
4897 73.0856 6315.00 6357.60 79.47
4898 73.0989 6277.00 6355.97 79.23
4899 73.1122 6272.00 6353.99 79.20
4900 73.1255 6305.00 6351.86 79.40
4901 73.1388 6309.00 6349.69 79.43
4902 73.1521 6335.00 6347.57 79.59
4903 73.1654 6433.00 6345.59 80.21
4904 73.1787 6353.00 6343.63 79.71
4905 73.1920 6298.00 6341.99 79.36
4906 73.2053 6365.00 6340.54 79.78
4907 73.2185 6222.00 6339.29 78.88
4908 73.2318 6208.00 6338.21 78.79
4909 73.2451 6241.00 6337.33 79.00
4910 73.2584 6296.00 6336.67 79.35
4911 73.2717 6378.00 6336.29 79.86
4912 73.2850 6234.00 6336.25 78.96
4913 73.2983 6353.00 6336.63 79.71
4914 73.3116 6330.00 6338.55 79.56
4915 73.3249 6342.00 6340.06 79.64
4916 73.3382 6308.00 6342.26 79.42
4917 73.3515 6298.00 6345.21 79.36
4918 73.3648 6342.00 6348.97 79.64
4919 73.3781 6281.00 6353.58 79.25
4920 73.3914 6348.00 6358.79 79.67
4921 73.4047 6489.00 6365.16 80.55
4922 73.4180 6350.00 6372.40 79.69
4923 73.4313 6324.00 6380.50 79.52
4924 73.4446 6432.00 6389.02 80.20
4925 73.4579 6492.00 6398.71 80.57
4926 73.4712 6554.00 6409.13 80.96
4927 73.4845 6587.00 6420.23 81.16
4928 73.4978 6486.00 6431.94 80.54
4929 73.5111 6560.00 6444.21 80.99
4930 73.5244 6396.00 6456.98 79.97
4931 73.5377 6546.00 6470.19 80.91
4932 73.5510 6800.00 6483.79 82.46
4933 73.5643 6576.00 6497.71 81.09
4934 73.5776 6552.00 6511.92 80.94
4935 73.5909 6622.00 6526.36 81.38
4936 73.6042 6590.00 6540.86 81.18
4937 73.6175 6636.00 6555.66 81.46
4938 73.6308 6723.00 6570.60 81.99
4939 73.6441 6590.00 6585.66 81.18
4940 73.6574 6667.00 6600.62 81.65
4941 73.6707 6676.00 6615.86 81.71
4942 73.6840 6758.00 6631.18 82.21
4943 73.6973 6470.00 6646.58 80.44
4944 73.7106 6597.00 6662.05 81.22
4945 73.7239 6845.00 6677.61 82.73
4946 73.7372 6597.00 6693.26 81.22
4947 73.7505 6695.00 6709.02 81.82
4948 73.7638 6821.00 6724.88 82.59
4949 73.7771 6806.00 6740.86 82.50
4950 73.7904 6751.00 6756.97 82.16
4951 73.8037 6607.00 6773.20 81.28
4952 73.8170 6570.00 6789.51 81.06
4953 73.8303 6636.00 6805.25 81.46
4954 73.8436 6823.00 6821.58 82.60
4955 73.8569 6634.00 6837.77 81.45
4956 73.8702 6691.00 6853.65 81.80
4957 73.8835 6694.00 6869.04 81.82
4958 73.8968 6773.00 6883.71 82.30
4959 73.9101 6772.00 6897.36 82.29
4960 73.9234 6684.00 6909.68 81.76
4961 73.9367 6679.00 6920.32 81.73
4962 73.9500 6799.00 6928.94 82.46
4963 73.9633 6771.00 6935.15 82.29
4964 73.9766 6796.00 6938.67 82.44
4965 73.9899 6771.00 6939.21 82.29
4966 74.0032 6699.00 6936.60 81.85
4967 74.0165 6790.00 6930.80 82.40
4968 74.0298 6747.00 6921.83 82.14
4969 74.0431 6804.00 6909.60 82.49
4970 74.0564 6690.00 6894.98 81.79
4971 74.0697 6736.00 6878.06 82.07
4972 74.0830 6680.00 6859.34 81.73
4973 74.0963 6702.00 6839.05 81.87
4974 74.1096 6703.00 6817.80 81.87
4975 74.1229 6643.00 6795.90 81.50
4976 74.1362 6638.00 6773.67 81.47
4977 74.1495 6721.00 6751.33 81.98
4978 74.1628 6597.00 6729.06 81.22
4979 74.1761 6489.00 6707.01 80.55
4980 74.1894 6606.00 6685.25 81.28
4981 74.2027 6712.00 6663.87 81.93
4982 74.2160 6509.00 6642.93 80.68
4983 74.2293 6490.00 6622.58 80.56
4984 74.2426 6570.00 6602.96 81.06
4985 74.2559 6471.00 6584.27 80.44
4986 74.2692 6667.00 6566.75 81.65
4987 74.2825 6335.00 6550.71 79.59
4988 74.2958 6591.00 6537.17 81.18
4989 74.3091 6467.00 6524.97 80.42
4990 74.3224 6487.00 6515.21 80.54
4991 74.3357 6428.00 6508.13 80.17
4992 74.3490 6379.00 6503.95 79.87
4993 74.3623 6431.00 6502.88 80.19
4994 74.3756 6369.00 6505.06 79.81
4995 74.3889 6360.00 6510.57 79.75
4996 74.4022 6410.00 6519.45 80.06
4997 74.4155 6534.00 6531.68 80.83
4998 74.4288 6617.00 6547.21 81.34
4999 74.4421 6506.00 6565.90 80.66
5000 74.4554 6334.00 6587.61 79.59
5001 74.4687 6356.00 6612.15 79.72
5002 74.4820 6492.00 6639.25 80.57
5003 74.4953 6503.00 6668.62 80.64
5004 74.5086 6613.00 6699.95 81.32
5005 74.5219 6522.00 6732.87 80.76
5006 74.5352 6587.00 6766.94 81.16
5007 74.5485 6617.00 6801.73 81.34
5008 74.5618 6758.00 6836.75 82.21
5009 74.5751 6779.00 6871.49 82.33
5010 74.5884 6767.00 6905.39 82.26
5011 74.6017 6854.00 6937.88 82.79
5012 74.6150 6892.00 6968.41 83.02
5013 74.6283 7107.00 6996.49 84.30
5014 74.6416 7014.00 7021.55 83.75
5015 74.6549 7174.00 7043.18 84.70
5016 74.6682 7160.00 7061.05 84.62
5017 74.6815 7245.00 7074.94 85.12
5018 74.6948 7100.00 7084.72 84.26
5019 74.7081 7279.00 7090.42 85.32
5020 74.7214 7308.00 7092.18 85.49
5021 74.7347 7221.00 7090.21 84.98
5022 74.7479 7141.00 7084.90 84.50
5023 74.7612 7293.00 7076.51 85.40
5024 74.7745 7209.00 7065.44 84.91
5025 74.7878 7274.00 7052.19 85.29
5026 74.8011 7139.00 7036.80 84.49
5027 74.8144 6960.00 7019.69 83.43
5028 74.8277 7051.00 7001.09 83.97
5029 74.8410 7124.00 6980.76 84.40
5030 74.8543 6977.00 6959.68 83.53
5031 74.8676 7082.00 6937.56 84.15
5032 74.8809 6933.00 6914.51 83.26
5033 74.8942 6992.00 6890.61 83.62
5034 74.9075 6984.00 6864.17 83.57
5035 74.9208 6821.00 6839.08 82.59
5036 74.9341 6705.00 6813.62 81.88
5037 74.9474 6812.00 6788.03 82.53
5038 74.9607 6809.00 6762.52 82.52
5039 74.9740 6822.00 6737.30 82.60
5040 74.9873 6868.00 6712.57 82.87
5041 75.0006 6675.00 6688.61 81.70
5042 75.0139 6642.00 6665.41 81.50
5043 75.0272 6730.00 6643.13 82.04
5044 75.0405 6554.00 6621.82 80.96
5045 75.0538 6695.00 6601.29 81.82
5046 75.0671 6612.00 6581.89 81.31
5047 75.0804 6428.00 6563.31 80.17
5048 75.0937 6661.00 6545.40 81.61
5049 75.1070 6537.00 6528.03 80.85
5050 75.1203 6471.00 6510.08 80.44
5051 75.1336 6429.00 6493.25 80.18
5052 75.1469 6686.00 6476.44 81.77
5053 75.1602 6422.00 6459.56 80.14
5054 75.1735 6488.00 6442.53 80.55
5055 75.1868 6696.00 6425.36 81.83
5056 75.2001 6429.00 6408.08 80.18
5057 75.2134 6479.00 6390.80 80.49
5058 75.2267 6558.00 6373.64 80.98
5059 75.2400 6545.00 6356.75 80.90
5060 75.2533 6484.00 6340.25 80.52
5061 75.2666 6543.00 6324.29 80.89
5062 75.2799 6488.00 6308.97 80.55
5063 75.2932 6487.00 6294.34 80.54
5064 75.3065 6414.00 6280.43 80.09
5065 75.3198 6322.00 6267.27 79.51
5066 75.3331 6272.00 6254.82 79.20
5067 75.3464 6298.00 6243.05 79.36
5068 75.3597 6201.00 6231.92 78.75
5069 75.3730 6222.00 6221.39 78.88
5070 75.3863 6271.00 6211.44 79.19
5071 75.3996 6145.00 6202.07 78.39
5072 75.4129 6375.00 6193.30 79.84
5073 75.4262 6255.00 6185.18 79.09
5074 75.4395 6273.00 6177.75 79.20
5075 75.4528 6148.00 6171.09 78.41
5076 75.4661 6145.00 6165.28 78.39
5077 75.4794 6212.00 6160.35 78.82
5078 75.4927 6279.00 6156.38 79.24
5079 75.5060 6198.00 6153.39 78.73
5080 75.5193 5946.00 6151.42 77.11
5081 75.5326 6274.00 6150.44 79.21
5082 75.5459 6112.00 6150.46 78.18
5083 75.5592 6275.00 6151.44 79.21
5084 75.5725 6162.00 6153.35 78.50
5085 75.5858 6062.00 6156.14 77.86
5086 75.5991 6029.00 6159.75 77.65
5087 75.6124 6024.00 6164.15 77.61
5088 75.6257 6102.00 6169.28 78.12
5089 75.6390 6112.00 6175.09 78.18
5090 75.6523 6170.00 6181.55 78.55
5091 75.6656 6215.00 6188.64 78.84
5092 75.6789 6175.00 6196.34 78.58
5093 75.6922 6235.00 6204.67 78.96
5094 75.7055 6066.00 6213.64 77.88
5095 75.7188 6216.00 6223.29 78.84
5096 75.7321 6344.00 6233.68 79.65
5097 75.7454 6239.00 6244.85 78.99
5098 75.7587 6289.00 6256.90 79.30
5099 75.7720 6260.00 6269.86 79.12
5100 75.7853 6301.00 6283.79 79.38
5101 75.7986 6198.00 6298.72 78.73
5102 75.8119 6225.00 6314.66 78.90
5103 75.8252 6241.00 6331.57 79.00
5104 75.8385 6259.00 6349.38 79.11
5105 75.8518 6225.00 6368.21 78.90
5106 75.8651 6342.00 6387.49 79.64
5107 75.8784 6365.00 6407.22 79.78
5108 75.8917 6437.00 6427.19 80.23
5109 75.9050 6342.00 6447.13 79.64
5110 75.9183 6580.00 6466.75 81.12
5111 75.9316 6298.00 6485.71 79.36
5112 75.9449 6286.00 6503.67 79.28
5113 75.9582 6399.00 6520.24 79.99
5114 75.9715 6469.00 6535.08 80.43
5115 75.9848 6420.00 6547.79 80.12
5116 75.9981 6476.00 6558.04 80.47
5117 76.0114 6503.00 6565.54 80.64
5118 76.0247 6324.00 6570.06 79.52
5119 76.0380 6381.00 6571.44 79.88
5120 76.0513 6430.00 6569.66 80.19
5121 76.0646 6510.00 6564.75 80.68
5122 76.0779 6177.00 6557.08 78.59
5123 76.0912 6510.00 6546.59 80.68
5124 76.1045 6248.00 6533.74 79.04
5125 76.1178 6464.00 6518.85 80.40
5126 76.1311 6443.00 6502.27 80.27
5127 76.1444 6290.00 6484.31 79.31
5128 76.1577 6237.00 6465.21 78.97
5129 76.1710 6404.00 6445.19 80.03
5130 76.1843 6430.00 6424.36 80.19
5131 76.1976 6155.00 6402.82 78.45
5132 76.2109 6224.00 6380.22 78.89
5133 76.2242 6074.00 6357.29 77.94
5134 76.2375 6364.00 6333.67 79.77
5135 76.2508 6229.00 6309.33 78.92
5136 76.2640 6266.00 6284.48 79.16
5137 76.2773 6247.00 6258.76 79.04
5138 76.2906 6248.00 6232.49 79.04
5139 76.3039 6225.00 6205.80 78.90
5140 76.3172 6022.00 6178.85 77.60
5141 76.3305 6066.00 6151.84 77.88
5142 76.3438 5981.00 6124.96 77.34
5143 76.3571 5934.00 6098.45 77.03
5144 76.3704 6078.00 6072.48 77.96
5145 76.3837 5977.00 6047.24 77.31
5146 76.3970 6088.00 6022.86 78.03
5147 76.4103 5969.00 5999.46 77.26
5148 76.4236 5839.00 5977.15 76.41
5149 76.4369 5892.00 5955.76 76.76
5150 76.4502 5893.00 5935.72 76.77
5151 76.4635 5894.00 5916.86 76.77
5152 76.4768 5974.00 5899.15 77.29
5153 76.4901 5768.00 5882.59 75.95
5154 76.5034 5806.00 5867.15 76.20
5155 76.5167 5883.00 5852.79 76.70
5156 76.5300 5765.00 5839.46 75.93
5157 76.5433 5810.00 5827.12 76.22
5158 76.5566 5869.00 5815.72 76.61
5159 76.5699 5727.00 5805.22 75.68
5160 76.5832 5808.00 5795.56 76.21
5161 76.5965 5675.00 5786.68 75.33
5162 76.6098 5806.00 5778.57 76.20
5163 76.6231 5832.00 5771.15 76.37
5164 76.6364 5720.00 5764.39 75.63
5165 76.6497 5789.00 5759.17 76.09
5166 76.6630 5829.00 5753.62 76.35
5167 76.6763 5809.00 5748.61 76.22
5168 76.6896 5652.00 5744.09 75.18
5169 76.7029 5722.00 5740.06 75.64
5170 76.7162 5569.00 5736.47 74.63
5171 76.7295 5916.00 5733.31 76.92
5172 76.7428 5706.00 5730.54 75.54
5173 76.7561 5636.00 5728.16 75.07
5174 76.7694 5679.00 5726.15 75.36
5175 76.7827 5661.00 5724.49 75.24
5176 76.7960 5817.00 5723.18 76.27
5177 76.8093 5721.00 5722.21 75.64
5178 76.8226 5673.00 5721.58 75.32
5179 76.8359 5723.00 5721.28 75.65
5180 76.8492 5744.00 5721.33 75.79
5181 76.8625 5806.00 5721.71 76.20
5182 76.8758 5722.00 5722.44 75.64
5183 76.8891 5689.00 5723.53 75.43
5184 76.9024 5663.00 5724.97 75.25
5185 76.9157 5647.00 5726.79 75.15
5186 76.9290 5817.00 5728.99 76.27
5187 76.9423 5706.00 5731.59 75.54
5188 76.9556 5846.00 5734.60 76.46
5189 76.9689 5667.00 5738.03 75.28
5190 76.9822 5686.00 5741.91 75.41
5191 76.9955 5724.00 5746.24 75.66
5192 77.0088 5761.00 5751.04 75.90
5193 77.0221 5707.00 5756.32 75.54
5194 77.0354 5705.00 5762.11 75.53
5195 77.0487 5781.00 5768.39 76.03
5196 77.0620 5800.00 5775.21 76.16
5197 77.0753 5671.00 5782.54 75.31
5198 77.0886 5759.00 5790.40 75.89
5199 77.1019 5792.00 5798.79 76.11
5200 77.1152 5699.00 5807.71 75.49
5201 77.1285 5722.00 5817.15 75.64
5202 77.1418 5810.00 5827.10 76.22
5203 77.1551 5916.00 5837.55 76.92
5204 77.1684 5698.00 5848.48 75.49
5205 77.1817 5861.00 5859.87 76.56
5206 77.1950 5832.00 5871.69 76.37
5207 77.2083 5941.00 5883.89 77.08
5208 77.2216 5918.00 5896.45 76.93
5209 77.2349 5893.00 5909.29 76.77
5210 77.2482 5828.00 5921.52 76.34
5211 77.2615 5908.00 5934.81 76.86
5212 77.2748 5859.00 5948.24 76.54
5213 77.2881 5918.00 5961.70 76.93
5214 77.3014 5975.00 5975.13 77.30
5215 77.3147 5797.00 5988.45 76.14
5216 77.3280 6045.00 6001.56 77.75
5217 77.3413 5897.00 6014.38 76.79
5218 77.3546 6060.00 6026.80 77.85
5219 77.3679 5851.00 6038.76 76.49
5220 77.3812 5978.00 6050.15 77.32
5221 77.3945 5982.00 6060.88 77.34
5222 77.4078 6080.00 6070.90 77.97
5223 77.4211 5958.00 6080.18 77.19
5224 77.4344 6094.00 6088.56 78.06
5225 77.4477 6090.00 6096.07 78.04
5226 77.4610 6063.00 6102.67 77.87
5227 77.4743 6001.00 6107.93 77.47
5228 77.4876 5981.00 6112.72 77.34
5229 77.5009 6127.00 6116.61 78.28
5230 77.5142 5999.00 6119.65 77.45
5231 77.5275 6113.00 6121.86 78.19
5232 77.5408 6032.00 6123.67 77.67
5233 77.5541 6118.00 6124.37 78.22
5234 77.5674 6044.00 6124.35 77.74
5235 77.5807 6080.00 6123.67 77.97
5236 77.5940 6179.00 6122.34 78.61
5237 77.6073 6214.00 6120.39 78.83
5238 77.6206 6015.00 6117.81 77.56
5239 77.6339 6056.00 6114.63 77.82
5240 77.6472 6095.00 6110.83 78.07
5241 77.6605 6074.00 6106.43 77.94
5242 77.6738 5925.00 6101.42 76.97
5243 77.6871 6060.00 6095.81 77.85
5244 77.7004 6135.00 6089.62 78.33
5245 77.7137 6116.00 6082.86 78.20
5246 77.7270 6094.00 6075.24 78.06
5247 77.7403 6102.00 6067.48 78.12
5248 77.7536 6069.00 6059.29 77.90
5249 77.7669 6122.00 6050.74 78.24
5250 77.7802 5995.00 6041.89 77.43
5251 77.7934 5988.00 6032.90 77.38
5252 77.8067 5944.00 6023.71 77.10
5253 77.8200 6084.00 6014.45 78.00
5254 77.8333 5960.00 6005.21 77.20
5255 77.8466 5976.00 5996.03 77.30
5256 77.8599 5882.00 5986.98 76.69
5257 77.8732 5973.00 5978.10 77.29
5258 77.8865 6040.00 5969.41 77.72
5259 77.8998 6026.00 5960.93 77.63
5260 77.9131 6013.00 5952.67 77.54
5261 77.9264 5986.00 5944.61 77.37
5262 77.9397 5885.00 5936.71 76.71
5263 77.9530 5919.00 5928.80 76.93
5264 77.9663 5911.00 5921.14 76.88
5265 77.9796 6003.00 5913.53 77.48
5266 77.9929 5781.00 5905.90 76.03
5267 78.0062 5953.00 5898.20 77.16
5268 78.0195 5995.00 5890.37 77.43
5269 78.0328 5902.00 5882.34 76.82
5270 78.0461 5885.00 5874.06 76.71
5271 78.0594 5722.00 5865.49 75.64
5272 78.0727 5889.00 5856.61 76.74
5273 78.0860 5879.00 5847.38 76.67
5274 78.0993 5898.00 5837.82 76.80
5275 78.1126 5925.00 5827.94 76.97
5276 78.1259 5925.00 5817.49 76.97
5277 78.1392 5953.00 5807.12 77.16
5278 78.1525 5828.00 5796.58 76.34
5279 78.1658 5775.00 5785.96 75.99
5280 78.1791 6030.00 5775.30 77.65
5281 78.1924 5970.00 5764.67 77.27
5282 78.2057 5747.00 5754.09 75.81
5283 78.2190 5785.00 5743.63 76.06
5284 78.2323 5890.00 5733.28 76.75
5285 78.2456 5809.00 5723.07 76.22
5286 78.2589 5716.00 5712.98 75.60
5287 78.2722 5692.00 5703.03 75.45
5288 78.2855 5602.00 5693.18 74.85
5289 78.2988 5755.00 5683.44 75.86
5290 78.3121 5759.00 5673.78 75.89
5291 78.3254 5648.00 5664.21 75.15
5292 78.3387 5716.00 5654.73 75.60
5293 78.3520 5762.00 5645.20 75.91
5294 78.3653 5704.00 5635.94 75.52
5295 78.3786 5757.00 5626.83 75.87
5296 78.3919 5681.00 5617.46 75.37
5297 78.4052 5513.00 5608.72 74.25
5298 78.4185 5650.00 5600.26 75.17
5299 78.4318 5702.00 5592.02 75.51
5300 78.4451 5569.00 5582.39 74.63
5301 78.4584 5777.00 5574.74 76.01
5302 78.4717 5628.00 5567.40 75.02
5303 78.4850 5517.00 5560.37 74.28
5304 78.4983 5570.00 5553.66 74.63
5305 78.5116 5526.00 5547.27 74.34
5306 78.5249 5667.00 5541.19 75.28
5307 78.5382 5570.00 5535.42 74.63
5308 78.5515 5650.00 5529.95 75.17
5309 78.5648 5673.00 5524.75 75.32
5310 78.5781 5721.00 5519.84 75.64
5311 78.5914 5620.00 5515.19 74.97
5312 78.6047 5500.00 5510.80 74.16
5313 78.6180 5576.00 5506.65 74.67
5314 78.6313 5673.00 5502.51 75.32
5315 78.6446 5381.00 5499.10 73.36
5316 78.6579 5603.00 5495.61 74.85
5317 78.6712 5556.00 5492.32 74.54
5318 78.6845 5518.00 5488.41 74.28
5319 78.6978 5515.00 5485.50 74.26
5320 78.7111 5555.00 5482.77 74.53
5321 78.7244 5452.00 5480.21 73.84
5322 78.7377 5515.00 5477.81 74.26
5323 78.7510 5619.00 5475.56 74.96
5324 78.7643 5441.00 5473.47 73.76
5325 78.7776 5387.00 5471.53 73.40
5326 78.7909 5490.00 5469.74 74.09
5327 78.8042 5498.00 5468.60 74.15
5328 78.8175 5557.00 5467.10 74.55
5329 78.8308 5505.00 5465.76 74.20
5330 78.8441 5534.00 5464.56 74.39
5331 78.8574 5553.00 5463.53 74.52
5332 78.8707 5396.00 5462.66 73.46
5333 78.8840 5527.00 5461.96 74.34
5334 78.8973 5428.00 5461.45 73.68
5335 78.9106 5512.00 5461.13 74.24
5336 78.9239 5331.00 5461.02 73.01
5337 78.9372 5452.00 5461.12 73.84
5338 78.9505 5632.00 5461.47 75.05
5339 78.9638 5486.00 5462.06 74.07
5340 78.9771 5256.00 5462.92 72.50
5341 78.9904 5372.00 5464.06 73.29
5342 79.0037 5499.00 5465.51 74.16
5343 79.0170 5590.00 5467.26 74.77
5344 79.0303 5502.00 5469.35 74.18
5345 79.0436 5422.00 5471.73 73.63
5346 79.0569 5343.00 5474.50 73.10
5347 79.0702 5405.00 5477.63 73.52
5348 79.0835 5451.00 5481.11 73.83
5349 79.0968 5537.00 5484.92 74.41
5350 79.1101 5461.00 5489.05 73.90
5351 79.1234 5542.00 5493.49 74.44
5352 79.1367 5382.00 5498.21 73.36
5353 79.1500 5436.00 5503.15 73.73
5354 79.1633 5395.00 5508.29 73.45
5355 79.1766 5463.00 5513.56 73.91
5356 79.1899 5526.00 5518.91 74.34
5357 79.2032 5647.00 5524.26 75.15
5358 79.2165 5654.00 5529.54 75.19
5359 79.2298 5498.00 5534.67 74.15
5360 79.2431 5473.00 5539.56 73.98
5361 79.2564 5408.00 5544.13 73.54
5362 79.2697 5563.00 5548.53 74.59
5363 79.2830 5555.00 5552.16 74.53
5364 79.2963 5619.00 5555.23 74.96
5365 79.3095 5602.00 5557.63 74.85
5366 79.3228 5398.00 5559.35 73.47
5367 79.3361 5626.00 5560.33 75.01
5368 79.3494 5675.00 5560.55 75.33
5369 79.3627 5544.00 5560.04 74.46
5370 79.3760 5615.00 5558.80 74.93
5371 79.3893 5475.00 5556.90 73.99
5372 79.4026 5676.00 5554.38 75.34
5373 79.4159 5420.00 5551.32 73.62
5374 79.4292 5682.00 5546.79 75.38
5375 79.4425 5611.00 5542.82 74.91
5376 79.4558 5544.00 5538.50 74.46
5377 79.4691 5610.00 5533.85 74.90
5378 79.4824 5612.00 5528.93 74.91
5379 79.4957 5685.00 5524.57 75.40
5380 79.5090 5532.00 5519.15 74.38
5381 79.5223 5504.00 5513.49 74.19
5382 79.5356 5486.00 5507.11 74.07
5383 79.5489 5593.00 5501.00 74.79
5384 79.5622 5318.00 5494.67 72.92
5385 79.5755 5506.00 5488.14 74.20
5386 79.5888 5382.00 5481.43 73.36
5387 79.6021 5389.00 5474.55 73.41
5388 79.6154 5470.00 5467.56 73.96
5389 79.6287 5467.00 5460.48 73.94
5390 79.6420 5496.00 5453.37 74.14
5391 79.6553 5466.00 5445.94 73.93
5392 79.6686 5421.00 5438.43 73.63
5393 79.6819 5452.00 5431.52 73.84
5394 79.6952 5535.00 5424.76 74.40
5395 79.7085 5504.00 5418.19 74.19
5396 79.7218 5552.00 5411.85 74.51
5397 79.7351 5358.00 5405.77 73.20
5398 79.7484 5391.00 5399.96 73.42
5399 79.7617 5483.00 5394.20 74.05
5400 79.7750 5294.00 5389.00 72.76
5401 79.7883 5419.00 5384.11 73.61
5402 79.8016 5463.00 5379.55 73.91
5403 79.8149 5366.00 5375.26 73.25
5404 79.8282 5309.00 5371.35 72.86
5405 79.8415 5243.00 5367.77 72.41
5406 79.8548 5307.00 5364.50 72.85
5407 79.8681 5324.00 5361.57 72.97
5408 79.8814 5442.00 5358.96 73.77
5409 79.8947 5520.00 5356.50 74.30
5410 79.9080 5359.00 5354.52 73.21
5411 79.9213 5402.00 5352.87 73.50
5412 79.9346 5407.00 5351.52 73.53
5413 79.9479 5349.00 5350.48 73.14
5414 79.9612 5415.00 5349.76 73.59
5415 79.9745 5385.00 5349.34 73.38
5416 79.9878 5472.00 5349.21 73.97
5417 80.0011 5341.00 5349.39 73.08
5418 80.0144 5365.00 5349.85 73.25
5419 80.0277 5330.00 5350.61 73.01
5420 80.0410 5350.00 5351.64 73.14
5421 80.0543 5367.00 5352.92 73.26
5422 80.0676 5319.00 5354.48 72.93
5423 80.0809 5371.00 5356.29 73.29
5424 80.0942 5280.00 5358.35 72.66
5425 80.1075 5266.00 5360.64 72.57
5426 80.1208 5348.00 5363.13 73.13
5427 80.1341 5445.00 5365.83 73.79
5428 80.1474 5324.00 5368.71 72.97
5429 80.1607 5293.00 5371.75 72.75
5430 80.1740 5478.00 5374.93 74.01
5431 80.1873 5309.00 5378.23 72.86
5432 80.2006 5322.00 5381.62 72.95
5433 80.2139 5464.00 5385.08 73.92
5434 80.2272 5358.00 5388.59 73.20
5435 80.2405 5360.00 5392.10 73.21
5436 80.2538 5517.00 5395.60 74.28
5437 80.2671 5316.00 5399.04 72.91
5438 80.2804 5522.00 5402.41 74.31
5439 80.2937 5493.00 5405.66 74.11
5440 80.3070 5411.00 5408.78 73.56
5441 80.3203 5471.00 5411.73 73.97
5442 80.3336 5517.00 5414.47 74.28
5443 80.3469 5420.00 5417.00 73.62
5444 80.3602 5507.00 5419.28 74.21
5445 80.3735 5417.00 5421.30 73.60
5446 80.3868 5594.00 5423.05 74.79
5447 80.4001 5511.00 5424.49 74.24
5448 80.4134 5570.00 5425.63 74.63
5449 80.4267 5354.00 5426.47 73.17
5450 80.4400 5390.00 5427.01 73.42
5451 80.4533 5463.00 5427.25 73.91
5452 80.4666 5387.00 5427.19 73.40
5453 80.4799 5555.00 5426.88 74.53
5454 80.4932 5527.00 5426.30 74.34
5455 80.5065 5357.00 5425.49 73.19
5456 80.5198 5422.00 5424.46 73.63
5457 80.5331 5414.00 5423.23 73.58
5458 80.5464 5500.00 5421.81 74.16
5459 80.5597 5491.00 5420.23 74.10
5460 80.5730 5455.00 5418.49 73.86
5461 80.5863 5500.00 5416.60 74.16
5462 80.5996 5268.00 5414.57 72.58
5463 80.6129 5594.00 5412.41 74.79
5464 80.6262 5523.00 5410.84 74.32
5465 80.6395 5548.00 5408.42 74.48
5466 80.6528 5416.00 5405.88 73.59
5467 80.6661 5476.00 5403.21 74.00
5468 80.6794 5481.00 5400.41 74.03
5469 80.6927 5439.00 5397.48 73.75
5470 80.7060 5490.00 5394.43 74.09
5471 80.7193 5356.00 5391.25 73.18
5472 80.7326 5414.00 5387.94 73.58
5473 80.7459 5404.00 5384.50 73.51
5474 80.7592 5402.00 5380.95 73.50
5475 80.7725 5416.00 5377.26 73.59
5476 80.7858 5353.00 5373.44 73.16
5477 80.7991 5366.00 5369.50 73.25
5478 80.8124 5419.00 5365.42 73.61
5479 80.8257 5406.00 5361.20 73.53
5480 80.8389 5422.00 5356.87 73.63
5481 80.8522 5486.00 5352.37 74.07
5482 80.8655 5419.00 5347.89 73.61
5483 80.8788 5383.00 5343.10 73.37
5484 80.8921 5430.00 5338.17 73.69
5485 80.9054 5408.00 5333.05 73.54
5486 80.9187 5411.00 5327.86 73.56
5487 80.9320 5487.00 5322.57 74.07
5488 80.9453 5395.00 5317.18 73.45
5489 80.9586 5343.00 5311.70 73.10
5490 80.9719 5450.00 5306.17 73.82
5491 80.9852 5447.00 5300.78 73.80
5492 80.9985 5426.00 5295.16 73.66
5493 81.0118 5405.00 5289.53 73.52
5494 81.0251 5226.00 5283.90 72.29
5495 81.0384 5343.00 5278.28 73.10
5496 81.0517 5297.00 5272.68 72.78
5497 81.0650 5415.00 5267.12 73.59
5498 81.0783 5332.00 5261.60 73.02
5499 81.0916 5253.00 5256.12 72.48
5500 81.1049 5263.00 5250.70 72.55
5501 81.1182 5277.00 5245.35 72.64
5502 81.1315 5367.00 5240.07 73.26
5503 81.1448 5271.00 5234.85 72.60
5504 81.1581 5318.00 5229.77 72.92
5505 81.1714 5259.00 5224.77 72.52
5506 81.1847 5310.00 5219.89 72.87
5507 81.1980 5258.00 5215.14 72.51
5508 81.2113 5230.00 5210.53 72.32
5509 81.2246 5377.00 5206.08 73.33
5510 81.2379 5062.00 5201.80 71.15
5511 81.2512 5225.00 5197.70 72.28
5512 81.2645 5119.00 5193.79 71.55
5513 81.2778 5139.00 5190.08 71.69
5514 81.2911 5277.00 5186.57 72.64
5515 81.3044 5308.00 5183.27 72.86
5516 81.3177 5192.00 5180.18 72.06
5517 81.3310 5233.00 5177.31 72.34
5518 81.3443 5237.00 5174.65 72.37
5519 81.3576 5226.00 5172.20 72.29
5520 81.3709 5139.00 5169.95 71.69
5521 81.3842 5218.00 5167.92 72.24
5522 81.3975 5223.00 5166.07 72.27
5523 81.4108 5194.00 5164.42 72.07
5524 81.4241 5150.00 5162.80 71.76
5525 81.4374 5076.00 5161.51 71.25
5526 81.4507 5220.00 5160.38 72.25
5527 81.4640 5170.00 5159.41 71.90
5528 81.4773 5231.00 5158.59 72.33
5529 81.4906 5318.00 5157.90 72.92
5530 81.5039 5288.00 5157.34 72.72
5531 81.5172 5117.00 5156.88 71.53
5532 81.5305 5156.00 5156.52 71.81
5533 81.5438 5410.00 5156.26 73.55
5534 81.5571 5107.00 5156.07 71.46
5535 81.5704 5072.00 5155.95 71.22
5536 81.5837 5139.00 5155.88 71.69
5537 81.5970 5082.00 5155.85 71.29
5538 81.6103 5192.00 5155.86 72.06
5539 81.6236 5152.00 5155.89 71.78
5540 81.6369 5153.00 5155.95 71.78
5541 81.6502 5176.00 5156.02 71.94
5542 81.6635 5267.00 5156.11 72.57
5543 81.6768 5203.00 5156.14 72.13
5544 81.6901 5139.00 5156.27 71.69
5545 81.7034 5128.00 5156.43 71.61
5546 81.7167 5140.00 5156.62 71.69
5547 81.7300 4988.00 5156.87 70.63
5548 81.7433 5136.00 5157.18 71.67
5549 81.7566 5275.00 5157.58 72.63
5550 81.7699 5103.00 5158.09 71.44
5551 81.7832 5013.00 5158.73 70.80
5552 81.7965 5266.00 5159.53 72.57
5553 81.8098 5123.00 5160.50 71.58
5554 81.8231 5161.00 5161.69 71.84
5555 81.8364 4997.00 5163.10 70.69
5556 81.8497 5031.00 5164.76 70.93
5557 81.8630 5049.00 5166.69 71.06
5558 81.8763 5034.00 5168.91 70.95
5559 81.8896 5087.00 5171.42 71.32
5560 81.9029 5186.00 5174.24 72.01
5561 81.9162 5185.00 5177.36 72.01
5562 81.9295 5085.00 5180.78 71.31
5563 81.9428 5191.00 5184.69 72.05
5564 81.9561 5135.00 5188.67 71.66
5565 81.9694 5000.00 5192.88 70.71
5566 81.9827 5136.00 5197.32 71.67
5567 81.9960 5072.00 5201.93 71.22
5568 82.0093 4998.00 5206.68 70.70
5569 82.0226 5233.00 5211.53 72.34
5570 82.0359 5156.00 5216.42 71.81
5571 82.0492 5169.00 5221.30 71.90
5572 82.0625 5198.00 5226.11 72.10
5573 82.0758 5240.00 5230.79 72.39
5574 82.0891 5124.00 5235.27 71.58
5575 82.1024 5188.00 5239.48 72.03
5576 82.1157 5241.00 5243.32 72.39
5577 82.1290 5230.00 5246.74 72.32
5578 82.1423 5369.00 5249.63 73.27
5579 82.1556 5283.00 5251.93 72.68
5580 82.1689 5299.00 5253.55 72.79
5581 82.1822 5248.00 5254.71 72.44
5582 82.1955 5282.00 5254.80 72.68
5583 82.2088 5237.00 5254.07 72.37
5584 82.2221 5362.00 5252.50 73.23
5585 82.2354 5347.00 5250.11 73.12
5586 82.2487 5344.00 5246.92 73.10
5587 82.2620 5214.00 5242.98 72.21
5588 82.2753 5250.00 5238.35 72.46
5589 82.2886 5379.00 5233.10 73.34
5590 82.3019 5275.00 5226.79 72.63
5591 82.3152 5190.00 5220.51 72.04
5592 82.3285 5297.00 5213.52 72.78
5593 82.3418 5192.00 5206.42 72.06
5594 82.3550 5267.00 5199.06 72.57
5595 82.3683 5289.00 5191.33 72.73
5596 82.3816 5194.00 5183.33 72.07
5597 82.3949 5220.00 5175.06 72.25
5598 82.4082 5158.00 5166.53 71.82
5599 82.4215 5352.00 5157.75 73.16
5600 82.4348 5288.00 5148.74 72.72
5601 82.4481 5145.00 5139.49 71.73
5602 82.4614 5248.00 5130.04 72.44
5603 82.4747 5335.00 5120.43 73.04
5604 82.4880 5302.00 5110.67 72.81
5605 82.5013 5213.00 5100.83 72.20
5606 82.5146 5125.00 5090.96 71.59
5607 82.5279 5223.00 5081.11 72.27
5608 82.5412 5159.00 5071.35 71.83
5609 82.5545 5118.00 5061.48 71.54
5610 82.5678 5053.00 5052.08 71.08
5611 82.5811 5114.00 5042.82 71.51
5612 82.5944 5166.00 5034.02 71.87
5613 82.6077 5134.00 5025.58 71.65
5614 82.6210 5146.00 5017.56 71.74
5615 82.6343 5027.00 5010.00 70.90
5616 82.6476 4947.00 5002.92 70.33
5617 82.6609 4969.00 4996.36 70.49
5618 82.6742 4965.00 4990.35 70.46
5619 82.6875 4950.00 4984.91 70.36
5620 82.7008 5047.00 4980.07 71.04
5621 82.7141 4987.00 4975.84 70.62
5622 82.7274 5145.00 4972.24 71.73
5623 82.7407 4915.00 4969.29 70.11
5624 82.7540 4991.00 4967.01 70.65
5625 82.7673 4939.00 4965.39 70.28
5626 82.7806 4867.00 4964.45 69.76
5627 82.7939 4943.00 4964.20 70.31
5628 82.8072 5105.00 4964.62 71.45
5629 82.8205 5049.00 4965.74 71.06
5630 82.8338 5016.00 4967.53 70.82
5631 82.8471 4970.00 4969.77 70.50
5632 82.8604 5032.00 4972.88 70.94
5633 82.8737 4854.00 4976.61 69.67
5634 82.8870 5006.00 4980.93 70.75
5635 82.9003 4995.00 4986.08 70.68
5636 82.9136 4985.00 4991.49 70.60
5637 82.9269 4955.00 4997.38 70.39
5638 82.9402 4880.00 5003.68 69.86
5639 82.9535 5064.00 5010.34 71.16
5640 82.9668 4955.00 5017.29 70.39
5641 82.9801 4913.00 5024.44 70.09
5642 82.9934 5080.00 5031.73 71.27
5643 83.0067 4935.00 5039.06 70.25
5644 83.0200 5054.00 5046.33 71.09
5645 83.0333 5092.00 5053.43 71.36
5646 83.0466 5087.00 5060.29 71.32
5647 83.0599 5017.00 5066.79 70.83
5648 83.0732 5026.00 5072.85 70.89
5649 83.0865 4920.00 5078.34 70.14
5650 83.0998 5078.00 5083.08 71.26
5651 83.1131 5145.00 5087.21 71.73
5652 83.1264 4986.00 5090.56 70.61
5653 83.1397 5115.00 5093.08 71.52
5654 83.1530 5046.00 5094.87 71.04
5655 83.1663 4961.00 5095.66 70.43
5656 83.1796 5127.00 5095.58 71.60
5657 83.1929 5085.00 5094.66 71.31
5658 83.2062 4989.00 5092.92 70.63
5659 83.2195 5024.00 5090.38 70.88
5660 83.2328 5043.00 5087.09 71.01
5661 83.2461 5050.00 5083.09 71.06
5662 83.2594 4959.00 5078.40 70.42
5663 83.2727 5069.00 5073.06 71.20
5664 83.2860 5000.00 5067.40 70.71
5665 83.2993 4980.00 5060.84 70.57
5666 83.3126 4930.00 5053.70 70.21
5667 83.3259 5083.00 5045.98 71.30
5668 83.3392 4977.00 5037.73 70.55
5669 83.3525 4968.00 5028.95 70.48
5670 83.3658 4930.00 5019.67 70.21
5671 83.3791 4897.00 5009.89 69.98
5672 83.3924 4971.00 4999.66 70.51
5673 83.4057 5032.00 4989.02 70.94
5674 83.4190 4995.00 4978.01 70.68
5675 83.4323 4937.00 4966.66 70.26
5676 83.4456 4906.00 4955.04 70.04
5677 83.4589 5008.00 4943.19 70.77
5678 83.4722 4950.00 4931.17 70.36
5679 83.4855 4935.00 4919.02 70.25
5680 83.4988 4726.00 4906.81 68.75
5681 83.5121 4925.00 4894.58 70.18
5682 83.5254 4723.00 4882.63 68.72
5683 83.5387 4698.00 4870.50 68.54
5684 83.5520 4717.00 4858.48 68.68
5685 83.5653 4844.00 4846.61 69.60
5686 83.5786 4889.00 4834.91 69.92
5687 83.5919 4756.00 4823.41 68.96
5688 83.6052 4874.00 4812.16 69.81
5689 83.6185 4814.00 4801.15 69.38
5690 83.6318 4767.00 4790.43 69.04
5691 83.6451 4739.00 4780.00 68.84
5692 83.6584 4777.00 4769.89 69.12
5693 83.6717 4730.00 4760.22 68.78
5694 83.6850 4680.00 4750.79 68.41
5695 83.6983 4635.00 4741.71 68.08
5696 83.7116 4795.00 4733.01 69.25
5697 83.7249 4726.00 4725.55 68.75
5698 83.7382 4700.00 4717.62 68.56
5699 83.7515 4645.00 4710.11 68.15
5700 83.7648 4661.00 4703.01 68.27
5701 83.7781 4723.00 4696.34 68.72
5702 83.7914 4790.00 4690.10 69.21
5703 83.8047 4695.00 4684.32 68.52
5704 83.8180 4707.00 4678.99 68.61
5705 83.8313 4773.00 4674.14 69.09
5706 83.8446 4717.00 4669.76 68.68
5707 83.8579 4650.00 4665.88 68.19
5708 83.8711 4672.00 4662.54 68.35
5709 83.8844 4604.00 4659.68 67.85
5710 83.8977 4593.00 4657.34 67.77
5711 83.9110 4716.00 4655.55 68.67
5712 83.9243 4685.00 4654.29 68.45
5713 83.9376 4731.00 4653.60 68.78
5714 83.9509 4694.00 4653.47 68.51
5715 83.9642 4640.00 4653.90 68.12
5716 83.9775 4728.00 4654.89 68.76
5717 83.9908 4758.00 4656.75 68.98
5718 84.0041 4700.00 4658.88 68.56
5719 84.0174 4548.00 4661.56 67.44
5720 84.0307 4733.00 4664.80 68.80
5721 84.0440 4669.00 4668.58 68.33
5722 84.0573 4680.00 4672.88 68.41
5723 84.0706 4732.00 4677.67 68.79
5724 84.0839 4725.00 4682.93 68.74
5725 84.0972 4561.00 4688.65 67.54
5726 84.1105 4677.00 4694.77 68.39
5727 84.1238 4621.00 4701.27 67.98
5728 84.1371 4530.00 4708.10 67.31
5729 84.1504 4760.00 4715.20 68.99
5730 84.1637 4559.00 4722.54 67.52
5731 84.1770 4653.00 4730.04 68.21
5732 84.1903 4663.00 4737.65 68.29
5733 84.2036 4651.00 4745.30 68.20
5734 84.2169 4648.00 4752.94 68.18
5735 84.2302 4646.00 4760.51 68.16
5736 84.2435 4559.00 4768.08 67.52
5737 84.2568 4789.00 4775.33 69.20
5738 84.2701 4641.00 4782.36 68.12
5739 84.2834 4577.00 4789.13 67.65
5740 84.2967 4655.00 4795.64 68.23
5741 84.3100 4661.00 4801.85 68.27
5742 84.3233 4720.00 4807.76 68.70
5743 84.3366 4608.00 4813.38 67.88
5744 84.3499 4769.00 4818.70 69.06
5745 84.3632 4731.00 4823.71 68.78
5746 84.3765 4613.00 4828.40 67.92
5747 84.3898 4699.00 4832.73 68.55
5748 84.4031 4630.00 4836.68 68.04
5749 84.4164 4725.00 4840.20 68.74
5750 84.4297 4685.00 4843.22 68.45
5751 84.4430 4713.00 4845.66 68.65
5752 84.4563 4796.00 4847.46 69.25
5753 84.4696 4736.00 4848.53 68.82
5754 84.4829 4719.00 4848.78 68.69
5755 84.4962 4822.00 4848.13 69.44
5756 84.5095 4867.00 4846.54 69.76
5757 84.5228 4897.00 4843.90 69.98
5758 84.5361 4698.00 4840.29 68.54
5759 84.5494 4812.00 4835.66 69.37
5760 84.5627 4814.00 4829.93 69.38
5761 84.5760 4806.00 4823.36 69.33
5762 84.5893 4953.00 4815.93 70.38
5763 84.6026 4803.00 4807.72 69.30
5764 84.6159 4752.00 4798.83 68.93
5765 84.6292 4627.00 4789.64 68.02
5766 84.6425 4667.00 4779.69 68.32
5767 84.6558 4703.00 4769.36 68.58
5768 84.6691 4659.00 4758.73 68.26
5769 84.6824 4826.00 4747.84 69.47
5770 84.6957 4837.00 4736.77 69.55
5771 84.7090 4648.00 4725.55 68.18
5772 84.7223 4838.00 4714.20 69.56
5773 84.7356 4763.00 4702.74 69.01
5774 84.7489 4693.00 4691.17 68.51
5775 84.7622 4593.00 4679.52 67.77
5776 84.7755 4614.00 4667.76 67.93
5777 84.7888 4702.00 4655.89 68.57
5778 84.8021 4689.00 4643.97 68.48
5779 84.8154 4707.00 4631.97 68.61
5780 84.8287 4669.00 4619.88 68.33
5781 84.8420 4702.00 4607.83 68.57
5782 84.8553 4671.00 4595.81 68.34
5783 84.8686 4568.00 4583.84 67.59
5784 84.8819 4637.00 4571.97 68.10
5785 84.8952 4412.00 4560.23 66.42
5786 84.9085 4589.00 4548.68 67.74
5787 84.9218 4539.00 4537.34 67.37
5788 84.9351 4566.00 4526.24 67.57
5789 84.9484 4468.00 4515.42 66.84
5790 84.9617 4454.00 4504.90 66.74
5791 84.9750 4530.00 4494.69 67.31
5792 84.9883 4550.00 4484.80 67.45
5793 85.0016 4526.00 4475.24 67.28
5794 85.0149 4489.00 4466.02 67.00
5795 85.0282 4390.00 4457.13 66.26
5796 85.0415 4254.00 4448.56 65.22
5797 85.0548 4470.00 4440.32 66.86
5798 85.0681 4591.00 4432.39 67.76
5799 85.0814 4407.00 4424.78 66.39
5800 85.0947 4389.00 4417.45 66.25
5801 85.1080 4390.00 4410.41 66.26
5802 85.1213 4360.00 4404.11 66.03
5803 85.1346 4311.00 4397.61 65.66
5804 85.1479 4338.00 4391.35 65.86
5805 85.1612 4263.00 4385.34 65.29
5806 85.1745 4351.00 4379.55 65.96
5807 85.1878 4426.00 4373.98 66.53
5808 85.2011 4363.00 4368.79 66.05
5809 85.2144 4242.00 4363.62 65.13
5810 85.2277 4300.00 4358.63 65.57
5811 85.2410 4389.00 4353.82 66.25
5812 85.2543 4221.00 4349.09 64.97
5813 85.2676 4340.00 4344.61 65.88
5814 85.2809 4427.00 4340.28 66.54
5815 85.2942 4311.00 4336.08 65.66
5816 85.3075 4462.00 4332.03 66.80
5817 85.3208 4254.00 4328.10 65.22
5818 85.3341 4300.00 4324.29 65.57
5819 85.3474 4322.00 4320.59 65.74
5820 85.3607 4368.00 4317.00 66.09
5821 85.3740 4199.00 4313.51 64.80
5822 85.3873 4281.00 4310.11 65.43
5823 85.4005 4329.00 4306.83 65.80
5824 85.4138 4315.00 4303.60 65.69
5825 85.4271 4267.00 4300.46 65.32
5826 85.4404 4334.00 4297.40 65.83
5827 85.4537 4173.00 4294.40 64.60
5828 85.4670 4382.00 4292.10 66.20
5829 85.4803 4290.00 4289.25 65.50
5830 85.4936 4322.00 4286.46 65.74
5831 85.5069 4401.00 4283.69 66.34
5832 85.5202 4426.00 4281.03 66.53
5833 85.5335 4216.00 4278.43 64.93
5834 85.5468 4245.00 4275.89 65.15
5835 85.5601 4232.00 4273.40 65.05
5836 85.5734 4338.00 4270.98 65.86
5837 85.5867 4280.00 4268.60 65.42
5838 85.6000 4333.00 4266.29 65.83
5839 85.6133 4273.00 4264.04 65.37
5840 85.6266 4248.00 4261.84 65.18
5841 85.6399 4242.00 4259.71 65.13
5842 85.6532 4304.00 4257.59 65.60
5843 85.6665 4311.00 4255.58 65.66
5844 85.6798 4157.00 4253.63 64.47
5845 85.6931 4285.00 4251.75 65.46
5846 85.7064 4312.00 4249.94 65.67
5847 85.7197 4333.00 4248.29 65.83
5848 85.7330 4235.00 4246.62 65.08
5849 85.7463 4251.00 4245.04 65.20
5850 85.7596 4159.00 4243.53 64.49
5851 85.7729 4363.00 4242.11 66.05
5852 85.7862 4130.00 4240.78 64.27
5853 85.7995 4274.00 4239.58 65.38
5854 85.8128 4262.00 4238.45 65.28
5855 85.8261 4281.00 4237.43 65.43
5856 85.8394 4373.00 4236.53 66.13
5857 85.8527 4309.00 4235.75 65.64
5858 85.8660 4347.00 4235.10 65.93
5859 85.8793 4241.00 4234.89 65.12
5860 85.8926 4309.00 4234.53 65.64
5861 85.9059 4301.00 4234.33 65.58
5862 85.9192 4270.00 4234.28 65.35
5863 85.9325 4145.00 4234.42 64.38
5864 85.9458 4403.00 4234.75 66.36
5865 85.9591 4173.00 4235.27 64.60
5866 85.9724 4319.00 4236.01 65.72
5867 85.9857 4316.00 4236.95 65.70
5868 85.9990 4279.00 4238.12 65.41
5869 86.0123 4380.00 4239.53 66.18
5870 86.0256 4277.00 4241.18 65.40
5871 86.0389 4277.00 4243.09 65.40
5872 86.0522 4321.00 4245.25 65.73
5873 86.0655 4289.00 4247.68 65.49
5874 86.0788 4229.00 4250.39 65.03
5875 86.0921 4348.00 4253.51 65.94
5876 86.1054 4173.00 4256.77 64.60
5877 86.1187 4204.00 4260.32 64.84
5878 86.1320 4213.00 4264.15 64.91
5879 86.1453 4394.00 4268.13 66.29
5880 86.1586 4400.00 4272.52 66.33
5881 86.1719 4242.00 4277.17 65.13
5882 86.1852 4299.00 4282.08 65.57
5883 86.1985 4349.00 4287.24 65.95
5884 86.2118 4237.00 4292.62 65.09
5885 86.2251 4325.00 4298.23 65.76
5886 86.2384 4242.00 4304.04 65.13
5887 86.2517 4394.00 4310.02 66.29
5888 86.2650 4273.00 4316.14 65.37
5889 86.2783 4439.00 4322.40 66.63
5890 86.2916 4343.00 4328.75 65.90
5891 86.3049 4377.00 4335.16 66.16
5892 86.3182 4341.00 4341.59 65.89
5893 86.3315 4428.00 4348.03 66.54
5894 86.3448 4334.00 4354.54 65.83
5895 86.3581 4336.00 4360.84 65.85
5896 86.3714 4392.00 4367.03 66.27
5897 86.3847 4373.00 4373.06 66.13
5898 86.3980 4409.00 4378.92 66.40
5899 86.4113 4430.00 4384.52 66.56
5900 86.4246 4436.00 4389.87 66.60
5901 86.4379 4396.00 4394.96 66.30
5902 86.4512 4306.00 4399.74 65.62
5903 86.4645 4345.00 4404.21 65.92
5904 86.4778 4341.00 4408.39 65.89
5905 86.4911 4206.00 4412.27 64.85
5906 86.5044 4429.00 4415.88 66.55
5907 86.5177 4419.00 4419.23 66.48
5908 86.5310 4405.00 4422.36 66.37
5909 86.5443 4400.00 4425.30 66.33
5910 86.5576 4326.00 4428.08 65.77
5911 86.5709 4239.00 4430.74 65.11
5912 86.5842 4381.00 4433.33 66.19
5913 86.5975 4322.00 4435.88 65.74
5914 86.6108 4186.00 4438.41 64.70
5915 86.6241 4414.00 4440.96 66.44
5916 86.6374 4240.00 4443.53 65.12
5917 86.6507 4355.00 4446.16 65.99
5918 86.6640 4284.00 4448.84 65.45
5919 86.6773 4358.00 4451.58 66.02
5920 86.6906 4390.00 4454.39 66.26
5921 86.7039 4456.00 4457.24 66.75
5922 86.7172 4418.00 4460.13 66.47
5923 86.7305 4422.00 4463.05 66.50
5924 86.7438 4432.00 4465.98 66.57
5925 86.7571 4430.00 4468.91 66.56
5926 86.7704 4329.00 4471.81 65.80
5927 86.7837 4237.00 4474.67 65.09
5928 86.7970 4359.00 4477.46 66.02
5929 86.8103 4387.00 4480.15 66.23
5930 86.8236 4256.00 4482.73 65.24
5931 86.8369 4438.00 4485.16 66.62
5932 86.8502 4434.00 4487.41 66.59
5933 86.8635 4370.00 4489.46 66.11
5934 86.8768 4480.00 4491.27 66.93
5935 86.8901 4408.00 4492.84 66.39
5936 86.9034 4296.00 4494.13 65.54
5937 86.9166 4470.00 4495.13 66.86
5938 86.9299 4437.00 4495.86 66.61
5939 86.9432 4402.00 4496.33 66.35
5940 86.9565 4422.00 4496.55 66.50
5941 86.9698 4506.00 4496.57 67.13
5942 86.9831 4386.00 4496.42 66.23
5943 86.9964 4409.00 4496.18 66.40
5944 87.0097 4363.00 4495.89 66.05
5945 87.0230 4465.00 4495.37 66.82
5946 87.0363 4362.00 4495.20 66.05
5947 87.0496 4423.00 4495.18 66.51
5948 87.0629 4547.00 4495.35 67.43
5949 87.0762 4562.00 4495.78 67.54
5950 87.0895 4392.00 4496.48 66.27
5951 87.1028 4265.00 4497.49 65.31
5952 87.1161 4441.00 4498.81 66.64
5953 87.1294 4486.00 4500.46 66.98
5954 87.1427 4443.00 4502.42 66.66
5955 87.1560 4400.00 4504.68 66.33
5956 87.1693 4408.00 4507.23 66.39
5957 87.1826 4447.00 4510.04 66.69
5958 87.1959 4428.00 4513.09 66.54
5959 87.2092 4390.00 4516.34 66.26
5960 87.2225 4597.00 4519.78 67.80
5961 87.2358 4541.00 4523.37 67.39
5962 87.2491 4477.00 4527.09 66.91
5963 87.2624 4507.00 4531.11 67.13
5964 87.2757 4445.00 4534.88 66.67
5965 87.2890 4463.00 4538.72 66.81
5966 87.3023 4662.00 4542.72 68.28
5967 87.3156 4591.00 4546.71 67.76
5968 87.3289 4561.00 4550.65 67.54
5969 87.3422 4561.00 4554.50 67.54
5970 87.3555 4485.00 4558.21 66.97
5971 87.3688 4524.00 4561.73 67.26
5972 87.3821 4540.00 4565.07 67.38
5973 87.3954 4580.00 4568.03 67.68
5974 87.4087 4600.00 4570.63 67.82
5975 87.4220 4675.00 4572.80 68.37
5976 87.4353 4566.00 4574.50 67.57
5977 87.4486 4556.00 4575.68 67.50
5978 87.4619 4518.00 4576.31 67.22
5979 87.4752 4727.00 4576.36 68.75
5980 87.4885 4569.00 4575.82 67.59
5981 87.5018 4444.00 4574.69 66.66
5982 87.5151 4538.00 4572.97 67.36
5983 87.5284 4640.00 4570.69 68.12
5984 87.5417 4617.00 4567.88 67.95
5985 87.5550 4626.00 4564.49 68.01
5986 87.5683 4805.00 4560.71 69.32
5987 87.5816 4561.00 4556.50 67.54
5988 87.5949 4664.00 4551.79 68.29
5989 87.6082 4585.00 4546.79 67.71
5990 87.6215 4560.00 4541.54 67.53
5991 87.6348 4434.00 4536.03 66.59
5992 87.6481 4684.00 4530.28 68.44
5993 87.6614 4626.00 4524.33 68.01
5994 87.6747 4493.00 4518.22 67.03
5995 87.6880 4394.00 4511.97 66.29
5996 87.7013 4543.00 4505.62 67.40
5997 87.7146 4459.00 4499.21 66.78
5998 87.7279 4571.00 4492.77 67.61
5999 87.7412 4439.00 4486.34 66.63
6000 87.7545 4421.00 4479.96 66.49
6001 87.7678 4491.00 4473.67 67.01
6002 87.7811 4656.00 4467.51 68.23
6003 87.7944 4464.00 4461.52 66.81
6004 87.8077 4511.00 4455.75 67.16
6005 87.8210 4451.00 4450.22 66.72
6006 87.8343 4414.00 4444.96 66.44
6007 87.8476 4541.00 4440.01 67.39
6008 87.8609 4464.00 4435.39 66.81
6009 87.8742 4383.00 4431.03 66.20
6010 87.8875 4495.00 4427.05 67.04
6011 87.9008 4452.00 4423.44 66.72
6012 87.9141 4401.00 4420.15 66.34
6013 87.9274 4416.00 4417.17 66.45
6014 87.9407 4498.00 4414.47 67.07
6015 87.9540 4400.00 4412.01 66.33
6016 87.9673 4417.00 4409.75 66.46
6017 87.9806 4428.00 4407.65 66.54
6018 87.9939 4434.00 4405.65 66.59
6019 88.0072 4392.00 4403.69 66.27
6020 88.0205 4405.00 4401.71 66.37
6021 88.0338 4491.00 4399.65 67.01
6022 88.0471 4365.00 4397.44 66.07
6023 88.0604 4376.00 4395.02 66.15
6024 88.0737 4532.00 4392.33 67.32
6025 88.0870 4405.00 4389.32 66.37
6026 88.1003 4438.00 4385.95 66.62
6027 88.1136 4474.00 4382.20 66.89
6028 88.1269 4482.00 4378.05 66.95
6029 88.1402 4521.00 4373.51 67.24
6030 88.1535 4436.00 4368.58 66.60
6031 88.1668 4427.00 4363.29 66.54
6032 88.1801 4453.00 4357.68 66.73
6033 88.1934 4469.00 4351.78 66.85
6034 88.2067 4483.00 4345.65 66.96
6035 88.2200 4448.00 4339.23 66.69
6036 88.2333 4387.00 4332.76 66.23
6037 88.2466 4405.00 4326.18 66.37
6038 88.2599 4431.00 4319.52 66.57
6039 88.2732 4271.00 4312.81 65.35
6040 88.2865 4288.00 4306.05 65.48
6041 88.2998 4416.00 4299.24 66.45
6042 88.3131 4244.00 4292.44 65.15
6043 88.3264 4454.00 4285.60 66.74
6044 88.3397 4341.00 4278.74 65.89
6045 88.3530 4344.00 4271.83 65.91
6046 88.3663 4268.00 4264.88 65.33
6047 88.3796 4306.00 4257.89 65.62
6048 88.3929 4311.00 4250.85 65.66
6049 88.4062 4254.00 4243.77 65.22
6050 88.4195 4385.00 4236.68 66.22
6051 88.4328 4217.00 4229.58 64.94
6052 88.4460 4364.00 4222.55 66.06
6053 88.4593 4231.00 4215.51 65.05
6054 88.4726 4244.00 4208.55 65.15
6055 88.4859 4280.00 4201.71 65.42
6056 88.4992 4203.00 4194.88 64.83
6057 88.5125 4181.00 4188.33 64.66
6058 88.5258 4277.00 4181.97 65.40
6059 88.5391 4145.00 4175.83 64.38
6060 88.5524 4221.00 4169.92 64.97
6061 88.5657 4214.00 4164.02 64.92
6062 88.5790 4334.00 4158.62 65.83
6063 88.5923 4282.00 4153.52 65.44
6064 88.6056 4197.00 4148.70 64.78
6065 88.6189 3960.00 4144.16 62.93
6066 88.6322 4241.00 4139.91 65.12
6067 88.6455 4376.00 4135.95 66.15
6068 88.6588 4166.00 4132.28 64.54
6069 88.6721 4103.00 4128.88 64.05
6070 88.6854 4173.00 4125.77 64.60
6071 88.6987 4076.00 4122.93 63.84
6072 88.7120 4301.00 4120.56 65.58
6073 88.7253 4283.00 4118.26 65.44
6074 88.7386 4272.00 4116.23 65.36
6075 88.7519 4180.00 4114.45 64.65
6076 88.7652 4241.00 4112.77 65.12
6077 88.7785 4349.00 4111.50 65.95
6078 88.7918 4204.00 4110.46 64.84
6079 88.8051 4121.00 4109.67 64.19
6080 88.8184 4225.00 4109.11 65.00
6081 88.8317 4186.00 4108.79 64.70
6082 88.8450 4196.00 4108.57 64.78
6083 88.8583 4174.00 4108.72 64.61
6084 88.8716 4100.00 4109.09 64.03
6085 88.8849 4197.00 4109.70 64.78
6086 88.8982 4324.00 4110.53 65.76
6087 88.9115 4279.00 4111.60 65.41
6088 88.9248 4231.00 4112.90 65.05
6089 88.9381 4206.00 4114.44 64.85
6090 88.9514 4241.00 4116.21 65.12
6091 88.9647 4239.00 4118.23 65.11
6092 88.9780 4296.00 4120.49 65.54
6093 88.9913 4268.00 4123.00 65.33
6094 89.0046 4231.00 4125.77 65.05
6095 89.0179 4204.00 4128.79 64.84
6096 89.0312 4115.00 4133.07 64.15
6097 89.0445 4290.00 4136.66 65.50
6098 89.0578 4177.00 4140.48 64.63
6099 89.0711 4270.00 4144.56 65.35
6100 89.0844 4263.00 4148.93 65.29
6101 89.0977 4133.00 4153.57 64.29
6102 89.1110 4244.00 4158.49 65.15
6103 89.1243 4187.00 4163.68 64.71
6104 89.1376 4067.00 4169.15 63.77
6105 89.1509 4231.00 4174.88 65.05
6106 89.1642 4161.00 4180.89 64.51
6107 89.1775 4214.00 4187.14 64.92
6108 89.1908 4387.00 4193.66 66.23
6109 89.2041 4255.00 4200.40 65.23
6110 89.2174 4251.00 4207.36 65.20
6111 89.2307 4411.00 4214.52 66.42
6112 89.2440 4307.00 4221.86 65.63
6113 89.2573 4259.00 4229.34 65.26
6114 89.2706 4139.00 4236.96 64.34
6115 89.2839 4201.00 4244.69 64.82
6116 89.2972 4168.00 4252.48 64.56
6117 89.3105 4247.00 4260.29 65.17
6118 89.3238 4146.00 4268.09 64.39
6119 89.3371 4488.00 4275.85 66.99
6120 89.3504 4279.00 4283.51 65.41
6121 89.3637 4277.00 4291.03 65.40
6122 89.3770 4400.00 4298.37 66.33
6123 89.3903 4333.00 4305.50 65.83
6124 89.4036 4340.00 4312.34 65.88
6125 89.4169 4405.00 4318.90 66.37
6126 89.4302 4310.00 4325.10 65.65
6127 89.4435 4280.00 4330.95 65.42
6128 89.4568 4384.00 4336.41 66.21
6129 89.4701 4380.00 4341.47 66.18
6130 89.4834 4394.00 4346.11 66.29
6131 89.4967 4410.00 4350.34 66.41
6132 89.5100 4475.00 4354.17 66.90
6133 89.5233 4421.00 4357.59 66.49
6134 89.5366 4453.00 4360.63 66.73
6135 89.5499 4344.00 4363.30 65.91
6136 89.5632 4500.00 4365.62 67.08
6137 89.5765 4220.00 4367.59 64.96
6138 89.5898 4343.00 4369.26 65.90
6139 89.6031 4323.00 4370.58 65.75
6140 89.6164 4372.00 4371.57 66.12
6141 89.6297 4489.00 4372.23 67.00
6142 89.6430 4399.00 4372.57 66.32
6143 89.6563 4423.00 4372.56 66.51
6144 89.6696 4351.00 4372.22 65.96
6145 89.6829 4510.00 4371.52 67.16
6146 89.6962 4354.00 4370.46 65.98
6147 89.7095 4376.00 4369.04 66.15
6148 89.7228 4381.00 4367.26 66.19
6149 89.7361 4486.00 4365.12 66.98
6150 89.7494 4341.00 4362.65 65.89
6151 89.7627 4385.00 4359.86 66.22
6152 89.7760 4409.00 4356.78 66.40
6153 89.7893 4275.00 4353.43 65.38
6154 89.8026 4431.00 4349.86 66.57
6155 89.8159 4391.00 4346.11 66.26
6156 89.8292 4364.00 4342.21 66.06
6157 89.8425 4300.00 4338.19 65.57
6158 89.8558 4428.00 4334.11 66.54
6159 89.8691 4285.00 4330.08 65.46
6160 89.8824 4434.00 4325.97 66.59
6161 89.8957 4265.00 4321.88 65.31
6162 89.9090 4377.00 4317.85 66.16
6163 89.9223 4215.00 4313.90 64.92
6164 89.9356 4308.00 4310.05 65.64
6165 89.9489 4392.00 4306.33 66.27
6166 89.9621 4416.00 4302.78 66.45
6167 89.9754 4242.00 4299.36 65.13
6168 89.9887 4338.00 4296.11 65.86
6169 90.0020 4305.00 4293.04 65.61
6170 90.0153 4447.00 4290.17 66.69
6171 90.0286 4290.00 4287.51 65.50
6172 90.0419 4294.00 4285.06 65.53
6173 90.0552 4274.00 4283.40 65.38
6174 90.0685 4289.00 4281.41 65.49
6175 90.0818 4277.00 4279.65 65.40
6176 90.0951 4250.00 4278.12 65.19
6177 90.1084 4258.00 4276.83 65.25
6178 90.1217 4258.00 4275.75 65.25
6179 90.1350 4417.00 4274.90 66.46
6180 90.1483 4403.00 4274.26 66.36
6181 90.1616 4240.00 4273.80 65.12
6182 90.1749 4305.00 4273.52 65.61
6183 90.1882 4275.00 4273.40 65.38
6184 90.2015 4326.00 4273.42 65.77
6185 90.2148 4195.00 4273.55 64.77
6186 90.2281 4216.00 4273.78 64.93
6187 90.2414 4316.00 4274.07 65.70
6188 90.2547 4260.00 4274.41 65.27
6189 90.2680 4325.00 4274.75 65.76
6190 90.2813 4333.00 4275.09 65.83
6191 90.2946 4352.00 4275.37 65.97
6192 90.3079 4290.00 4275.58 65.50
6193 90.3212 4224.00 4275.68 64.99
6194 90.3345 4379.00 4275.63 66.17
6195 90.3478 4212.00 4275.40 64.90
6196 90.3611 4274.00 4274.96 65.38
6197 90.3744 4187.00 4274.27 64.71
6198 90.3877 4381.00 4273.29 66.19
6199 90.4010 4244.00 4272.00 65.15
6200 90.4143 4241.00 4270.37 65.12
6201 90.4276 4354.00 4268.37 65.98
6202 90.4409 4308.00 4265.99 65.64
6203 90.4542 4272.00 4263.22 65.36
6204 90.4675 4313.00 4260.05 65.67
6205 90.4808 4294.00 4256.49 65.53
6206 90.4941 4248.00 4252.54 65.18
6207 90.5074 4194.00 4248.23 64.76
6208 90.5207 4306.00 4243.58 65.62
6209 90.5340 4278.00 4238.59 65.41
6210 90.5473 4078.00 4233.33 63.86
6211 90.5606 4269.00 4227.79 65.34
6212 90.5739 4156.00 4222.02 64.47
6213 90.5872 4272.00 4216.03 65.36
6214 90.6005 4131.00 4209.88 64.27
6215 90.6138 4179.00 4203.56 64.65
6216 90.6271 4193.00 4197.10 64.75
6217 90.6404 4285.00 4190.52 65.46
6218 90.6537 4208.00 4183.83 64.87
6219 90.6670 4055.00 4177.04 63.68
6220 90.6803 4136.00 4170.25 64.31
6221 90.6936 4250.00 4163.29 65.19
6222 90.7069 4190.00 4156.28 64.73
6223 90.7202 4113.00 4149.20 64.13
6224 90.7335 4187.00 4142.07 64.71
6225 90.7468 4047.00 4134.90 63.62
6226 90.7601 4111.00 4127.71 64.12
6227 90.7734 3977.00 4120.51 63.06
6228 90.7867 4160.00 4113.32 64.50
6229 90.8000 4121.00 4106.16 64.19
6230 90.8133 4100.00 4099.04 64.03
6231 90.8266 4075.00 4092.00 63.84
6232 90.8399 4007.00 4085.05 63.30
6233 90.8532 3980.00 4078.22 63.09
6234 90.8665 4083.00 4071.52 63.90
6235 90.8798 4065.00 4064.98 63.76
6236 90.8931 4025.00 4058.61 63.44
6237 90.9064 4083.00 4052.43 63.90
6238 90.9197 4099.00 4046.46 64.02
6239 90.9330 3990.00 4040.71 63.17
6240 90.9463 3937.00 4035.18 62.75
6241 90.9596 4011.00 4029.92 63.33
6242 90.9729 4008.00 4024.88 63.31
6243 90.9862 4013.00 4020.08 63.35
6244 90.9995 4089.00 4015.52 63.95
6245 91.0128 3944.00 4011.21 62.80
6246 91.0261 3894.00 4007.18 62.40
6247 91.0394 3959.00 4003.19 62.92
6248 91.0527 3955.00 3999.67 62.89
6249 91.0660 4001.00 3996.41 63.25
6250 91.0793 3945.00 3993.42 62.81
6251 91.0926 3966.00 3990.68 62.98
6252 91.1059 4006.00 3988.20 63.29
6253 91.1192 4177.00 3985.98 64.63
6254 91.1325 3905.00 3984.03 62.49
6255 91.1458 4027.00 3982.33 63.46
6256 91.1591 3988.00 3980.90 63.15
6257 91.1724 3976.00 3979.72 63.06
6258 91.1857 3814.00 3978.81 61.76
6259 91.1990 4139.00 3978.15 64.34
6260 91.2123 4020.00 3977.76 63.40
6261 91.2256 3983.00 3977.62 63.11
6262 91.2389 3947.00 3977.74 62.83
6263 91.2522 3944.00 3978.09 62.80
6264 91.2655 3849.00 3978.72 62.04
6265 91.2788 3923.00 3979.60 62.63
6266 91.2921 3902.00 3980.72 62.47
6267 91.3054 3956.00 3982.10 62.90
6268 91.3187 3799.00 3983.59 61.64
6269 91.3320 3960.00 3985.42 62.93
6270 91.3453 4005.00 3987.46 63.29
6271 91.3586 3910.00 3989.71 62.53
6272 91.3719 3938.00 3992.15 62.75
6273 91.3852 3904.00 3994.78 62.48
6274 91.3985 3921.00 3997.56 62.62
6275 91.4118 3966.00 4000.51 62.98
6276 91.4251 3874.00 4003.58 62.24
6277 91.4384 3951.00 4006.73 62.86
6278 91.4517 4077.00 4010.00 63.85
6279 91.4650 3918.00 4013.35 62.59
6280 91.4783 4010.00 4016.73 63.32
6281 91.4915 3896.00 4020.10 62.42
6282 91.5048 3930.00 4023.49 62.69
6283 91.5181 4008.00 4026.84 63.31
6284 91.5314 3871.00 4029.88 62.22
6285 91.5447 3849.00 4033.05 62.04
6286 91.5580 4008.00 4036.09 63.31
6287 91.5713 3977.00 4038.97 63.06
6288 91.5846 4027.00 4041.65 63.46
6289 91.5979 3999.00 4044.10 63.24
6290 91.6112 3958.00 4046.30 62.91
6291 91.6245 3893.00 4048.23 62.39
6292 91.6378 3887.00 4049.87 62.35
6293 91.6511 3914.00 4051.20 62.56
6294 91.6644 3902.00 4052.22 62.47
6295 91.6777 3979.00 4052.92 63.08
6296 91.6910 4048.00 4053.30 63.62
6297 91.7043 3980.00 4053.39 63.09
6298 91.7176 3958.00 4053.18 62.91
6299 91.7309 4010.00 4052.68 63.32
6300 91.7442 4083.00 4051.94 63.90
6301 91.7575 3877.00 4050.97 62.27
6302 91.7708 3935.00 4049.79 62.73
6303 91.7841 3979.00 4048.42 63.08
6304 91.7974 3807.00 4046.87 61.70
6305 91.8107 4013.00 4045.25 63.35
6306 91.8240 3851.00 4043.41 62.06
6307 91.8373 3923.00 4041.33 62.63
6308 91.8506 3933.00 4039.25 62.71
6309 91.8639 3936.00 4037.05 62.74
6310 91.8772 3964.00 4034.75 62.96
6311 91.8905 3935.00 4032.34 62.73
6312 91.9038 3965.00 4029.84 62.97
6313 91.9171 3934.00 4027.24 62.72
6314 91.9304 3937.00 4024.55 62.75
6315 91.9437 3974.00 4021.77 63.04
6316 91.9570 3856.00 4018.90 62.10
6317 91.9703 4008.00 4015.97 63.31
6318 91.9836 3988.00 4012.96 63.15
6319 91.9969 3932.00 4009.91 62.71
6320 92.0102 3892.00 4007.31 62.39
6321 92.0235 4063.00 4004.15 63.74
6322 92.0368 3903.00 4001.04 62.47
6323 92.0501 3878.00 3997.94 62.27
6324 92.0634 3870.00 3994.87 62.21
6325 92.0767 3958.00 3991.85 62.91
6326 92.0900 4031.00 3988.89 63.49
6327 92.1033 3909.00 3986.02 62.52
6328 92.1166 4007.00 3983.24 63.30
6329 92.1299 4014.00 3980.58 63.36
6330 92.1432 3898.00 3978.03 62.43
6331 92.1565 4049.00 3975.62 63.63
6332 92.1698 4069.00 3973.36 63.79
6333 92.1831 4036.00 3971.26 63.53
6334 92.1964 3884.00 3969.31 62.32
6335 92.2097 4029.00 3967.54 63.47
6336 92.2230 3967.00 3965.95 62.98
6337 92.2363 4010.00 3964.55 63.32
6338 92.2496 3937.00 3963.35 62.75
6339 92.2629 4014.00 3962.36 63.36
6340 92.2762 3962.00 3961.29 62.94
6341 92.2895 3978.00 3960.68 63.07
6342 92.3028 3909.00 3960.32 62.52
6343 92.3161 4025.00 3960.23 63.44
6344 92.3294 4051.00 3960.35 63.65
6345 92.3427 3978.00 3960.75 63.07
6346 92.3560 3989.00 3961.41 63.16
6347 92.3693 3978.00 3962.34 63.07
6348 92.3826 3969.00 3963.54 63.00
6349 92.3959 3934.00 3965.03 62.72
6350 92.4092 3942.00 3966.81 62.79
6351 92.4225 3886.00 3968.89 62.34
6352 92.4358 4070.00 3971.28 63.80
6353 92.4491 4124.00 3973.99 64.22
6354 92.4624 3994.00 3977.01 63.20
6355 92.4757 3973.00 3980.37 63.03
6356 92.4890 4031.00 3984.06 63.49
6357 92.5023 4039.00 3988.10 63.55
6358 92.5156 4032.00 3992.47 63.50
6359 92.5289 3884.00 3997.20 62.32
6360 92.5422 4017.00 4002.27 63.38
6361 92.5555 3977.00 4007.69 63.06
6362 92.5688 4135.00 4013.47 64.30
6363 92.5821 4181.00 4019.43 64.66
6364 92.5954 3958.00 4025.88 62.91
6365 92.6087 4026.00 4032.68 63.45
6366 92.6220 3981.00 4039.82 63.10
6367 92.6353 4036.00 4047.27 63.53
6368 92.6486 4087.00 4055.03 63.93
6369 92.6619 4159.00 4063.09 64.49
6370 92.6752 4073.00 4071.42 63.82
6371 92.6885 4153.00 4080.00 64.44
6372 92.7018 4225.00 4088.81 65.00
6373 92.7151 4210.00 4097.84 64.88
6374 92.7284 4128.00 4107.04 64.25
6375 92.7417 4098.00 4116.39 64.02
6376 92.7550 4174.00 4125.87 64.61
6377 92.7683 4112.00 4135.43 64.12
6378 92.7816 4060.00 4145.06 63.72
6379 92.7949 4147.00 4154.72 64.40
6380 92.8082 4151.00 4164.38 64.43
6381 92.8215 4270.00 4174.02 65.35
6382 92.8348 4205.00 4183.62 64.85
6383 92.8481 4092.00 4193.14 63.97
6384 92.8614 4150.00 4202.58 64.42
6385 92.8747 4218.00 4211.89 64.95
6386 92.8880 4184.00 4221.08 64.68
6387 92.9013 4209.00 4230.12 64.88
6388 92.9146 4135.00 4238.98 64.30
6389 92.9279 4215.00 4247.64 64.92
6390 92.9412 4183.00 4256.07 64.68
6391 92.9545 4081.00 4264.25 63.88
6392 92.9678 4219.00 4272.14 64.95
6393 92.9811 4229.00 4279.70 65.03
6394 92.9944 4290.00 4286.91 65.50
6395 93.0076 4346.00 4293.68 65.92
6396 93.0209 4341.00 4300.09 65.89
6397 93.0342 4224.00 4305.94 64.99
6398 93.0475 4309.00 4311.42 65.64
6399 93.0608 4402.00 4316.40 66.35
6400 93.0741 4340.00 4320.88 65.88
6401 93.0874 4372.00 4324.85 66.12
6402 93.1007 4320.00 4328.32 65.73
6403 93.1140 4305.00 4331.29 65.61
6404 93.1273 4423.00 4333.79 66.51
6405 93.1406 4364.00 4335.83 66.06
6406 93.1539 4340.00 4337.45 65.88
6407 93.1672 4288.00 4338.67 65.48
6408 93.1805 4257.00 4339.52 65.25
6409 93.1938 4366.00 4340.02 66.08
6410 93.2071 4434.00 4340.21 66.59
6411 93.2204 4329.00 4340.09 65.80
6412 93.2337 4323.00 4339.69 65.75
6413 93.2470 4369.00 4339.02 66.10
6414 93.2603 4407.00 4338.08 66.39
6415 93.2736 4405.00 4336.87 66.37
6416 93.2869 4350.00 4335.40 65.95
6417 93.3002 4270.00 4333.38 65.35
6418 93.3135 4279.00 4331.36 65.41
6419 93.3268 4315.00 4329.06 65.69
6420 93.3401 4488.00 4326.40 66.99
6421 93.3534 4352.00 4323.50 65.97
6422 93.3667 4328.00 4320.30 65.79
6423 93.3800 4396.00 4316.79 66.30
6424 93.3933 4326.00 4312.99 65.77
6425 93.4066 4318.00 4308.89 65.71
6426 93.4199 4383.00 4304.51 66.20
6427 93.4332 4275.00 4299.87 65.38
6428 93.4465 4297.00 4294.98 65.55
6429 93.4598 4417.00 4289.87 66.46
6430 93.4731 4367.00 4284.56 66.08
6431 93.4864 4374.00 4279.07 66.14
6432 93.4997 4329.00 4273.43 65.80
6433 93.5130 4342.00 4267.68 65.89
6434 93.5263 4263.00 4261.82 65.29
6435 93.5396 4249.00 4255.89 65.18
6436 93.5529 4230.00 4249.92 65.04
6437 93.5662 4304.00 4243.94 65.60
6438 93.5795 4131.00 4237.95 64.27
6439 93.5928 4295.00 4231.98 65.54
6440 93.6061 4279.00 4225.91 65.41
6441 93.6194 4254.00 4220.04 65.22
6442 93.6327 4260.00 4214.24 65.27
6443 93.6460 4354.00 4208.52 65.98
6444 93.6593 4196.00 4202.90 64.78
6445 93.6726 4099.00 4197.39 64.02
6446 93.6859 4194.00 4192.00 64.76
6447 93.6992 4180.00 4186.74 64.65
6448 93.7125 4084.00 4181.61 63.91
6449 93.7258 4254.00 4176.63 65.22
6450 93.7391 4132.00 4171.79 64.28
6451 93.7524 4084.00 4166.95 63.91
6452 93.7657 4168.00 4162.45 64.56
6453 93.7790 4110.00 4158.54 64.11
6454 93.7923 4143.00 4154.40 64.37
6455 93.8056 4196.00 4150.47 64.78
6456 93.8189 4143.00 4146.74 64.37
6457 93.8322 4094.00 4143.23 63.98
6458 93.8455 4187.00 4139.94 64.71
6459 93.8588 4132.00 4136.88 64.28
6460 93.8721 4115.00 4134.07 64.15
6461 93.8854 4126.00 4131.50 64.23
6462 93.8987 4186.00 4129.19 64.70
6463 93.9120 4038.00 4127.14 63.55
6464 93.9253 4068.00 4125.35 63.78
6465 93.9386 4132.00 4123.84 64.28
6466 93.9519 4095.00 4122.60 63.99
6467 93.9652 4077.00 4121.63 63.85
6468 93.9785 3992.00 4120.93 63.18
6469 93.9918 4118.00 4120.50 64.17
6470 94.0051 4086.00 4120.33 63.92
6471 94.0184 4034.00 4120.32 63.51
6472 94.0317 4033.00 4120.66 63.51
6473 94.0450 3953.00 4121.24 62.87
6474 94.0583 3974.00 4121.96 63.04
6475 94.0716 3997.00 4122.99 63.22
6476 94.0849 4157.00 4124.21 64.47
6477 94.0982 4076.00 4125.62 63.84
6478 94.1115 4067.00 4127.21 63.77
6479 94.1248 3996.00 4128.93 63.21
6480 94.1381 3999.00 4130.79 63.24
6481 94.1514 4067.00 4132.75 63.77
6482 94.1647 4140.00 4134.80 64.34
6483 94.1780 4193.00 4136.91 64.75
6484 94.1913 4023.00 4139.05 63.43
6485 94.2046 4019.00 4141.21 63.40
6486 94.2179 4115.00 4143.36 64.15
6487 94.2312 4164.00 4145.48 64.53
6488 94.2445 4121.00 4147.53 64.19
6489 94.2578 4049.00 4149.51 63.63
6490 94.2711 4134.00 4151.39 64.30
6491 94.2844 4053.00 4153.10 63.66
6492 94.2977 4051.00 4156.15 63.65
6493 94.3110 4143.00 4157.71 64.37
6494 94.3243 4202.00 4158.93 64.82
6495 94.3376 4172.00 4160.00 64.59
6496 94.3509 4104.00 4160.86 64.06
6497 94.3642 4065.00 4161.50 63.76
6498 94.3775 4094.00 4161.90 63.98
6499 94.3908 4057.00 4162.06 63.69
6500 94.4041 4075.00 4161.96 63.84
6501 94.4174 4139.00 4161.60 64.34
6502 94.4307 4071.00 4160.97 63.80
6503 94.4440 4226.00 4160.08 65.01
6504 94.4573 4146.00 4158.92 64.39
6505 94.4706 4077.00 4157.49 63.85
6506 94.4839 4133.00 4155.81 64.29
6507 94.4972 4127.00 4153.87 64.24
6508 94.5105 4162.00 4151.91 64.51
6509 94.5238 4046.00 4149.48 63.61
6510 94.5370 4206.00 4146.85 64.85
6511 94.5503 3956.00 4143.99 62.90
6512 94.5636 4141.00 4140.92 64.35
6513 94.5769 4167.00 4137.65 64.55
6514 94.5902 3980.00 4134.19 63.09
6515 94.6035 4115.00 4130.57 64.15
6516 94.6168 4136.00 4126.79 64.31
6517 94.6301 4208.00 4122.87 64.87
6518 94.6434 4109.00 4118.80 64.10
6519 94.6567 4071.00 4114.62 63.80
6520 94.6700 4010.00 4110.33 63.32
6521 94.6833 4058.00 4105.93 63.70
6522 94.6966 3967.00 4101.45 62.98
6523 94.7099 3948.00 4096.89 62.83
6524 94.7232 4186.00 4092.27 64.70
6525 94.7365 4113.00 4087.60 64.13
6526 94.7498 4069.00 4082.89 63.79
6527 94.7631 4134.00 4078.16 64.30
6528 94.7764 4068.00 4073.43 63.78
6529 94.7897 4101.00 4068.69 64.04
6530 94.8030 4073.00 4063.98 63.82
6531 94.8163 4120.00 4059.42 64.19
6532 94.8296 3931.00 4054.67 62.70
6533 94.8429 4096.00 4050.12 64.00
6534 94.8562 4030.00 4045.65 63.48
6535 94.8695 4120.00 4041.28 64.19
6536 94.8828 4039.00 4037.02 63.55
6537 94.8961 4064.00 4032.82 63.75
6538 94.9094 4016.00 4028.82 63.37
6539 94.9227 3971.00 4025.05 63.02
6540 94.9360 4049.00 4021.34 63.63
6541 94.9493 4047.00 4017.81 63.62
6542 94.9626 4130.00 4014.45 64.27
6543 94.9759 3899.00 4011.26 62.44
6544 94.9892 4165.00 4008.27 64.54
6545 95.0025 4047.00 4005.46 63.62
6546 95.0158 3935.00 4002.86 62.73
6547 95.0291 4020.00 4000.45 63.40
6548 95.0424 4041.00 3998.24 63.57
6549 95.0557 3976.00 3996.23 63.06
6550 95.0690 4012.00 3994.43 63.34
6551 95.0823 4002.00 3992.82 63.26
6552 95.0956 4075.00 3991.41 63.84
6553 95.1089 4071.00 3990.20 63.80
6554 95.1222 3972.00 3989.19 63.02
6555 95.1355 4055.00 3988.29 63.68
6556 95.1488 3998.00 3987.64 63.23
6557 95.1621 4009.00 3987.17 63.32
6558 95.1754 4109.00 3986.87 64.10
6559 95.1887 4039.00 3986.74 63.55
6560 95.2020 4072.00 3986.73 63.81
6561 95.2153 3989.00 3986.90 63.16
6562 95.2286 4101.00 3987.35 64.04
6563 95.2419 4187.00 3987.79 64.71
6564 95.2552 3928.00 3988.36 62.67
6565 95.2685 4229.00 3989.04 65.03
6566 95.2818 3971.00 3989.82 63.02
6567 95.2951 3978.00 3990.70 63.07
6568 95.3084 3979.00 3991.67 63.08
6569 95.3217 4003.00 3992.73 63.27
6570 95.3350 4016.00 3993.85 63.37
6571 95.3483 4034.00 3995.05 63.51
6572 95.3616 4036.00 3996.32 63.53
6573 95.3749 4244.00 3997.65 65.15
6574 95.3882 4164.00 3999.05 64.53
6575 95.4015 4002.00 4000.52 63.26
6576 95.4148 4115.00 4002.06 64.15
6577 95.4281 4056.00 4003.68 63.69
6578 95.4414 4074.00 4005.39 63.83
6579 95.4547 4080.00 4007.19 63.87
6580 95.4680 4016.00 4009.10 63.37
6581 95.4813 4127.00 4011.13 64.24
6582 95.4946 4114.00 4013.29 64.14
6583 95.5079 3939.00 4015.58 62.76
6584 95.5212 4058.00 4018.02 63.70
6585 95.5345 3980.00 4020.69 63.09
6586 95.5478 4081.00 4023.44 63.88
6587 95.5611 4082.00 4026.34 63.89
6588 95.5744 4098.00 4029.39 64.02
6589 95.5877 4023.00 4032.60 63.43
6590 95.6010 3975.00 4035.95 63.05
6591 95.6143 4104.00 4039.43 64.06
6592 95.6276 4019.00 4043.04 63.40
6593 95.6409 4012.00 4046.75 63.34
6594 95.6542 4076.00 4050.55 63.84
6595 95.6675 4048.00 4054.42 63.62
6596 95.6808 4117.00 4058.34 64.16
6597 95.6941 4054.00 4062.28 63.67
6598 95.7074 4159.00 4066.23 64.49
6599 95.7207 4142.00 4070.15 64.36
6600 95.7340 4137.00 4074.03 64.32
6601 95.7473 4133.00 4077.83 64.29
6602 95.7606 4044.00 4081.52 63.59
6603 95.7739 4148.00 4085.09 64.40
6604 95.7872 4113.00 4088.50 64.13
6605 95.8005 4051.00 4091.79 63.65
6606 95.8138 4193.00 4094.80 64.75
6607 95.8271 4132.00 4097.58 64.28
6608 95.8404 4132.00 4100.11 64.28
6609 95.8537 4163.00 4102.36 64.52
6610 95.8670 4148.00 4104.31 64.40
6611 95.8803 4170.00 4105.96 64.58
6612 95.8936 4141.00 4107.30 64.35
6613 95.9069 4111.00 4108.33 64.12
6614 95.9202 4042.00 4109.06 63.58
6615 95.9335 4155.00 4109.48 64.46
6616 95.9468 4110.00 4109.63 64.11
6617 95.9601 4125.00 4109.40 64.23
6618 95.9734 4183.00 4109.06 64.68
6619 95.9867 4088.00 4108.53 63.94
6620 96.0000 4098.00 4107.82 64.02
6621 96.0133 4274.00 4106.97 65.38
6622 96.0266 4192.00 4105.96 64.75
6623 96.0399 4053.00 4104.94 63.66
6624 96.0531 4182.00 4103.88 64.67
6625 96.0664 4015.00 4102.80 63.36
6626 96.0797 4122.00 4101.73 64.20
6627 96.0930 4219.00 4100.69 64.95
6628 96.1063 4136.00 4100.15 64.31
6629 96.1196 4158.00 4099.24 64.48
6630 96.1329 4196.00 4098.42 64.78
6631 96.1462 4090.00 4097.69 63.95
6632 96.1595 4051.00 4097.07 63.65
6633 96.1728 4006.00 4096.58 63.29
6634 96.1861 4138.00 4096.22 64.33
6635 96.1994 4183.00 4096.01 64.68
6636 96.2127 4096.00 4095.95 64.00
6637 96.2260 4014.00 4096.06 63.36
6638 96.2393 4122.00 4096.19 64.20
6639 96.2526 4117.00 4096.67 64.16
6640 96.2659 4183.00 4097.30 64.68
6641 96.2792 4121.00 4098.40 64.19
6642 96.2925 4129.00 4099.56 64.26
6643 96.3058 4099.00 4100.96 64.02
6644 96.3191 4045.00 4102.62 63.60
6645 96.3324 4105.00 4104.51 64.07
6646 96.3457 4187.00 4106.72 64.71
6647 96.3590 4083.00 4109.20 63.90
6648 96.3723 4138.00 4111.95 64.33
6649 96.3856 4126.00 4114.98 64.23
6650 96.3989 4084.00 4118.27 63.91
6651 96.4122 4200.00 4121.81 64.81
6652 96.4255 4164.00 4125.58 64.53
6653 96.4388 4179.00 4129.37 64.65
6654 96.4521 4197.00 4133.54 64.78
6655 96.4654 4233.00 4137.86 65.06
6656 96.4787 3964.00 4142.31 62.96
6657 96.4920 4231.00 4146.84 65.05
6658 96.5053 4191.00 4151.42 64.74
6659 96.5186 4136.00 4156.01 64.31
6660 96.5319 4039.00 4160.57 63.55
6661 96.5452 4180.00 4165.05 64.65
6662 96.5585 4282.00 4169.33 65.44
6663 96.5718 4117.00 4173.52 64.16
6664 96.5851 4216.00 4177.61 64.93
6665 96.5984 4107.00 4181.36 64.09
6666 96.6117 4222.00 4184.83 64.98
6667 96.6250 4207.00 4187.98 64.86
6668 96.6383 4327.00 4190.78 65.78
6669 96.6516 4282.00 4193.19 65.44
6670 96.6649 4351.00 4195.19 65.96
6671 96.6782 4221.00 4196.75 64.97
6672 96.6915 4102.00 4197.88 64.05
6673 96.7048 4310.00 4198.55 65.65
6674 96.7181 4156.00 4198.76 64.47
6675 96.7314 4127.00 4198.51 64.24
6676 96.7447 4100.00 4197.82 64.03
6677 96.7580 4285.00 4196.60 65.46
6678 96.7713 4207.00 4195.05 64.86
6679 96.7846 4213.00 4193.11 64.91
6680 96.7979 4178.00 4190.79 64.64
6681 96.8112 4092.00 4188.11 63.97
6682 96.8245 4221.00 4185.11 64.97
6683 96.8378 4225.00 4181.79 65.00
6684 96.8511 4164.00 4178.20 64.53
6685 96.8644 4208.00 4174.33 64.87
6686 96.8777 4164.00 4170.22 64.53
6687 96.8910 4183.00 4165.88 64.68
6688 96.9043 4245.00 4161.32 65.15
6689 96.9176 4194.00 4156.55 64.76
6690 96.9309 4241.00 4151.60 65.12
6691 96.9442 4198.00 4146.49 64.79
6692 96.9575 4103.00 4141.18 64.05
6693 96.9708 4079.00 4135.70 63.87
6694 96.9841 4146.00 4130.08 64.39
6695 96.9974 4035.00 4124.31 63.52
6696 97.0107 4010.00 4118.40 63.32
6697 97.0240 4044.00 4112.38 63.59
6698 97.0373 3965.00 4106.26 62.97
6699 97.0506 4028.00 4100.04 63.47
6700 97.0639 3998.00 4093.75 63.23
6701 97.0772 4091.00 4087.41 63.96
6702 97.0905 4165.00 4081.04 64.54
6703 97.1038 3977.00 4074.66 63.06
6704 97.1171 3972.00 4068.29 63.02
6705 97.1304 3976.00 4061.96 63.06
6706 97.1437 4145.00 4055.70 64.38
6707 97.1570 3994.00 4049.50 63.20
6708 97.1703 4077.00 4043.40 63.85
6709 97.1836 3984.00 4037.41 63.12
6710 97.1969 4028.00 4031.56 63.47
6711 97.2102 4098.00 4025.85 64.02
6712 97.2235 3807.00 4020.29 61.70
6713 97.2368 4005.00 4014.82 63.29
6714 97.2501 4099.00 4009.62 64.02
6715 97.2634 3920.00 4004.60 62.61
6716 97.2767 3981.00 3999.78 63.10
6717 97.2900 4038.00 3995.15 63.55
6718 97.3033 3945.00 3990.72 62.81
6719 97.3166 4039.00 3986.49 63.55
6720 97.3299 4023.00 3982.46 63.43
6721 97.3432 4080.00 3978.63 63.87
6722 97.3565 3934.00 3975.00 62.72
6723 97.3698 4083.00 3971.56 63.90
6724 97.3831 3978.00 3968.32 63.07
6725 97.3964 4067.00 3965.27 63.77
6726 97.4097 4134.00 3962.40 64.30
6727 97.4230 3995.00 3959.71 63.21
6728 97.4363 3996.00 3957.20 63.21
6729 97.4496 3928.00 3954.71 62.67
6730 97.4629 4157.00 3952.54 64.47
6731 97.4762 3934.00 3950.52 62.72
6732 97.4895 4054.00 3948.66 63.67
6733 97.5028 3971.00 3946.95 63.02
6734 97.5161 3893.00 3945.42 62.39
6735 97.5294 3998.00 3943.99 63.23
6736 97.5427 3794.00 3942.70 61.60
6737 97.5560 4018.00 3941.49 63.39
6738 97.5692 3953.00 3940.46 62.87
6739 97.5825 3885.00 3939.54 62.33
6740 97.5958 4052.00 3938.73 63.66
6741 97.6091 4021.00 3938.03 63.41
6742 97.6224 4069.00 3937.43 63.79
6743 97.6357 3995.00 3936.94 63.21
6744 97.6490 4023.00 3936.54 63.43
6745 97.6623 4156.00 3936.23 64.47
6746 97.6756 3907.00 3936.01 62.51
6747 97.6889 3928.00 3935.87 62.67
6748 97.7022 4025.00 3935.82 63.44
6749 97.7155 3872.00 3935.59 62.23
6750 97.7288 3908.00 3935.69 62.51
6751 97.7421 3977.00 3935.86 63.06
6752 97.7554 3991.00 3936.10 63.17
6753 97.7687 3951.00 3936.34 62.86
6754 97.7820 4015.00 3936.71 63.36
6755 97.7953 4001.00 3937.15 63.25
6756 97.8086 3985.00 3937.65 63.13
6757 97.8219 3983.00 3938.21 63.11
6758 97.8352 4053.00 3938.89 63.66
6759 97.8485 4077.00 3939.70 63.85
6760 97.8618 3958.00 3940.45 62.91
6761 97.8751 3973.00 3941.25 63.03
6762 97.8884 3980.00 3942.10 63.09
6763 97.9017 4089.00 3943.02 63.95
6764 97.9150 3942.00 3943.99 62.79
6765 97.9283 3876.00 3945.22 62.26
6766 97.9416 3994.00 3946.31 63.20
6767 97.9549 4054.00 3947.46 63.67
6768 97.9682 4038.00 3948.68 63.55
6769 97.9815 3968.00 3949.96 62.99
6770 97.9948 3965.00 3951.30 62.97
6771 98.0081 3924.00 3952.71 62.64
6772 98.0214 4096.00 3954.18 64.00
6773 98.0347 3990.00 3955.59 63.17
6774 98.0480 3949.00 3957.20 62.84
6775 98.0613 4073.00 3958.88 63.82
6776 98.0746 3836.00 3960.64 61.94
6777 98.0879 3963.00 3962.46 62.95
6778 98.1012 3885.00 3964.37 62.33
6779 98.1145 4025.00 3966.34 63.44
6780 98.1278 3967.00 3968.40 62.98
6781 98.1411 4072.00 3970.53 63.81
6782 98.1544 4052.00 3972.75 63.66
6783 98.1677 4024.00 3975.05 63.44
6784 98.1810 4142.00 3977.44 64.36
6785 98.1943 4162.00 3979.91 64.51
6786 98.2076 4138.00 3982.47 64.33
6787 98.2209 4026.00 3985.12 63.45
6788 98.2342 3956.00 3987.86 62.90
6789 98.2475 4134.00 3990.68 64.30
6790 98.2608 4094.00 3993.60 63.98
6791 98.2741 3974.00 3996.61 63.04
6792 98.2874 4034.00 3999.72 63.51
6793 98.3007 4065.00 4002.92 63.76
6794 98.3140 3930.00 4006.21 62.69
6795 98.3273 3915.00 4009.60 62.57
6796 98.3406 4128.00 4013.08 64.25
6797 98.3539 4008.00 4016.66 63.31
6798 98.3672 4020.00 4020.34 63.40
6799 98.3805 4028.00 4024.11 63.47
6800 98.3938 4045.00 4027.97 63.60
6801 98.4071 4042.00 4031.93 63.58
6802 98.4204 4077.00 4035.99 63.85
6803 98.4337 4087.00 4040.13 63.93
6804 98.4470 4145.00 4044.38 64.38
6805 98.4603 4109.00 4048.71 64.10
6806 98.4736 4070.00 4053.14 63.80
6807 98.4869 4071.00 4057.65 63.80
6808 98.5002 4061.00 4062.25 63.73
6809 98.5135 4049.00 4066.94 63.63
6810 98.5268 4124.00 4071.72 64.22
6811 98.5401 4014.00 4076.57 63.36
6812 98.5534 4016.00 4081.51 63.37
6813 98.5667 4146.00 4086.53 64.39
6814 98.5800 4210.00 4091.63 64.88
6815 98.5933 4151.00 4096.80 64.43
6816 98.6066 4235.00 4102.04 65.08
6817 98.6199 4116.00 4107.36 64.16
6818 98.6332 4122.00 4112.74 64.20
6819 98.6465 4159.00 4118.18 64.49
6820 98.6598 4084.00 4123.69 63.91
6821 98.6731 4109.00 4129.25 64.10
6822 98.6864 4255.00 4134.87 65.23
6823 98.6997 4176.00 4140.55 64.62
6824 98.7130 4140.00 4146.27 64.34
6825 98.7263 4182.00 4152.04 64.67
6826 98.7396 4217.00 4157.86 64.94
6827 98.7529 4158.00 4163.71 64.48
6828 98.7662 4225.00 4169.61 65.00
6829 98.7795 4242.00 4175.55 65.13
6830 98.7928 4125.00 4181.52 64.23
6831 98.8061 4183.00 4187.53 64.68
6832 98.8194 4177.00 4193.57 64.63
6833 98.8327 4201.00 4199.65 64.82
6834 98.8460 4183.00 4205.76 64.68
6835 98.8593 4341.00 4211.90 65.89
6836 98.8726 4250.00 4218.08 65.19
6837 98.8859 4049.00 4224.28 63.63
6838 98.8992 4157.00 4230.52 64.47
6839 98.9125 4168.00 4236.80 64.56
6840 98.9258 4235.00 4243.11 65.08
6841 98.9391 4195.00 4249.45 64.77
6842 98.9524 4134.00 4255.84 64.30
6843 98.9657 4156.00 4262.25 64.47
6844 98.9790 4159.00 4268.70 64.49
6845 98.9923 4261.00 4275.18 65.28
6846 99.0056 4179.00 4281.70 64.65
6847 99.0189 4258.00 4288.25 65.25
6848 99.0322 4219.00 4294.84 64.95
6849 99.0455 4322.00 4301.46 65.74
6850 99.0588 4284.00 4308.07 65.45
6851 99.0721 4324.00 4314.75 65.76
6852 99.0854 4375.00 4321.46 66.14
6853 99.0986 4252.00 4328.02 65.21
6854 99.1119 4329.00 4334.78 65.80
6855 99.1252 4393.00 4341.50 66.28
6856 99.1385 4251.00 4348.32 65.20
6857 99.1518 4227.00 4355.15 65.02
6858 99.1651 4294.00 4362.01 65.53
6859 99.1784 4376.00 4368.89 66.15
6860 99.1917 4343.00 4375.79 65.90
6861 99.2050 4344.00 4382.72 65.91
6862 99.2183 4394.00 4389.67 66.29
6863 99.2316 4403.00 4396.65 66.36
6864 99.2449 4403.00 4403.67 66.36
6865 99.2582 4246.00 4410.72 65.16
6866 99.2715 4424.00 4417.80 66.51
6867 99.2848 4411.00 4424.92 66.42
6868 99.2981 4405.00 4432.09 66.37
6869 99.3114 4531.00 4439.30 67.31
6870 99.3247 4349.00 4446.54 65.95
6871 99.3380 4417.00 4453.84 66.46
6872 99.3513 4501.00 4461.18 67.09
6873 99.3646 4615.00 4468.56 67.93
6874 99.3779 4400.00 4475.98 66.33
6875 99.3912 4352.00 4483.43 65.97
6876 99.4045 4372.00 4490.90 66.12
6877 99.4178 4524.00 4498.39 67.26
6878 99.4311 4488.00 4505.83 66.99
6879 99.4444 4382.00 4513.29 66.20
6880 99.4577 4478.00 4520.73 66.92
6881 99.4710 4430.00 4528.14 66.56
6882 99.4843 4443.00 4535.49 66.66
6883 99.4976 4444.00 4542.76 66.66
6884 99.5109 4566.00 4549.90 67.57
6885 99.5242 4401.00 4556.90 66.34
6886 99.5375 4314.00 4563.73 65.68
6887 99.5508 4532.00 4570.35 67.32
6888 99.5641 4459.00 4576.74 66.78
6889 99.5774 4386.00 4582.86 66.23
6890 99.5907 4416.00 4588.68 66.45
6891 99.6040 4459.00 4594.16 66.78
6892 99.6173 4536.00 4599.28 67.35
6893 99.6306 4507.00 4603.99 67.13
6894 99.6439 4459.00 4608.28 66.78
6895 99.6572 4550.00 4612.12 67.45
6896 99.6705 4550.00 4615.48 67.45
6897 99.6838 4600.00 4618.34 67.82
6898 99.6971 4606.00 4620.69 67.87
6899 99.7104 4530.00 4622.51 67.31
6900 99.7237 4640.00 4623.74 68.12
6901 99.7370 4593.00 4624.50 67.77
6902 99.7503 4494.00 4624.73 67.04
6903 99.7636 4661.00 4624.44 68.27
6904 99.7769 4605.00 4623.64 67.86
6905 99.7902 4474.00 4622.36 66.89
6906 99.8035 4574.00 4620.61 67.63
6907 99.8168 4478.00 4618.43 66.92
6908 99.8301 4769.00 4615.84 69.06
6909 99.8434 4454.00 4612.87 66.74
6910 99.8567 4495.00 4609.55 67.04
6911 99.8700 4474.00 4605.91 66.89
6912 99.8833 4509.00 4601.99 67.15
6913 99.8966 4526.00 4597.81 67.28
6914 99.9099 4495.00 4593.39 67.04
6915 99.9232 4445.00 4588.77 66.67
6916 99.9365 4474.00 4583.95 66.89
6917 99.9498 4565.00 4578.97 67.56
6918 99.9631 4528.00 4573.99 67.29
6919 99.9764 4528.00 4568.69 67.29
6920 99.9897 4448.00 4563.26 66.69
6921 100.0030 4415.00 4557.70 66.45
6922 100.0163 4466.00 4552.01 66.83
6923 100.0296 4509.00 4546.19 67.15
6924 100.0429 4442.00 4540.25 66.65
6925 100.0562 4490.00 4534.17 67.01
6926 100.0695 4505.00 4528.00 67.12
6927 100.0828 4579.00 4521.72 67.67
6928 100.0961 4452.00 4515.34 66.72
6929 100.1094 4434.00 4508.86 66.59
6930 100.1227 4430.00 4502.30 66.56
6931 100.1360 4398.00 4495.66 66.32
6932 100.1493 4449.00 4488.89 66.70
6933 100.1626 4343.00 4482.22 65.90
6934 100.1759 4324.00 4475.45 65.76
6935 100.1892 4360.00 4468.69 66.03
6936 100.2025 4461.00 4461.95 66.79
6937 100.2158 4476.00 4455.24 66.90
6938 100.2291 4420.00 4448.59 66.48
6939 100.2424 4274.00 4442.01 65.38
6940 100.2557 4404.00 4435.53 66.36
6941 100.2690 4364.00 4429.15 66.06
6942 100.2823 4342.00 4422.90 65.89
6943 100.2956 4283.00 4416.79 65.44
6944 100.3089 4375.00 4410.81 66.14
6945 100.3222 4346.00 4404.96 65.92
6946 100.3355 4234.00 4399.27 65.07
6947 100.3488 4290.00 4393.72 65.50
6948 100.3621 4264.00 4388.31 65.30
6949 100.3754 4288.00 4383.03 65.48
6950 100.3887 4413.00 4377.88 66.43
6951 100.4020 4332.00 4372.84 65.82
6952 100.4153 4259.00 4367.91 65.26
6953 100.4286 4340.00 4363.08 65.88
6954 100.4419 4277.00 4358.34 65.40
6955 100.4552 4287.00 4353.67 65.48
6956 100.4685 4332.00 4349.08 65.82
6957 100.4818 4275.00 4344.53 65.38
6958 100.4951 4232.00 4340.10 65.05
6959 100.5084 4366.00 4335.71 66.08
6960 100.5217 4256.00 4331.39 65.24
6961 100.5350 4323.00 4327.14 65.75
6962 100.5483 4267.00 4322.97 65.32
6963 100.5616 4291.00 4318.88 65.51
6964 100.5749 4406.00 4314.88 66.38
6965 100.5882 4408.00 4310.98 66.39
6966 100.6015 4312.00 4307.20 65.67
6967 100.6147 4274.00 4303.55 65.38
6968 100.6280 4405.00 4300.01 66.37
6969 100.6413 4294.00 4296.61 65.53
6970 100.6546 4261.00 4293.35 65.28
6971 100.6679 4301.00 4290.24 65.58
6972 100.6812 4271.00 4287.28 65.35
6973 100.6945 4226.00 4284.47 65.01
6974 100.7078 4248.00 4281.83 65.18
6975 100.7211 4278.00 4279.21 65.41
6976 100.7344 4190.00 4276.89 64.73
6977 100.7477 4292.00 4274.72 65.51
6978 100.7610 4266.00 4272.72 65.31
6979 100.7743 4277.00 4270.87 65.40
6980 100.7876 4243.00 4269.17 65.14
6981 100.8009 4252.00 4267.62 65.21
6982 100.8142 4226.00 4266.23 65.01
6983 100.8275 4361.00 4264.75 66.04
6984 100.8408 4268.00 4263.64 65.33
6985 100.8541 4337.00 4262.68 65.86
6986 100.8674 4367.00 4261.92 66.08
6987 100.8807 4249.00 4261.24 65.18
6988 100.8940 4154.00 4260.70 64.45
6989 100.9073 4300.00 4260.30 65.57
6990 100.9206 4180.00 4260.02 64.65
6991 100.9339 4340.00 4259.89 65.88
6992 100.9472 4279.00 4259.89 65.41
6993 100.9605 4188.00 4260.02 64.71
6994 100.9738 4175.00 4260.27 64.61
6995 100.9871 4327.00 4260.65 65.78
6996 101.0004 4314.00 4261.14 65.68
6997 101.0137 4226.00 4261.76 65.01
6998 101.0270 4371.00 4262.48 66.11
6999 101.0403 4190.00 4263.30 64.73
7000 101.0536 4247.00 4264.23 65.17
7001 101.0669 4216.00 4265.18 64.93
7002 101.0802 4283.00 4266.29 65.44
7003 101.0935 4237.00 4267.48 65.09
7004 101.1068 4249.00 4268.75 65.18
7005 101.1201 4253.00 4270.10 65.21
7006 101.1334 4374.00 4271.51 66.14
7007 101.1467 4225.00 4272.99 65.00
7008 101.1600 4294.00 4274.54 65.53
7009 101.1733 4305.00 4276.03 65.61
7010 101.1866 4313.00 4277.71 65.67
7011 101.1999 4270.00 4279.47 65.35
7012 101.2132 4294.00 4281.26 65.53
7013 101.2265 4405.00 4283.11 66.37
7014 101.2398 4341.00 4285.02 65.89
7015 101.2531 4329.00 4287.00 65.80
7016 101.2664 4317.00 4289.03 65.70
7017 101.2797 4323.00 4291.11 65.75
7018 101.2930 4422.00 4293.26 66.50
7019 101.3063 4301.00 4295.45 65.58
7020 101.3196 4420.00 4297.70 66.48
7021 101.3329 4426.00 4299.99 66.53
7022 101.3462 4343.00 4302.33 65.90
7023 101.3595 4371.00 4304.70 66.11
7024 101.3728 4437.00 4307.10 66.61
7025 101.3861 4432.00 4309.53 66.57
7026 101.3994 4432.00 4311.97 66.57
7027 101.4127 4341.00 4314.42 65.89
7028 101.4260 4399.00 4316.81 66.32
7029 101.4393 4423.00 4319.27 66.51
7030 101.4526 4391.00 4321.72 66.26
7031 101.4659 4360.00 4324.16 66.03
7032 101.4792 4260.00 4326.58 65.27
7033 101.4925 4448.00 4328.97 66.69
7034 101.5058 4384.00 4331.34 66.21
7035 101.5191 4352.00 4333.67 65.97
7036 101.5324 4485.00 4335.96 66.97
7037 101.5457 4394.00 4338.21 66.29
7038 101.5590 4375.00 4340.41 66.14
7039 101.5723 4364.00 4342.56 66.06
7040 101.5856 4361.00 4344.65 66.04
7041 101.5989 4258.00 4346.66 65.25
7042 101.6122 4258.00 4348.60 65.25
7043 101.6255 4458.00 4350.44 66.77
7044 101.6388 4309.00 4352.19 65.64
7045 101.6521 4423.00 4353.82 66.51
7046 101.6654 4322.00 4355.33 65.74
7047 101.6787 4348.00 4356.69 65.94
7048 101.6920 4351.00 4357.90 65.96
7049 101.7053 4325.00 4358.94 65.76
7050 101.7186 4259.00 4359.52 65.26
7051 101.7319 4345.00 4360.17 65.92
7052 101.7452 4291.00 4360.61 65.51
7053 101.7585 4315.00 4360.83 65.69
7054 101.7718 4356.00 4360.81 66.00
7055 101.7851 4258.00 4360.52 65.25
7056 101.7984 4311.00 4360.02 65.66
7057 101.8117 4349.00 4359.27 65.95
7058 101.8250 4294.00 4358.29 65.53
7059 101.8383 4306.00 4357.04 65.62
7060 101.8516 4236.00 4355.58 65.08
7061 101.8649 4371.00 4353.90 66.11
7062 101.8782 4324.00 4352.01 65.76
7063 101.8915 4372.00 4349.92 66.12
7064 101.9048 4340.00 4347.66 65.88
7065 101.9181 4305.00 4345.23 65.61
7066 101.9314 4244.00 4342.66 65.15
7067 101.9447 4336.00 4339.95 65.85
7068 101.9580 4310.00 4337.14 65.65
7069 101.9713 4235.00 4334.22 65.08
7070 101.9846 4242.00 4331.46 65.13
7071 101.9979 4248.00 4328.25 65.18
7072 102.0112 4158.00 4325.10 64.48
7073 102.0245 4312.00 4321.88 65.67
7074 102.0378 4347.00 4318.61 65.93
7075 102.0511 4131.00 4315.30 64.27
7076 102.0644 4306.00 4311.80 65.62
7077 102.0777 4207.00 4308.40 64.86
7078 102.0910 4364.00 4304.95 66.06
7079 102.1043 4227.00 4301.47 65.02
7080 102.1176 4192.00 4297.95 64.75
7081 102.1309 4277.00 4294.39 65.40
7082 102.1441 4310.00 4290.83 65.65
7083 102.1574 4331.00 4287.22 65.81
7084 102.1707 4264.00 4283.58 65.30
7085 102.1840 4251.00 4279.93 65.20
7086 102.1973 4205.00 4276.25 64.85
7087 102.2106 4296.00 4272.58 65.54
7088 102.2239 4186.00 4268.92 64.70
7089 102.2372 4282.00 4265.26 65.44
7090 102.2505 4251.00 4261.64 65.20
7091 102.2638 4365.00 4258.04 66.07
7092 102.2771 4304.00 4254.50 65.60
7093 102.2904 4409.00 4251.01 66.40
7094 102.3037 4178.00 4247.58 64.64
7095 102.3170 4369.00 4244.26 66.10
7096 102.3303 4294.00 4241.01 65.53
7097 102.3436 4214.00 4237.85 64.92
7098 102.3569 4295.00 4234.73 65.54
7099 102.3702 4177.00 4231.80 64.63
7100 102.3835 4328.00 4228.99 65.79
7101 102.3968 4316.00 4226.30 65.70
7102 102.4101 4319.00 4223.76 65.72
7103 102.4234 4288.00 4221.36 65.48
7104 102.4367 4194.00 4219.10 64.76
7105 102.4500 4278.00 4217.00 65.41
7106 102.4633 4156.00 4215.06 64.47
7107 102.4766 4242.00 4213.28 65.13
7108 102.4899 4406.00 4211.66 66.38
7109 102.5032 4267.00 4210.21 65.32
7110 102.5165 4189.00 4208.93 64.72
7111 102.5298 4163.00 4207.83 64.52
7112 102.5431 4250.00 4206.90 65.19
7113 102.5564 4320.00 4206.15 65.73
7114 102.5697 4362.00 4205.57 66.05
7115 102.5830 4273.00 4205.18 65.37
7116 102.5963 4275.00 4204.95 65.38
7117 102.6096 4330.00 4204.92 65.80
7118 102.6229 4293.00 4205.07 65.52
7119 102.6362 4259.00 4205.40 65.26
7120 102.6495 4301.00 4205.92 65.58
7121 102.6628 4256.00 4206.62 65.24
7122 102.6761 4312.00 4207.49 65.67
7123 102.6894 4335.00 4208.55 65.84
7124 102.7027 4405.00 4209.78 66.37
7125 102.7160 4246.00 4211.18 65.16
7126 102.7293 4170.00 4212.75 64.58
7127 102.7426 4256.00 4214.49 65.24
7128 102.7559 4118.00 4216.39 64.17
7129 102.7692 4282.00 4218.45 65.44
7130 102.7825 4275.00 4220.65 65.38
7131 102.7958 4176.00 4223.00 64.62
7132 102.8091 4228.00 4225.48 65.02
7133 102.8224 4380.00 4228.10 66.18
7134 102.8357 4259.00 4230.83 65.26
7135 102.8490 4268.00 4233.67 65.33
7136 102.8623 4396.00 4236.61 66.30
7137 102.8756 4285.00 4239.64 65.46
7138 102.8889 4235.00 4242.75 65.08
7139 102.9022 4345.00 4245.92 65.92
7140 102.9155 4260.00 4249.14 65.27
7141 102.9288 4354.00 4252.41 65.98
7142 102.9421 4302.00 4255.68 65.59
7143 102.9554 4306.00 4258.98 65.62
7144 102.9687 4189.00 4262.28 64.72
7145 102.9820 4240.00 4265.56 65.12
7146 102.9953 4220.00 4268.80 64.96
7147 103.0086 4460.00 4272.00 66.78
7148 103.0219 4411.00 4275.15 66.42
7149 103.0352 4460.00 4278.22 66.78
7150 103.0485 4442.00 4281.21 66.65
7151 103.0618 4374.00 4284.11 66.14
7152 103.0751 4401.00 4286.89 66.34
7153 103.0884 4294.00 4289.57 65.53
7154 103.1017 4354.00 4292.44 65.98
7155 103.1150 4352.00 4294.87 65.97
7156 103.1283 4310.00 4297.15 65.65
7157 103.1416 4277.00 4299.29 65.40
7158 103.1549 4451.00 4301.28 66.72
7159 103.1682 4489.00 4303.12 67.00
7160 103.1815 4412.00 4304.80 66.42
7161 103.1948 4342.00 4306.33 65.89
7162 103.2081 4476.00 4307.69 66.90
7163 103.2214 4461.00 4308.90 66.79
7164 103.2347 4346.00 4309.94 65.92
7165 103.2480 4321.00 4310.83 65.73
7166 103.2613 4375.00 4311.56 66.14
7167 103.2746 4464.00 4312.14 66.81
7168 103.2879 4566.00 4312.57 67.57
7169 103.3012 4377.00 4312.87 66.16
7170 103.3145 4326.00 4313.03 65.77
7171 103.3278 4469.00 4313.05 66.85
7172 103.3411 4349.00 4312.96 65.95
7173 103.3544 4360.00 4312.75 66.03
7174 103.3677 4406.00 4312.43 66.38
7175 103.3810 4327.00 4312.01 65.78
7176 103.3943 4291.00 4311.49 65.51
7177 103.4076 4263.00 4311.08 65.29
7178 103.4209 4488.00 4310.39 66.99
7179 103.4342 4407.00 4309.63 66.39
7180 103.4475 4285.00 4308.79 65.46
7181 103.4608 4374.00 4307.89 66.14
7182 103.4741 4316.00 4306.92 65.70
7183 103.4874 4340.00 4305.90 65.88
7184 103.5007 4333.00 4304.82 65.83
7185 103.5140 4407.00 4303.69 66.39
7186 103.5273 4373.00 4302.68 66.13
7187 103.5406 4433.00 4301.45 66.58
7188 103.5539 4241.00 4300.18 65.12
7189 103.5672 4364.00 4298.88 66.06
7190 103.5805 4408.00 4297.53 66.39
7191 103.5938 4302.00 4296.15 65.59
7192 103.6071 4279.00 4294.73 65.41
7193 103.6204 4356.00 4293.28 66.00
7194 103.6337 4273.00 4291.81 65.37
7195 103.6470 4215.00 4290.31 64.92
7196 103.6602 4304.00 4288.80 65.60
7197 103.6735 4292.00 4287.26 65.51
7198 103.6868 4216.00 4285.70 64.93
7199 103.7001 4281.00 4284.13 65.43
7200 103.7134 4222.00 4282.54 64.98
7201 103.7267 4369.00 4280.95 66.10
7202 103.7400 4248.00 4279.35 65.18
7203 103.7533 4412.00 4277.75 66.42
7204 103.7666 4338.00 4276.15 65.86
7205 103.7799 4270.00 4274.55 65.35
7206 103.7932 4323.00 4272.95 65.75
7207 103.8065 4277.00 4271.36 65.40
7208 103.8198 4373.00 4269.78 66.13
7209 103.8331 4189.00 4268.21 64.72
7210 103.8464 4186.00 4266.65 64.70
7211 103.8597 4193.00 4265.10 64.75
7212 103.8730 4235.00 4263.58 65.08
7213 103.8863 4185.00 4262.07 64.69
7214 103.8996 4352.00 4260.57 65.97
7215 103.9129 4281.00 4259.10 65.43
7216 103.9262 4296.00 4257.65 65.54
7217 103.9395 4275.00 4256.22 65.38
7218 103.9528 4172.00 4254.82 64.59
7219 103.9661 4260.00 4253.44 65.27
7220 103.9794 4187.00 4252.09 64.71
7221 103.9927 4284.00 4250.77 65.45
7222 104.0060 4215.00 4249.48 64.92
7223 104.0193 4185.00 4248.21 64.69
7224 104.0326 4148.00 4246.98 64.40
7225 104.0459 4126.00 4245.77 64.23
7226 104.0592 4169.00 4244.59 64.57
7227 104.0725 4188.00 4243.44 64.71
7228 104.0858 4231.00 4242.31 65.05
7229 104.0991 4200.00 4241.22 64.81
7230 104.1124 4191.00 4240.14 64.74
7231 104.1257 4252.00 4239.09 65.21
7232 104.1390 4094.00 4238.07 63.98
7233 104.1523 4239.00 4237.09 65.11
7234 104.1656 4185.00 4236.12 64.69
7235 104.1789 4298.00 4235.17 65.56
7236 104.1922 4142.00 4234.23 64.36
7237 104.2055 4280.00 4233.32 65.42
7238 104.2188 4279.00 4232.43 65.41
7239 104.2321 4144.00 4231.56 64.37
7240 104.2454 4229.00 4230.71 65.03
7241 104.2587 4281.00 4229.88 65.43
7242 104.2720 4234.00 4229.08 65.07
7243 104.2853 4201.00 4228.30 64.82
7244 104.2986 4177.00 4227.54 64.63
7245 104.3119 4220.00 4226.81 64.96
7246 104.3252 4179.00 4226.11 64.65
7247 104.3385 4228.00 4225.42 65.02
7248 104.3518 4214.00 4224.77 64.92
7249 104.3651 4144.00 4224.14 64.37
7250 104.3784 4219.00 4223.54 64.95
7251 104.3917 4187.00 4222.97 64.71
7252 104.4050 4239.00 4222.43 65.11
7253 104.4183 4277.00 4221.92 65.40
7254 104.4316 4142.00 4221.44 64.36
7255 104.4449 4204.00 4220.98 64.84
7256 104.4582 4267.00 4220.56 65.32
7257 104.4715 4143.00 4220.17 64.37
7258 104.4848 4201.00 4219.81 64.82
7259 104.4981 4214.00 4219.48 64.92
7260 104.5114 4203.00 4219.22 64.83
7261 104.5247 4169.00 4218.96 64.57
7262 104.5380 4194.00 4218.72 64.76
7263 104.5513 4237.00 4218.51 65.09
7264 104.5646 4156.00 4218.33 64.47
7265 104.5779 4282.00 4218.18 65.44
7266 104.5912 4262.00 4218.07 65.28
7267 104.6045 4198.00 4217.98 64.79
7268 104.6178 4152.00 4217.92 64.44
7269 104.6311 4155.00 4217.89 64.46
7270 104.6444 4118.00 4217.88 64.17
7271 104.6577 4221.00 4217.91 64.97
7272 104.6710 4188.00 4217.95 64.71
7273 104.6843 4117.00 4218.03 64.16
7274 104.6976 4251.00 4218.13 65.20
7275 104.7109 4310.00 4218.26 65.65
7276 104.7242 4112.00 4218.41 64.12
7277 104.7375 4192.00 4218.59 64.75
7278 104.7508 4269.00 4218.79 65.34
7279 104.7641 4116.00 4219.02 64.16
7280 104.7774 4217.00 4219.26 64.94
7281 104.7907 4186.00 4219.53 64.70
7282 104.8040 4210.00 4219.83 64.88
7283 104.8173 4162.00 4220.14 64.51
7284 104.8306 4130.00 4220.48 64.27
7285 104.8439 4268.00 4220.83 65.33
7286 104.8572 4248.00 4221.21 65.18
7287 104.8705 4246.00 4221.61 65.16
7288 104.8838 4253.00 4222.03 65.21
7289 104.8971 4244.00 4222.46 65.15
7290 104.9104 4255.00 4222.92 65.23
7291 104.9237 4287.00 4223.39 65.48
7292 104.9370 4265.00 4223.89 65.31
7293 104.9503 4174.00 4224.40 64.61
7294 104.9636 4394.00 4225.39 66.29
7295 104.9769 4233.00 4225.93 65.06
7296 104.9902 4290.00 4226.50 65.50
7297 105.0035 4360.00 4227.08 66.03
7298 105.0168 4301.00 4227.68 65.58
7299 105.0301 4286.00 4228.29 65.47
7300 105.0434 4198.00 4228.92 64.79
7301 105.0567 4173.00 4229.57 64.60
7302 105.0700 4153.00 4230.01 64.44
7303 105.0833 4204.00 4230.69 64.84
7304 105.0966 4046.00 4231.39 63.61
7305 105.1099 4202.00 4232.10 64.82
7306 105.1232 4198.00 4232.83 64.79
7307 105.1365 4270.00 4233.58 65.35
7308 105.1498 4139.00 4234.34 64.34
7309 105.1631 4271.00 4235.12 65.35
7310 105.1764 4289.00 4235.92 65.49
7311 105.1896 4173.00 4236.73 64.60
7312 105.2029 4230.00 4237.56 65.04
7313 105.2162 4244.00 4238.41 65.15
7314 105.2295 4199.00 4239.29 64.80
7315 105.2428 4290.00 4240.17 65.50
7316 105.2561 4161.00 4241.08 64.51
7317 105.2694 4245.00 4242.01 65.15
7318 105.2827 4186.00 4242.96 64.70
7319 105.2960 4111.00 4243.93 64.12
7320 105.3093 4276.00 4244.93 65.39
7321 105.3226 4238.00 4245.95 65.10
7322 105.3359 4299.00 4246.99 65.57
7323 105.3492 4258.00 4248.06 65.25
7324 105.3625 4237.00 4249.15 65.09
7325 105.3758 4171.00 4250.05 64.58
7326 105.3891 4309.00 4251.19 65.64
7327 105.4024 4211.00 4252.36 64.89
7328 105.4157 4129.00 4253.48 64.26
7329 105.4290 4386.00 4254.70 66.23
7330 105.4423 4340.00 4255.85 65.88
7331 105.4556 4225.00 4257.13 65.00
7332 105.4689 4246.00 4258.45 65.16
7333 105.4822 4183.00 4259.79 64.68
7334 105.4955 4222.00 4261.17 64.98
7335 105.5088 4276.00 4262.57 65.39
7336 105.5221 4192.00 4264.01 64.75
7337 105.5354 4283.00 4265.46 65.44
7338 105.5487 4234.00 4266.96 65.07
7339 105.5620 4321.00 4268.48 65.73
7340 105.5753 4221.00 4270.03 64.97
7341 105.5886 4306.00 4271.61 65.62
7342 105.6019 4246.00 4273.22 65.16
7343 105.6152 4288.00 4274.85 65.48
7344 105.6285 4219.00 4276.51 64.95
7345 105.6418 4343.00 4278.19 65.90
7346 105.6551 4174.00 4279.89 64.61
7347 105.6684 4253.00 4281.61 65.21
7348 105.6817 4423.00 4283.35 66.51
7349 105.6950 4131.00 4285.10 64.27
7350 105.7083 4274.00 4286.87 65.38
7351 105.7216 4337.00 4288.65 65.86
7352 105.7349 4361.00 4290.43 66.04
7353 105.7482 4254.00 4292.21 65.22
7354 105.7615 4367.00 4293.79 66.08
7355 105.7748 4304.00 4295.58 65.60
7356 105.7881 4258.00 4297.31 65.25
7357 105.8014 4305.00 4299.08 65.61
7358 105.8147 4313.00 4300.83 65.67
7359 105.8280 4338.00 4302.56 65.86
7360 105.8413 4204.00 4304.26 64.84
7361 105.8546 4409.00 4305.93 66.40
7362 105.8679 4312.00 4307.57 65.67
7363 105.8812 4314.00 4309.16 65.68
7364 105.8945 4273.00 4310.71 65.37
7365 105.9078 4367.00 4312.21 66.08
7366 105.9211 4215.00 4313.65 64.92
7367 105.9344 4222.00 4315.03 64.98
7368 105.9477 4324.00 4316.34 65.76
7369 105.9610 4203.00 4317.59 64.83
7370 105.9743 4336.00 4318.76 65.85
7371 105.9876 4248.00 4319.85 65.18
7372 106.0009 4294.00 4320.86 65.53
7373 106.0142 4171.00 4321.79 64.58
7374 106.0275 4457.00 4322.63 66.76
7375 106.0408 4311.00 4323.39 65.66
7376 106.0541 4339.00 4324.06 65.87
7377 106.0674 4278.00 4324.64 65.41
7378 106.0807 4302.00 4325.15 65.59
7379 106.0940 4354.00 4325.57 65.98
7380 106.1073 4151.00 4325.73 64.43
7381 106.1206 4375.00 4325.90 66.14
7382 106.1339 4256.00 4326.04 65.24
7383 106.1472 4250.00 4326.17 65.19
7384 106.1605 4271.00 4326.24 65.35
7385 106.1738 4251.00 4326.25 65.20
7386 106.1871 4293.00 4326.20 65.52
7387 106.2004 4256.00 4326.11 65.24
7388 106.2137 4283.00 4325.98 65.44
7389 106.2270 4432.00 4325.80 66.57
7390 106.2403 4238.00 4325.60 65.10
7391 106.2536 4394.00 4325.36 66.29
7392 106.2669 4221.00 4325.09 64.97
7393 106.2802 4353.00 4324.81 65.98
7394 106.2935 4254.00 4324.50 65.22
7395 106.3068 4303.00 4324.18 65.60
7396 106.3201 4168.00 4323.84 64.56
7397 106.3334 4245.00 4323.49 65.15
7398 106.3467 4261.00 4323.13 65.28
7399 106.3600 4211.00 4322.77 64.89
7400 106.3733 4326.00 4322.40 65.77
7401 106.3866 4230.00 4322.04 65.04
7402 106.3999 4388.00 4321.67 66.24
7403 106.4132 4322.00 4321.30 65.74
7404 106.4265 4235.00 4320.94 65.08
7405 106.4398 4377.00 4320.59 66.16
7406 106.4531 4244.00 4320.25 65.15
7407 106.4664 4346.00 4319.92 65.92
7408 106.4797 4242.00 4319.61 65.13
7409 106.4930 4401.00 4319.18 66.34
7410 106.5063 4362.00 4318.91 66.05
7411 106.5196 4274.00 4318.60 65.38
7412 106.5329 4362.00 4318.38 66.05
7413 106.5462 4338.00 4318.19 65.86
7414 106.5595 4361.00 4318.01 66.04
7415 106.5728 4398.00 4317.88 66.32
7416 106.5861 4328.00 4317.87 65.79
7417 106.5994 4245.00 4317.81 65.15
7418 106.6127 4285.00 4317.79 65.46
7419 106.6260 4293.00 4317.80 65.52
7420 106.6393 4290.00 4317.85 65.50
7421 106.6526 4276.00 4317.94 65.39
7422 106.6659 4343.00 4318.06 65.90
7423 106.6792 4222.00 4318.21 64.98
7424 106.6925 4395.00 4318.40 66.29
7425 106.7057 4452.00 4318.61 66.72
7426 106.7190 4297.00 4318.85 65.55
7427 106.7323 4285.00 4319.12 65.46
7428 106.7456 4103.00 4319.40 64.05
7429 106.7589 4194.00 4319.71 64.76
7430 106.7722 4284.00 4320.02 65.45
7431 106.7855 4166.00 4320.35 64.54
7432 106.7988 4329.00 4320.69 65.80
7433 106.8121 4318.00 4321.02 65.71
7434 106.8254 4327.00 4321.35 65.78
7435 106.8387 4320.00 4321.67 65.73
7436 106.8520 4326.00 4321.98 65.77
7437 106.8653 4278.00 4322.27 65.41
7438 106.8786 4299.00 4322.55 65.57
7439 106.8919 4348.00 4322.80 65.94
7440 106.9052 4388.00 4323.00 66.24
7441 106.9185 4281.00 4323.21 65.43
7442 106.9318 4386.00 4323.38 66.23
7443 106.9451 4269.00 4323.52 65.34
7444 106.9584 4362.00 4323.68 66.05
7445 106.9717 4353.00 4323.77 65.98
7446 106.9850 4289.00 4323.83 65.49
7447 106.9983 4267.00 4323.86 65.32
7448 107.0116 4194.00 4323.88 64.76
7449 107.0249 4345.00 4323.86 65.92
7450 107.0382 4345.00 4323.84 65.92
7451 107.0515 4344.00 4323.79 65.91
7452 107.0648 4311.00 4323.74 65.66
7453 107.0781 4220.00 4323.67 64.96
7454 107.0914 4269.00 4323.60 65.34
7455 107.1047 4220.00 4323.53 64.96
7456 107.1180 4237.00 4323.46 65.09
7457 107.1313 4424.00 4323.39 66.51
7458 107.1446 4379.00 4323.33 66.17
7459 107.1579 4326.00 4323.28 65.77
7460 107.1712 4262.00 4323.24 65.28
7461 107.1845 4242.00 4323.20 65.13
7462 107.1978 4253.00 4323.55 65.21
7463 107.2111 4278.00 4323.54 65.41
7464 107.2244 4307.00 4323.54 65.63
7465 107.2377 4461.00 4323.57 66.79
7466 107.2510 4338.00 4323.60 65.86
7467 107.2643 4303.00 4323.65 65.60
7468 107.2776 4266.00 4323.71 65.31
7469 107.2909 4376.00 4323.79 66.15
7470 107.3042 4400.00 4323.88 66.33
7471 107.3175 4383.00 4323.99 66.20
7472 107.3308 4316.00 4324.11 65.70
7473 107.3441 4398.00 4324.22 66.32
7474 107.3574 4333.00 4324.51 65.83
7475 107.3707 4308.00 4324.50 65.64
7476 107.3840 4355.00 4324.68 65.99
7477 107.3973 4354.00 4324.89 65.98
7478 107.4106 4427.00 4325.12 66.54
7479 107.4239 4315.00 4325.36 65.69
7480 107.4372 4251.00 4325.63 65.20
7481 107.4505 4280.00 4325.92 65.42
7482 107.4638 4294.00 4326.23 65.53
7483 107.4771 4249.00 4326.57 65.18
7484 107.4904 4206.00 4326.92 64.85
7485 107.5037 4293.00 4327.30 65.52
7486 107.5170 4327.00 4327.71 65.78
7487 107.5303 4306.00 4328.14 65.62
7488 107.5436 4264.00 4328.59 65.30
7489 107.5569 4310.00 4329.07 65.65
7490 107.5702 4275.00 4329.47 65.38
7491 107.5835 4195.00 4329.98 64.77
7492 107.5968 4391.00 4330.52 66.26
7493 107.6101 4309.00 4331.07 65.64
7494 107.6234 4301.00 4331.63 65.58
7495 107.6367 4396.00 4332.21 66.30
7496 107.6500 4328.00 4332.80 65.79
7497 107.6633 4310.00 4333.39 65.65
7498 107.6766 4253.00 4333.99 65.21
7499 107.6899 4253.00 4334.59 65.21
7500 107.7032 4394.00 4335.20 66.29
7501 107.7165 4232.00 4335.80 65.05
7502 107.7298 4331.00 4336.38 65.81
7503 107.7431 4378.00 4336.97 66.17
7504 107.7564 4386.00 4337.46 66.23
7505 107.7697 4383.00 4338.02 66.20
7506 107.7830 4411.00 4338.57 66.42
7507 107.7963 4265.00 4339.10 65.31
7508 107.8096 4424.00 4339.61 66.51
7509 107.8229 4450.00 4340.10 66.71
7510 107.8362 4406.00 4340.58 66.38
7511 107.8495 4409.00 4341.02 66.40
7512 107.8628 4437.00 4341.45 66.61
7513 107.8761 4399.00 4341.84 66.32
7514 107.8894 4294.00 4342.21 65.53
7515 107.9027 4424.00 4342.55 66.51
7516 107.9160 4313.00 4342.86 65.67
7517 107.9293 4377.00 4343.14 66.16
7518 107.9426 4445.00 4343.45 66.67
7519 107.9559 4342.00 4343.67 65.89
7520 107.9692 4457.00 4343.82 66.76
7521 107.9825 4327.00 4343.98 65.78
7522 107.9958 4424.00 4344.12 66.51
7523 108.0091 4325.00 4344.22 65.76
7524 108.0224 4409.00 4344.29 66.40
7525 108.0357 4474.00 4344.34 66.89
7526 108.0490 4241.00 4344.36 65.12
7527 108.0623 4325.00 4344.35 65.76
7528 108.0756 4401.00 4344.32 66.34
7529 108.0889 4345.00 4344.26 65.92
7530 108.1022 4309.00 4344.18 65.64
7531 108.1155 4401.00 4344.08 66.34
7532 108.1288 4370.00 4343.95 66.11
7533 108.1421 4383.00 4343.81 66.20
7534 108.1554 4441.00 4343.64 66.64
7535 108.1687 4478.00 4343.46 66.92
7536 108.1820 4400.00 4343.26 66.33
7537 108.1953 4364.00 4343.06 66.06
7538 108.2086 4357.00 4342.84 66.01
7539 108.2219 4370.00 4342.61 66.11
7540 108.2351 4392.00 4342.38 66.27
7541 108.2484 4218.00 4342.14 64.95
7542 108.2617 4359.00 4341.91 66.02
7543 108.2750 4456.00 4341.67 66.75
7544 108.2883 4393.00 4341.43 66.28
7545 108.3016 4376.00 4341.20 66.15
7546 108.3149 4327.00 4340.97 65.78
7547 108.3282 4351.00 4341.29 65.96
7548 108.3415 4311.00 4341.23 65.66
7549 108.3548 4403.00 4341.05 66.36
7550 108.3681 4446.00 4340.89 66.68
7551 108.3814 4374.00 4340.75 66.14
7552 108.3947 4395.00 4340.63 66.29
7553 108.4080 4319.00 4340.55 65.72
7554 108.4213 4384.00 4340.49 66.21
7555 108.4346 4357.00 4340.47 66.01
7556 108.4479 4446.00 4340.49 66.68
7557 108.4612 4371.00 4340.55 66.11
7558 108.4745 4408.00 4340.65 66.39
7559 108.4878 4336.00 4340.81 65.85
7560 108.5011 4320.00 4341.01 65.73
7561 108.5144 4476.00 4341.27 66.90
7562 108.5277 4361.00 4341.60 66.04
7563 108.5410 4347.00 4341.99 65.93
7564 108.5543 4438.00 4342.44 66.62
7565 108.5676 4346.00 4342.97 65.92
7566 108.5809 4385.00 4343.57 66.22
7567 108.5942 4445.00 4344.25 66.67
7568 108.6075 4335.00 4344.99 65.84
7569 108.6208 4446.00 4345.81 66.68
7570 108.6341 4432.00 4346.75 66.57
7571 108.6474 4318.00 4347.80 65.71
7572 108.6607 4407.00 4348.94 66.39
7573 108.6740 4365.00 4350.19 66.07
7574 108.6873 4419.00 4351.55 66.48
7575 108.7006 4308.00 4353.01 65.64
7576 108.7139 4408.00 4354.59 66.39
7577 108.7272 4509.00 4356.41 67.15
7578 108.7405 4378.00 4358.08 66.17
7579 108.7538 4467.00 4360.02 66.84
7580 108.7671 4333.00 4362.10 65.83
7581 108.7804 4514.00 4364.30 67.19
7582 108.7937 4432.00 4366.63 66.57
7583 108.8070 4309.00 4369.11 65.64
7584 108.8203 4423.00 4371.71 66.51
7585 108.8336 4461.00 4374.45 66.79
7586 108.8469 4279.00 4377.33 65.41
7587 108.8602 4398.00 4380.36 66.32
7588 108.8735 4426.00 4383.52 66.53
7589 108.8868 4393.00 4386.81 66.28
7590 108.9001 4385.00 4390.20 66.22
7591 108.9134 4624.00 4393.77 68.00
7592 108.9267 4397.00 4397.47 66.31
7593 108.9400 4394.00 4401.30 66.29
7594 108.9533 4414.00 4405.26 66.44
7595 108.9666 4388.00 4409.33 66.24
7596 108.9799 4330.00 4413.54 65.80
7597 108.9932 4339.00 4417.85 65.87
7598 109.0065 4403.00 4422.25 66.36
7599 109.0198 4424.00 4426.75 66.51
7600 109.0331 4453.00 4431.36 66.73
7601 109.0464 4498.00 4436.05 67.07
7602 109.0597 4342.00 4440.83 65.89
7603 109.0730 4508.00 4445.66 67.14
7604 109.0863 4382.00 4450.56 66.20
7605 109.0996 4487.00 4455.50 66.99
7606 109.1129 4460.00 4460.47 66.78
7607 109.1262 4531.00 4465.48 67.31
7608 109.1395 4419.00 4470.42 66.48
7609 109.1528 4407.00 4475.44 66.39
7610 109.1661 4545.00 4480.44 67.42
7611 109.1794 4456.00 4485.42 66.75
7612 109.1927 4472.00 4490.44 66.87
7613 109.2060 4452.00 4495.32 66.72
7614 109.2193 4585.00 4500.14 67.71
7615 109.2326 4367.00 4504.88 66.08
7616 109.2459 4452.00 4509.51 66.72
7617 109.2592 4573.00 4514.03 67.62
7618 109.2725 4516.00 4518.42 67.20
7619 109.2858 4506.00 4522.67 67.13
7620 109.2991 4514.00 4526.71 67.19
7621 109.3124 4630.00 4530.61 68.04
7622 109.3257 4428.00 4534.33 66.54
7623 109.3390 4550.00 4537.84 67.45
7624 109.3523 4463.00 4541.14 66.81
7625 109.3656 4459.00 4544.20 66.78
7626 109.3789 4552.00 4547.02 67.47
7627 109.3922 4512.00 4549.60 67.17
7628 109.4055 4567.00 4551.92 67.58
7629 109.4188 4508.00 4553.98 67.14
7630 109.4321 4522.00 4555.77 67.25
7631 109.4454 4581.00 4557.30 67.68
7632 109.4587 4534.00 4558.56 67.33
7633 109.4720 4478.00 4559.57 66.92
7634 109.4853 4368.00 4560.33 66.09
7635 109.4986 4561.00 4560.82 67.54
7636 109.5119 4604.00 4561.09 67.85
7637 109.5252 4545.00 4561.12 67.42
7638 109.5385 4600.00 4560.94 67.82
7639 109.5518 4679.00 4560.55 68.40
7640 109.5651 4578.00 4559.96 67.66
7641 109.5784 4600.00 4559.18 67.82
7642 109.5917 4601.00 4558.23 67.83
7643 109.6050 4662.00 4557.12 68.28
7644 109.6183 4545.00 4555.86 67.42
7645 109.6316 4548.00 4554.46 67.44
7646 109.6449 4582.00 4552.92 67.69
7647 109.6582 4531.00 4551.27 67.31
7648 109.6715 4682.00 4549.49 68.43
7649 109.6848 4497.00 4547.61 67.06
7650 109.6981 4585.00 4545.63 67.71
7651 109.7114 4502.00 4543.55 67.10
7652 109.7247 4538.00 4541.38 67.36
7653 109.7380 4409.00 4539.11 66.40
7654 109.7512 4466.00 4536.79 66.83
7655 109.7645 4434.00 4534.37 66.59
7656 109.7778 4681.00 4531.88 68.42
7657 109.7911 4564.00 4529.32 67.56
7658 109.8044 4467.00 4526.69 66.84
7659 109.8177 4508.00 4524.01 67.14
7660 109.8310 4542.00 4521.26 67.39
7661 109.8443 4562.00 4518.48 67.54
7662 109.8576 4407.00 4515.65 66.39
7663 109.8709 4516.00 4512.79 67.20
7664 109.8842 4487.00 4509.90 66.99
7665 109.8975 4505.00 4506.99 67.12
7666 109.9108 4539.00 4504.07 67.37
7667 109.9241 4542.00 4501.15 67.39
7668 109.9374 4604.00 4498.25 67.85
7669 109.9507 4530.00 4495.36 67.31
7670 109.9640 4475.00 4492.50 66.90
7671 109.9773 4402.00 4489.68 66.35
7672 109.9906 4469.00 4486.90 66.85
7673 110.0039 4595.00 4484.18 67.79
7674 110.0172 4365.00 4481.52 66.07
7675 110.0305 4532.00 4478.93 67.32
7676 110.0438 4392.00 4476.42 66.27
7677 110.0571 4515.00 4473.99 67.19
7678 110.0704 4499.00 4471.65 67.07
7679 110.0837 4432.00 4469.40 66.57
7680 110.0970 4516.00 4467.25 67.20
7681 110.1103 4492.00 4465.21 67.02
7682 110.1236 4492.00 4463.26 67.02
7683 110.1369 4550.00 4461.43 67.45
7684 110.1502 4482.00 4459.70 66.95
7685 110.1635 4478.00 4458.07 66.92
7686 110.1768 4380.00 4456.56 66.18
7687 110.1901 4456.00 4455.16 66.75
7688 110.2034 4364.00 4453.86 66.06
7689 110.2167 4547.00 4452.66 67.43
7690 110.2300 4417.00 4451.57 66.46
7691 110.2433 4376.00 4450.59 66.15
7692 110.2566 4508.00 4449.70 67.14
7693 110.2699 4462.00 4448.90 66.80
7694 110.2832 4529.00 4448.20 67.30
7695 110.2965 4507.00 4447.59 67.13
7696 110.3098 4407.00 4447.07 66.39
7697 110.3231 4338.00 4446.63 65.86
7698 110.3364 4483.00 4446.26 66.96
7699 110.3497 4539.00 4445.96 67.37
7700 110.3630 4492.00 4445.74 67.02
7701 110.3763 4481.00 4445.58 66.94
7702 110.3896 4352.00 4445.48 65.97
7703 110.4029 4430.00 4445.43 66.56
7704 110.4162 4504.00 4445.44 67.11
7705 110.4295 4495.00 4445.49 67.04
7706 110.4428 4457.00 4445.57 66.76
7707 110.4561 4374.00 4445.70 66.14
7708 110.4694 4524.00 4445.87 67.26
7709 110.4827 4425.00 4446.05 66.52
7710 110.4960 4436.00 4446.27 66.60
7711 110.5093 4507.00 4446.51 67.13
7712 110.5226 4446.00 4446.71 66.68
7713 110.5359 4456.00 4446.99 66.75
7714 110.5492 4444.00 4447.29 66.66
7715 110.5625 4485.00 4447.60 66.97
7716 110.5758 4478.00 4447.93 66.92
7717 110.5891 4514.00 4448.27 67.19
7718 110.6024 4500.00 4448.62 67.08
7719 110.6157 4359.00 4448.99 66.02
7720 110.6290 4438.00 4449.37 66.62
7721 110.6423 4472.00 4449.76 66.87
7722 110.6556 4508.00 4450.17 67.14
7723 110.6689 4298.00 4450.59 65.56
7724 110.6822 4386.00 4451.03 66.23
7725 110.6955 4329.00 4451.49 65.80
7726 110.7088 4538.00 4451.97 67.36
7727 110.7221 4335.00 4452.46 65.84
7728 110.7354 4402.00 4452.97 66.35
7729 110.7487 4402.00 4453.49 66.35
7730 110.7620 4452.00 4454.04 66.72
7731 110.7753 4348.00 4454.61 65.94
7732 110.7886 4456.00 4455.19 66.75
7733 110.8019 4547.00 4455.80 67.43
7734 110.8152 4484.00 4456.46 66.96
7735 110.8285 4497.00 4457.11 67.06
7736 110.8418 4699.00 4457.77 68.55
7737 110.8551 4464.00 4458.46 66.81
7738 110.8684 4548.00 4459.16 67.44
7739 110.8817 4434.00 4459.88 66.59
7740 110.8950 4421.00 4460.62 66.49
7741 110.9083 4485.00 4461.39 66.97
7742 110.9216 4374.00 4462.16 66.14
7743 110.9349 4341.00 4462.93 65.89
7744 110.9482 4513.00 4463.75 67.18
7745 110.9615 4355.00 4464.59 65.99
7746 110.9748 4444.00 4465.44 66.66
7747 110.9881 4413.00 4466.32 66.43
7748 111.0014 4529.00 4467.21 67.30
7749 111.0147 4533.00 4468.13 67.33
7750 111.0280 4393.00 4469.07 66.28
7751 111.0413 4394.00 4470.03 66.29
7752 111.0546 4539.00 4471.01 67.37
7753 111.0679 4366.00 4472.02 66.08
7754 111.0812 4463.00 4473.01 66.81
7755 111.0945 4463.00 4474.07 66.81
7756 111.1078 4438.00 4475.15 66.62
7757 111.1211 4442.00 4476.25 66.65
7758 111.1344 4505.00 4477.39 67.12
7759 111.1477 4526.00 4478.54 67.28
7760 111.1610 4531.00 4479.72 67.31
7761 111.1743 4494.00 4480.93 67.04
7762 111.1876 4624.00 4482.16 68.00
7763 111.2009 4434.00 4483.42 66.59
7764 111.2142 4565.00 4484.70 67.56
7765 111.2275 4469.00 4486.00 66.85
7766 111.2408 4444.00 4487.33 66.66
7767 111.2541 4379.00 4488.67 66.17
7768 111.2673 4508.00 4490.03 67.14
7769 111.2806 4486.00 4491.40 66.98
7770 111.2939 4509.00 4492.81 67.15
7771 111.3072 4439.00 4494.22 66.63
7772 111.3205 4446.00 4495.65 66.68
7773 111.3338 4544.00 4497.08 67.41
7774 111.3471 4434.00 4498.53 66.59
7775 111.3604 4564.00 4499.99 67.56
7776 111.3737 4578.00 4501.45 67.66
7777 111.3870 4488.00 4502.91 66.99
7778 111.4003 4479.00 4504.37 66.93
7779 111.4136 4422.00 4505.83 66.50
7780 111.4269 4408.00 4507.29 66.39
7781 111.4402 4525.00 4508.74 67.27
7782 111.4535 4458.00 4510.18 66.77
7783 111.4668 4469.00 4511.61 66.85
7784 111.4801 4501.00 4513.02 67.09
7785 111.4934 4569.00 4514.40 67.59
7786 111.5067 4498.00 4515.77 67.07
7787 111.5200 4448.00 4517.12 66.69
7788 111.5333 4463.00 4518.44 66.81
7789 111.5466 4419.00 4519.74 66.48
7790 111.5599 4448.00 4521.00 66.69
7791 111.5732 4527.00 4522.23 67.28
7792 111.5865 4498.00 4523.57 67.07
7793 111.5998 4597.00 4524.72 67.80
7794 111.6131 4420.00 4525.83 66.48
7795 111.6264 4612.00 4526.90 67.91
7796 111.6397 4619.00 4527.92 67.96
7797 111.6530 4540.00 4528.89 67.38
7798 111.6663 4530.00 4529.82 67.31
7799 111.6796 4535.00 4530.70 67.34
7800 111.6929 4598.00 4531.53 67.81
7801 111.7062 4585.00 4532.31 67.71
7802 111.7195 4394.00 4533.05 66.29
7803 111.7328 4530.00 4533.73 67.31
7804 111.7461 4534.00 4534.36 67.33
7805 111.7594 4637.00 4534.94 68.10
7806 111.7727 4532.00 4535.48 67.32
7807 111.7860 4601.00 4535.97 67.83
7808 111.7993 4483.00 4536.42 66.96
7809 111.8126 4618.00 4536.82 67.96
7810 111.8259 4475.00 4537.17 66.90
7811 111.8392 4553.00 4537.49 67.48
7812 111.8525 4465.00 4537.76 66.82
7813 111.8658 4559.00 4538.00 67.52
7814 111.8791 4516.00 4538.20 67.20
7815 111.8924 4512.00 4538.36 67.17
7816 111.9057 4585.00 4538.49 67.71
7817 111.9190 4504.00 4538.59 67.11
7818 111.9323 4516.00 4538.65 67.20
7819 111.9456 4514.00 4538.71 67.19
7820 111.9589 4633.00 4538.67 68.07
7821 111.9722 4565.00 4538.66 67.56
7822 111.9855 4525.00 4538.61 67.27
7823 111.9988 4624.00 4538.55 68.00
7824 112.0121 4504.00 4538.47 67.11
7825 112.0254 4447.00 4538.36 66.69
7826 112.0387 4468.00 4538.25 66.84
7827 112.0520 4588.00 4538.11 67.73
7828 112.0653 4535.00 4537.96 67.34
7829 112.0786 4392.00 4537.81 66.27
7830 112.0919 4606.00 4537.64 67.87
7831 112.1052 4593.00 4537.46 67.77
7832 112.1185 4535.00 4537.28 67.34
7833 112.1318 4391.00 4537.10 66.26
7834 112.1451 4579.00 4536.91 67.67
7835 112.1584 4442.00 4536.73 66.65
7836 112.1717 4498.00 4536.55 67.07
7837 112.1850 4360.00 4536.38 66.03
7838 112.1983 4473.00 4536.21 66.88
7839 112.2116 4507.00 4536.06 67.13
7840 112.2249 4426.00 4535.92 66.53
7841 112.2382 4628.00 4535.80 68.03
7842 112.2515 4519.00 4535.69 67.22
7843 112.2648 4516.00 4535.61 67.20
7844 112.2781 4413.00 4535.54 66.43
7845 112.2914 4496.00 4535.50 67.05
7846 112.3047 4506.00 4535.50 67.13
7847 112.3180 4524.00 4535.51 67.26
7848 112.3313 4451.00 4535.57 66.72
7849 112.3446 4594.00 4535.65 67.78
7850 112.3579 4578.00 4535.76 67.66
7851 112.3712 4649.00 4535.92 68.18
7852 112.3845 4506.00 4536.09 67.13
7853 112.3978 4547.00 4536.32 67.43
7854 112.4111 4517.00 4536.59 67.21
7855 112.4244 4572.00 4536.91 67.62
7856 112.4377 4462.00 4537.27 66.80
7857 112.4510 4496.00 4537.68 67.05
7858 112.4643 4561.00 4538.14 67.54
7859 112.4776 4516.00 4538.65 67.20
7860 112.4909 4614.00 4539.20 67.93
7861 112.5042 4649.00 4539.81 68.18
7862 112.5175 4680.00 4540.47 68.41
7863 112.5308 4599.00 4541.20 67.82
7864 112.5441 4734.00 4541.96 68.80
7865 112.5574 4677.00 4542.79 68.39
7866 112.5707 4619.00 4543.67 67.96
7867 112.5840 4530.00 4544.60 67.31
7868 112.5973 4516.00 4545.59 67.20
7869 112.6106 4505.00 4546.64 67.12
7870 112.6239 4533.00 4547.75 67.33
7871 112.6372 4551.00 4548.91 67.46
7872 112.6505 4563.00 4550.19 67.55
7873 112.6638 4497.00 4551.48 67.06
7874 112.6771 4537.00 4552.82 67.36
7875 112.6904 4506.00 4554.23 67.13
7876 112.7037 4733.00 4555.70 68.80
7877 112.7170 4451.00 4557.22 66.72
7878 112.7303 4556.00 4558.81 67.50
7879 112.7436 4516.00 4560.46 67.20
7880 112.7569 4568.00 4562.17 67.59
7881 112.7702 4556.00 4563.94 67.50
7882 112.7835 4566.00 4565.77 67.57
7883 112.7967 4608.00 4567.65 67.88
7884 112.8100 4536.00 4569.60 67.35
7885 112.8233 4552.00 4571.61 67.47
7886 112.8366 4609.00 4573.68 67.89
7887 112.8499 4559.00 4575.80 67.52
7888 112.8632 4580.00 4577.99 67.68
7889 112.8765 4526.00 4580.23 67.28
7890 112.8898 4557.00 4582.53 67.51
7891 112.9031 4557.00 4584.89 67.51
7892 112.9164 4549.00 4587.31 67.45
7893 112.9297 4690.00 4589.77 68.48
7894 112.9430 4642.00 4592.30 68.13
7895 112.9563 4576.00 4594.87 67.65
7896 112.9696 4627.00 4597.51 68.02
7897 112.9829 4547.00 4600.19 67.43
7898 112.9962 4486.00 4602.94 66.98
7899 113.0095 4620.00 4605.73 67.97
7900 113.0228 4650.00 4608.58 68.19
7901 113.0361 4586.00 4611.48 67.72
7902 113.0494 4604.00 4614.36 67.85
7903 113.0627 4657.00 4617.35 68.24
7904 113.0760 4635.00 4620.39 68.08
7905 113.0893 4788.00 4623.48 69.20
7906 113.1026 4622.00 4626.60 67.99
7907 113.1159 4600.00 4629.77 67.82
7908 113.1292 4590.00 4632.99 67.75
7909 113.1425 4578.00 4636.23 67.66
7910 113.1558 4644.00 4639.52 68.15
7911 113.1691 4608.00 4642.83 67.88
7912 113.1824 4593.00 4646.17 67.77
7913 113.1957 4591.00 4649.53 67.76
7914 113.2090 4659.00 4652.92 68.26
7915 113.2223 4642.00 4656.31 68.13
7916 113.2356 4554.00 4659.72 67.48
7917 113.2489 4746.00 4663.12 68.89
7918 113.2622 4751.00 4666.53 68.93
7919 113.2755 4686.00 4669.93 68.45
7920 113.2888 4734.00 4673.31 68.80
7921 113.3021 4602.00 4676.67 67.84
7922 113.3154 4645.00 4680.00 68.15
7923 113.3287 4611.00 4683.30 67.90
7924 113.3420 4689.00 4686.55 68.48
7925 113.3553 4723.00 4689.75 68.72
7926 113.3686 4700.00 4692.89 68.56
7927 113.3819 4720.00 4695.98 68.70
7928 113.3952 4644.00 4698.98 68.15
7929 113.4085 4650.00 4701.91 68.19
7930 113.4218 4727.00 4704.75 68.75
7931 113.4351 4634.00 4707.50 68.07
7932 113.4484 4753.00 4710.16 68.94
7933 113.4617 4677.00 4712.72 68.39
7934 113.4750 4794.00 4715.14 69.24
7935 113.4883 4791.00 4717.48 69.22
7936 113.5016 4689.00 4719.71 68.48
7937 113.5149 4708.00 4721.82 68.61
7938 113.5282 4826.00 4723.81 69.47
7939 113.5415 4676.00 4725.69 68.38
7940 113.5548 4725.00 4727.44 68.74
7941 113.5681 4714.00 4729.18 68.66
7942 113.5814 4674.00 4730.68 68.37
7943 113.5947 4828.00 4732.06 69.48
7944 113.6080 4800.00 4733.31 69.28
7945 113.6213 4763.00 4734.44 69.01
7946 113.6346 4640.00 4735.45 68.12
7947 113.6479 4580.00 4736.33 67.68
7948 113.6612 4722.00 4737.09 68.72
7949 113.6745 4772.00 4737.73 69.08
7950 113.6878 4710.00 4738.25 68.63
7951 113.7011 4761.00 4738.65 69.00
7952 113.7144 4757.00 4738.93 68.97
7953 113.7277 4790.00 4739.10 69.21
7954 113.7410 4748.00 4739.15 68.91
7955 113.7543 4648.00 4739.10 68.18
7956 113.7676 4874.00 4738.93 69.81
7957 113.7809 4648.00 4738.83 68.18
7958 113.7942 4866.00 4738.45 69.76
7959 113.8075 4794.00 4737.98 69.24
7960 113.8208 4766.00 4737.39 69.04
7961 113.8341 4713.00 4736.72 68.65
7962 113.8474 4725.00 4735.94 68.74
7963 113.8607 4715.00 4735.06 68.67
7964 113.8740 4691.00 4734.10 68.49
7965 113.8873 4682.00 4733.04 68.43
7966 113.9006 4814.00 4731.90 69.38
7967 113.9139 4581.00 4730.68 67.68
7968 113.9272 4724.00 4729.36 68.73
7969 113.9405 4788.00 4727.97 69.20
7970 113.9538 4785.00 4726.52 69.17
7971 113.9671 4688.00 4724.97 68.47
7972 113.9804 4730.00 4723.35 68.78
7973 113.9937 4709.00 4721.66 68.62
7974 114.0070 4703.00 4719.90 68.58
7975 114.0203 4716.00 4718.09 68.67
7976 114.0336 4686.00 4716.22 68.45
7977 114.0469 4771.00 4714.30 69.07
7978 114.0602 4766.00 4712.33 69.04
7979 114.0735 4757.00 4710.32 68.97
7980 114.0868 4705.00 4708.28 68.59
7981 114.1001 4648.00 4706.21 68.18
7982 114.1134 4768.00 4704.12 69.05
7983 114.1267 4639.00 4702.01 68.11
7984 114.1400 4738.00 4699.90 68.83
7985 114.1533 4669.00 4697.80 68.33
7986 114.1666 4774.00 4695.69 69.09
7987 114.1799 4695.00 4693.62 68.52
7988 114.1932 4667.00 4691.56 68.32
7989 114.2065 4734.00 4689.55 68.80
7990 114.2198 4680.00 4687.57 68.41
7991 114.2331 4615.00 4685.64 67.93
7992 114.2464 4649.00 4683.77 68.18
7993 114.2597 4680.00 4681.96 68.41
7994 114.2730 4653.00 4680.23 68.21
7995 114.2863 4656.00 4678.58 68.23
7996 114.2996 4680.00 4677.00 68.41
7997 114.3128 4660.00 4675.54 68.26
7998 114.3261 4684.00 4674.16 68.44
7999 114.3394 4742.00 4672.89 68.86
8000 114.3527 4618.00 4671.72 67.96
8001 114.3660 4792.00 4670.66 69.22
8002 114.3793 4721.00 4669.81 68.71
8003 114.3926 4676.00 4669.00 68.38
8004 114.4059 4687.00 4668.31 68.46
8005 114.4192 4763.00 4667.76 69.01
8006 114.4325 4706.00 4667.34 68.60
8007 114.4458 4810.00 4667.07 69.35
8008 114.4591 4769.00 4666.93 69.06
8009 114.4724 4598.00 4666.93 67.81
8010 114.4857 4643.00 4667.08 68.14
8011 114.4990 4819.00 4667.37 69.42
8012 114.5123 4642.00 4667.82 68.13
8013 114.5256 4734.00 4668.42 68.80
8014 114.5389 4610.00 4669.17 67.90
8015 114.5522 4668.00 4670.08 68.32
8016 114.5655 4768.00 4671.15 69.05
8017 114.5788 4638.00 4672.37 68.10
8018 114.5921 4678.00 4673.75 68.40
8019 114.6054 4751.00 4675.29 68.93
8020 114.6187 4676.00 4676.99 68.38
8021 114.6320 4714.00 4678.85 68.66
8022 114.6453 4740.00 4680.86 68.85
8023 114.6586 4681.00 4683.04 68.42
8024 114.6719 4732.00 4685.36 68.79
8025 114.6852 4723.00 4687.83 68.72
8026 114.6985 4587.00 4690.46 67.73
8027 114.7118 4733.00 4693.23 68.80
8028 114.7251 4803.00 4696.15 69.30
8029 114.7384 4635.00 4699.20 68.08
8030 114.7517 4668.00 4702.39 68.32
8031 114.7650 4657.00 4705.71 68.24
8032 114.7783 4791.00 4709.15 69.22
8033 114.7916 4712.00 4712.71 68.64
8034 114.8049 4922.00 4716.38 70.16
8035 114.8182 4644.00 4720.15 68.15
8036 114.8315 4804.00 4724.02 69.31
8037 114.8448 4812.00 4727.99 69.37
8038 114.8581 4856.00 4732.15 69.68
8039 114.8714 4636.00 4736.26 68.09
8040 114.8847 4805.00 4740.45 69.32
8041 114.8980 4628.00 4744.68 68.03
8042 114.9113 4704.00 4748.96 68.59
8043 114.9246 4808.00 4753.29 69.34
8044 114.9379 4733.00 4757.63 68.80
8045 114.9512 4823.00 4762.00 69.45
8046 114.9645 4830.00 4766.37 69.50
8047 114.9778 4777.00 4770.75 69.12
8048 114.9911 4883.00 4775.11 69.88
8049 115.0044 4794.00 4779.46 69.24
8050 115.0177 4767.00 4783.78 69.04
8051 115.0310 4796.00 4788.06 69.25
8052 115.0443 4813.00 4792.31 69.38
8053 115.0576 4777.00 4796.50 69.12
8054 115.0709 4772.00 4800.64 69.08
8055 115.0842 4971.00 4804.72 70.51
8056 115.0975 4813.00 4808.75 69.38
8057 115.1108 4914.00 4812.69 70.10
8058 115.1241 4830.00 4816.55 69.50
8059 115.1374 4877.00 4820.34 69.84
8060 115.1507 4878.00 4824.04 69.84
8061 115.1640 4881.00 4827.65 69.86
8062 115.1773 4941.00 4831.19 70.29
8063 115.1906 4977.00 4834.63 70.55
8064 115.2039 4751.00 4838.00 68.93
8065 115.2172 4821.00 4841.27 69.43
8066 115.2305 4829.00 4844.45 69.49
8067 115.2438 4918.00 4847.54 70.13
8068 115.2571 4784.00 4850.55 69.17
8069 115.2704 4823.00 4853.46 69.45
8070 115.2837 4872.00 4856.28 69.80
8071 115.2970 4861.00 4859.00 69.72
8072 115.3103 4854.00 4861.63 69.67
8073 115.3236 4793.00 4864.16 69.23
8074 115.3369 4841.00 4866.58 69.58
8075 115.3502 4912.00 4868.91 70.09
8076 115.3635 4741.00 4871.12 68.85
8077 115.3768 4914.00 4873.21 70.10
8078 115.3901 4839.00 4875.19 69.56
8079 115.4034 4826.00 4877.04 69.47
8080 115.4167 5038.00 4878.76 70.98
8081 115.4300 4802.00 4880.34 69.30
8082 115.4433 4883.00 4881.78 69.88
8083 115.4566 4751.00 4883.05 68.93
8084 115.4699 4769.00 4884.18 69.06
8085 115.4832 4831.00 4885.15 69.51
8086 115.4965 4847.00 4885.95 69.62
8087 115.5098 4937.00 4886.57 70.26
8088 115.5231 4791.00 4887.02 69.22
8089 115.5364 4940.00 4887.28 70.29
8090 115.5497 4779.00 4887.36 69.13
8091 115.5630 4879.00 4887.25 69.85
8092 115.5763 4792.00 4886.95 69.22
8093 115.5896 4833.00 4886.46 69.52
8094 115.6029 4809.00 4885.78 69.35
8095 115.6162 4795.00 4884.92 69.25
8096 115.6295 4871.00 4883.88 69.79
8097 115.6428 4984.00 4882.66 70.60
8098 115.6561 4919.00 4881.26 70.14
8099 115.6694 4859.00 4879.79 69.71
8100 115.6827 4860.00 4878.07 69.71
8101 115.6960 4890.00 4876.20 69.93
8102 115.7093 4734.00 4874.18 68.80
8103 115.7226 4745.00 4872.03 68.88
8104 115.7359 4850.00 4869.74 69.64
8105 115.7492 4802.00 4867.34 69.30
8106 115.7625 4844.00 4864.83 69.60
8107 115.7758 4813.00 4862.21 69.38
8108 115.7891 4799.00 4859.50 69.27
8109 115.8024 4791.00 4856.69 69.22
8110 115.8157 4841.00 4853.64 69.58
8111 115.8290 4687.00 4850.69 68.46
8112 115.8422 4774.00 4847.67 69.09
8113 115.8555 4772.00 4844.57 69.08
8114 115.8688 4751.00 4841.40 68.93
8115 115.8821 4887.00 4838.18 69.91
8116 115.8954 4838.00 4834.90 69.56
8117 115.9087 4822.00 4831.49 69.44
8118 115.9220 4895.00 4828.11 69.96
8119 115.9353 4971.00 4824.68 70.51
8120 115.9486 4812.00 4821.21 69.37
8121 115.9619 4851.00 4817.69 69.65
8122 115.9752 4880.00 4814.13 69.86
8123 115.9885 4788.00 4810.53 69.20
8124 116.0018 4813.00 4806.89 69.38
8125 116.0151 4717.00 4803.18 68.68
8126 116.0284 4926.00 4799.47 70.19
8127 116.0417 4773.00 4795.72 69.09
8128 116.0550 4819.00 4791.95 69.42
8129 116.0683 4714.00 4788.14 68.66
8130 116.0816 4784.00 4784.31 69.17
8131 116.0949 4848.00 4780.47 69.63
8132 116.1082 4809.00 4776.60 69.35
8133 116.1215 4805.00 4772.73 69.32
8134 116.1348 4802.00 4768.84 69.30
8135 116.1481 4740.00 4764.95 68.85
8136 116.1614 4755.00 4761.06 68.96
8137 116.1747 4762.00 4757.17 69.01
8138 116.1880 4591.00 4753.29 67.76
8139 116.2013 4789.00 4749.44 69.20
8140 116.2146 4671.00 4745.59 68.34
8141 116.2279 4712.00 4741.78 68.64
8142 116.2412 4712.00 4737.99 68.64
8143 116.2545 4835.00 4734.24 69.53
8144 116.2678 4655.00 4730.52 68.23
8145 116.2811 4603.00 4726.78 67.85
8146 116.2944 4786.00 4723.15 69.18
8147 116.3077 4736.00 4719.58 68.82
8148 116.3210 4653.00 4716.05 68.21
8149 116.3343 4711.00 4712.59 68.64
8150 116.3476 4542.00 4709.19 67.39
8151 116.3609 4664.00 4705.80 68.29
8152 116.3742 4759.00 4702.52 68.99
8153 116.3875 4626.00 4699.30 68.01
8154 116.4008 4769.00 4696.15 69.06
8155 116.4141 4701.00 4693.07 68.56
8156 116.4274 4749.00 4690.06 68.91
8157 116.4407 4820.00 4687.11 69.43
8158 116.4540 4715.00 4684.24 68.67
8159 116.4673 4863.00 4681.41 69.74
8160 116.4806 4781.00 4678.69 69.14
8161 116.4939 4607.00 4676.02 67.87
8162 116.5072 4629.00 4673.43 68.04
8163 116.5205 4648.00 4670.91 68.18
8164 116.5338 4745.00 4668.46 68.88
8165 116.5471 4556.00 4666.25 67.50
8166 116.5604 4659.00 4663.94 68.26
8167 116.5737 4783.00 4661.70 69.16
8168 116.5870 4613.00 4659.52 67.92
8169 116.6003 4747.00 4657.42 68.90
8170 116.6136 4659.00 4655.38 68.26
8171 116.6269 4648.00 4653.41 68.18
8172 116.6402 4514.00 4651.51 67.19
8173 116.6535 4660.00 4649.67 68.26
8174 116.6668 4753.00 4647.89 68.94
8175 116.6801 4668.00 4646.18 68.32
8176 116.6934 4489.00 4644.54 67.00
8177 116.7067 4611.00 4642.96 67.90
8178 116.7200 4581.00 4641.44 67.68
8179 116.7333 4510.00 4639.98 67.16
8180 116.7466 4631.00 4638.58 68.05
8181 116.7599 4785.00 4637.25 69.17
8182 116.7732 4553.00 4636.01 67.48
8183 116.7865 4727.00 4634.79 68.75
8184 116.7998 4613.00 4633.62 67.92
8185 116.8131 4672.00 4632.52 68.35
8186 116.8264 4704.00 4631.47 68.59
8187 116.8397 4711.00 4630.47 68.64
8188 116.8530 4595.00 4629.53 67.79
8189 116.8663 4699.00 4628.64 68.55
8190 116.8796 4538.00 4627.78 67.36
8191 116.8929 4516.00 4626.99 67.20
8192 116.9062 4700.00 4626.25 68.56
8193 116.9195 4534.00 4625.55 67.33
8194 116.9328 4662.00 4624.90 68.28
8195 116.9461 4598.00 4624.27 67.81
8196 116.9594 4652.00 4623.71 68.21
8197 116.9727 4705.00 4623.19 68.59
8198 116.9860 4670.00 4622.71 68.34
8199 116.9993 4611.00 4622.28 67.90
8200 117.0126 4651.00 4621.87 68.20
8201 117.0259 4517.00 4621.51 67.21
8202 117.0392 4501.00 4621.18 67.09
8203 117.0525 4607.00 4620.89 67.87
8204 117.0658 4623.00 4620.63 67.99
8205 117.0791 4637.00 4620.40 68.10
8206 117.0924 4606.00 4620.20 67.87
8207 117.1057 4563.00 4620.04 67.55
8208 117.1190 4578.00 4619.90 67.66
8209 117.1323 4554.00 4619.73 67.48
8210 117.1456 4684.00 4619.64 68.44
8211 117.1589 4620.00 4619.58 67.97
8212 117.1722 4603.00 4619.55 67.85
8213 117.1855 4709.00 4619.53 68.62
8214 117.1988 4572.00 4619.55 67.62
8215 117.2121 4673.00 4619.60 68.36
8216 117.2254 4570.00 4619.65 67.60
8217 117.2387 4724.00 4619.73 68.73
8218 117.2520 4612.00 4619.82 67.91
8219 117.2653 4700.00 4619.92 68.56
8220 117.2786 4559.00 4620.05 67.52
8221 117.2919 4646.00 4620.20 68.16
8222 117.3052 4734.00 4620.36 68.80
8223 117.3185 4624.00 4620.53 68.00
8224 117.3318 4705.00 4620.73 68.59
8225 117.3451 4511.00 4620.93 67.16
8226 117.3583 4625.00 4621.14 68.01
8227 117.3716 4608.00 4621.38 67.88
8228 117.3849 4658.00 4621.63 68.25
8229 117.3982 4606.00 4621.89 67.87
8230 117.4115 4647.00 4622.16 68.17
8231 117.4248 4689.00 4622.44 68.48
8232 117.4381 4585.00 4622.75 67.71
8233 117.4514 4540.00 4623.06 67.38
8234 117.4647 4627.00 4623.39 68.02
8235 117.4780 4645.00 4623.73 68.15
8236 117.4913 4793.00 4624.08 69.23
8237 117.5046 4501.00 4624.45 67.09
8238 117.5179 4708.00 4624.82 68.61
8239 117.5312 4664.00 4625.21 68.29
8240 117.5445 4607.00 4625.62 67.87
8241 117.5578 4534.00 4626.03 67.33
8242 117.5711 4645.00 4626.46 68.15
8243 117.5844 4608.00 4627.07 67.88
8244 117.5977 4529.00 4627.50 67.30
8245 117.6110 4626.00 4627.96 68.01
8246 117.6243 4552.00 4628.44 67.47
8247 117.6376 4593.00 4628.93 67.77
8248 117.6509 4625.00 4629.44 68.01
8249 117.6642 4623.00 4629.97 67.99
8250 117.6775 4767.00 4630.51 69.04
8251 117.6908 4710.00 4631.06 68.63
8252 117.7041 4591.00 4631.63 67.76
8253 117.7174 4606.00 4632.22 67.87
8254 117.7307 4574.00 4632.82 67.63
8255 117.7440 4655.00 4633.44 68.23
8256 117.7573 4792.00 4634.08 69.22
8257 117.7706 4703.00 4634.74 68.58
8258 117.7839 4634.00 4635.43 68.07
8259 117.7972 4696.00 4636.12 68.53
8260 117.8105 4565.00 4636.84 67.56
8261 117.8238 4708.00 4637.58 68.61
8262 117.8371 4686.00 4638.35 68.45
8263 117.8504 4702.00 4639.13 68.57
8264 117.8637 4791.00 4639.95 69.22
8265 117.8770 4599.00 4640.79 67.82
8266 117.8903 4502.00 4641.65 67.10
8267 117.9036 4711.00 4642.73 68.64
8268 117.9169 4676.00 4643.65 68.38
8269 117.9302 4605.00 4644.59 67.86
8270 117.9435 4507.00 4645.57 67.13
8271 117.9568 4615.00 4646.57 67.93
8272 117.9701 4699.00 4647.61 68.55
8273 117.9834 4694.00 4648.68 68.51
8274 117.9967 4662.00 4649.78 68.28
8275 118.0100 4676.00 4650.92 68.38
8276 118.0233 4680.00 4652.08 68.41
8277 118.0366 4541.00 4653.29 67.39
8278 118.0499 4761.00 4654.53 69.00
8279 118.0632 4740.00 4655.81 68.85
8280 118.0765 4711.00 4657.23 68.64
8281 118.0898 4705.00 4658.58 68.59
8282 118.1031 4746.00 4659.97 68.89
8283 118.1164 4633.00 4661.40 68.07
8284 118.1297 4722.00 4662.87 68.72
8285 118.1430 4661.00 4664.38 68.27
8286 118.1563 4686.00 4665.93 68.45
8287 118.1696 4703.00 4667.51 68.58
8288 118.1829 4655.00 4669.14 68.23
8289 118.1962 4644.00 4670.81 68.15
8290 118.2095 4808.00 4672.52 69.34
8291 118.2228 4716.00 4674.27 68.67
8292 118.2361 4714.00 4676.06 68.66
8293 118.2494 4617.00 4677.89 67.95
8294 118.2627 4673.00 4679.76 68.36
8295 118.2760 4604.00 4681.67 67.85
8296 118.2893 4584.00 4683.62 67.71
8297 118.3026 4611.00 4685.61 67.90
8298 118.3159 4686.00 4687.63 68.45
8299 118.3292 4748.00 4689.69 68.91
8300 118.3425 4811.00 4691.78 69.36
8301 118.3558 4699.00 4693.91 68.55
8302 118.3691 4757.00 4696.08 68.97
8303 118.3824 4702.00 4698.32 68.57
8304 118.3957 4712.00 4700.55 68.64
8305 118.4090 4654.00 4702.80 68.22
8306 118.4223 4702.00 4705.08 68.57
8307 118.4356 4732.00 4707.39 68.79
8308 118.4489 4553.00 4709.72 67.48
8309 118.4622 4747.00 4712.07 68.90
8310 118.4755 4793.00 4714.44 69.23
8311 118.4888 4759.00 4716.83 68.99
8312 118.5021 4731.00 4719.23 68.78
8313 118.5154 4705.00 4721.64 68.59
8314 118.5287 4738.00 4724.06 68.83
8315 118.5420 4751.00 4726.47 68.93
8316 118.5553 4758.00 4728.91 68.98
8317 118.5686 4741.00 4731.34 68.85
8318 118.5819 4711.00 4733.77 68.64
8319 118.5952 4763.00 4736.19 69.01
8320 118.6085 4841.00 4738.60 69.58
8321 118.6218 4655.00 4741.01 68.23
8322 118.6351 4721.00 4743.47 68.71
8323 118.6484 4778.00 4745.84 69.12
8324 118.6617 4673.00 4748.19 68.36
8325 118.6750 4793.00 4750.51 69.23
8326 118.6883 4814.00 4752.80 69.38
8327 118.7016 4718.00 4755.05 68.69
8328 118.7149 4857.00 4757.26 69.69
8329 118.7282 4687.00 4759.45 68.46
8330 118.7415 4745.00 4761.60 68.88
8331 118.7548 4630.00 4763.71 68.04
8332 118.7681 4760.00 4765.77 68.99
8333 118.7814 4700.00 4767.79 68.56
8334 118.7947 4774.00 4769.76 69.09
8335 118.8080 4847.00 4771.68 69.62
8336 118.8213 4789.00 4773.55 69.20
8337 118.8346 4724.00 4775.34 68.73
8338 118.8479 4756.00 4777.11 68.96
8339 118.8612 4740.00 4778.82 68.85
8340 118.8745 4774.00 4780.49 69.09
8341 118.8877 4761.00 4782.09 69.00
8342 118.9010 4700.00 4783.65 68.56
8343 118.9143 4786.00 4785.27 69.18
8344 118.9276 4653.00 4786.72 68.21
8345 118.9409 4710.00 4788.12 68.63
8346 118.9542 4673.00 4789.46 68.36
8347 118.9675 4829.00 4790.76 69.49
8348 118.9808 4741.00 4791.99 68.85
8349 118.9941 4716.00 4793.17 68.67
8350 119.0074 4692.00 4794.30 68.50
8351 119.0207 4692.00 4795.37 68.50
8352 119.0340 4759.00 4796.38 68.99
8353 119.0473 4841.00 4797.33 69.58
8354 119.0606 4737.00 4798.24 68.83
8355 119.0739 4772.00 4799.07 69.08
8356 119.0872 4820.00 4799.85 69.43
8357 119.1005 4764.00 4800.57 69.02
8358 119.1138 4792.00 4801.22 69.22
8359 119.1271 4845.00 4801.82 69.61
8360 119.1404 4751.00 4802.34 68.93
8361 119.1537 4726.00 4802.81 68.75
8362 119.1670 4833.00 4803.20 69.52
8363 119.1803 4756.00 4803.53 68.96
8364 119.1936 4813.00 4803.78 69.38
8365 119.2069 4931.00 4803.97 70.22
8366 119.2202 4893.00 4804.10 69.95
8367 119.2335 4726.00 4804.16 68.75
8368 119.2468 4720.00 4804.15 68.70
8369 119.2601 4886.00 4804.08 69.90
8370 119.2734 4912.00 4803.94 70.09
8371 119.2867 4676.00 4803.74 68.38
8372 119.3000 4952.00 4803.47 70.37
8373 119.3133 4840.00 4803.13 69.57
8374 119.3266 4741.00 4802.75 68.85
8375 119.3399 4713.00 4802.32 68.65
8376 119.3532 4888.00 4801.83 69.91
8377 119.3665 4800.00 4801.30 69.28
8378 119.3798 4764.00 4800.71 69.02
8379 119.3931 4796.00 4800.09 69.25
8380 119.4064 4947.00 4799.43 70.33
8381 119.4197 4815.00 4798.74 69.39
8382 119.4330 4782.00 4798.01 69.15
8383 119.4463 4873.00 4797.26 69.81
8384 119.4596 4681.00 4796.48 68.42
8385 119.4729 4837.00 4795.68 69.55
8386 119.4862 4833.00 4794.87 69.52
8387 119.4995 4975.00 4794.04 70.53
8388 119.5128 4850.00 4793.21 69.64
8389 119.5261 4845.00 4792.36 69.61
8390 119.5394 4866.00 4791.53 69.76
8391 119.5527 4653.00 4790.69 68.21
8392 119.5660 4916.00 4789.87 70.11
8393 119.5793 4837.00 4789.06 69.55
8394 119.5926 4829.00 4788.26 69.49
8395 119.6059 4671.00 4787.48 68.34
8396 119.6192 4833.00 4786.72 69.52
8397 119.6325 4812.00 4786.00 69.37
8398 119.6458 4847.00 4785.30 69.62
8399 119.6591 4773.00 4784.65 69.09
8400 119.6724 4853.00 4784.04 69.66
8401 119.6857 4884.00 4783.48 69.89
8402 119.6990 4909.00 4782.97 70.06
8403 119.7123 4750.00 4782.52 68.92
8404 119.7256 4815.00 4782.13 69.39
8405 119.7389 4667.00 4781.82 68.32
8406 119.7522 4678.00 4781.59 68.40
8407 119.7655 4680.00 4781.44 68.41
8408 119.7788 4734.00 4781.39 68.80
8409 119.7921 4734.00 4781.44 68.80
8410 119.8054 4805.00 4781.59 69.32
8411 119.8187 4790.00 4781.86 69.21
8412 119.8320 4877.00 4782.25 69.84
8413 119.8453 4744.00 4782.79 68.88
8414 119.8586 4802.00 4783.50 69.30
8415 119.8719 4877.00 4784.34 69.84
8416 119.8852 4678.00 4785.34 68.40
8417 119.8985 4848.00 4786.51 69.63
8418 119.9118 4705.00 4787.87 68.59
8419 119.9251 4767.00 4789.44 69.04
8420 119.9384 4809.00 4791.22 69.35
8421 119.9517 4802.00 4793.22 69.30
8422 119.9650 4723.00 4795.48 68.72
loop_
_pd_proc_wavelength
1.54051
1.54433
loop_
_refln_index_h
_refln_index_k
_refln_index_l
_refln_F_squared_calc
_refln_F_squared_meas
_refln_F_squared_sigma
_refln_observed_status
_refln_d_spacing
0 0 2 401.64 373.07 8.05 o 9.372132
0 0 4 1674.85 1824.20 38.21 o 4.686066
1 1 0 40.59 34.39 1.55 o 4.002802
1 1 1 3269.73 3146.49 63.17 o 3.914540
0 2 0 2177.71 2020.81 42.21 o 3.799476
0 2 1 2908.67 2920.98 58.76 o 3.723746
1 1 2 7752.24 7689.81 154.16 o 3.681119
0 2 2 2338.60 2424.76 49.48 o 3.521129
1 1 3 59.21 57.23 4.60 o 3.370459
0 2 3 19.08 6.61 8.63 < 3.246362
0 0 6 3817.59 3531.68 73.14 o 3.124044
1 1 4 4134.82 4334.32 87.25 o 3.043586
0 2 4 3486.34 3775.02 76.72 o 2.951277
1 1 5 36.79 13.83 5.60 < 2.736214
0 2 5 119.67 81.73 9.16 o 2.668557
1 1 6 960.69 868.53 18.79 o 2.462761
0 2 6 7680.41 7688.66 155.17 o 2.413082
2 0 0 8908.19 9672.80 197.01 o 2.354545
0 0 8 1176.02 1262.65 26.13 o 2.343033
2 0 2 576.28 490.82 16.46 o 2.283583
1 3 0 3821.68 3851.08 79.10 o 2.230749
1 1 7 82.36 82.78 1.69 o 2.225656
1 3 1 285.09 282.29 6.07 o 2.215117
0 2 7 324.26 328.32 9.43 o 2.188785
1 3 2 1857.52 1734.16 35.94 o 2.170124
2 0 4 874.41 1001.92 25.93 o 2.103898
1 3 3 117.07 139.19 3.62 o 2.100866
1 1 8 4415.83 4539.40 91.74 o 2.022087
1 3 4 1329.68 1378.28 27.97 o 2.014174
2 2 0 1234.87 1346.55 27.78 o 2.001401
0 2 8 295.00 328.53 7.09 o 1.994316
2 2 1 699.25 759.93 16.10 o 1.990089
2 2 2 1261.54 1235.88 26.96 o 1.957270
1 3 5 286.53 210.00 7.87 o 1.917027
2 2 3 31.62 27.62 0.82 o 1.906004
0 4 0 885.90 802.83 23.09 o 1.899738
0 4 1 66.40 59.41 1.38 o 1.890056
2 0 6 2384.44 2304.59 48.07 o 1.880305
0 0 10 3815.75 3757.02 79.12 o 1.874427
0 4 2 1713.06 1789.35 38.40 o 1.861873
1 1 9 65.54 61.71 1.31 o 1.847569
2 2 4 1792.02 1622.53 34.56 o 1.840559
0 2 9 331.89 304.62 7.23 o 1.826314
0 4 3 186.22 165.32 3.81 o 1.817580
1 3 6 866.48 769.75 17.80 o 1.815431
2 2 5 80.76 69.63 1.75 o 1.765548
0 4 4 1565.39 1348.41 33.96 o 1.760564
1 3 7 786.21 911.99 22.10 o 1.713933
1 1 10 872.28 869.05 18.83 o 1.697524
0 4 5 103.44 102.59 2.23 o 1.694576
2 2 6 2271.39 2121.30 44.00 o 1.685230
0 2 10 1648.69 1513.03 31.73 o 1.680993
2 0 8 939.24 792.89 20.28 o 1.660830
0 4 6 582.44 566.46 13.72 o 1.623181
1 3 8 1599.24 1587.01 35.06 o 1.615615
2 2 7 105.96 107.07 2.53 o 1.603105
1 1 11 16.69 16.29 0.54 o 1.567866
0 0 12 2438.73 2392.43 75.64 o 1.562022
0 2 11 9.60 10.26 0.31 o 1.554814
0 4 7 744.87 803.65 29.77 o 1.549414
3 1 0 217.21 216.34 7.75 o 1.537242
3 1 1 237.57 219.93 6.14 o 1.532099
1 3 9 269.29 265.24 6.24 o 1.522340
2 2 8 343.15 333.01 7.74 o 1.521793
3 1 2 1342.53 1301.44 29.90 o 1.516972
3 1 3 2.91 3.40 0.22 o 1.492727
2 4 0 389.63 443.38 10.95 o 1.478501
0 4 8 1770.64 1987.97 47.09 o 1.475638
2 4 1 13.10 14.44 0.34 o 1.473923
2 0 10 1887.23 1860.14 39.26 o 1.466475
3 1 4 877.89 839.82 17.84 o 1.460657
2 4 2 1174.89 1115.67 24.02 o 1.460440
1 1 12 755.25 707.96 15.25 o 1.455150
1 5 0 918.13 888.47 20.33 o 1.446332
0 2 12 1302.95 1291.25 30.36 o 1.444698
2 2 9 61.37 59.24 1.31 o 1.443088
1 5 1 15.26 15.03 0.34 o 1.442046
2 4 3 27.06 26.68 0.61 o 1.438768
1 3 10 1270.12 1229.23 28.68 o 1.435068
1 5 2 344.64 339.14 8.32 o 1.429411
3 1 5 28.77 28.59 0.72 o 1.422308
2 4 4 749.84 721.64 23.93 o 1.409986
1 5 3 21.41 20.59 0.68 o 1.409073
0 4 9 36.23 34.74 1.30 o 1.403551
1 5 4 810.74 715.75 21.22 o 1.382003
3 1 6 365.47 312.40 8.76 o 1.379300
2 4 5 24.51 20.59 0.63 o 1.375400
2 2 10 744.80 602.58 20.68 o 1.368107
1 1 13 125.22 106.29 6.85 o 1.356541
1 3 11 15.21 13.80 1.18 o 1.354144
1 5 5 9.90 10.89 0.96 o 1.349389
0 2 13 230.67 257.17 22.82 o 1.348061
0 0 14 80.24 77.50 2.76 o 1.338876
2 4 6 224.43 217.73 6.67 o 1.336394
0 4 10 633.24 618.10 18.51 o 1.334279
3 3 0 1075.84 1044.87 31.04 o 1.334267
3 1 7 4.94 4.89 0.14 o 1.333175
3 3 1 54.24 53.34 1.57 o 1.330900
3 3 2 376.05 404.99 12.25 o 1.320948
1 5 6 1636.51 1727.47 42.46 o 1.312496
3 3 3 34.91 36.25 0.94 o 1.304847
2 0 12 1033.23 1052.39 26.18 o 1.301636
2 2 11 15.86 14.89 0.48 o 1.297456
2 4 7 338.49 319.58 11.26 o 1.294313
3 1 8 913.37 835.79 20.50 o 1.285302
3 3 4 370.16 339.03 8.64 o 1.283263
1 3 12 839.33 750.28 19.35 o 1.279524
1 5 7 9.29 9.00 0.22 o 1.272567
1 1 14 1822.30 1806.84 43.26 o 1.269730
0 4 11 0.64 0.64 0.02 o 1.268495
0 6 0 248.12 251.50 6.09 o 1.266492
0 6 1 12.67 13.26 0.32 o 1.263611
0 2 14 899.15 947.98 24.89 o 1.262768
3 3 5 48.25 45.24 1.22 o 1.257024
0 6 2 869.23 787.95 22.39 o 1.255084
2 4 8 1037.46 892.31 26.72 o 1.250372
0 6 3 22.67 19.68 1.02 o 1.241249
3 1 9 14.79 13.17 0.43 o 1.236821
2 2 12 773.55 714.26 24.52 o 1.231381
1 5 8 65.16 59.84 2.25 o 1.230733
3 3 6 397.74 376.16 12.69 o 1.227040
0 6 4 387.20 389.55 16.62 o 1.222626
1 3 13 10.46 9.47 1.12 o 1.210934
0 4 12 536.13 479.17 48.91 o 1.206541
2 4 9 25.87 22.92 2.32 o 1.205603
0 6 5 5.46 5.19 0.54 o 1.199870
3 3 7 166.32 182.11 10.84 o 1.194226
1 1 15 139.87 154.49 9.31 o 1.192842
3 1 10 318.97 347.40 18.40 o 1.188634
1 5 9 17.45 19.90 1.18 o 1.187970
0 2 15 103.66 118.95 7.30 o 1.187063
4 0 0 1207.00 1156.01 53.28 o 1.177273
0 6 6 108.59 103.59 5.11 o 1.173710
0 0 16 1522.11 1496.89 69.25 o 1.171517
2 2 13 123.01 118.27 4.86 o 1.169886
4 0 2 134.75 126.32 4.82 o 1.168093
2 0 14 74.77 70.48 2.64 o 1.163868
2 4 10 368.69 320.88 14.18 o 1.160844
3 3 8 471.90 416.81 17.58 o 1.159450
0 4 13 20.56 16.04 0.77 o 1.148523
1 3 14 366.28 289.62 13.59 o 1.147980
1 5 10 471.93 375.87 17.17 o 1.145078
0 6 7 34.79 27.66 1.26 o 1.144894
4 0 4 159.18 126.30 5.75 o 1.141791
3 1 11 11.64 9.30 0.41 o 1.141416
4 2 0 209.42 167.84 6.51 o 1.124528
1 1 16 362.32 287.59 12.07 o 1.124351
3 3 9 62.41 52.05 1.82 o 1.123486
4 2 1 98.60 83.83 2.79 o 1.122510
0 2 16 867.77 741.86 24.48 o 1.119508
2 4 11 1.61 1.48 0.04 o 1.116742
4 2 2 212.77 194.77 5.52 o 1.116519
2 6 0 100.50 95.31 2.87 o 1.115375
0 6 8 795.50 770.18 22.67 o 1.114144
2 6 1 3.21 3.15 0.09 o 1.113405
2 2 14 607.62 596.50 16.50 o 1.112828
2 6 2 523.05 557.99 18.03 o 1.107559
4 2 3 0.02 0.02 0.00 o 1.106745
1 5 11 9.56 11.27 0.45 o 1.102684
4 0 6 377.34 408.90 12.16 o 1.101646
2 6 3 16.10 17.29 0.66 o 1.098016
3 1 12 309.49 325.70 9.62 o 1.095650
0 4 14 656.13 685.59 22.94 o 1.094393
4 2 4 322.84 336.58 10.19 o 1.093483
3 5 0 377.69 389.89 12.49 o 1.091871
1 3 15 72.68 75.22 2.34 o 1.090216
3 5 1 2.19 2.27 0.07 o 1.090024
3 3 10 473.20 475.14 14.63 o 1.087001
2 6 4 254.08 249.26 9.33 o 1.085062
3 5 2 106.84 105.07 4.07 o 1.084536
0 6 9 12.73 12.00 0.54 o 1.082121
4 2 5 13.71 10.75 0.60 o 1.077112
3 5 3 1.96 1.02 0.13 o 1.075572
2 4 12 319.06 164.28 22.53 o 1.073771
2 6 5 6.77 4.84 0.44 o 1.069061
3 5 4 288.10 284.19 10.16 o 1.063387
1 1 17 0.76 0.76 0.03 o 1.063012
1 5 12 514.63 515.19 17.04 o 1.061257
2 2 15 67.71 65.74 2.07 o 1.059973
0 2 17 18.61 18.40 0.59 o 1.058916
4 2 6 427.35 403.73 12.37 o 1.058068
1 7 0 601.10 573.56 18.11 o 1.057821
1 7 1 9.28 8.78 0.28 o 1.056141
4 0 8 159.01 149.91 4.66 o 1.051949
3 1 13 34.09 32.04 0.99 o 1.051656
1 7 2 137.77 118.92 4.70 o 1.051147
3 3 11 6.93 6.23 0.22 o 1.050538
2 6 6 70.44 59.06 2.62 o 1.050433
0 6 10 274.16 226.43 10.39 o 1.049405
2 0 16 841.01 744.06 27.89 o 1.048860
3 5 5 1.38 1.15 0.05 o 1.048312
0 4 15 0.43 0.41 0.02 o 1.044005
1 7 3 11.17 11.10 0.54 o 1.042979
0 0 18 682.90 734.95 37.87 o 1.041348
1 3 16 511.72 531.33 23.24 o 1.037187
4 2 7 19.21 19.60 0.70 o 1.036812
2 4 13 9.63 9.38 0.37 o 1.032262
1 7 4 155.51 151.16 6.16 o 1.031857
3 5 6 614.58 592.68 24.63 o 1.030731
2 6 7 30.27 28.93 1.25 o 1.029625
1 5 13 0.53 0.58 0.07 o 1.021129
1 7 5 1.96 1.80 0.12 o 1.018067
0 6 11 23.29 21.09 1.05 o 1.016484
3 3 12 306.37 269.70 8.37 o 1.014529
4 2 8 89.69 78.39 2.28 o 1.013809
3 5 7 0.72 0.62 0.02 o 1.011050
2 2 16 519.86 452.79 12.66 o 1.011043
3 1 14 629.70 546.66 14.72 o 1.009626
1 1 18 531.78 457.41 12.73 o 1.007802
2 6 8 542.91 466.41 13.04 o 1.007087
0 2 18 420.44 359.86 10.65 o 1.004310
1 7 6 256.16 221.59 7.35 o 1.001941
4 4 0 79.84 70.93 2.41 o 1.000700
4 4 1 3.62 3.29 0.12 o 0.999277
0 4 16 292.94 284.42 11.86 o 0.997158
4 0 10 404.29 358.63 11.18 o 0.996947
4 4 2 250.13 234.36 9.75 o 0.995044
2 4 14 464.39 439.51 20.07 o 0.992429
3 5 8 19.61 17.51 0.99 o 0.989685
4 2 9 17.88 17.64 0.72 o 0.989504
1 3 17 7.47 6.56 0.38 o 0.988452
4 4 3 11.90 10.92 0.57 o 0.988107
1 7 7 81.24 94.48 6.20 o 0.983836
0 6 12 191.88 222.78 14.87 o 0.983759
2 6 9 11.01 12.39 0.83 o 0.983250
1 5 14 255.26 287.09 19.57 o 0.982523
3 3 13 3.87 4.07 0.28 o 0.979302
4 4 4 165.18 171.85 12.89 o 0.978635
3 1 15 47.44 31.46 4.66 o 0.969658
3 5 9 6.03 3.85 0.74 o 0.967035
4 4 5 3.67 2.44 0.41 o 0.966847
2 2 17 8.92 6.05 0.91 o 0.965745
4 2 10 168.33 118.02 14.85 o 0.964304
1 7 8 147.15 98.90 15.50 o 0.964117
2 6 10 166.34 117.05 15.67 o 0.958513
1 1 19 0.17 0.13 0.02 o 0.957877
0 2 19 12.50 10.84 1.20 o 0.954877
2 4 15 0.02 0.01 0.00 o 0.954393
0 4 17 56.72 51.41 5.48 o 0.953622
4 4 6 58.65 55.16 5.04 o 0.953002
2 0 18 458.73 421.61 30.40 o 0.952362
0 6 13 14.71 14.65 1.39 o 0.951542
0 8 0 64.76 59.62 3.76 o 0.949869
0 8 1 39.65 37.53 2.00 o 0.948652
1 5 15 19.99 18.70 0.92 o 0.945574
3 3 14 127.16 118.77 5.49 o 0.945095
0 8 2 149.16 139.30 6.55 o 0.945028
1 3 18 460.77 425.77 20.36 o 0.943598
3 5 10 195.02 179.54 8.59 o 0.943473
1 7 9 1.69 1.56 0.07 o 0.943141
4 0 12 254.06 228.79 10.16 o 0.940153
0 8 3 2.20 2.01 0.10 o 0.939079
4 2 11 3.81 3.41 0.15 o 0.938574
4 4 7 70.41 63.02 3.37 o 0.937382
0 0 20 386.58 342.11 23.86 o 0.937213
5 1 0 18.13 15.45 1.02 o 0.934667
5 1 1 28.75 23.90 1.67 o 0.933507
2 6 11 14.05 11.57 1.00 o 0.933232
3 1 16 162.42 137.24 8.81 o 0.931778
0 8 4 195.30 158.19 13.72 o 0.930937
5 1 2 185.03 152.59 10.55 o 0.930053
5 1 3 1.24 1.16 0.05 o 0.924381
2 2 18 267.19 249.91 10.85 o 0.923784
1 7 10 256.33 243.61 10.30 o 0.921244
0 8 5 14.97 14.35 0.60 o 0.920772
4 4 8 257.67 249.64 9.49 o 0.920280
0 6 14 369.88 357.34 14.55 o 0.920071
3 5 11 4.05 3.93 0.16 o 0.919334
2 4 16 174.67 171.18 6.56 o 0.918209
5 1 4 134.76 128.94 3.97 o 0.916612
0 4 18 365.90 349.21 11.69 o 0.913157
4 2 12 190.47 180.92 5.52 o 0.912628
1 1 20 520.63 497.75 16.34 o 0.912534
3 3 15 29.87 28.43 0.89 o 0.912072
1 5 16 428.14 401.25 13.59 o 0.910347
0 2 20 283.57 266.22 9.16 o 0.909939
0 8 6 161.21 149.36 5.34 o 0.908790
2 6 12 115.16 103.86 3.97 o 0.907715
5 1 5 3.19 2.97 0.10 o 0.906905
1 3 19 0.52 0.44 0.07 o 0.902246
4 4 9 4.12 3.68 0.30 o 0.901984
1 7 11 0.26 0.19 0.04 o 0.898732
3 1 17 0.71 0.56 0.07 o 0.895963
5 1 6 46.14 35.91 4.53 o 0.895449
0 8 7 4.26 3.37 0.43 o 0.895215
3 5 12 224.93 175.46 22.41 o 0.894911
3 7 0 254.64 197.28 25.27 o 0.892848
3 7 1 7.76 5.91 0.78 o 0.891837
loop_
_restr_distance_atom_site_label_1
_restr_distance_atom_site_label_2
_restr_distance_target
_restr_distance_target_weight_param
B1 H1 1.1 0.005
B1 H2 1.1 0.005
N1 H3 0.9 0.005
B2 H4 1.1 0.005
loop_
_restr_angle_atom_site_label_1
_restr_angle_atom_site_label_2
_restr_angle_atom_site_label_3
_restr_angle_site_symmetry_3
_restr_angle_target
_restr_angle_target_weight_param
H1 B1 H2 . 109.47 0.01
H1 B1 H2 8_555 109.47 0.01
H2 B1 H2 8_555 109.47 0.01
H3 N1 H3 8_555 109.47 0.01
H4 B2 H4 3_555 109.47 0.01
H1 B1 N1 . 109.47 0.05
