#------------------------------------------------------------------------------
#$Date: 2016-02-04 01:09:38 +0200 (Thu, 04 Feb 2016) $
#$Revision: 175492 $
#$URL: svn://www.crystallography.net/cod/cif/4/34/45/4344555.cif $
#------------------------------------------------------------------------------
#
# This file is available in the Crystallography Open Database (COD),
# http://www.crystallography.net/
#
# All data on this site have been placed in the public domain by the
# contributors.
#
data_4344555
loop_
_publ_author_name
'Marchuk, Alexey'
'Schultz, Peter'
'Hoch, Constantin'
'Oeckler, Oliver'
'Schnick, Wolfgang'
_publ_section_title
;
 M2PO3N (M = Ca, Sr): ortho-Oxonitridophosphates with \b-K2SO4 Structure
 Type.
;
_journal_issue                   2
_journal_name_full               'Inorganic chemistry'
_journal_page_first              974
_journal_page_last               982
_journal_paper_doi               10.1021/acs.inorgchem.5b02647
_journal_volume                  55
_journal_year                    2016
_chemical_formula_sum            'Ca2 N O3 P'
_chemical_formula_weight         173.14
_chemical_name_systematic
;
 ?
;
_space_group_crystal_system      orthorhombic
_space_group_IT_number           62
_space_group_name_Hall           '-P 2ac 2n'
_space_group_name_H-M_alt        'P n m a'
_symmetry_space_group_name_Hall  '-P 2ac 2n'
_symmetry_space_group_name_H-M   'P n m a'
_audit_creation_method           SHELXL-2014
_cell_angle_alpha                90
_cell_angle_beta                 90
_cell_angle_gamma                90
_cell_formula_units_Z            4
_cell_length_a                   6.7954(3)
_cell_length_b                   5.4395(3)
_cell_length_c                   9.4167(5)
_cell_measurement_temperature    293(2)
_cell_volume                     348.07(3)
_computing_structure_refinement  'SHELXL-2014 (Sheldrick, 2014)'
_diffrn_ambient_temperature      293(2)
_diffrn_measured_fraction_theta_full 1.000
_diffrn_measured_fraction_theta_max 1.000
_diffrn_measurement_device_type  'Bruker CCD'
_diffrn_radiation_type           MoK\a
_diffrn_radiation_wavelength     0.71073
_diffrn_reflns_av_R_equivalents  0.0274
_diffrn_reflns_av_unetI/netI     0.0107
_diffrn_reflns_laue_measured_fraction_full 1.000
_diffrn_reflns_laue_measured_fraction_max 1.000
_diffrn_reflns_limit_h_max       9
_diffrn_reflns_limit_h_min       -9
_diffrn_reflns_limit_k_max       7
_diffrn_reflns_limit_k_min       -7
_diffrn_reflns_limit_l_max       13
_diffrn_reflns_limit_l_min       -13
_diffrn_reflns_number            9141
_diffrn_reflns_point_group_measured_fraction_full 1.000
_diffrn_reflns_point_group_measured_fraction_max 1.000
_diffrn_reflns_theta_full        25.242
_diffrn_reflns_theta_max         29.958
_diffrn_reflns_theta_min         3.698
_exptl_absorpt_coefficient_mu    3.571
_exptl_absorpt_correction_T_max  0.7466
_exptl_absorpt_correction_T_min  0.6949
_exptl_absorpt_correction_type   multi-scan
_exptl_absorpt_process_details   Platon
_exptl_crystal_colour            colourless
_exptl_crystal_density_diffrn    3.304
_exptl_crystal_description       block
_exptl_crystal_F_000             344
_exptl_crystal_size_max          0.2
_exptl_crystal_size_mid          0.1
_exptl_crystal_size_min          0.05
_refine_diff_density_max         0.974
_refine_diff_density_min         -0.433
_refine_diff_density_rms         0.137
_refine_ls_extinction_coef       0.007(2)
_refine_ls_extinction_expression Fc^*^=kFc[1+0.001xFc^2^\l^3^/sin(2\q)]^-1/4^
_refine_ls_extinction_method     SHELXL
_refine_ls_goodness_of_fit_ref   1.112
_refine_ls_hydrogen_treatment    undef
_refine_ls_matrix_type           full
_refine_ls_number_parameters     41
_refine_ls_number_reflns         560
_refine_ls_number_restraints     0
_refine_ls_restrained_S_all      1.112
_refine_ls_R_factor_all          0.0268
_refine_ls_R_factor_gt           0.0248
_refine_ls_shift/su_max          0.000
_refine_ls_shift/su_mean         0.000
_refine_ls_structure_factor_coef Fsqd
_refine_ls_weighting_details
'w=1/[\s^2^(Fo^2^)+(0.0308P)^2^+0.6625P] where P=(Fo^2^+2Fc^2^)/3'
_refine_ls_weighting_scheme      calc
_refine_ls_wR_factor_gt          0.0610
_refine_ls_wR_factor_ref         0.0618
_reflns_Friedel_coverage         0.000
_reflns_number_gt                525
_reflns_number_total             560
_reflns_threshold_expression     'I > 2\s(I)'
_cod_data_source_file            ic5b02647_si_002.cif
_cod_data_source_block           Ca2PO3N_average_structure
_cod_database_code               4344555
_shelx_space_group_comment
;
The symmetry employed for this shelxl refinement is uniquely defined
by the following loop, which should always be used as a source of
symmetry information in preference to the above space-group names.
They are only intended as comments.
;
_shelxl_version_number           2014-3
_shelx_res_file
;
TITL Pnma in Pnma
CELL 0.71073   6.7954   5.4395   9.4167  90.000  90.000  90.000
ZERR    4.00   0.0003   0.0003   0.0005   0.000   0.000   0.000
LATT  1
SYMM 0.5-X, -Y, 0.5+Z
SYMM -X, 0.5+Y, -Z
SYMM 0.5+X, 0.5-Y, 0.5-Z
SFAC N O P CA
UNIT 4 12 4 8
OMIT 0 60
L.S. 20
BOND
FMAP 2
PLAN 20
ACTA
MERG 4
WGHT    0.030800    0.662500
EXTI    0.007248
FVAR       0.23206
O1    2    0.238459    0.022279    0.320151    11.00000    0.03695    0.02041 =
         0.04408   -0.01664   -0.02020    0.00881
O2    2    0.008165    0.250000    0.058053    10.50000    0.00694    0.05958 =
         0.01827    0.00000    0.00162    0.00000
N1    1    0.161171    0.250000    0.556494    10.50000    0.00976    0.07588 =
         0.00792    0.00000    0.00244    0.00000
P1    3    0.282519    0.250000    0.415985    10.50000    0.00608    0.01064 =
         0.00789    0.00000   -0.00018    0.00000
CA1   4    0.338896    0.250000    0.072257    10.50000    0.00876    0.02999 =
         0.01988    0.00000   -0.00014    0.00000
CA2   4    0.482323    0.250000    0.703196    10.50000    0.00840    0.02070 =
         0.00973    0.00000    0.00092    0.00000
HKLF 4

REM  Pnma in Pnma
REM R1 =  0.0248 for     525 Fo > 4sig(Fo)  and  0.0268 for all     560 data
REM     41 parameters refined using      0 restraints

END

WGHT      0.0308      0.6626

REM Highest difference peak  0.974,  deepest hole -0.433,  1-sigma level  0.137
Q1    1   0.1621  0.0027  0.3761  11.00000  0.05    0.97
Q2    1   0.2005  0.1548  0.5653  11.00000  0.05    0.58
Q3    1   0.1971  0.2500  0.4918  10.50000  0.05    0.38
Q4    1   0.2343  0.0089  0.2005  11.00000  0.05    0.37
Q5    1   0.2902  0.0292  0.2015  11.00000  0.05    0.35
Q6    1   0.1125  0.0352  0.2538  11.00000  0.05    0.32
Q7    1   0.0779  0.0342  0.5581  11.00000  0.05    0.29
Q8    1  -0.0039  0.2500  0.5718  10.50000  0.05    0.29
Q9    1   0.0758 -0.0014  0.0621  11.00000  0.05    0.27
Q10   1   0.3734  0.1561  0.0440  11.00000  0.05    0.27
Q11   1   0.4465  0.2500  0.6775  10.50000  0.05    0.26
Q12   1   0.1635 -0.0278  0.4711  11.00000  0.05    0.25
Q13   1  -0.0972  0.2500  0.0527  10.50000  0.05    0.24
Q14   1   0.5188  0.1763  0.6868  11.00000  0.05    0.24
Q15   1   0.4625  0.0222  0.0118  11.00000  0.05    0.24
Q16   1   0.1068  0.0198  0.6717  11.00000  0.05    0.23
Q17   1   0.3717 -0.0246  0.2829  11.00000  0.05    0.23
Q18   1   0.0000  0.0000  0.0000  10.50000  0.05    0.22
Q19   1   0.4213 -0.0230  0.3317  11.00000  0.05    0.21
Q20   1   0.4490  0.2500  0.7777  10.50000  0.05    0.21
;
_shelx_res_checksum              25616
_shelx_hkl_file
;
   0  -1   0   -1.50    0.04
   0   1   0   -1.48    0.05
   0   1   0   -1.29    0.06
   0   1   0   -1.35    0.05
   0   1   0   -1.46    0.04
   0  -1   0   -1.52    0.05
   0  -1   0   -1.47    0.04
   0   2   0  960.08   23.58
   0   2   0  964.80   20.61
   0  -2   0  946.70   22.07
   0  -2   0  972.08   20.61
   0  -2   0  960.31   23.53
   0   2   0  971.35   21.80
   0   2   0 1000.00   23.37
   0  -3   0   -0.38    0.11
   0   3   0   -0.28    0.12
   0   3   0   -0.13    0.12
   0  -3   0   -0.70    0.21
   0   3   0   -0.13    0.17
   0   3   0   -0.21    0.18
   0  -3   0   -0.16    0.11
   0   4   0  845.59   18.22
   0  -4   0  829.10   20.46
   0   4   0  842.14   20.44
   0  -4   0  840.00   19.21
   0   5   0    0.20    0.45
   0  -5   0   -0.07    0.32
   0   5   0    0.16    0.30
   0  -5   0    0.37    0.36
   0  -6   0  139.19    3.93
   0  -6   0  136.81    4.09
   0   6   0  133.96    4.00
   0   6   0  136.10    3.82
   0  -7   0   -0.52    0.65
   0   7   0    0.29    0.81
   0  -7   0    0.02    0.71
   0   8   0   60.50    2.78
   0  -8   0   64.84    2.90
   0  -8   0   64.68    2.76
  -1   0   0   -0.17    0.02
   1   0   0   -0.09    0.02
  -1   0   0   -0.08    0.04
  -1   0   0   -0.16    0.03
   1   0   0   -0.16    0.03
   1   0   0   -0.13    0.02
   1   0   0   -0.18    0.03
  -1   1   0   -0.03    0.06
   1  -1   0   -0.04    0.06
  -1  -1   0   -0.10    0.05
   1   1   0   -0.06    0.05
  -1   1   0   -0.05    0.06
  -1   1   0    0.19    0.08
   1   1   0   -0.12    0.05
   1   1   0   -0.15    0.04
  -1  -1   0   -0.12    0.04
   1  -1   0   -0.22    0.05
   1  -1   0   -0.20    0.04
   1  -1   0   -0.05    0.06
   1   1   0   -0.11    0.03
   1  -1   0    0.13    0.07
  -1  -1   0   -0.08    0.05
   1   1   0   -0.05    0.04
  -1   1   0   -0.13    0.05
   1  -2   0    0.04    0.05
  -1   2   0    0.10    0.12
   1   2   0    0.09    0.09
   1   2   0    0.10    0.11
   1  -2   0    0.00    0.10
  -1   2   0   -0.05    0.09
   1  -2   0   -0.18    0.10
   1   2   0   -0.06    0.04
   1   2   0    0.03    0.11
  -1   2   0   -0.03    0.08
   1  -2   0   -0.03    0.08
  -1  -2   0    0.05    0.08
  -1  -2   0    0.04    0.08
  -1  -2   0    0.05    0.07
   1   2   0   -0.18    0.09
   1   2   0    0.07    0.07
   1  -2   0    0.01    0.12
  -1   2   0    0.29    0.11
   1   3   0    0.01    0.13
  -1  -3   0   -0.02    0.11
   1  -3   0    0.04    0.13
  -1  -3   0    0.11    0.10
   1  -3   0    0.04    0.06
   1   3   0   -0.06    0.14
  -1   3   0    0.14    0.13
  -1   3   0    0.12    0.19
   1  -3   0    0.04    0.06
   1   3   0    0.11    0.05
   1   3   0    0.02    0.15
   1   3   0    0.03    0.05
   1   3   0   -0.11    0.19
  -1  -3   0    0.08    0.13
   1  -3   0    0.66    0.18
  -1   3   0    0.08    0.15
  -1  -4   0    0.30    0.26
  -1   4   0   -0.15    0.20
   1   4   0    0.01    0.32
   1  -4   0   -0.03    0.23
   1  -4   0   -0.24    0.26
  -1  -4   0    0.13    0.26
  -1   4   0   -0.33    0.30
   1   4   0   -0.10    0.20
  -1  -4   0    0.04    0.17
   1  -4   0   -0.12    0.27
  -1   5   0   -0.01    0.43
   1   5   0   -0.77    0.34
  -1  -5   0    0.16    0.36
   1  -5   0    0.31    0.39
   1  -5   0   -0.06    0.41
   1   5   0   -0.12    0.44
  -1   5   0    0.12    0.32
  -1  -5   0    0.38    0.36
   1  -5   0   -0.21    0.39
  -1  -5   0    0.02    0.28
   1  -6   0   -0.21    0.56
  -1  -6   0    0.16    0.55
  -1  -6   0   -0.27    0.44
   1   6   0   -0.16    0.63
   1  -6   0   -0.63    0.47
  -1   6   0   -0.34    0.57
  -1   6   0   -0.64    0.48
  -1  -6   0    0.07    0.43
   1   7   0   -0.85    0.74
  -1  -7   0   -0.17    0.62
  -1  -7   0   -0.26    0.75
   1  -7   0   -0.70    0.73
  -1   7   0   -0.14    0.74
   1  -7   0    0.95    0.75
   1  -8   0   -0.98    0.97
  -1   8   0    0.90    1.09
   1   8   0    0.53    1.08
   1  -8   0   -0.64    1.02
  -1  -8   0    0.22    0.98
  -1  -8   0   -0.09    0.89
   2   0   0   92.20    2.11
  -2   0   0   91.53    2.09
  -2   0   0   85.83    2.29
   2   0   0   89.12    2.29
   2   0   0   90.28    2.11
   2   0   0   91.03    2.29
   2   0   0   92.70    2.08
  -2   0   0   89.11    2.29
  -2   1   0  197.83    5.16
   2  -1   0  204.66    4.56
  -2  -1   0  203.13    4.56
  -2   1   0  198.63    5.15
   2   1   0  201.54    4.63
   2   1   0  210.12    4.56
   2  -1   0  204.10    5.16
   2   1   0  217.38    4.74
   2  -1   0  204.77    5.16
  -2   1   0  213.21    4.79
  -2  -1   0  208.19    4.73
  -2  -1   0  205.16    5.03
   2  -1   0  211.40    4.77
   2   1   0  212.14    5.03
  -2  -1   0  207.68    5.03
   2  -1   0  209.49    4.59
   2   1   0  208.66    5.02
  -2   1   0  209.52    4.57
  -2  -2   0   88.96    2.27
  -2  -2   0   84.98    2.26
  -2   2   0   89.38    2.44
   2   2   0   87.94    2.26
   2   2   0   86.54    2.14
   2   2   0   88.36    2.19
   2  -2   0   90.29    2.06
  -2   2   0   87.15    2.24
   2  -2   0   88.16    2.44
   2  -2   0   91.39    2.44
  -2  -2   0   88.55    2.16
   2  -2   0   86.90    2.23
  -2   2   0   89.60    2.44
   2   2   0   88.90    2.10
  -2  -2   0   88.26    2.20
  -2   2   0   84.42    2.13
   2   2   0   90.14    2.26
   2  -2   0   85.67    2.13
   2   3   0  129.29    2.89
   2  -3   0  130.86    2.90
  -2  -3   0  124.07    3.31
   2  -3   0  126.05    3.22
   2  -3   0  133.54    3.50
  -2  -3   0  123.21    3.30
  -2   3   0  125.90    3.09
   2   3   0  123.73    3.28
   2   3   0  126.67    3.19
   2  -3   0  125.55    2.94
  -2  -3   0  128.41    3.20
   2  -3   0  124.15    3.49
  -2   3   0  134.97    3.52
   2   3   0  129.20    2.91
  -2   3   0  126.30    3.49
   2   4   0   15.07    0.46
  -2  -4   0   15.54    0.73
   2  -4   0   15.31    0.83
   2   4   0   15.82    0.89
  -2   4   0   15.02    0.82
   2  -4   0   15.07    0.48
  -2   4   0   14.07    0.81
   2   4   0   14.11    0.46
  -2  -4   0   13.85    0.65
  -2  -4   0   14.62    0.80
   2   4   0   14.99    0.68
   2  -4   0   16.14    0.50
   2  -4   0   16.12    0.88
  -2  -5   0   46.78    1.72
  -2   5   0   46.22    1.74
  -2  -5   0   49.34    1.62
  -2  -5   0   47.75    1.68
   2  -5   0   48.22    1.89
  -2   5   0   46.80    1.72
   2  -5   0   48.19    1.82
   2   5   0   43.82    1.60
   2   5   0   46.65    1.77
   2  -5   0   50.16    1.75
  -2  -6   0    0.47    0.44
  -2   6   0    0.96    0.53
   2  -6   0   -0.87    0.62
  -2  -6   0   -0.10    0.37
   2  -6   0    0.68    0.53
  -2  -6   0    0.17    0.55
   2   6   0    0.67    0.66
  -2   6   0   -0.24    0.51
   2   7   0   17.98    1.58
  -2  -7   0   18.61    1.35
   2  -7   0   17.58    1.78
  -2   7   0   18.77    1.53
   2  -7   0   23.08    1.49
  -2  -7   0   18.76    1.50
   2   8   0    1.18    1.28
  -2  -8   0    3.37    0.94
  -2   8   0    2.68    1.17
   2  -8   0    3.88    1.35
  -2  -8   0    1.04    1.16
   2  -8   0    1.89    1.16
   3   0   0   -0.24    0.09
   3   0   0   -0.22    0.06
  -3   0   0   -0.20    0.07
   3   0   0   -0.15    0.10
  -3   0   0   -0.13    0.09
   3   0   0   -0.07    0.11
  -3   0   0   -0.44    0.07
   3   0   0   -0.12    0.11
   3   0   0   -0.36    0.11
   3   1   0   -0.38    0.12
   3   1   0   -0.37    0.07
   3   1   0   -0.25    0.13
  -3  -1   0   -0.35    0.09
   3   1   0   -0.57    0.11
   3  -1   0   -0.55    0.12
   3  -1   0   -0.24    0.13
   3  -1   0   -0.40    0.12
   3  -1   0   -0.40    0.08
   3  -1   0   -0.55    0.12
  -3   1   0   -0.33    0.09
   3   1   0   -0.26    0.07
  -3   1   0   -0.35    0.10
   3   1   0   -0.39    0.07
  -3  -1   0   -0.34    0.05
  -3  -1   0   -0.27    0.07
  -3   1   0   -0.09    0.10
  -3   2   0   -0.12    0.16
   3  -2   0    0.12    0.15
   3   2   0   -0.15    0.11
  -3   2   0   -0.19    0.11
  -3   2   0   -0.05    0.14
   3  -2   0    0.04    0.18
   3   2   0    0.09    0.13
   3   2   0   -0.34    0.14
  -3  -2   0   -0.03    0.08
   3  -2   0   -0.31    0.11
   3  -2   0   -0.35    0.18
  -3  -2   0   -0.17    0.11
  -3   2   0    0.23    0.18
   3  -2   0    0.14    0.15
  -3  -2   0   -0.27    0.09
  -3  -2   0    0.03    0.07
   3   2   0   -0.07    0.10
   3   2   0   -0.01    0.09
   3  -3   0   -0.19    0.17
  -3  -3   0    0.13    0.15
  -3   3   0   -0.22    0.26
   3  -3   0    0.06    0.15
   3  -3   0   -0.22    0.28
  -3  -3   0   -0.27    0.15
  -3  -3   0   -0.03    0.13
   3   3   0    0.19    0.15
   3   3   0    0.03    0.13
  -3   3   0    0.22    0.19
   3  -3   0    0.03    0.20
   3  -3   0    0.33    0.17
  -3   3   0   -0.25    0.24
   3   3   0   -0.11    0.15
   3   3   0    0.15    0.21
   3   4   0   -0.11    0.14
   3  -4   0    0.54    0.27
  -3   4   0    0.24    0.27
   3  -4   0   -0.07    0.22
  -3  -4   0   -0.20    0.22
   3   4   0    0.28    0.37
   3   4   0    0.42    0.24
   3  -4   0   -0.04    0.42
   3  -4   0   -0.29    0.29
  -3  -4   0   -0.03    0.29
  -3   4   0   -0.44    0.34
   3  -4   0   -0.39    0.16
   3   4   0    0.29    0.20
  -3   4   0   -0.79    0.44
  -3  -4   0    0.15    0.17
  -3  -5   0    0.03    0.43
   3  -5   0   -0.13    0.39
  -3   5   0    0.44    0.39
   3  -5   0   -0.20    0.23
   3   5   0    0.04    0.52
   3   5   0    0.86    0.38
  -3  -5   0    0.16    0.31
  -3   5   0    0.28    0.46
   3   5   0    0.28    0.22
   3  -5   0   -0.33    0.54
   3  -5   0    1.76    0.64
   3   5   0    0.19    0.15
   3  -5   0    0.18    0.18
  -3  -5   0    0.42    0.25
   3  -6   0    0.44    0.58
  -3  -6   0   -0.05    0.39
  -3  -6   0   -0.83    0.38
  -3   6   0    1.32    0.68
   3   6   0    0.82    0.70
   3  -6   0    0.32    0.77
  -3  -6   0   -0.19    0.60
  -3   6   0    0.56    0.52
   3  -7   0    0.65    0.84
   3   7   0   -0.49    0.87
   3  -7   0    1.08    1.02
  -3  -7   0    0.07    0.78
  -3  -7   0    0.27    0.56
  -3   7   0    0.82    0.86
  -3  -8   0    0.13    0.78
  -3  -8   0    0.90    1.15
   3  -8   0    0.58    1.16
   3  -8   0    0.67    1.44
  -3   8   0    1.38    1.24
   3   8   0   -0.34    1.15
   4   0   0  264.83    6.53
  -4   0   0  265.77    6.55
  -4   0   0  261.11    6.53
   4   0   0  255.42    5.97
  -4   0   0  268.05    5.91
   4   0   0  257.52    6.58
   4   0   0  272.48    6.10
   4   0   0  258.46    6.00
   4  -1   0   55.07    1.42
   4  -1   0   52.90    1.64
   4  -1   0   55.46    1.65
  -4   1   0   51.98    1.48
   4   1   0   55.72    1.51
  -4   1   0   54.13    1.45
   4   1   0   55.63    1.37
  -4   1   0   55.89    1.66
  -4  -1   0   55.54    1.51
  -4  -1   0   52.02    1.48
  -4   2   0   23.30    0.84
  -4   2   0   23.79    0.95
   4   2   0   22.48    0.84
  -4  -2   0   22.27    0.72
  -4  -2   0   22.06    0.88
   4   2   0   23.11    0.73
   4   2   0   21.94    0.72
   4  -2   0   21.38    0.93
  -4  -2   0   21.43    0.70
  -4   2   0   23.26    0.97
   4  -2   0   22.67    0.76
  -4   2   0   22.92    0.90
  -4  -2   0   22.27    0.73
   4  -2   0   22.74    1.00
   4  -2   0   21.38    0.85
   4   3   0   38.87    1.25
   4   3   0   41.86    1.27
  -4  -3   0   41.10    1.20
  -4  -3   0   41.62    1.26
   4   3   0   43.30    1.23
  -4   3   0   41.79    1.54
  -4  -3   0   41.86    1.24
  -4  -3   0   42.56    1.41
   4  -3   0   41.45    1.53
  -4   3   0   44.88    1.63
  -4   3   0   41.65    1.40
   4  -3   0   40.09    1.28
   4  -4   0   72.83    2.50
  -4  -4   0   76.92    2.23
   4  -4   0   78.90    2.07
   4   4   0   75.70    2.12
  -4   4   0   79.95    2.32
  -4  -4   0   75.57    2.14
  -4   4   0   76.00    2.58
  -4   4   0   73.22    2.53
   4   4   0   77.17    2.01
   4  -4   0   78.01    2.30
  -4  -4   0   75.08    2.11
   4   5   0   19.34    1.29
   4   5   0   19.10    0.74
  -4  -5   0   19.41    0.90
  -4  -5   0   19.30    1.14
  -4   5   0   18.93    1.16
   4  -5   0   19.22    0.76
   4  -5   0   20.39    1.45
  -4  -5   0   20.03    0.99
   4  -5   0   18.72    1.12
  -4   5   0   19.61    1.42
   4  -6   0   14.10    1.61
  -4  -6   0   12.32    1.13
  -4  -6   0   11.79    0.87
  -4   6   0   12.19    1.22
   4   6   0   12.13    1.27
  -4  -6   0   12.93    1.05
   4  -6   0   10.66    1.18
  -4   6   0   12.59    1.42
  -4   7   0    9.09    1.32
   4  -7   0    8.58    1.25
  -4  -7   0    8.83    0.84
   4  -7   0   10.57    1.56
  -4  -7   0   10.56    1.21
   4   7   0    6.62    1.22
   5   0   0    0.05    0.10
  -5   0   0   -0.03    0.23
  -5   0   0   -0.21    0.19
  -5   0   0   -0.16    0.15
   5   0   0    0.22    0.32
   5   0   0    0.13    0.20
   5   0   0    0.21    0.10
  -5   1   0   -0.32    0.19
  -5   1   0   -0.31    0.21
   5  -1   0    0.01    0.11
  -5  -1   0   -0.04    0.17
  -5   1   0    0.28    0.26
   5  -1   0    0.46    0.34
  -5   1   0    0.04    0.30
  -5  -1   0    0.19    0.13
   5   1   0   -0.07    0.12
   5  -1   0   -0.03    0.22
   5   1   0    0.09    0.32
   5   1   0    0.02    0.17
  -5  -1   0   -0.39    0.24
  -5  -2   0    0.22    0.30
  -5   2   0    0.30    0.29
   5   2   0    0.11    0.17
  -5   2   0   -0.50    0.32
   5  -2   0    0.01    0.15
  -5  -2   0    0.04    0.11
   5   2   0    0.25    0.18
   5  -2   0   -0.13    0.26
  -5   2   0    0.57    0.31
  -5  -2   0    0.18    0.17
  -5   2   0    0.06    0.33
   5  -2   0    0.17    0.33
   5   2   0   -0.09    0.32
  -5   3   0    0.23    0.41
  -5  -3   0   -0.04    0.19
   5  -3   0    0.01    0.35
   5   3   0   -0.08    0.31
  -5  -3   0   -0.10    0.17
  -5  -3   0   -0.07    0.18
  -5   3   0    0.25    0.37
   5  -3   0    0.18    0.33
  -5  -3   0    0.06    0.34
  -5   3   0   -0.26    0.42
   5  -3   0   -0.01    0.34
   5   4   0   -0.14    0.41
  -5  -4   0    0.13    0.25
   5  -4   0    0.03    0.37
  -5   4   0    0.65    0.52
  -5   4   0   -0.12    0.44
   5  -4   0   -0.97    0.40
  -5  -4   0    0.39    0.40
  -5  -4   0    0.06    0.22
   5  -4   0    0.02    0.42
  -5  -5   0    0.72    0.54
   5   5   0    0.22    0.51
  -5  -5   0    0.12    0.28
  -5  -5   0    0.20    0.32
   5  -5   0    0.01    0.51
  -5   5   0    0.85    0.78
   5  -5   0   -0.34    0.50
   5   5   0    1.18    0.68
  -5   5   0    0.38    0.58
   5  -5   0    0.93    0.89
  -5   6   0    0.89    0.76
   5  -6   0   -0.29    1.09
  -5  -6   0   -0.79    0.48
  -5  -6   0   -0.64    0.34
  -5  -6   0    0.52    0.68
   5  -6   0    0.46    0.77
   5   6   0   -0.58    0.86
  -5   6   0    0.05    1.01
  -5  -7   0   -0.88    0.61
   5  -7   0   -1.11    1.38
  -5  -7   0    1.92    1.12
   5   7   0   -0.67    1.15
   5  -7   0    1.80    1.00
  -5  -7   0    1.57    0.51
  -5   7   0    1.17    1.03
   6   0   0  160.21    3.62
   6   0   0  158.79    4.08
  -6   0   0  152.20    3.86
   6   0   0  156.41    3.61
  -6   0   0  153.48    4.16
  -6   0   0  158.13    4.16
   6   0   0  151.06    4.13
  -6  -1   0   65.11    1.91
  -6  -1   0   67.07    1.94
   6  -1   0   63.65    2.07
   6  -1   0   66.22    1.70
   6   1   0   65.95    1.92
   6   1   0   67.92    2.16
  -6  -1   0   67.38    1.99
   6   1   0   67.23    1.63
  -6   1   0   66.73    1.99
  -6   1   0   65.48    2.12
   6  -1   0   68.88    2.16
  -6   1   0   66.50    2.09
   6   1   0   66.02    1.66
   6   2   0  224.02    5.20
  -6   2   0  217.63    5.94
  -6  -2   0  225.52    5.56
  -6  -2   0  227.02    5.56
  -6   2   0  221.79    5.35
   6  -2   0  220.19    5.94
  -6  -2   0  225.30    5.37
   6  -2   0  223.89    5.29
  -6   2   0  213.44    5.41
   6   2   0  217.43    5.48
  -6   2   0  222.08    5.99
   6   2   0  227.63    5.31
   6  -2   0  223.86    5.52
   6   3   0   56.24    1.92
   6  -3   0   55.33    2.07
  -6   3   0   53.80    2.10
  -6  -3   0   55.48    1.54
   6  -3   0   56.03    1.95
   6  -3   0   56.18    1.74
  -6   3   0   52.19    2.13
  -6  -3   0   58.18    1.56
  -6  -3   0   57.18    1.94
  -6   3   0   57.36    1.92
  -6  -4   0   52.22    1.40
  -6  -4   0   53.91    1.74
   6  -4   0   51.39    1.81
   6   4   0   52.08    1.84
  -6   4   0   51.96    1.93
   6  -4   0   51.71    2.09
  -6   4   0   49.52    2.19
  -6  -4   0   53.86    1.41
   6  -4   0   52.24    1.94
   6  -5   0   31.73    1.55
  -6  -5   0   31.81    1.50
  -6   5   0   33.15    1.65
   6   5   0   32.95    1.49
  -6   5   0   33.58    2.05
   6  -5   0   31.88    2.27
   6  -5   0   32.60    1.55
  -6  -6   0   27.09    1.72
  -6   6   0   26.46    1.80
   6  -6   0   26.32    1.77
   6  -6   0   31.25    2.67
  -6   6   0   26.91    2.40
   6   6   0   30.33    2.18
   6   7   0   16.32    1.92
  -6  -7   0   17.05    1.67
  -6   7   0   18.16    1.80
  -7   0   0    0.03    0.32
  -7   0   0    0.23    0.44
  -7   0   0   -0.36    0.28
   7   0   0    0.20    0.11
   7   0   0   -0.61    0.37
   7   0   0    0.31    0.48
   7   0   0   -0.20    0.09
   7   1   0   -0.09    0.11
  -7  -1   0   -0.37    0.22
   7  -1   0    0.39    0.51
   7  -1   0    0.49    0.42
  -7  -1   0    0.14    0.45
  -7   1   0    0.05    0.40
  -7   1   0    0.04    0.35
   7   1   0    0.34    0.55
   7  -1   0    0.09    0.16
   7   1   0    0.03    0.10
   7   1   0   -0.64    0.38
   7  -1   0    0.10    0.21
  -7  -1   0    0.24    0.27
  -7   1   0   -0.09    0.38
   7  -2   0   -0.35    0.49
   7  -2   0    0.80    0.52
   7  -2   0    0.11    0.21
  -7  -2   0   -0.13    0.28
   7   2   0   -0.33    0.55
  -7   2   0   -0.51    0.48
  -7  -2   0    0.29    0.25
  -7   2   0    0.17    0.51
  -7  -2   0   -0.35    0.43
   7   2   0    0.31    0.21
  -7   3   0    0.44    0.64
   7   3   0    0.44    0.35
  -7   3   0    0.54    0.63
   7  -3   0   -0.36    0.41
   7  -3   0    0.67    0.57
   7   3   0   -0.95    0.58
  -7  -3   0    0.64    0.53
   7  -3   0    0.64    0.71
  -7  -3   0   -0.04    0.19
  -7  -3   0    0.25    0.19
   7  -4   0   -0.32    0.65
   7  -4   0    0.01    0.54
  -7   4   0   -0.71    0.64
   7   4   0   -0.51    0.57
  -7   4   0   -0.59    0.76
  -7   5   0    0.47    0.97
  -7   5   0    0.23    0.86
   7   5   0    0.51    0.76
   7  -5   0   -0.02    0.76
   7  -5   0    0.32    0.71
   7   6   0    0.16    1.30
  -7   6   0   -0.41    1.37
   7  -6   0    0.11    1.01
  -7   6   0    0.85    1.17
  -8   0   0   16.53    1.19
  -8   0   0   17.51    1.02
  -8   0   0   17.47    0.95
   8   0   0   19.57    1.42
  -8  -1   0   10.57    0.76
   8   1   0    9.70    1.06
   8  -1   0   11.33    1.19
  -8  -1   0   12.69    1.00
  -8   1   0    9.60    0.94
  -8  -1   0   10.46    0.89
  -8   1   0   10.67    1.01
  -8  -2   0    2.70    0.73
  -8  -2   0    2.82    0.36
   8  -2   0    3.21    0.82
  -8   2   0    2.53    0.75
   8  -2   0    3.21    0.32
   8   2   0    3.76    0.86
  -8   2   0    2.66    0.69
  -8  -2   0    2.77    0.44
   8  -3   0    8.12    0.86
  -8   3   0    5.56    0.91
   8  -3   0    6.82    1.03
   8   3   0    8.16    1.04
  -8  -3   0    8.42    0.96
  -8   3   0    5.92    1.02
  -8   4   0    7.62    1.22
  -8   4   0    6.06    1.09
   8   4   0    5.37    1.05
   8  -4   0    6.76    0.90
   8  -4   0    6.90    1.15
   8  -5   0    2.35    1.09
  -8   5   0    2.73    1.13
  -8   5   0    4.07    1.36
   8  -5   0    6.43    1.10
   8   5   0    4.50    1.17
  -9   0   0    0.08    0.47
   9   0   0   -0.39    0.78
  -9   0   0   -0.49    0.73
  -9  -1   0    0.13    0.41
   9  -1   0   -0.90    0.81
  -9  -1   0   -0.49    0.71
   9   1   0    0.21    0.86
  -9   1   0    0.51    0.63
  -9  -1   0    0.70    0.62
  -9   1   0   -0.31    0.77
  -9  -2   0    0.06    0.36
  -9  -2   0   -0.28    0.28
  -9   2   0   -0.11    0.82
  -9   2   0   -0.19    0.78
  -9  -2   0   -1.33    0.66
   9  -2   0   -1.18    0.88
   9   2   0   -0.64    0.81
   9  -3   0    1.09    1.05
  -9   3   0   -0.89    0.92
   9   3   0   -1.37    0.98
  -9  -3   0    0.93    0.91
  -9   3   0    0.61    0.88
   9  -4   0   -1.10    1.05
  -9   4   0   -0.11    0.93
   9   4   0    1.38    1.07
  -9   4   0   -1.62    1.07
 -10   0   0    0.01    0.62
  10   0   0   -0.54    0.95
 -10   0   0   -0.57    0.88
 -10  -1   0   17.93    1.12
 -10   1   0   18.12    1.55
  10   1   0   17.01    1.69
 -10   1   0   16.68    1.55
  10  -1   0   15.31    1.69
 -10  -1   0   17.29    1.60
 -10  -1   0   18.49    1.35
  10   2   0    0.16    1.02
 -10   2   0    3.17    0.92
  10  -2   0   -0.33    1.13
 -10   2   0    1.82    1.14
 -10  -2   0    1.73    1.08
   0   0   1    0.08    0.01
   0   0   1    0.07    0.03
   0   0  -1   -0.01    0.02
   0  -1  -1   -0.14    0.05
   0   1  -1    0.11    0.09
   0  -1   1    0.27    0.09
   0   1   1    0.05    0.06
   0   1  -1   -0.10    0.05
   0  -1   1   -0.01    0.07
   0   1  -1    0.03    0.08
   0  -1  -1   -0.09    0.06
   0   1   1    0.07    0.08
   0   1  -1    0.09    0.07
   0   1   1    0.01    0.07
   0   1   1    0.08    0.04
   0   1   1    0.01    0.07
   0  -1  -1    0.01    0.07
   0  -1   1    0.13    0.09
   0  -1  -1    0.06    0.04
   0  -1   1    0.15    0.06
   0   1  -1    0.20    0.09
   0  -1  -1    0.03    0.07
   0   2  -1   -0.02    0.05
   0  -2   1   -0.02    0.05
   0   2  -1    0.08    0.10
   0  -2  -1   -0.03    0.07
   0  -2  -1    0.06    0.11
   0  -2   1   -0.02    0.10
   0   2   1    0.05    0.10
   0  -2   1   -0.10    0.08
   0  -2  -1    0.01    0.08
   0   2   1   -0.12    0.07
   0   2   1   -0.05    0.08
   0   2  -1    0.01    0.09
   0   2   1    0.13    0.11
   0   2  -1    0.22    0.10
   0  -2  -1   -0.06    0.07
   0   2  -1    0.08    0.10
   0  -2   1   -0.06    0.07
   0   3   1   15.64    0.65
   0  -3   1   17.52    0.45
   0  -3  -1   16.29    0.65
   0  -3   1   16.81    0.71
   0   3  -1   16.64    0.71
   0  -3   1   16.44    0.66
   0  -3  -1   14.53    0.63
   0  -3   1   16.87    0.70
   0   3  -1   14.24    0.62
   0   3  -1   16.80    0.44
   0   3   1   16.01    0.67
   0   3  -1   15.89    0.65
   0   3   1   16.62    0.66
   0  -3  -1   15.69    0.63
   0   3  -1   17.46    0.72
   0   3   1   16.59    0.65
   0  -4   1    0.00    0.28
   0  -4   1    0.15    0.22
   0   4   1    0.00    0.31
   0   4  -1   -0.21    0.20
   0  -4   1   -0.08    0.23
   0  -4  -1   -0.05    0.19
   0   4   1    0.19    0.21
   0   4  -1   -0.14    0.33
   0  -4  -1    0.09    0.26
   0  -4  -1   -0.11    0.26
   0  -5  -1    1.87    0.46
   0   5   1    1.30    0.38
   0   5  -1    1.30    0.34
   0   5  -1    2.03    0.52
   0  -5  -1    1.83    0.36
   0  -5   1    1.42    0.43
   0  -5  -1    1.66    0.46
   0  -5   1    1.98    0.48
   0   5   1    2.08    0.52
   0  -5   1    2.39    0.53
   0   6  -1    0.00    0.59
   0  -6   1    0.04    0.49
   0   6   1    0.13    0.49
   0  -6  -1   -0.06    0.43
   0  -6   1   -0.02    0.55
   0  -6  -1   -0.46    0.48
   0   6  -1   -0.04    0.48
   0   6   1   -0.14    0.57
   0  -6  -1   -0.48    0.46
   0  -7  -1    2.78    0.78
   0   7  -1    2.93    0.89
   0   7   1    2.71    0.85
   0  -7  -1    2.75    0.78
   0  -7   1    2.81    0.85
   0  -7   1    3.11    0.85
   0   8  -1   -0.72    1.06
   0  -8   1   -0.65    0.95
   0  -8   1   -0.88    0.99
   0  -8  -1    0.09    0.99
   0  -8  -1   -0.30    1.00
   0   8   1    0.58    1.11
   1   0   1    2.62    0.17
   1   0   1    2.86    0.15
   1   0   1    2.73    0.13
   1   0  -1    2.88    0.15
   1   0   1    2.77    0.13
   1   0  -1    2.74    0.14
  -1   0  -1    2.63    0.14
  -1   0  -1    2.68    0.12
   1   0  -1    2.87    0.17
  -1   0  -1    2.72    0.13
  -1   0  -1    2.63    0.13
  -1   0   1    2.68    0.14
  -1   0  -1    2.71    0.16
   1   0   1    3.07    0.12
  -1   0   1    2.90    0.16
  -1   0   1    2.90    0.16
   1  -1  -1    9.73    0.34
   1  -1  -1    9.82    0.40
  -1   1  -1    9.36    0.39
  -1   1  -1    9.75    0.33
   1   1   1    9.95    0.31
   1   1   1    9.76    0.29
   1  -1  -1    9.74    0.32
   1  -1  -1    9.60    0.39
  -1  -1   1    9.23    0.33
   1   1   1    9.77    0.29
  -1  -1   1    8.82    0.33
  -1   1  -1    9.74    0.40
  -1   1  -1   10.09    0.38
   1   1   1    9.99    0.33
  -1  -1   1    9.34    0.33
  -1   1  -1    9.06    0.32
   1  -1  -1    9.69    0.35
  -1  -1   1    9.38    0.36
   1   1   1    9.67    0.35
  -1  -1  -1    9.35    0.28
   1   1  -1    9.56    0.37
  -1  -1  -1    9.88    0.31
  -1   1   1    9.73    0.35
  -1  -1  -1    9.65    0.29
   1  -1   1    9.39    0.38
   1   1  -1    9.96    0.37
  -1   1   1    9.38    0.39
   1  -1   1    9.48    0.40
   1  -1   1   10.27    0.34
   1   1  -1    9.27    0.32
  -1  -1  -1    9.28    0.35
   1  -1   1    9.51    0.32
  -1   1   1    9.87    0.40
  -1   1   1    9.50    0.32
   1   1  -1    9.43    0.33
  -1   1   1    9.77    0.34
   1   1  -1    9.61    0.34
   1  -1   1    8.95    0.37
  -1   2  -1    5.70    0.31
   1  -2  -1    5.54    0.21
   1   2   1    5.40    0.26
  -1   2  -1    5.52    0.33
  -1   2  -1    5.22    0.22
  -1   2  -1    5.18    0.33
   1  -2  -1    5.45    0.28
   1   2   1    5.24    0.19
   1   2   1    4.97    0.30
  -1   2  -1    5.34    0.28
   1   2   1    4.97    0.25
   1  -2  -1    5.55    0.32
  -1  -2   1    5.29    0.29
   1  -2  -1    4.90    0.30
  -1  -2   1    5.32    0.28
  -1  -2   1    5.09    0.29
   1   2   1    5.05    0.28
  -1  -2   1    5.21    0.23
   1  -2  -1    5.23    0.32
   1  -2   1    5.55    0.31
   1  -2   1    5.17    0.33
  -1  -2  -1    5.21    0.25
   1   2  -1    5.01    0.30
   1   2  -1    5.09    0.22
  -1   2   1    5.18    0.32
  -1   2   1    5.21    0.30
  -1   2   1    5.71    0.29
  -1  -2  -1    5.49    0.26
  -1   2   1    5.90    0.33
   1   2  -1    5.24    0.28
   1  -2   1    5.27    0.31
   1   2  -1    4.89    0.27
   1  -2   1    5.44    0.34
   1   2  -1    5.48    0.28
  -1  -2  -1    5.75    0.30
   1  -2   1    5.79    0.23
   1  -3  -1   -0.11    0.12
  -1  -3   1   -0.03    0.09
  -1   3  -1   -0.17    0.19
  -1   3  -1    0.26    0.13
   1   3   1    0.21    0.14
   1   3   1    0.06    0.04
   1  -3  -1   -0.03    0.05
  -1   3  -1   -0.18    0.14
   1   3   1    0.01    0.04
   1   3   1   -0.08    0.11
   1   3   1    0.20    0.19
  -1  -3   1   -0.07    0.13
  -1  -3   1    0.03    0.12
   1   3   1   -0.15    0.14
   1  -3  -1   -0.08    0.05
  -1  -3   1   -0.01    0.12
  -1   3  -1    0.06    0.07
   1  -3  -1    0.21    0.16
  -1   3   1   -0.16    0.15
   1   3  -1   -0.02    0.17
  -1  -3  -1    0.21    0.13
   1   3  -1    0.11    0.14
  -1  -3  -1    0.02    0.10
  -1  -3  -1    0.04    0.09
   1  -3   1   -0.01    0.14
   1  -3   1    0.11    0.08
   1   3  -1   -0.03    0.07
  -1   3   1   -0.03    0.13
   1  -3   1   -0.01    0.22
   1  -3   1    0.28    0.18
   1   3  -1   -0.15    0.19
   1   3  -1   -0.23    0.14
  -1   3   1    0.14    0.20
   1  -4  -1    0.48    0.29
  -1   4  -1    0.36    0.35
  -1  -4   1    0.18    0.20
  -1  -4   1    0.21    0.31
  -1   4  -1    0.44    0.22
   1   4   1    0.29    0.35
   1  -4  -1    0.59    0.26
   1   4   1    0.64    0.21
  -1  -4   1    0.59    0.31
   1  -4  -1    0.90    0.35
  -1  -4  -1    0.41    0.18
   1  -4   1    0.41    0.36
   1   4  -1    0.31    0.24
   1  -4   1    0.74    0.30
   1  -4   1    0.49    0.30
  -1   4   1    0.65    0.33
  -1  -4  -1    0.40    0.31
   1   4  -1    0.39    0.08
   1   4  -1    0.55    0.37
  -1  -4  -1    0.65    0.28
   1  -4   1    0.63    0.10
  -1   4   1    0.77    0.24
  -1  -5   1    4.43    0.59
  -1  -5   1    4.12    0.51
   1   5   1    4.41    0.69
   1  -5  -1    4.38    0.64
   1   5   1    5.05    0.52
  -1   5  -1    3.81    0.60
  -1   5  -1    4.37    0.56
   1  -5  -1    4.48    0.64
  -1  -5   1    3.99    0.56
   1  -5  -1    3.84    0.51
   1  -5   1    4.20    0.61
  -1  -5  -1    3.91    0.61
   1  -5   1    4.62    0.59
   1   5  -1    3.06    0.43
   1   5  -1    4.26    0.68
  -1  -5  -1    4.65    0.57
  -1   5   1    4.72    0.56
  -1   5   1    4.25    0.61
  -1  -5  -1    4.33    0.50
   1  -5   1    4.64    0.69
  -1   6  -1    0.24    0.54
  -1  -6   1    0.34    0.56
   1  -6  -1    0.90    0.56
  -1  -6   1    0.80    0.50
   1   6   1    1.04    0.62
   1  -6  -1    0.35    0.62
  -1   6  -1    0.76    0.48
  -1  -6   1    0.35    0.52
   1   6  -1    0.73    0.64
  -1   6   1   -0.18    0.48
  -1  -6  -1    0.33    0.47
  -1  -6  -1    0.85    0.55
  -1  -6  -1    0.85    0.43
   1  -6   1    1.20    0.61
   1  -6   1    1.19    0.55
  -1   6   1    0.12    0.54
   1  -7  -1    0.33    0.76
  -1   7  -1    0.31    0.79
  -1  -7   1    1.31    0.73
  -1  -7   1    0.93    0.78
   1   7   1    0.47    0.82
   1  -7  -1    0.52    0.70
  -1   7   1    0.02    0.69
  -1  -7  -1    0.77    0.64
  -1  -7  -1    0.34    0.74
   1  -7   1    0.33    0.70
   1   7  -1    1.79    0.86
   1  -7   1    0.89    0.84
   1  -8  -1   -0.86    0.98
   1  -8  -1   -0.90    1.08
  -1   8  -1   -0.55    1.14
  -1  -8   1   -1.54    1.01
  -1  -8   1   -0.02    0.88
   1   8   1   -0.04    0.98
   1  -8   1    0.10    1.04
   1   8  -1   -1.07    1.05
  -1  -8  -1    0.79    0.88
   1  -8   1   -1.56    1.05
  -1  -8  -1   -1.09    1.00
  -1   8   1    0.61    1.15
   2   0  -1   18.19    0.61
   2   0   1   18.95    0.57
   2   0  -1   18.17    0.59
   2   0   1   18.74    0.59
  -2   0  -1   19.47    0.57
   2   0   1   18.78    0.53
  -2   0   1   18.30    0.57
  -2   0  -1   17.27    0.53
   2   0  -1   19.55    0.58
   2   0   1   20.05    0.57
  -2   0   1   17.96    0.59
  -2   0  -1   19.24    0.57
   2   0   1   18.31    0.56
  -2   0  -1   18.48    0.57
  -2   0   1   17.85    0.61
   2  -1  -1  347.81    8.65
  -2   1  -1  345.43    7.72
  -2  -1   1  352.36    8.57
   2   1   1  354.33    7.70
   2  -1  -1  357.45    7.65
   2   1   1  357.73    7.62
  -2   1  -1  359.34    8.10
  -2   1  -1  349.45    7.61
  -2   1  -1  353.67    8.64
  -2  -1   1  361.70    8.58
  -2  -1   1  330.08    7.96
   2  -1  -1  362.24    8.66
   2  -1  -1  355.96    7.75
  -2  -1   1  353.55    7.76
   2   1   1  357.89    8.03
   2  -1  -1  354.69    7.99
  -2  -1   1  357.03    7.66
   2   1  -1  357.24    8.57
   2  -1   1  342.96    8.62
   2  -1   1  356.37    7.72
  -2  -1  -1  356.40    7.62
   2   1  -1  354.64    7.96
  -2   1   1  349.03    8.66
  -2  -1  -1  353.15    8.04
  -2   1   1  354.35    8.00
  -2   1   1  348.15    7.65
  -2  -1  -1  352.65    7.70
   2   1  -1  353.31    7.75
   2   1  -1  343.56    7.64
   2  -1   1  356.35    8.64
  -2   1   1  360.83    8.66
   2  -1   1  358.18    7.61
   2  -1   1  346.06    8.08
   2   1  -1  357.71    8.57
  -2   2  -1   31.82    1.00
   2  -2  -1   32.34    1.10
   2   2   1   33.39    0.87
  -2   2  -1   32.50    0.89
  -2   2  -1   31.26    1.08
  -2  -2   1   33.69    0.94
  -2   2  -1   31.12    1.08
  -2  -2   1   35.07    1.00
   2  -2  -1   34.33    0.98
  -2   2  -1   33.27    0.96
   2   2   1   34.00    0.96
   2   2   1   34.35    0.89
  -2  -2   1   31.80    0.99
   2  -2  -1   32.33    0.90
  -2  -2   1   32.77    0.94
   2   2   1   34.42    0.89
   2   2   1   32.25    0.95
   2  -2  -1   33.32    1.10
   2  -2  -1   33.64    0.97
  -2  -2   1   33.49    1.00
  -2  -2  -1   32.19    0.89
  -2  -2  -1   34.55    0.90
   2   2  -1   32.08    0.99
   2  -2   1   34.82    0.96
   2  -2   1   30.94    1.07
  -2   2   1   33.95    1.11
   2  -2   1   31.92    1.00
  -2   2   1   32.97    0.98
   2   2  -1   32.68    1.00
   2   2  -1   33.81    0.95
   2   2  -1   34.39    0.98
  -2   2   1   32.37    0.97
   2   2  -1   31.14    0.90
   2  -2   1   29.64    1.07
  -2   2   1   34.05    1.12
  -2  -2  -1   30.39    0.95
   2  -2   1   33.05    0.90
   2  -3  -1  108.32    2.48
  -2   3  -1  104.26    2.63
   2   3   1  112.87    2.78
  -2  -3   1  101.38    2.87
  -2  -3   1  108.06    2.87
  -2   3  -1  104.57    2.48
  -2   3  -1  109.93    3.02
   2  -3  -1  108.30    2.99
   2   3   1  104.43    2.47
  -2   3  -1  106.15    3.00
   2   3   1  102.43    2.70
  -2  -3   1  107.44    2.73
   2   3   1  107.98    2.44
   2  -3  -1  107.34    2.76
   2  -3  -1  104.32    3.00
   2  -3  -1  108.93    2.46
  -2   3   1  107.74    3.00
  -2   3   1  106.99    3.00
  -2  -3  -1  106.47    2.78
   2   3  -1  109.59    2.50
   2  -3   1  107.04    2.49
  -2  -3  -1  103.94    2.77
  -2   3   1  108.37    2.69
   2   3  -1  107.09    2.73
   2  -3   1  107.92    3.00
  -2  -3  -1  107.53    2.77
   2  -3   1  107.90    3.03
   2  -4  -1    3.26    0.21
   2  -4  -1    3.80    0.48
   2  -4  -1    2.54    0.48
   2   4   1    3.02    0.33
  -2   4  -1    3.38    0.50
   2  -4  -1    3.50    0.44
   2   4   1    3.77    0.20
  -2   4  -1    3.36    0.43
  -2   4  -1    2.90    0.48
  -2  -4   1    3.69    0.49
   2   4   1    3.52    0.20
   2  -4  -1    3.44    0.23
  -2  -4   1    3.42    0.38
  -2  -4   1    3.39    0.42
   2   4   1    3.44    0.54
   2   4  -1    4.19    0.40
  -2   4   1    3.12    0.42
   2  -4   1    4.24    0.49
  -2   4   1    3.03    0.47
   2  -4   1    2.89    0.27
  -2  -4  -1    2.57    0.33
   2   4  -1    3.53    0.24
   2  -4   1    3.13    0.47
  -2  -4  -1    3.13    0.34
  -2  -4  -1    4.21    0.54
   2   4  -1    3.49    0.52
   2  -4   1    3.67    0.43
   2  -5  -1  100.66    2.95
   2  -5  -1   98.36    3.11
   2   5   1  101.86    2.87
  -2  -5   1   97.01    2.93
  -2   5  -1  104.99    2.88
  -2  -5   1   97.06    2.89
   2  -5  -1  100.95    3.19
   2   5   1  100.77    2.94
  -2  -5   1  102.45    3.01
  -2   5  -1  103.41    3.14
  -2  -5  -1  100.35    2.90
   2   5  -1   99.03    2.26
  -2  -5  -1   98.99    2.93
  -2   5   1  100.30    2.86
   2   5  -1  101.04    2.94
   2  -5   1  103.37    3.20
  -2  -5  -1  100.27    2.86
   2   5  -1  101.61    2.95
  -2   5   1   97.71    3.07
   2  -5   1  101.14    2.32
   2  -5   1  100.95    2.30
   2  -5   1  104.33    2.99
   2   5  -1  100.81    2.27
   2  -5   1  105.79    3.25
  -2  -6   1    3.29    0.72
  -2  -6   1    3.32    0.67
  -2  -6   1    3.14    0.51
  -2   6  -1    2.78    0.63
  -2   6  -1    2.33    0.69
   2   6   1    3.92    0.87
   2  -6  -1    3.28    0.71
   2  -6  -1    3.82    0.77
  -2  -6  -1    3.01    0.70
  -2   6   1    1.97    0.65
  -2   6   1    3.13    0.65
  -2  -6  -1    3.61    0.51
   2   6  -1    2.72    0.71
   2  -6   1    2.87    0.81
   2  -6   1    3.47    0.69
  -2  -6  -1    2.22    0.52
   2  -7  -1   17.60    1.68
   2   7   1   15.33    1.50
  -2  -7   1   17.05    1.35
   2  -7  -1   14.62    1.40
  -2  -7   1   15.17    1.40
  -2   7  -1   13.22    1.38
  -2   7   1   15.93    1.45
   2   7  -1   16.82    1.59
  -2  -7  -1   16.81    1.23
   2  -7   1   15.12    1.34
   2  -7   1   14.83    1.73
  -2  -7  -1   14.81    1.48
  -2  -8   1   -0.63    0.85
  -2  -8   1   -0.02    1.05
   2   8   1   -0.67    1.09
  -2   8  -1    1.40    1.16
   2  -8  -1   -1.45    1.08
   2  -8  -1   -0.31    1.15
  -2   8   1   -0.18    1.09
  -2  -8  -1    0.12    0.79
   2  -8   1    0.66    1.39
   2  -8   1    2.60    1.03
   2   8  -1    0.90    1.16
  -2  -8  -1   -0.51    1.02
  -3   0  -1  399.99    9.54
   3   0   1  389.26    8.65
  -3   0  -1  405.68    9.54
   3   0  -1  399.69    8.73
  -3   0   1  398.37    9.61
   3   0   1  404.25    9.53
  -3   0   1  389.10    9.61
   3   0  -1  382.71    9.60
  -3   0   1  388.11    8.55
  -3   0  -1  390.94    8.50
   3   0  -1  399.60    9.61
   3   0   1  371.93    8.95
   3   0  -1  395.91    8.54
   3   0   1  390.24    8.50
   3   0   1  392.46    9.52
   3  -1  -1   46.79    1.25
  -3   1  -1   46.85    1.28
  -3  -1   1   44.52    1.24
   3   1   1   45.55    1.22
   3   1   1   45.32    1.19
   3  -1  -1   43.30    1.36
   3  -1  -1   44.97    1.28
  -3   1  -1   43.74    1.22
  -3  -1   1   45.84    1.30
  -3   1  -1   45.00    1.21
   3  -1  -1   45.38    1.38
   3   1   1   45.81    1.21
  -3  -1   1   45.97    1.10
   3   1   1   47.41    1.16
   3  -1  -1   44.50    1.14
   3   1   1   45.25    1.16
  -3   1  -1   44.95    1.36
  -3  -1   1   42.42    1.27
   3  -1   1   45.29    1.36
   3   1  -1   44.60    1.10
  -3  -1  -1   45.10    1.16
   3   1  -1   44.25    1.27
   3  -1   1   46.95    1.26
  -3   1   1   46.58    1.17
  -3   1   1   45.63    1.25
   3   1  -1   40.85    1.27
   3  -1   1   46.15    1.23
  -3   1   1   44.55    1.38
   3   1  -1   46.21    1.29
  -3  -1  -1   46.57    1.16
  -3  -1  -1   43.43    1.20
   3  -1   1   47.54    1.36
   3  -1   1   46.45    1.21
  -3   1   1   43.27    1.36
   3   1  -1   46.29    1.24
   3  -2  -1  156.32    3.60
   3  -2  -1  159.31    4.14
  -3   2  -1  153.68    3.84
   3   2   1  159.91    3.76
   3   2   1  157.53    3.78
  -3  -2   1  152.25    3.95
  -3  -2   1  157.56    3.96
   3  -2  -1  154.69    4.14
  -3  -2   1  158.27    3.70
  -3   2  -1  157.90    3.63
  -3   2  -1  157.45    4.13
  -3   2  -1  160.87    4.14
   3   2   1  153.03    3.68
   3   2   1  155.10    3.60
   3   2   1  156.67    3.63
   3  -2  -1  150.88    3.74
   3   2   1  159.73    3.78
  -3  -2   1  158.07    3.67
   3  -2  -1  157.27    3.67
   3  -2   1  161.61    4.15
  -3   2   1  160.21    4.15
  -3   2   1  152.86    4.14
   3   2  -1  148.29    3.64
   3   2  -1  155.22    3.96
  -3  -2  -1  160.11    3.79
   3  -2   1  154.81    3.82
  -3   2   1  153.96    3.76
   3   2  -1  155.79    3.70
  -3  -2  -1  153.68    3.78
  -3  -2  -1  153.69    3.76
  -3  -2  -1  156.33    3.64
  -3   2   1  150.88    3.65
   3  -2   1  160.73    4.12
   3  -2   1  156.09    3.62
   3   2  -1  155.51    3.95
   3  -2   1  156.82    3.62
  -3   3  -1   16.82    0.80
   3  -3  -1   14.55    0.76
  -3   3  -1   16.19    0.75
   3  -3  -1   15.46    0.60
   3  -3  -1   16.24    0.82
  -3  -3   1   15.67    0.69
  -3   3  -1   16.64    0.83
   3   3   1   15.46    0.58
   3  -3  -1   16.65    0.61
   3   3   1   16.30    0.55
  -3  -3   1   16.50    0.66
   3   3   1   16.21    0.61
   3  -3  -1   15.14    0.65
  -3  -3   1   16.52    0.64
   3  -3   1   15.91    0.79
   3   3  -1   16.65    0.67
  -3  -3  -1   16.64    0.55
  -3  -3  -1   16.39    0.68
  -3   3   1   17.55    0.86
  -3   3   1   16.61    0.79
   3   3  -1   16.28    0.66
  -3  -3  -1   15.99    0.57
  -3   3   1   16.47    0.81
   3  -3   1   18.40    0.87
   3   3  -1   16.26    0.61
   3  -3   1   16.80    0.63
   3   4   1   47.91    1.25
   3   4   1   48.18    1.69
   3  -4  -1   46.41    1.26
   3   4   1   46.46    1.38
   3  -4  -1   46.98    1.56
  -3   4  -1   45.44    1.69
  -3   4  -1   47.55    1.56
   3  -4  -1   47.47    1.28
  -3  -4   1   46.59    1.54
  -3   4  -1   44.26    1.76
  -3  -4   1   45.72    1.49
   3  -4  -1   46.72    1.75
  -3  -4   1   47.57    1.55
   3  -4  -1   51.50    1.82
   3   4   1   46.44    1.26
   3  -4   1   46.52    1.30
   3  -4   1   45.34    1.75
   3  -4   1   48.94    1.62
  -3   4   1   46.58    1.72
  -3  -4  -1   48.62    1.60
   3   4  -1   48.10    1.51
   3   4  -1   44.86    1.28
   3  -4   1   42.83    1.67
  -3  -4  -1   47.07    1.41
  -3   4   1   45.14    1.57
   3   4  -1   44.63    1.27
  -3  -4  -1   47.41    1.40
   3  -5  -1   16.03    0.97
  -3   5  -1   16.25    1.04
   3  -5  -1   17.08    0.56
  -3   5  -1   14.50    0.96
   3   5   1   12.73    0.80
  -3  -5   1   14.52    0.99
  -3  -5   1   15.27    0.82
  -3  -5   1   15.66    0.93
   3  -5  -1   15.15    0.56
   3  -5  -1   16.07    1.20
   3   5   1   15.89    0.52
   3  -5  -1   15.21    1.22
   3   5   1   16.88    1.14
   3   5   1   15.88    0.51
   3  -5   1   15.21    0.65
  -3   5   1   14.86    0.94
   3   5  -1   15.08    1.12
   3  -5   1   15.19    0.61
   3   5  -1   15.59    0.61
  -3   5   1   15.11    1.02
  -3  -5  -1   16.20    0.80
   3  -5   1   16.49    1.23
   3   5  -1   15.74    0.57
  -3  -5  -1   15.92    0.73
   3  -5   1   17.74    1.07
   3   5  -1   16.46    0.94
  -3  -5  -1   15.64    1.07
   3  -5   1   16.00    1.17
  -3   6  -1    3.53    0.98
   3   6   1    6.89    0.96
  -3  -6   1    4.99    0.59
  -3  -6   1    4.65    0.67
   3  -6  -1    5.01    0.91
  -3   6  -1    5.06    0.83
   3  -6  -1    4.42    0.79
  -3  -6   1    3.93    0.76
   3  -6   1    4.82    0.80
  -3   6   1    4.27    0.72
  -3  -6  -1    4.35    0.68
   3  -6   1    4.68    0.94
  -3   6   1    5.32    0.82
   3   6  -1    4.17    0.84
  -3  -6  -1    3.74    0.80
  -3  -6  -1    3.82    0.54
  -3  -7   1    2.07    0.95
   3   7   1    3.51    1.13
   3  -7  -1    2.35    1.11
   3  -7  -1    2.80    0.93
  -3  -7   1    3.24    0.72
  -3   7  -1    3.62    0.99
  -3   7   1    2.79    0.94
   3  -7   1    4.61    0.95
  -3  -7  -1    3.30    1.01
  -3  -7  -1    3.64    0.63
   3  -7   1    3.14    1.13
   3   7  -1    3.52    1.14
  -3  -8   1   -0.18    0.82
   3  -8  -1    0.29    1.41
  -3   8  -1    1.88    1.36
  -3  -8   1    1.47    1.21
   3  -8  -1    0.05    1.10
   3   8   1    0.54    1.18
  -3   8   1    2.09    1.20
   3  -8   1    0.90    1.43
   3   8  -1   -0.37    1.28
  -3  -8  -1    1.50    1.19
  -3  -8  -1    0.49    0.76
   3  -8   1    3.53    1.13
  -4   0  -1  101.01    2.50
   4   0  -1  105.78    2.85
  -4   0   1  104.26    2.79
  -4   0  -1   99.70    2.71
  -4   0  -1  106.03    2.71
   4   0   1  103.49    2.50
   4   0   1  105.33    2.70
  -4   0   1   99.01    2.77
   4   0   1  105.77    2.56
   4   0  -1  105.63    2.79
   4   0  -1  102.24    2.64
  -4   0   1  101.00    2.54
  -4  -1   1   41.49    1.22
   4   1   1   40.93    1.10
  -4   1  -1   39.69    1.16
  -4  -1   1   40.83    1.23
   4  -1  -1   40.05    1.03
   4   1   1   40.74    1.10
   4  -1  -1   41.15    1.33
  -4   1  -1   32.74    1.24
  -4   1  -1   38.65    1.20
  -4  -1   1   38.72    1.17
   4  -1  -1   39.69    1.32
   4   1   1   40.11    1.19
  -4   1  -1   38.73    1.28
   4   1   1   39.37    1.22
  -4   1   1   41.48    1.32
  -4   1   1   41.25    1.20
  -4  -1  -1   40.61    1.10
   4  -1   1   40.41    1.15
   4  -1   1   39.92    1.28
  -4   1   1   38.87    1.30
  -4   1   1   40.53    1.07
   4   1  -1   40.92    0.97
  -4  -1  -1   39.11    1.15
   4  -1   1   39.21    1.14
   4   1  -1   38.80    1.20
  -4  -2   1  123.95    3.32
   4   2   1  130.89    3.12
   4  -2  -1  123.68    3.17
   4  -2  -1  125.52    3.53
  -4  -2   1  127.53    3.06
   4  -2  -1  126.71    3.54
   4  -2  -1  129.91    3.13
   4   2   1  127.28    3.14
  -4   2  -1  128.54    3.55
  -4   2  -1  126.37    3.27
  -4  -2   1  127.23    3.33
  -4   2  -1  132.18    3.56
   4   2   1  127.26    3.19
  -4  -2   1  131.43    3.19
  -4   2   1  130.18    3.56
   4   2  -1  132.18    3.32
  -4   2   1  131.30    3.19
   4  -2   1  128.07    3.22
  -4  -2  -1  126.77    3.15
   4   2  -1  128.83    3.07
   4  -2   1  124.42    3.51
  -4   2   1  127.16    3.55
  -4  -2  -1  128.94    3.14
  -4   2   1  123.54    3.16
  -4  -2  -1  129.93    3.12
   4   2  -1  128.23    3.17
  -4  -2  -1  127.65    3.12
  -4   3  -1   45.80    1.65
   4  -3  -1   44.23    1.37
   4  -3  -1   48.09    1.66
  -4  -3   1   50.69    1.57
  -4  -3   1   46.41    1.44
   4  -3  -1   45.67    1.39
   4   3   1   44.51    1.38
  -4  -3   1   46.96    1.36
  -4  -3   1   45.65    1.41
  -4   3  -1   46.54    1.72
   4  -3  -1   42.61    1.78
  -4   3  -1   48.01    1.50
  -4   3   1   46.85    1.71
   4   3  -1   48.34    1.42
   4  -3   1   45.54    1.50
  -4  -3  -1   45.62    1.21
  -4  -3  -1   43.34    1.21
   4   3  -1   45.44    1.36
  -4  -3  -1   45.62    1.40
  -4   3   1   49.67    1.68
  -4   3   1   48.64    1.54
   4  -3   1   47.01    1.65
   4   3  -1   43.94    1.35
  -4   4  -1   30.91    1.54
  -4   4  -1   34.67    1.38
  -4  -4   1   34.91    1.32
  -4  -4   1   35.31    1.22
   4  -4  -1   36.78    1.37
  -4   4  -1   36.20    1.63
   4  -4  -1   39.12    1.54
  -4  -4   1   34.83    1.26
   4   4   1   34.38    1.11
   4  -4  -1   36.91    1.14
  -4  -4  -1   36.29    1.09
  -4  -4  -1   36.08    1.08
   4  -4   1   34.11    1.47
   4  -4   1   37.60    1.31
  -4  -4  -1   34.58    1.34
   4   4  -1   36.65    1.25
  -4   4   1   38.27    1.64
   4  -4   1   37.07    1.40
  -4   4   1   38.14    1.46
   4   4  -1   39.57    1.17
   4  -5  -1    4.69    0.88
   4   5   1    4.74    0.80
  -4   5  -1    2.44    0.77
   4  -5  -1    3.85    0.35
  -4  -5   1    4.34    0.52
  -4  -5   1    5.34    0.56
   4  -5  -1    3.92    0.64
  -4  -5   1    5.15    0.71
  -4   5  -1    3.80    0.66
   4   5   1    4.52    0.40
   4  -5   1    4.43    0.67
  -4   5   1    4.84    0.85
   4   5  -1    4.48    0.45
  -4   5   1    4.08    0.70
   4   5  -1    4.90    0.86
  -4  -5  -1    5.00    0.57
  -4  -5  -1    3.65    0.65
  -4  -5  -1    3.87    0.46
   4  -5   1    3.00    0.39
   4  -5   1    3.44    0.80
  -4  -6   1   23.78    1.25
   4  -6  -1   25.65    1.52
   4   6   1   22.51    1.59
  -4  -6   1   24.64    1.44
  -4  -6   1   25.31    1.48
  -4   6  -1   24.86    1.97
  -4   6  -1   23.67    1.48
   4  -6  -1   23.84    1.79
  -4  -6  -1   22.94    1.40
   4  -6   1   24.50    1.94
   4   6  -1   24.39    1.60
  -4   6   1   24.49    2.00
  -4  -6  -1   24.14    1.14
   4  -6   1   23.65    1.44
  -4   6   1   22.92    1.47
  -4  -6  -1   24.81    1.04
   4  -7  -1    7.18    1.45
  -4  -7   1    9.12    1.20
  -4   7  -1    7.38    1.16
  -4  -7   1   10.43    1.12
   4  -7  -1    9.66    1.23
   4   7   1    9.49    1.37
  -4  -7  -1    8.72    1.19
   4  -7   1   10.28    1.20
   4   7  -1   11.11    1.41
  -4  -7  -1   10.34    1.18
  -4   7   1    9.82    1.33
   4  -7   1   11.13    1.55
  -4  -7  -1    8.11    0.89
   5   0   1   28.12    0.96
  -5   0   1   26.56    1.00
  -5   0  -1   30.02    1.05
   5   0   1   28.39    0.88
   5   0  -1   28.34    1.03
  -5   0   1   27.30    1.05
  -5   0   1   27.75    1.06
  -5   0  -1   27.63    0.99
   5   0   1   29.06    0.84
   5   0  -1   28.25    1.14
  -5   0  -1   27.92    0.96
   5   1   1   88.97    2.20
  -5  -1   1   87.00    2.43
   5   1   1   91.11    2.53
  -5  -1   1   83.69    2.34
  -5   1  -1   87.92    2.53
  -5   1  -1   89.82    2.36
   5   1   1   86.85    2.30
   5  -1  -1   90.14    2.12
  -5   1  -1   88.82    2.33
  -5  -1   1   87.30    2.45
   5  -1  -1   88.99    2.56
   5  -1  -1   86.33    2.47
  -5   1  -1   82.85    2.53
   5   1   1   88.46    2.31
  -5  -1  -1   88.21    2.31
  -5  -1  -1   88.33    2.31
  -5   1   1   89.11    2.38
   5   1  -1   90.16    2.02
  -5   1   1   90.21    2.62
   5   1  -1   85.66    2.42
  -5  -1  -1   87.76    2.32
   5   1  -1   88.02    2.47
  -5   1   1   91.48    2.19
   5  -1   1   86.04    2.25
   5  -1   1   86.68    2.51
   5   1  -1   89.80    2.01
  -5   2  -1   37.62    1.48
   5  -2  -1   39.61    1.15
   5   2   1   40.10    1.18
  -5   2  -1   41.30    1.36
   5  -2  -1   39.68    1.45
  -5  -2   1   39.62    1.24
  -5  -2   1   38.81    1.27
  -5  -2   1   35.96    1.34
   5   2   1   41.25    1.43
  -5   2  -1   38.91    1.32
   5  -2  -1   40.39    1.43
  -5   2  -1   41.87    1.48
  -5  -2  -1   40.37    1.35
   5  -2   1   39.74    1.44
   5   2  -1   39.01    1.26
   5  -2   1   39.16    1.23
  -5   2   1   38.68    1.22
  -5   2   1   39.28    1.54
  -5  -2  -1   41.76    1.06
  -5   2   1   39.38    1.49
   5   2  -1   39.86    1.08
  -5   2   1   40.14    1.40
   5   2  -1   38.60    1.39
  -5  -3   1   52.01    1.54
  -5   3  -1   51.46    1.94
   5  -3  -1   50.51    1.86
  -5  -3   1   52.11    1.46
  -5  -3   1   51.92    1.71
   5   3   1   50.47    1.68
   5  -3  -1   52.68    1.71
  -5   3  -1   52.01    1.67
  -5   3  -1   50.84    1.84
  -5   3   1   49.84    1.92
   5  -3   1   49.18    1.82
   5  -3   1   52.39    1.74
  -5   3   1   50.36    1.70
  -5   3   1   52.04    1.92
   5   3  -1   51.30    1.69
  -5  -3  -1   51.39    1.69
   5  -3   1   50.71    1.64
   5   3  -1   50.00    1.47
   5   3  -1   47.95    1.53
   5  -4  -1   14.39    0.99
  -5   4  -1   14.38    1.18
  -5  -4   1   14.86    0.87
  -5  -4   1   13.91    0.75
  -5   4  -1   13.09    0.99
   5  -4  -1   13.25    0.86
   5   4   1   13.19    0.87
  -5  -4   1   15.17    0.78
   5  -4  -1   14.22    0.91
   5  -4   1   16.34    1.01
  -5   4   1   14.23    1.18
   5   4  -1   14.66    0.88
  -5  -4  -1   14.49    0.91
  -5   4   1   13.24    0.99
   5  -4   1   14.28    0.97
   5  -4   1   12.20    0.98
   5  -5  -1   36.55    1.58
   5  -5  -1   34.33    2.01
   5   5   1   35.25    1.80
   5   5   1   33.93    1.33
  -5   5  -1   35.97    1.66
  -5  -5   1   33.50    1.31
  -5  -5   1   35.10    1.48
  -5  -5   1   33.22    1.38
  -5   5  -1   36.01    1.96
   5  -5  -1   32.98    1.36
   5  -5   1   37.74    2.02
   5  -5   1   35.47    1.45
  -5  -5  -1   34.75    1.53
  -5  -5  -1   34.84    0.95
  -5   5   1   32.38    1.57
  -5  -5  -1   35.64    0.96
   5  -5   1   35.83    1.61
  -5   5   1   35.28    1.97
   5   5  -1   34.58    1.38
  -5   6  -1   10.72    1.19
  -5  -6   1   11.59    0.95
   5  -6  -1   10.87    1.48
  -5  -6   1    9.11    0.88
   5   6   1   10.27    1.24
  -5   6  -1    9.92    1.42
  -5  -6   1    9.71    1.08
   5  -6  -1   14.57    1.35
  -5   6   1   11.22    1.19
   5   6  -1    8.90    1.26
  -5  -6  -1   10.88    0.56
   5  -6   1   13.51    1.56
  -5   6   1    9.69    1.49
   5  -6   1    9.76    1.13
  -5  -6  -1   11.84    1.32
  -5  -6  -1    9.81    0.51
   5  -7  -1    9.88    1.38
   5   7   1   10.45    1.59
   5  -7  -1    9.45    1.88
  -5  -7   1    9.00    1.05
  -5   7  -1    8.20    1.27
  -5  -7   1    7.35    1.27
   5   7  -1    8.96    1.40
  -5   7   1   10.52    1.39
  -5  -7  -1   10.12    1.36
   5  -7   1    9.77    1.25
   5  -7   1    9.80    1.82
   6   0   1   11.88    0.50
  -6   0  -1   11.46    0.74
  -6   0  -1   12.25    0.60
   6   0  -1   11.38    0.67
   6   0   1   11.75    0.91
  -6   0  -1   10.60    0.64
   6   0  -1    9.54    0.81
  -6   0   1   11.66    0.77
  -6   0   1   11.07    0.74
   6   0   1   12.10    0.51
  -6   0   1   10.15    0.61
   6   0   1   11.86    0.67
  -6  -1   1   13.92    0.73
  -6   1  -1   13.88    0.82
   6  -1  -1   14.06    0.95
   6   1   1   12.79    0.55
   6   1   1   13.85    0.62
   6   1   1   13.96    0.58
   6  -1  -1   14.25    0.80
   6  -1  -1   14.15    0.43
  -6   1  -1   13.64    0.73
   6   1   1   13.60    0.94
  -6  -1   1   12.64    0.65
  -6   1  -1   12.76    0.78
  -6  -1   1   13.52    0.82
   6  -1   1   14.82    0.98
  -6   1   1   13.76    0.90
  -6  -1  -1   13.68    0.78
  -6   1   1   12.64    0.83
   6  -1   1   13.55    0.58
  -6  -1  -1   14.13    0.58
  -6  -1  -1   13.77    0.61
  -6   1   1   13.20    0.75
   6  -1   1   14.12    0.79
   6   1  -1   12.88    0.90
   6   1  -1   13.79    0.70
  -6   2  -1    1.24    0.44
   6   2   1    1.70    0.48
   6  -2  -1    0.90    0.46
   6   2   1    1.03    0.28
   6  -2  -1    2.00    0.41
  -6  -2   1    1.23    0.29
  -6   2  -1    1.55    0.50
   6  -2  -1    1.36    0.20
   6   2   1    1.96    0.29
  -6  -2   1    1.51    0.46
  -6  -2   1    1.89    0.25
   6   2  -1    1.41    0.34
   6   2  -1    1.20    0.18
  -6  -2  -1    1.55    0.19
   6   2  -1    1.74    0.18
   6  -2   1    1.46    0.53
  -6   2   1    1.19    0.43
  -6  -2  -1    1.83    0.42
  -6  -2  -1    1.38    0.17
   6  -2   1    1.77    0.39
  -6   2   1    1.58    0.48
  -6   2   1    1.52    0.49
   6  -2   1    1.60    0.28
   6   2  -1    1.36    0.52
  -6   2   1    2.11    0.35
  -6  -3   1    4.16    0.44
  -6   3  -1    3.45    0.68
  -6  -3   1    4.78    0.61
   6  -3  -1    3.93    0.62
   6   3   1    3.62    0.65
  -6   3  -1    3.70    0.62
   6  -3  -1    3.94    0.48
  -6   3  -1    3.83    0.63
   6  -3  -1    2.97    0.50
  -6  -3   1    4.19    0.42
  -6   3   1    3.51    0.63
  -6   3   1    4.73    0.76
   6  -3   1    4.06    0.54
   6   3  -1    3.99    0.63
   6  -3   1    3.23    0.52
  -6  -3  -1    3.49    0.58
   6  -3   1    5.26    0.74
  -6   3   1    4.42    0.70
   6   3  -1    3.38    0.44
  -6  -4   1    5.00    0.58
  -6   4  -1    4.08    0.75
  -6   4  -1    4.89    0.79
   6  -4  -1    3.37    0.68
   6  -4  -1    4.77    0.68
  -6  -4   1    4.30    0.44
   6  -4  -1    4.85    0.64
   6   4   1    4.03    0.68
  -6  -4   1    5.22    0.60
  -6   4   1    3.66    0.81
   6  -4   1    3.23    0.62
   6  -4   1    5.49    0.68
   6   4  -1    4.12    0.67
   6  -4   1    4.60    0.73
  -6   4   1    6.01    0.79
  -6   5  -1    9.70    1.04
  -6  -5   1    9.08    0.79
   6  -5  -1    8.73    0.91
  -6  -5   1    8.37    0.68
   6  -5  -1    9.18    1.34
  -6   5  -1   12.89    1.47
  -6  -5   1   10.08    0.90
   6   5   1   10.41    1.06
   6  -5  -1    9.70    0.99
   6  -5   1    8.41    0.93
   6   5  -1    9.61    0.91
   6  -5   1    9.40    1.44
   6  -5   1    8.93    0.98
  -6   5   1    9.71    1.19
  -6   5   1   10.57    1.12
  -6  -5  -1    9.78    1.04
  -6   6  -1    0.36    0.89
  -6  -6   1    0.58    0.55
  -6  -6   1    0.91    0.41
  -6  -6   1   -0.65    0.85
  -6   6  -1   -0.40    1.19
   6  -6  -1    0.98    0.91
   6   6   1   -1.02    1.06
   6  -6  -1    0.98    1.32
  -6   6   1   -0.58    1.16
  -6   6   1   -0.26    0.86
   6   6  -1    0.55    1.03
  -6  -6  -1    0.94    0.85
   6  -6   1   -0.71    0.84
  -7   0  -1   36.86    1.37
  -7   0  -1   38.27    1.49
  -7   0   1   39.75    1.55
  -7   0   1   37.06    1.44
   7   0   1   38.60    1.10
   7   0  -1   37.56    1.44
  -7   0  -1   37.45    1.31
   7   0   1   34.55    1.36
   7   0   1   39.19    1.66
  -7   0   1   36.92    1.40
   7   0  -1   37.36    1.64
   7   0   1   36.85    1.08
   7  -1  -1    9.86    0.96
   7   1   1    8.80    0.51
  -7  -1   1    9.25    0.83
   7   1   1    9.76    0.95
   7  -1  -1    8.26    0.81
  -7   1  -1    8.77    0.82
  -7   1  -1    8.83    0.82
  -7  -1   1    9.69    0.63
   7   1   1    9.80    0.50
  -7  -1   1    8.91    0.71
  -7   1  -1    9.36    0.74
   7   1  -1    8.75    0.92
   7   1  -1    7.99    0.75
  -7   1   1    9.87    0.91
  -7   1   1    8.42    0.76
   7  -1   1   10.77    1.00
   7  -1   1   10.18    0.50
  -7  -1  -1    8.79    0.64
  -7  -1  -1    8.88    0.57
  -7   1   1   10.09    0.95
  -7  -1  -1    8.63    0.82
   7  -1   1    9.06    0.85
  -7   2  -1   42.61    1.72
   7  -2  -1   42.52    1.21
   7  -2  -1   41.78    1.77
  -7  -2   1   43.87    1.47
  -7  -2   1   42.52    1.50
  -7  -2   1   44.87    1.69
  -7   2  -1   43.81    1.69
   7   2   1   43.26    1.36
   7  -2  -1   42.01    1.74
   7   2   1   46.11    1.85
  -7   2  -1   43.55    1.78
  -7  -2  -1   43.91    1.67
   7   2  -1   39.96    1.71
  -7   2   1   41.38    1.69
  -7  -2  -1   42.52    1.16
  -7  -2  -1   44.34    1.17
   7  -2   1   47.32    1.91
   7  -2   1   42.81    1.72
  -7   2   1   45.44    1.92
   7  -3  -1    5.09    0.58
   7  -3  -1    4.87    0.75
  -7   3  -1    4.12    0.72
   7  -3  -1    5.25    0.71
  -7  -3   1    5.88    0.78
  -7  -3   1    5.90    0.61
   7   3   1    6.02    0.74
   7   3   1    4.76    0.78
  -7   3  -1    3.99    0.75
   7   3  -1    4.19    0.42
  -7  -3  -1    5.83    0.76
   7   3  -1    5.54    0.84
   7  -3   1    6.23    0.67
  -7   3   1    5.46    0.89
  -7   3   1    4.85    0.78
   7  -3   1    6.09    0.86
   7   4   1   19.16    1.38
   7  -4  -1   21.97    1.43
  -7   4  -1   17.81    1.62
  -7  -4   1   22.21    0.87
  -7  -4   1   18.67    1.33
  -7   4  -1   21.66    1.38
  -7  -4   1   23.07    0.90
   7  -4  -1   20.77    1.20
  -7   4   1   20.53    1.68
   7  -4   1   21.71    1.50
   7   4  -1   20.61    1.41
  -7   4   1   21.51    1.42
   7  -4   1   20.56    1.23
  -7   5  -1    4.83    1.26
  -7   5  -1    3.82    1.06
  -7  -5   1    5.20    0.40
  -7  -5   1    5.40    0.45
   7   5   1    4.72    0.88
   7  -5  -1    3.02    0.89
   7  -5  -1    5.24    0.88
   7  -5   1    4.49    0.92
   7  -5   1    2.69    0.95
  -7   5   1    3.92    0.95
  -7   5   1    4.51    1.14
   7   5  -1    4.50    0.96
  -7   6  -1   14.71    1.53
  -7   6  -1    9.94    1.87
   7   6   1   11.12    1.61
   7  -6  -1   12.04    1.40
  -7   6   1   13.82    1.50
   7   6  -1   11.66    1.68
  -7   6   1   10.87    1.83
   7  -6   1   15.73    1.73
   8   0  -1   11.84    1.21
  -8   0   1   12.44    1.04
  -8   0   1   10.79    0.86
  -8   0  -1   12.10    0.82
   8   0   1   11.00    1.14
  -8   0  -1   11.49    0.95
   8   0   1   11.70    0.48
  -8   0  -1   11.37    0.99
  -8   0   1   12.44    0.95
  -8   1  -1   10.49    0.98
  -8  -1   1   11.94    1.06
   8   1   1   12.24    1.26
  -8   1  -1    9.97    0.94
   8  -1  -1   10.83    1.11
  -8   1  -1    9.31    0.84
  -8  -1   1   11.45    0.84
  -8  -1   1   10.19    0.98
   8  -1   1    9.69    0.52
  -8  -1  -1    9.83    1.01
  -8   1   1   11.51    1.02
  -8  -1  -1    9.97    0.76
  -8   1   1   10.62    1.03
  -8  -1  -1   10.56    0.68
   8  -1   1   11.84    1.26
   8   1  -1   10.52    1.11
  -8  -2   1   18.32    0.95
   8   2   1   18.26    1.39
  -8   2  -1   19.18    1.33
   8  -2  -1   19.08    1.44
  -8  -2   1   18.76    1.25
  -8  -2   1   19.28    1.06
  -8   2  -1   20.07    1.26
  -8   2   1   18.72    1.30
  -8   2   1   18.60    1.37
  -8  -2  -1   20.15    1.34
   8  -2   1   19.32    0.94
   8   2  -1   17.20    1.32
   8  -2   1   17.23    1.42
  -8   3  -1   14.15    1.37
   8  -3  -1   12.65    1.35
  -8  -3   1   13.60    1.20
  -8  -3   1   13.74    0.81
   8   3   1   13.47    1.38
  -8   3  -1   12.79    1.36
   8  -3   1   13.80    1.41
  -8  -3  -1   11.98    1.14
  -8   3   1   12.42    1.20
   8  -3   1   12.55    1.03
   8   3  -1   11.19    1.20
  -8   3   1   15.01    1.48
  -8   4  -1    6.76    1.11
   8   4   1    6.41    1.08
  -8   4  -1    7.85    1.25
   8  -4  -1    7.17    1.08
  -8  -4   1   10.31    1.18
  -8   4   1    7.60    1.18
   8  -4   1    7.95    0.96
   8   4  -1    7.68    1.12
  -8   4   1    6.06    1.17
   8  -4   1    7.26    1.16
   8   5   1    3.80    1.11
  -8   5  -1    1.06    1.09
  -8   5  -1    3.99    1.38
   8  -5  -1    3.51    1.12
   8   5  -1    3.62    1.17
  -8   5   1    1.00    1.28
  -8   5   1    2.31    1.16
   8  -5   1    3.89    1.03
   8  -5   1    3.74    1.17
  -9   0  -1  106.86    3.14
   9   0   1  110.20    3.60
   9   0  -1  107.47    3.49
  -9   0   1   96.01    3.23
  -9   0  -1  105.64    3.19
  -9   0   1  102.20    3.23
  -9   0  -1  106.49    3.19
  -9  -1   1    2.31    0.76
  -9  -1   1    1.46    0.55
   9   1   1    0.98    0.91
   9  -1  -1    0.77    0.89
  -9  -1   1    1.56    0.84
  -9   1  -1    1.35    0.59
  -9   1  -1    1.49    0.77
  -9  -1  -1    0.70    0.85
   9   1  -1    1.31    0.83
  -9   1   1    2.09    0.81
  -9  -1  -1    1.24    0.53
  -9   1   1    1.54    0.68
   9  -1   1    2.90    0.96
  -9  -1  -1    1.79    0.42
   9  -2  -1   90.40    3.22
  -9   2  -1   88.50    3.14
  -9   2  -1   91.48    2.98
  -9  -2   1   92.32    2.74
  -9  -2   1   90.73    2.65
   9   2   1   92.03    3.24
  -9  -2   1   87.48    3.00
   9  -2   1   91.67    3.37
   9   2  -1   90.22    3.26
  -9   2   1   92.30    3.26
  -9  -2  -1   94.56    3.01
  -9   2   1   90.57    3.09
  -9  -3   1    2.33    0.86
   9  -3  -1    0.87    0.97
  -9   3  -1    2.16    0.96
  -9  -3   1    1.53    0.35
  -9   3  -1    0.43    0.92
  -9  -3   1    1.41    0.31
   9   3   1    0.22    1.07
   9   3  -1    1.44    0.95
  -9   3   1    1.57    1.01
   9  -3   1    1.39    1.14
  -9   3   1    0.12    1.00
  -9  -3  -1    1.18    0.90
   9  -4  -1   42.96    2.47
  -9   4  -1   43.31    2.33
   9   4   1   42.26    2.40
  -9  -4   1   43.54    2.28
  -9   4  -1   44.72    2.68
   9  -4   1   45.67    2.49
  -9   4   1   49.11    2.50
  -9   4   1   40.98    2.73
  10   0   1   15.94    1.66
 -10   0  -1   18.72    1.20
 -10   0   1   16.47    1.51
 -10   0   1   15.63    1.37
  10   0  -1   14.37    1.55
 -10   0  -1   17.88    1.48
 -10  -1   1    4.50    0.71
 -10   1  -1    3.49    0.77
 -10   1  -1    3.64    1.03
  10   1   1    5.58    1.31
 -10  -1   1    4.32    1.07
  10  -1  -1    2.29    1.09
 -10  -1  -1    2.71    1.05
  10   1  -1    1.60    1.17
 -10  -1  -1    4.05    0.57
 -10   1   1    4.76    1.13
 -10   1   1    5.36    0.97
 -10  -1  -1    4.51    0.50
  10  -1   1    3.60    1.18
 -10  -2   1   10.72    0.83
  10  -2  -1    6.75    1.36
 -10   2  -1   11.06    1.42
  10   2   1    9.11    1.48
 -10   2  -1   11.05    1.28
 -10  -2   1   10.17    1.06
 -10  -2   1   11.42    1.32
  10  -2   1   10.62    1.55
  10   2  -1    7.49    1.44
 -10  -2  -1   10.57    1.36
 -10   2   1   11.35    1.36
 -10   2   1    8.36    1.24
   0   0   2   14.46    0.42
   0   0  -2   12.70    0.41
   0   0   2   14.06    0.45
   0   0   2   13.89    0.33
   0   0  -2   13.66    0.45
   0   0   2   13.67    0.45
   0   0  -2   13.68    0.33
   0   0   2   12.91    0.46
   0   1  -2    0.05    0.08
   0   1  -2   -0.01    0.06
   0   1   2    0.03    0.05
   0  -1  -2   -0.03    0.05
   0  -1   2    0.05    0.07
   0   1   2    0.06    0.05
   0  -1   2   -0.09    0.07
   0  -1  -2    0.04    0.05
   0   1  -2   -0.10    0.07
   0  -1   2    0.02    0.06
   0   1  -2    0.02    0.06
   0  -1  -2   -0.01    0.06
   0  -1   2   -0.08    0.07
   0   1   2    0.04    0.05
   0   1   2    0.17    0.07
   0  -1  -2    0.06    0.05
   0   1   2    0.10    0.06
   0  -1  -2   -0.02    0.06
   0   1  -2    0.07    0.05
   0   1  -2   -0.03    0.07
   0  -2   2  184.78    4.46
   0   2  -2  166.05    4.16
   0   2   2  174.37    4.14
   0   2   2  172.28    3.93
   0  -2   2  175.77    3.87
   0   2  -2  170.48    3.92
   0  -2  -2  171.76    3.94
   0   2  -2  170.04    3.87
   0   2   2  172.84    3.80
   0  -2  -2  173.90    3.80
   0   2  -2  175.05    4.44
   0  -2   2  179.89    4.46
   0   2   2  168.86    4.36
   0  -2   2  169.40    4.16
   0  -2  -2  172.68    4.15
   0  -2  -2  171.51    4.37
   0   2  -2  182.03    4.45
   0  -2  -2  178.14    4.37
   0   2   2  174.38    4.36
   0   3  -2   -0.11    0.08
   0   3   2    0.24    0.15
   0  -3   2   -0.09    0.17
   0   3   2    0.30    0.17
   0   3  -2   -0.13    0.13
   0  -3  -2   -0.02    0.13
   0   3   2   -0.05    0.14
   0   3  -2    0.05    0.19
   0  -3  -2    0.19    0.11
   0  -3   2    0.05    0.10
   0  -3  -2   -0.07    0.03
   0   3  -2    0.23    0.16
   0  -3   2   -0.30    0.13
   0   4  -2    0.60    0.37
   0  -4   2    0.59    0.36
   0  -4  -2    0.66    0.27
   0   4  -2    0.35    0.24
   0   4   2    0.94    0.38
   0  -4  -2    0.63    0.31
   0  -4   2    0.55    0.27
   0   4   2    0.72    0.23
   0  -4  -2    0.61    0.22
   0   4  -2    0.52    0.12
   0  -4   2    0.76    0.14
   0  -4   2    1.05    0.31
   0   5   2   -0.32    0.31
   0  -5   2    0.25    0.39
   0  -5  -2    0.50    0.35
   0  -5   2   -0.26    0.39
   0  -5  -2    0.25    0.32
   0   5  -2    0.31    0.32
   0   5  -2   -0.84    0.39
   0  -5   2    0.43    0.40
   0  -5  -2   -0.03    0.38
   0   5   2   -0.03    0.47
   0  -6   2    4.35    0.81
   0  -6  -2    3.48    0.75
   0   6   2    4.21    0.78
   0  -6  -2    4.87    0.64
   0   6  -2    2.35    0.56
   0   6  -2    3.60    0.77
   0  -6   2    3.50    0.69
   0  -6  -2    4.18    0.67
   0  -7  -2    0.56    0.78
   0  -7   2   -0.03    0.74
   0   7  -2   -0.46    0.82
   0   7   2   -1.68    0.75
   0  -7   2    0.60    0.68
   0  -7  -2    0.09    0.67
   0   8   2   -0.99    1.01
   0  -8  -2   -0.63    0.89
   0  -8   2    1.33    1.06
   0   8  -2   -1.11    0.94
   0  -8  -2   -0.75    0.99
   0  -8   2    0.07    1.12
   1   0   2   20.61    0.60
  -1   0   2   20.45    0.59
  -1   0  -2   20.57    0.47
   1   0  -2   19.69    0.65
   1   0   2   20.31    0.57
   1   0   2   20.64    0.59
  -1   0   2   20.17    0.57
   1   0   2   20.40    0.47
  -1   0  -2   19.63    0.58
   1   0  -2   19.56    0.64
  -1   0  -2   21.28    0.60
  -1   0  -2   18.52    0.59
  -1   0   2   19.40    0.64
  -1   0   2   20.08    0.55
   1   0   2   19.48    0.65
   1   0  -2   19.62    0.58
   1   0  -2   20.05    0.54
   1  -1  -2   40.58    1.02
  -1  -1   2   39.48    1.17
  -1  -1   2   39.38    1.05
   1   1   2   42.28    0.99
  -1   1  -2   40.31    1.03
   1   1   2   39.54    1.08
   1   1   2   42.02    1.05
   1  -1  -2   42.36    1.03
  -1  -1   2   38.16    1.16
   1  -1  -2   39.15    1.05
   1  -1  -2   41.53    1.18
   1   1   2   41.26    1.01
   1  -1  -2   40.98    1.18
   1   1   2   40.93    1.02
  -1  -1   2   40.92    1.04
   1   1   2   40.60    1.05
  -1   1  -2   41.60    1.15
  -1   1  -2   41.91    0.97
  -1   1  -2   38.76    1.17
  -1  -1   2   39.96    1.01
   1  -1   2   40.20    0.97
   1  -1   2   40.05    1.02
  -1   1   2   41.73    1.18
   1   1  -2   40.03    1.16
   1   1  -2   41.18    1.01
  -1   1   2   40.56    1.05
  -1   1   2   41.54    1.02
   1   1  -2   40.30    1.17
  -1   1   2   40.49    1.18
   1   1  -2   40.59    1.04
  -1  -1  -2   42.02    1.05
  -1   1   2   39.59    1.03
  -1  -1  -2   39.47    1.09
   1  -1   2   41.02    1.17
  -1  -1  -2   39.92    1.05
   1  -1   2   37.99    1.17
   1  -1   2   39.56    1.13
   1   1  -2   41.29    1.07
  -1  -1  -2   40.65    1.00
   1   2   2   98.62    2.51
   1  -2  -2  102.22    2.65
   1   2   2  101.68    2.24
  -1   2  -2   95.43    2.66
  -1   2  -2  100.25    2.53
   1  -2  -2   97.90    2.24
   1   2   2   98.38    2.51
   1  -2  -2  100.45    2.66
   1   2   2   96.82    2.36
   1  -2  -2   97.42    2.46
   1  -2  -2  104.31    2.39
   1   2   2   97.18    2.47
  -1   2  -2   98.86    2.32
  -1  -2   2   98.94    2.45
  -1   2  -2  102.38    2.69
  -1   2  -2   98.29    2.29
  -1  -2   2   97.58    2.30
   1  -2   2  100.76    2.29
  -1  -2  -2   95.76    2.48
   1   2  -2   97.47    2.46
  -1   2   2   99.47    2.45
   1   2  -2   98.40    2.29
   1   2  -2   99.60    2.64
  -1   2   2   99.62    2.25
  -1  -2  -2   96.68    2.50
  -1   2   2   97.05    2.35
   1   2  -2   99.17    2.33
  -1  -2  -2   96.59    2.50
   1  -2   2   93.88    2.67
  -1   2   2   97.58    2.64
  -1   2   2  100.39    2.66
   1  -2   2   99.94    2.33
   1  -2   2   99.17    2.67
   1  -2   2   94.66    2.50
   1   2  -2   97.72    2.63
  -1  -2  -2   99.41    2.23
  -1   3  -2   27.02    0.75
   1   3   2   26.37    0.90
   1  -3  -2   26.19    0.67
  -1  -3   2   25.87    0.97
  -1  -3   2   27.56    0.77
   1   3   2   27.66    0.66
   1  -3  -2   27.92    0.99
  -1   3  -2   25.04    0.86
   1   3   2   26.27    0.87
  -1  -3   2   26.92    0.91
  -1   3  -2   25.95    1.01
  -1   3  -2   24.42    0.98
   1  -3  -2   26.06    0.98
  -1   3   2   26.02    0.98
   1   3  -2   27.07    0.93
   1   3  -2   26.65    0.98
  -1   3   2   25.98    0.88
   1   3  -2   25.41    0.90
   1  -3   2   27.48    0.76
  -1  -3  -2   26.16    0.86
   1   3  -2   27.72    0.98
   1  -3   2   24.90    0.88
   1  -3   2   27.40    1.04
  -1   3   2   26.50    0.98
   1   3  -2   26.05    0.75
   1  -3   2   25.88    1.00
   1  -4  -2    7.38    0.60
  -1   4  -2    7.91    0.33
  -1  -4   2    7.53    0.67
  -1  -4   2    7.32    0.62
   1  -4  -2    7.79    0.56
  -1   4  -2    8.38    0.59
   1  -4  -2    8.42    0.69
   1   4   2    9.20    0.70
  -1   4  -2    7.92    0.65
   1   4   2    7.01    0.48
  -1  -4   2    9.04    0.38
   1  -4   2    7.65    0.35
   1  -4   2    7.82    0.66
   1  -4   2    8.45    0.64
  -1   4   2    8.33    0.58
   1   4  -2    7.22    0.68
   1   4  -2    7.98    0.34
   1   4  -2    7.95    0.55
  -1  -4  -2    7.62    0.56
   1  -4   2    7.05    0.62
  -1  -4  -2    7.53    0.45
  -1   4   2    8.36    0.68
  -1  -4  -2    8.41    0.64
   1  -5  -2   11.37    0.87
   1   5   2   13.40    0.78
  -1  -5   2   12.01    0.85
   1  -5  -2   12.85    0.85
  -1  -5   2   11.93    0.94
  -1   5  -2   13.19    0.92
   1  -5  -2   11.23    0.90
   1   5   2   12.63    0.95
  -1   5  -2   11.47    0.80
   1   5  -2   11.94    0.39
   1   5  -2   13.72    0.84
   1  -5   2   11.95    0.43
  -1  -5  -2   13.09    0.81
   1  -5   2   11.48    0.84
   1  -5   2   11.90    1.01
  -1  -5  -2   12.35    0.69
  -1   5   2   10.82    0.78
   1   5  -2   10.92    0.94
   1  -5   2   10.41    0.89
  -1   5   2   13.10    0.93
  -1  -5  -2   11.76    0.87
  -1  -6   2   -0.43    0.43
  -1   6  -2   -0.26    0.59
   1  -6  -2    0.35    0.58
  -1  -6   2    0.02    0.52
   1  -6  -2    0.90    0.56
  -1   6  -2   -0.68    0.52
   1   6   2    0.28    0.60
  -1  -6  -2    0.00    0.48
   1   6  -2   -0.16    0.67
  -1   6   2   -0.67    0.51
   1  -6   2    0.01    0.57
  -1  -6  -2   -0.79    0.38
   1  -6   2    0.59    0.66
   1   6  -2    0.14    0.50
  -1  -6  -2    0.18    0.46
  -1   6   2    0.42    0.57
  -1  -7   2    4.02    0.87
   1   7   2    3.62    0.96
   1  -7  -2    4.28    0.93
  -1   7  -2    3.85    0.92
  -1  -7   2    4.28    0.99
   1  -7  -2    5.77    0.98
   1  -7   2    3.72    0.86
  -1  -7  -2    4.38    0.74
  -1  -7  -2    5.01    0.94
   1   7  -2    3.91    0.93
   1  -7   2    5.79    1.10
  -1   7   2    3.82    0.98
   1  -8  -2    3.12    1.21
  -1   8  -2    2.19    1.18
  -1  -8   2    4.13    1.09
   1   8   2    1.53    1.08
   1  -8  -2    2.70    1.15
  -1  -8   2    4.92    1.16
  -1  -8  -2    3.12    1.20
  -1  -8  -2    2.45    0.89
   1   8  -2    2.68    1.21
   1  -8   2    2.48    1.15
  -1   8   2    2.97    1.18
   1  -8   2    0.14    1.20
  -2   0  -2  104.67    2.51
  -2   0  -2  109.46    2.71
   2   0   2  110.11    2.70
   2   0  -2  108.97    2.48
  -2   0   2  110.44    2.55
   2   0  -2  104.14    2.80
   2   0   2  108.60    2.51
  -2   0  -2  106.77    2.40
  -2   0   2  109.03    2.48
  -2   0   2  100.80    2.79
  -2   0   2  110.22    2.81
   2   0  -2  107.96    2.80
   2   0   2  109.89    2.69
  -2   0   2  109.59    2.45
  -2   0   2  109.01    2.47
   2   0  -2  104.89    2.54
  -2   0  -2  104.66    2.70
   2   0   2  110.27    2.40
   2  -1  -2   10.87    0.49
  -2  -1   2   10.54    0.45
   2  -1  -2   10.93    0.42
   2   1   2   11.54    0.39
  -2   1  -2   10.48    0.37
   2   1   2   10.94    0.40
  -2   1  -2   10.65    0.41
  -2  -1   2   10.85    0.35
   2  -1  -2   11.45    0.43
  -2  -1   2   10.31    0.40
   2   1   2   10.82    0.41
  -2  -1   2   11.33    0.45
   2  -1  -2   11.44    0.49
   2  -1  -2   11.15    0.37
  -2   1  -2    9.84    0.44
  -2   1  -2   10.27    0.45
   2  -1   2   10.54    0.46
  -2   1   2   11.09    0.43
  -2  -1  -2   11.01    0.41
   2  -1   2   10.89    0.42
  -2   1   2   10.78    0.49
   2   1  -2   11.75    0.43
  -2   1   2   11.46    0.37
  -2   1   2   10.66    0.41
  -2   1   2   10.79    0.48
   2   1  -2   11.27    0.46
   2   1  -2   11.12    0.36
  -2  -1  -2   10.49    0.38
   2   1  -2   10.24    0.43
   2  -1   2   11.24    0.46
   2   1  -2   10.98    0.44
   2  -1   2   11.15    0.48
   2  -1   2   10.96    0.37
   2   2   2  345.35    7.58
   2  -2  -2  345.19    7.63
  -2   2  -2  353.12    8.63
  -2  -2   2  346.50    7.96
   2  -2  -2  349.88    7.62
   2  -2  -2  350.68    8.63
  -2  -2   2  330.54    7.59
   2   2   2  350.56    8.02
   2   2   2  352.09    8.31
  -2   2  -2  350.96    7.64
   2  -2  -2  356.82    8.63
  -2  -2   2  352.08    8.56
  -2   2  -2  355.66    8.12
  -2  -2   2  348.18    7.66
   2   2   2  345.56    7.57
  -2   2  -2  333.14    8.61
   2  -2  -2  341.46    7.98
  -2   2  -2  347.72    7.56
   2   2  -2  354.00    8.55
  -2  -2  -2  344.61    8.31
  -2   2   2  347.08    8.63
   2  -2   2  353.86    8.62
   2   2  -2  354.46    7.60
  -2   2   2  348.59    7.64
   2   2  -2  348.92    7.97
   2  -2   2  342.41    7.55
   2  -2   2  345.10    7.62
  -2   2   2  346.14    7.98
   2  -2   2  342.78    8.64
   2   2  -2  347.35    8.54
  -2  -2  -2  342.15    7.58
  -2  -2  -2  345.22    8.03
   2  -2   2  339.29    8.07
  -2   2   2  352.13    8.62
  -2   2   2  343.84    7.63
   2   2  -2  351.52    7.65
  -2  -2  -2  325.29    8.31
  -2  -3   2    8.55    0.44
  -2  -3   2    8.42    0.56
   2   3   2    8.40    0.38
  -2   3  -2    8.93    0.39
  -2   3  -2    8.06    0.51
  -2   3  -2    8.39    0.45
   2   3   2    8.26    0.45
  -2  -3   2    8.76    0.42
   2  -3  -2    8.99    0.46
   2  -3  -2    8.28    0.56
  -2   3  -2    8.31    0.58
   2  -3  -2    8.71    0.36
   2   3   2    8.69    0.35
  -2  -3   2    8.50    0.50
   2  -3   2    8.61    0.57
  -2   3   2    8.52    0.54
   2  -3   2    9.02    0.41
  -2  -3  -2    8.40    0.45
   2   3  -2    9.60    0.52
   2  -3   2    8.39    0.54
  -2   3   2    9.00    0.58
   2  -3   2    9.06    0.54
   2   3  -2    8.64    0.49
   2   3  -2    8.61    0.39
  -2  -3  -2    8.13    0.39
  -2   3   2    8.22    0.58
  -2  -3  -2    8.12    0.36
  -2   4  -2   56.27    1.45
   2  -4  -2   57.88    1.36
  -2  -4   2   55.84    1.84
   2   4   2   57.07    1.36
   2   4   2   56.32    1.35
   2   4   2   57.30    1.83
   2  -4  -2   58.62    2.00
  -2  -4   2   56.97    1.52
   2  -4  -2   58.98    1.82
   2   4   2   58.02    1.66
  -2   4  -2   50.78    1.91
  -2  -4   2   58.84    1.83
   2  -4  -2   56.89    1.37
  -2   4  -2   56.91    1.74
  -2  -4   2   59.64    1.80
  -2   4  -2   56.53    1.91
   2  -4  -2   56.27    1.90
   2  -4   2   54.06    1.91
   2  -4   2   59.10    1.96
   2   4  -2   56.78    1.85
  -2   4   2   56.66    1.90
  -2  -4  -2   55.98    1.68
  -2  -4  -2   56.12    1.81
   2   4  -2   56.80    1.46
   2   4  -2   54.63    1.79
  -2  -4  -2   57.29    1.66
  -2   4   2   58.89    1.80
   2  -4   2   56.26    1.47
   2  -4   2   56.84    1.84
  -2   5  -2    5.63    0.66
   2   5   2    4.39    0.69
  -2  -5   2    4.69    0.64
   2  -5  -2    5.35    0.74
  -2  -5   2    5.95    0.59
  -2  -5   2    4.21    0.59
  -2   5  -2    5.76    0.65
   2  -5  -2    4.60    0.54
   2  -5  -2    5.75    0.70
   2   5   2    4.88    0.49
  -2   5   2    4.62    0.63
  -2  -5  -2    4.88    0.55
  -2   5   2    4.34    0.68
   2  -5   2    5.09    0.70
   2  -5   2    5.09    0.78
   2   5  -2    5.31    0.72
  -2  -5  -2    4.42    0.65
   2   5  -2    4.94    0.32
   2  -5   2    4.22    0.39
  -2  -5  -2    4.91    0.47
   2   5  -2    3.81    0.53
   2  -5   2    3.34    0.67
  -2   6  -2   48.31    1.91
   2  -6  -2   46.06    2.06
  -2  -6   2   45.42    1.89
  -2   6  -2   49.10    2.02
  -2  -6   2   47.51    1.94
   2   6   2   46.53    1.98
   2  -6  -2   47.25    1.96
  -2  -6  -2   46.30    1.90
  -2   6   2   46.39    1.94
   2  -6   2   47.01    1.90
  -2   6   2   48.70    1.94
   2   6  -2   48.05    1.98
   2  -6   2   47.13    2.19
  -2  -6  -2   47.71    1.74
  -2  -6  -2   45.88    1.65
   2   7   2    1.35    0.83
   2  -7  -2    0.67    0.84
  -2  -7   2    1.02    0.80
  -2  -7   2    0.51    0.80
   2  -7  -2    1.23    0.92
  -2   7  -2    1.45    0.79
   2  -7   2    2.03    1.03
  -2  -7  -2    1.20    0.65
   2   7  -2   -0.13    0.87
   2  -7   2    2.08    0.80
  -2   7   2    2.02    0.82
  -2  -7  -2    0.89    0.74
   2  -8  -2   13.74    1.69
  -2   8  -2   14.00    1.56
  -2  -8   2   11.91    1.37
   2  -8  -2   12.00    1.52
   2   8   2   12.81    1.56
  -2  -8   2   11.69    1.50
  -2   8   2   13.80    1.68
   2   8  -2   15.26    1.69
   2  -8   2    8.27    1.66
  -2  -8  -2   12.49    1.37
  -2  -8  -2   14.07    1.52
   2  -8   2   12.86    1.54
   3   0  -2  243.13    6.14
   3   0  -2  252.66    5.59
   3   0   2  244.38    5.99
   3   0  -2  244.79    6.13
   3   0   2  249.03    5.78
  -3   0   2  241.83    5.58
   3   0  -2  248.74    5.45
  -3   0  -2  244.92    5.37
   3   0   2  240.19    5.50
  -3   0   2  237.95    5.45
   3   0   2  240.87    5.36
  -3   0  -2  241.93    6.01
  -3   0  -2  245.12    5.53
  -3   0  -2  245.57    6.01
   3   0   2  251.24    6.01
  -3   1  -2    0.45    0.17
   3  -1  -2    0.79    0.20
  -3  -1   2    0.54    0.15
  -3  -1   2    0.80    0.13
  -3  -1   2    0.86    0.16
  -3   1  -2    0.45    0.13
   3   1   2    0.53    0.15
  -3   1  -2    0.44    0.10
   3  -1  -2    0.46    0.08
  -3  -1   2    0.54    0.13
   3  -1  -2    0.55    0.14
   3   1   2    0.49    0.13
  -3   1  -2    0.60    0.13
  -3  -1   2    0.67    0.07
  -3   1  -2    0.37    0.12
   3  -1  -2    0.72    0.17
   3  -1  -2    0.82    0.19
   3   1   2    0.38    0.13
  -3   1   2    0.51    0.09
   3  -1   2    0.59    0.13
   3  -1   2    1.05    0.18
   3   1  -2    0.46    0.13
   3  -1   2    0.47    0.12
  -3   1   2    0.40    0.19
  -3  -1  -2    0.65    0.12
   3   1  -2    0.64    0.14
   3  -1   2    0.87    0.16
   3   1  -2    0.43    0.16
   3   1  -2    0.42    0.07
  -3   1   2    0.67    0.16
   3   1  -2    0.33    0.14
  -3   1   2    0.49    0.17
   3  -1   2    0.50    0.13
  -3   1   2    0.70    0.13
  -3  -1  -2    0.56    0.12
  -3   2  -2   18.56    0.78
  -3  -2   2   16.08    0.67
   3   2   2   17.11    0.66
  -3  -2   2   17.22    0.57
  -3   2  -2   17.99    0.63
  -3   2  -2   16.53    0.61
   3  -2  -2   16.90    0.63
   3   2   2   16.98    0.62
  -3   2  -2   17.52    0.75
   3  -2  -2   17.62    0.77
  -3   2  -2   17.66    0.76
   3  -2  -2   17.84    0.79
  -3  -2   2   16.89    0.68
  -3  -2   2   17.55    0.67
  -3  -2   2   16.28    0.67
   3  -2  -2   16.79    0.60
   3   2   2   18.11    0.64
   3  -2   2   17.11    0.69
   3   2  -2   17.26    0.58
  -3  -2  -2   17.69    0.64
  -3   2   2   17.27    0.62
   3  -2   2   17.48    0.64
  -3   2   2   15.73    0.63
   3  -2   2   17.53    0.65
  -3   2   2   16.03    0.76
  -3   2   2   17.90    0.78
   3   2  -2   17.04    0.66
   3   2  -2   18.90    0.71
   3  -2   2   17.89    0.76
   3  -2   2   17.59    0.77
  -3  -2  -2   17.53    0.65
  -3  -3   2    1.96    0.33
  -3  -3   2    1.75    0.29
   3  -3  -2    2.13    0.38
   3   3   2    2.77    0.27
   3   3   2    2.29    0.17
  -3   3  -2    1.27    0.26
  -3   3  -2    0.81    0.23
   3  -3  -2    2.56    0.35
   3  -3  -2    1.97    0.22
  -3  -3   2    1.68    0.35
  -3  -3   2    1.40    0.22
  -3   3  -2    1.88    0.24
  -3   3  -2    2.95    0.38
   3  -3  -2    1.72    0.25
   3  -3  -2    2.18    0.27
  -3  -3  -2    2.19    0.32
  -3   3   2    1.84    0.37
   3  -3   2    2.27    0.41
  -3  -3  -2    1.86    0.17
  -3  -3  -2    2.04    0.14
   3   3  -2    1.88    0.27
  -3   3   2    1.84    0.32
   3   3  -2    1.92    0.24
   3  -3   2    1.52    0.29
   3   3  -2    1.84    0.27
   3  -3   2    2.66    0.40
  -3   3   2    2.00    0.37
   3  -3   2    1.94    0.28
   3   4   2   65.64    1.66
   3  -4  -2   65.46    1.69
  -3   4  -2   69.05    2.00
  -3  -4   2   66.61    2.09
  -3   4  -2   69.94    2.25
   3   4   2   66.75    2.08
  -3   4  -2   61.50    2.22
   3  -4  -2   64.76    2.19
   3  -4  -2   65.15    2.26
  -3  -4   2   63.42    2.01
   3   4   2   66.28    1.70
   3  -4  -2   67.46    2.01
   3   4   2   64.44    1.80
  -3  -4   2   66.28    1.98
   3  -4  -2   65.51    1.68
   3  -4   2   64.76    2.22
   3   4  -2   67.84    2.04
   3  -4   2   64.25    2.29
   3  -4   2   66.07    1.75
   3   4  -2   67.11    1.74
  -3  -4  -2   68.20    2.06
  -3  -4  -2   67.49    1.81
   3  -4   2   66.63    2.08
  -3   4   2   63.09    2.16
  -3   4   2   64.04    2.00
  -3  -4  -2   66.32    1.79
  -3  -5   2    2.16    0.48
   3  -5  -2    1.94    0.21
  -3   5  -2    1.42    0.64
   3   5   2    2.50    0.25
   3   5   2    1.56    0.61
  -3  -5   2    2.02    0.51
  -3  -5   2    0.86    0.37
  -3   5  -2    2.94    0.65
   3  -5  -2    2.26    0.60
   3   5   2    1.82    0.22
   3  -5  -2    2.50    0.57
   3   5  -2    1.73    0.25
   3   5  -2    2.40    0.48
  -3   5   2    2.17    0.49
   3  -5   2    1.27    0.59
  -3  -5  -2    1.81    0.38
  -3  -5  -2    3.25    0.61
  -3  -5  -2    2.32    0.37
  -3   5   2    1.58    0.56
   3  -5   2    1.98    0.56
   3   5  -2    2.35    0.63
  -3   6  -2    9.61    1.03
   3  -6  -2    8.35    1.08
  -3  -6   2    8.54    0.94
   3   6   2    9.79    1.09
  -3  -6   2    9.47    0.99
   3  -6  -2    9.95    1.03
  -3   6  -2    8.84    1.20
  -3  -6  -2    9.62    1.03
   3   6  -2    7.70    1.09
  -3  -6  -2    7.29    0.85
   3  -6   2    8.58    0.94
  -3  -6  -2    9.08    0.74
  -3   6   2    7.50    0.86
  -3   6   2    8.16    0.96
   3  -6   2    9.03    1.15
  -3   7  -2    2.70    0.93
   3  -7  -2    1.95    1.04
  -3  -7   2    2.95    0.81
   3  -7  -2    1.70    0.93
   3   7   2    3.31    1.01
  -3  -7   2    2.67    0.96
  -3  -7  -2    1.27    0.87
  -3  -7  -2    2.19    0.55
  -3   7   2    2.25    0.95
   3  -7   2    2.01    1.19
   3   7  -2    3.24    1.12
  -3  -7  -2    1.53    0.76
   3  -7   2    2.06    0.91
  -3   8  -2    6.93    1.48
  -3  -8   2    9.41    1.23
   3  -8  -2   10.61    1.65
   3   8   2    9.62    1.50
  -3  -8   2    9.39    1.41
   3  -8  -2    8.37    1.53
  -3  -8  -2    7.60    1.46
  -3  -8  -2    7.29    0.93
  -3   8   2    9.78    1.45
   3  -8   2    7.60    1.42
   3   8  -2    8.99    1.56
   3  -8   2    6.58    1.84
  -4   0  -2  119.16    2.89
  -4   0   2  121.78    2.98
   4   0   2  120.24    3.09
  -4   0   2  120.52    3.31
   4   0  -2  125.25    3.08
   4   0  -2  124.28    3.31
  -4   0  -2  128.33    3.18
   4   0   2  120.17    2.89
   4   0   2  124.77    3.17
   4   0  -2  121.74    3.30
  -4   0  -2  126.51    3.17
  -4   0  -2  124.58    3.02
  -4  -1   2   91.69    2.54
   4   1   2   88.92    2.25
   4  -1  -2   91.73    2.16
  -4  -1   2   90.13    2.51
   4  -1  -2   91.50    2.61
  -4   1  -2   89.62    2.55
  -4   1  -2   92.11    2.47
   4  -1  -2   89.36    2.60
  -4  -1   2   99.21    2.39
   4   1   2   89.59    2.44
  -4   1  -2   86.76    2.24
   4   1   2   93.39    2.27
  -4   1  -2   91.43    2.54
   4   1   2   89.00    2.31
  -4   1   2   91.02    2.61
   4   1  -2   93.84    2.52
   4  -1   2   91.27    2.26
  -4   1   2   92.69    2.62
  -4   1   2   96.49    2.38
  -4  -1  -2   88.87    2.26
  -4   1   2   94.72    2.19
  -4  -1  -2   94.13    2.27
   4  -1   2   89.03    2.52
   4  -1   2   89.30    2.39
  -4  -1  -2   94.80    2.28
  -4   2  -2   14.79    0.75
   4   2   2   14.89    0.63
  -4   2  -2   14.47    0.62
   4  -2  -2   15.72    0.66
   4  -2  -2   14.54    0.77
   4  -2  -2   13.87    0.54
  -4   2  -2   16.46    0.75
  -4  -2   2   14.87    0.74
  -4  -2   2   15.78    0.72
  -4  -2   2   14.88    0.65
  -4   2  -2   15.46    0.83
  -4  -2   2   15.45    0.50
   4  -2  -2   15.20    0.83
   4   2  -2   15.36    0.53
   4   2  -2   16.08    0.73
   4  -2   2   14.94    0.73
  -4  -2  -2   14.60    0.67
  -4   2   2   16.02    0.77
   4  -2   2   14.42    0.66
  -4   2   2   14.40    0.79
  -4   2   2   15.45    0.59
   4   2  -2   15.14    0.67
  -4   2   2   15.30    0.77
  -4   3  -2   59.54    1.96
   4  -3  -2   56.65    1.66
   4  -3  -2   57.76    2.02
  -4   3  -2   56.58    1.70
  -4  -3   2   60.68    1.82
  -4   3  -2   58.09    2.02
  -4  -3   2   55.27    1.74
  -4  -3   2   56.14    1.58
   4   3   2   54.60    1.64
   4  -3  -2   57.32    1.95
  -4  -3   2   62.30    1.80
   4  -3  -2   56.73    1.63
  -4   3   2   56.85    1.78
  -4   3   2   55.54    1.93
   4   3  -2   57.82    1.71
   4   3  -2   56.45    1.62
   4  -3   2   58.17    1.80
  -4  -3  -2   57.44    1.75
   4  -3   2   60.17    1.97
   4   3  -2   58.68    1.77
  -4   3   2   57.87    2.01
   4   4   2   32.20    1.42
  -4   4  -2   33.55    1.54
  -4  -4   2   32.67    1.28
   4  -4  -2   34.10    1.26
  -4  -4   2   31.86    1.22
  -4   4  -2   31.09    1.55
   4  -4  -2   31.05    1.04
   4   4   2   31.72    1.06
  -4  -4   2   30.93    1.19
  -4   4  -2   30.92    1.31
   4  -4  -2   31.79    1.52
   4   4  -2   33.32    1.24
   4   4  -2   33.08    1.19
  -4  -4  -2   31.83    1.31
  -4   4   2   32.48    1.34
   4  -4   2   31.37    1.31
   4  -4   2   32.43    1.44
  -4  -5   2   28.91    1.23
   4  -5  -2   28.15    0.97
  -4  -5   2   30.83    1.33
  -4   5  -2   29.20    1.37
  -4   5  -2   33.04    1.73
   4   5   2   29.17    1.51
   4   5   2   30.39    0.97
   4  -5  -2   33.18    1.75
  -4  -5   2   29.48    1.34
   4  -5  -2   31.06    1.44
  -4   5   2   28.97    1.71
  -4  -5  -2   30.23    0.94
   4  -5   2   30.34    1.75
   4  -5   2   31.58    1.32
   4   5  -2   30.32    1.15
   4  -5   2   32.07    1.52
  -4  -5  -2   33.34    1.49
  -4  -5  -2   31.08    0.97
  -4   5   2   27.89    1.42
   4   5  -2   31.39    1.60
   4  -6  -2    3.31    0.82
  -4   6  -2    4.04    1.13
  -4  -6   2    2.79    0.58
  -4   6  -2    3.58    0.86
  -4  -6   2    4.58    0.87
   4  -6  -2    3.87    0.99
   4   6   2    5.22    0.99
   4   6  -2    4.46    0.40
  -4  -6  -2    3.95    0.42
  -4  -6  -2    4.46    0.50
   4  -6   2    3.94    1.08
   4  -6   2    3.84    0.44
   4  -6   2    3.95    0.81
  -4   6   2    4.50    0.89
  -4  -6  -2    4.95    0.87
  -4   6   2    2.70    1.14
   4   6  -2    4.95    1.03
  -4  -7   2   12.07    1.33
  -4   7  -2    9.17    1.23
   4   7   2   11.57    1.43
   4  -7  -2   10.18    1.51
   4  -7  -2    9.65    1.32
  -4  -7   2   10.57    1.27
  -4  -7  -2   10.74    0.97
   4  -7   2    9.72    1.62
   4   7  -2   10.75    1.48
  -4   7   2    9.51    1.30
  -4  -7  -2    9.47    0.81
   4  -7   2   10.35    1.25
  -4  -7  -2   12.56    1.40
   5   0   2  103.90    2.77
  -5   0   2  100.99    2.94
   5   0  -2  104.10    2.81
   5   0   2  102.13    2.69
  -5   0  -2  114.53    2.65
  -5   0   2  103.48    2.72
  -5   0   2   98.21    2.90
   5   0  -2  106.31    2.93
  -5   0  -2  104.22    2.78
  -5   0  -2  104.40    2.79
   5   1   2    1.29    0.16
   5  -1  -2    0.60    0.08
   5   1   2    0.36    0.20
   5  -1  -2    0.15    0.35
  -5   1  -2    0.85    0.22
  -5   1  -2    0.81    0.35
  -5  -1   2    1.05    0.22
   5  -1  -2    1.27    0.30
  -5  -1   2    0.65    0.25
  -5   1  -2    0.63    0.28
  -5   1  -2    0.83    0.31
  -5  -1   2    0.05    0.31
   5   1   2    0.47    0.21
   5  -1   2    0.10    0.21
  -5  -1  -2    0.92    0.12
  -5   1   2    0.76    0.12
  -5   1   2    1.21    0.27
   5   1  -2    0.58    0.22
  -5   1   2    0.71    0.32
   5   1  -2    0.54    0.32
  -5  -1  -2    0.71    0.15
  -5  -1  -2    0.37    0.28
  -5   1   2    0.81    0.35
   5  -1   2    0.78    0.20
  -5  -2   2   20.58    0.89
  -5  -2   2   20.49    0.82
  -5   2  -2   18.79    1.00
   5  -2  -2   20.30    0.99
  -5   2  -2   20.38    0.89
   5  -2  -2   20.05    0.97
  -5  -2   2   20.53    0.96
   5  -2  -2   20.32    0.68
  -5   2   2   20.16    0.75
  -5   2   2   19.97    0.98
   5   2  -2   20.99    1.01
   5  -2   2   19.64    0.92
  -5  -2  -2   20.08    0.88
  -5   2   2   19.04    0.98
   5   2  -2   20.05    0.86
   5   2  -2   20.40    0.62
  -5   2   2   19.20    1.05
   5  -3  -2    0.76    0.33
  -5   3  -2    0.74    0.39
  -5  -3   2    0.59    0.18
  -5  -3   2    0.63    0.22
   5  -3  -2    0.43    0.19
  -5   3  -2    0.78    0.37
  -5   3  -2    0.56    0.47
   5  -3  -2    0.38    0.37
  -5  -3   2    1.17    0.40
  -5  -3   2    0.65    0.30
   5   3   2    0.90    0.42
   5   3  -2    0.29    0.40
  -5   3   2    0.73    0.42
   5   3  -2    0.60    0.30
  -5   3   2   -0.22    0.49
   5   3  -2    0.58    0.28
   5  -3   2    0.72    0.37
  -5   3   2    0.47    0.47
   5  -3   2    1.81    0.37
  -5   4  -2   34.30    1.68
  -5  -4   2   31.54    1.22
  -5  -4   2   31.76    1.27
  -5   4  -2   32.01    1.35
   5  -4  -2   33.19    1.30
  -5  -4   2   31.57    1.20
   5   4   2   31.62    1.29
   5  -4  -2   32.73    1.31
   5  -4  -2   32.00    1.67
   5  -4   2   34.81    1.53
  -5   4   2   33.80    1.70
   5  -4   2   31.19    1.40
  -5   4   2   31.87    1.43
  -5  -4  -2   33.11    1.34
   5   4  -2   29.79    1.29
  -5  -5   2    0.12    0.56
  -5  -5   2    0.64    0.57
   5  -5  -2    0.40    0.49
  -5   5  -2   -1.12    0.72
   5  -5  -2   -0.17    0.56
   5   5   2   -0.05    0.71
   5  -5  -2    0.92    0.75
   5   5   2   -0.37    0.48
  -5  -5   2    0.48    0.40
  -5   5  -2    0.64    0.61
   5   5  -2    0.06    0.52
  -5   5   2    0.14    0.73
  -5  -5  -2   -0.09    0.57
   5  -5   2   -0.02    0.59
  -5   5   2    0.69    0.57
   5  -5   2    0.96    0.59
   5  -5   2   -0.89    0.82
   5  -6  -2    4.46    0.95
   5   6   2    3.62    0.97
  -5  -6   2    4.25    0.88
  -5  -6   2    3.69    0.66
   5  -6  -2    4.41    1.22
  -5   6  -2    3.65    1.17
  -5   6  -2    5.22    0.98
   5  -6   2    5.15    0.96
  -5   6   2    3.43    1.29
   5  -6   2    2.35    1.35
   5   6  -2    5.05    1.06
  -5   6   2    4.78    0.98
  -5  -6  -2    4.63    0.88
   5  -6   2    5.00    0.85
   5   6  -2    4.92    0.75
   5  -7  -2   -0.62    1.09
  -5  -7   2    0.27    0.67
  -5  -7   2    0.39    1.07
  -5   7  -2    1.10    1.12
   5   7   2    0.12    1.20
   5  -7  -2   -0.32    1.31
   5  -7   2    0.74    1.04
  -5  -7  -2    0.16    0.94
   5   7  -2   -0.37    1.17
  -5   7   2    2.01    1.12
   5  -7   2    1.12    1.53
  -6   0   2    8.14    0.68
  -6   0   2    9.27    0.63
   6   0   2    8.77    0.58
  -6   0  -2    8.61    0.57
  -6   0   2    7.59    0.67
   6   0   2    7.79    0.51
   6   0  -2    8.27    0.76
  -6   0  -2    8.66    0.65
  -6   0  -2    7.57    0.48
   6   0   2    8.26    0.49
   6   0  -2    7.99    0.60
   6   1   2    3.93    0.39
   6  -1  -2    2.73    0.54
   6  -1  -2    4.93    0.57
  -6   1  -2    3.79    0.53
  -6  -1   2    3.63    0.42
  -6  -1   2    3.48    0.57
  -6   1  -2    4.04    0.43
   6   1   2    3.99    0.41
  -6   1  -2    4.18    0.51
  -6  -1   2    3.77    0.46
  -6   1   2    4.49    0.58
   6   1  -2    4.28    0.60
   6  -1   2    5.40    0.41
   6  -1   2    4.47    0.48
   6   1  -2    3.64    0.44
  -6  -1  -2    3.86    0.33
  -6  -1  -2    4.13    0.52
  -6  -1  -2    3.78    0.37
  -6   1   2    3.48    0.56
   6  -2  -2    1.23    0.39
  -6  -2   2    0.50    0.23
   6   2   2    0.87    0.53
  -6   2  -2    1.09    0.40
  -6   2  -2   -0.37    0.31
  -6   2  -2    0.82    0.43
  -6  -2   2    0.60    0.44
  -6  -2   2    0.62    0.32
   6  -2  -2    1.05    0.18
   6   2   2   -0.36    0.29
   6  -2  -2    0.25    0.41
  -6  -2  -2    0.33    0.34
   6  -2   2   -0.23    0.35
  -6   2   2    0.42    0.45
  -6   2   2    0.97    0.29
  -6   2   2    0.60    0.43
  -6   2   2    0.39    0.47
   6   2  -2    0.92    0.37
   6  -2   2    0.58    0.39
   6   2  -2   -0.15    0.43
  -6  -3   2    2.07    0.33
   6  -3  -2    1.85    0.53
  -6   3  -2    2.07    0.57
  -6  -3   2    2.50    0.41
   6  -3  -2    2.21    0.29
  -6   3  -2    2.91    0.63
   6   3   2    3.00    0.60
  -6   3  -2    1.91    0.57
   6  -3  -2    1.35    0.50
  -6  -3   2    1.97    0.54
  -6   3   2    2.45    0.57
  -6  -3  -2    1.73    0.50
  -6   3   2    1.91    0.62
   6  -3   2    2.20    0.54
   6  -3   2    2.18    0.50
   6   3  -2    2.11    0.51
  -6   4  -2   -0.28    0.62
  -6  -4   2    0.69    0.48
   6  -4  -2    0.36    0.55
   6   4   2    0.50    0.56
   6  -4  -2    0.60    0.51
   6  -4  -2    0.22    0.80
  -6  -4   2   -0.08    0.42
  -6  -4   2    0.54    0.37
  -6   4  -2    1.48    0.67
  -6   4   2   -0.15    0.66
  -6   4   2    1.25    0.63
   6  -4   2    0.04    0.63
   6  -4   2    0.38    0.55
   6  -4   2    0.70    0.57
   6   4  -2   -0.02    0.56
  -6  -5   2    1.57    0.67
   6  -5  -2    1.18    0.67
   6  -5  -2   -0.37    0.98
  -6  -5   2    0.64    0.59
  -6   5  -2    1.22    0.96
  -6   5  -2    1.80    0.71
   6  -5  -2   -0.14    0.69
   6   5   2   -1.05    0.64
   6   5   2    0.90    0.87
  -6  -5   2    0.21    0.45
  -6   5   2    0.92    0.67
  -6  -5  -2    0.68    0.70
  -6   5   2    1.32    0.92
   6  -5   2    0.61    0.66
   6  -5   2    0.99    1.14
   6   5  -2    1.20    0.67
   6  -5   2    2.07    0.75
  -6  -6   2    2.68    0.92
  -6  -6   2    1.25    0.77
   6  -6  -2    0.06    0.84
  -6   6  -2    1.32    1.01
  -6   6  -2    2.16    1.30
   6  -6  -2   -0.39    1.34
   6   6   2    1.33    0.95
  -6  -6   2    1.42    0.57
  -6   6   2    0.90    0.94
   6   6  -2    1.58    1.07
  -6  -6  -2    0.38    0.81
  -6   6   2    1.88    1.33
   6  -6   2    1.51    0.90
  -7   0  -2   79.09    2.32
   7   0  -2   80.04    2.54
   7   0   2   76.14    2.37
   7   0   2   78.25    2.14
  -7   0   2   80.93    2.54
  -7   0  -2   79.85    2.28
  -7   0   2   76.65    2.45
   7   0  -2   80.96    2.51
  -7   0   2   76.71    2.39
   7   0   2   75.01    2.58
  -7   0  -2   77.99    2.30
  -7  -1   2   74.12    2.35
   7  -1  -2   73.23    2.44
  -7   1  -2   70.78    2.31
   7  -1  -2   69.71    2.41
  -7   1  -2   74.25    2.38
   7   1   2   74.92    2.53
  -7   1  -2   76.70    2.27
  -7  -1   2   75.36    2.33
   7   1   2   75.01    2.11
  -7  -1   2   75.98    2.34
  -7  -1  -2   76.47    2.30
  -7   1   2   72.12    2.46
   7   1  -2   79.93    2.51
  -7  -1  -2   75.32    2.04
  -7   1   2   78.43    2.55
   7  -1   2   76.46    2.09
   7  -1   2   73.68    2.55
  -7   1   2   75.44    2.37
  -7  -1  -2   80.41    2.08
   7  -2  -2   36.46    1.63
  -7  -2   2   33.32    1.48
   7  -2  -2   35.20    1.61
   7  -2  -2   35.54    0.96
  -7  -2   2   36.06    1.39
  -7  -2   2   33.47    1.31
  -7   2  -2   36.25    1.53
   7   2   2   35.66    1.68
  -7   2  -2   37.59    1.53
  -7   2  -2   34.91    1.57
  -7  -2  -2   35.17    1.49
  -7   2   2   34.76    1.73
   7   2  -2   34.61    1.63
  -7   2   2   35.41    1.56
   7  -2   2   37.79    1.81
   7  -2   2   39.24    1.38
   7   3   2   61.29    2.16
  -7   3  -2   59.13    2.31
   7  -3  -2   59.25    2.15
  -7   3  -2   61.86    2.12
   7  -3  -2   58.61    1.68
  -7  -3   2   57.96    1.89
  -7  -3   2   59.68    1.95
  -7  -3   2   57.68    2.09
   7  -3  -2   56.78    2.25
   7   3   2   57.48    2.16
  -7  -3  -2   58.19    2.07
   7  -3   2   55.51    2.26
   7   3  -2   58.11    2.11
  -7   3   2   60.56    2.50
  -7   3   2   58.94    2.16
   7  -3   2   59.26    1.99
  -7  -4   2   31.08    1.34
  -7  -4   2   31.66    1.62
   7  -4  -2   32.86    1.69
   7   4   2   32.28    1.65
   7  -4  -2   30.65    1.39
  -7   4  -2   31.95    1.86
  -7   4  -2   31.15    1.57
  -7  -4   2   31.83    1.29
  -7   4   2   31.95    1.68
  -7   4   2   31.72    2.01
   7  -4   2   35.52    1.79
   7  -4   2   31.39    1.53
   7   4  -2   32.72    1.64
  -7  -5   2   32.48    1.31
  -7   5  -2   28.19    2.17
   7  -5  -2   32.59    1.74
   7   5   2   29.37    2.04
   7  -5  -2   29.78    1.68
  -7   5  -2   32.46    1.85
  -7  -5   2   29.14    1.36
   7   5   2   27.65    1.69
   7  -5   2   31.80    1.88
  -7   5   2   30.44    1.83
  -7   5   2   29.34    2.21
   7  -5   2   32.29    1.74
   7   5  -2   32.03    1.83
  -7  -6   2    9.07    0.92
  -7   6  -2    7.48    1.65
   7   6   2    7.40    1.70
   7  -6  -2    9.14    1.35
  -7   6  -2    8.57    1.46
  -7  -6   2    8.32    0.76
   7   6  -2    9.87    1.63
   7  -6   2    6.75    1.21
  -7   6   2    7.82    1.32
  -7   6   2    7.06    1.88
   8   0   2   17.75    1.33
   8   0  -2   15.32    1.28
  -8   0  -2   15.97    0.92
   8   0   2   15.01    0.72
  -8   0   2   15.94    1.16
  -8   0   2   14.64    1.09
  -8   0  -2   16.48    1.17
  -8   0  -2   15.53    1.04
  -8   1  -2   14.67    0.92
   8   1   2   15.25    0.73
  -8   1  -2   13.73    1.03
  -8  -1   2   13.21    0.91
   8  -1  -2   14.00    1.20
  -8   1  -2   13.25    1.05
  -8  -1   2   13.82    1.03
   8   1   2   13.70    1.23
  -8  -1   2   14.73    1.09
   8  -1   2   14.77    1.33
   8   1  -2   12.32    1.29
   8  -1   2   13.56    0.85
  -8  -1  -2   14.11    0.67
  -8   1   2   13.35    1.19
  -8  -1  -2   14.13    1.17
  -8  -1  -2   15.00    0.72
  -8   1   2   14.14    1.18
   8   2   2    3.56    0.90
  -8   2  -2    3.72    0.69
  -8  -2   2    2.60    0.62
  -8  -2   2    4.73    0.82
  -8   2  -2    4.37    0.76
   8   2   2    2.08    0.49
   8  -2  -2    2.76    0.80
  -8  -2   2    4.59    0.59
   8  -2   2    4.68    0.66
   8  -2   2    5.82    0.97
   8   2  -2    4.25    0.83
  -8  -2  -2    4.55    0.75
  -8   2   2    4.64    0.88
  -8   2   2    4.76    0.86
   8  -3  -2    8.78    1.08
  -8  -3   2   10.11    0.99
  -8   3  -2   10.97    1.09
  -8   3  -2   11.50    1.22
  -8  -3   2   10.35    0.82
   8   3   2   10.51    1.06
   8   3   2    9.01    1.10
  -8  -3   2   10.15    1.08
   8  -3   2   10.60    1.07
  -8   3   2   11.51    1.19
  -8  -3  -2   10.67    1.18
   8  -3   2   10.96    1.23
   8   3  -2   11.50    1.21
  -8   3   2    8.93    1.19
   8  -4  -2    7.65    1.08
   8   4   2    6.35    1.09
  -8  -4   2    9.16    0.92
  -8   4  -2    7.35    1.09
  -8   4  -2    7.09    1.13
  -8  -4   2    8.26    1.14
  -8  -4   2    8.57    0.81
   8  -4   2    8.30    1.28
  -8   4   2    8.81    1.43
   8   4  -2    5.41    1.05
   8  -4   2    8.45    0.96
  -8   4   2    8.39    1.17
  -8   5  -2    6.17    1.28
   8  -5  -2    5.92    1.19
   8   5   2    4.02    1.17
  -8  -5   2    7.01    0.62
  -8  -5   2    5.34    0.62
  -8   5  -2    3.65    1.34
   8  -5   2    6.08    1.33
  -8   5   2    4.94    1.66
   8   5  -2    7.27    1.30
  -8   5   2    7.06    1.28
   8  -5   2    6.52    1.18
  -9   0   2   16.44    1.49
  -9   0  -2   18.49    1.08
   9   0   2   21.91    1.64
   9   0  -2   19.54    1.58
  -9   0  -2   19.44    1.40
  -9   0  -2   19.58    1.27
  -9   0   2   16.77    1.33
  -9  -1   2   30.86    1.52
  -9   1  -2   30.69    1.55
   9  -1  -2   29.58    1.91
  -9  -1   2   30.75    1.81
  -9   1  -2   31.32    1.68
   9   1   2   31.79    1.88
   9  -1   2   28.68    1.90
  -9   1   2   30.36    1.70
  -9  -1  -2   29.91    1.62
   9   1  -2   28.09    1.89
  -9  -1  -2   31.73    0.99
  -9   1   2   30.50    1.78
  -9  -2   2   25.18    1.29
   9   2   2   27.44    1.91
  -9   2  -2   26.09    1.64
  -9  -2   2   23.29    1.63
   9  -2  -2   18.88    1.66
  -9   2  -2   27.37    1.59
  -9   2   2   27.68    1.79
  -9  -2  -2   27.86    1.70
   9  -2   2   24.20    1.94
  -9   2   2   23.77    1.68
   9   2  -2   25.63    1.77
  -9   3  -2   18.31    1.74
   9  -3  -2   20.80    1.82
  -9  -3   2   23.56    1.68
  -9   3  -2   20.42    1.67
  -9  -3   2   23.51    1.31
   9   3   2   19.83    1.80
  -9   3   2   22.83    1.89
  -9   3   2   23.16    2.08
  -9  -3  -2   20.62    1.59
   9  -3   2   23.44    2.01
  -9  -4   2    9.66    1.33
  -9   4  -2    9.67    1.39
   9  -4  -2   10.64    1.36
   9   4   2   11.36    1.48
  -9   4  -2    9.86    1.44
  -9   4   2   11.38    1.67
  -9   4   2    9.07    1.45
   9   4  -2    7.04    1.33
   9  -4   2   11.18    1.53
 -10   0   2    4.68    1.07
 -10   0   2    4.56    0.90
 -10   0  -2    5.11    0.67
  10   0  -2    3.33    1.18
 -10   0  -2    3.88    1.15
  10   0   2    6.14    1.40
 -10   1  -2   10.97    1.24
  10   1   2   11.03    1.60
 -10   1  -2   10.21    1.33
  10  -1  -2    6.91    1.27
 -10  -1   2    9.33    1.30
 -10  -1   2   12.20    1.29
  10   1  -2   10.03    1.35
  10  -1   2    9.49    1.53
 -10   1   2   16.44    1.64
 -10  -1  -2   14.03    1.41
 -10   1   2   11.67    1.27
 -10   2  -2    8.10    1.18
  10   2   2    6.40    1.48
 -10  -2   2    7.26    1.23
 -10  -2   2    9.02    1.05
  10  -2  -2    5.04    1.25
 -10   2  -2    8.90    1.37
 -10  -2  -2    8.12    1.33
 -10   2   2    8.61    1.32
  10   2  -2    7.55    1.31
 -10   2   2    6.90    1.19
  10  -2   2   10.44    1.67
   0   0   3   -0.29    0.03
   0   0  -3   -0.18    0.04
   0   0   3   -0.18    0.08
   0   0  -3   -0.27    0.07
   0   0  -3   -0.25    0.08
   0   0   3   -0.32    0.07
   0   0   3   -0.29    0.09
   0   0  -3   -0.29    0.07
   0   0   3   -0.25    0.08
   0  -1   3  806.49   19.05
   0  -1  -3  764.37   17.39
   0   1  -3  823.95   19.06
   0  -1   3  815.79   19.06
   0   1  -3  776.78   17.18
   0   1   3  812.58   17.81
   0   1   3  819.94   19.22
   0  -1  -3  783.73   19.24
   0   1  -3  784.11   16.89
   0  -1  -3  671.97   18.97
   0   1   3  797.52   17.01
   0  -1   3  775.23   17.86
   0  -1  -3  803.14   18.08
   0   1  -3  805.54   19.06
   0  -1   3  803.80   17.04
   0   1   3  835.22   18.99
   0  -1  -3  778.63   16.88
   0   1   3  758.38   17.01
   0   2   3    0.11    0.10
   0   2   3   -0.07    0.09
   0   2   3   -0.09    0.08
   0  -2  -3   -0.03    0.08
   0   2   3   -0.07    0.12
   0  -2   3   -0.32    0.10
   0  -2  -3    0.36    0.13
   0  -2   3   -0.04    0.13
   0  -2   3   -0.26    0.11
   0  -2   3   -0.24    0.14
   0  -2  -3   -0.23    0.10
   0   2  -3   -0.15    0.15
   0   2   3    0.03    0.14
   0   2  -3   -0.14    0.11
   0   2  -3    0.07    0.11
   0   2  -3   -0.14    0.08
   0   2  -3    0.10    0.15
   0   2  -3   -0.23    0.12
   0  -2  -3   -0.13    0.07
   0  -2  -3   -0.16    0.09
   0  -3  -3  539.05   13.73
   0  -3   3  568.87   13.89
   0  -3  -3  580.87   13.75
   0   3  -3  573.67   13.85
   0   3  -3  574.89   13.87
   0   3   3  553.16   12.24
   0   3   3  562.83   12.11
   0   3   3  566.89   13.74
   0  -3   3  569.05   13.85
   0  -3  -3  561.37   12.10
   0  -3   3  558.31   12.24
   0   3  -3  558.79   12.24
   0   3  -3  548.25   12.23
   0   4   3    0.11    0.23
   0  -4   3    0.02    0.34
   0   4  -3   -0.04    0.25
   0   4  -3   -0.12    0.36
   0  -4  -3   -0.14    0.30
   0  -4   3    0.10    0.20
   0  -4   3    0.38    0.31
   0   4  -3    0.17    0.13
   0   4   3   -0.17    0.37
   0  -4  -3    0.28    0.21
   0  -4   3    0.32    0.30
   0  -4  -3    0.08    0.26
   0   5   3  156.29    4.50
   0  -5  -3  164.29    4.42
   0  -5   3  173.10    4.78
   0  -5   3  163.93    4.66
   0   5   3  166.71    4.24
   0  -5  -3  164.26    4.51
   0   5  -3  165.33    3.75
   0   5  -3  167.40    4.25
   0   5  -3  164.77    4.66
   0  -5   3  167.14    3.78
   0  -5  -3  165.51    4.58
   0  -5   3  168.97    4.45
   0   6  -3   -0.69    0.49
   0  -6  -3   -0.02    0.48
   0  -6  -3    0.49    0.50
   0  -6   3   -0.35    0.61
   0   6   3    0.28    0.56
   0   6  -3    0.21    0.65
   0  -6   3    0.31    0.48
   0  -6  -3   -0.43    0.50
   0   7  -3   75.25    2.73
   0   7   3   72.71    2.72
   0  -7   3   74.71    3.00
   0  -7  -3   71.81    2.70
   0  -7   3   73.18    2.72
   0  -7  -3   75.68    2.75
   0  -8  -3   -0.20    0.84
   0  -8  -3    1.14    1.03
   0  -8   3   -1.34    1.07
   0   8  -3   -0.60    1.05
   0   8   3    0.03    1.09
   0  -8   3    0.76    1.09
  -1   0   3  102.45    2.52
   1   0   3   96.92    2.61
  -1   0   3  105.22    2.71
  -1   0   3  104.07    2.71
  -1   0   3  102.84    2.32
   1   0   3  106.57    2.65
  -1   0  -3  101.19    2.64
   1   0   3  103.51    2.19
   1   0   3  105.55    2.20
   1   0   3  105.06    2.64
   1   0  -3  103.27    2.71
   1   0  -3  103.65    2.43
  -1   0   3  103.24    2.43
  -1   0  -3  100.13    2.42
   1   0   3  102.43    2.41
   1   0  -3  104.16    2.71
   1   0  -3  104.55    2.32
  -1   0  -3  106.32    2.65
   1   1   3    8.32    0.33
   1  -1  -3    8.98    0.42
   1   1   3    9.78    0.40
   1   1   3    8.66    0.35
   1  -1  -3    8.53    0.34
   1   1   3    8.08    0.31
  -1   1  -3    9.18    0.42
   1   1   3    8.65    0.33
  -1   1  -3    8.25    0.40
  -1   1  -3    9.40    0.43
  -1   1  -3    8.20    0.35
  -1  -1   3    8.94    0.43
   1  -1  -3    8.39    0.36
  -1  -1   3    8.35    0.33
  -1  -1   3    8.62    0.37
   1  -1  -3    8.12    0.34
   1  -1  -3    8.31    0.42
  -1  -1   3    8.18    0.42
  -1  -1   3    8.18    0.36
  -1   1  -3    8.52    0.28
  -1   1   3    7.97    0.34
  -1  -1  -3    8.68    0.35
  -1   1   3    8.40    0.34
   1  -1   3    8.40    0.42
   1   1  -3    8.32    0.36
   1  -1   3    8.68    0.36
   1   1  -3    8.63    0.43
   1  -1   3    8.94    0.42
  -1   1   3    9.00    0.42
   1   1  -3    9.21    0.43
  -1  -1  -3    8.17    0.33
   1   1  -3    8.91    0.38
  -1   1   3    8.89    0.42
   1   1  -3    9.30    0.33
  -1  -1  -3    8.30    0.33
  -1   1   3    8.98    0.35
   1  -1   3    8.24    0.42
   1  -1   3    8.31    0.28
   1  -2  -3   97.40    2.30
  -1  -2   3   89.85    2.59
   1   2   3   93.55    2.42
  -1   2  -3   97.19    2.61
   1  -2  -3   96.15    2.59
  -1   2  -3   92.68    2.26
   1  -2  -3   94.32    2.58
  -1   2  -3   96.39    2.23
  -1  -2   3   96.21    2.28
  -1  -2   3   94.45    2.59
   1   2   3   93.39    2.43
  -1   2  -3   92.94    2.62
   1   2   3   93.34    2.43
  -1   2  -3   92.13    2.48
  -1  -2   3   94.26    2.40
   1  -2  -3   92.79    2.39
   1   2   3   97.52    2.29
   1   2   3   94.90    2.20
   1  -2  -3   95.50    2.21
   1  -2   3   95.95    2.62
   1  -2   3   95.45    2.26
  -1  -2  -3   97.02    2.20
   1   2  -3   95.51    2.25
  -1   2   3   94.35    2.58
   1   2  -3   94.68    2.60
   1  -2   3   92.22    2.63
  -1   2   3   96.87    2.22
   1  -2   3   92.37    2.47
   1   2  -3   94.65    2.43
  -1  -2  -3   90.58    2.43
  -1  -2  -3   92.52    2.44
  -1  -2  -3   93.56    2.44
  -1   2   3   95.51    2.58
  -1   2   3   97.37    2.30
   1   2  -3   88.89    2.58
   1  -2   3   96.99    2.24
  -1   2   3   98.38    2.41
   1   2  -3   94.89    2.27
  -1   3  -3    0.24    0.12
   1  -3  -3    0.31    0.15
   1   3   3    0.20    0.15
  -1  -3   3    0.12    0.17
   1  -3  -3    0.18    0.08
  -1   3  -3    0.20    0.17
  -1   3  -3    0.42    0.25
   1  -3  -3    0.00    0.17
  -1   3  -3    0.60    0.19
   1   3   3    0.26    0.11
  -1  -3   3    0.27    0.14
  -1  -3   3    0.43    0.20
  -1  -3   3    0.20    0.15
   1   3   3    0.50    0.18
   1   3  -3    0.24    0.12
  -1  -3  -3    0.29    0.13
   1  -3   3    0.10    0.22
   1   3  -3    0.05    0.24
  -1  -3  -3    0.21    0.16
   1   3  -3   -0.48    0.16
   1  -3   3    0.05    0.24
  -1  -3  -3    0.10    0.09
   1  -3   3   -0.15    0.16
  -1  -3  -3    0.18    0.21
  -1   3   3    0.30    0.19
  -1   3   3    0.45    0.15
   1  -3   3    0.39    0.20
   1  -3   3    0.25    0.22
  -1   3   3    0.20    0.10
  -1   3   3    0.09    0.24
   1   3  -3   -0.27    0.19
   1   4   3   28.17    0.68
   1  -4  -3   29.09    0.69
  -1   4  -3   27.85    1.15
   1  -4  -3   29.49    1.18
   1  -4  -3   30.03    1.23
  -1  -4   3   29.10    0.90
  -1   4  -3   28.39    0.86
  -1   4  -3   27.84    1.20
  -1  -4   3   28.98    1.12
   1  -4  -3   28.38    0.69
   1  -4  -3   28.03    1.12
  -1  -4   3   26.81    1.23
   1   4   3   28.24    1.17
  -1  -4   3   28.58    1.17
   1   4  -3   28.05    1.15
   1  -4   3   29.47    1.22
   1  -4   3   26.60    1.15
   1  -4   3   27.21    0.87
  -1  -4  -3   28.03    1.16
   1   4  -3   29.55    0.87
   1   4  -3   29.15    1.16
  -1   4   3   28.24    1.15
  -1  -4  -3   26.97    0.99
  -1   4   3   29.75    1.17
  -1  -4  -3   28.99    1.07
   1   5   3    7.92    0.67
   1  -5  -3    5.88    0.69
  -1   5  -3    7.65    0.79
  -1  -5   3    7.35    0.73
  -1   5  -3    8.53    0.70
  -1  -5   3    7.52    0.88
   1   5   3    6.99    0.78
  -1  -5   3    7.40    0.76
  -1   5  -3    7.69    0.38
   1  -5  -3    8.17    0.85
  -1  -5   3    7.68    0.50
   1  -5   3    7.80    0.49
  -1   5   3    7.66    0.81
   1   5  -3    8.00    0.71
   1   5  -3    7.69    0.84
   1  -5   3    8.44    0.97
   1  -5   3    8.81    0.79
  -1  -5  -3    8.40    0.82
  -1  -5  -3    6.97    0.66
   1  -5   3    6.48    0.75
   1   5  -3    7.03    0.38
  -1   5   3    7.89    0.72
  -1  -5  -3    8.38    0.60
  -1   6  -3   14.98    1.15
   1  -6  -3   14.49    1.16
   1   6   3   14.63    1.22
  -1  -6   3   13.42    1.14
  -1  -6   3   13.59    1.26
  -1   6  -3   14.91    1.09
   1  -6  -3   13.65    1.19
   1  -6   3   13.73    1.34
  -1   6   3   13.04    1.16
  -1  -6  -3   13.20    0.99
   1   6  -3   13.54    1.20
   1  -6   3   12.55    1.05
  -1  -6  -3   14.30    1.18
  -1  -6  -3   12.07    0.86
   1   6  -3   12.52    1.23
   1  -7  -3    1.17    0.75
  -1   7  -3    1.61    0.94
  -1  -7   3    1.46    0.84
  -1  -7   3    1.13    0.75
   1  -7  -3    0.23    0.74
   1   7   3   -0.16    0.88
  -1  -7  -3    1.51    0.85
  -1  -7  -3    0.01    0.60
   1  -7   3    1.32    0.95
   1   7  -3    0.94    0.84
  -1   7   3    0.57    0.79
   1  -7   3    0.21    0.69
  -1  -8   3    4.99    1.22
   1   8   3    3.57    1.19
   1  -8  -3    2.39    1.12
  -1   8  -3    4.95    1.28
   1  -8  -3    4.07    1.20
  -1  -8   3    4.40    1.25
   1   8  -3    5.23    1.40
   1  -8   3    4.12    1.13
  -1   8   3    3.68    1.28
   1  -8   3    4.68    1.45
  -1  -8  -3    2.41    0.94
  -1  -8  -3    4.15    1.19
   2   0   3  357.54    8.64
   2   0  -3  363.43    8.78
  -2   0   3  359.95    7.89
  -2   0   3  360.94    8.78
  -2   0   3  366.88    8.79
  -2   0   3  357.37    8.04
  -2   0  -3  353.51    7.58
  -2   0   3  348.41    8.09
   2   0  -3  365.08    8.79
   2   0   3  357.09    7.84
   2   0   3  362.18    7.58
   2   0  -3  357.43    7.71
  -2   0  -3  338.19    8.64
  -2   0  -3  360.82    8.65
   2   0   3  346.80    8.65
  -2   0  -3  346.52    7.85
  -2   0   3  352.90    7.71
   2   0   3  356.60    8.31
   2   0  -3  353.09    7.87
   2   1   3    0.23    0.12
  -2  -1   3    0.46    0.14
   2  -1  -3    0.36    0.09
   2  -1  -3    0.43    0.13
   2  -1  -3    0.32    0.16
   2  -1  -3    0.19    0.10
   2   1   3    0.43    0.09
   2   1   3    0.28    0.13
  -2  -1   3    0.29    0.10
  -2   1  -3    0.37    0.08
   2  -1  -3    0.26    0.13
   2   1   3    0.50    0.07
  -2   1  -3    0.29    0.11
  -2  -1   3    0.59    0.13
  -2  -1   3    0.36    0.08
  -2   1  -3    0.41    0.18
  -2  -1   3    0.63    0.13
   2   1   3    0.45    0.07
  -2   1  -3    0.19    0.10
  -2  -1  -3    0.32    0.06
  -2  -1  -3    0.39    0.06
   2   1  -3    0.49    0.13
   2   1  -3    0.38    0.10
  -2   1   3    0.62    0.16
   2  -1   3    0.34    0.14
   2  -1   3    0.38    0.13
  -2   1   3    0.45    0.15
   2   1  -3    0.29    0.14
  -2  -1  -3    0.20    0.10
   2  -1   3    0.25    0.12
   2  -1   3    0.56    0.10
  -2   1   3    0.44    0.11
   2   1  -3    0.65    0.12
   2   1  -3    0.44    0.13
  -2   1   3    0.42    0.14
  -2   1   3    0.13    0.10
   2  -1   3    0.26    0.13
  -2   2  -3  243.31    5.36
   2  -2  -3  245.06    6.21
  -2  -2   3  241.11    5.52
  -2  -2   3  246.92    6.16
   2   2   3  235.21    5.45
   2  -2  -3  248.20    6.21
   2  -2  -3  240.28    5.70
   2   2   3  244.32    5.42
   2   2   3  243.41    5.39
   2   2   3  243.96    5.88
   2   2   3  246.51    5.88
  -2   2  -3  239.22    5.88
   2  -2  -3  236.01    5.44
   2   2   3  244.95    5.78
  -2   2  -3  254.23    6.22
  -2   2  -3  239.32    6.18
   2  -2  -3  243.97    5.48
  -2  -2   3  241.97    5.68
  -2   2  -3  241.23    5.49
  -2  -2   3  242.53    5.44
  -2  -2  -3  240.10    5.88
   2   2  -3  243.36    5.50
   2   2  -3  239.53    5.43
   2   2  -3  249.20    6.17
  -2   2   3  239.19    5.69
  -2   2   3  246.80    6.21
  -2  -2  -3  241.22    5.42
   2  -2   3  239.86    5.85
   2  -2   3  242.16    6.18
  -2  -2  -3  243.75    5.78
  -2   2   3  245.16    5.48
  -2  -2  -3  249.36    5.88
  -2   2   3  241.22    6.20
  -2   2   3  241.78    5.47
   2  -2   3  241.70    5.37
   2  -2   3  241.78    5.47
   2  -2   3  245.08    6.21
   2   2  -3  247.44    6.17
   2   2  -3  247.02    5.72
  -2   3  -3    6.56    0.38
  -2  -3   3    6.63    0.40
  -2  -3   3    7.16    0.59
   2   3   3    7.61    0.36
  -2  -3   3    8.17    0.45
   2   3   3    6.72    0.43
  -2   3  -3    6.87    0.49
   2   3   3    7.73    0.35
  -2   3  -3    6.86    0.41
   2  -3  -3    8.02    0.55
   2  -3  -3    7.60    0.36
  -2   3  -3    7.71    0.59
   2  -3  -3    6.77    0.40
   2  -3  -3    6.95    0.48
  -2  -3  -3    7.37    0.33
  -2   3   3    8.23    0.57
   2  -3   3    6.59    0.50
  -2   3   3    7.02    0.50
  -2  -3  -3    7.54    0.33
  -2  -3  -3    7.01    0.37
   2   3  -3    7.01    0.38
   2   3  -3    7.05    0.50
  -2  -3  -3    7.02    0.56
   2   3  -3    6.39    0.46
   2  -3   3    7.05    0.57
   2  -3   3    7.88    0.45
   2  -3   3    7.75    0.43
   2  -3   3    7.11    0.58
  -2   3   3    7.37    0.39
  -2   3   3    7.00    0.59
  -2   4  -3   81.50    2.07
   2   4   3   82.26    1.94
   2  -4  -3   82.40    1.95
   2  -4  -3   84.15    2.42
  -2   4  -3   80.22    2.57
   2  -4  -3   81.50    2.59
   2  -4  -3   82.96    2.55
  -2  -4   3   85.74    2.57
   2   4   3   79.75    2.25
  -2  -4   3   81.51    2.13
  -2  -4   3   84.72    2.38
  -2   4  -3   85.03    2.30
   2  -4  -3   81.39    1.94
   2   4   3   82.55    2.37
  -2   4  -3   86.04    2.67
   2   4  -3   82.79    2.49
   2  -4   3   82.96    2.09
   2  -4   3   81.93    2.46
  -2  -4  -3   79.39    2.26
   2  -4   3   83.11    2.63
   2  -4   3   79.41    2.60
  -2  -4  -3   84.11    2.44
   2   4  -3   81.73    2.07
   2   4  -3   84.27    2.43
  -2   4   3   84.70    2.37
  -2   4   3   80.54    2.53
  -2  -4  -3   79.29    2.24
  -2  -5   3    3.69    0.51
  -2   5  -3    2.58    0.60
   2  -5  -3    2.80    0.58
  -2   5  -3    2.98    0.28
   2  -5  -3    3.31    0.57
  -2  -5   3    2.35    0.42
  -2  -5   3    3.12    0.61
  -2   5  -3    3.41    0.53
   2  -5  -3    2.50    0.61
  -2  -5   3    3.13    0.59
   2   5   3    2.74    0.61
   2  -5   3    1.68    0.69
   2  -5   3    2.59    0.54
  -2  -5  -3    2.40    0.31
  -2  -5  -3    2.60    0.40
   2   5  -3    3.01    0.66
   2   5  -3    3.46    0.35
   2  -5   3    2.78    0.69
   2  -5   3    2.49    0.34
  -2   5   3    3.76    0.50
   2   5  -3    3.31    0.52
  -2   5   3    3.03    0.63
  -2  -5  -3    2.85    0.56
  -2   6  -3   29.64    1.79
   2  -6  -3   28.86    1.51
  -2   6  -3   27.26    1.49
   2   6   3   29.37    1.59
  -2  -6   3   28.21    1.57
   2  -6  -3   29.74    1.64
  -2  -6   3   28.38    1.44
  -2  -6  -3   28.01    1.23
   2   6  -3   27.47    0.81
   2   6  -3   30.13    1.61
   2  -6   3   25.71    1.74
  -2  -6  -3   30.74    1.53
  -2   6   3   29.36    1.53
   2  -6   3   28.31    1.48
  -2   6   3   28.36    1.40
  -2  -6  -3   27.09    1.27
   2  -7  -3    7.18    1.14
  -2   7  -3    5.55    1.02
  -2  -7   3    6.79    1.07
   2  -7  -3    6.27    1.08
   2   7   3    4.97    1.15
  -2  -7   3    5.07    0.95
  -2   7   3    7.34    1.17
   2  -7   3    8.45    1.34
  -2  -7  -3    7.26    0.82
   2  -7   3    7.91    1.15
  -2  -7  -3    6.31    1.02
   2   7  -3    4.95    1.17
   2  -8  -3    7.12    1.45
   2  -8  -3    6.89    1.30
  -2   8  -3    8.93    1.35
  -2  -8   3    7.28    1.42
   2   8   3    6.75    1.44
  -2  -8   3    6.66    1.25
   2  -8   3    6.75    1.71
  -2   8   3   10.02    1.48
   2  -8   3    9.96    1.41
   2   8  -3    8.13    1.45
  -2  -8  -3    7.05    0.97
  -2  -8  -3    8.83    1.39
   3   0   3   16.39    0.57
   3   0   3   15.97    0.56
   3   0  -3   16.03    0.59
   3   0  -3   16.80    0.72
  -3   0  -3   15.88    0.55
   3   0   3   16.31    0.61
   3   0  -3   15.33    0.62
   3   0   3   16.16    0.69
  -3   0  -3   16.23    0.52
  -3   0  -3   15.93    0.60
  -3   0  -3   15.27    0.55
   3   0  -3   16.50    0.69
   3   0   3   17.02    0.53
  -3   0   3   16.21    0.67
  -3   0   3   16.20    0.43
  -3   0   3   16.04    0.42
  -3   0   3   15.71    0.58
  -3   0   3   16.37    0.69
   3   1   3    4.50    0.28
   3  -1  -3    4.25    0.33
   3  -1  -3    4.36    0.21
  -3  -1   3    4.26    0.18
   3  -1  -3    3.83    0.29
  -3  -1   3    4.30    0.35
  -3   1  -3    4.37    0.24
   3   1   3    4.49    0.16
   3  -1  -3    3.91    0.34
   3   1   3    4.27    0.16
   3   1   3    3.96    0.29
  -3   1  -3    4.25    0.30
  -3  -1   3    4.06    0.32
   3   1   3    4.36    0.30
  -3  -1   3    4.08    0.28
  -3   1  -3    4.35    0.44
  -3   1  -3    4.09    0.32
   3  -1  -3    4.78    0.42
  -3   1   3    4.19    0.33
   3   1  -3    4.57    0.36
  -3  -1  -3    4.14    0.30
  -3   1   3    4.72    0.40
   3  -1   3    4.30    0.33
  -3   1   3    3.86    0.28
  -3  -1  -3    4.13    0.15
   3   1  -3    4.42    0.22
   3  -1   3    3.63    0.32
  -3  -1  -3    4.02    0.25
   3  -1   3    4.15    0.26
   3   1  -3    4.91    0.33
   3   1  -3    3.60    0.32
   3  -1   3    4.13    0.34
   3   1  -3    4.17    0.31
   3  -1   3    4.39    0.32
  -3  -1  -3    4.01    0.15
  -3   1   3    3.45    0.33
  -3   1   3    4.31    0.22
  -3  -2   3    1.49    0.16
   3  -2  -3    2.05    0.20
   3   2   3    1.48    0.22
  -3  -2   3    1.62    0.19
  -3   2  -3    1.88    0.27
  -3   2  -3    1.60    0.17
  -3  -2   3    2.12    0.30
   3  -2  -3    1.78    0.29
  -3   2  -3    1.95    0.24
  -3  -2   3    0.91    0.27
  -3   2  -3    0.99    0.19
   3   2   3    1.68    0.24
   3  -2  -3    1.49    0.21
   3  -2  -3    1.68    0.31
   3   2  -3    1.47    0.23
  -3   2   3    1.82    0.24
  -3   2   3    2.00    0.29
   3  -2   3    1.85    0.21
  -3   2   3    1.48    0.28
   3  -2   3    1.27    0.23
  -3  -2  -3    1.70    0.22
  -3  -2  -3    1.63    0.19
  -3   2   3    1.36    0.25
   3  -2   3    1.28    0.29
   3   2  -3    1.51    0.21
   3   2  -3    1.72    0.21
  -3   2   3    1.61    0.26
   3  -2   3    1.63    0.21
  -3   3  -3   13.73    0.59
  -3  -3   3   12.70    0.56
   3  -3  -3   13.09    0.75
   3  -3  -3   15.13    0.82
   3   3   3   13.95    0.57
  -3  -3   3   12.89    0.67
   3  -3  -3   13.49    0.56
  -3  -3   3   14.24    0.76
   3  -3  -3   13.20    0.60
  -3   3  -3   13.97    0.60
  -3   3  -3   13.33    0.79
  -3  -3   3   13.48    0.72
  -3   3   3   13.68    0.76
   3   3  -3   13.72    0.65
  -3  -3  -3   13.83    0.74
   3  -3   3   13.29    0.80
   3   3  -3   13.54    0.60
   3  -3   3   12.72    0.74
   3   3  -3   13.39    0.70
  -3   3   3   13.01    0.83
  -3   3   3   13.54    0.75
  -3   4  -3   10.05    0.99
   3   4   3   11.63    0.53
  -3   4  -3   11.40    0.54
   3  -4  -3   11.65    0.79
  -3   4  -3   10.28    0.93
  -3   4  -3   10.37    0.74
   3   4   3   11.80    0.53
  -3  -4   3   10.47    0.70
  -3  -4   3   11.04    0.80
  -3  -4   3   10.62    0.72
   3  -4  -3   12.59    0.93
   3  -4  -3   12.06    0.94
   3   4   3   10.97    0.88
   3  -4  -3    9.93    0.48
   3  -4  -3   10.21    0.55
  -3   4   3   11.46    0.77
  -3   4   3   11.15    0.87
  -3  -4  -3   12.12    0.50
   3   4  -3   10.57    0.70
   3  -4   3   10.71    0.77
   3  -4   3   10.09    0.81
  -3  -4  -3   11.60    0.48
   3   4  -3   11.34    0.55
  -3  -4  -3   12.09    0.81
  -3   5  -3    0.95    0.63
   3  -5  -3   -0.18    0.43
   3  -5  -3   -0.34    0.53
  -3  -5   3    0.04    0.38
  -3   5  -3    0.26    0.48
  -3  -5   3    0.65    0.46
   3   5   3   -0.17    0.57
   3  -5  -3    0.03    0.17
  -3  -5   3    0.90    0.38
   3   5  -3   -0.03    0.56
  -3   5   3    0.25    0.42
   3  -5   3   -0.39    0.68
   3   5  -3    0.21    0.23
  -3   5   3   -0.58    0.43
   3   5  -3   -0.02    0.45
   3  -5   3    0.11    0.44
  -3  -5  -3   -0.05    0.25
  -3  -5  -3    0.52    0.50
  -3  -5  -3    0.12    0.28
  -3   6  -3    2.38    0.75
   3  -6  -3    2.62    0.72
   3  -6  -3    2.92    0.80
  -3  -6   3    1.83    0.71
  -3   6  -3    2.88    1.02
   3   6   3    1.78    0.81
  -3  -6   3    2.78    0.74
  -3  -6  -3    2.86    0.54
  -3   6   3    2.47    0.75
  -3   6   3    2.14    0.63
   3   6  -3    1.94    0.30
  -3  -6  -3    2.50    0.76
   3  -6   3    2.15    0.67
   3   6  -3    1.86    0.80
   3  -6   3    2.51    0.93
  -3  -6  -3    2.27    0.45
  -3  -7   3    4.03    1.06
  -3  -7   3    4.17    0.93
   3   7   3    3.56    1.08
  -3   7  -3    5.01    1.09
   3  -7  -3    3.76    1.15
   3  -7  -3    2.22    1.00
  -3  -7  -3    2.86    0.74
   3   7  -3    5.50    1.24
  -3  -7  -3    4.46    1.07
  -3  -7  -3    2.75    0.59
   3  -7   3    4.08    1.04
  -3   7   3    2.64    0.95
   3  -7   3    4.77    1.33
   4   0   3  138.11    3.57
  -4   0  -3  145.13    3.61
   4   0   3  142.53    3.26
   4   0  -3  145.33    3.81
  -4   0   3  138.75    3.78
  -4   0   3  134.86    3.39
  -4   0  -3  142.33    3.62
   4   0   3  145.76    3.60
   4   0  -3  137.97    3.48
  -4   0  -3  142.36    3.45
  -4   0  -3  139.21    3.26
  -4   1  -3   65.33    1.95
  -4   1  -3   65.73    1.85
  -4  -1   3   64.89    1.81
   4  -1  -3   65.22    2.02
   4  -1  -3   65.07    2.03
  -4   1  -3   63.75    1.94
   4  -1  -3   65.69    1.58
  -4   1  -3   66.44    1.93
   4   1   3   64.93    1.92
   4  -1  -3   64.07    1.86
   4   1   3   64.16    1.69
  -4  -1   3   68.25    1.98
  -4   1  -3   65.28    1.68
   4   1   3   64.06    1.78
  -4  -1   3   67.31    2.00
   4   1   3   67.05    1.62
  -4   1   3   64.22    2.02
  -4   1   3   66.13    1.60
   4  -1   3   65.31    1.68
   4  -1   3   66.86    1.93
  -4   1   3   67.34    1.85
   4  -1   3   62.74    1.87
   4   1  -3   63.83    1.87
  -4   1   3   63.74    2.01
  -4  -1  -3   71.99    1.62
  -4  -1  -3   64.10    1.81
  -4  -1  -3   62.32    1.68
  -4  -1  -3   66.79    1.62
   4   1  -3   65.99    1.96
  -4  -2   3  113.69    3.15
  -4   2  -3  110.67    2.87
  -4  -2   3  111.36    2.70
  -4  -2   3  112.53    3.13
   4  -2  -3  111.07    2.78
  -4   2  -3  107.64    2.72
   4  -2  -3  112.60    2.89
  -4   2  -3  115.48    3.24
   4  -2  -3  113.31    3.27
   4  -2  -3  112.76    3.25
   4   2  -3  112.47    3.12
   4  -2   3  113.18    3.04
   4   2  -3  110.34    2.74
   4  -2   3  115.69    3.22
  -4  -2  -3  118.76    2.79
  -4   2   3  111.25    2.80
  -4   2   3  114.15    3.25
  -4   2   3  114.66    2.92
  -4   2   3  117.86    3.30
   4   2  -3  114.13    2.93
   4  -3  -3   46.88    1.45
  -4   3  -3   49.05    1.81
  -4  -3   3   50.42    1.61
   4  -3  -3   48.68    1.77
  -4   3  -3   48.88    1.75
   4  -3  -3   48.58    1.51
  -4   3  -3   50.40    1.54
  -4  -3   3   48.03    1.39
  -4  -3   3   49.49    1.65
   4  -3  -3   47.23    1.82
  -4   3  -3   50.69    1.51
  -4  -3   3   49.21    1.62
  -4  -3  -3   49.59    1.61
  -4   3   3   46.45    1.73
   4   3  -3   48.18    1.60
  -4   3   3   46.99    1.60
   4  -3   3   47.39    1.72
   4   3  -3   47.45    1.45
   4   3  -3   49.38    1.54
  -4   3   3   47.34    1.79
   4  -3   3   50.78    1.67
  -4   4  -3   45.93    1.49
  -4  -4   3   48.69    1.54
  -4  -4   3   42.66    1.66
  -4   4  -3   46.89    1.61
  -4   4  -3   48.65    1.94
   4   4   3   49.17    1.42
   4  -4  -3   45.85    1.90
  -4  -4   3   46.50    1.62
   4  -4  -3   48.24    1.63
   4   4   3   47.73    1.73
  -4   4  -3   45.41    1.86
   4  -4  -3   46.18    1.43
   4  -4  -3   42.58    1.93
   4   4  -3   46.60    1.53
   4  -4   3   47.30    1.82
  -4   4   3   44.72    1.66
   4  -4   3   46.16    1.72
  -4  -4  -3   48.02    1.70
  -4   4   3   46.11    1.77
   4   4  -3   44.10    1.63
   4   5   3   13.19    1.12
  -4  -5   3   14.27    1.02
  -4   5  -3   11.92    1.33
   4   5   3   13.24    0.62
   4  -5  -3   12.12    0.63
   4  -5  -3   11.94    1.04
  -4  -5   3   14.53    0.92
  -4   5  -3   12.56    1.07
  -4  -5   3   12.68    0.98
   4  -5  -3   11.76    1.30
  -4  -5  -3   13.82    1.03
  -4   5   3   15.69    1.37
   4  -5   3   13.46    1.04
   4  -5   3   14.84    1.38
  -4   5   3   14.56    1.15
   4   5  -3   13.15    0.89
   4   5  -3   15.24    1.20
  -4   6  -3   18.31    1.44
   4   6   3   19.41    1.51
  -4  -6   3   18.82    1.39
  -4   6  -3   21.67    1.90
   4  -6  -3   20.51    1.50
   4  -6  -3   18.29    1.72
  -4  -6   3   19.26    1.37
  -4   6   3   21.91    2.01
   4  -6   3   19.05    1.31
  -4  -6  -3   15.96    1.42
  -4  -6  -3   19.20    0.65
   4  -6   3   19.63    1.92
  -4   6   3   18.47    1.41
  -4  -6  -3   18.81    0.62
   4   6  -3   18.10    1.53
   4  -6   3   19.13    1.25
   4   6  -3   20.11    1.10
  -4  -7   3   11.06    1.19
   4  -7  -3    8.44    1.30
  -4  -7   3    9.80    1.31
   4  -7  -3    8.45    1.44
  -4   7  -3    9.09    1.29
   4   7   3    8.56    1.37
  -4  -7  -3   10.16    0.58
  -4  -7  -3    8.55    1.24
   4  -7   3   10.30    1.34
  -4  -7  -3   10.34    0.54
   4   7  -3   11.77    1.56
  -4   7   3    7.16    1.24
   4  -7   3    7.27    1.59
   5   0   3   15.86    0.65
  -5   0   3   15.94    0.88
   5   0  -3   16.15    0.89
   5   0   3   17.32    0.74
  -5   0  -3   15.18    0.63
  -5   0  -3   15.43    0.63
  -5   0  -3   15.46    0.66
   5   0  -3   15.98    0.78
  -5   0  -3   17.10    0.83
  -5   0   3   16.66    0.85
  -5  -1   3   10.08    0.61
   5   1   3    9.30    0.59
  -5  -1   3    9.93    0.69
   5  -1  -3    8.58    0.72
  -5   1  -3   10.31    0.66
  -5  -1   3   10.08    0.67
   5  -1  -3    9.99    0.68
  -5   1  -3   10.91    0.71
  -5   1  -3    8.16    0.47
  -5   1  -3   10.43    0.59
  -5  -1  -3    9.65    0.60
  -5   1   3   10.25    0.79
  -5  -1  -3   10.24    0.35
   5   1  -3   11.09    0.64
  -5   1   3   10.19    0.70
  -5  -1  -3   10.61    0.36
   5  -1   3   10.33    0.60
   5  -1   3    9.56    0.57
  -5   1   3   11.05    0.74
   5   1  -3   10.20    0.72
  -5  -2   3   34.74    0.86
   5  -2  -3   35.27    1.37
  -5  -2   3   34.27    1.25
  -5  -2   3   34.20    1.30
  -5   2  -3   35.32    1.29
  -5   2  -3   33.37    1.32
   5  -2  -3   33.59    1.30
  -5   2  -3   33.24    1.19
   5  -2  -3   33.55    0.99
  -5   2  -3   33.24    1.36
  -5  -2   3   31.95    1.30
   5  -2   3   35.59    1.30
   5  -2   3   32.31    1.28
   5   2  -3   32.21    0.88
  -5   2   3   34.50    1.48
  -5   2   3   36.87    1.07
  -5   2   3   33.94    1.38
  -5   2   3   34.69    1.32
  -5  -2  -3   33.94    1.21
   5   2  -3   35.45    1.34
   5   2  -3   34.26    1.26
   5  -3  -3    1.22    0.24
  -5   3  -3    1.67    0.45
  -5  -3   3    1.04    0.35
  -5   3  -3    0.84    0.43
  -5  -3   3    1.16    0.40
   5  -3  -3    0.95    0.43
   5  -3  -3    1.27    0.40
  -5   3  -3    1.54    0.49
  -5  -3   3    1.39    0.20
  -5  -3   3    1.05    0.31
   5   3  -3    1.75    0.39
   5   3  -3    1.07    0.44
   5  -3   3    1.14    0.44
   5   3  -3    0.99    0.29
   5  -3   3    0.66    0.38
  -5   3   3    1.32    0.54
  -5   3   3    2.03    0.52
  -5   3   3    1.17    0.58
   5   4   3    8.64    0.80
  -5   4  -3    8.46    0.98
  -5  -4   3    8.28    0.76
   5  -4  -3    6.90    0.97
   5  -4  -3    7.44    0.80
  -5   4  -3    6.43    0.71
  -5  -4   3    7.96    0.65
  -5  -4   3    6.93    0.72
   5  -4  -3    8.46    0.78
   5  -4   3    8.42    0.89
   5   4  -3    8.26    0.83
  -5   4   3    6.53    0.90
  -5   4   3    6.97    0.77
   5  -4   3    7.29    0.80
  -5  -4  -3    7.75    0.80
  -5   5  -3    6.67    0.81
  -5   5  -3    8.53    1.12
  -5  -5   3    6.89    0.81
  -5  -5   3    5.98    0.73
   5  -5  -3    5.44    1.05
   5  -5  -3    6.05    0.68
   5   5   3    5.21    0.67
  -5  -5   3    6.81    0.80
   5  -5  -3    6.08    0.84
   5   5   3    5.49    0.93
  -5  -5  -3    6.60    0.86
   5  -5   3    5.96    1.20
  -5   5   3    5.52    0.86
   5  -5   3    6.88    0.88
  -5   5   3    6.21    1.12
   5   5  -3    5.60    0.72
   5   6   3    8.26    1.24
  -5  -6   3    8.98    1.05
  -5   6  -3    7.27    1.40
   5  -6  -3    9.00    1.11
  -5   6  -3    9.12    1.13
   5  -6  -3    8.58    1.41
  -5  -6   3    8.92    0.95
  -5   6   3    9.24    1.54
   5  -6   3   11.29    1.21
  -5  -6  -3    8.83    1.10
   5   6  -3   10.69    1.36
   5   6  -3    9.12    0.88
  -5   6   3    6.90    1.09
   5  -6   3   10.15    0.99
   5  -6   3    5.44    1.46
  -5   7  -3   -0.67    1.82
  -5  -7   3   -0.34    0.77
   5  -7  -3    0.03    1.13
  -5  -7   3   -0.02    1.11
  -5   7  -3    0.67    1.13
   5  -7  -3   -2.14    1.44
   5   7   3    1.75    1.27
  -5   7   3   -0.33    0.96
   5  -7   3   -0.72    1.01
  -5  -7  -3    1.79    1.04
   5   7  -3   -1.85    1.25
   6   0  -3   33.97    1.34
   6   0  -3   33.29    1.39
  -6   0   3   29.67    1.29
   6   0   3   33.53    1.16
  -6   0  -3   33.19    1.11
  -6   0   3   35.28    1.41
  -6   0  -3   33.96    1.16
  -6   0  -3   34.12    1.22
  -6   0   3   33.49    1.32
  -6   1  -3   71.88    2.02
   6  -1  -3   67.49    2.25
   6  -1  -3   67.53    2.19
  -6  -1   3   68.59    2.17
  -6  -1   3   69.26    2.22
  -6   1  -3   68.48    2.15
  -6   1  -3   66.08    2.11
  -6  -1   3   67.55    2.10
   6   1  -3   67.36    2.18
  -6  -1  -3   70.91    1.78
   6  -1   3   70.91    2.10
  -6  -1  -3   68.77    2.01
  -6  -1  -3   69.12    1.78
  -6   1   3   71.53    2.35
  -6   1   3   72.25    2.16
  -6   1   3   68.56    2.27
   6   1  -3   71.88    2.21
   6  -1   3   68.80    2.14
  -6  -2   3   33.13    1.35
   6   2   3   34.88    1.45
   6  -2  -3   32.81    0.93
  -6   2  -3   30.74    1.41
  -6   2  -3   36.60    1.35
  -6   2  -3   35.35    1.40
   6  -2  -3   33.22    1.47
  -6  -2   3   32.25    1.26
  -6  -2   3   34.02    1.39
   6  -2  -3   32.80    1.40
   6   2  -3   32.60    1.30
  -6   2   3   35.38    1.61
   6  -2   3   34.66    1.35
  -6  -2  -3   33.48    1.26
  -6   2   3   32.16    1.00
   6   2  -3   32.74    1.40
  -6   2   3   32.33    1.41
  -6   2   3   29.27    1.44
  -6   3  -3   36.12    1.68
  -6  -3   3   36.15    1.43
  -6  -3   3   37.16    1.52
   6   3   3   36.63    1.56
   6  -3  -3   36.05    1.16
  -6  -3   3   35.73    1.37
   6  -3  -3   37.41    1.50
  -6  -3   3   36.08    1.01
   6  -3  -3   34.94    1.62
  -6   3  -3   36.37    1.45
   6  -3   3   38.12    1.57
  -6   3   3   35.18    1.54
   6  -3   3   37.89    1.49
  -6   3   3   39.40    1.90
   6   3  -3   37.59    1.55
   6  -4  -3   22.00    1.67
  -6  -4   3   22.24    1.17
  -6   4  -3   21.23    1.23
  -6  -4   3   22.99    1.09
  -6  -4   3   20.55    1.28
  -6  -4   3   20.65    0.86
  -6   4  -3   21.25    1.55
   6  -4  -3   22.80    1.28
   6  -4  -3   21.90    1.16
   6   4   3   20.68    1.29
   6   4  -3   23.36    1.30
  -6   4   3   21.93    1.58
   6  -4   3   23.29    1.40
   6  -4   3   23.62    1.31
  -6   4   3   23.27    1.37
   6  -5  -3   22.08    2.10
   6  -5  -3   22.87    1.42
  -6  -5   3   21.87    1.46
   6   5   3   21.75    1.34
   6   5   3   22.41    1.72
  -6  -5   3   22.85    1.28
  -6  -5   3   22.30    1.27
   6  -5  -3   21.33    1.36
  -6   5  -3   21.65    1.92
  -6   5  -3   23.01    1.41
   6  -5   3   22.23    1.48
   6   5  -3   23.52    1.46
   6  -5   3   22.80    1.63
  -6   5   3   25.81    1.52
  -6   5   3   19.47    1.94
  -6   6  -3   13.70    1.78
   6  -6  -3   12.61    1.77
   6   6   3   17.44    1.70
  -6  -6   3   12.96    1.24
   6  -6  -3   13.91    1.35
  -6   6  -3   13.76    1.44
  -6  -6   3   14.02    1.52
  -6   6   3   10.96    1.71
  -6   6   3   16.32    1.58
  -6  -6  -3   14.86    1.40
   6   6  -3   13.92    1.64
   6  -6   3   14.72    1.60
  -7   0   3   21.93    1.14
   7   0  -3   21.93    1.18
  -7   0  -3   22.08    1.01
  -7   0   3   20.45    1.17
  -7   0  -3   21.73    0.95
   7   0  -3   22.01    1.27
   7   0   3   22.39    1.10
  -7   0   3   22.14    1.21
  -7   0  -3   23.04    1.13
  -7   1  -3   13.57    0.80
  -7   1  -3   13.41    0.90
   7   1   3   11.71    0.95
  -7   1  -3   13.63    0.90
  -7  -1   3   14.00    0.97
  -7  -1   3   12.80    0.95
   7  -1  -3   12.12    1.13
  -7  -1   3   11.54    0.86
   7  -1  -3   12.43    0.93
  -7  -1  -3   13.40    0.48
   7   1  -3   12.96    1.04
  -7  -1  -3   13.69    0.49
  -7   1   3   13.13    1.06
  -7  -1  -3   13.69    0.89
   7  -1   3   13.17    0.96
  -7   1   3   13.48    1.07
  -7  -2   3    7.16    0.80
  -7  -2   3    8.11    0.81
   7  -2  -3    6.54    0.88
   7  -2  -3    8.30    0.91
  -7   2  -3    6.85    0.73
   7   2   3    9.57    1.03
  -7   2  -3    7.40    0.76
  -7  -2   3    9.04    0.72
   7   2   3    8.03    0.96
  -7   2  -3    8.48    0.92
  -7  -2  -3    8.06    0.84
  -7   2   3    8.73    0.93
   7  -2   3    8.77    0.86
  -7   2   3    8.08    0.96
   7   2  -3    8.30    0.91
  -7   3  -3   17.14    1.29
   7  -3  -3   15.89    1.19
   7   3   3   19.07    1.35
   7   3   3   17.54    1.35
  -7   3  -3   17.14    1.19
  -7  -3   3   13.16    0.93
  -7  -3   3   14.71    0.96
   7  -3  -3   16.41    1.22
  -7  -3   3   16.93    1.16
   7  -3  -3   15.21    0.67
   7   3  -3   14.63    1.16
   7  -3   3   15.92    1.12
  -7   3   3   14.47    1.20
  -7   3   3   16.42    1.47
  -7  -3  -3   13.37    1.06
   7  -4  -3   11.83    1.14
   7  -4  -3   10.01    1.03
  -7   4  -3   10.03    1.08
  -7  -4   3    9.69    0.96
   7  -4  -3    8.81    1.40
  -7  -4   3   12.55    1.20
  -7   4  -3   12.78    1.43
   7   4   3   12.45    1.30
  -7  -4   3   12.19    1.00
   7  -4   3    9.34    1.13
   7   4  -3   12.21    1.25
  -7   4   3   12.68    1.25
   7  -4   3   12.17    1.16
  -7   4   3   12.69    1.39
  -7   5  -3    4.14    1.22
   7   5   3    3.71    1.25
   7   5   3    3.23    0.91
  -7   5  -3    2.76    0.97
  -7  -5   3    3.66    0.65
   7  -5  -3    1.65    0.89
   7  -5  -3    3.59    0.90
  -7   5   3    2.57    1.04
  -7   5   3    4.03    1.43
   7  -5   3    4.84    1.07
   7  -5   3    3.87    0.97
   7   5  -3    4.78    1.00
   7   6   3    2.63    1.47
  -7  -6   3    1.12    0.71
  -7   6  -3    0.61    1.25
   7  -6  -3    2.12    1.20
  -7   6  -3    5.44    1.62
   7  -6   3    2.53    1.16
  -7   6   3   -0.20    1.14
  -7   6   3   -0.35    1.71
   7   6  -3    2.24    1.36
   8   0   3   12.59    1.35
  -8   0  -3   12.35    1.02
  -8   0   3   12.39    1.13
  -8   0  -3   12.46    0.92
  -8   0  -3   13.38    0.80
  -8   0   3   13.11    1.21
   8   0  -3   12.47    1.23
   8   0   3   12.85    1.03
   8  -1  -3    3.26    0.81
  -8   1  -3    4.49    0.74
  -8   1  -3    3.47    0.49
   8   1   3    3.99    0.68
  -8  -1   3    3.47    0.65
  -8  -1   3    4.17    0.72
   8   1   3    3.52    0.90
  -8   1  -3    2.98    0.58
  -8  -1  -3    3.71    0.70
   8   1  -3    4.65    0.83
   8  -1   3    4.17    0.91
  -8   1   3    3.94    0.76
   8  -1   3    4.30    0.69
  -8   1   3    3.92    0.81
  -8  -2   3    8.90    0.87
  -8  -2   3    9.01    0.93
  -8   2  -3   10.79    1.11
  -8  -2   3   10.13    1.09
   8   2   3    8.85    1.08
  -8   2  -3    8.52    1.01
   8   2   3   10.54    0.97
   8  -2  -3   10.15    1.13
   8  -2   3   10.96    1.05
  -8   2   3    9.30    1.06
  -8   2   3    9.77    1.05
  -8  -2  -3    9.50    1.00
   8  -2   3    9.21    1.20
   8   2  -3    9.40    1.14
   8  -3  -3    3.87    0.89
  -8   3  -3    3.71    0.92
  -8  -3   3    3.51    0.81
  -8  -3   3    2.89    0.82
   8   3   3    3.19    0.97
  -8  -3   3    1.87    0.55
   8   3   3    2.48    0.86
  -8   3  -3    2.87    0.79
   8  -3   3    3.85    0.80
  -8   3   3    4.54    1.12
   8   3  -3    3.75    0.90
  -8  -3  -3    2.69    0.82
   8  -3   3    2.17    1.01
  -8   3   3    2.48    0.87
  -8  -4   3    5.07    1.01
   8  -4  -3    3.57    1.01
  -8   4  -3    4.94    1.11
  -8   4  -3    3.30    0.99
   8   4   3    3.83    1.07
  -8  -4   3    3.59    0.68
   8   4   3    7.96    1.28
   8  -4   3    3.95    0.92
   8   4  -3    4.79    1.07
  -8   4   3    4.57    1.26
   8  -4   3    7.35    1.26
  -8   4   3    5.13    1.11
  -8   5  -3    1.19    1.27
  -8   5  -3   -0.69    0.96
   8   5   3   -1.77    1.09
   8   5   3    2.65    1.35
  -8  -5   3   -0.62    0.58
   8  -5  -3   -1.73    1.11
  -8   5   3   -0.49    1.18
  -8   5   3   -1.41    1.43
   8  -5   3    0.73    1.01
   8  -5   3    0.18    1.18
   8   5  -3    0.23    1.13
  -9   0  -3    0.51    0.75
   9   0  -3    0.75    0.85
  -9   0   3    0.89    0.71
  -9   0  -3    0.74    0.45
  -9   0   3   -1.31    0.65
   9   0   3    1.15    1.00
  -9  -1   3   13.67    1.36
  -9   1  -3    9.95    1.08
  -9   1  -3   12.04    1.11
   9   1   3    9.95    1.35
   9  -1  -3   12.51    1.33
  -9  -1   3   11.96    1.17
  -9   1   3   10.92    1.22
  -9   1   3   12.65    1.39
  -9  -1  -3   12.84    1.25
   9   1  -3   12.92    1.34
   9  -1   3   13.96    1.50
   9   2   3    0.90    0.98
  -9   2  -3    0.02    0.66
   9  -2  -3    1.17    0.89
  -9  -2   3    1.85    0.63
  -9  -2   3    0.01    0.77
  -9   2  -3   -0.08    0.85
   9   2  -3    0.43    0.85
  -9   2   3    1.50    0.97
  -9  -2  -3    1.80    0.84
  -9   2   3    0.29    0.86
   9  -2   3    0.88    1.03
  -9   3  -3    6.56    1.18
   9   3   3    6.17    1.35
  -9  -3   3    6.17    1.15
  -9  -3   3    6.37    0.76
   9  -3  -3    5.56    1.22
  -9   3  -3    6.75    1.08
   9  -3   3    7.37    1.30
   9   3  -3    3.35    1.14
  -9   3   3    6.04    1.30
  -9   3   3    7.54    1.17
  -9  -3  -3    3.59    0.99
   9   4   3   -0.41    1.17
  -9  -4   3    1.43    1.06
  -9   4  -3    0.58    1.12
   9  -4  -3    1.10    1.22
  -9  -4   3    0.44    0.62
  -9   4  -3    0.34    1.13
   9  -4   3    0.73    1.29
  -9   4   3   -0.48    1.05
  -9   4   3    0.74    1.45
   9   4  -3   -0.10    1.13
 -10   0   3    3.60    0.89
 -10   0  -3    3.36    0.55
  10   0  -3    3.50    1.26
 -10   0  -3    3.12    1.14
 -10   0   3    3.23    1.09
 -10   0  -3    3.24    0.61
  10   0   3    3.83    1.30
 -10  -1   3   -0.27    1.02
 -10   1  -3    1.35    0.72
  10  -1  -3    1.01    0.97
 -10   1  -3    1.45    1.00
 -10  -1   3    1.13    0.78
  10   1   3    0.34    1.16
 -10   1   3    3.84    1.07
 -10  -1  -3    1.94    1.04
  10  -1   3    0.69    1.13
 -10   1   3    1.64    1.00
  10   1  -3    1.35    1.14
  10   2   3    3.39    1.40
  10  -2  -3    2.36    1.25
 -10  -2   3    2.13    1.10
 -10   2  -3    2.87    1.18
 -10  -2   3    3.54    0.76
 -10   2  -3    3.91    0.94
 -10  -2  -3    3.27    1.19
 -10   2   3    2.22    1.22
  10  -2   3    2.66    1.34
 -10   2   3    4.13    1.27
  10   2  -3    1.73    1.11
   0   0  -4   12.14    0.52
   0   0   4   11.93    0.51
   0   0  -4   10.90    0.50
   0   0   4   12.13    0.48
   0   0   4   11.46    0.32
   0   0   4   11.48    0.50
   0   0   4   11.33    0.53
   0   0  -4    9.54    0.32
   0   0  -4   11.44    0.47
   0  -1   4   -0.24    0.10
   0   1  -4   -0.41    0.09
   0   1  -4   -0.16    0.11
   0   1   4   -0.32    0.10
   0   1   4   -0.50    0.11
   0  -1   4   -0.15    0.12
   0   1   4   -0.26    0.13
   0   1  -4   -0.34    0.06
   0  -1   4   -0.59    0.12
   0  -1   4   -0.41    0.14
   0  -1  -4   -0.26    0.10
   0   1  -4   -0.05    0.16
   0  -1  -4   -0.30    0.09
   0   1   4   -0.23    0.12
   0   1  -4   -0.16    0.14
   0  -1  -4   -0.27    0.10
   0   1   4   -0.25    0.07
   0  -1  -4   -0.29    0.09
   0   2  -4   -0.22    0.12
   0   2   4   -0.17    0.11
   0  -2  -4   -0.50    0.11
   0  -2  -4   -0.16    0.14
   0   2  -4   -0.32    0.11
   0  -2   4   -0.43    0.13
   0  -2  -4   -0.12    0.10
   0  -2  -4   -0.38    0.09
   0   2  -4    0.09    0.11
   0   2   4   -0.20    0.12
   0  -2   4   -0.20    0.17
   0   2   4   -0.23    0.17
   0   2  -4   -0.40    0.21
   0   2   4   -0.02    0.12
   0   2  -4   -0.15    0.16
   0   2   4   -0.05    0.15
   0  -2   4    0.08    0.20
   0  -2  -4   -0.13    0.17
   0   2  -4   -0.34    0.18
   0   3   4   -0.23    0.12
   0   3  -4   -0.07    0.16
   0  -3   4   -0.10    0.20
   0  -3  -4   -0.06    0.24
   0   3  -4   -0.18    0.21
   0   3  -4   -0.44    0.27
   0  -3  -4    0.07    0.15
   0   3  -4    0.28    0.20
   0   3   4    0.09    0.17
   0  -3  -4   -0.06    0.10
   0   3  -4   -0.29    0.13
   0  -3   4   -0.08    0.20
   0  -3   4   -0.08    0.27
   0  -3  -4   -0.20    0.22
   0  -3   4    0.18    0.24
   0   3   4   -0.14    0.15
   0   4  -4    5.85    0.40
   0  -4   4    6.61    0.71
   0   4   4    6.39    0.52
   0   4   4    7.21    0.68
   0  -4  -4    7.35    0.69
   0  -4   4    6.38    0.67
   0   4  -4    6.89    0.61
   0  -4   4    6.53    0.52
   0  -4  -4    6.55    0.61
   0   4   4    6.90    0.29
   0  -4  -4    6.81    0.27
   0  -4  -4    5.34    0.49
   0  -4   4    5.35    0.62
   0   4  -4    6.29    0.62
   0   5  -4   -0.02    0.38
   0   5  -4    0.50    0.53
   0  -5  -4    0.26    0.42
   0   5   4   -0.23    0.36
   0   5  -4   -0.57    0.18
   0  -5  -4   -0.55    0.31
   0  -5   4   -0.12    0.35
   0  -5   4   -0.26    0.47
   0  -5   4   -0.25    0.50
   0  -5  -4    0.03    0.33
   0  -5   4    0.25    0.41
   0   5   4    0.11    0.44
   0  -6  -4    0.66    0.49
   0  -6  -4    0.88    0.61
   0  -6   4   -0.07    0.73
   0   6  -4   -0.21    0.62
   0   6  -4    0.06    0.57
   0  -6   4    0.82    0.58
   0   6  -4   -0.10    0.22
   0   6   4    0.03    0.69
   0   7   4   -0.63    0.78
   0   7  -4   -0.11    0.87
   0  -7  -4   -0.49    0.67
   0  -7   4   -0.10    0.91
   0  -7  -4   -0.20    0.80
   0  -7   4    0.30    0.75
   0  -8  -4    1.20    1.11
   0  -8   4    1.82    1.27
   0  -8  -4    1.67    1.00
   0   8   4    1.99    1.29
   0  -8   4    2.99    1.07
   0   8  -4    1.67    1.28
   1   0  -4  172.13    3.73
  -1   0   4  169.88    4.35
   1   0  -4  161.32    3.89
  -1   0   4  174.17    3.92
   1   0   4  174.74    3.90
  -1   0   4  168.66    4.08
  -1   0  -4  164.80    4.28
  -1   0  -4  163.60    4.28
   1   0  -4  173.87    4.36
   1   0  -4  175.63    4.36
  -1   0   4  175.03    4.35
   1   0   4  164.05    4.18
  -1   0   4  167.77    3.72
  -1   0  -4  163.07    3.89
   1   0   4  169.66    4.28
   1   0   4  172.57    4.29
  -1   1  -4  160.26    3.43
  -1   1  -4  157.27    3.71
  -1  -1   4  152.51    4.14
  -1   1  -4  162.52    4.00
  -1  -1   4  157.62    4.14
  -1  -1   4  159.97    3.71
   1   1   4  161.88    4.01
  -1  -1   4  159.57    3.86
   1   1   4  159.31    3.50
   1  -1  -4  153.19    3.67
  -1  -1   4  160.20    3.55
  -1   1  -4  159.56    4.13
   1  -1  -4  161.66    3.58
  -1   1  -4  161.87    4.13
   1  -1  -4  161.00    4.15
   1  -1  -4  158.65    4.12
   1   1   4  160.47    3.67
   1   1   4  150.26    4.00
   1   1   4  155.82    3.85
   1  -1   4  158.62    4.11
  -1  -1  -4  164.16    3.68
   1  -1   4  161.48    4.13
  -1  -1  -4  164.79    4.02
   1   1  -4  159.04    3.71
   1   1  -4  161.62    3.90
  -1   1   4  159.70    3.80
  -1   1   4  163.29    3.69
  -1   1   4  152.69    4.11
   1   1  -4  163.33    3.55
   1  -1   4  159.70    3.96
  -1   1   4  163.83    3.58
   1   1  -4  158.78    4.14
   1   1  -4  151.03    4.14
  -1  -1  -4  159.25    4.01
   1  -1   4  166.94    3.71
  -1   1   4  163.21    4.13
   1  -2  -4   10.11    0.52
   1  -2  -4    8.97    0.50
   1   2   4    9.13    0.41
   1  -2  -4    9.39    0.40
  -1  -2   4    9.22    0.43
   1   2   4    8.80    0.39
  -1   2  -4    9.48    0.53
   1  -2  -4    9.91    0.46
   1  -2  -4    9.77    0.48
   1   2   4    9.39    0.41
  -1   2  -4    9.30    0.53
  -1  -2   4   10.04    0.47
  -1   2  -4    8.83    0.43
   1   2   4    9.77    0.43
  -1  -2   4    9.29    0.50
  -1  -2   4    9.52    0.54
  -1   2  -4    9.12    0.37
   1   2  -4    9.17    0.55
  -1   2   4    9.03    0.46
   1   2  -4    9.88    0.54
  -1  -2  -4    9.67    0.40
   1   2  -4    9.33    0.41
  -1   2   4    9.42    0.40
   1  -2   4    9.83    0.54
   1   2  -4    9.37    0.42
  -1  -2  -4    9.63    0.40
  -1   2   4    9.37    0.43
   1  -2   4    9.55    0.46
   1  -2   4    8.56    0.53
  -1  -2  -4   10.36    0.49
   1   2  -4    9.66    0.53
   1  -2   4    8.76    0.53
  -1   2   4    8.71    0.49
  -1   2   4    8.72    0.49
  -1  -2  -4    9.27    0.41
  -1  -3   4   60.56    1.64
  -1   3  -4   61.59    1.94
  -1   3  -4   63.97    1.96
   1  -3  -4   61.25    1.52
  -1   3  -4   60.26    1.62
  -1   3  -4   62.75    1.63
   1   3   4   59.43    1.72
   1  -3  -4   63.11    1.93
  -1  -3   4   64.96    1.96
   1  -3  -4   61.48    1.81
   1   3   4   60.55    1.52
  -1  -3   4   57.03    1.91
   1  -3  -4   54.45    1.84
   1   3   4   60.85    1.67
  -1  -3  -4   62.11    1.86
  -1  -3  -4   58.56    1.73
   1  -3   4   61.59    1.96
  -1   3   4   61.05    1.72
  -1   3   4   61.26    1.54
  -1   3   4   60.76    1.87
   1   3  -4   57.36    1.89
   1  -3   4   61.28    1.88
   1   3  -4   61.14    1.62
   1  -3   4   60.72    1.94
  -1  -3  -4   61.14    1.51
  -1  -3  -4   59.78    1.76
   1   3  -4   58.92    1.69
   1   3  -4   62.25    1.95
   1  -3   4   59.14    1.62
  -1  -4   4    5.64    0.55
   1  -4  -4    6.76    0.69
  -1   4  -4    6.83    0.43
   1   4   4    6.92    0.49
   1   4   4    6.10    0.65
  -1  -4   4    7.60    0.64
   1  -4  -4    6.61    0.65
   1  -4  -4    7.14    0.31
  -1  -4   4    7.88    0.76
  -1   4  -4    6.81    0.61
  -1   4  -4    7.60    0.67
   1   4   4    6.70    0.32
  -1  -4   4    7.27    0.64
  -1  -4  -4    6.98    0.29
   1  -4   4    6.19    0.50
   1   4  -4    7.41    0.43
   1   4  -4    8.19    0.75
   1  -4   4    8.21    0.70
  -1  -4  -4    6.99    0.46
  -1   4   4    5.74    0.34
  -1  -4  -4    7.19    0.71
  -1   4   4    6.01    0.56
  -1  -4  -4    6.34    0.54
   1   4  -4    6.70    0.61
   1  -4   4    7.46    0.76
   1  -4   4    7.21    0.75
  -1   4   4    6.55    0.65
  -1  -5   4   19.88    1.09
  -1  -5   4   19.58    1.26
  -1   5  -4   20.06    1.06
   1   5   4   21.78    1.01
  -1  -5   4   20.07    1.13
  -1   5  -4   20.51    1.17
   1   5   4   20.19    1.14
  -1   5  -4   19.61    0.72
   1  -5  -4   18.64    1.09
   1  -5  -4   20.39    1.17
  -1  -5   4   18.40    0.93
  -1   5   4   19.83    1.14
   1  -5   4   20.04    1.19
   1   5  -4   20.03    1.09
  -1   5   4   20.70    1.06
   1  -5   4   19.36    1.31
   1   5  -4   20.45    1.23
   1  -5   4   18.36    0.93
  -1  -5  -4   21.22    1.19
  -1  -5  -4   20.09    0.91
   1  -5   4   18.68    1.26
  -1  -5  -4   19.17    1.00
   1   5  -4   19.53    0.72
  -1  -6   4    5.23    0.85
  -1   6  -4    4.20    0.40
   1  -6  -4    5.88    0.84
  -1  -6   4    6.89    0.82
   1   6   4    5.03    0.85
  -1   6  -4    6.11    0.84
  -1   6  -4    4.95    0.72
   1  -6  -4    5.79    0.84
  -1   6   4    4.21    0.77
  -1  -6  -4    5.67    0.85
   1  -6   4    4.70    0.92
   1  -6   4    6.32    0.88
   1   6  -4    5.83    0.95
  -1  -6  -4    4.49    0.65
   1   6  -4    4.64    0.41
  -1  -6  -4    6.30    0.71
   1  -7  -4    7.49    1.21
   1  -7  -4    3.83    0.93
   1   7   4    5.25    1.09
  -1  -7   4    6.32    1.15
  -1   7  -4    6.59    1.11
  -1  -7   4    6.29    1.10
   1  -7   4    5.45    1.03
  -1  -7  -4    5.78    1.11
   1   7  -4    5.60    1.10
  -1   7   4    7.27    1.14
  -1  -7  -4    4.75    0.78
   1  -7   4    7.76    1.29
   1  -8  -4    1.03    1.13
  -1   8  -4    0.90    1.30
   1  -8  -4    0.92    1.07
  -1  -8   4   -0.04    1.17
  -1  -8   4    0.38    1.19
   1   8   4    1.62    1.22
  -1  -8  -4    2.70    1.22
  -1  -8  -4    0.01    0.82
  -1   8   4    1.32    1.19
   1   8  -4    0.51    1.23
   1  -8   4    1.88    1.02
   1  -8   4    1.87    1.41
  -2   0   4  121.52    3.29
   2   0   4  125.35    3.16
   2   0   4  123.10    2.66
   2   0  -4  121.01    2.96
  -2   0  -4  123.42    2.66
  -2   0  -4  119.58    3.16
  -2   0   4  123.75    2.91
   2   0  -4  123.86    2.84
   2   0   4  124.47    2.93
  -2   0   4  125.81    2.85
  -2   0   4  122.85    3.29
  -2   0   4  121.01    2.99
  -2   0   4  123.84    2.97
   2   0  -4  124.03    3.30
   2   0   4  117.59    3.18
   2   0  -4  123.03    3.30
  -2   0  -4  125.51    3.18
  -2   0  -4  119.82    2.93
  -2   1  -4   11.86    0.35
  -2  -1   4   11.64    0.58
   2  -1  -4   11.34    0.56
   2  -1  -4   11.62    0.49
   2   1   4   11.96    0.43
   2   1   4   12.55    0.53
  -2  -1   4   11.45    0.54
  -2   1  -4   10.97    0.60
   2   1   4   11.99    0.39
  -2  -1   4   10.99    0.45
   2   1   4   11.89    0.48
   2   1   4   11.55    0.42
   2  -1  -4   12.92    0.60
   2  -1  -4   11.63    0.51
  -2  -1   4   12.21    0.46
  -2  -1   4   11.52    0.56
  -2   1  -4   11.44    0.50
  -2   1  -4   11.60    0.53
   2   1   4   11.68    0.42
  -2  -1  -4   11.15    0.42
  -2   1   4   11.69    0.46
   2  -1   4   10.68    0.53
   2   1  -4   12.84    0.47
   2   1  -4   11.83    0.49
   2  -1   4   11.11    0.53
   2   1  -4   11.70    0.50
   2  -1   4   10.76    0.55
  -2  -1  -4   11.49    0.47
   2  -1   4   11.25    0.51
  -2  -1  -4   11.84    0.42
  -2   1   4   11.15    0.46
   2  -1   4   11.30    0.36
  -2   1   4   11.52    0.52
   2   1  -4   11.18    0.55
   2   1  -4    9.94    0.55
   2  -2  -4   47.16    1.55
  -2  -2   4   46.43    1.31
  -2  -2   4   47.00    1.36
   2  -2  -4   47.70    1.56
   2  -2  -4   48.08    1.37
   2   2   4   47.44    1.30
   2   2   4   48.70    1.32
   2   2   4   49.10    1.29
   2  -2  -4   49.26    1.33
  -2   2  -4   45.93    1.52
  -2   2  -4   48.27    1.36
   2   2   4   48.36    1.27
  -2  -2   4   47.71    1.39
  -2  -2   4   46.43    1.54
  -2   2  -4   50.65    1.58
  -2   2  -4   47.72    1.22
  -2  -2   4   48.34    1.55
   2   2  -4   49.86    1.57
  -2   2   4   45.86    1.53
  -2  -2  -4   46.50    1.29
   2  -2   4   48.39    1.25
   2   2  -4   48.99    1.34
   2  -2   4   47.36    1.54
   2   2  -4   48.86    1.37
  -2   2   4   45.76    1.33
   2  -2   4   48.91    1.37
   2   2  -4   48.36    1.41
   2   2  -4   48.15    1.55
  -2   2   4   48.41    1.37
  -2  -2  -4   48.45    1.29
  -2   2   4   47.69    1.34
  -2   2   4   48.23    1.57
   2  -2   4   49.03    1.58
   2   3   4    6.55    0.39
   2  -3  -4    7.25    0.67
  -2   3  -4    6.40    0.39
  -2  -3   4    6.27    0.61
  -2  -3   4    7.17    0.55
  -2   3  -4    6.14    0.49
  -2   3  -4    6.61    0.41
  -2  -3   4    6.25    0.39
   2   3   4    6.89    0.35
  -2   3  -4    6.52    0.55
   2   3   4    6.64    0.44
   2  -3  -4    5.67    0.54
   2  -3  -4    7.12    0.37
   2  -3  -4    7.41    0.54
  -2  -3  -4    6.66    0.35
   2  -3   4    6.38    0.63
  -2  -3  -4    6.45    0.58
  -2   3   4    6.86    0.41
  -2   3   4    6.78    0.57
   2  -3   4    6.21    0.49
   2   3  -4    6.73    0.41
  -2   3   4    7.03    0.52
  -2  -3  -4    6.64    0.32
   2   3  -4    5.65    0.48
   2  -3   4    6.72    0.54
  -2  -3  -4    6.92    0.38
   2  -3   4    6.37    0.61
  -2   4  -4   42.71    1.67
   2   4   4   42.99    1.51
  -2   4  -4   42.23    1.25
   2   4   4   41.30    1.14
  -2  -4   4   44.46    1.67
   2  -4  -4   42.21    1.15
  -2  -4   4   43.31    1.49
   2  -4  -4   41.82    1.66
   2  -4  -4   41.49    1.60
  -2   4  -4   44.19    1.65
   2  -4  -4   41.21    1.51
  -2  -4   4   43.32    1.58
   2   4   4   40.79    1.30
  -2   4  -4   43.31    1.45
   2  -4   4   42.15    1.69
  -2  -4  -4   41.87    1.28
  -2  -4  -4   42.53    1.59
  -2   4   4   41.22    1.56
   2   4  -4   42.99    1.56
  -2  -4  -4   42.15    1.33
  -2   4   4   43.15    1.50
   2  -4   4   43.39    1.68
   2   4  -4   42.26    1.26
   2   4  -4   43.18    1.58
   2  -4   4   42.40    1.60
   2  -5  -4    2.22    0.61
  -2   5  -4    3.35    0.33
   2  -5  -4    2.16    0.58
  -2   5  -4    2.60    0.60
   2  -5  -4    2.68    0.24
   2  -5  -4    2.14    0.60
   2   5   4    2.27    0.45
  -2  -5   4    2.43    0.62
   2  -5  -4    2.68    0.21
   2   5   4    3.03    0.69
  -2   5  -4    2.52    0.69
   2   5   4    2.49    0.18
   2   5   4    2.45    0.19
  -2  -5   4    3.31    0.56
  -2  -5   4    2.84    0.53
   2  -5   4    2.49    0.72
   2   5  -4    3.37    0.55
  -2   5   4    2.21    0.50
  -2  -5  -4    2.60    0.30
  -2  -5  -4    1.83    0.38
   2   5  -4    2.82    0.31
  -2   5   4    2.30    0.61
   2   5  -4    3.46    0.67
   2  -5   4    2.87    0.59
  -2  -5  -4    3.45    0.62
  -2   6  -4   11.70    1.11
  -2   6  -4    8.56    0.56
   2  -6  -4    7.67    0.99
  -2   6  -4    9.37    1.19
  -2  -6   4   10.42    1.06
  -2  -6   4    8.94    1.01
   2   6   4   11.71    1.16
   2  -6  -4   10.71    1.09
  -2  -6  -4   10.35    1.00
  -2  -6  -4   12.12    1.15
   2   6  -4   11.27    1.12
   2  -6   4    9.27    1.00
  -2   6   4   11.77    1.17
   2  -6   4   11.00    1.27
   2   6  -4    9.75    0.56
  -2  -6  -4    9.37    0.83
   2  -7  -4    0.75    0.84
  -2  -7   4    1.27    0.81
  -2  -7   4    1.35    0.92
  -2   7  -4    0.72    0.91
   2  -7  -4    0.75    0.97
   2   7   4    0.90    1.02
   2  -7   4    0.89    0.81
  -2  -7  -4    1.70    0.82
  -2  -7  -4    0.75    0.60
   2   7  -4    0.22    0.98
  -2   7   4    1.66    0.89
   2  -7   4    0.73    1.08
   2   8   4    6.34    1.36
  -2  -8   4    9.00    1.47
   2  -8  -4    8.28    1.39
  -2  -8   4    9.88    1.51
  -2   8  -4    9.13    1.51
   2  -8   4    8.58    1.35
  -2  -8  -4    7.57    1.42
   2  -8   4    9.89    1.87
   2   8  -4    9.69    1.47
  -2   8   4    7.31    1.54
   3   0  -4    2.22    0.30
   3   0   4    2.24    0.31
  -3   0   4    1.57    0.15
  -3   0   4    1.62    0.26
  -3   0   4    2.19    0.28
   3   0   4    2.02    0.23
  -3   0  -4    2.01    0.20
   3   0  -4    1.42    0.22
   3   0   4    1.71    0.17
  -3   0  -4    2.38    0.24
  -3   0   4    1.93    0.23
   3   0  -4    1.40    0.25
  -3   0  -4    1.71    0.15
   3   0  -4    2.09    0.28
   3  -1  -4  208.56    5.59
   3  -1  -4  210.09    5.59
  -3  -1   4  210.89    4.89
  -3   1  -4  214.50    4.72
   3   1   4  219.84    5.25
   3   1   4  214.94    4.76
  -3   1  -4  216.61    5.50
  -3  -1   4  218.16    4.97
  -3  -1   4  214.02    5.57
  -3  -1   4  221.06    5.58
  -3   1  -4  214.09    5.48
  -3  -1  -4  226.79    5.26
   3   1  -4  212.70    5.56
  -3  -1  -4  216.59    5.25
  -3   1   4  212.93    4.91
  -3   1   4  218.32    5.00
  -3   1   4  212.82    5.60
   3  -1   4  219.06    4.73
  -3  -1  -4  213.86    4.97
  -3   1   4  214.67    5.59
   3  -1   4  225.92    5.52
  -3  -1  -4  211.92    4.75
   3  -1   4  209.94    5.28
   3   1  -4  207.69    5.55
   3  -2  -4   55.05    1.84
  -3  -2   4   60.08    1.64
  -3  -2   4   58.34    1.53
   3   2   4   54.77    1.50
  -3  -2   4   58.08    1.81
  -3   2  -4   55.56    1.46
  -3   2  -4   58.42    1.65
  -3  -2   4   55.20    1.83
   3  -2  -4   58.53    1.88
   3  -2  -4   56.55    1.59
  -3   2  -4   58.92    1.87
   3  -2  -4   55.58    1.56
  -3   2   4   57.23    1.56
   3   2  -4   56.21    1.58
  -3   2   4   55.81    1.85
   3  -2   4   56.20    1.48
   3   2  -4   62.22    1.69
   3  -2   4   58.69    1.85
  -3   2   4   53.59    1.81
   3  -2   4   59.25    1.82
  -3   2   4   55.99    1.64
  -3  -2  -4   58.22    1.57
   3   2  -4   53.54    1.76
   3   3   4  110.72    2.87
  -3   3  -4  108.71    2.81
  -3   3  -4  113.17    3.30
  -3  -3   4  110.34    2.84
   3  -3  -4  105.91    2.71
   3  -3  -4  119.25    2.93
   3   3   4  108.29    2.69
  -3   3  -4  109.10    2.70
  -3  -3   4  111.66    3.18
  -3  -3   4  109.65    2.84
   3  -3  -4  112.24    3.24
   3  -3  -4  115.24    3.28
  -3  -3  -4  108.88    2.99
  -3   3   4  111.97    3.25
   3  -3   4  111.65    3.27
   3   3  -4  108.81    3.14
   3   3  -4  109.72    2.82
   3   3  -4  107.02    2.90
   3  -3   4  106.79    3.06
  -3  -3  -4  110.23    2.69
  -3   3   4  104.51    2.85
   3  -4  -4    0.42    0.18
   3  -4  -4    0.11    0.40
  -3  -4   4   -0.12    0.38
  -3   4  -4   -0.07    0.35
   3  -4  -4   -1.15    0.48
  -3   4  -4    0.93    0.42
  -3  -4   4    0.89    0.45
   3   4   4    0.49    0.47
  -3  -4   4   -0.07    0.34
  -3   4  -4    0.41    0.48
   3   4   4    0.37    0.29
   3  -4  -4    0.02    0.47
  -3  -4  -4    0.10    0.16
   3   4  -4   -0.08    0.33
   3  -4   4    0.13    0.40
  -3   4   4    0.78    0.32
  -3  -4  -4    0.84    0.42
   3  -4   4    0.68    0.36
   3   4  -4    0.24    0.33
  -3  -4  -4    0.36    0.15
  -3   4   4    0.45    0.38
  -3   5  -4   33.90    1.79
   3  -5  -4   34.70    1.52
   3  -5  -4   34.40    1.76
   3   5   4   33.03    1.00
  -3  -5   4   33.65    1.46
  -3   5  -4   35.17    1.25
  -3  -5   4   30.98    1.47
  -3   5  -4   35.11    1.45
   3  -5  -4   34.41    1.00
  -3  -5   4   35.02    1.62
   3   5   4   34.19    1.55
  -3   5   4   34.77    1.59
   3  -5   4   36.33    1.86
  -3  -5  -4   34.17    1.14
   3   5  -4   35.26    1.28
   3   5  -4   34.17    1.49
  -3  -5  -4   35.20    1.12
   3  -5   4   33.97    1.59
   3   5  -4   34.39    1.62
  -3   5   4   35.19    1.59
  -3  -5  -4   35.69    1.58
   3   6   4    8.77    1.12
  -3  -6   4    9.34    0.96
  -3   6  -4    8.41    1.27
  -3   6  -4    9.26    1.04
   3  -6  -4    7.42    0.99
  -3  -6   4    8.84    1.07
   3  -6  -4    7.46    1.14
  -3  -6  -4    7.12    0.97
  -3  -6  -4    8.38    0.68
   3   6  -4    7.20    1.04
   3   6  -4    7.98    0.86
  -3  -6  -4    9.38    0.79
   3  -6   4    7.99    1.26
  -3   6   4    8.99    1.11
   3  -6   4    8.34    1.03
   3  -7  -4    9.40    1.49
  -3  -7   4   15.92    1.56
   3  -7  -4   10.91    1.31
   3   7   4   11.56    1.40
  -3   7  -4   10.92    1.26
  -3  -7   4    8.96    1.17
  -3  -7  -4    9.89    1.29
  -3  -7  -4    8.74    1.03
   3  -7   4   11.98    1.65
   3  -7   4    7.61    1.18
  -3   7   4   10.65    1.32
  -3  -7  -4   11.86    0.92
   3   7  -4   10.57    1.39
  -4   0  -4    2.23    0.38
   4   0   4    2.44    0.33
  -4   0  -4    2.27    0.21
   4   0   4    2.27    0.25
   4   0  -4    2.54    0.41
  -4   0  -4    2.01    0.25
   4   0   4    1.98    0.24
  -4   0  -4    2.22    0.22
  -4   0   4    2.77    0.37
  -4   0   4    2.02    0.37
  -4   0   4    2.57    0.38
   4   0  -4    1.91    0.28
  -4  -1   4   31.71    0.76
  -4  -1   4   31.19    0.76
   4  -1  -4   29.74    1.14
  -4   1  -4   32.03    1.16
  -4  -1   4   30.94    1.25
  -4   1  -4   30.21    0.91
   4  -1  -4   31.22    1.21
   4   1   4   32.10    0.84
  -4   1  -4   31.98    1.15
  -4  -1   4   31.72    1.11
  -4  -1   4   33.45    1.21
   4   1   4   31.11    0.95
   4  -1  -4   31.63    1.25
   4   1  -4   29.00    1.15
  -4  -1  -4   29.37    0.92
   4  -1   4   31.28    1.21
  -4   1   4   29.17    1.19
   4   1  -4   30.68    1.17
  -4  -1  -4   32.30    0.85
  -4   1   4   31.74    0.86
  -4   1   4   33.17    1.15
  -4  -1  -4   30.90    1.09
   4  -1   4   30.51    0.92
  -4  -1  -4   30.86    0.83
  -4   1   4   29.61    1.19
   4  -1   4   32.92    1.14
   4  -2  -4    3.71    0.29
  -4  -2   4    4.13    0.48
  -4  -2   4    4.48    0.27
  -4  -2   4    3.96    0.51
  -4   2  -4    5.15    0.55
   4  -2  -4    4.16    0.53
  -4   2  -4    3.98    0.30
  -4   2  -4    4.64    0.52
   4  -2  -4    5.86    0.65
   4  -2  -4    5.10    0.53
  -4   2   4    3.82    0.47
  -4   2   4    3.74    0.38
   4  -2   4    4.13    0.42
   4   2  -4    4.62    0.34
  -4   2   4    4.41    0.55
  -4   2   4    4.74    0.56
   4   2  -4    4.08    0.51
   4  -2   4    3.82    0.51
  -4  -2  -4    3.92    0.48
   4   2  -4    4.66    0.49
   4  -2   4    4.59    0.50
   4  -3  -4   21.27    1.11
  -4   3  -4   21.60    0.96
  -4  -3   4   21.67    1.03
  -4  -3   4   20.59    0.75
   4  -3  -4   19.32    1.20
  -4   3  -4   23.13    1.20
   4  -3  -4   16.98    0.83
  -4   3  -4   20.19    0.88
   4   3   4   21.37    1.02
  -4  -3   4   21.36    0.99
  -4   3  -4   19.60    1.05
  -4  -3   4   20.18    1.03
   4  -3  -4   19.24    0.91
   4   3  -4   20.94    0.99
   4   3  -4   21.07    0.89
   4  -3   4   21.90    1.09
   4  -3   4   23.16    1.09
  -4   3   4   20.51    1.08
   4   3  -4   22.45    0.99
  -4   3   4   19.94    1.00
  -4   4  -4    0.68    0.41
  -4   4  -4    0.48    0.40
  -4  -4   4    0.46    0.35
   4  -4  -4    0.12    0.44
   4  -4  -4   -0.96    0.67
  -4   4  -4    0.98    0.61
   4   4   4    0.51    0.58
  -4   4  -4    1.32    0.64
   4  -4  -4    0.19    0.39
  -4  -4   4    0.17    0.38
   4  -4  -4    0.39    0.60
  -4  -4   4    0.48    0.41
   4  -4   4    0.72    0.48
  -4  -4  -4    0.67    0.45
  -4   4   4    0.78    0.51
   4   4  -4    0.12    0.39
   4  -4   4   -0.06    0.46
  -4   4   4    0.80    0.41
   4   4  -4    0.11    0.41
  -4  -5   4   10.13    0.95
  -4   5  -4    8.08    1.07
   4  -5  -4    9.69    0.95
   4  -5  -4    6.49    0.60
  -4  -5   4    9.92    1.02
   4  -5  -4   10.42    1.17
  -4   5  -4    9.56    0.91
   4   5   4    9.44    0.59
   4   5   4    9.62    1.01
   4   5  -4   10.66    0.87
  -4   5   4    8.76    0.98
  -4  -5  -4   10.04    0.98
  -4   5   4   10.97    1.02
   4  -5   4   10.37    1.08
   4  -5   4    8.76    1.13
   4   5  -4   10.05    1.09
  -4   6  -4   -0.49    0.71
   4  -6  -4    0.69    0.72
  -4  -6   4    1.00    0.71
   4   6   4    0.66    0.88
   4  -6  -4   -0.03    0.90
  -4   6  -4   -0.14    1.07
  -4  -6   4    0.19    0.63
   4  -6   4    1.32    0.76
   4   6  -4    0.51    0.61
  -4   6   4    0.78    0.76
   4  -6   4    1.08    1.07
   4   6  -4    0.40    0.93
  -4  -6  -4    0.48    0.81
   4  -7  -4    5.43    1.50
   4  -7  -4    5.72    1.23
  -4  -7   4    4.68    1.06
  -4  -7   4    2.70    1.14
  -4   7  -4    4.52    1.20
   4   7   4    5.33    1.28
  -4   7   4    4.88    1.18
   4   7  -4    4.80    1.30
   4  -7   4    4.82    1.67
   4  -7   4    4.70    1.12
  -4  -7  -4    5.60    1.27
  -5   0   4  131.06    3.78
   5   0   4  134.92    3.51
   5   0  -4  129.91    3.77
  -5   0   4  134.83    3.43
  -5   0  -4  137.25    3.52
  -5   0  -4  138.37    3.53
  -5   0  -4  133.58    3.20
  -5   0   4  136.54    3.84
   5   0   4  138.13    3.65
   5   0  -4  136.05    3.53
  -5   0  -4  137.07    3.48
  -5   1  -4  110.96    2.80
  -5  -1   4  116.50    3.36
   5   1   4  117.28    3.27
   5  -1  -4  115.32    3.10
  -5  -1   4  114.43    3.01
  -5   1  -4  114.06    3.21
  -5   1  -4  114.93    3.22
  -5   1  -4  116.08    3.07
   5  -1  -4  113.70    3.37
   5   1  -4  117.45    3.31
  -5  -1  -4  119.30    2.83
   5   1  -4  115.33    3.12
  -5   1   4  113.94    3.04
  -5   1   4  117.65    3.44
  -5   1   4  118.76    3.40
   5  -1   4  116.25    3.21
  -5  -1  -4  117.88    3.05
  -5  -1  -4  115.66    2.82
  -5   2  -4  233.06    5.65
  -5  -2   4  234.47    5.33
   5  -2  -4  233.14    5.49
  -5   2  -4  241.29    6.23
  -5  -2   4  232.51    6.19
   5  -2  -4  241.29    5.68
   5  -2  -4  237.33    6.34
  -5   2  -4  235.17    5.40
  -5   2  -4  232.15    6.22
  -5  -2   4  233.12    5.60
  -5  -2   4  238.21    6.22
   5  -2   4  234.48    5.92
   5   2  -4  244.83    5.72
   5  -2   4  231.08    6.21
  -5   2   4  239.80    6.39
  -5   2   4  232.80    5.62
  -5  -2  -4  232.66    5.44
   5   2  -4  235.66    6.18
  -5   2   4  233.30    5.53
   5  -3  -4   65.20    2.06
  -5   3  -4   68.17    1.98
  -5  -3   4   68.89    2.21
  -5   3  -4   68.52    2.07
  -5  -3   4   68.55    2.10
  -5  -3   4   66.21    2.17
   5  -3  -4   67.75    1.88
   5  -3  -4   65.33    2.28
  -5  -3   4   68.43    1.77
  -5   3  -4   60.63    2.25
  -5   3  -4   66.82    2.37
   5   3  -4   65.74    2.17
   5  -3   4   67.97    2.32
   5   3  -4   69.65    2.13
   5   3  -4   64.90    1.84
  -5   3   4   68.33    2.15
  -5   3   4   62.94    2.37
  -5   3   4   68.08    2.46
   5  -3   4   70.67    2.22
   5   4   4   59.70    2.00
   5  -4  -4   59.73    1.91
   5   4   4   60.00    2.12
  -5   4  -4   60.26    1.94
  -5  -4   4   60.92    1.84
  -5  -4   4   63.91    2.20
   5  -4  -4   60.39    1.95
  -5   4  -4   57.22    2.33
   5  -4  -4   59.05    2.43
  -5  -4   4   57.85    2.04
  -5   4  -4   60.27    1.95
   5   4  -4   59.99    1.99
  -5   4   4   63.05    2.52
   5  -4   4   55.47    2.20
   5  -4   4   62.06    2.17
  -5   4   4   59.54    2.08
   5   5   4   32.74    1.80
   5  -5  -4   31.69    2.02
  -5  -5   4   32.58    1.60
  -5   5  -4   31.86    1.59
   5   5   4   33.86    1.43
  -5   5  -4   33.02    2.02
  -5  -5   4   33.57    1.44
   5  -5  -4   33.75    1.40
   5  -5  -4   33.07    1.56
  -5   5   4   33.45    1.73
  -5  -5  -4   32.87    1.61
   5  -5   4   35.94    2.29
   5  -5   4   35.85    1.72
   5   5  -4   33.49    1.52
  -5   5   4   31.59    2.00
   5  -6  -4   42.83    2.07
  -5   6  -4   46.74    1.98
   5  -6  -4   42.74    2.53
  -5  -6   4   42.00    1.97
  -5  -6   4   45.11    2.02
  -5   6  -4   45.09    2.63
   5   6   4   44.20    2.19
  -5  -6  -4   41.52    2.09
   5   6  -4   45.80    2.31
   5  -6   4   37.52    2.02
   5   6  -4   43.30    1.84
  -5   6   4   39.67    2.14
   5   7   4    9.38    1.65
   5  -7  -4   13.15    1.91
  -5   7  -4    9.81    1.47
  -5  -7   4   10.88    1.48
   5  -7  -4   12.47    1.56
  -5   7  -4    8.30    2.03
  -5  -7   4   11.47    1.26
   5   7  -4    9.38    1.66
  -5   7   4    8.91    1.44
  -5  -7  -4   11.03    1.39
   5  -7   4   10.15    1.49
  -6   0  -4    2.93    0.42
   6   0   4    4.08    0.62
  -6   0   4    2.94    0.48
  -6   0   4    3.84    0.60
  -6   0  -4    3.12    0.38
  -6   0   4    3.81    0.56
  -6   0  -4    3.47    0.34
   6   0   4    3.62    0.40
   6   0  -4    3.59    0.50
   6   0  -4    3.24    0.60
  -6   1  -4    0.55    0.29
  -6  -1   4    0.30    0.33
  -6   1  -4    0.57    0.34
   6  -1  -4    0.86    0.38
   6  -1  -4    0.57    0.48
  -6  -1   4    0.85    0.44
   6   1   4    0.04    0.47
  -6  -1   4   -0.11    0.42
  -6   1  -4    1.23    0.48
  -6   1  -4    0.46    0.37
  -6   1   4    0.74    0.46
   6   1  -4    1.00    0.48
  -6   1   4    0.90    0.49
   6  -1   4    0.48    0.35
  -6   1   4    0.44    0.47
   6  -1   4    0.95    0.48
  -6  -1  -4    0.71    0.34
   6   1  -4    0.50    0.40
   6  -2  -4    2.97    0.57
  -6  -2   4    3.63    0.60
   6  -2  -4    3.37    0.60
   6   2   4    4.05    0.66
  -6  -2   4    3.34    0.44
  -6   2  -4    3.62    0.58
  -6   2  -4    3.41    0.55
  -6   2  -4    3.00    0.49
  -6  -2   4    5.06    0.65
   6   2  -4    2.75    0.48
   6  -2   4    3.25    0.49
   6   2  -4    2.11    0.57
  -6  -2  -4    3.67    0.57
  -6   2   4    4.49    0.71
  -6   2   4    2.79    0.61
  -6   2   4    3.38    0.31
   6  -2   4    2.62    0.57
  -6  -3   4    0.87    0.17
   6  -3  -4    0.31    0.26
  -6   3  -4    1.13    0.62
  -6  -3   4    0.83    0.42
   6  -3  -4    0.56    0.51
  -6   3  -4    0.56    0.53
  -6  -3   4    0.20    0.50
  -6  -3   4    0.68    0.44
   6  -3  -4    0.47    0.47
  -6   3   4    1.30    0.70
  -6   3   4    0.45    0.52
   6  -3   4    0.72    0.55
   6  -3   4    1.06    0.55
   6   3  -4    1.19    0.59
   6  -4  -4    1.36    0.65
  -6  -4   4    2.00    0.52
  -6  -4   4    1.24    0.65
   6  -4  -4    1.88    0.98
   6   4   4    2.43    0.85
   6   4   4    2.27    0.67
  -6   4  -4    1.91    0.68
  -6   4  -4    3.09    0.91
  -6  -4   4    0.79    0.31
   6  -4  -4    1.63    0.58
  -6   4   4    1.79    0.74
  -6   4   4    2.43    0.93
   6   4  -4    1.64    0.69
   6  -4   4    1.72    0.73
  -6   5  -4    0.41    0.90
   6   5   4   -0.35    0.87
  -6   5  -4    1.28    0.74
   6  -5  -4    1.12    0.77
   6  -5  -4    0.26    0.67
  -6  -5   4    1.10    0.68
  -6  -5   4    0.09    0.58
   6  -5  -4   -0.56    1.12
   6   5   4    0.01    0.71
   6  -5   4   -0.05    0.79
   6   5  -4   -0.38    0.73
  -6   5   4    1.09    0.78
  -6   5   4    0.01    1.23
  -6   6  -4    0.56    0.97
   6  -6  -4   -0.39    1.48
  -6   6  -4   -1.54    1.36
   6   6   4   -0.10    1.11
  -6  -6   4    0.75    0.75
   6  -6  -4    1.18    0.96
  -6   6   4    2.13    1.04
   6  -6   4    0.44    1.02
   6   6  -4    1.71    1.08
   6   6  -4    0.97    1.24
   6  -6   4    1.59    1.12
   7   0  -4    0.56    0.56
  -7   0   4   -0.22    0.47
  -7   0  -4   -0.04    0.28
  -7   0   4    0.29    0.53
  -7   0  -4    0.35    0.31
   7   0  -4    0.87    0.51
   7   0   4    1.09    0.55
  -7   0  -4    0.49    0.41
   7  -1  -4    3.74    0.60
  -7   1  -4    4.17    0.50
   7  -1  -4    3.95    0.72
   7   1   4    3.48    0.70
  -7  -1   4    3.08    0.64
  -7  -1   4    3.04    0.53
  -7   1  -4    3.08    0.52
  -7  -1   4    3.50    0.65
  -7   1  -4    3.77    0.61
  -7  -1  -4    2.99    0.59
   7   1  -4    4.25    0.75
   7  -1   4    3.83    0.66
  -7   1   4    4.01    0.68
  -7   1   4    3.36    0.72
  -7   2  -4   10.01    0.94
  -7  -2   4    9.32    0.96
  -7   2  -4   10.00    0.88
  -7  -2   4    9.90    0.96
   7  -2  -4   10.16    1.03
  -7  -2   4    9.22    0.84
   7   2   4    9.60    1.01
  -7   2  -4   10.89    0.99
   7  -2  -4    8.92    1.00
   7   2  -4    8.92    0.94
  -7  -2  -4   10.29    0.92
  -7   2   4    9.21    1.07
   7  -2   4    9.26    1.00
  -7   2   4   10.95    1.14
   7   3   4    4.26    0.90
   7  -3  -4    2.97    0.73
  -7  -3   4    3.22    0.62
   7  -3  -4    2.31    0.71
  -7  -3   4    2.78    0.70
   7   3   4    3.49    0.91
  -7   3  -4    3.32    0.77
  -7   3  -4    3.67    0.75
   7  -3  -4    3.62    0.33
   7  -3   4    3.18    0.79
  -7   3   4    3.16    0.95
   7   3  -4    2.87    0.71
  -7   3   4    3.82    0.82
   7  -4  -4    1.30    0.65
  -7   4  -4   -0.80    0.78
  -7   4  -4   -0.62    0.66
   7  -4  -4   -0.67    0.70
  -7  -4   4    0.61    0.71
   7   4   4    0.09    0.81
   7  -4  -4    1.18    1.18
  -7   4   4   -0.81    0.69
   7   4  -4    1.38    0.80
  -7   4   4    0.13    0.95
   7  -4   4   -0.20    0.68
   7   5   4    3.65    1.28
  -7   5  -4    3.26    1.19
  -7   5  -4    3.62    0.98
  -7  -5   4    3.08    0.79
   7  -5  -4    2.18    0.96
   7  -5  -4    3.08    0.91
   7   5   4    1.57    0.96
   7  -5   4    2.42    1.00
   7  -5   4    2.83    1.18
   7   5  -4    3.72    1.01
  -7   5   4    2.78    1.06
  -7   5   4    0.95    1.39
  -8   0   4    6.47    0.88
  -8   0  -4    4.53    0.52
   8   0   4    5.04    0.80
  -8   0  -4    4.67    0.75
  -8   0   4    4.64    0.81
  -8   0  -4    5.64    0.63
   8   0  -4    4.42    0.86
  -8   1  -4    4.60    0.60
  -8   1  -4    5.95    0.80
   8   1   4    7.29    1.13
  -8  -1   4    5.67    0.78
   8  -1  -4    4.64    0.90
   8   1   4    6.06    0.85
  -8  -1   4    5.42    0.83
  -8   1   4    5.86    0.90
  -8  -1  -4    4.13    0.71
  -8   1   4    7.87    1.00
   8   1  -4    5.29    0.90
   8  -1   4    5.00    0.81
  -8   2  -4    1.75    0.59
   8   2   4    1.48    0.81
  -8  -2   4    2.91    0.65
  -8   2  -4    3.43    0.78
   8  -2  -4    2.13    0.78
   8   2   4    2.14    0.98
  -8  -2   4    2.05    0.81
  -8   2   4    3.37    0.85
  -8   2   4    2.29    0.89
   8  -2   4    2.12    0.73
   8   2  -4    2.07    0.81
  -8  -2  -4    3.75    0.75
   8   3   4    3.46    1.04
   8   3   4    6.01    1.07
  -8   3  -4    4.31    0.86
   8  -3  -4    5.19    0.98
  -8  -3   4    4.86    0.94
  -8   3  -4    4.05    0.87
  -8  -3   4    4.23    0.69
  -8   3   4    5.76    1.15
   8   3  -4    5.45    1.06
   8  -3   4    3.67    0.88
  -8   3   4    4.20    1.01
  -8   4  -4    3.34    1.01
   8  -4  -4    2.49    1.08
   8   4   4    3.51    1.27
   8   4   4    1.60    1.03
  -8   4  -4    1.92    1.04
  -8  -4   4    2.28    0.95
  -8  -4   4    2.53    0.74
  -8   4   4    0.67    1.25
   8  -4   4    3.08    1.25
   8  -4   4    3.87    0.98
   8   4  -4    1.89    1.06
  -8   4   4    2.87    1.06
   8  -5  -4    0.23    1.22
   8   5   4    2.98    1.47
  -8  -5   4    3.20    0.83
   8   5   4    2.30    1.63
  -8   5  -4    2.06    1.23
   8   5   4    1.15    1.20
  -8   5  -4    2.91    1.46
  -8   5   4    2.45    1.68
   8  -5   4    3.01    1.23
   8  -5   4    4.65    1.35
  -8   5   4    5.16    1.31
   8   5  -4    4.50    1.34
  -9   0  -4    0.45    0.79
  -9   0   4   -1.52    0.76
  -9   0  -4    0.28    0.40
   9   0   4   -0.35    1.03
  -9   0  -4    0.11    0.44
  -9   0   4   -0.37    0.71
   9   0  -4   -0.13    0.84
  -9  -1   4   94.18    3.12
  -9   1  -4   92.88    2.95
   9  -1  -4   92.92    3.30
  -9  -1   4   92.70    3.19
  -9   1  -4   89.27    2.90
   9   1   4  102.03    3.58
   9   1  -4   89.98    3.28
  -9  -1  -4   93.30    2.95
   9  -1   4   95.30    2.92
  -9   1   4   91.80    3.36
  -9   1   4   94.88    3.22
   9  -1   4   93.34    3.49
  -9   2  -4    1.56    0.72
   9   2   4    2.59    1.08
  -9   2  -4    0.49    0.91
   9  -2  -4    1.82    0.98
  -9  -2   4    2.29    0.71
  -9  -2   4    1.12    0.88
   9   2  -4    1.10    0.95
   9  -2   4    3.88    1.29
   9  -2   4    2.65    0.87
  -9  -2  -4    2.32    0.89
  -9   2   4    1.75    1.02
  -9   2   4    1.96    1.05
  -9   3  -4   66.11    2.63
   9  -3  -4   64.26    2.84
  -9  -3   4   63.13    2.64
  -9  -3   4   68.08    2.43
   9   3   4   65.83    2.99
  -9   3  -4   65.75    2.78
   9   3  -4   65.80    2.86
   9  -3   4   67.28    2.63
  -9   3   4   69.22    2.87
  -9   3   4   69.63    3.28
 -10   0  -4    0.12    0.33
 -10   0   4    0.18    1.04
 -10   0   4   -0.30    0.94
  10   0   4    1.63    1.19
 -10   0  -4    0.22    0.34
 -10   0  -4    0.93    1.03
  10   0  -4    1.48    1.11
  10   1   4    2.35    1.28
 -10   1  -4    0.58    1.03
 -10  -1   4   -1.05    1.07
 -10   1  -4    0.85    0.65
  10  -1  -4    0.83    1.07
 -10  -1   4    1.81    0.88
 -10  -1  -4    0.53    1.06
 -10   1   4    1.11    1.03
 -10   1   4    1.31    1.08
  10   1  -4   -0.60    1.09
  10  -1   4    0.68    1.32
   0   0  -5   -0.13    0.12
   0   0   5    0.10    0.16
   0   0   5   -0.16    0.15
   0   0  -5    0.03    0.06
   0   0  -5    0.12    0.14
   0   0   5   -0.19    0.12
   0   0   5    0.00    0.05
   0   0   5   -0.41    0.14
   0   0  -5    0.03    0.11
   0   1   5  109.41    2.83
   0  -1   5  109.76    2.92
   0  -1   5  111.43    2.75
   0  -1   5  115.56    3.08
   0   1  -5  114.03    2.76
   0  -1  -5  112.02    3.00
   0  -1  -5  115.64    2.56
   0   1  -5  115.46    2.48
   0   1   5  112.34    2.72
   0   1  -5  109.31    3.07
   0   1   5  113.30    3.00
   0   1   5  111.58    2.53
   0  -1   5  105.25    3.05
   0  -1  -5  112.35    2.72
   0   1   5  110.87    3.00
   0   1  -5  118.56    3.10
   0   1  -5  111.52    2.95
   0   2  -5   -0.04    0.16
   0   2  -5   -0.12    0.13
   0   2  -5    0.06    0.11
   0   2   5    0.33    0.15
   0   2   5   -0.09    0.18
   0  -2  -5    0.39    0.19
   0   2  -5   -0.16    0.23
   0  -2   5    0.20    0.17
   0  -2  -5    0.10    0.16
   0   2  -5    0.04    0.13
   0  -2  -5    0.03    0.20
   0  -2   5    0.17    0.25
   0   2   5   -0.07    0.11
   0  -2  -5   -0.32    0.11
   0  -2   5   -0.02    0.16
   0   3  -5   68.98    2.32
   0  -3  -5   76.54    2.22
   0   3   5   78.15    2.23
   0  -3   5   71.75    2.33
   0  -3  -5   78.98    2.28
   0  -3  -5   74.70    1.88
   0  -3  -5   79.00    2.23
   0   3  -5   72.44    2.35
   0  -3   5   76.40    2.38
   0  -3   5   75.92    2.24
   0   3   5   81.00    2.02
   0   3  -5   71.98    1.96
   0   3   5   74.99    1.90
   0   3  -5   77.13    2.01
   0   3  -5   78.21    1.94
   0   4  -5   -0.29    0.27
   0  -4  -5    0.03    0.30
   0  -4  -5    0.29    0.37
   0   4  -5   -0.05    0.31
   0   4   5    0.06    0.28
   0  -4  -5   -0.02    0.25
   0  -4  -5   -0.23    0.14
   0  -4   5   -0.10    0.47
   0  -4   5   -0.17    0.36
   0   4  -5    0.01    0.40
   0  -4   5    1.31    0.42
   0   4   5   -0.27    0.33
   0  -5  -5   22.39    1.03
   0  -5  -5   21.18    1.16
   0  -5  -5   22.59    1.26
   0   5  -5   20.92    1.18
   0   5  -5   20.32    0.92
   0   5  -5   20.61    1.15
   0  -5   5   22.09    1.24
   0   5   5   20.97    1.17
   0  -5   5   21.36    1.39
   0   5   5   24.18    1.17
   0  -6  -5   -0.30    0.59
   0  -6   5   -0.34    0.73
   0   6   5    0.02    0.59
   0   6  -5   -0.72    0.28
   0  -6  -5   -0.24    0.53
   0   6  -5    0.48    0.74
   0  -6   5    0.29    0.63
   0   6  -5   -0.75    0.60
   0   7   5    9.63    1.31
   0  -7  -5   10.08    1.23
   0  -7   5   11.51    1.25
   0   7  -5   11.81    1.38
   0  -7   5    9.90    1.37
   0  -7  -5    9.53    1.08
  -1   0   5  149.58    3.93
  -1   0   5  148.22    3.95
  -1   0  -5  150.05    3.54
  -1   0   5  147.20    3.72
   1   0  -5  146.14    3.94
   1   0   5  145.00    3.82
  -1   0   5  151.49    3.33
   1   0  -5  150.93    3.55
   1   0   5  151.94    3.87
   1   0  -5  153.78    3.95
  -1   0  -5  154.31    3.88
   1   0  -5  156.12    3.33
  -1   0  -5  141.52    3.87
   1   0   5  148.38    3.87
   1   0   5  148.43    3.52
  -1   0   5  146.63    3.54
  -1  -1   5    0.06    0.09
  -1  -1   5   -0.08    0.14
  -1  -1   5    0.10    0.13
   1   1   5    0.25    0.13
  -1   1  -5    0.10    0.13
   1  -1  -5   -0.02    0.13
   1  -1  -5    0.17    0.18
  -1   1  -5    0.10    0.04
   1   1   5   -0.17    0.18
   1   1   5    0.05    0.07
  -1   1  -5   -0.15    0.17
  -1  -1   5    0.07    0.20
   1  -1  -5    0.02    0.12
  -1   1  -5    0.11    0.04
   1  -1  -5    0.24    0.14
   1   1   5    0.12    0.14
  -1  -1  -5    0.09    0.10
  -1  -1  -5   -0.07    0.11
   1   1  -5    0.12    0.13
  -1   1   5    0.00    0.18
  -1   1   5   -0.14    0.09
   1   1  -5   -0.30    0.22
   1   1  -5   -0.06    0.19
   1  -1   5    0.11    0.19
  -1   1   5   -0.07    0.13
   1   1  -5    0.27    0.17
   1  -1   5   -0.06    0.14
  -1   1   5    0.11    0.19
  -1  -1  -5    0.19    0.11
  -1   1   5   -0.18    0.17
  -1  -2   5  106.40    2.83
   1   2   5  108.53    2.56
   1   2   5  109.15    2.64
   1  -2  -5  113.88    3.04
  -1   2  -5  107.83    3.07
   1  -2  -5  106.85    2.80
  -1   2  -5  111.45    2.71
   1  -2  -5  107.84    2.63
   1  -2  -5  116.55    3.04
   1  -2  -5  106.00    2.63
  -1   2  -5  113.70    2.48
  -1  -2   5  111.19    3.09
  -1  -2   5  108.18    3.05
  -1   2  -5  109.96    3.06
  -1   2  -5  109.64    2.49
   1   2   5  109.78    2.87
   1   2  -5   98.52    2.82
   1   2  -5  107.63    2.55
   1  -2   5  107.70    3.08
  -1   2   5  104.87    2.64
   1   2  -5  108.24    3.06
  -1  -2  -5  106.38    2.88
   1   2  -5  107.82    2.70
   1   2  -5  109.88    3.08
  -1  -2  -5  107.90    2.87
  -1   2   5  108.69    2.61
   1  -2   5  102.41    2.95
   1  -2   5  108.59    3.05
  -1   2   5  111.29    3.02
  -1  -2  -5  111.48    2.63
  -1   2   5  104.96    3.11
  -1   3  -5    7.36    0.41
   1  -3  -5    8.12    0.67
   1   3   5    6.87    0.43
  -1  -3   5    7.66    0.61
  -1   3  -5    7.18    0.47
  -1  -3   5    5.40    0.59
  -1   3  -5    6.93    0.63
   1   3   5    7.83    0.45
  -1  -3   5    7.43    0.63
   1  -3  -5    7.68    0.64
   1   3   5    6.43    0.42
  -1   3  -5    7.94    0.61
  -1   3  -5    7.21    0.45
   1  -3  -5    6.84    0.38
   1  -3   5    7.17    0.67
  -1  -3  -5    7.22    0.50
   1   3  -5    6.46    0.46
  -1  -3  -5    6.83    0.37
  -1   3   5    7.16    0.57
   1  -3   5    7.33    0.63
  -1   3   5    7.20    0.53
  -1  -3  -5    6.80    0.42
  -1  -3  -5    6.83    0.58
   1   3  -5    7.32    0.46
   1   3  -5    7.18    0.58
  -1   3   5    6.14    0.42
   1  -3   5    6.81    0.58
  -1  -4   5   45.62    1.76
   1  -4  -5   45.44    1.71
  -1   4  -5   45.25    1.50
   1   4   5   46.53    1.59
   1  -4  -5   47.42    1.68
  -1   4  -5   45.70    1.76
  -1  -4   5   46.65    1.64
   1   4   5   46.79    1.26
   1   4   5   47.73    1.53
  -1  -4   5   48.88    1.88
   1  -4  -5   45.55    1.23
  -1   4  -5   45.32    1.45
   1  -4   5   47.83    1.87
  -1   4   5   48.05    1.59
  -1  -4  -5   46.16    1.49
   1   4  -5   44.85    1.72
   1  -4   5   42.82    1.78
  -1   4   5   47.32    1.66
   1   4  -5   46.02    1.60
  -1  -4  -5   46.29    1.22
   1  -4   5   46.56    1.72
  -1   4   5   44.04    1.25
  -1  -4  -5   48.22    1.57
   1   4  -5   47.62    1.47
  -1  -4  -5   48.67    1.71
  -1   5  -5   -0.56    0.39
   1  -5  -5   -0.03    0.46
   1   5   5    0.31    0.13
  -1   5  -5   -0.77    0.34
   1  -5  -5    0.05    0.41
  -1   5  -5    0.14    0.51
   1  -5  -5    0.03    0.12
   1   5   5   -0.69    0.46
  -1  -5   5   -0.01    0.54
  -1  -5   5    0.40    0.47
   1  -5  -5   -0.14    0.42
   1  -5   5    0.09    0.49
  -1  -5  -5    0.12    0.29
  -1   5   5    0.45    0.43
  -1  -5  -5    0.07    0.47
   1  -5   5   -0.84    0.54
   1   5  -5    0.40    0.45
   1   5  -5   -0.53    0.51
   1   5  -5   -0.32    0.35
  -1  -5  -5    0.36    0.36
  -1   5   5   -0.58    0.45
   1  -6  -5   18.68    1.35
  -1   6  -5   19.24    1.87
   1   6   5   17.51    1.28
  -1  -6   5   17.26    1.25
   1  -6  -5   17.83    1.29
  -1   6  -5   18.43    1.25
  -1   6  -5   17.88    0.95
  -1  -6   5   19.09    1.59
   1   6  -5   17.08    0.89
   1  -6   5   16.85    1.67
  -1  -6  -5   20.17    1.35
  -1  -6  -5   14.89    1.10
  -1  -6  -5   18.24    1.03
  -1   6   5   17.20    1.39
   1   6  -5   17.71    1.35
   1  -6   5   19.27    1.29
   1  -7  -5    5.42    1.04
  -1  -7   5    5.57    1.14
   1   7   5    4.40    1.11
   1  -7  -5    3.43    0.95
  -1   7  -5    5.76    1.12
  -1  -7   5    3.41    1.10
   1  -7   5    4.62    1.28
   1   7  -5    7.22    1.19
  -1  -7  -5    5.34    1.11
  -1  -7  -5    4.13    0.76
  -1   7   5    5.39    1.08
   1  -7   5    4.52    1.03
  -2   0   5  128.02    2.94
   2   0  -5  128.04    2.94
   2   0  -5  127.42    3.45
  -2   0   5  125.89    3.06
   2   0  -5  125.83    3.09
  -2   0   5  129.89    3.46
  -2   0  -5  125.09    3.31
   2   0  -5  122.44    3.44
  -2   0   5  121.71    3.43
   2   0   5  126.72    3.31
  -2   0   5  124.17    3.15
  -2   0  -5  125.80    3.08
  -2   0  -5  130.68    3.33
  -2   1  -5    9.15    0.50
  -2  -1   5    7.86    0.36
  -2  -1   5    8.64    0.52
   2  -1  -5    9.27    0.57
   2   1   5    8.15    0.32
   2  -1  -5    8.51    0.54
  -2  -1   5    9.41    0.57
   2  -1  -5    8.98    0.47
  -2   1  -5    8.62    0.25
   2   1   5    9.11    0.41
  -2  -1   5    8.37    0.42
   2   1   5    8.78    0.31
   2  -1  -5    7.20    0.41
  -2  -1  -5    7.99    0.43
   2  -1   5    9.27    0.51
   2   1  -5    8.11    0.50
  -2  -1  -5    8.29    0.43
   2   1  -5    8.08    0.48
   2   1  -5    9.08    0.55
  -2   1   5    7.49    0.38
   2   1  -5    8.81    0.43
  -2   1   5    7.77    0.41
  -2  -1  -5    7.61    0.37
  -2   1   5    8.46    0.57
  -2   1   5    8.38    0.52
   2  -1   5    8.13    0.55
  -2   2  -5   55.32    1.77
   2   2   5   54.89    1.52
   2   2   5   53.68    1.45
  -2   2  -5   55.05    1.35
  -2  -2   5   56.41    1.49
  -2   2  -5   56.89    1.62
  -2  -2   5   54.83    1.79
  -2  -2   5   53.55    1.56
   2  -2  -5   53.32    1.51
   2   2   5   54.13    1.51
   2  -2  -5   53.74    1.56
   2  -2  -5   54.16    1.78
  -2  -2   5   55.19    1.78
   2   2   5   53.80    1.41
   2  -2  -5   59.00    1.82
  -2  -2  -5   55.71    1.54
   2   2  -5   60.53    1.64
  -2   2   5   53.50    1.76
   2   2  -5   53.65    1.62
  -2  -2  -5   52.21    1.49
  -2   2   5   53.67    1.50
  -2   2   5   54.24    1.58
  -2   2   5   53.90    1.79
   2  -2   5   55.93    1.79
  -2  -2  -5   56.47    1.53
   2   2  -5   56.41    1.80
   2   2  -5   53.98    1.78
   2  -2   5   56.94    1.82
   2   2  -5   53.73    1.50
   2  -2   5   54.35    1.38
   2   3   5   14.64    0.66
   2  -3  -5   17.93    0.89
  -2   3  -5   15.58    0.83
   2  -3  -5   17.27    0.98
   2   3   5   17.05    0.70
  -2  -3   5   17.60    0.97
  -2  -3   5   15.39    0.88
  -2   3  -5   14.96    0.78
  -2   3  -5   15.78    1.02
  -2   3  -5   15.74    0.61
   2  -3  -5   14.94    0.62
   2   3   5   15.42    0.61
   2  -3  -5   16.53    0.81
  -2  -3   5   16.17    0.80
   2   3  -5   16.71    0.85
  -2  -3  -5   14.80    0.59
  -2  -3  -5   16.07    0.61
  -2   3   5   15.63    0.79
  -2  -3  -5   16.12    0.84
  -2   3   5   14.67    0.67
  -2  -3  -5   15.64    0.64
   2   3  -5   15.84    0.76
   2  -3   5   16.28    0.89
  -2   3   5   16.35    0.80
   2  -3   5   15.42    0.87
   2  -4  -5   27.89    1.40
  -2  -4   5   32.85    1.30
   2  -4  -5   30.61    1.31
   2   4   5   30.01    0.98
  -2  -4   5   31.92    1.37
  -2   4  -5   31.60    1.17
  -2   4  -5   28.22    1.42
  -2   4  -5   33.45    1.54
  -2  -4   5   31.31    1.49
  -2   4  -5   29.49    1.17
   2  -4  -5   30.09    0.93
   2  -4  -5   30.38    1.26
   2   4   5   32.31    1.30
   2   4   5   30.89    1.05
  -2  -4  -5   31.21    1.07
   2  -4   5   31.54    1.40
  -2   4   5   27.85    0.99
   2  -4   5   30.17    1.38
  -2  -4  -5   30.04    0.91
  -2   4   5   31.84    1.30
  -2   4   5   29.84    1.29
   2   4  -5   32.03    1.37
  -2  -4  -5   30.01    1.01
   2   4  -5   32.63    1.38
  -2  -4  -5   30.00    1.33
   2   4  -5   32.02    1.17
   2  -5  -5    7.46    0.39
   2  -5  -5    7.70    0.94
  -2  -5   5    8.16    0.90
  -2   5  -5    8.08    0.72
  -2   5  -5    7.44    0.80
  -2  -5   5    6.39    0.90
   2  -5  -5    7.25    0.82
  -2   5  -5    7.35    1.03
   2   5   5    7.06    0.81
  -2   5   5    9.41    0.90
   2  -5   5    7.15    0.88
  -2  -5  -5    8.11    0.66
   2   5  -5    7.71    0.86
   2   5  -5    7.60    0.87
  -2  -5  -5    7.06    0.71
  -2  -5  -5    7.91    0.87
  -2   5   5    7.42    0.86
   2  -5   5    6.96    1.03
   2   5  -5    8.25    0.75
  -2   6  -5    6.09    0.63
   2  -6  -5    6.87    0.95
  -2  -6   5    6.37    0.92
  -2   6  -5    4.95    0.82
  -2  -6   5    4.54    0.94
   2   6   5    5.82    0.98
  -2   6  -5    6.94    1.21
   2  -6  -5    6.06    0.94
  -2  -6  -5    6.14    0.73
   2   6  -5    6.28    0.93
  -2  -6  -5    7.03    0.80
   2  -6   5    7.62    1.00
  -2  -6  -5    4.92    0.91
   2  -6   5    6.50    1.20
   2   6  -5    5.31    0.62
  -2   6   5    5.78    0.90
   2  -7  -5    7.15    1.11
   2  -7  -5    6.42    1.20
  -2  -7   5    7.54    1.17
  -2  -7   5    6.31    1.29
  -2   7  -5    7.77    1.22
   2   7   5    8.31    1.22
   2   7  -5    7.03    1.37
   2  -7   5    7.94    1.54
   2  -7   5    7.02    1.09
  -2  -7  -5    6.45    1.14
  -2   7   5    6.04    1.18
  -2  -7  -5    6.50    0.79
   3   0  -5   33.39    1.17
   3   0   5   33.10    0.83
  -3   0   5   31.85    1.22
  -3   0   5   31.56    1.00
   3   0   5   32.74    1.07
  -3   0  -5   34.43    1.16
  -3   0  -5   33.04    1.06
   3   0  -5   32.79    1.22
   3   0  -5   31.59    1.20
  -3   0   5   31.35    0.95
  -3   0  -5   33.39    1.10
  -3   0   5   31.76    1.19
  -3   0  -5   34.13    0.83
   3   0   5   32.64    1.30
  -3   0   5   33.46    0.93
  -3  -1   5   61.72    1.66
  -3   1  -5   62.31    1.86
  -3  -1   5   61.75    1.96
   3   1   5   63.24    1.68
   3  -1  -5   63.68    1.81
   3  -1  -5   61.31    1.96
   3  -1  -5   63.19    2.00
  -3  -1   5   62.61    1.63
   3   1   5   59.04    2.01
  -3   1  -5   62.52    1.80
  -3   1  -5   61.33    1.90
  -3   1  -5   61.37    1.45
   3   1   5   61.43    1.50
   3   1  -5   60.52    1.81
   3  -1   5   60.44    1.87
   3  -1   5   65.30    1.99
  -3   1   5   61.64    1.62
  -3   1   5   62.72    1.68
  -3  -1  -5   63.57    1.68
   3   1  -5   61.46    1.96
   3  -1   5   60.59    1.46
  -3   1   5   61.71    1.98
   3   1  -5   62.49    1.95
  -3   1   5   60.83    1.97
  -3  -1  -5   62.77    1.76
  -3  -1  -5   60.60    1.68
  -3  -2   5   26.25    0.86
  -3  -2   5   25.74    0.97
  -3   2  -5   25.06    1.13
  -3   2  -5   25.95    0.77
  -3  -2   5   24.84    1.14
   3   2   5   25.00    0.86
   3  -2  -5   25.69    0.87
   3  -2  -5   27.31    1.13
   3  -2  -5   27.38    1.18
  -3   2  -5   27.31    1.05
  -3   2  -5   26.17    1.06
   3  -2  -5   26.45    1.01
   3   2   5   26.37    0.84
  -3  -2  -5   26.96    0.74
   3   2  -5   26.20    1.06
   3  -2   5   26.51    0.82
   3  -2   5   26.80    1.16
   3   2  -5   25.30    1.05
   3   2  -5   25.76    0.94
  -3   2   5   25.49    0.90
  -3   2   5   27.54    1.04
  -3  -2  -5   26.84    0.99
   3  -2   5   26.48    1.08
  -3   2   5   23.83    1.13
  -3   2   5   25.90    1.11
  -3  -2  -5   26.91    0.72
  -3  -3   5   67.07    1.98
  -3  -3   5   69.06    2.23
  -3  -3   5   68.10    1.93
   3  -3  -5   71.98    1.94
   3  -3  -5   70.58    2.37
   3  -3  -5   72.24    2.32
   3   3   5   68.84    1.99
  -3   3  -5   72.36    2.37
   3  -3  -5   68.24    2.02
  -3   3  -5   66.76    2.23
  -3   3  -5   66.28    1.79
  -3   3  -5   68.49    1.98
  -3  -3   5   70.60    2.28
   3  -3   5   66.56    1.85
   3  -3   5   74.02    2.36
   3  -3   5   66.87    2.19
  -3   3   5   69.77    2.03
  -3   3   5   65.69    2.22
   3   3  -5   70.94    2.25
   3   3  -5   68.57    2.01
   3  -4  -5   19.93    0.78
  -3   4  -5   23.91    1.05
  -3   4  -5   20.76    1.28
  -3  -4   5   22.77    1.24
   3  -4  -5   19.37    1.05
   3   4   5   20.36    1.09
  -3   4  -5   22.34    1.01
  -3  -4   5   23.03    1.05
  -3  -4   5   22.82    1.17
  -3   4  -5   19.90    1.35
   3  -4  -5   19.31    1.19
   3  -4  -5   20.82    1.30
   3  -4   5   20.76    1.18
  -3  -4  -5   21.21    1.12
  -3   4   5   20.85    1.16
  -3   4   5   21.49    1.10
  -3  -4  -5   22.73    0.69
  -3  -4  -5   21.05    0.66
   3   4  -5   21.63    1.00
   3  -4   5   21.40    1.24
   3   4  -5   22.38    1.10
  -3  -4  -5   19.36    0.75
  -3   5  -5   14.89    1.38
  -3   5  -5   13.68    1.06
  -3   5  -5   14.63    0.95
   3  -5  -5   12.75    0.59
  -3  -5   5   14.31    1.22
   3   5   5   13.62    1.14
   3   5   5   13.47    0.64
   3  -5  -5   13.68    1.31
   3  -5  -5   12.27    1.06
  -3  -5   5   14.45    1.05
  -3  -5  -5   14.10    1.17
  -3   5   5   13.47    1.15
  -3   5   5   15.10    1.13
  -3  -5  -5   13.79    0.61
   3  -5   5   13.24    1.12
  -3  -5  -5   13.38    0.66
   3   5  -5   15.06    0.94
   3  -5   5   12.71    1.39
   3   5  -5   14.55    1.22
  -3  -6   5   11.50    1.08
  -3   6  -5   13.47    1.31
  -3   6  -5   13.21    1.04
  -3   6  -5   12.58    1.54
   3  -6  -5   10.91    1.32
   3  -6  -5   10.51    1.10
   3   6   5   11.10    1.19
  -3  -6   5   10.92    1.21
  -3  -6  -5   10.53    0.69
   3   6  -5   10.94    0.99
   3   6  -5   11.29    1.24
   3  -6   5   14.02    1.58
  -3   6   5   10.27    1.12
  -3  -6  -5   11.61    0.78
   3  -6   5   12.40    1.33
  -3  -6  -5    9.52    1.14
  -3  -7   5   18.94    1.86
  -3  -7   5   17.86    1.86
  -3   7  -5   18.48    1.89
   3   7   5   19.26    1.82
   3  -7  -5   20.75    1.88
   3  -7  -5   15.86    1.57
  -3  -7  -5   16.87    1.69
  -3  -7  -5   18.17    0.97
   3  -7   5   20.51    1.66
  -3   7   5   18.17    1.84
   3  -7   5   17.30    1.96
   3   7  -5   20.42    1.90
  -3  -7  -5   17.27    1.05
   4   0   5  106.62    2.49
  -4   0   5  107.40    3.11
   4   0  -5  105.33    2.86
  -4   0   5  108.36    2.54
   4   0   5  107.65    2.88
  -4   0   5  109.30    2.52
  -4   0  -5  106.39    2.82
   4   0   5  107.55    3.05
  -4   0  -5  111.56    2.50
  -4   0   5  106.60    3.15
   4   0  -5  105.68    3.10
  -4   0  -5  107.59    2.86
  -4   0   5  105.76    2.75
  -4   0  -5  105.68    2.88
  -4  -1   5    0.62    0.11
   4  -1  -5    0.81    0.36
  -4  -1   5    0.69    0.31
   4   1   5    0.42    0.15
  -4   1  -5    0.65    0.30
  -4  -1   5    0.47    0.33
   4  -1  -5    0.65    0.26
  -4   1  -5    0.70    0.14
  -4   1  -5    1.02    0.21
  -4   1  -5    0.54    0.28
   4   1   5    0.98    0.20
  -4  -1   5    0.03    0.32
  -4  -1   5    0.54    0.12
   4   1   5    1.19    0.39
   4  -1   5    0.70    0.18
  -4  -1  -5    0.35    0.30
  -4   1   5    0.86    0.37
   4  -1   5    0.52    0.24
  -4  -1  -5    0.58    0.11
  -4  -1  -5    0.55    0.15
  -4   1   5    0.70    0.37
  -4   1   5    0.49    0.24
  -4  -1  -5    0.30    0.15
  -4   1   5    0.71    0.17
   4   1  -5    0.90    0.37
   4   1  -5    0.65    0.27
   4  -1   5    0.84    0.42
  -4   2  -5   48.36    1.56
  -4  -2   5   49.40    1.53
   4  -2  -5   42.35    1.64
  -4  -2   5   46.48    1.72
  -4  -2   5   45.18    1.65
  -4   2  -5   46.51    1.70
  -4   2  -5   46.32    1.26
  -4  -2   5   46.28    1.26
   4  -2  -5   46.66    1.54
   4  -2  -5   46.01    1.32
   4  -2  -5   44.56    1.76
  -4   2   5   44.52    1.73
   4   2  -5   46.35    1.64
   4  -2   5   43.36    1.29
   4  -2   5   47.78    1.65
   4   2  -5   45.90    1.35
  -4   2   5   45.33    1.67
  -4  -2  -5   46.90    1.48
  -4   2   5   46.44    1.53
  -4   2   5   45.28    1.34
   4   2  -5   48.25    1.58
   4  -2   5   47.40    1.71
  -4   3  -5    0.49    0.41
   4  -3  -5    0.50    0.42
   4  -3  -5    0.33    0.60
  -4  -3   5    0.57    0.21
   4   3   5    0.56    0.42
   4  -3  -5    0.93    0.55
  -4  -3   5    0.99    0.43
   4  -3  -5    0.38    0.33
  -4   3  -5    0.74    0.44
  -4  -3   5    0.42    0.38
  -4   3  -5    0.63    0.48
  -4   3  -5    0.25    0.26
  -4   3   5    1.41    0.44
  -4   3   5    1.31    0.38
   4   3  -5    0.63    0.40
   4   3  -5    0.73    0.36
  -4  -3  -5    0.21    0.35
   4   3  -5    0.96    0.39
   4  -3   5    0.74    0.37
   4  -3   5    1.16    0.48
   4  -4  -5   34.66    1.75
   4   4   5   36.13    1.49
  -4  -4   5   33.85    1.51
  -4   4  -5   37.78    1.79
  -4  -4   5   37.89    1.38
  -4   4  -5   36.83    1.36
   4  -4  -5   37.13    1.44
  -4   4  -5   37.26    1.40
   4  -4  -5   38.13    1.35
   4  -4   5   36.55    1.62
  -4   4   5   37.36    1.58
   4  -4   5   36.49    1.67
  -4   4   5   34.85    1.50
   4   4  -5   37.90    1.46
   4   4  -5   33.59    1.51
   4   5   5    0.65    0.52
  -4   5  -5    1.43    0.88
   4  -5  -5    0.42    0.47
   4  -5  -5   -0.30    0.54
  -4   5  -5    0.09    0.57
  -4  -5   5    0.65    0.56
   4  -5  -5   -0.11    0.76
  -4   5  -5   -0.02    0.51
  -4  -5   5    0.26    0.59
   4   5   5   -0.65    0.65
  -4  -5  -5   -0.28    0.59
   4   5  -5    1.16    0.77
  -4   5   5    0.31    0.60
   4   5  -5    0.36    0.53
   4  -5   5    0.55    0.93
   4  -5   5   -0.14    0.62
  -4   5   5    0.17    0.60
   4  -6  -5    6.78    1.21
   4   6   5    7.11    1.19
   4  -6  -5    6.10    0.99
  -4  -6   5    7.70    0.99
  -4  -6   5    5.73    0.97
  -4   6  -5    6.78    1.29
  -4   6  -5    7.19    0.97
  -4   6   5    7.29    1.07
  -4  -6  -5    6.63    1.05
   4   6  -5    6.06    0.86
   4  -6   5    6.81    1.38
   4   6  -5    7.41    1.20
   4  -6   5    6.68    1.04
  -4   7  -5   -1.08    1.08
  -4  -7   5   -0.52    0.94
   4  -7  -5   -0.65    1.28
  -4  -7   5   -0.66    1.09
   4   7   5    0.03    1.20
   4  -7  -5    0.24    1.00
  -4  -7  -5   -0.45    1.01
   4   7  -5    0.00    1.24
  -4   7   5    0.21    1.03
   4  -7   5    0.93    0.95
   5   0  -5    6.69    0.64
   5   0  -5    7.03    0.73
  -5   0   5    6.90    0.79
  -5   0  -5    6.72    0.49
   5   0   5    6.13    0.49
   5   0   5    6.26    0.70
  -5   0   5    6.75    0.67
  -5   0  -5    6.84    0.41
  -5   0  -5    7.36    0.67
   5   0   5    5.33    0.49
  -5   0   5    6.56    0.70
  -5   0  -5    6.84    0.39
  -5  -1   5    4.37    0.59
  -5  -1   5    3.77    0.50
  -5   1  -5    3.95    0.48
  -5  -1   5    4.13    0.58
  -5   1  -5    3.68    0.31
   5  -1  -5    3.91    0.58
   5   1   5    4.44    0.69
  -5   1  -5    4.16    0.56
  -5   1  -5    3.97    0.43
   5  -1  -5    4.09    0.51
  -5   1   5    4.07    0.55
  -5   1   5    4.33    0.57
   5  -1   5    5.23    0.70
  -5  -1  -5    4.21    0.24
  -5  -1  -5    4.33    0.25
   5  -1   5    4.15    0.43
   5   1  -5    3.89    0.58
   5   1  -5    3.79    0.47
  -5   1   5    4.26    0.65
  -5   1   5    4.32    0.24
  -5   1   5    4.80    0.24
  -5  -1  -5    4.03    0.34
  -5  -1  -5    4.28    0.56
   5  -1   5    3.55    0.38
   5  -2  -5    6.47    0.67
  -5  -2   5    7.26    0.70
  -5   2  -5    6.00    0.60
  -5  -2   5    6.91    0.78
   5   2   5    8.99    0.95
   5  -2  -5    7.34    0.69
  -5   2  -5    7.14    0.77
  -5   2  -5    7.73    0.45
  -5   2  -5    8.62    0.84
  -5  -2   5    7.43    0.29
   5   2  -5    7.70    0.78
  -5   2   5    8.21    0.90
   5  -2   5    6.88    0.69
   5  -2   5    8.32    0.88
  -5   2   5    6.79    0.50
  -5   2   5    6.86    0.73
  -5  -2  -5    7.62    0.74
   5   2  -5    6.25    0.68
  -5   2   5    7.16    0.78
   5   3   5   10.28    0.92
   5  -3  -5   10.02    0.90
  -5  -3   5    8.64    0.87
  -5   3  -5    8.38    0.74
   5  -3  -5    8.98    0.66
  -5  -3   5    8.35    0.46
  -5   3  -5   10.15    1.00
  -5  -3   5    8.24    0.80
  -5  -3   5   10.49    0.87
   5  -3  -5   12.24    1.22
  -5   3  -5    9.03    0.84
   5   3  -5    8.32    0.83
  -5   3   5    9.91    0.90
  -5   3   5    8.30    1.02
   5  -3   5    8.16    0.82
   5  -3   5    9.75    0.99
   5   3  -5    9.00    0.88
  -5   4  -5    1.17    0.69
  -5   4  -5    2.31    0.62
   5  -4  -5    2.02    0.58
   5  -4  -5    2.83    0.85
  -5  -4   5    2.38    0.50
  -5   4  -5    2.66    0.55
   5  -4  -5    2.65    0.59
   5   4   5    1.40    0.66
   5  -4   5    2.50    0.74
  -5   4   5    1.92    0.86
   5  -4   5    1.66    0.58
   5   4  -5    1.60    0.56
  -5   4   5    1.98    0.65
  -5  -5   5    1.10    0.76
  -5   5  -5    0.29    0.66
   5  -5  -5   -0.17    0.88
   5   5   5    0.30    0.62
  -5  -5   5   -0.22    0.60
   5  -5  -5   -0.52    0.57
  -5   5  -5   -0.59    0.89
   5   5   5    0.90    0.80
   5  -5  -5   -0.41    0.60
  -5   5   5    0.58    0.70
   5  -5   5    1.54    1.13
   5   5  -5    0.16    0.59
  -5   5   5   -0.05    1.08
   5  -5   5   -0.18    0.64
   5  -6  -5    0.02    1.13
  -5   6  -5    1.22    0.85
  -5   6  -5    0.71    1.18
  -5  -6   5   -0.64    0.85
  -5  -6   5    1.87    0.84
   5   6   5    1.32    1.00
   5  -6  -5    1.42    0.96
   5   6  -5    0.03    0.87
   5  -6   5    3.23    1.01
   5   6  -5    3.10    1.11
  -5   6   5    1.66    1.04
  -6   0  -5    1.26    0.31
   6   0   5    1.16    0.55
  -6   0  -5    1.26    0.40
   6   0  -5    0.79    0.49
  -6   0   5    1.04    0.52
  -6   0  -5    1.54    0.51
  -6   0   5    1.30    0.51
  -6   0  -5    1.36    0.30
   6   0  -5    1.72    0.47
  -6   0   5    1.51    0.55
  -6   1  -5   10.25    0.76
  -6   1  -5   10.56    0.88
  -6   1  -5    9.43    0.64
  -6  -1   5   10.99    0.97
   6   1   5   10.32    1.00
  -6   1  -5   10.32    0.71
  -6  -1   5   10.17    0.88
   6  -1  -5    9.83    0.91
   6  -1  -5   11.06    0.85
   6   1  -5    9.12    0.82
   6   1  -5    8.82    0.90
  -6  -1  -5   11.30    0.95
  -6  -1  -5   10.17    0.71
   6  -1   5   12.09    1.01
  -6   1   5   10.19    0.85
   6  -1   5   11.51    0.78
  -6   1   5   10.62    1.04
  -6   1   5    8.77    0.95
  -6   2  -5    0.24    0.39
  -6   2  -5    0.56    0.43
  -6   2  -5    0.45    0.51
  -6  -2   5   -0.01    0.46
   6   2   5    0.52    0.60
  -6  -2   5    0.98    0.48
   6  -2  -5   -0.92    0.44
  -6  -2   5   -0.38    0.43
  -6   2  -5   -0.33    0.37
   6  -2  -5   -0.80    0.47
   6   2  -5    0.17    0.49
   6  -2   5    0.74    0.57
   6   2  -5    0.21    0.49
  -6   2   5    0.55    0.52
  -6   2   5   -0.25    0.59
  -6   3  -5    5.32    0.78
  -6   3  -5    6.04    0.71
   6  -3  -5    6.05    0.79
  -6  -3   5    5.60    0.74
  -6  -3   5    5.43    0.77
   6  -3  -5    4.87    0.45
   6  -3  -5    5.91    1.07
  -6   3  -5    5.92    0.78
   6   3   5    6.21    0.97
   6  -3   5    5.28    0.84
   6   3  -5    5.72    0.77
  -6   3   5    5.77    0.98
  -6   3   5    5.26    0.86
   6  -4  -5    0.92    0.58
  -6  -4   5    1.48    0.67
   6   4   5    1.07    0.76
   6  -4  -5    1.68    0.70
   6  -4  -5    2.63    1.07
  -6   4  -5    1.56    0.67
   6   4   5    1.12    0.81
  -6   4  -5    1.31    0.75
  -6  -4   5    0.67    0.56
  -6   4   5    0.71    0.99
   6  -4   5    2.18    0.73
   6   4  -5    1.81    0.71
  -6   4   5    0.89    0.70
  -6   5  -5    5.08    1.19
   6   5   5    3.26    1.01
   6   5   5    2.45    0.83
   6  -5  -5    3.69    0.84
  -6  -5   5    2.05    0.77
  -6   5  -5    0.89    0.86
   6  -5  -5    3.70    0.85
   6  -5  -5    4.00    1.34
   6  -5   5    3.12    0.87
  -6   5   5    1.66    1.29
   6   5  -5    2.90    0.88
  -6   5   5    2.53    0.93
   6   6   5    0.74    1.17
  -6  -6   5    0.52    0.85
   6  -6  -5    1.11    1.57
   6  -6  -5    1.64    1.09
  -6   6  -5    2.32    1.13
  -6   6  -5   -0.35    1.43
   6   6  -5    0.34    1.35
  -6   6   5    1.25    1.07
   6  -6   5    0.62    1.04
   6   6  -5    0.01    1.07
  -7   0   5  110.58    3.24
  -7   0  -5  117.27    3.10
   7   0  -5  110.13    3.36
  -7   0   5  114.79    3.60
  -7   0  -5  117.47    3.11
  -7   0  -5  113.56    3.00
   7   0   5  114.00    3.38
   7  -1  -5   43.06    1.84
  -7   1  -5   41.91    1.52
  -7  -1   5   42.49    1.71
  -7  -1   5   40.71    1.82
   7   1   5   41.97    1.82
   7  -1  -5   43.07    1.83
  -7   1  -5   41.43    1.50
  -7   1  -5   43.46    1.60
   7   1  -5   38.18    1.76
   7  -1   5   43.32    1.79
  -7   1   5   42.96    1.96
  -7   1   5   42.40    1.77
  -7  -1  -5   43.54    1.53
  -7  -2   5   92.45    2.81
   7  -2  -5   84.81    3.04
  -7  -2   5   87.84    2.93
  -7   2  -5   89.44    2.54
  -7   2  -5   83.21    2.84
   7  -2  -5   85.65    2.81
   7   2   5   90.63    3.00
  -7   2   5   87.77    3.17
  -7   2   5   89.31    2.82
   7  -2   5   91.18    2.83
  -7  -2  -5   86.45    2.55
   7   2  -5   83.94    2.79
  -7  -3   5   39.05    1.80
  -7  -3   5   41.69    1.82
  -7   3  -5   42.34    1.69
  -7   3  -5   40.02    1.98
   7   3   5   44.70    2.10
   7  -3  -5   43.98    1.90
   7  -3  -5   44.21    2.39
  -7   3   5   40.85    1.90
   7   3  -5   41.43    1.89
  -7   3   5   44.33    2.27
   7  -3   5   41.16    1.88
   7   4   5   65.24    2.83
  -7   4  -5   58.96    2.70
   7   4   5   65.65    2.49
   7  -4  -5   64.32    2.42
   7   4   5   65.49    2.64
   7  -4  -5   60.25    3.17
  -7   4  -5   61.55    2.28
  -7  -4   5   61.17    2.36
  -7  -4   5   57.29    2.41
   7  -4   5   62.81    2.41
  -7   4   5   63.90    2.97
   7   4  -5   61.82    2.42
  -7   4   5   62.98    2.49
  -7   5  -5   12.25    1.32
  -7   5  -5   12.83    1.67
   7  -5  -5   13.02    1.33
   7   5   5   11.80    1.48
   7   5   5   13.07    1.35
  -7  -5   5   10.39    1.12
  -7   5   5   12.70    1.95
   7   5  -5   13.38    1.37
  -7   5   5   14.26    1.54
   7  -5   5   15.44    1.68
  -8   0   5    2.15    0.70
  -8   0  -5    1.68    0.67
  -8   0   5    1.59    0.73
  -8   0  -5    1.83    0.43
   8   0   5    1.18    0.73
  -8   0  -5    1.56    0.38
   8   0  -5    0.86    0.75
  -8  -1   5    0.15    0.63
   8   1   5    0.44    0.78
  -8  -1   5   -0.11    0.61
  -8   1  -5   -0.22    0.58
  -8   1  -5   -0.32    0.56
   8  -1  -5   -0.86    0.73
  -8   1  -5   -0.04    0.47
  -8   1   5   -0.32    0.70
  -8  -1  -5   -0.15    0.60
  -8   1   5    0.20    0.73
   8   1  -5   -0.65    0.70
   8  -1   5   -0.52    0.74
   8  -2  -5    2.62    0.89
   8   2   5    2.87    0.94
  -8  -2   5    2.22    0.77
  -8   2  -5    3.78    0.82
  -8   2  -5    2.80    0.72
  -8  -2   5    3.88    0.83
  -8   2   5    3.08    0.85
   8   2  -5    2.54    0.88
  -8  -2  -5    3.82    0.78
   8  -2   5    3.15    0.91
  -8   2   5    3.40    0.98
  -8   3  -5    1.55    0.78
  -8  -3   5   -0.25    0.79
   8   3   5   -1.28    1.01
   8  -3  -5    0.73    0.92
   8   3   5    0.31    1.02
  -8   3  -5   -0.49    0.80
  -8  -3   5   -0.15    0.59
  -8   3   5    0.45    1.05
  -8   3   5    0.27    0.83
   8   3  -5   -0.53    0.87
   8  -3   5    0.82    0.87
  -8   4  -5   -0.22    0.94
  -8  -4   5    0.52    0.94
   8  -4  -5   -0.38    1.07
  -8   4  -5    0.94    0.98
   8   4   5    0.53    1.10
   8   4   5    3.96    1.38
   8   4   5    1.09    1.15
   8   4  -5    0.01    1.04
  -8   4   5    1.76    1.38
  -8   4   5    0.40    1.06
   8  -4   5    0.58    1.00
   9   0  -5   12.41    1.42
  -9   0  -5   15.17    0.79
  -9   0  -5   16.18    0.76
   9   0   5   13.12    1.57
  -9   0  -5   17.65    1.47
   9   0   5   16.50    1.60
  -9   0   5   15.37    1.60
  -9   0   5   14.82    1.48
  -9   1  -5   32.85    1.53
  -9   1  -5   36.25    1.74
  -9  -1   5   31.92    1.94
  -9  -1   5   32.33    1.88
   9   1   5   34.73    1.98
   9  -1  -5   28.28    1.96
   9   1   5   32.97    2.23
   9   1  -5   32.12    2.11
  -9   1   5   30.53    2.09
  -9  -1  -5   32.37    1.75
   9  -1   5   33.45    1.84
  -9   1   5   31.10    2.02
  -9   2  -5    9.40    1.18
   9  -2  -5    7.41    1.27
  -9  -2   5    9.26    1.07
  -9  -2   5    9.90    1.31
  -9   2  -5    7.82    0.95
   9   2   5    7.76    1.41
  -9   2   5   11.02    1.45
   9  -2   5   12.41    1.32
  -9  -2  -5    9.64    1.16
   9   2  -5    8.98    1.30
  -9   2   5   10.21    1.47
  -9   3  -5   17.00    1.70
  -9   3  -5   22.58    1.90
  -9  -3   5   17.69    1.47
   9   3   5   20.93    1.95
  -9  -3   5   17.11    1.59
   9  -3  -5   19.80    2.04
  -9   3   5   19.39    1.94
  -9   3   5   19.57    2.01
   9  -3   5   18.69    2.03
   9  -3   5   16.77    1.88
   9   3  -5   18.11    1.72
   0   0  -6  155.22    4.07
   0   0  -6  145.39    4.06
   0   0   6  157.82    3.98
   0   0   6  147.11    4.05
   0   0   6  158.41    3.31
   0   0  -6  157.55    3.32
   0   0   6  150.75    4.07
   0   1   6    0.11    0.17
   0  -1   6   -0.22    0.18
   0   1  -6    0.05    0.08
   0  -1  -6    0.11    0.13
   0  -1   6    0.24    0.18
   0   1  -6   -0.37    0.22
   0  -1   6    0.25    0.27
   0   1   6    0.18    0.09
   0  -1  -6   -0.12    0.23
   0   1  -6    0.14    0.19
   0  -1  -6   -0.21    0.14
   0  -2   6  331.08    7.83
   0  -2  -6  326.15    8.19
   0   2  -6  330.55    7.05
   0   2  -6  317.20    8.31
   0  -2  -6  324.28    8.18
   0  -2  -6  319.06    7.18
   0   2   6  330.98    8.18
   0  -2   6  312.33    8.28
   0   2  -6  328.99    8.32
   0  -2   6  321.34    8.30
   0   2  -6  332.93    7.43
   0   2  -6  326.73    7.10
   0   2   6  328.17    7.14
   0  -2  -6  326.30    7.32
   0  -3  -6   -0.03    0.16
   0   3  -6   -0.51    0.18
   0   3  -6    0.51    0.27
   0  -3  -6    0.07    0.31
   0   3   6   -0.04    0.23
   0   3   6   -0.46    0.26
   0   3  -6    0.13    0.43
   0   3   6    0.23    0.28
   0  -3   6   -0.33    0.26
   0  -3  -6   -0.03    0.23
   0  -3   6    0.22    0.43
   0   3  -6    0.11    0.34
   0  -3  -6    0.15    0.27
   0   3  -6   -0.25    0.26
   0  -3   6   -0.08    0.35
   0   4   6   56.52    1.56
   0  -4  -6   55.08    1.86
   0   4  -6   59.80    1.81
   0   4  -6   56.16    1.75
   0  -4  -6   58.87    1.98
   0  -4   6   57.19    2.20
   0   4   6   58.08    1.82
   0  -4   6   56.87    2.16
   0   4  -6   57.32    2.06
   0  -4  -6   56.91    1.95
   0  -4   6   60.90    2.05
   0   4   6   55.96    1.89
   0  -4  -6   59.83    1.54
   0  -5  -6    0.16    0.43
   0   5  -6   -0.48    0.42
   0  -5  -6   -0.33    0.47
   0   5  -6    0.03    0.55
   0  -5   6    0.35    0.66
   0   5   6   -0.56    0.50
   0   5  -6    0.24    0.52
   0  -5  -6   -0.64    0.38
   0  -5   6    0.46    0.54
   0  -6   6   55.63    2.17
   0  -6   6   54.01    2.54
   0   6  -6   43.25    2.23
   0   6  -6   52.78    2.12
   0  -6  -6   53.22    2.11
   0  -6  -6   51.20    2.16
   0   6  -6   51.80    1.70
   0   6   6   51.58    2.05
   0  -7   6   -0.36    0.86
   0   7  -6    0.16    0.97
   0  -7  -6   -1.06    0.92
   0  -7   6   -0.83    1.08
   0  -7  -6    0.88    0.78
   0   7   6   -0.37    0.99
  -1   0   6   17.61    0.81
   1   0  -6   17.93    0.57
   1   0  -6   16.45    0.77
  -1   0  -6   18.45    0.76
   1   0  -6   19.82    0.80
  -1   0   6   15.36    0.75
  -1   0   6   17.07    0.55
  -1   0  -6   18.35    0.83
  -1   0   6   17.54    0.76
   1   0  -6   17.78    0.79
   1   0   6   17.72    0.74
  -1   0  -6   17.72    0.76
   1  -1  -6   57.57    1.82
  -1  -1   6   58.98    1.88
   1  -1  -6   61.71    1.66
  -1  -1   6   59.63    1.88
   1   1   6   59.74    1.37
   1  -1  -6   60.08    1.85
   1   1   6   59.71    1.37
  -1  -1   6   59.73    1.74
  -1   1  -6   57.28    1.70
  -1   1  -6   60.77    1.84
  -1   1  -6   58.51    1.85
   1  -1  -6   58.69    1.50
  -1  -1   6   59.56    1.45
   1   1   6   60.09    1.75
   1   1  -6   56.31    1.78
   1  -1   6   56.44    1.81
  -1  -1  -6   61.58    1.66
  -1   1   6   55.97    1.82
   1   1  -6   57.54    1.69
   1   1  -6   54.90    1.85
  -1  -1  -6   58.70    1.74
   1   1  -6   58.68    1.45
  -1   1   6   57.92    1.48
   1   1  -6   62.85    1.89
  -1   1   6   57.79    1.83
   1  -1   6   59.98    1.89
  -1  -1  -6   58.95    1.77
   1   2   6   40.81    1.13
  -1  -2   6   35.69    1.34
   1   2   6   41.53    1.32
   1  -2  -6   38.85    1.47
  -1   2  -6   41.41    1.48
  -1   2  -6   44.06    1.05
   1  -2  -6   43.07    1.45
   1  -2  -6   41.13    1.26
  -1   2  -6   46.34    1.55
  -1  -2   6   40.93    1.46
  -1   2  -6   42.34    1.39
  -1   2  -6   40.93    1.05
   1  -2  -6   41.05    1.24
  -1  -2   6   41.17    1.53
  -1  -2  -6   43.05    1.37
   1   2  -6   44.14    1.57
   1  -2   6   43.46    1.53
   1   2  -6   42.54    1.16
  -1  -2  -6   41.63    1.33
  -1   2   6   41.90    1.19
   1  -2   6   41.07    1.51
  -1   2   6   41.18    1.44
  -1  -2  -6   42.80    1.26
   1   2  -6   41.57    1.49
   1   2  -6   43.42    1.39
   1   3   6   41.12    1.22
  -1   3  -6   33.72    1.53
  -1   3  -6   39.56    1.15
  -1  -3   6   38.02    1.52
   1   3   6   40.52    1.33
  -1   3  -6   39.89    1.57
  -1   3  -6   41.38    1.16
  -1  -3   6   41.61    1.48
   1  -3  -6   39.83    1.43
   1  -3  -6   42.43    1.53
   1  -3  -6   40.12    1.20
  -1   3  -6   40.91    1.36
  -1   3   6   39.99    1.46
   1   3  -6   41.35    1.27
  -1  -3  -6   38.72    1.35
   1  -3   6   42.50    1.58
   1   3  -6   40.52    1.36
   1   3  -6   41.03    1.54
  -1  -3  -6   42.30    1.34
  -1   3   6   40.12    1.32
   1  -3   6   41.12    1.54
  -1  -3  -6   40.08    1.20
  -1   4  -6    4.08    0.54
   1  -4  -6    3.88    0.55
   1   4   6    5.34    0.57
   1  -4  -6    4.74    0.37
   1  -4  -6    5.42    0.70
   1   4   6    4.68    0.44
  -1  -4   6    4.02    0.73
  -1  -4   6    5.89    0.75
   1  -4  -6    5.09    0.63
  -1   4  -6    5.60    0.81
  -1   4  -6    4.29    0.54
  -1  -4   6    5.53    0.67
   1   4   6    5.40    0.62
  -1  -4  -6    4.38    0.46
   1   4  -6    5.48    0.60
  -1   4   6    5.59    0.52
  -1  -4  -6    4.89    0.38
  -1   4   6    5.21    0.61
   1   4  -6    5.54    0.60
   1  -4   6    4.09    0.75
   1   4  -6    4.45    0.62
  -1  -4  -6    5.12    0.66
  -1  -4  -6    5.98    0.59
  -1   4   6    4.87    0.59
   1  -4   6    6.14    0.75
  -1  -5   6   20.01    1.21
   1  -5  -6   23.05    0.71
   1   5   6   21.92    1.21
   1  -5  -6   23.63    1.31
  -1   5  -6   22.02    1.08
  -1   5  -6   22.66    1.18
  -1  -5   6   21.62    1.49
   1  -5  -6   23.78    1.37
  -1   5  -6   23.19    1.52
  -1  -5  -6   22.39    0.68
   1  -5   6   21.52    1.30
   1  -5   6   21.55    1.55
   1   5  -6   22.37    1.24
   1   5  -6   22.01    1.07
  -1   5   6   22.69    1.26
   1   5  -6   21.65    1.31
  -1  -5  -6   22.17    1.10
  -1  -5  -6   19.92    0.99
  -1  -5  -6   21.35    1.29
  -1   6  -6    3.07    0.87
  -1   6  -6    0.76    1.10
  -1   6  -6    2.27    0.59
   1   6   6    2.26    0.82
  -1  -6   6    2.81    1.02
   1  -6  -6    2.46    0.75
  -1  -6   6    2.39    0.82
   1  -6  -6    1.91    0.77
  -1  -6  -6    2.49    0.60
   1   6  -6    2.03    0.60
   1  -6   6    2.00    0.78
  -1   6   6    2.83    0.86
   1   6  -6    3.04    0.87
   1  -6   6    2.27    1.03
  -1  -6  -6    2.42    0.83
   1  -7  -6   10.36    1.25
   1  -7  -6   10.77    1.43
  -1  -7   6    7.56    1.37
  -1  -7   6   10.29    1.27
  -1   7  -6    7.59    1.22
   1   7   6    9.67    1.33
  -1  -7  -6    9.89    1.34
   1  -7   6   10.37    1.64
  -1  -7  -6    8.90    0.97
   1  -7   6   10.56    1.29
   1   7  -6    9.78    1.39
  -1   7   6   11.17    1.43
  -2   0  -6   41.84    1.39
   2   0  -6   45.48    1.55
  -2   0   6   43.87    1.28
   2   0  -6   45.22    1.54
   2   0  -6   45.00    1.23
  -2   0  -6   42.76    1.45
  -2   0   6   44.80    1.55
  -2   0   6   45.25    1.55
  -2   0   6   43.63    1.37
   2   0  -6   46.74    1.44
   2   0   6   43.94    1.40
  -2   0  -6   46.60    1.42
  -2   0   6   45.10    1.22
  -2  -1   6   62.55    1.96
   2   1   6   60.64    1.40
   2   1   6   60.17    1.41
  -2   1  -6   61.73    1.93
  -2   1  -6   60.07    1.78
  -2  -1   6   58.05    1.94
   2  -1  -6   65.19    2.01
  -2  -1   6   60.51    1.73
  -2  -1   6   61.15    1.58
   2   1   6   64.10    2.08
   2  -1  -6   61.43    1.95
   2  -1  -6   61.67    1.62
   2  -1  -6   59.94    1.76
   2   1   6   64.00    1.76
   2  -1   6   58.84    1.95
   2   1  -6   61.72    1.96
  -2   1   6   60.88    1.94
  -2   1   6   59.49    1.59
  -2   1   6   58.67    1.95
   2   1  -6   56.90    1.92
   2  -1   6   60.28    1.89
   2   1  -6   58.95    1.57
  -2  -1  -6   60.74    1.78
  -2   1   6   60.09    1.69
  -2  -1  -6   59.48    1.74
  -2  -1  -6   59.55    1.74
   2   1  -6   61.12    1.79
   2   2   6  156.53    4.00
   2   2   6  154.49    3.57
   2  -2  -6  162.48    4.31
  -2   2  -6  156.89    4.27
  -2   2  -6  156.34    3.44
   2  -2  -6  155.24    3.79
  -2   2  -6  157.96    3.86
  -2   2  -6  155.44    4.31
   2   2   6  151.56    3.54
  -2  -2   6  154.79    3.64
   2  -2  -6  156.59    4.31
  -2   2  -6  160.49    3.44
  -2  -2   6  157.09    4.31
  -2  -2   6  159.86    4.33
  -2  -2   6  157.46    3.92
  -2  -2  -6  156.20    4.00
  -2  -2  -6  155.76    4.01
  -2   2   6  154.36    4.26
   2   2  -6  152.72    3.84
   2  -2   6  152.82    4.13
   2  -2   6  153.69    4.30
   2   2  -6  156.62    4.31
  -2  -2  -6  152.29    3.75
   2   3   6   37.38    1.18
  -2   3  -6   37.42    1.09
  -2   3  -6   37.75    1.60
   2  -3  -6   39.00    1.36
   2  -3  -6   37.59    1.54
  -2  -3   6   38.61    1.56
  -2   3  -6   38.68    1.36
   2  -3  -6   38.48    1.49
   2  -3  -6   37.78    1.24
  -2  -3   6   38.76    1.37
  -2   3  -6   38.50    1.53
   2   3   6   37.10    1.19
  -2  -3   6   36.34    1.52
   2  -3   6   35.45    1.47
  -2  -3  -6   36.82    1.17
  -2   3   6   38.80    1.31
  -2   3   6   38.48    1.44
   2   3  -6   38.66    1.36
   2  -3   6   36.95    1.52
   2   3  -6   37.71    1.47
  -2  -3  -6   36.35    1.21
   2  -4  -6   29.71    1.45
  -2  -4   6   29.01    1.45
  -2  -4   6   29.28    1.50
  -2   4  -6   29.70    1.51
  -2  -4   6   28.88    1.27
   2  -4  -6   29.86    1.36
   2  -4  -6   30.44    1.30
  -2   4  -6   29.18    1.19
   2  -4  -6   29.32    0.97
  -2   4  -6   28.95    1.54
  -2   4  -6   29.78    1.13
   2   4   6   30.57    1.23
  -2  -4  -6   28.64    1.34
   2  -4   6   26.87    1.31
  -2   4   6   29.47    1.27
   2   4  -6   29.14    1.21
   2   4  -6   30.67    1.37
   2  -4   6   28.37    1.35
   2   4  -6   25.79    1.28
  -2   4   6   29.01    1.32
  -2  -4  -6   23.95    0.99
  -2  -4  -6   29.57    0.94
  -2  -4  -6   29.42    1.06
   2  -5  -6   21.42    1.27
   2  -5  -6   19.72    0.72
  -2   5  -6   18.79    1.05
  -2  -5   6   20.19    1.22
  -2   5  -6   22.35    1.53
  -2  -5   6   19.96    1.42
   2  -5  -6   19.60    1.36
  -2   5  -6   19.85    1.12
   2   5   6   20.32    1.21
  -2  -5  -6   20.20    1.31
  -2   5   6   20.67    1.18
  -2   5   6   18.26    1.21
   2   5  -6   19.83    1.27
   2  -5   6   19.85    1.56
   2  -5   6   20.28    1.29
  -2  -5  -6   19.44    0.93
   2   5  -6   18.94    1.23
  -2  -5  -6   18.19    0.99
   2   5  -6   19.67    1.10
   2   6   6   38.22    1.83
  -2  -6   6   39.59    1.89
  -2   6  -6   39.02    2.40
   2  -6  -6   38.48    1.87
  -2   6  -6   39.03    1.79
   2  -6  -6   35.97    1.98
  -2   6  -6   36.53    1.53
  -2  -6   6   40.44    2.16
  -2  -6  -6   39.46    1.92
   2  -6   6   38.51    1.96
  -2  -6  -6   38.95    1.60
  -2   6   6   38.05    1.83
  -2  -6  -6   38.96    1.52
   2   6  -6   38.87    1.54
   2   6  -6   38.26    1.92
   2  -6   6   41.36    2.43
  -2   7  -6    7.07    1.20
  -2  -7   6    6.17    1.15
   2   7   6    5.67    1.17
   2  -7  -6    6.64    1.26
   2  -7  -6    7.76    1.32
  -2  -7   6    5.62    1.34
  -2   7   6    6.73    1.21
   2  -7   6    6.73    1.21
  -2  -7  -6    4.66    1.19
   2   7  -6    8.26    1.40
   2  -7   6    6.74    1.65
  -2  -7  -6    6.65    0.78
   3   0   6   21.28    0.59
  -3   0  -6   24.98    0.96
   3   0   6   25.26    1.18
   3   0  -6   25.26    1.03
  -3   0   6   24.85    1.07
  -3   0   6   24.79    1.11
  -3   0  -6   24.67    1.02
  -3   0   6   26.24    0.82
  -3   0  -6   24.72    0.90
   3   0   6   23.65    0.92
  -3   0   6   23.65    0.83
  -3   0   6   26.16    0.86
   3   0  -6   24.85    1.10
   3   0  -6   26.11    1.09
  -3   1  -6   17.74    0.77
   3  -1  -6   17.56    0.92
   3   1   6   18.16    0.69
  -3   1  -6   17.95    0.89
  -3   1  -6   16.88    0.44
   3  -1  -6   17.48    0.90
   3   1   6   17.73    0.54
  -3  -1   6   16.83    0.65
   3   1   6   16.82    0.55
  -3  -1   6   17.19    0.91
  -3   1  -6   17.12    0.87
  -3  -1   6   17.39    0.96
   3  -1  -6   15.41    0.85
   3   1   6   17.89    1.09
  -3  -1  -6   17.17    0.64
  -3   1   6   17.77    0.69
  -3   1   6   16.91    0.86
  -3   1   6   17.01    0.92
   3   1  -6   17.28    0.88
  -3   1   6   16.85    0.78
   3   1  -6   17.23    0.87
   3  -1   6   17.71    0.47
   3  -1   6   17.77    0.84
  -3   1   6   15.22    0.72
   3  -1   6   18.43    1.00
  -3  -1  -6   18.23    0.71
  -3  -1  -6   16.84    0.86
  -3   2  -6    1.82    0.33
   3  -2  -6    2.28    0.43
   3  -2  -6    1.64    0.46
   3   2   6    1.94    0.26
   3   2   6    1.83    0.21
   3  -2  -6    1.89    0.49
  -3  -2   6    1.90    0.36
  -3   2  -6    1.83    0.48
  -3  -2   6    1.78    0.42
   3   2   6    2.38    0.25
  -3   2  -6    1.63    0.18
  -3  -2   6    1.62    0.24
  -3   2  -6    2.23    0.45
  -3  -2   6    2.36    0.52
  -3  -2  -6    2.11    0.24
   3  -2   6    1.92    0.35
  -3  -2  -6    1.76    0.36
  -3  -2  -6    2.38    0.20
  -3   2   6    1.55    0.34
   3   2  -6    1.86    0.42
   3  -2   6    2.42    0.53
   3   2  -6    2.09    0.38
   3  -2   6    1.87    0.23
  -3   2   6    2.15    0.45
   3   2  -6    2.60    0.38
  -3   3  -6   11.78    0.96
  -3  -3   6   11.46    0.75
   3  -3  -6   12.23    1.03
   3  -3  -6   12.08    0.76
  -3  -3   6   12.12    0.75
  -3  -3   6   11.31    0.95
   3  -3  -6   12.64    0.78
   3  -3  -6   10.03    0.95
  -3   3  -6   11.48    0.51
   3   3   6   12.44    0.78
  -3   3  -6   11.58    0.80
  -3   3  -6   11.71    0.81
   3   3  -6   12.75    0.88
   3  -3   6   10.77    0.64
  -3   3   6   12.31    0.82
   3   3  -6   12.20    0.85
   3  -3   6   11.86    0.96
   3  -3   6   11.82    0.87
  -3  -3  -6   12.39    0.76
  -3  -3  -6   12.10    0.47
  -3  -3  -6   11.90    0.47
  -3   3   6   10.83    0.83
   3  -4  -6    7.10    0.79
   3  -4  -6    7.29    0.73
  -3   4  -6    7.92    0.94
  -3  -4   6    7.45    0.90
   3  -4  -6    8.06    0.93
  -3   4  -6    7.11    0.73
  -3   4  -6    7.37    0.72
   3   4   6    8.29    0.81
  -3  -4   6    9.11    0.78
   3   4  -6    6.86    0.82
   3   4  -6    8.56    0.84
  -3  -4  -6    8.68    0.67
  -3  -4  -6    8.01    0.42
   3  -4   6    8.27    0.90
  -3   4   6    8.81    0.85
  -3   4   6    8.42    0.84
   3  -4   6    8.03    0.86
  -3  -4  -6    7.66    0.42
  -3   5  -6    5.95    1.06
   3   5   6    7.24    0.92
   3  -5  -6    6.62    0.95
   3  -5  -6    6.45    0.87
  -3   5  -6    6.99    0.77
   3  -5  -6    4.40    0.44
  -3  -5   6    5.78    0.92
  -3  -5   6    7.32    0.81
  -3   5  -6    5.71    0.72
   3   5  -6    7.05    0.78
  -3   5   6    6.50    0.84
  -3  -5  -6    6.86    0.47
  -3   5   6    6.41    0.76
   3   5  -6    6.87    0.98
   3  -5   6    7.31    0.99
   3  -5   6    5.67    1.10
  -3  -5  -6    6.96    0.50
  -3  -5  -6    8.55    0.97
  -3  -6   6    2.78    0.90
  -3   6  -6    1.23    0.82
   3  -6  -6    1.71    0.96
   3   6   6    1.42    0.87
   3  -6  -6    2.08    0.85
  -3   6  -6    1.42    0.67
  -3  -6   6    1.16    0.78
  -3   6  -6    1.65    1.16
  -3   6   6    0.16    0.86
  -3  -6  -6    1.36    0.33
  -3  -6  -6    1.65    0.37
   3  -6   6    0.55    1.22
   3   6  -6    1.59    0.69
   3  -6   6    1.12    0.74
   3   6  -6    1.42    0.94
  -3  -6  -6    1.53    0.80
   3   7   6    4.01    1.27
   3  -7  -6    4.35    1.26
  -3  -7   6    3.68    1.29
  -3  -7   6    4.34    1.17
   3  -7  -6    5.00    1.36
  -3   7  -6    2.64    1.20
  -3  -7  -6    3.01    0.45
  -3  -7  -6    3.30    1.17
   3   7  -6    5.69    1.31
   3  -7   6    4.95    1.17
  -3  -7  -6    3.03    0.41
  -3   7   6    3.78    1.24
   3  -7   6    4.76    1.82
  -4   0  -6    7.07    0.65
   4   0   6    8.40    0.54
  -4   0   6    8.68    0.72
   4   0  -6    7.69    0.63
   4   0   6    7.76    0.35
  -4   0   6    7.53    0.38
  -4   0  -6    7.27    0.53
   4   0   6    6.59    0.74
  -4   0   6    7.43    0.39
  -4   0  -6    7.28    0.45
  -4   0   6    7.57    0.66
  -4   0  -6    8.04    0.33
  -4   0   6    6.65    0.79
   4   0  -6    7.45    0.75
  -4  -1   6   88.97    2.81
  -4   1  -6   88.39    2.52
  -4  -1   6   86.98    2.78
   4  -1  -6   90.02    2.80
   4   1   6   88.49    2.39
  -4  -1   6   89.66    2.21
  -4  -1   6   91.15    2.23
   4   1   6   95.23    2.86
  -4   1  -6   85.24    2.58
  -4   1  -6   87.48    2.07
   4   1   6   85.48    2.13
  -4   1  -6   90.17    2.66
  -4  -1   6   90.91    2.42
   4  -1  -6   90.25    2.55
   4  -1   6   89.19    2.09
  -4   1   6   88.41    2.80
  -4  -1  -6   88.73    2.48
   4   1  -6   89.62    2.56
  -4   1   6   86.40    2.25
   4  -1   6   93.32    2.66
  -4  -1  -6   93.30    2.36
  -4   1   6   88.07    2.35
   4  -1   6   89.37    2.74
  -4   1   6   92.10    2.86
  -4   1   6   93.07    2.46
   4   1  -6   88.43    2.76
  -4  -1  -6   88.97    2.36
  -4  -2   6    2.90    0.32
  -4  -2   6    3.00    0.48
  -4   2  -6    3.14    0.53
  -4   2  -6    3.31    0.29
  -4  -2   6    3.76    0.59
   4  -2  -6    1.83    0.71
   4   2   6    2.40    0.32
  -4  -2   6    2.67    0.47
   4  -2  -6    3.95    0.67
  -4   2  -6    3.96    0.57
   4  -2  -6    3.66    0.56
  -4   2  -6    3.62    0.46
   4   2  -6    3.38    0.50
  -4   2   6    3.74    0.47
   4   2  -6    2.94    0.53
  -4  -2  -6    2.95    0.49
  -4   2   6    3.27    0.54
  -4   2   6    3.36    0.40
   4  -2   6    3.58    0.60
   4  -2   6    2.46    0.42
   4  -2   6    3.23    0.34
  -4   3  -6   61.34    1.97
  -4   3  -6   59.78    2.25
  -4   3  -6   59.20    1.61
  -4  -3   6   59.24    2.15
   4  -3  -6   60.30    1.86
  -4  -3   6   59.25    1.71
  -4   3  -6   60.11    2.12
   4  -3  -6   55.50    2.24
   4   3   6   60.89    1.87
   4  -3  -6   61.90    1.91
  -4  -3   6   51.08    2.12
  -4  -3   6   66.64    2.00
   4  -3  -6   61.40    2.31
   4  -3   6   62.64    2.20
   4   3  -6   56.28    2.06
   4  -3   6   60.17    2.16
   4   3  -6   61.55    1.98
  -4  -3  -6   60.90    1.86
  -4   3   6   63.12    1.96
  -4   3   6   58.39    2.13
  -4  -4   6    1.45    0.50
  -4   4  -6    0.68    0.53
   4   4   6    1.38    0.57
  -4   4  -6    1.55    0.48
  -4   4  -6    2.06    0.72
   4  -4  -6    1.77    0.52
   4  -4  -6    1.49    0.52
   4  -4  -6    1.73    0.71
   4   4  -6    1.20    0.58
   4  -4   6    1.06    0.57
  -4   4   6    0.69    0.52
  -4   4   6    1.30    0.57
  -4  -4  -6    1.47    0.46
   4   4  -6    1.23    0.56
   4  -4   6    1.99    0.56
   4   5   6   34.33    1.76
   4  -5  -6   36.55    1.68
   4  -5  -6   34.43    1.44
   4  -5  -6   36.55    2.06
  -4   5  -6   36.18    2.12
  -4   5  -6   34.86    1.56
  -4   5  -6   35.73    1.54
  -4  -5   6   36.15    1.62
  -4  -5   6   36.89    1.93
   4   5  -6   34.04    1.81
  -4   5   6   33.60    1.66
   4  -5   6   35.81    1.78
  -4   5   6   37.20    1.78
   4   5  -6   34.15    1.58
   4  -5   6   37.43    2.37
   4   6   6    0.48    0.94
  -4   6  -6    4.10    0.86
  -4  -6   6    1.56    0.88
  -4   6  -6    1.58    0.85
   4  -6  -6    1.65    0.99
  -4  -6   6    1.03    0.85
   4  -6  -6    2.09    1.11
  -4   6  -6    2.37    1.24
  -4   6   6    2.06    0.87
   4  -6   6    1.74    0.86
   4  -6   6    2.02    1.47
  -4  -6  -6    0.79    0.93
   4   6  -6    1.06    1.05
   4   6  -6    1.27    0.82
   4  -7  -6   14.26    1.85
   4  -7  -6   13.42    1.54
  -4   7  -6   11.14    1.47
  -4  -7   6   12.74    1.57
  -4  -7   6   13.79    1.55
   4   7   6   12.30    1.72
  -4  -7  -6   10.13    1.61
   4  -7   6   11.48    1.51
   4   7  -6   14.51    1.79
  -4   7   6   14.86    1.63
  -5   0   6    2.29    0.55
  -5   0  -6    1.95    0.33
  -5   0   6    1.72    0.45
  -5   0  -6    1.58    0.25
   5   0  -6    1.81    0.52
  -5   0  -6    1.34    0.20
  -5   0   6    1.46    0.49
   5   0   6    1.96    0.59
   5   0  -6    1.64    0.42
   5   0   6    1.80    0.35
   5   0   6    1.57    0.30
  -5   0  -6    1.26    0.50
   5   1   6   22.36    0.84
  -5   1  -6   22.29    0.73
  -5   1  -6   23.05    0.97
  -5   1  -6   22.90    1.07
  -5  -1   6   24.29    1.11
  -5   1  -6   24.43    1.18
  -5  -1   6   25.39    1.25
   5  -1  -6   23.23    1.18
   5  -1  -6   21.99    1.18
   5   1   6   24.10    1.36
  -5  -1   6   23.10    1.27
  -5   1   6   24.50    1.12
  -5   1   6   24.38    1.28
   5  -1   6   22.31    0.81
  -5  -1  -6   23.97    0.73
   5  -1   6   23.24    1.06
  -5   1   6   22.69    0.70
   5  -1   6   22.00    1.24
  -5   1   6   22.00    1.31
  -5  -1  -6   21.54    1.07
  -5  -1  -6   22.79    0.73
  -5   1   6   23.52    0.73
   5   1  -6   23.92    1.19
   5   1  -6   22.94    1.13
  -5   2  -6    3.31    0.61
  -5  -2   6    2.07    0.55
  -5  -2   6    2.37    0.49
  -5  -2   6    3.21    0.24
  -5  -2   6    3.18    0.65
   5  -2  -6    2.21    0.55
  -5   2  -6    2.95    0.56
  -5   2  -6    2.27    0.26
  -5   2  -6    2.70    0.41
   5   2   6    3.26    0.76
   5  -2  -6    1.57    0.44
  -5   2   6    2.52    0.67
  -5   2   6    2.80    0.58
   5  -2   6    2.24    0.48
   5  -2   6    2.61    0.59
   5   2  -6    2.28    0.50
  -5  -2  -6    3.29    0.54
   5   2  -6    2.75    0.59
  -5   3  -6   18.28    1.13
  -5   3  -6   18.87    1.27
   5  -3  -6   18.06    1.12
   5  -3  -6   17.16    0.92
  -5  -3   6   17.84    1.21
   5   3   6   19.65    1.14
  -5  -3   6   18.08    0.69
  -5  -3   6   19.49    1.13
  -5   3  -6   17.61    0.93
   5  -3  -6   18.27    1.35
  -5  -3  -6   20.52    1.11
   5   3  -6   18.43    1.17
   5   3  -6   17.09    1.12
   5  -3   6   20.65    1.30
  -5   3   6   19.33    1.18
  -5   3   6   16.70    1.37
   5  -3   6   16.99    1.13
   5   4   6   -0.49    0.64
  -5   4  -6    1.49    0.78
   5  -4  -6    0.17    0.88
  -5   4  -6   -0.28    0.53
  -5  -4   6   -0.27    0.48
   5  -4  -6   -0.01    0.55
  -5   4  -6   -0.32    0.56
  -5  -4   6   -0.37    0.54
   5  -4  -6   -0.41    0.54
   5  -4   6    0.77    0.65
  -5   4   6    0.48    0.88
   5   4  -6   -1.11    0.59
  -5   4   6    0.36    0.63
   5  -5  -6   11.36    1.26
  -5   5  -6   10.68    1.32
  -5   5  -6   12.35    1.17
   5  -5  -6   15.28    1.61
  -5   5  -6   14.67    1.30
  -5  -5   6   13.81    1.18
   5   5   6   12.56    1.23
   5   5   6   10.90    1.06
   5  -5  -6   14.01    1.18
  -5  -5   6   11.87    1.39
  -5   5   6   12.76    1.75
   5  -5   6   11.28    1.22
   5   5  -6   11.89    1.27
  -5   5   6   13.31    1.29
  -5  -6   6    0.12    0.95
  -5   6  -6   -0.10    1.31
   5   6   6    1.57    1.24
   5  -6  -6    4.34    1.44
  -5   6  -6    0.86    0.97
  -5  -6   6    0.40    0.98
   5  -6  -6    0.15    0.98
   5  -6   6    1.81    1.05
   5   6  -6    3.75    0.97
   5   6  -6    1.52    1.33
  -5   6   6    0.01    0.94
  -6   0   6   25.92    1.32
  -6   0  -6   25.67    1.03
   6   0   6   25.92    1.40
  -6   0  -6   29.70    1.03
  -6   0   6   29.19    1.54
  -6   0  -6   27.24    1.07
   6   0  -6   25.49    1.34
  -6   0  -6   27.80    1.34
   6   0  -6   25.75    1.37
  -6   1  -6    6.80    0.63
   6  -1  -6    8.23    0.89
  -6  -1   6    6.88    0.76
  -6   1  -6    6.59    0.73
   6  -1  -6    7.16    0.83
   6   1   6    6.21    0.87
  -6   1  -6    7.96    0.84
  -6   1  -6    6.06    0.57
  -6  -1   6    5.86    0.83
  -6   1   6    7.49    0.81
  -6  -1  -6    7.35    0.84
   6   1  -6    6.44    0.72
   6  -1   6    7.30    0.95
  -6  -1  -6    7.38    0.68
  -6   1   6    7.71    0.94
   6   1  -6    7.05    0.83
   6   2   6    4.59    0.90
  -6  -2   6    3.85    0.70
  -6   2  -6    4.68    0.55
  -6  -2   6    5.19    0.75
  -6   2  -6    4.58    0.68
  -6   2  -6    4.90    0.57
   6  -2  -6    4.80    0.76
   6  -2  -6    4.55    0.64
  -6   2  -6    4.93    0.77
   6  -2   6    4.29    0.81
  -6  -2  -6    4.36    0.71
   6   2  -6    3.86    0.69
  -6   2   6    4.43    0.35
  -6   2   6    4.58    0.78
  -6   2   6    3.40    0.79
   6   3   6    7.16    0.89
   6  -3  -6    4.58    0.75
  -6   3  -6    6.54    0.93
  -6   3  -6    5.54    0.79
   6   3   6    4.97    1.06
  -6  -3   6    5.30    0.80
  -6  -3   6    4.72    0.76
   6  -3  -6    6.61    1.08
  -6   3  -6    6.51    0.69
   6   3  -6    5.64    0.89
   6  -3   6    6.77    0.92
  -6   3   6    7.05    1.09
  -6   3   6    6.39    0.85
   6  -4  -6    7.35    0.81
   6  -4  -6    8.21    0.97
  -6   4  -6    7.03    0.88
  -6   4  -6    8.39    1.01
   6   4   6    7.39    0.99
  -6  -4   6    9.58    1.03
  -6   4  -6    7.06    1.08
   6  -4  -6    9.03    1.37
   6   4  -6    8.38    1.01
  -6   4   6    8.10    1.04
  -6   4   6    9.03    1.35
   6  -4   6    7.06    1.10
  -6  -5   6    4.39    1.02
   6  -5  -6    7.21    1.60
   6   5   6    5.07    1.28
  -6   5  -6    6.03    1.03
  -6   5  -6    3.19    1.20
   6  -5  -6    5.36    0.99
   6   5   6    6.72    1.05
   6  -5  -6    5.33    0.97
   6  -5   6    5.16    1.11
   6   5  -6    5.44    1.02
  -6   5   6    6.37    1.52
  -6   5   6    4.95    1.10
   6  -6  -6    1.13    1.72
   6   6   6   -0.66    1.36
  -6   6  -6   -3.12    1.11
  -6   6  -6    3.67    1.56
   6  -6  -6   -0.13    1.15
  -6  -6   6    0.41    1.03
  -6   6   6    1.04    1.21
   6  -6   6   -0.86    1.08
   6   6  -6   -1.78    1.20
   6   6  -6    2.10    1.55
  -7   0  -6   55.82    2.11
   7   0  -6   54.49    2.15
  -7   0   6   54.90    2.07
  -7   0  -6   54.87    1.70
   7   0   6   52.71    2.17
  -7   0  -6   55.15    1.72
  -7   0   6   56.48    2.31
  -7   0  -6   55.73    1.75
   7  -1  -6   11.58    1.19
  -7   1  -6   10.03    0.84
  -7  -1   6   10.16    1.19
  -7   1  -6   11.35    0.92
   7  -1  -6   11.26    1.19
  -7   1  -6   12.24    1.11
  -7   1  -6   10.97    1.01
   7   1   6   10.85    1.12
  -7  -1   6   12.39    1.07
  -7   1   6   12.36    1.33
   7   1  -6    9.76    1.04
   7  -1   6   10.93    1.21
  -7   1   6   10.07    1.04
  -7  -1  -6   12.36    0.95
   7  -2  -6   21.91    1.53
   7   2   6   23.93    1.68
  -7  -2   6   23.24    1.48
  -7   2  -6   20.59    1.33
  -7  -2   6   22.92    1.44
  -7   2  -6   22.27    1.50
   7  -2  -6   23.79    1.46
  -7   2  -6   21.73    1.18
  -7   2   6   25.16    1.80
   7   2  -6   21.50    1.40
   7  -2   6   20.56    1.53
  -7   2   6   22.78    1.52
  -7  -3   6    9.11    1.04
  -7  -3   6    8.17    1.02
  -7   3  -6    9.09    1.08
  -7   3  -6    9.23    0.94
   7  -3  -6   10.14    1.11
   7   3   6   10.83    1.37
   7  -3  -6    9.89    1.51
  -7   3   6    9.96    1.14
   7  -3   6    8.59    1.04
   7   3  -6    9.23    1.14
  -7   3   6    9.86    1.35
   7   4   6   24.84    1.88
  -7  -4   6   22.72    1.60
   7  -4  -6   23.04    1.77
  -7   4  -6   22.23    1.89
   7   4   6   25.84    2.25
   7   4   6   22.68    1.80
  -7   4  -6   20.40    1.55
  -7  -4   6   23.16    1.59
   7   4  -6   21.64    1.70
   7  -4   6   28.00    1.81
  -7   4   6   23.55    1.70
  -7   4   6   25.66    2.26
   7   5   6    5.75    1.26
   7   5   6    2.68    1.35
  -7   5  -6    4.56    1.18
   7  -5  -6    5.44    1.15
  -7  -5   6    4.68    1.05
  -7   5  -6    2.74    1.33
   7  -5   6    5.96    1.27
  -7   5   6    6.15    1.92
   7   5  -6    6.36    1.28
  -7   5   6    4.69    1.30
  -8   0   6    3.26    0.90
  -8   0  -6    3.34    0.43
  -8   0   6    4.38    0.94
  -8   0  -6    3.68    0.46
   8   0   6    3.48    0.97
   8   0  -6    3.73    0.85
  -8   0  -6    3.88    0.75
  -8  -1   6    2.11    0.73
  -8   1  -6    1.82    0.52
  -8   1  -6    2.98    0.77
  -8  -1   6    2.08    0.85
  -8   1  -6    3.13    0.70
   8   1   6    2.24    0.94
   8  -1  -6    2.30    0.85
  -8   1   6    3.18    0.89
   8   1  -6    2.89    0.93
  -8   1   6    2.62    0.93
   8  -1   6    3.16    0.87
  -8  -1  -6    2.42    0.70
   8   2   6   -1.35    0.87
  -8   2  -6   -0.50    0.70
   8  -2  -6    0.79    0.86
  -8   2  -6    0.16    0.59
  -8  -2   6   -0.18    0.72
  -8  -2   6    0.47    0.83
   8  -2   6    1.38    0.85
  -8   2   6   -0.08    0.91
   8   2  -6    1.58    0.90
  -8   2   6    0.77    0.85
  -8   3  -6    3.57    0.93
   8  -3  -6    3.87    1.09
   8   3   6    1.62    1.05
  -8  -3   6    1.91    0.90
  -8  -3   6    2.05    0.84
   8   3   6    2.10    1.23
  -8   3  -6    1.92    0.93
  -8   3   6    0.47    1.19
   8  -3   6    3.40    1.00
  -8   3   6    1.59    1.06
   8   3  -6    3.36    1.14
   8   4   6    3.49    1.56
  -8   4  -6    1.91    1.11
   8   4   6    4.46    1.25
   8  -4  -6    1.59    1.12
  -8  -4   6    1.18    0.84
   8   4   6    2.40    1.41
  -8  -4   6    2.20    1.09
  -8   4   6    1.63    1.16
   8   4  -6    4.29    1.21
  -8   4   6    0.65    1.49
   8  -4   6    1.79    1.16
  -9   0  -6   14.80    1.47
   9   0  -6   15.78    1.58
  -9   0   6   14.93    1.47
   9   0   6   17.98    1.82
  -9   0   6   14.47    1.54
   9   1   6    0.37    1.18
   9  -1  -6    1.73    1.00
  -9  -1   6   -0.46    1.01
  -9  -1   6    1.35    0.94
  -9   1  -6   -0.64    0.55
  -9   1   6    2.14    1.06
   9   1  -6    0.42    1.00
  -9  -1  -6    0.76    0.96
   9  -1   6    1.68    1.10
  -9   1   6    2.68    1.17
   9  -2  -6   24.05    2.09
   9   2   6   24.23    2.22
  -9  -2   6   23.70    1.98
   9   2   6   24.73    2.17
  -9  -2   6   27.51    1.86
  -9   2  -6   22.97    1.59
   9  -2   6   24.68    1.97
  -9   2   6   25.17    1.92
  -9   2   6   25.69    2.29
   9   2  -6   26.71    2.15
   0   0   7    0.03    0.06
   0   0  -7   -0.16    0.27
   0   0  -7   -0.13    0.09
   0   0   7    0.35    0.39
   0   0  -7   -0.20    0.24
   0   0   7   -0.15    0.20
   0   0  -7    0.17    0.32
   0  -1  -7   49.71    1.69
   0   1  -7   47.03    1.55
   0   1  -7   50.49    1.15
   0  -1   7   49.46    1.69
   0   1  -7   50.56    1.76
   0   1  -7   50.77    1.69
   0  -1  -7   50.46    1.26
   0  -1   7   50.19    1.72
   0   1   7   49.30    1.62
   0  -1  -7   47.56    1.53
   0   1  -7   49.92    1.17
   0   1   7   49.25    1.22
   0   1   7   50.26    1.80
   0   2  -7   -0.17    0.36
   0   2  -7    0.10    0.35
   0  -2  -7   -0.10    0.26
   0  -2  -7   -0.82    0.26
   0   2  -7    0.40    0.16
   0  -2  -7    0.20    0.25
   0   2   7   -0.23    0.23
   0   2   7   -0.01    0.15
   0  -2   7    0.00    0.26
   0   2  -7   -0.03    0.14
   0  -2  -7    0.34    0.31
   0  -2   7   -0.10    0.32
   0   2  -7    0.01    0.38
   0   3   7   54.03    1.57
   0  -3   7   52.38    1.83
   0   3  -7   52.42    1.45
   0  -3  -7   53.30    1.76
   0  -3  -7   53.36    1.58
   0   3   7   43.86    1.66
   0   3  -7   49.59    1.99
   0   3  -7   54.66    1.99
   0  -3   7   48.09    1.85
   0   3  -7   53.45    1.43
   0   3  -7   53.02    1.70
   0  -3  -7   51.59    1.79
   0   4   7    0.57    0.47
   0   4  -7   -0.03    0.58
   0  -4   7    0.26    0.62
   0  -4   7    0.52    0.48
   0  -4  -7    0.64    0.32
   0   4  -7   -0.15    0.42
   0   4  -7    0.37    0.45
   0  -4  -7   -0.28    0.24
   0  -4  -7   -0.18    0.35
   0   4   7    0.62    0.39
   0  -4  -7    0.14    0.40
   0  -5   7   14.27    1.47
   0   5  -7   13.18    1.08
   0  -5  -7   11.03    0.56
   0  -5  -7   10.61    0.89
   0   5   7   12.78    1.02
   0   5  -7   11.26    1.31
   0  -5  -7   12.52    1.05
   0  -5  -7   13.62    1.12
   0   5  -7   11.27    0.98
   0  -5   7   10.74    1.10
   0  -6  -7    0.45    0.60
   0  -6   7    0.39    0.99
   0   6  -7   -0.38    0.61
   0   6  -7   -0.96    0.79
   0   6  -7   -0.66    1.20
   0   6   7    0.36    0.79
   0  -6  -7   -0.60    0.76
   0  -6   7   -0.22    0.68
   0   7  -7   16.71    1.57
   0  -7  -7   17.69    1.87
   0  -7  -7   18.36    1.52
   0  -7   7   15.82    1.95
   0  -7   7   18.83    1.78
   0   7   7   15.26    1.56
  -1   0   7   34.85    1.33
   1   0   7   36.75    1.30
  -1   0   7   37.13    0.98
   1   0  -7   36.56    1.28
   1   0   7   37.08    1.49
  -1   0  -7   37.94    1.38
   1   0  -7   36.28    0.99
  -1   0   7   38.04    1.38
  -1   0  -7   36.87    1.28
   1   0  -7   36.64    1.37
   1   1   7    2.00    0.52
   1  -1  -7    1.94    0.40
   1  -1  -7    2.57    0.45
   1  -1  -7    2.62    0.36
  -1  -1   7    2.36    0.45
   1   1   7    1.93    0.14
  -1   1  -7    2.23    0.41
  -1  -1   7    2.02    0.21
   1   1   7    3.13    0.36
   1  -1  -7    3.04    0.31
  -1   1  -7    2.35    0.45
  -1  -1   7    2.46    0.38
  -1   1  -7    3.01    0.39
  -1  -1   7    2.29    0.42
   1   1   7    1.93    0.15
   1  -1   7    1.90    0.30
   1  -1   7    2.20    0.47
  -1  -1  -7    2.29    0.39
   1   1  -7    2.77    0.42
   1   1  -7    2.29    0.41
  -1   1   7    2.96    0.24
  -1   1   7    2.36    0.33
   1   1  -7    1.98    0.36
  -1   1   7    2.20    0.47
  -1  -1  -7    2.44    0.32
  -1  -1  -7    2.35    0.41
   1   1  -7    2.03    0.23
   1   2   7   21.72    0.92
  -1  -2   7   22.99    1.17
  -1   2  -7   22.92    1.17
   1  -2  -7   21.73    1.09
   1  -2  -7   22.71    0.99
  -1  -2   7   21.84    1.01
  -1   2  -7   23.30    0.61
   1  -2  -7   21.59    1.03
  -1   2  -7   22.58    0.61
  -1   2  -7   22.65    1.10
   1   2   7   23.45    0.73
  -1  -2   7   23.03    1.08
  -1   2  -7   23.60    1.08
   1  -2  -7   22.47    0.89
  -1   2   7   22.44    1.00
   1   2  -7   24.30    1.07
  -1   2   7   23.02    0.79
   1   2  -7   22.78    1.03
  -1  -2  -7   22.69    0.91
  -1  -2  -7   23.33    0.97
   1  -2   7   24.51    1.10
   1  -2   7   21.78    1.12
   1   2  -7   22.63    0.76
   1   2  -7   21.55    1.15
  -1  -2  -7   22.50    0.97
  -1   3  -7    0.18    0.46
   1   3   7   -0.01    0.30
  -1  -3   7    0.57    0.53
   1  -3  -7    0.39    0.39
  -1   3  -7    0.61    0.26
   1   3   7    0.10    0.21
  -1   3  -7    0.88    0.53
   1  -3  -7    0.25    0.39
  -1   3  -7    0.66    0.18
   1  -3  -7    0.20    0.35
  -1  -3   7   -0.09    0.49
  -1  -3   7    0.84    0.40
  -1   3  -7    0.04    0.39
  -1  -3  -7    0.22    0.22
   1   3  -7    0.71    0.23
  -1   3   7    0.66    0.34
   1  -3   7    0.41    0.32
   1   3  -7    0.69    0.31
   1  -3   7    0.21    0.46
  -1  -3  -7    0.43    0.31
  -1  -3  -7    0.22    0.34
   1   3  -7    0.33    0.38
  -1   3   7    0.98    0.31
  -1   4  -7   15.40    0.98
   1  -4  -7   15.16    1.01
  -1   4  -7   16.99    0.87
  -1  -4   7   16.83    1.31
   1  -4  -7   16.50    1.10
  -1   4  -7   16.94    1.31
  -1  -4   7   16.38    1.08
   1  -4  -7   15.55    0.82
   1   4   7   15.54    0.89
   1  -4  -7   13.23    0.96
   1   4   7   15.88    0.95
   1  -4   7   15.36    1.06
   1  -4   7   14.79    1.31
  -1   4   7   15.37    1.00
  -1  -4  -7   16.40    0.91
  -1  -4  -7   15.60    0.79
  -1   4   7   16.85    1.00
  -1  -4  -7   15.22    1.07
   1   4  -7   13.59    1.01
  -1  -4  -7   16.16    0.80
   1   4  -7   17.35    1.01
   1   4  -7   16.16    1.00
  -1   5  -7    3.69    0.69
  -1   5  -7    3.13    0.98
   1  -5  -7    4.13    0.44
  -1  -5   7    4.88    0.77
  -1   5  -7    4.26    0.67
   1   5   7    4.07    0.75
  -1  -5   7    2.50    0.90
   1  -5  -7    4.21    0.81
   1  -5  -7    3.06    0.65
   1   5  -7    3.69    0.79
  -1  -5  -7    3.31    0.72
  -1  -5  -7    3.03    0.53
   1  -5   7    2.86    0.71
  -1   5   7    4.73    0.79
   1   5  -7    2.57    0.60
   1  -5   7    3.12    0.96
  -1  -5  -7    3.19    0.32
  -1  -5  -7    3.29    0.47
   1   5  -7    3.63    0.67
   1  -6  -7    5.96    1.00
  -1   6  -7    6.73    1.36
   1   6   7    5.85    0.99
  -1   6  -7    5.93    0.79
  -1  -6   7    6.37    1.00
  -1   6  -7    6.12    0.96
  -1  -6   7    6.55    1.19
   1  -6  -7    4.96    0.92
  -1   6   7    5.89    1.04
   1  -6   7    5.20    1.22
  -1  -6  -7    4.30    0.76
   1  -6   7    5.90    1.03
   1   6  -7    6.10    0.80
   1   6  -7    5.70    1.05
  -1  -6  -7    6.01    0.98
   1  -7  -7    0.17    0.99
   1   7   7   -0.25    1.08
  -1  -7   7   -0.09    1.23
  -1  -7   7   -0.51    0.99
   1  -7  -7   -0.16    1.01
  -1   7  -7   -1.37    1.10
  -1   7   7    1.37    1.14
   1  -7   7    0.74    1.48
   1  -7   7   -0.26    0.97
   1   7  -7    0.67    1.21
  -1  -7  -7    0.20    0.68
  -1  -7  -7    1.10    1.10
  -2   0   7    2.47    0.37
  -2   0   7    3.19    0.28
   2   0   7    2.88    0.55
   2   0  -7    3.04    0.34
   2   0  -7    2.79    0.39
  -2   0   7    2.39    0.46
   2   0  -7    2.58    0.38
  -2   0  -7    2.94    0.33
   2   0   7    3.28    0.39
  -2   0  -7    2.32    0.44
  -2   0  -7    3.23    0.43
   2   0  -7    3.04    0.49
  -2   0   7    3.57    0.37
   2  -1  -7    0.40    0.35
  -2  -1   7    1.05    0.40
   2   1   7    0.67    0.45
   2   1   7    0.54    0.24
   2  -1  -7    0.93    0.30
  -2  -1   7    0.70    0.16
   2   1   7    0.58    0.07
  -2  -1   7    1.07    0.28
  -2   1  -7    0.70    0.34
   2  -1  -7    0.84    0.42
   2  -1  -7    0.74    0.34
   2   1   7    0.41    0.07
  -2   1  -7    0.13    0.31
  -2  -1   7    0.78    0.23
  -2  -1  -7    0.36    0.18
  -2  -1  -7    0.29    0.32
   2  -1   7    0.62    0.27
   2   1  -7    0.56    0.27
  -2   1   7   -0.03    0.26
  -2  -1  -7    0.65    0.28
   2   1  -7    0.06    0.31
   2   1  -7    0.63    0.26
  -2   1   7    0.74    0.18
   2   1  -7    0.32    0.42
   2  -1   7    0.49    0.37
  -2   1   7    0.42    0.26
  -2  -2   7    1.50    0.44
   2  -2  -7    1.60    0.45
  -2  -2   7    1.88    0.26
  -2   2  -7    1.23    0.37
   2  -2  -7    1.25    0.40
  -2   2  -7    1.64    0.14
  -2   2  -7    1.60    0.46
   2  -2  -7    2.10    0.45
  -2   2  -7    1.56    0.13
   2   2   7    1.39    0.22
  -2  -2   7    1.26    0.45
   2   2   7    1.35    0.27
   2   2   7    1.51    0.20
  -2  -2   7    1.77    0.50
  -2   2  -7    1.28    0.43
  -2  -2  -7    1.38    0.23
   2   2  -7    1.41    0.41
  -2   2   7    2.04    0.36
   2  -2   7    1.30    0.35
  -2   2   7    1.37    0.33
   2  -2   7    1.37    0.49
  -2  -2  -7    1.19    0.38
  -2  -2  -7    1.33    0.30
   2   2  -7    1.81    0.42
   2   3   7    2.99    0.31
  -2   3  -7    2.72    0.53
  -2  -3   7    3.21    0.51
  -2   3  -7    3.41    0.66
   2  -3  -7    3.23    0.56
   2  -3  -7    2.67    0.52
  -2  -3   7    3.72    0.66
   2  -3  -7    3.50    0.60
  -2   3  -7    3.07    0.29
   2   3   7    2.42    0.35
  -2  -3   7    3.89    0.64
  -2   3  -7    2.18    0.53
   2  -3  -7    2.89    0.48
  -2   3  -7    3.05    0.32
  -2  -3  -7    2.86    0.38
   2   3  -7    3.21    0.54
   2  -3   7    3.87    0.69
   2   3  -7    3.06    0.52
  -2   3   7    2.93    0.44
   2  -3   7    3.01    0.49
  -2  -3  -7    2.56    0.45
  -2   3   7    2.70    0.44
  -2  -3  -7    3.82    0.36
  -2   4  -7    2.65    0.47
  -2   4  -7    3.13    0.58
   2   4   7    2.42    0.53
  -2   4  -7    2.33    0.82
   2  -4  -7    2.47    0.61
   2  -4  -7    2.41    0.47
  -2  -4   7    2.46    0.73
  -2  -4   7    2.91    0.58
   2  -4  -7    2.90    0.59
  -2  -4  -7    2.53    0.44
   2   4  -7    2.70    0.63
   2  -4   7    2.92    0.54
  -2   4   7    2.58    0.51
  -2  -4  -7    2.84    0.41
   2  -4   7    2.82    0.67
  -2  -4  -7    3.35    0.50
   2   4  -7    1.65    0.56
   2   4  -7    3.15    0.61
  -2   4   7    3.36    0.63
   2   5   7    0.43    0.60
  -2  -5   7   -0.06    0.76
   2  -5  -7   -0.41    0.60
  -2   5  -7    0.41    0.56
  -2   5  -7    0.33    0.55
   2  -5  -7    0.75    0.30
  -2  -5   7    0.69    0.60
  -2   5  -7    1.05    0.87
   2  -5  -7    0.42    0.68
  -2  -5  -7    0.38    0.37
   2   5  -7   -1.32    0.65
   2  -5   7    0.45    0.92
   2   5  -7    0.95    0.59
  -2  -5  -7    0.62    0.45
   2   5  -7    1.11    0.62
   2  -5   7    0.94    0.58
  -2  -5  -7    1.10    0.65
  -2   5   7    0.64    0.63
  -2  -5  -7    0.38    0.28
   2  -6  -7    1.63    0.90
  -2  -6   7    1.10    0.80
  -2   6  -7    1.38    0.71
  -2   6  -7    2.13    0.82
   2   6   7    1.21    0.87
   2  -6  -7    1.93    0.84
  -2  -6   7    2.49    1.01
  -2   6  -7    1.66    1.26
  -2  -6  -7   -0.28    0.60
  -2   6   7   -0.82    0.78
  -2  -6  -7   -0.67    0.84
   2  -6   7    1.59    0.88
   2   6  -7    1.54    0.96
   2  -6   7    0.91    1.29
  -2  -6  -7    1.03    0.50
   2   6  -7    1.36    0.69
   2  -7  -7    1.28    1.14
  -2   7  -7    1.57    1.17
   2   7   7    1.08    1.13
   2  -7  -7    0.74    1.06
  -2  -7   7    2.69    1.13
  -2  -7   7    0.84    1.30
  -2   7   7    1.71    1.14
   2   7  -7    2.58    1.18
  -2  -7  -7    1.04    0.63
   2  -7   7    2.53    1.16
   2  -7   7    2.12    1.78
  -2  -7  -7    1.63    1.13
  -3   0   7  151.24    3.89
   3   0   7  159.47    4.31
  -3   0  -7  155.88    4.17
  -3   0   7  152.81    3.80
  -3   0  -7  155.02    3.92
  -3   0   7  154.57    4.39
   3   0  -7  156.66    4.37
  -3   0   7  159.47    3.72
   3   0  -7  151.39    3.92
   3   0   7  157.30    4.15
  -3   0   7  155.81    4.37
  -3   0  -7  152.06    4.10
   3   0  -7  156.21    4.38
   3   1   7   10.03    0.58
  -3  -1   7    9.41    0.52
   3  -1  -7   10.96    0.90
  -3  -1   7    9.17    0.82
   3  -1  -7   10.34    0.87
  -3   1  -7    9.21    0.76
   3   1   7   10.17    0.89
  -3  -1   7    9.24    0.61
  -3  -1   7    9.27    0.90
   3  -1  -7    9.71    0.73
  -3   1  -7    8.42    0.72
   3   1   7    8.98    0.32
  -3   1  -7    8.64    0.59
   3   1   7    9.60    0.33
   3   1  -7    9.21    0.70
   3   1  -7    9.64    0.74
  -3  -1  -7   10.13    0.74
  -3  -1  -7    9.69    0.60
   3  -1   7    9.86    0.92
   3  -1   7    9.93    0.67
  -3   1   7    8.17    0.66
  -3   1   7    9.87    0.64
  -3   1   7    7.75    0.56
  -3  -1  -7    8.42    0.48
  -3   2  -7  128.85    3.87
  -3   2  -7  136.94    3.00
   3   2   7  137.70    3.19
  -3  -2   7  136.99    4.03
  -3   2  -7  139.54    3.60
   3   2   7  132.94    3.15
  -3   2  -7  137.28    3.96
   3  -2  -7  143.23    3.55
  -3  -2   7  138.66    4.04
  -3  -2   7  143.96    3.51
   3  -2  -7  137.56    4.02
  -3  -2   7  135.48    3.38
   3  -2  -7  135.71    4.04
   3  -2   7  136.34    3.88
  -3  -2  -7  140.98    3.51
   3   2  -7  133.82    3.94
   3  -2   7  133.06    3.92
  -3   2   7  134.37    3.96
  -3  -2  -7  139.05    3.53
   3   2  -7  138.92    3.61
  -3   2   7  139.12    3.44
  -3  -2  -7  137.65    3.56
   3   3   7    3.99    0.53
   3  -3  -7    3.27    0.67
  -3  -3   7    3.75    0.68
   3  -3  -7    3.92    0.56
  -3   3  -7    2.64    0.54
  -3   3  -7    3.56    0.70
  -3   3  -7    3.09    0.60
  -3   3  -7    3.62    0.32
  -3  -3   7    4.11    0.55
   3  -3  -7    2.85    0.69
  -3  -3   7    2.73    0.63
   3  -3   7    3.86    0.57
   3   3  -7    3.42    0.56
  -3   3   7    3.72    0.55
  -3  -3  -7    3.36    0.51
   3  -3   7    3.28    0.69
  -3   3   7    4.03    0.52
  -3  -3  -7    3.68    0.39
  -3  -3  -7    4.21    0.40
   3   3  -7    3.34    0.62
   3  -4  -7   49.23    2.08
   3   4   7   45.52    1.66
   3  -4  -7   47.87    1.60
   3  -4  -7   47.54    1.76
  -3   4  -7   50.10    2.16
  -3  -4   7   48.56    1.72
  -3   4  -7   45.65    1.70
  -3   4  -7   45.60    1.48
  -3   4   7   46.42    1.77
  -3  -4  -7   47.24    1.34
   3   4  -7   44.70    1.65
  -3  -4  -7   45.61    1.53
  -3  -4  -7   46.68    1.33
   3   4  -7   41.81    1.85
  -3   4   7   43.65    1.89
   3  -4   7   45.27    1.99
   3  -4   7   45.83    1.92
   3  -5  -7    5.94    1.08
   3  -5  -7    5.28    0.68
  -3   5  -7    7.10    1.25
  -3   5  -7    6.09    0.78
  -3  -5   7    5.68    1.02
   3   5   7    6.79    0.91
  -3  -5   7    5.94    0.86
   3  -5  -7    5.48    0.91
  -3   5  -7    5.16    0.78
  -3  -5  -7    6.18    0.46
   3   5  -7    7.10    0.87
  -3  -5  -7    7.10    0.51
   3  -5   7    5.56    1.30
  -3   5   7    7.35    0.96
   3  -5   7    6.46    0.91
   3   5  -7    6.32    0.97
  -3  -6   7   21.92    1.58
   3  -6  -7   18.57    1.95
  -3   6  -7   20.76    2.19
  -3   6  -7   19.87    1.49
   3   6   7   17.02    1.55
  -3   6  -7   19.77    1.41
   3  -6  -7   18.10    1.61
  -3  -6   7   18.28    2.00
  -3  -6  -7   18.21    0.67
  -3   6   7   17.16    1.52
   3  -6   7   19.60    1.55
  -3  -6  -7   15.86    1.56
   3   6  -7   19.14    1.45
  -3  -6  -7   19.21    0.72
   3   6  -7   17.97    1.69
   3  -6   7   20.49    2.29
  -3  -7   7    1.18    1.13
  -3  -7   7    0.34    1.37
  -3   7  -7   -1.78    1.16
   3  -7  -7   -0.21    1.16
   3   7   7    0.00    1.26
   3  -7  -7   -0.52    1.32
   3  -7   7    0.82    1.11
   3   7  -7   -0.40    1.29
  -3   7   7    0.34    1.18
  -3  -7  -7    0.06    1.11
  -4   0   7    0.58    0.37
  -4   0   7    1.13    0.52
  -4   0   7    0.02    0.46
   4   0   7   -0.32    0.47
  -4   0  -7    0.04    0.35
  -4   0  -7    0.15    0.20
   4   0  -7   -0.05    0.36
   4   0   7    0.11    0.11
   4   0   7    0.78    0.31
  -4   0  -7    0.16    0.31
   4   0   7    0.27    0.12
  -4   0   7    0.21    0.25
  -4   0   7    0.28    0.20
   4   0  -7    0.28    0.34
  -4  -1   7    8.48    0.95
  -4  -1   7    9.02    0.45
  -4  -1   7    7.32    0.51
   4  -1  -7    9.78    0.77
   4  -1  -7    7.54    0.77
  -4   1  -7    7.44    0.58
   4   1   7    7.85    0.94
  -4  -1   7    7.69    0.64
   4   1   7    8.10    0.39
  -4   1  -7    8.76    0.81
   4   1   7    8.87    0.41
  -4  -1   7    8.27    0.94
  -4   1  -7    7.85    0.26
  -4   1  -7    8.02    0.74
  -4  -1  -7    8.03    0.79
  -4   1   7    7.82    0.54
   4  -1   7    6.94    0.82
   4   1  -7    9.99    0.83
  -4   1   7    8.84    0.96
   4  -1   7    8.85    0.69
   4   1  -7    8.53    0.76
   4  -1   7    8.66    0.31
  -4   1   7    5.89    0.55
  -4  -1  -7    8.10    0.54
  -4   1   7    7.84    0.69
   4   2   7    0.12    0.22
   4   2   7   -0.26    0.55
  -4  -2   7   -0.33    0.36
  -4   2  -7   -0.70    0.43
   4  -2  -7    0.30    0.59
  -4  -2   7    0.04    0.50
  -4  -2   7    0.02    0.52
  -4   2  -7    0.27    0.38
  -4   2  -7    0.31    0.15
   4   2   7   -0.01    0.30
   4  -2  -7    0.35    0.44
  -4   2  -7    0.19    0.42
  -4  -2   7   -0.24    0.21
   4  -2   7   -0.33    0.41
   4   2  -7    0.28    0.38
  -4   2   7    0.38    0.57
   4   2  -7    0.29    0.47
   4  -2   7    0.47    0.50
  -4  -2  -7    0.07    0.14
  -4   2   7   -0.18    0.38
   4  -2   7    0.27    0.23
  -4  -2  -7    0.10    0.39
  -4  -2  -7    0.13    0.15
  -4   3  -7   13.73    1.19
  -4  -3   7   14.28    1.15
   4  -3  -7   13.85    1.01
  -4  -3   7   13.81    1.00
  -4  -3   7   13.80    0.84
  -4   3  -7   15.10    1.03
  -4   3  -7   13.06    0.57
   4   3   7   14.75    0.95
   4  -3  -7   13.66    1.21
   4  -3   7   15.97    1.28
   4  -3   7   15.63    1.07
  -4  -3  -7   14.95    0.98
  -4   3   7   13.99    1.01
  -4   3   7   16.05    0.98
   4   3  -7   14.38    1.05
   4   3  -7   14.26    1.02
  -4  -4   7    1.23    0.53
   4   4   7    1.01    0.64
   4  -4  -7    0.47    0.57
   4  -4  -7    0.57    0.52
  -4  -4   7   -0.14    0.60
   4  -4  -7    1.53    0.72
  -4   4  -7    1.16    0.59
  -4   4  -7    0.94    0.75
  -4   4  -7    1.44    0.49
  -4  -4  -7    0.81    0.54
  -4   4   7    0.17    0.57
   4  -4   7    0.81    0.61
   4  -4   7    0.65    0.65
   4   4  -7    0.16    0.55
  -4   4   7    1.49    0.61
   4  -5  -7    1.86    0.97
  -4  -5   7    2.51    0.75
   4   5   7    1.31    0.79
  -4   5  -7    3.07    0.72
  -4  -5   7    1.54    0.90
  -4   5  -7    2.47    0.99
   4  -5  -7    2.07    0.74
  -4   5  -7    2.27    0.74
   4  -5  -7    3.15    0.66
   4   5  -7    3.92    1.08
  -4   5   7    1.97    0.84
   4  -5   7    3.03    0.90
   4   5  -7    1.73    0.69
  -4  -6   7    0.46    1.06
  -4   6  -7    1.30    1.37
   4  -6  -7   -0.27    1.14
  -4   6  -7    0.10    0.89
  -4  -6   7    0.11    0.92
   4   6   7   -0.56    1.01
  -4   6  -7   -0.40    0.86
   4  -6  -7   -0.30    0.95
  -4   6   7   -1.67    0.98
   4   6  -7    0.39    0.93
   4   6  -7    0.38    1.10
   4  -6   7    1.58    0.98
   5   0   7   58.64    1.97
   5   0  -7   65.15    2.29
   5   0   7   65.88    2.35
  -5   0   7   64.84    1.59
  -5   0   7   65.44    2.05
  -5   0  -7   64.83    1.98
  -5   0   7   64.61    2.39
   5   0   7   65.19    1.61
  -5   0  -7   65.33    2.17
   5   0  -7   67.67    2.23
  -5   0   7   65.41    1.60
  -5   0  -7   66.23    1.94
  -5   1  -7   85.52    2.51
   5  -1  -7   86.23    2.79
  -5   1  -7   79.61    2.52
  -5   1  -7   84.02    1.96
  -5  -1   7   82.14    1.98
   5   1   7   84.70    2.87
  -5   1  -7   81.53    2.56
  -5  -1   7   85.01    2.85
   5  -1  -7   83.39    2.56
  -5  -1   7   80.99    2.41
  -5   1   7   82.56    2.89
  -5   1   7   81.04    2.41
  -5  -1  -7   83.44    2.20
   5   1  -7   82.70    2.72
  -5  -1  -7   78.31    2.49
  -5  -1  -7   84.49    2.20
   5   1  -7   78.54    2.54
   5  -1   7   86.00    2.80
  -5   1   7   82.04    2.13
   5  -1   7   77.95    2.54
  -5  -2   7   39.91    1.11
  -5  -2   7   41.13    1.83
  -5   2  -7   41.38    1.71
   5  -2  -7   39.49    1.61
  -5   2  -7   38.45    1.09
  -5   2  -7   37.12    1.55
   5   2   7   40.37    1.36
   5   2   7   41.25    1.97
  -5   2  -7   40.20    1.69
   5  -2  -7   39.07    1.97
  -5  -2   7   40.30    1.58
  -5   2   7   42.26    1.66
   5   2  -7   38.26    1.67
   5  -2   7   40.03    1.79
   5   2  -7   39.88    1.63
  -5  -2  -7   41.49    1.55
  -5   2   7   37.64    1.33
  -5   2   7   42.40    1.96
   5  -3  -7   54.46    2.38
  -5  -3   7   50.95    1.46
  -5  -3   7   50.48    1.82
  -5   3  -7   41.95    1.40
   5   3   7   49.18    1.76
   5  -3  -7   51.64    1.89
   5   3   7   54.45    2.37
  -5  -3   7   50.54    2.12
  -5   3  -7   51.42    1.95
  -5   3  -7   49.19    2.10
  -5   3   7   50.86    2.31
   5   3  -7   50.88    1.98
  -5   3   7   53.41    1.97
  -5  -3  -7   51.91    1.85
   5  -3   7   53.66    2.18
  -5   4  -7   34.24    1.44
  -5  -4   7   34.77    1.42
   5  -4  -7   35.92    1.60
   5   4   7   35.23    1.70
  -5   4  -7   34.82    1.95
   5  -4  -7   35.58    1.54
  -5  -4   7   33.60    1.84
   5  -4  -7   35.37    2.09
  -5   4  -7   32.82    1.55
  -5   4   7   36.12    2.26
  -5   4   7   34.02    1.68
   5   4  -7   35.90    1.73
   5  -4   7   35.86    1.78
   5  -5  -7   42.63    1.87
  -5   5  -7   39.73    1.74
  -5  -5   7   37.05    1.77
  -5   5  -7   41.63    2.50
   5  -5  -7   38.77    1.80
   5   5   7   37.32    1.99
   5  -5  -7   35.46    2.39
  -5   5  -7   37.36    1.87
  -5  -5   7   38.02    2.22
   5   5  -7   40.04    1.95
  -5   5   7   34.86    1.92
   5  -5   7   38.85    2.07
  -5  -6   7   11.10    1.46
   5  -6  -7   11.46    1.43
  -5   6  -7   13.19    1.92
   5  -6  -7   11.36    1.83
   5   6   7   12.74    1.53
  -5   6   7   13.95    1.44
   5   6  -7   12.37    1.69
   5  -6   7   12.54    1.47
   5   6  -7   11.27    1.35
   6   0  -7   24.75    1.43
   6   0  -7   23.59    1.34
   6   0   7   24.22    1.47
  -6   0   7   24.68    1.34
  -6   0   7   26.15    1.58
  -6   0  -7   24.66    1.02
  -6   0  -7   23.78    0.82
  -6   0  -7   23.83    1.35
  -6   0  -7   24.50    1.06
   6  -1  -7    2.00    0.65
  -6   1  -7    2.50    0.51
   6  -1  -7    2.66    0.63
  -6   1  -7    2.51    0.43
   6   1   7    0.91    0.75
  -6  -1   7    1.94    0.70
  -6  -1   7    1.93    0.60
  -6   1  -7    2.43    0.69
  -6   1  -7    2.68    0.29
   6   1  -7    2.43    0.60
  -6   1   7    2.12    0.76
   6  -1   7    2.13    0.78
   6   1  -7    1.29    0.64
  -6  -1  -7    2.69    0.62
  -6   1   7    2.37    0.65
  -6   2  -7   14.48    1.13
   6   2   7   13.77    1.39
  -6   2  -7   12.77    1.14
   6  -2  -7   13.73    1.62
   6   2   7   15.41    1.08
  -6  -2   7   14.44    1.29
   6  -2  -7   14.00    1.21
  -6   2  -7   11.85    0.65
  -6  -2   7   12.76    1.13
  -6   2   7   13.32    1.37
  -6   2   7   12.07    1.09
  -6  -2  -7   15.00    1.10
   6   2  -7   13.71    1.17
   6  -2   7   16.48    1.36
  -6   3  -7    1.12    0.77
  -6  -3   7    0.41    0.71
   6  -3  -7   -0.13    0.98
   6   3   7    1.77    1.04
  -6   3  -7    0.45    0.53
   6   3   7    0.62    0.65
  -6  -3   7    0.74    0.61
  -6   3  -7    1.64    0.68
   6  -3  -7   -0.19    0.62
  -6   3   7   -0.74    0.84
   6   3  -7    0.22    0.66
  -6   3   7    0.13    0.65
   6  -3   7    0.68    0.72
  -6   4  -7   14.45    1.42
  -6   4  -7   13.08    1.25
  -6   4  -7   14.75    1.66
   6   4   7   13.57    1.29
   6   4   7   16.26    1.77
   6  -4  -7   15.25    1.41
  -6  -4   7   15.20    1.41
   6  -4  -7   12.77    1.64
  -6   4   7   13.95    1.70
   6  -4   7   12.86    1.34
   6   4  -7   14.56    1.43
  -6   4   7   12.95    1.29
  -6  -5   7    1.85    0.98
   6   5   7    1.77    1.11
   6   5   7    4.53    1.20
   6  -5  -7    2.31    1.42
   6  -5  -7    2.26    1.02
  -6   5  -7    0.82    1.22
   6  -5  -7    2.40    0.97
  -6   5   7    2.46    1.09
   6  -5   7    1.83    1.03
   6   5  -7    2.37    1.02
   7   0  -7   12.10    1.30
  -7   0  -7   12.21    0.74
  -7   0  -7   13.81    1.33
  -7   0  -7   11.44    0.81
   7   0   7   12.30    1.22
  -7   0   7   10.35    1.05
  -7   0   7   12.22    1.30
  -7   0  -7   12.76    0.89
  -7   1  -7    0.01    0.63
  -7  -1   7    0.25    0.73
   7   1   7   -0.52    0.83
   7  -1  -7    0.26    0.72
  -7   1  -7    0.87    0.66
  -7   1  -7    0.16    0.45
  -7  -1   7    0.85    0.64
  -7   1  -7   -0.39    0.50
   7   1  -7    0.88    0.67
  -7   1   7    0.88    0.71
  -7  -1  -7    0.68    0.65
   7  -1   7   -0.12    0.70
  -7   1   7    0.99    0.86
   7   2   7    6.24    1.14
  -7   2  -7    6.85    1.00
  -7   2  -7    6.35    0.88
  -7  -2   7    6.69    0.95
  -7  -2   7    5.42    0.98
  -7   2  -7    5.45    0.70
   7  -2  -7    6.31    1.01
  -7   2   7    6.03    1.17
   7   2  -7    6.69    1.02
   7  -2   7    5.41    1.04
  -7   2   7    5.88    0.92
  -7  -3   7    0.57    0.73
   7   3   7    1.34    1.10
   7   3   7    0.53    0.91
   7  -3  -7    1.07    0.87
  -7   3  -7    1.52    0.89
  -7   3  -7    0.79    0.71
  -7  -3   7   -0.50    0.74
  -7   3   7   -0.46    0.83
   7   3  -7    0.45    0.88
  -7   3   7    1.21    1.24
   7  -3   7   -0.95    0.88
  -7  -4   7    4.97    1.07
   7   4   7   10.30    1.62
  -7   4  -7    8.01    1.30
  -7  -4   7    6.58    1.01
   7  -4  -7    5.81    1.13
   7   4   7    6.13    1.23
   7  -4   7    6.71    1.23
  -7   4   7    5.13    1.29
  -7   4   7    6.65    1.63
   7   4  -7    6.38    1.19
   8   0  -7    0.84    0.82
  -8   0  -7    1.22    0.37
   8   0   7   -0.26    0.92
  -8   0   7   -0.44    0.86
  -8   0   7    0.33    1.03
  -8   0  -7    0.27    0.35
  -8   1  -7   -0.57    0.51
  -8  -1   7   -0.51    0.82
   8   1   7    0.10    1.05
  -8  -1   7    0.67    0.87
   8  -1  -7   -0.72    0.81
   8   1  -7   -0.57    0.78
  -8   1   7    1.33    1.05
   8  -1   7    2.11    0.97
  -8   1   7    0.71    0.80
  -8  -2   7   -0.10    0.86
   8   2   7   -1.08    1.06
  -8   2  -7    0.29    0.65
  -8  -2   7    0.53    0.82
   8  -2  -7    0.14    0.87
   8   2  -7   -0.32    1.00
   8  -2   7    0.46    1.01
  -8   2   7   -0.45    0.92
  -8   2   7    1.24    1.12
  -8  -3   7   -0.27    0.93
   8   3   7    2.21    1.41
  -8  -3   7    0.59    0.87
   8  -3  -7   -0.07    1.12
  -8   3  -7    0.56    0.88
   8   3   7    0.49    1.19
  -8   3   7   -0.21    1.41
   8   3  -7    1.22    1.12
  -8   3   7    0.03    0.98
   8  -3   7    0.77    1.04
   9   0   7   99.23    3.58
  -9   0   7   97.26    3.81
  -9   0   7   96.70    3.42
   9   0  -7   98.77    3.55
  -9  -1   7    0.80    1.11
   9   1   7   -0.20    1.36
  -9   1  -7    0.83    0.59
   9  -1  -7    1.32    1.10
  -9  -1   7    1.53    1.12
   9   1  -7    0.90    1.03
  -9   1   7    1.46    1.10
  -9   1   7    0.99    1.23
   9  -1   7    0.27    1.31
   9  -2  -7   75.86    3.16
   9   2  -7   76.22    3.30
   0   0  -8  402.37   10.71
   0   0  -8  421.62    9.68
   0   0  -8  432.69    8.99
   0   0   8  434.58    8.99
   0   0  -8  438.91   10.78
   0   0   8  427.36   10.74
   0   0   8  421.10   10.25
   0  -1  -8    0.01    0.17
   0  -1   8    0.39    0.40
   0   1   8    0.11    0.46
   0  -1   8    0.27    0.27
   0   1  -8   -0.08    0.07
   0   1  -8    0.38    0.39
   0   1  -8   -0.01    0.07
   0   1  -8   -0.12    0.38
   0   1   8   -0.33    0.28
   0   1   8    0.01    0.12
   0  -1  -8   -0.25    0.37
   0  -1  -8    0.38    0.35
   0   1  -8   -0.35    0.36
   0   2  -8  184.67    5.07
   0  -2  -8  175.52    4.87
   0   2  -8  182.81    4.51
   0  -2  -8  181.94    4.86
   0   2  -8  178.03    3.95
   0   2   8  185.96    4.09
   0  -2   8  178.14    4.96
   0  -2   8  177.18    4.73
   0   2  -8  180.59    3.98
   0   2  -8  176.14    5.01
   0  -2  -8  179.30    4.15
   0  -2  -8  179.29    4.40
   0   2   8  175.29    4.84
   0  -3   8   -0.32    0.50
   0  -3   8   -0.42    0.39
   0   3   8   -0.19    0.36
   0   3  -8   -0.34    0.31
   0   3  -8   -0.18    0.58
   0  -3  -8    0.09    0.39
   0   3  -8   -0.12    0.43
   0   3  -8    0.05    0.21
   0  -3  -8   -0.44    0.32
   0  -3  -8   -0.05    0.40
   0   3   8   -0.42    0.38
   0   4  -8  142.53    3.55
   0  -4  -8  142.18    3.56
   0  -4   8  137.01    4.03
   0  -4   8  146.60    4.48
   0   4  -8  143.51    4.44
   0   4   8  147.40    3.66
   0   4  -8  141.68    3.78
   0  -4  -8  138.58    4.03
   0  -4  -8  146.10    4.13
   0   5   8   -0.15    0.66
   0  -5   8    0.23    0.87
   0   5  -8    0.04    0.58
   0  -5  -8    0.24    0.64
   0  -5   8   -0.24    0.59
   0   5  -8   -0.94    0.89
   0   5  -8   -0.17    0.68
   0  -5  -8   -0.54    0.50
   0  -5  -8   -0.58    0.55
   0  -6  -8   34.66    1.78
   0   6   8   37.86    1.96
   0  -6   8   32.19    1.88
   0  -6   8   32.57    2.40
   0   6  -8   33.73    1.72
   0  -7  -8   -1.29    0.84
   0  -7   8    0.80    1.18
   0  -7   8   -2.02    1.45
   0   7   8    0.51    1.21
   0  -7  -8    0.07    1.12
   0   7  -8    1.05    1.27
   1   0  -8    2.48    0.24
  -1   0   8    2.37    0.53
  -1   0  -8    2.16    0.45
   1   0  -8    2.30    0.51
  -1   0   8    2.79    0.23
   1   0   8    1.96    0.53
  -1   0   8    2.36    0.37
   1   0  -8    2.78    0.44
  -1   0  -8    2.46    0.46
   1   0   8    2.11    0.31
   1   0  -8    2.52    0.48
   1   1   8   39.90    1.70
   1   1   8   38.06    0.86
  -1   1  -8   39.97    1.59
   1  -1  -8   38.50    1.46
   1   1   8   38.68    0.86
  -1  -1   8   38.85    1.49
  -1  -1   8   37.22    1.50
  -1   1  -8   39.26    1.43
  -1   1  -8   39.28    1.49
   1  -1  -8   37.77    1.13
   1  -1  -8   38.66    1.56
   1  -1  -8   37.72    1.39
   1   1   8   37.10    1.37
  -1  -1   8   39.04    1.02
  -1  -1  -8   37.20    1.35
   1   1  -8   38.03    1.04
  -1   1   8   38.64    1.08
   1   1  -8   40.14    1.62
   1   1  -8   38.88    1.43
  -1  -1  -8   37.46    1.38
  -1   1   8   37.29    1.57
  -1  -1  -8   38.15    1.45
   1  -1   8   37.40    1.56
  -1   1   8   40.42    1.49
   1   1  -8   38.18    1.55
   1  -1   8   39.06    1.46
   1   2   8   10.74    0.49
   1  -2  -8   10.36    0.80
   1   2   8   11.84    0.71
   1  -2  -8   11.45    0.91
  -1   2  -8   10.77    0.83
   1  -2  -8   10.83    0.83
  -1  -2   8   12.78    0.79
   1   2   8   11.53    0.46
  -1   2  -8   10.45    0.96
  -1  -2   8   11.16    0.82
  -1   2  -8   11.42    0.90
   1  -2   8    9.95    0.89
   1  -2   8   10.66    0.77
   1   2  -8   10.81    0.87
  -1  -2  -8   11.16    0.66
  -1  -2  -8   12.10    0.78
  -1  -2  -8   10.64    0.75
   1   2  -8   10.55    0.99
   1   2  -8    9.84    1.05
  -1   2   8   10.60    0.75
  -1   2   8    9.87    0.50
   1   2  -8   10.04    0.55
  -1  -3   8   23.27    1.40
  -1   3  -8   23.94    0.76
   1  -3  -8   24.16    1.08
   1  -3  -8   23.49    1.25
   1   3   8   22.38    1.07
  -1   3  -8   24.63    1.17
  -1  -3   8   24.21    1.19
  -1   3  -8   23.11    1.39
  -1   3  -8   22.61    1.39
  -1   3  -8   23.51    0.77
  -1   3   8   25.48    1.05
   1   3  -8   26.42    0.93
   1   3  -8   24.52    1.20
  -1   3   8   23.55    1.12
  -1  -3  -8   24.32    1.09
  -1  -3  -8   23.37    1.03
  -1  -3  -8   23.73    1.11
   1   3  -8   24.57    1.47
   1  -3   8   24.45    1.33
   1  -3   8   22.78    1.18
   1   4   8    1.55    0.55
   1  -4  -8    0.95    0.58
  -1  -4   8    1.61    0.64
  -1   4  -8    2.04    0.49
   1  -4  -8    1.51    0.50
  -1   4  -8    0.41    0.54
  -1  -4   8    1.96    0.77
  -1   4  -8    1.65    0.78
  -1  -4  -8    1.48    0.49
   1  -4   8    1.13    0.55
   1   4  -8    2.23    0.89
   1   4  -8    1.42    0.60
  -1  -4  -8    2.22    0.50
  -1  -4  -8    2.02    0.36
   1   4  -8    1.71    0.56
  -1   4   8    1.22    0.54
   1  -4   8    0.87    0.81
  -1  -5   8   10.15    1.07
  -1   5  -8   10.09    1.02
   1  -5  -8    9.45    0.93
  -1   5  -8    7.89    0.88
   1  -5  -8    9.25    1.03
  -1   5  -8    8.67    1.29
   1  -5  -8   11.08    1.14
   1   5   8   10.54    1.01
  -1  -5   8   12.57    1.42
   1  -5   8   10.28    1.32
  -1   5   8    9.57    0.99
   1   5  -8    8.08    0.85
  -1  -5  -8   10.33    0.89
   1  -5   8   11.13    1.12
  -1  -5  -8   10.53    0.97
   1   5  -8    9.77    1.40
   1   5  -8   11.53    1.07
  -1  -5  -8    9.46    1.07
  -1   6  -8    6.73    1.55
  -1  -6   8    7.94    1.13
  -1  -6   8    7.00    1.43
   1  -6  -8    5.03    1.01
  -1   6  -8    6.32    0.95
   1  -6  -8    6.98    1.03
   1   6   8    5.99    1.10
  -1   6  -8    5.06    1.02
  -1   6   8    5.79    1.09
   1  -6   8    6.91    1.17
   1   6  -8    5.26    0.95
   1  -6   8    8.22    1.55
   1   6  -8    7.32    1.13
  -1  -6  -8    6.68    1.12
  -1  -6  -8    4.99    0.79
   1  -7  -8    5.27    1.26
   1   7   8    3.06    1.26
  -1  -7   8    4.76    1.17
  -1  -7   8    4.19    1.71
  -1   7  -8    2.03    1.17
   1  -7  -8    4.22    1.14
   1   7  -8    4.54    1.32
  -1   7   8    2.74    1.31
  -1  -7  -8    3.52    1.27
   1  -7   8    5.09    1.18
  -1  -7  -8    4.14    0.88
   1  -7   8    4.31    1.82
   2   0   8    1.10    0.31
   2   0  -8    1.59    0.48
  -2   0  -8    1.76    0.47
  -2   0  -8    1.83    0.31
   2   0  -8    1.70    0.34
  -2   0   8    1.84    0.36
  -2   0   8    1.56    0.23
  -2   0   8    1.88    0.45
   2   0   8    1.17    0.49
   2   0  -8    0.46    0.45
  -2   0  -8    1.48    0.39
   2   0  -8    1.10    0.49
  -2   1  -8   30.42    1.35
   2  -1  -8   30.95    1.47
  -2  -1   8   29.70    1.24
  -2   1  -8   30.24    1.26
   2  -1  -8   31.04    1.38
   2   1   8   28.75    1.12
   2   1   8   31.38    1.51
  -2  -1   8   29.18    1.27
  -2  -1   8   29.76    0.93
   2  -1  -8   28.17    1.24
   2  -1   8   30.14    1.28
  -2  -1  -8   28.71    1.10
  -2   1   8   29.44    0.95
  -2  -1  -8   30.44    1.21
  -2  -1  -8   29.73    1.26
  -2   1   8   31.71    1.37
  -2   1   8   30.29    1.28
   2  -1   8   30.58    1.46
   2   1  -8   28.83    1.41
   2   1  -8   28.56    1.42
   2   1  -8   29.51    1.28
   2   1  -8   28.49    0.98
  -2   2  -8    7.11    0.76
   2  -2  -8    8.35    0.73
   2   2   8    8.10    0.38
  -2  -2   8    8.60    0.91
  -2  -2   8    8.27    0.79
   2  -2  -8    8.38    0.85
  -2   2  -8    8.38    0.78
   2   2   8    8.14    0.43
  -2  -2   8    8.66    0.86
  -2  -2   8    8.13    0.46
   2   2   8    7.70    0.64
   2  -2  -8    7.42    0.75
  -2   2  -8    7.74    0.86
  -2   2   8    7.60    0.69
   2   2  -8    8.16    0.75
   2   2  -8    8.38    0.83
   2  -2   8    8.54    0.91
  -2  -2  -8    7.48    0.64
  -2  -2  -8    8.01    0.76
  -2  -2  -8    8.59    0.53
  -2   2   8    7.89    0.64
   2  -2   8    7.04    0.70
   2   3   8   17.97    1.02
   2  -3  -8   22.56    1.12
  -2  -3   8   23.48    1.42
  -2   3  -8   22.55    1.42
  -2   3  -8   20.71    0.65
  -2   3  -8   21.25    1.13
  -2  -3   8   22.66    1.18
   2  -3  -8   21.53    1.34
   2   3   8   24.49    0.85
   2  -3  -8   20.50    1.25
  -2  -3  -8   22.04    0.90
   2  -3   8   22.98    1.28
  -2  -3  -8   22.51    0.99
  -2   3   8   22.14    1.16
  -2  -3  -8   22.49    1.08
   2   3  -8   22.80    1.24
   2   3  -8   22.32    1.20
  -2   3   8   21.90    1.04
   2  -3   8   21.34    1.31
   2   4   8    0.66    0.53
  -2  -4   8    0.33    0.73
  -2   4  -8   -0.04    0.75
  -2  -4   8    0.91    0.53
  -2   4  -8    0.72    0.28
  -2   4  -8    0.97    0.53
   2  -4  -8    0.07    0.48
   2  -4  -8    0.33    0.55
   2  -4   8    0.41    0.63
   2   4  -8   -0.06    0.57
   2   4  -8   -0.13    0.55
   2   4  -8    1.06    0.62
  -2   4   8    1.09    0.54
  -2   4   8    0.83    0.51
   2  -4   8    0.71    0.65
  -2  -4  -8    1.68    0.46
  -2  -4  -8    0.69    0.49
  -2  -4  -8    0.62    0.37
   2  -5  -8   10.16    1.06
   2  -5  -8    9.34    0.96
  -2   5  -8   11.62    1.40
  -2  -5   8   11.02    1.32
   2  -5  -8   12.54    1.35
  -2   5  -8   10.83    1.14
  -2  -5   8   11.46    1.17
  -2   5  -8   11.78    1.09
   2   5   8    9.99    0.99
   2   5  -8   12.78    1.16
  -2  -5  -8   11.57    0.87
   2  -5   8   12.08    1.50
  -2   5   8   10.86    1.11
   2   5  -8   11.29    1.15
   2  -5   8   10.34    1.21
  -2  -5  -8   12.19    1.00
  -2  -5  -8   11.73    0.95
  -2  -6   8    0.16    0.89
  -2  -6   8    1.04    1.18
  -2   6  -8    0.42    0.90
  -2   6  -8    1.24    0.82
   2  -6  -8    0.04    0.86
   2   6   8    1.85    0.96
  -2   6  -8   -1.86    1.32
   2  -6  -8    1.46    0.92
  -2  -6  -8    0.02    0.66
   2  -6   8    0.10    1.33
  -2   6   8    2.25    0.99
   2  -6   8    1.59    0.90
   2   6  -8    0.03    1.04
  -2  -6  -8    0.85    0.54
   2   6  -8   -0.57    0.78
   3   0   8   25.11    1.41
  -3   0  -8   23.76    0.99
   3   0   8   23.92    1.08
   3   0  -8   26.06    1.21
  -3   0   8   25.88    1.00
  -3   0  -8   23.06    1.14
   3   0  -8   26.79    1.40
  -3   0   8   26.06    1.23
  -3   0  -8   25.40    1.14
  -3  -1   8   24.15    1.35
   3  -1  -8   23.24    1.33
  -3   1  -8   22.83    1.19
  -3  -1   8   24.34    1.02
  -3  -1   8   21.71    0.94
   3  -1  -8   21.50    1.08
  -3   1  -8   22.19    1.11
   3   1   8   21.78    1.37
  -3  -1   8   17.86    1.23
  -3   1  -8   20.58    0.98
   3  -1  -8   22.71    1.29
  -3   1   8   22.75    1.15
   3   1  -8   22.45    1.13
   3  -1   8   21.87    1.27
  -3  -1  -8   21.93    1.10
  -3  -1  -8   21.08    0.98
   3   1  -8   22.83    1.12
  -3  -1  -8   20.94    0.87
  -3   1   8   21.82    1.12
   3  -1   8   21.29    1.09
  -3   1   8   21.60    0.95
  -3  -2   8   34.78    1.33
  -3   2  -8   34.88    1.57
  -3  -2   8   34.31    1.66
   3  -2  -8   37.52    1.71
  -3   2  -8   32.26    1.42
  -3   2  -8   33.01    1.44
   3   2   8   34.13    1.76
  -3  -2   8   37.16    1.68
   3  -2  -8   35.38    1.44
   3   2   8   33.60    0.96
   3  -2  -8   32.00    1.61
   3   2   8   32.89    0.96
  -3  -2   8   34.19    1.22
  -3  -2  -8   35.34    1.23
   3  -2   8   34.96    1.62
   3   2  -8   36.17    1.53
  -3   2   8   33.63    1.28
  -3   2   8   33.09    1.43
   3  -2   8   34.08    1.48
  -3  -2  -8   36.49    1.43
  -3  -2  -8   36.80    1.21
   3   2  -8   34.84    1.49
  -3  -3   8   16.57    1.26
   3  -3  -8   15.55    1.06
  -3   3  -8   14.18    1.29
  -3   3  -8   13.09    1.02
  -3  -3   8   16.90    1.05
   3  -3  -8   16.24    1.31
   3   3   8   13.41    0.78
  -3   3  -8   14.84    0.51
  -3  -3  -8   14.68    0.72
  -3   3   8   14.04    1.07
  -3  -3  -8   14.67    1.00
  -3   3   8   15.14    1.00
   3  -3   8   13.12    1.15
  -3  -3  -8   16.13    0.74
   3   3  -8   15.59    1.05
   3   3  -8   16.08    1.12
   3  -3   8   14.39    1.11
   3  -4  -8   13.56    1.07
  -3   4  -8   13.15    1.40
   3  -4  -8   14.22    1.36
  -3  -4   8   14.77    1.08
   3   4   8   12.13    1.02
  -3   4  -8   14.15    1.16
  -3   4  -8   11.20    0.61
   3   4  -8   13.79    1.11
  -3  -4  -8   13.07    1.01
   3   4  -8   14.84    1.16
  -3   4   8   11.12    1.06
  -3   4   8   13.66    1.04
   3  -4   8   13.85    1.16
   3   4  -8   11.60    1.23
  -3  -4  -8   14.39    0.68
   3  -4   8   12.32    1.20
  -3  -4  -8   13.38    0.65
  -3   5  -8    9.91    1.45
  -3  -5   8   11.06    1.17
  -3   5  -8    9.33    0.89
   3  -5  -8    9.18    0.87
   3  -5  -8    7.79    1.14
   3   5   8    9.48    1.03
  -3  -5   8    7.40    1.17
   3  -5  -8   10.07    1.12
  -3   5  -8   11.24    1.05
  -3   5   8   10.71    1.14
  -3  -5  -8   10.68    0.58
   3   5  -8    9.75    1.03
   3  -5   8    9.43    1.19
  -3  -5  -8   10.96    1.04
   3  -5   8   10.03    1.64
   3   5  -8   11.03    1.17
  -3  -5  -8    9.18    0.54
   3  -6  -8   14.84    1.62
  -3   6  -8   14.86    1.90
   3   6   8   12.83    1.39
   3  -6  -8   13.64    1.57
  -3  -6   8   12.37    1.29
  -3   6  -8   12.88    1.24
  -3  -6   8   13.38    1.65
   3  -6   8   13.20    1.40
   3   6  -8   12.89    1.22
  -3   6   8   13.88    1.37
   3   6  -8   13.56    1.58
  -4   0   8   25.13    1.09
  -4   0  -8   26.83    1.26
  -4   0   8   27.01    0.96
   4   0   8   24.67    1.13
  -4   0  -8   26.35    1.03
  -4   0  -8   25.84    1.15
   4   0   8   25.06    1.47
  -4   0   8   27.19    1.48
   4   0  -8   27.48    1.33
  -4  -1   8    7.95    0.51
   4   1   8    7.44    1.04
  -4  -1   8    7.74    0.68
   4   1   8    6.69    0.27
   4   1   8    7.34    0.27
  -4   1  -8    7.32    0.64
  -4   1  -8    7.36    0.81
   4  -1  -8    7.32    0.81
  -4  -1   8    6.96    0.93
  -4   1  -8    7.98    0.82
   4  -1  -8    7.44    0.92
   4  -1   8    7.35    0.87
   4   1  -8    7.30    0.81
   4  -1   8    6.95    0.74
   4   1  -8    7.42    0.80
  -4  -1  -8    8.26    0.64
  -4   1   8    6.97    0.56
  -4   1   8    7.11    0.70
  -4   1   8    8.18    0.95
  -4  -1  -8    6.72    0.75
  -4  -1  -8    6.17    0.58
  -4   2  -8    2.42    0.61
   4  -2  -8    2.42    0.60
  -4   2  -8    2.09    0.49
  -4  -2   8    2.00    0.53
  -4   2  -8    1.90    0.54
  -4  -2   8    1.99    0.69
   4   2   8    1.92    0.27
  -4  -2   8    0.83    0.31
   4  -2  -8    1.71    0.70
   4   2   8    2.21    0.71
   4  -2   8    2.32    0.63
   4   2  -8    1.40    0.61
  -4   2   8    2.18    0.57
  -4  -2  -8    2.03    0.29
   4   2  -8    2.24    0.53
   4  -2   8    2.35    0.53
  -4   2   8    2.15    0.62
  -4   2   8    2.40    0.73
  -4  -2  -8    2.42    0.59
  -4  -2  -8    1.93    0.29
   4   3   8    6.75    0.67
  -4   3  -8    7.34    0.95
  -4   3  -8    6.46    0.37
  -4  -3   8    5.72    0.71
  -4  -3   8    6.00    0.87
  -4   3  -8    5.85    0.80
   4  -3  -8    6.99    0.81
  -4  -3   8    5.95    0.65
   4  -3  -8    4.87    0.96
  -4   3   8    6.21    1.06
  -4   3   8    5.57    0.76
   4   3  -8    6.16    0.78
   4   3  -8    6.11    0.82
   4  -3   8    6.49    0.99
   4  -3   8    7.06    0.84
  -4  -3  -8    5.72    0.77
  -4   4  -8   10.80    1.28
  -4  -4   8   12.10    1.39
   4   4   8   13.28    1.16
   4  -4  -8   12.79    1.20
  -4   4  -8   12.24    0.85
   4  -4  -8   13.76    1.57
  -4   4  -8   13.02    1.22
  -4  -4   8   13.88    1.06
  -4   4   8   15.28    1.31
   4  -4   8   12.69    1.32
   4   4  -8   13.06    1.27
  -4  -4  -8   13.25    1.08
  -4  -5   8    2.25    1.06
   4  -5  -8    2.46    0.86
  -4  -5   8    3.49    0.85
   4  -5  -8    5.66    1.17
   4  -5  -8    3.18    0.85
  -4   5  -8    1.95    0.88
   4   5   8    3.95    0.93
  -4   5  -8    3.88    1.21
  -4   5   8    3.41    0.87
   4   5  -8    3.65    1.11
   4  -5   8    3.13    0.97
   4   5  -8    3.26    0.88
   4   6   8    1.00    1.16
  -4  -6   8    0.98    1.32
  -4   6  -8    3.29    1.05
  -4   6  -8   -0.96    1.47
   4  -6  -8    2.74    1.02
  -4  -6   8    1.42    1.04
   4  -6  -8    2.02    1.29
   4   6  -8    1.59    1.05
   4   6  -8    1.63    1.27
   4  -6   8    1.49    1.11
  -4   6   8    0.23    1.00
   5   0   8    3.24    0.77
   5   0  -8    3.60    0.67
   5   0  -8    2.58    0.57
   5   0   8    3.14    0.18
  -5   0   8    2.82    0.77
  -5   0  -8    3.26    0.49
  -5   0  -8    3.55    0.64
  -5   0   8    2.76    0.28
  -5   0  -8    2.77    0.45
  -5   0   8    3.32    0.61
  -5   1  -8    1.07    0.51
  -5  -1   8    1.05    0.67
   5  -1  -8    1.26    0.61
  -5   1  -8    0.35    0.36
   5   1   8    1.13    0.72
  -5   1  -8    0.91    0.60
  -5  -1   8    1.00    0.45
   5  -1  -8    1.05    0.76
  -5  -1   8    0.45    0.21
   5   1   8    0.85    0.22
   5   1  -8    1.27    0.61
   5  -1   8    0.51    0.63
   5   1  -8    0.18    0.53
  -5  -1  -8   -0.04    0.55
  -5   1   8    0.72    0.73
  -5  -1  -8    1.09    0.31
  -5   1   8    1.32    0.60
  -5  -1  -8    0.83    0.28
  -5   1   8    1.98    0.31
   5  -2  -8    4.96    1.02
   5  -2  -8    5.64    0.83
   5   2   8    4.20    0.40
  -5  -2   8    4.96    0.72
   5   2   8    5.79    1.07
  -5   2  -8    3.69    0.70
  -5  -2   8    5.38    0.89
  -5  -2   8    4.33    0.40
  -5   2  -8    4.91    0.78
  -5   2   8    4.66    0.65
  -5   2   8    3.67    0.71
   5   2  -8    3.66    0.76
   5   2  -8    4.69    0.74
  -5  -2  -8    3.41    0.71
  -5   2   8    4.23    0.88
   5  -2   8    6.03    0.90
   5  -3  -8   -0.77    0.89
   5  -3  -8    0.83    0.61
  -5  -3   8    0.18    0.41
   5   3   8   -0.28    0.59
  -5   3  -8    0.24    0.70
  -5  -3   8    1.24    0.65
   5   3   8    1.80    0.94
  -5  -3   8    1.01    0.72
  -5   3  -8    0.97    0.71
  -5   3   8    1.02    0.95
   5  -3   8   -0.34    0.72
  -5   3   8    0.96    0.62
  -5  -3  -8    0.89    0.60
   5   3  -8   -0.48    0.56
   5   4   8    1.78    0.79
  -5   4  -8    1.29    0.81
  -5  -4   8    1.34    0.83
  -5   4  -8    1.08    0.91
   5  -4  -8    1.66    0.77
  -5  -4   8    0.47    0.65
   5  -4  -8    0.60    1.04
  -5  -4  -8    1.86    0.72
  -5   4   8    1.66    1.22
   5   4  -8    0.46    0.82
  -5   4   8    1.13    0.83
   5  -4   8    1.04    0.80
   5  -5  -8    0.26    1.24
  -5   5  -8    0.10    0.90
  -5   5  -8    1.62    1.25
   5   5   8    0.16    1.02
   5  -5  -8    0.61    0.92
  -5  -5   8    1.50    1.15
   5   5  -8    1.90    0.98
  -5   5   8   -1.61    0.96
   5  -5   8    0.48    0.95
  -6   0  -8   46.90    1.62
  -6   0  -8   52.15    2.00
  -6   0   8   49.57    1.85
  -6   0  -8   48.10    1.67
   6   0  -8   44.99    2.03
   6   0  -8   48.62    2.05
   6   0   8   49.86    2.23
  -6   0   8   49.33    2.28
  -6   1  -8   10.20    0.96
  -6  -1   8   11.19    1.08
  -6  -1   8   10.36    1.22
  -6   1  -8   10.01    0.80
   6  -1  -8    9.73    1.09
   6   1   8   10.09    0.60
   6  -1  -8   11.94    1.39
  -6   1  -8   10.62    1.08
   6   1   8    9.35    1.14
   6   1  -8   10.22    1.09
   6  -1   8    9.68    1.17
  -6   1   8   10.16    0.99
  -6   1   8   12.70    1.49
  -6  -1  -8   11.29    1.10
   6   1  -8    7.53    1.04
  -6  -2   8   76.71    2.92
  -6  -2   8   78.68    2.57
  -6   2  -8   80.35    2.77
   6  -2  -8   73.60    2.57
   6   2   8   75.74    3.01
   6  -2  -8   73.89    3.18
  -6   2  -8   76.12    2.65
   6   2   8   76.02    2.24
  -6   2   8   77.01    3.08
  -6  -2  -8   77.83    2.62
  -6   2   8   76.53    2.55
   6   2  -8   80.01    2.74
   6  -2   8   80.57    2.91
   6  -3  -8    7.72    1.42
   6   3   8   11.75    1.44
  -6   3  -8    8.66    1.15
  -6   3  -8    9.01    1.10
  -6  -3   8    9.84    1.09
   6  -3  -8    9.05    1.08
  -6  -3   8    9.10    1.17
   6   3   8    9.23    1.00
  -6   3   8    9.76    1.42
   6  -3   8    9.53    1.29
   6   3  -8    9.94    1.14
  -6  -3  -8    9.79    1.04
  -6   3   8   10.78    1.20
   6  -4  -8   21.99    1.64
  -6   4  -8   18.12    1.86
  -6   4  -8   17.52    1.59
   6  -4  -8   17.04    1.87
   6   4   8   18.35    1.68
   6   4   8   20.66    2.08
  -6  -4   8   19.63    1.72
   6  -4   8   18.59    1.66
   6   4  -8   19.50    1.74
  -6   4   8   20.10    1.74
  -6   4   8   20.79    2.08
   6  -5  -8    5.93    1.79
   6   5   8    4.93    1.36
  -6   5  -8    5.78    1.24
  -6  -5   8    6.79    1.34
  -6   5  -8    4.18    1.52
  -6   5   8    5.78    1.30
   6  -5   8    5.75    1.26
   6   5  -8    4.56    1.29
  -7   0  -8   18.21    0.97
  -7   0   8   16.37    1.42
  -7   0  -8   17.40    0.88
   7   0  -8   16.87    1.54
   7   0   8   15.64    1.61
  -7   0   8   18.30    1.74
  -7   0  -8   16.41    1.38
  -7   1  -8   58.23    2.13
  -7   1  -8   61.08    2.47
   7  -1  -8   58.66    2.44
   7   1   8   62.37    2.66
  -7  -1   8   60.92    2.70
  -7  -1   8   59.84    2.33
   7  -1   8   60.13    2.59
  -7   1   8   60.74    2.36
  -7  -1  -8   61.51    2.41
  -7   1   8   59.88    2.76
   7   1  -8   60.25    2.48
  -7  -2   8   16.66    1.66
   7  -2  -8   15.18    1.39
  -7   2  -8   12.88    1.39
   7   2   8   11.76    1.51
  -7  -2   8   15.66    1.47
  -7   2  -8   14.89    1.29
  -7  -2  -8   14.76    1.50
   7  -2   8   15.70    1.54
  -7   2   8   14.24    1.48
   7   2  -8   10.92    1.19
  -7   2   8   13.68    1.60
  -7   3  -8   42.87    2.10
   7   3   8   40.17    2.77
  -7   3  -8   43.70    2.23
  -7  -3   8   46.83    2.12
   7  -3  -8   37.79    2.16
  -7  -3   8   42.09    2.30
   7  -3   8   43.03    2.22
   7   3  -8   42.82    2.18
  -7   3   8   39.81    2.19
  -7   3   8   40.34    2.72
   7   4   8   11.50    1.78
  -7  -4   8    7.32    1.15
  -7   4  -8   10.01    1.39
   7  -4  -8    6.65    1.33
  -7   4  -8    6.95    1.28
  -7   4   8    8.68    1.42
  -7   4   8    9.47    2.06
   7   4  -8    9.97    1.33
   7  -4   8   10.69    1.49
   8   0  -8    6.14    1.11
  -8   0  -8    7.13    0.53
  -8   0   8    7.71    1.44
  -8   0   8    6.96    1.22
  -8   0  -8    6.43    0.50
   8   0   8    5.39    1.33
  -8  -1   8    7.21    1.26
  -8  -1   8    8.18    1.37
  -8   1  -8    7.28    0.77
   8  -1  -8    8.98    1.25
   8   1   8    7.50    1.42
  -8   1   8    6.24    1.38
  -8   1   8    7.15    1.18
   8   1  -8    4.49    1.23
   8  -1   8    7.60    1.26
  -8   2  -8   -0.46    0.76
   8  -2  -8   -0.80    1.04
  -8  -2   8    0.84    1.05
  -8  -2   8    0.31    1.01
   8   2   8   -0.32    1.21
  -8   2   8    1.18    1.35
   8  -2   8   -0.63    1.14
   8   2  -8    0.10    1.06
  -8   2   8   -0.35    0.99
  -8   3  -8    7.25    1.21
   8   3   8    4.47    1.62
  -8  -3   8    5.94    1.16
   8  -3  -8    3.64    1.27
  -8  -3   8    4.57    1.19
  -8   3   8    5.90    1.79
   8   3  -8    5.86    1.40
  -8   3   8    6.31    1.27
   8  -3   8    5.49    1.35
   0   0  -9   -0.27    0.40
   0   0  -9   -0.36    0.38
   0   0  -9    0.06    0.41
   0   0   9   -0.33    0.34
   0   0   9   -0.22    0.50
   0  -1  -9   20.21    1.16
   0   1  -9   21.37    1.16
   0   1   9   21.29    1.29
   0   1  -9   21.32    1.10
   0  -1   9   21.56    1.19
   0   1  -9   20.75    1.24
   0  -1   9   19.09    1.01
   0   1   9   21.26    1.06
   0  -1  -9   20.56    1.07
   0   1   9   20.22    0.58
   0   2  -9    0.19    0.15
   0  -2   9   -0.19    0.36
   0   2  -9   -0.44    0.61
   0  -2   9    0.15    0.48
   0   2  -9    0.08    0.44
   0   2  -9    0.18    0.13
   0   2   9    0.42    0.19
   0   2   9   -0.13    0.38
   0  -2  -9   -0.46    0.41
   0   2   9    0.45    0.55
   0   2  -9   -0.22    0.57
   0  -2  -9    0.31    0.43
   0  -2  -9    0.23    0.38
   0   3   9    9.32    0.74
   0   3  -9    7.30    1.00
   0  -3  -9    6.01    0.72
   0  -3   9    6.67    0.96
   0  -3  -9    7.57    0.80
   0   3  -9    5.79    0.77
   0  -3  -9    6.19    0.67
   0   3  -9    7.02    0.43
   0  -3   9    7.02    0.90
   0  -4  -9    0.60    0.51
   0  -4  -9   -1.29    0.52
   0  -4   9    0.20    0.60
   0   4   9   -0.29    0.53
   0  -4   9    0.36    0.85
   0   4  -9    0.18    0.50
   0   4  -9   -0.51    0.62
   0   4  -9   -0.75    0.79
   0   5   9   12.38    1.24
   0  -5  -9   12.30    1.24
   0   5  -9   13.47    1.27
   0   5  -9   13.59    1.51
   0  -5   9   15.24    1.30
   0  -5  -9   12.31    1.11
   0   5  -9   12.74    1.21
   0  -5   9   12.99    1.55
   0   6  -9   -1.38    0.86
   0  -6   9   -0.15    0.92
   0  -6   9    1.29    1.39
   0   6  -9    0.10    0.95
   0   6   9    2.34    1.00
   0  -6  -9   -0.29    0.74
  -1   0  -9   20.17    1.12
   1   0  -9   19.37    1.11
   1   0  -9   19.79    1.22
   1   0   9   18.11    0.95
   1   0  -9   19.60    0.66
   1   0  -9   17.30    1.02
  -1   0   9   19.32    0.60
  -1   0   9   18.33    1.10
   1   0   9   18.27    1.24
  -1   0   9   19.72    1.03
  -1   0  -9   18.80    1.10
   1  -1  -9    4.40    0.59
   1  -1  -9    3.53    0.58
   1   1   9    4.48    0.54
  -1   1  -9    3.67    0.65
   1   1   9    3.78    0.75
  -1  -1   9    3.94    0.53
   1  -1  -9    3.77    0.37
  -1   1  -9    3.78    0.53
  -1   1  -9    3.86    0.65
   1  -1  -9    2.63    0.59
  -1  -1   9    3.36    0.65
  -1   1   9    3.61    0.50
  -1   1   9    3.91    0.30
  -1  -1  -9    3.67    0.58
  -1  -1  -9    4.58    0.61
   1   1  -9    3.81    0.65
   1   1  -9    3.93    0.37
   1  -1   9    4.72    0.74
  -1   1   9    4.07    0.75
   1  -1   9    3.66    0.47
   1   1  -9    4.15    0.64
   1   1  -9    4.12    0.71
  -1  -1  -9    4.10    0.45
  -1   2  -9   14.61    1.17
  -1  -2   9   12.58    0.87
  -1  -2   9   14.22    1.04
   1  -2  -9   14.64    0.92
   1  -2  -9   13.11    0.94
   1   2   9   12.74    0.49
  -1   2  -9   12.80    0.96
   1   2   9   12.79    0.53
   1   2   9   13.31    0.89
  -1   2  -9   14.70    1.14
   1  -2  -9   13.39    1.11
   1   2   9   14.97    1.31
   1   2  -9   12.30    0.57
   1   2  -9   13.83    1.03
   1  -2   9   13.84    1.08
  -1   2   9   13.48    0.59
   1   2  -9   12.86    1.32
  -1   2   9   13.85    1.15
  -1  -2  -9   13.71    0.93
  -1  -2  -9   13.01    0.94
   1   2  -9   12.86    1.18
   1  -2   9   13.34    0.96
  -1   2   9   13.73    0.93
  -1  -2  -9   14.96    0.81
  -1   3  -9    3.53    0.29
  -1   3  -9    2.70    0.67
   1  -3  -9    3.99    0.63
   1  -3  -9    4.36    0.72
  -1  -3   9    3.80    0.75
  -1   3  -9    4.65    0.85
  -1  -3   9    4.26    0.88
   1   3  -9    4.21    0.39
   1  -3   9    4.72    0.63
   1  -3   9    3.22    0.75
  -1  -3  -9    4.39    0.62
  -1   3   9    4.26    0.63
   1   3  -9    4.37    0.88
   1   3  -9    4.21    0.69
  -1   3   9    3.81    0.56
  -1  -3  -9    3.34    0.60
  -1  -3  -9    3.20    0.44
  -1   4  -9    9.97    0.56
   1  -4  -9    9.66    0.94
   1  -4  -9    9.53    1.11
  -1  -4   9   10.34    1.07
  -1   4  -9    9.07    1.23
  -1   4  -9    9.10    0.97
   1   4   9   10.45    0.96
  -1  -4   9    8.39    1.20
  -1  -4  -9    9.91    0.94
   1  -4   9    9.79    1.09
  -1   4   9   10.00    1.00
   1   4  -9    8.17    1.18
   1  -4   9    8.91    1.29
   1   4  -9   10.01    1.01
  -1  -4  -9    9.23    0.85
  -1  -4  -9    8.55    0.79
   1   4  -9    9.03    0.95
  -1  -5   9    1.59    0.98
   1   5   9    2.24    0.79
   1  -5  -9    2.08    0.82
  -1   5  -9    1.19    0.68
   1  -5  -9    0.32    0.64
  -1   5  -9    0.66    0.75
  -1   5  -9    0.35    1.14
  -1  -5   9   -0.04    0.80
   1   5  -9    1.19    0.78
   1  -5   9    3.57    1.17
   1   5  -9    0.29    1.12
   1  -5   9    2.89    0.88
  -1  -5  -9    1.08    0.65
  -1   5   9    1.82    0.77
   1   5  -9    1.22    0.77
  -1  -5  -9    0.55    0.63
   1  -6  -9    3.07    1.09
   1   6   9    3.82    1.08
  -1  -6   9    4.49    1.12
  -1  -6   9    6.32    1.54
  -1   6  -9    3.88    1.03
  -1  -6  -9    4.71    0.83
   1  -6   9    4.31    1.55
  -1   6   9    4.30    1.09
   1   6  -9    2.42    0.99
   1   6  -9    3.77    1.15
   1  -6   9    4.49    1.07
   2   0   9   24.78    1.13
  -2   0  -9   26.76    1.24
   2   0   9   25.56    1.47
   2   0  -9   24.76    0.97
   2   0  -9   23.88    1.37
  -2   0   9   26.56    1.27
  -2   0   9   24.09    1.23
   2   0  -9   24.51    1.19
   2   0  -9   27.62    1.46
  -2   0   9   26.61    0.85
  -2   0  -9   25.60    1.27
  -2   0  -9   25.96    1.14
  -2  -1   9  150.68    3.54
  -2   1  -9  154.64    4.41
  -2  -1   9  155.24    4.13
   2   1   9  152.92    4.51
   2  -1  -9  145.82    3.96
  -2   1  -9  150.26    4.03
   2  -1  -9  154.68    4.48
   2  -1  -9  160.21    4.52
   2   1   9  147.53    4.15
  -2  -1   9  157.64    4.47
  -2  -1  -9  155.58    4.01
  -2  -1  -9  152.09    4.18
  -2   1   9  154.50    4.42
   2   1  -9  146.53    3.99
   2  -1   9  158.65    4.40
   2   1  -9  150.52    3.63
  -2   1   9  155.76    4.28
  -2  -1  -9  151.78    4.23
   2  -1   9  150.37    4.35
  -2   1   9  161.18    3.61
   2   1  -9  133.49    4.55
   2   1  -9  156.33    4.53
  -2  -2   9   16.99    1.32
  -2   2  -9   17.79    1.21
   2   2   9   16.16    0.52
  -2   2  -9   16.53    1.22
  -2  -2   9   17.59    1.13
   2  -2  -9   17.88    1.23
   2  -2  -9   16.02    1.08
   2   2   9   16.67    0.55
   2   2   9   15.96    1.35
  -2   2  -9   15.10    1.04
   2   2  -9   18.81    1.37
   2   2  -9   16.88    1.14
  -2   2   9   18.54    0.92
  -2   2   9   15.86    1.01
   2  -2   9   16.99    1.20
  -2   2   9   19.14    1.24
  -2  -2  -9   15.97    0.93
  -2  -2  -9   17.78    0.84
   2  -2   9   17.08    1.05
  -2  -2  -9   17.65    1.07
   2  -3  -9   85.82    2.55
   2  -3  -9   89.42    2.99
  -2  -3   9   89.35    2.74
  -2   3  -9   92.97    3.14
  -2   3  -9   89.47    2.68
   2   3   9   83.69    2.17
  -2  -3   9   82.63    3.00
  -2  -3  -9   83.82    2.51
  -2   3   9   86.56    2.44
   2  -3   9   87.88    2.93
   2   3  -9   84.80    3.10
  -2  -3  -9   86.29    2.59
   2  -3   9   88.05    2.96
   2   3  -9   86.37    2.45
  -2  -3  -9   73.40    2.50
  -2   3   9   84.72    2.86
   2   3  -9   88.21    2.68
   2  -4  -9   13.19    1.09
   2  -4  -9   11.85    1.34
  -2  -4   9   12.23    1.11
  -2  -4   9   10.96    1.33
   2   4   9   10.99    1.01
  -2   4  -9   11.06    1.17
  -2   4  -9   12.68    1.39
  -2   4   9   12.13    1.09
  -2  -4  -9   11.67    1.00
   2   4  -9   11.95    1.17
  -2  -4  -9   11.73    0.86
   2  -4   9   13.87    1.28
   2  -4   9   15.89    1.76
  -2  -4  -9   11.24    1.01
   2   4  -9   11.80    1.07
   2   4  -9   11.46    1.40
  -2  -5   9   76.18    2.68
  -2   5  -9   72.66    2.56
   2  -5  -9   77.39    3.01
   2  -5  -9   74.76    2.31
  -2   5  -9   72.92    3.13
   2   5   9   71.83    2.41
  -2  -5   9   74.09    3.25
  -2   5   9   75.93    2.50
  -2  -5  -9   72.49    2.34
   2  -5   9   68.61    2.84
  -2  -5  -9   73.58    2.41
   2   5  -9   73.51    2.53
  -2  -5  -9   71.28    2.27
   2   5  -9   77.58    2.60
   2  -5   9   72.77    3.33
   2  -6  -9    0.66    0.96
  -2  -6   9    5.61    1.55
  -2   6  -9    3.25    1.05
   2   6   9    5.09    1.15
  -2   6  -9    3.98    1.61
  -2  -6   9    3.30    1.10
   2   6  -9    3.72    1.04
  -2   6   9    5.27    1.15
  -2  -6  -9    3.55    0.68
   2   6  -9    2.01    1.19
   2  -6   9    4.92    1.23
  -3   0  -9   13.61    1.04
  -3   0   9   12.22    0.91
  -3   0   9   12.30    1.15
   3   0   9   10.16    0.84
  -3   0  -9   12.21    0.77
   3   0  -9   12.03    1.16
   3   0  -9   12.71    1.01
   3   0   9   12.54    1.16
  -3   0  -9   12.36    0.92
  -3   0   9   11.36    0.76
  -3  -1   9    1.08    0.39
   3   1   9    0.66    0.68
  -3   1  -9    0.54    0.42
  -3   1  -9    1.35    0.56
  -3  -1   9    1.25    0.49
  -3  -1   9    1.37    0.68
  -3   1  -9    1.03    0.51
   3  -1  -9    1.64    0.70
   3  -1  -9    1.04    0.60
   3   1  -9    1.24    0.57
  -3   1   9    1.43    0.44
  -3  -1  -9    0.83    0.31
   3   1  -9    1.64    0.70
   3  -1   9    1.42    0.63
  -3  -1  -9    1.27    0.40
  -3  -1  -9    0.86    0.55
   3  -1   9    1.28    0.49
  -3   1   9    1.16    0.57
  -3   1   9    2.34    0.48
   3  -2  -9    4.20    0.71
   3   2   9    6.26    0.95
  -3   2  -9    3.72    0.73
  -3  -2   9    4.83    0.87
  -3  -2   9    3.29    0.64
  -3  -2   9    4.66    0.56
   3  -2  -9    4.53    0.86
   3   2   9    3.53    0.27
  -3   2  -9    4.39    0.71
  -3  -2  -9    5.03    0.75
   3  -2   9    3.23    0.77
   3   2  -9    4.55    0.86
  -3   2   9    3.14    0.56
  -3  -2  -9    4.54    0.55
  -3   2   9    4.62    0.82
   3   2  -9    4.32    0.75
  -3   2   9    4.23    0.63
  -3  -2  -9    3.64    0.48
   3  -2   9    4.73    0.66
  -3  -3   9    1.84    0.59
   3  -3  -9    0.58    0.52
   3   3   9    0.53    0.28
  -3  -3   9    1.16    0.70
  -3   3  -9    0.21    0.70
   3  -3  -9    0.45    0.69
  -3   3  -9    0.07    0.57
  -3  -3  -9    0.37    0.38
   3   3  -9    1.16    0.59
  -3  -3  -9    0.44    0.34
   3  -3   9   -0.12    0.65
  -3  -3  -9    0.40    0.53
   3  -3   9   -1.11    0.58
  -3   3   9    0.30    0.57
  -3   3   9    0.54    0.54
   3   3  -9   -0.52    0.82
  -3   4  -9    2.92    0.80
   3   4   9    1.98    0.63
  -3   4  -9    2.69    0.89
   3  -4  -9    2.22    0.88
   3  -4  -9    1.58    0.71
  -3  -4   9    1.75    0.72
   3  -4   9    2.29    0.80
  -3  -4  -9    2.96    0.70
   3   4  -9    0.69    0.81
  -3  -4  -9    2.04    0.38
  -3  -4  -9    2.07    0.43
   3   4  -9    2.16    0.77
  -3   4   9    3.14    0.72
   3   4  -9    2.79    0.82
  -3   5  -9   -0.62    0.81
   3  -5  -9    1.47    0.80
   3   5   9    0.79    0.84
  -3  -5   9    0.64    0.80
  -3  -5   9   -0.10    1.07
  -3   5  -9    0.83    1.02
   3  -5  -9   -0.85    0.91
  -3  -5  -9    0.50    0.31
  -3   5   9    1.01    0.89
   3   5  -9    1.03    0.86
   3  -5   9    0.52    0.92
   3   5  -9    1.42    1.01
  -3  -5  -9    0.66    0.30
  -3  -6   9    2.46    1.46
   3   6   9   -1.27    1.14
  -3  -6   9    0.45    1.00
   3  -6  -9   -0.10    1.11
  -3   6  -9   -0.55    1.04
  -3   6  -9   -0.37    1.61
  -3   6   9   -1.12    1.08
   3   6  -9   -0.39    1.25
   3   6  -9   -0.08    1.07
   3  -6   9   -0.59    1.10
   4   0  -9   90.46    3.15
  -4   0   9   86.97    2.46
  -4   0  -9   87.95    2.69
  -4   0  -9   86.33    2.61
  -4   0  -9   88.54    2.72
  -4   0   9   89.97    2.55
   4   0   9   85.91    3.01
  -4   0   9   86.65    3.09
   4   0  -9   87.21    2.72
   4  -1  -9   11.34    1.07
  -4   1  -9    9.35    0.83
  -4  -1   9   10.84    0.86
  -4  -1   9   10.90    1.15
   4   1   9    9.80    1.16
  -4   1  -9    8.61    0.97
  -4  -1   9    8.58    0.86
  -4   1  -9   10.39    1.06
   4  -1  -9   10.33    1.16
  -4  -1  -9   10.18    0.96
   4  -1   9   11.06    1.13
   4   1  -9    9.92    1.18
   4   1  -9   10.05    1.00
  -4   1   9   10.86    0.92
  -4   1   9    9.22    0.85
  -4  -1  -9    9.88    0.78
  -4  -1  -9    9.17    0.73
  -4   1   9   10.82    1.18
   4   2   9   63.33    1.57
   4  -2  -9   64.88    2.63
  -4  -2   9   65.86    2.64
   4  -2  -9   65.20    2.27
  -4  -2   9   63.86    2.01
   4   2   9   68.20    2.70
  -4   2  -9   63.69    2.43
  -4  -2   9   67.42    2.07
  -4   2  -9   64.82    2.32
   4  -2   9   62.65    2.48
  -4   2   9   66.62    2.16
  -4  -2  -9   65.32    1.89
  -4  -2  -9   66.25    2.23
  -4   2   9   71.21    2.35
   4   2  -9   68.24    2.49
  -4   2   9   65.73    2.65
  -4  -2  -9   63.57    1.90
   4   2  -9   67.68    2.35
   4   3   9   12.16    0.80
  -4  -3   9   11.30    1.33
  -4   3  -9   12.75    1.21
   4  -3  -9   12.27    1.23
   4   3   9   10.17    1.35
  -4   3  -9   12.51    1.38
  -4  -3   9   10.45    1.01
   4  -3  -9   12.59    1.32
  -4   3   9   12.80    1.42
   4  -3   9   13.39    1.43
  -4  -3  -9   12.08    1.15
   4   3  -9   15.26    1.24
  -4   3   9   12.79    1.19
   4   3  -9   12.32    1.16
   4   4   9   43.91    1.73
  -4   4  -9   45.01    2.05
   4  -4  -9   49.27    1.89
  -4  -4   9   43.18    2.30
   4  -4  -9   45.23    2.44
  -4  -4   9   44.27    1.83
  -4   4  -9   42.81    2.41
   4  -4   9   49.47    2.35
  -4  -4  -9   49.70    1.87
   4   4  -9   44.34    1.98
  -4   4   9   46.86    1.98
  -4  -5   9    0.82    0.83
  -4   5  -9    0.94    0.92
   4  -5  -9   -0.38    1.13
   4   5   9   -0.48    0.95
  -4   5  -9    1.61    1.30
  -4  -5   9    0.85    1.17
   4   5  -9    1.95    1.16
   4   5  -9    2.17    1.03
  -4   5   9    1.02    0.96
   4  -5   9   -0.50    0.96
  -5   0   9    7.74    0.57
  -5   0  -9    9.12    0.96
   5   0  -9    9.52    1.28
  -5   0  -9    9.78    1.01
  -5   0   9    8.16    0.84
   5   0   9    9.03    1.15
  -5   0   9   10.88    1.21
   5   0  -9   11.67    1.16
  -5   0  -9    8.66    0.81
   5  -1  -9    0.96    0.64
  -5   1  -9   -0.35    0.45
  -5  -1   9   -0.08    0.56
  -5   1  -9    0.47    0.64
  -5   1  -9    0.58    0.48
  -5  -1   9    0.20    0.79
   5   1   9   -0.48    0.74
   5  -1  -9   -0.41    0.90
  -5  -1   9   -0.03    0.28
   5  -1   9   -0.05    0.77
  -5  -1  -9    1.18    0.62
  -5  -1  -9    0.18    0.31
  -5   1   9    0.00    0.56
   5   1  -9    0.56    0.66
  -5  -1  -9   -0.25    0.37
  -5   1   9   -0.20    0.36
  -5   1   9    0.54    0.82
   5   1  -9    0.06    0.85
  -5  -2   9    3.08    0.73
   5  -2  -9    4.48    0.89
   5   2   9    4.49    1.11
  -5   2  -9    3.60    0.81
   5  -2  -9    3.34    1.05
  -5  -2   9    3.44    0.93
  -5   2  -9    3.68    0.83
   5   2  -9    3.45    0.84
   5   2  -9    4.02    0.74
  -5  -2  -9    3.22    0.83
  -5   2   9    3.51    0.73
  -5   2   9    3.69    0.81
  -5   2   9    3.33    1.03
   5  -2   9    3.92    0.88
   5  -3  -9    0.11    0.73
  -5  -3   9   -0.26    0.78
  -5  -3   9   -0.72    0.65
   5  -3  -9    0.57    1.03
   5   3   9    1.72    1.01
  -5   3  -9    0.68    0.72
  -5   3  -9    0.63    0.80
  -5   3   9    1.96    0.90
  -5   3   9    0.76    1.06
  -5   3   9   -0.02    0.79
   5  -3   9   -1.39    0.77
  -5  -3  -9   -0.08    0.65
   5   3  -9   -0.94    0.72
   5  -4  -9    5.03    1.38
  -5  -4   9    6.16    1.22
  -5   4  -9    4.73    1.10
   5  -4  -9    4.42    1.07
  -5   4  -9    5.60    1.19
   5   4   9    5.54    1.29
  -5  -4  -9    6.06    0.98
   5  -4   9    6.53    1.17
   5   4  -9    5.75    1.01
  -5   4   9    6.22    1.12
  -5  -5   9    1.86    1.28
   5  -5  -9   -1.84    1.32
  -5   5  -9   -1.33    1.21
  -5   5  -9    1.33    1.06
   5   5  -9   -0.67    1.03
   5   5  -9    1.16    1.23
   5  -5   9    1.22    1.17
  -5   5   9    0.63    1.03
  -6   0   9    1.85    0.96
  -6   0  -9    0.46    0.72
   6   0  -9    0.95    1.17
  -6   0   9   -0.68    0.65
   6   0   9    0.55    0.93
   6   0  -9    0.42    0.76
  -6   0  -9    0.80    0.54
  -6   0  -9    0.84    0.44
  -6   1  -9    3.36    0.85
   6  -1  -9    3.96    1.22
   6  -1  -9    2.30    0.86
  -6  -1   9    4.00    1.10
   6   1   9    1.26    0.94
  -6  -1   9    2.13    0.77
  -6   1  -9    3.48    0.70
   6  -1   9    1.77    0.88
  -6   1   9    3.86    0.80
  -6   1   9    3.36    1.05
  -6  -1  -9    3.13    0.79
   6   1  -9    0.98    0.77
  -6  -1  -9    2.46    0.27
  -6  -1  -9    3.11    0.35
   6  -2  -9   -0.32    0.79
  -6  -2   9   -0.58    0.85
  -6   2  -9    0.21    0.68
   6   2   9    0.50    1.03
  -6   2  -9   -0.20    0.74
   6  -2  -9   -0.87    1.18
  -6  -2   9   -0.81    0.62
  -6   2   9    0.84    0.68
  -6  -2  -9   -0.49    0.73
   6   2  -9    1.42    0.82
  -6   2   9   -1.27    0.98
   6  -2   9    2.06    0.92
   6  -3  -9   -0.10    1.21
  -6   3  -9    1.02    0.86
  -6  -3   9    0.50    0.84
   6   3   9    2.53    1.29
  -6   3  -9    1.62    0.85
  -6  -3   9    1.71    0.99
   6  -3  -9    1.76    0.87
  -6  -3  -9    2.13    0.89
  -6   3   9    2.54    1.29
   6   3  -9    0.80    0.90
  -6   3   9    0.16    0.84
   6  -3   9    0.38    1.05
  -6   4  -9    3.01    1.01
   6  -4  -9    0.40    1.01
  -6  -4   9    1.32    1.02
  -6   4  -9    1.07    1.09
   6  -4  -9   -1.73    1.42
   6   4   9    2.35    1.44
   6   4  -9    0.17    1.10
  -6   4   9    0.21    1.04
   6  -4   9   -1.11    1.04
  -7   0  -9    5.66    0.64
   7   0  -9    5.60    1.06
  -7   0   9    6.03    1.02
  -7   0  -9    5.27    1.07
   7   0   9    5.34    1.23
  -7   0   9    5.46    1.25
  -7   0  -9    5.04    0.57
  -7  -1   9    5.31    1.04
  -7   1  -9    6.94    1.14
   7   1   9    2.99    1.27
  -7   1  -9    6.38    0.79
   7  -1  -9    7.92    1.14
  -7  -1   9    4.13    1.17
  -7  -1  -9    7.23    1.09
   7   1  -9    7.44    1.16
  -7   1   9    7.23    1.35
   7  -1   9    7.09    1.29
  -7   1   9    8.12    1.11
   7   2   9    8.74    1.49
  -7  -2   9   10.08    1.38
  -7   2  -9    8.73    1.09
  -7   2  -9    8.69    1.24
   7  -2  -9    8.91    1.24
  -7  -2   9    9.95    1.18
  -7  -2  -9   11.29    1.30
   7  -2   9   10.51    1.41
   7   2  -9    8.38    1.23
  -7   2   9    9.41    1.26
  -7   2   9   12.93    1.68
  -7  -3   9    4.53    1.26
  -7  -3   9    6.75    1.17
   7   3   9    5.31    1.52
  -7   3  -9    3.89    1.16
   7  -3  -9    5.75    1.28
  -7   3  -9    5.13    1.09
   7  -3   9    5.21    1.21
  -7   3   9    5.20    1.72
   7   3  -9    5.17    1.16
  -7   3   9    7.28    1.29
   8   0   9    9.49    1.59
  -8   0   9   13.23    1.69
  -8   0  -9   11.25    1.44
   8   0  -9   11.83    1.47
  -8   0   9   13.14    1.37
  -8  -1   9    6.72    1.33
  -8   1  -9    9.31    1.36
   8  -1  -9    6.17    1.37
  -8   1  -9    7.17    0.82
   8   1   9    8.49    1.57
  -8  -1   9    7.09    1.46
   8   1  -9    6.55    1.34
  -8   1   9    9.44    1.33
  -8   1   9    6.29    1.71
   8  -1   9    8.14    1.54
   8   2   9   11.87    1.76
  -8   2  -9    9.94    1.43
   8  -2  -9   10.96    1.45
  -8   2  -9   10.70    1.19
  -8  -2   9   11.12    1.58
   8   2  -9   10.49    1.50
  -8   2   9   13.18    2.04
   0   0  10   35.15    1.48
   0   0 -10   35.77    1.68
   0   0 -10   37.79    1.62
   0   0  10   33.96    1.67
   0   0 -10   34.91    1.52
   0   1  10    0.53    0.43
   0  -1 -10   -0.08    0.50
   0   1 -10   -0.02    0.45
   0   1  10    0.01    0.10
   0   1 -10   -0.58    0.54
   0  -1  10   -0.04    0.51
   0   1  10    0.17    0.68
   0  -1 -10    0.28    0.53
   0  -1  10    0.36    0.41
   0  -1 -10    0.16    0.49
   0   2 -10   26.37    1.61
   0  -2 -10   22.80    1.37
   0  -2 -10   24.67    1.34
   0  -2  10   22.29    1.26
   0   2  10   24.64    1.57
   0  -2  10   23.03    1.35
   0   2  10   24.06    0.76
   0   2 -10   22.48    1.26
   0  -2 -10   21.90    1.27
   0   3 -10    0.87    0.78
   0  -3  10   -0.38    0.83
   0  -3 -10    0.31    0.53
   0   3 -10   -0.18    0.53
   0  -3  10   -0.01    0.65
   0  -3 -10    0.42    0.57
   0   3  10    0.74    0.45
   0   4 -10   25.64    1.51
   0  -4 -10   24.56    1.50
   0  -4 -10   22.42    1.37
   0   4 -10   22.19    2.02
   0   4  10   26.73    1.33
   0  -4  10   23.38    2.11
   0  -4  10   23.51    1.53
   0  -5  10   -0.32    1.38
   0   5 -10   -1.15    0.82
   0  -5 -10    0.56    0.71
   0   5  10   -0.56    0.82
   0  -5  10    0.05    0.90
   0   5 -10    0.72    1.32
   0  -6 -10   17.90    1.70
   0  -6  10   18.03    1.82
   0  -6  10   16.89    2.16
   0   6 -10   16.07    1.51
   0   6  10   19.56    1.64
  -1   0 -10    0.81    0.53
  -1   0 -10    1.67    0.58
  -1   0  10    1.13    0.17
  -1   0  10    0.08    0.54
   1   0 -10    0.88    0.55
   1   0  10    0.53    0.42
   1   0 -10    0.27    0.58
  -1   0  10    1.09    0.44
   1   0  10    0.12    0.58
  -1  -1  10    0.26    0.49
  -1   1 -10    0.15    0.57
   1   1  10    0.00    0.78
   1  -1 -10    0.60    0.57
   1   1  10    0.34    0.44
  -1   1 -10   -0.17    0.45
   1  -1 -10    1.16    0.63
  -1  -1  10   -0.40    0.44
  -1   1  10   -0.27    0.46
   1  -1  10   -0.06    0.43
  -1  -1 -10    1.18    0.55
  -1   1  10    0.90    0.71
   1   1 -10    0.66    0.62
   1  -1  10    0.59    0.57
  -1  -1 -10    0.56    0.41
  -1   1  10    0.05    0.19
  -1  -1 -10    0.06    0.44
   1   1 -10    0.13    0.46
   1   2  10    1.60    0.18
   1   2  10    2.10    0.78
  -1   2 -10    2.50    0.78
  -1  -2  10    1.71    0.76
  -1   2 -10    1.34    0.62
   1  -2 -10    1.42    0.64
  -1  -2  10    1.57    0.62
   1  -2 -10    1.16    0.61
   1  -2  10    1.71    0.70
  -1  -2 -10    1.11    0.57
   1   2 -10    1.19    0.60
   1  -2  10    0.76    0.59
  -1  -2 -10    1.80    0.53
  -1   2  10    1.53    0.28
   1   2 -10    2.04    0.27
  -1  -2 -10    2.76    0.50
   1   2 -10    1.51    0.76
  -1   2  10    2.82    0.83
  -1   2  10    1.93    0.57
  -1  -3  10    0.25    0.82
   1  -3 -10    0.40    0.58
   1   3  10    0.40    0.28
  -1   3 -10    0.20    0.66
  -1   3 -10    1.15    0.79
  -1  -3  10   -0.03    0.60
   1  -3 -10    0.33    0.63
  -1  -3 -10    0.19    0.43
  -1   3  10   -0.02    0.49
   1   3 -10   -0.24    0.58
   1  -3  10    0.97    0.59
   1   3 -10    0.09    0.86
   1   3 -10    0.38    0.32
  -1  -3 -10   -0.34    0.45
  -1  -3 -10    0.72    0.61
   1  -3  10   -0.44    0.61
  -1   4 -10    1.33    1.02
  -1  -4  10    2.26    0.74
   1  -4 -10    2.86    0.83
  -1  -4  10    2.50    1.10
   1   4  10    1.79    0.65
  -1   4 -10    0.96    0.69
   1  -4 -10    1.41    0.69
   1  -4  10    2.12    0.90
  -1  -4 -10    1.30    0.57
   1  -4  10    1.83    1.16
  -1   4  10    1.98    0.68
   1   4 -10    1.50    0.67
   1   4 -10    1.92    0.71
   1   4 -10    1.53    1.02
  -1  -4 -10    1.53    0.70
  -1   5 -10    0.24    0.81
  -1   5 -10    0.30    1.31
  -1  -5  10    0.26    0.84
   1   5  10   -0.22    0.82
   1  -5 -10   -0.81    0.78
  -1  -5  10   -0.50    1.19
   1  -5  10    0.44    0.94
  -1  -5 -10    0.39    0.60
   1  -5  10    2.90    1.35
  -1   5  10    1.06    0.83
   1   5 -10    0.63    0.94
   1   5 -10    0.80    0.88
   1  -6 -10   -0.51    0.97
   1   6  10    0.10    1.20
  -1  -6  10   -0.62    1.14
  -1  -6  10    1.48    1.58
  -1   6 -10   -0.50    1.11
  -1   6  10    1.48    1.17
   1   6 -10   -2.42    1.08
   1  -6  10   -0.04    1.07
  -1  -6 -10   -0.37    0.77
   2   0 -10    4.73    0.86
  -2   0 -10    5.16    0.71
   2   0  10    5.23    0.64
  -2   0  10    4.79    0.41
   2   0  10    4.42    0.84
  -2   0  10    5.83    0.72
  -2   0 -10    4.82    0.62
   2   0 -10    6.18    0.80
  -2   0 -10    5.23    0.76
  -2   0  10    5.13    0.78
  -2  -1  10    7.67    0.90
  -2  -1  10    7.14    1.03
  -2   1 -10    6.34    0.80
  -2  -1  10    6.67    0.44
   2  -1 -10    7.60    0.98
   2  -1 -10    6.41    0.86
  -2   1 -10    7.01    0.85
   2   1  10    7.07    1.06
  -2  -1 -10    7.38    0.77
   2   1 -10    5.50    0.93
  -2  -1 -10    6.73    0.83
   2   1 -10    6.87    0.83
  -2   1  10    7.58    0.81
  -2   1  10    8.57    0.63
   2  -1  10    6.36    0.91
  -2  -1 -10    6.87    0.70
  -2   1  10    7.93    0.93
   2  -1  10    8.19    0.88
   2  -2 -10   11.28    1.28
  -2  -2  10    9.05    1.11
   2  -2 -10    9.65    0.99
  -2  -2  10   10.42    1.10
   2   2  10   13.93    1.37
  -2   2 -10   10.87    1.20
  -2   2 -10    8.54    0.97
   2   2 -10   11.87    1.24
  -2  -2 -10   10.36    0.76
  -2  -2 -10    9.62    0.89
  -2  -2 -10   10.25    0.98
   2  -2  10    9.74    0.97
   2   2 -10    8.94    0.97
  -2   2  10   11.30    1.06
  -2   2  10   11.24    1.19
  -2   2  10   11.62    0.87
   2  -2  10    8.44    1.04
  -2   3 -10    3.87    0.81
   2  -3 -10    4.90    0.90
   2   3  10    4.92    1.10
  -2   3 -10    4.66    0.97
  -2  -3  10    5.26    0.81
  -2  -3  10    5.50    1.01
   2   3  10    4.34    0.37
   2  -3 -10    5.46    0.83
  -2  -3 -10    4.90    0.72
   2   3 -10    4.71    0.71
   2   3 -10    5.37    1.14
  -2   3  10    4.65    0.71
  -2  -3 -10    4.09    0.72
   2   3 -10    5.56    0.80
  -2  -3 -10    3.66    0.59
   2  -3  10    4.75    0.78
   2  -3  10    3.44    0.88
   2  -4 -10    4.13    0.95
  -2  -4  10    3.99    0.92
  -2   4 -10    3.36    1.14
  -2  -4  10    3.48    1.18
   2   4  10    4.43    0.75
   2  -4 -10    3.32    0.82
  -2   4 -10    3.57    0.90
  -2  -4 -10    3.44    0.76
   2   4 -10    4.29    1.27
   2  -4  10    4.88    1.07
  -2   4  10    4.39    0.84
  -2  -4 -10    3.53    0.74
   2   4 -10    2.99    0.80
  -2  -4 -10    3.36    0.61
   2   4 -10    3.37    0.89
   2   5  10    3.52    0.95
  -2   5 -10    1.50    0.93
  -2  -5  10    3.21    1.38
   2  -5 -10    2.69    1.07
  -2   5 -10    2.83    1.32
  -2  -5  10    2.53    0.94
   2  -5  10    3.34    1.12
   2   5 -10    1.81    0.91
  -2   5  10    3.39    1.03
  -2  -5 -10    2.51    0.62
   2   5 -10    3.06    1.03
  -2   6 -10    3.31    1.86
  -2  -6  10    1.14    1.07
  -2   6 -10    2.53    1.16
   2  -6 -10    1.29    1.14
  -2  -6  10   -0.88    1.58
   2   6  10    1.30    1.29
   2  -6  10   -0.31    1.20
  -2  -6 -10    1.82    0.66
   2   6 -10    2.46    1.19
  -2   6  10    0.20    1.18
   3   0 -10   22.67    1.59
  -3   0  10   22.26    1.59
  -3   0  10   23.03    1.31
  -3   0 -10   22.21    1.36
   3   0  10   22.94    1.52
   3   0 -10   23.56    1.32
  -3   0 -10   24.00    1.29
  -3   0  10   21.90    1.01
  -3   0 -10   22.40    1.12
  -3  -1  10   10.12    0.79
   3   1  10    8.82    1.17
  -3  -1  10   10.37    1.01
   3  -1 -10   12.37    1.18
   3  -1 -10   10.45    1.17
  -3  -1  10   11.89    1.36
  -3   1 -10    9.22    1.07
  -3   1 -10    9.22    0.99
  -3  -1 -10   10.09    0.90
  -3  -1 -10    9.44    0.73
  -3  -1 -10    8.92    0.95
  -3   1  10   10.01    1.08
   3  -1  10   10.97    1.18
  -3   1  10    9.52    0.96
   3   1 -10   10.08    1.20
   3   1 -10   11.88    1.09
  -3   1  10   10.63    0.85
  -3   2 -10    3.87    0.83
  -3   2 -10    3.08    0.74
   3  -2 -10    5.36    0.81
   3   2  10    6.47    1.04
  -3  -2  10    4.48    0.81
  -3  -2  10    3.54    0.94
   3  -2 -10    4.79    0.96
  -3  -2  10    4.44    0.61
  -3   2  10    3.31    0.62
  -3  -2 -10    4.87    0.75
  -3  -2 -10    3.71    0.53
   3   2 -10    3.45    1.01
  -3  -2 -10    4.48    0.63
  -3   2  10    6.48    0.93
  -3   2  10    4.33    0.65
   3   2 -10    4.68    0.79
   3  -2  10    4.03    0.87
  -3   3 -10    5.17    1.02
  -3  -3  10    7.98    1.21
  -3  -3  10    5.61    0.81
   3  -3 -10    4.75    0.86
   3   3  10    5.67    1.20
  -3   3 -10    6.35    0.94
   3  -3 -10    4.64    1.03
  -3  -3 -10    5.55    0.63
  -3   3  10    6.97    0.84
  -3  -3 -10    6.16    0.86
  -3  -3 -10    6.39    0.76
   3  -3  10    4.63    1.01
   3   3 -10    4.92    0.91
   3   3 -10    5.82    1.31
  -3   4 -10   12.33    1.44
   3  -4 -10   13.13    1.44
   3  -4 -10   12.78    1.31
  -3   4 -10   13.99    1.49
  -3  -4  10   12.65    1.33
  -3   4  10   13.91    1.32
  -3  -4 -10   14.75    1.34
  -3  -4 -10   10.36    0.82
  -3  -4 -10   13.22    0.87
   3   4 -10   12.30    1.22
   3   4 -10   13.07    1.23
   3  -4  10   11.94    1.35
  -3   5 -10    3.68    1.38
  -3   5 -10    1.52    1.02
   3  -5 -10    2.58    1.18
  -3  -5  10    1.62    1.34
  -3  -5  10    1.71    0.98
  -3  -5 -10    2.22    0.36
  -3   5  10    3.76    1.04
   3   5 -10   -0.06    1.07
   3  -5  10    5.41    1.21
   3   5 -10    3.52    1.05
  -3  -5 -10    2.84    0.34
  -4   0 -10   51.47    1.83
   4   0  10   51.31    2.33
  -4   0  10   55.41    2.49
  -4   0  10   55.14    1.82
  -4   0 -10   51.44    1.96
   4   0 -10   55.02    2.50
  -4   0  10   54.34    1.94
   4   0 -10   52.65    2.09
  -4   0 -10   53.85    2.08
  -4   1 -10   -0.33    0.54
  -4  -1  10   -0.20    0.52
   4  -1 -10    0.61    0.84
  -4   1 -10    0.64    0.65
   4   1  10   -0.54    0.73
  -4  -1  10    0.34    0.57
   4  -1 -10    0.07    0.68
  -4  -1  10    0.79    0.84
  -4  -1 -10    0.16    0.41
  -4   1  10   -0.33    0.58
  -4   1  10    0.12    0.86
  -4  -1 -10   -0.09    0.53
  -4  -1 -10   -0.59    0.60
  -4   1  10    0.90    0.58
   4  -1  10   -0.05    0.74
   4   1 -10    0.23    0.68
   4   1 -10    0.16    0.89
  -4  -2  10   31.35    1.38
   4   2  10   32.56    2.15
   4  -2 -10   28.48    1.64
  -4  -2  10   31.57    1.94
  -4  -2  10   28.27    1.41
  -4   2 -10   28.45    1.64
   4  -2 -10   31.66    1.97
  -4   2 -10   28.06    1.72
   4   2 -10   29.60    2.16
   4   2 -10   30.50    1.70
  -4   2  10   31.22    1.73
  -4  -2 -10   28.29    1.18
   4  -2  10   32.81    1.83
  -4   2  10   28.91    2.05
  -4  -2 -10   28.98    1.62
  -4   2  10   31.42    1.46
  -4  -2 -10   29.77    1.18
   4  -3 -10   -1.04    0.91
  -4   3 -10    0.37    0.64
  -4  -3  10   -0.26    0.80
   4  -3 -10    1.45    0.77
   4   3  10    1.52    1.10
  -4  -3  10    0.40    0.65
  -4   3 -10    0.44    0.80
  -4  -3 -10    0.99    0.71
   4  -3  10   -0.32    0.78
  -4  -3 -10   -0.06    0.22
  -4   3  10    0.33    0.98
  -4   3  10   -0.86    0.70
   4   3 -10    1.23    0.76
  -4  -4  10   23.95    1.56
   4  -4 -10   25.42    2.20
  -4   4 -10   23.56    2.18
  -4   4 -10   22.80    1.77
   4  -4 -10   24.87    1.72
  -4  -4  10   22.00    2.10
   4   4  10   31.93    2.46
   4  -4  10   26.00    1.85
  -4   4  10   23.36    1.70
   4   4 -10   24.27    1.77
  -4  -4 -10   27.35    1.66
  -4   5 -10   -0.26    1.47
  -4   5 -10    2.15    1.07
  -4  -5  10    0.83    1.41
   4  -5 -10    0.91    1.26
   4   5 -10   -0.10    1.28
  -4   5  10    0.95    1.08
   4  -5  10    1.50    1.11
   4   5 -10    1.06    1.10
  -5   0  10   52.00    2.59
   5   0  10   48.56    2.36
  -5   0 -10   52.38    1.90
   5   0 -10   51.92    2.64
   5   0 -10   52.42    2.13
  -5   0  10   50.39    1.91
  -5   0 -10   49.50    2.16
  -5   0 -10   49.70    1.96
   5  -1 -10    8.33    1.03
  -5  -1  10    8.68    1.23
   5   1  10   10.85    1.28
  -5   1 -10    8.41    1.03
  -5   1 -10   10.27    1.09
  -5  -1  10   11.27    1.13
   5  -1 -10   10.33    1.41
  -5  -1 -10    8.57    0.85
  -5  -1 -10   12.75    1.31
   5   1 -10   12.31    1.49
   5   1 -10    8.54    1.07
  -5   1  10   10.33    1.40
   5  -1  10   10.12    1.30
  -5   1  10   11.10    1.15
  -5  -1 -10    9.22    0.77
  -5   2 -10   22.03    1.56
   5   2  10   19.02    1.96
  -5  -2  10   20.64    1.36
  -5   2 -10   21.26    1.60
   5  -2 -10   21.24    2.05
   5  -2 -10   20.43    1.51
  -5  -2  10   20.79    1.79
  -5   2  10   17.93    1.46
   5  -2  10   22.55    1.65
  -5   2  10   18.97    2.15
  -5   2  10   20.13    1.40
   5   2 -10   18.95    1.50
  -5  -2 -10   18.27    1.46
   5  -3 -10    9.12    1.53
   5   3  10    9.04    1.47
  -5  -3  10    9.47    1.36
  -5   3 -10    6.93    1.21
  -5   3 -10    7.55    1.08
   5  -3 -10    6.95    1.16
  -5   3  10   10.11    1.20
  -5   3  10    7.52    1.06
  -5  -3 -10    7.83    1.05
   5  -3  10    8.74    1.36
   5   3 -10    8.14    1.22
   5  -4 -10   26.16    2.61
   5   4  10   33.49    2.82
  -5   4 -10   21.70    1.97
  -5   4 -10   28.89    2.27
  -5  -4  10   24.17    2.23
   5  -4 -10   25.29    1.90
  -5  -4 -10   24.70    1.82
   5  -4  10   24.09    2.01
  -5   4  10   21.89    1.88
   5   4 -10   26.46    1.91
   6   0  10    0.38    0.91
  -6   0  10   -0.64    1.06
   6   0 -10    1.17    0.89
  -6   0 -10   -0.61    0.86
  -6   0 -10    0.79    0.51
  -6   0  10   -0.16    0.77
  -6   0 -10    0.61    0.64
  -6  -1  10   24.62    1.65
  -6  -1  10   25.05    2.17
   6  -1 -10   24.29    1.74
  -6   1 -10   21.35    1.68
  -6   1 -10   23.12    1.42
   6  -1 -10   25.73    2.39
   6   1  10   17.83    1.93
  -6  -1 -10   22.68    0.84
   6  -1  10   20.38    1.97
  -6  -1 -10   23.51    0.84
  -6  -1 -10   25.77    1.78
   6   1 -10   24.40    1.80
  -6   1  10   23.86    2.15
  -6   1  10   23.32    1.55
   6   2  10    0.20    1.06
   6  -2 -10    2.04    1.04
   6  -2 -10    2.66    1.46
  -6   2 -10    1.14    1.03
  -6   2 -10    1.90    0.84
  -6  -2  10    2.71    1.12
  -6  -2  10    3.23    0.86
   6   2 -10    1.88    1.00
   6  -2  10    4.13    1.10
  -6   2  10    2.03    0.95
  -6  -2 -10    0.54    0.94
  -6   2  10    1.05    1.40
   6  -3 -10   16.90    1.56
   6   3  10   17.17    2.04
  -6   3 -10   17.10    1.83
  -6  -3  10   14.66    1.58
  -6  -3  10   16.03    1.66
   6  -3 -10   13.11    1.93
  -6   3 -10   18.14    1.84
   6   3 -10   15.99    1.70
  -6  -3 -10   16.64    1.69
   6  -3  10   16.21    1.77
  -6   3  10   15.48    1.50
  -7   0 -10   15.90    1.56
  -7   0 -10   13.07    1.04
  -7   0 -10   11.09    0.89
  -7   0  10   10.95    1.23
   7   0  10   10.03    1.61
  -7   0  10   10.46    1.61
   7   0 -10   15.77    1.65
  -7   1 -10   13.52    1.43
  -7   1 -10   15.85    1.26
   7  -1 -10   14.97    1.49
  -7  -1  10   13.41    1.39
   7   1  10   15.07    1.76
  -7  -1  10   15.08    1.77
   7   1 -10   12.79    1.40
  -7   1  10   13.00    1.85
  -7  -1 -10   13.68    1.46
  -7   1  10   14.98    1.44
   7  -1  10   15.27    1.65
   7  -2 -10    4.63    1.10
  -7   2 -10    4.07    1.09
  -7  -2  10    4.12    1.37
  -7   2 -10    2.05    0.91
  -7  -2  10    4.51    1.14
   7   2  10    0.60    1.29
  -7   2  10    3.14    1.72
  -7  -2 -10    3.89    1.15
  -7   2  10    4.58    1.23
   7  -2  10    4.10    1.40
   7   2 -10    2.66    1.15
   0   0 -11   -0.09    0.56
   0   0 -11   -0.13    0.60
   0   0  11   -1.12    0.53
   0   0  11   -0.74    0.67
   0   1 -11  124.55    3.56
   0  -1  11  129.46    3.87
   0   1  11  127.86    3.98
   0   1 -11  117.24    3.92
   0  -1  11  114.82    3.74
   0  -1 -11  124.60    3.88
   0  -1 -11  126.47    3.55
   0   2 -11   -0.50    0.57
   0  -2 -11   -0.47    0.55
   0  -2  11    0.11    0.59
   0  -2  11    0.46    0.68
   0  -2 -11   -0.22    0.60
   0   2  11    0.79    0.80
   0   2 -11   -0.12    0.71
   0   3  11  103.43    3.74
   0  -3  11  104.13    3.42
   0   3 -11   99.10    3.20
   0  -3 -11   99.72    3.33
   0   3 -11  102.73    3.67
   0  -3  11  100.31    3.80
   0  -3 -11  100.48    3.04
   0   3  11  100.35    2.63
   0  -4 -11   -0.16    0.77
   0  -4  11   -0.53    0.85
   0   4 -11   -0.26    0.77
   0  -4  11    0.20    1.26
   0  -4 -11    0.77    0.76
   0   4  11    0.58    0.68
   0   4 -11    0.22    1.14
   0   5 -11   42.60    3.07
   0   5 -11   40.45    2.22
   0  -5 -11   39.95    2.11
   0  -5  11   43.15    2.34
   0  -5  11   40.90    3.24
   0   5  11   42.97    2.05
   1   0 -11    0.11    0.55
   1   0 -11    0.04    0.64
  -1   0  11    0.15    0.55
  -1   0 -11    1.03    0.60
  -1   0  11    0.53    0.67
  -1   0 -11    0.15    0.58
   1   0  11    0.70    0.70
  -1   1 -11    6.02    0.86
   1   1  11    6.90    1.13
  -1  -1  11    6.52    0.83
   1  -1 -11    7.39    1.01
  -1   1 -11    6.56    0.91
   1  -1 -11    6.27    0.86
  -1  -1  11    5.86    0.97
   1   1 -11    6.74    1.01
  -1   1  11    7.16    0.83
  -1  -1 -11    5.30    0.86
  -1   1  11    6.92    0.38
   1   1 -11    6.17    0.86
  -1   1  11    6.99    1.07
  -1  -1 -11    6.17    0.83
   1  -1  11    6.60    1.02
  -1  -2  11   -0.24    0.88
   1  -2 -11   -0.17    0.63
  -1  -2  11    0.73    0.72
  -1   2 -11   -0.03    0.66
   1   2  11    1.41    0.92
  -1   2 -11    0.50    0.77
   1  -2 -11    1.07    0.69
   1   2 -11    0.69    0.84
  -1   2  11    0.22    0.30
   1  -2  11    0.17    0.73
   1   2 -11   -0.25    0.65
  -1   2  11    0.50    0.78
   1  -2  11    0.41    0.66
  -1  -2 -11   -0.03    0.54
  -1  -2 -11    0.14    0.65
  -1   3 -11    2.62    0.80
   1  -3 -11    2.63    0.79
   1  -3 -11    1.95    0.77
  -1  -3  11    2.06    0.84
  -1   3 -11    3.20    1.04
   1   3  11    2.18    1.12
  -1  -3 -11    2.66    0.79
   1   3 -11    2.49    1.11
  -1   3  11    2.69    0.65
   1   3 -11    2.91    0.82
  -1   3  11    2.76    1.03
   1  -3  11    2.08    0.84
  -1  -3 -11    2.02    0.66
   1  -4 -11    1.97    0.83
   1  -4 -11    0.52    0.85
  -1  -4  11    1.07    0.88
  -1   4 -11   -0.44    1.13
  -1  -4  11    0.91    1.33
  -1   4 -11   -0.50    0.79
   1   4 -11    0.28    1.28
  -1  -4 -11    0.54    0.63
   1   4 -11   -0.02    0.79
  -1  -4 -11    0.24    0.81
  -1   4  11    0.10    0.77
   1  -4  11   -0.03    0.88
  -1  -5  11    9.37    1.86
  -1   5 -11    6.10    1.69
   1  -5 -11    6.53    1.24
  -1  -5  11    8.77    1.34
  -1   5 -11    5.89    1.22
   1  -5  11    6.89    1.31
   1   5 -11    8.09    1.23
  -1   5  11    5.59    1.11
  -1  -5 -11    5.94    0.91
   2   0  11   33.30    1.95
  -2   0 -11   34.46    1.70
  -2   0  11   33.22    1.65
  -2   0  11   33.19    1.03
   2   0 -11   34.18    1.69
   2   0 -11   34.00    1.95
  -2   0  11   34.33    1.74
  -2   0 -11   36.37    1.74
  -2   1 -11    8.40    0.99
   2  -1 -11    9.26    1.08
   2   1  11    9.05    1.23
  -2  -1  11    7.28    1.04
  -2  -1  11    7.34    0.99
   2  -1 -11    9.31    1.03
  -2   1 -11    7.22    0.95
  -2   1  11    9.83    0.73
   2  -1  11    8.68    1.14
  -2   1  11    7.17    1.06
  -2  -1 -11    7.53    0.91
   2   1 -11    8.58    0.97
  -2   1  11   10.02    1.10
  -2  -1 -11    7.19    0.84
   2   1 -11    7.50    1.14
   2  -2 -11   31.68    1.60
  -2   2 -11   34.97    1.95
  -2  -2  11   29.80    2.01
   2  -2 -11   32.28    1.95
  -2   2 -11   32.23    1.75
   2   2  11   35.84    2.12
  -2  -2  11   35.40    1.74
  -2  -2 -11   32.10    1.66
  -2  -2 -11   31.80    1.54
   2   2 -11   30.98    2.10
   2   2 -11   31.65    1.63
   2  -2  11   30.87    1.80
  -2   2  11   37.59    2.03
  -2   2  11   34.27    1.33
  -2   3 -11    3.42    0.85
  -2   3 -11    3.24    0.98
  -2  -3  11    2.84    1.11
   2  -3 -11    2.85    0.94
  -2  -3  11    3.05    0.86
   2  -3 -11    3.93    0.88
   2   3  11    3.51    1.20
   2  -3  11    3.44    0.95
   2   3 -11    3.31    1.15
  -2  -3 -11    3.49    0.87
  -2   3  11    2.78    1.03
  -2  -3 -11    3.47    0.64
   2   3 -11    3.25    0.81
  -2   3  11    2.95    0.73
   2  -4 -11   15.32    1.73
   2  -4 -11   13.29    1.19
  -2   4 -11   14.47    1.55
  -2   4 -11   16.70    1.79
  -2  -4  11   15.72    1.59
  -2  -4  11   13.80    1.71
   2   4  11   13.67    1.72
   2   4 -11   20.51    2.38
  -2  -4 -11   16.38    1.50
   2   4 -11   14.46    1.54
  -2  -4 -11   12.87    1.10
  -2   4  11   14.50    1.42
   2  -4  11   16.69    1.52
  -2  -5  11    3.12    1.72
  -2  -5  11    2.62    1.11
  -2   5 -11    1.79    1.11
  -2   5 -11    2.95    1.50
   2  -5 -11    4.02    1.19
   2  -5  11    4.45    1.31
  -2  -5 -11    2.03    0.69
  -2   5  11    4.74    1.16
   2   5 -11    1.41    1.07
  -3   0  11    4.48    0.84
  -3   0  11    4.61    0.65
   3   0 -11    5.52    0.91
  -3   0  11    5.68    1.11
  -3   0 -11    5.15    0.76
  -3   0 -11    4.58    0.84
   3   0 -11    5.06    1.13
   3   0  11    5.46    0.99
   3  -1 -11    7.83    1.12
   3  -1 -11    8.37    1.00
  -3   1 -11   10.67    1.14
   3   1  11    7.89    1.22
  -3  -1  11   11.83    1.22
  -3  -1  11   11.88    1.39
  -3   1 -11    9.77    1.06
  -3  -1  11    9.11    0.83
  -3   1  11    7.64    1.27
  -3  -1 -11   10.12    1.07
   3  -1  11    8.70    1.19
   3   1 -11    9.28    1.04
  -3  -1 -11    9.63    1.00
  -3   1  11    8.97    1.07
  -3   1  11    9.50    0.94
   3   1 -11    8.40    1.25
   3   2  11    4.54    1.15
   3  -2 -11    4.67    1.02
  -3   2 -11    2.73    0.91
  -3  -2  11    3.09    1.07
  -3   2 -11    3.73    0.88
  -3  -2  11    2.82    0.90
   3  -2 -11    4.20    0.89
   3   2 -11    3.07    0.88
   3   2 -11    3.54    1.19
  -3  -2 -11    2.77    0.81
  -3  -2 -11    3.79    0.77
  -3   2  11    3.95    0.72
   3  -2  11    3.25    0.93
  -3   2  11    3.00    0.98
  -3  -2 -11    3.21    0.61
  -3   3 -11    3.18    0.90
  -3  -3  11    3.68    1.16
   3   3  11    6.46    1.38
  -3   3 -11    3.99    1.07
  -3  -3  11    4.96    0.89
   3  -3 -11    6.04    1.21
   3  -3 -11    4.49    0.94
   3   3 -11    1.29    0.84
   3   3 -11    5.29    1.43
  -3   3  11    6.26    1.22
  -3  -3 -11    4.81    0.72
  -3   3  11    4.19    0.88
   3  -3  11    3.00    1.15
  -3  -3 -11    5.19    0.89
  -3  -3 -11    4.28    0.62
  -3   4 -11    1.73    1.04
  -3  -4  11    3.44    1.47
   3  -4 -11    1.88    0.96
  -3  -4  11    1.06    0.95
  -3   4 -11    1.85    1.17
   3  -4 -11    1.46    1.14
   3   4  11    1.84    1.23
  -3  -4 -11    1.67    0.50
  -3  -4 -11    2.06    1.01
   3   4 -11    1.30    0.96
   3  -4  11    2.17    0.99
  -3   4  11    0.37    0.89
  -3  -4 -11    1.55    0.57
   3  -5 -11    7.42    1.51
  -3  -5  11    4.71    1.25
  -3  -5  11    3.64    1.62
  -3   5 -11    7.24    1.27
  -3   5 -11    8.93    1.76
   3  -5  11    7.60    1.40
  -3   5  11    6.52    1.30
   3   5 -11    7.28    1.32
  -4   0 -11    5.88    0.93
  -4   0 -11    6.78    0.86
   4   0 -11    5.93    1.00
   4   0  11    5.45    1.09
  -4   0  11    7.14    0.95
   4   0 -11    5.76    1.19
  -4   0  11    6.82    1.30
  -4   0  11    6.36    0.76
   4  -1 -11   20.52    2.00
  -4   1 -11   17.23    1.42
  -4  -1  11   19.94    1.22
  -4   1 -11   18.72    1.49
   4  -1 -11   19.02    1.49
  -4  -1  11   16.80    1.37
   4   1  11   18.56    1.84
  -4  -1  11   24.32    2.01
  -4   1  11   20.95    1.97
  -4   1  11   16.41    1.46
  -4  -1 -11   17.18    1.28
  -4  -1 -11   17.20    1.16
   4  -1  11   18.00    1.66
  -4  -1 -11   19.21    1.39
   4   1 -11   15.05    1.64
   4   1 -11   19.68    1.46
  -4   1  11   19.10    1.29
   4  -2 -11    8.24    1.32
  -4  -2  11    7.95    0.88
  -4  -2  11    7.48    0.94
   4   2  11    7.70    1.42
   4  -2 -11   10.26    1.14
  -4   2 -11    8.78    1.21
  -4   2 -11    6.77    1.13
  -4  -2  11    8.54    1.29
  -4  -2 -11    6.63    0.68
   4  -2  11    9.34    1.26
  -4  -2 -11    6.55    1.06
   4   2 -11    7.72    1.05
   4   2 -11    7.88    1.56
  -4   2  11    7.97    1.16
  -4   2  11    8.61    0.97
  -4  -2 -11    7.90    0.74
   4  -3 -11   16.12    1.72
  -4   3 -11   17.19    1.59
   4   3  11   17.74    1.95
  -4  -3  11   15.38    1.67
  -4   3 -11   17.34    1.78
  -4  -3  11   18.47    1.42
   4  -3 -11   16.46    1.66
  -4  -3 -11   18.04    0.79
  -4  -3 -11   16.64    0.76
  -4  -3 -11   20.65    1.62
   4   3 -11   17.91    1.57
   4  -3  11   15.10    1.66
  -4   3  11   23.43    1.94
  -4   3  11   18.67    1.49
   4   4  11    7.08    1.64
   4  -4 -11    2.26    1.09
  -4   4 -11    3.38    1.26
  -4   4 -11    0.01    1.04
   4  -4 -11    2.43    1.34
   4  -4  11    2.53    1.12
  -4  -4 -11    3.17    1.11
  -4   4  11    3.69    1.41
  -4   4  11    1.98    1.09
   4   4 -11    1.95    1.26
   4   4 -11   -0.32    1.05
   5   0 -11    5.44    1.08
  -5   0  11    4.89    1.28
  -5   0  11    6.44    0.84
   5   0 -11    5.39    1.37
  -5   0 -11    4.33    1.03
  -5   0 -11    5.57    0.78
   5   0  11    7.66    1.29
   5   1  11   14.25    1.61
  -5   1 -11   14.75    1.57
   5  -1 -11   12.81    1.38
   5  -1 -11   13.29    1.68
  -5  -1  11   11.92    1.56
  -5   1 -11   15.69    1.36
  -5  -1  11   16.53    1.38
  -5   1  11   16.73    1.38
  -5  -1 -11   15.55    1.49
   5  -1  11   14.86    1.62
  -5  -1 -11   12.30    1.11
   5   1 -11   15.42    1.46
  -5  -1 -11   15.03    0.99
  -5   1  11   14.33    1.71
   5   1 -11   14.03    1.85
   5  -2 -11    4.43    1.08
  -5  -2  11    5.32    1.33
   5  -2 -11    4.24    1.41
  -5   2 -11    3.90    1.11
  -5   2 -11    4.91    1.01
   5   2  11    6.01    1.46
  -5  -2  11    5.50    0.93
  -5  -2 -11    3.21    1.08
   5  -2  11    4.86    1.18
  -5   2  11    5.73    1.02
   5   2 -11    4.41    1.08
   5  -3 -11    6.72    1.57
   5  -3 -11    8.57    1.28
  -5   3 -11    6.04    1.30
  -5  -3  11    5.90    1.38
   5   3  11    8.08    1.60
  -5   3 -11    7.01    1.27
  -5   3  11    7.78    1.18
   5  -3  11    8.14    1.48
   5   3 -11    6.96    1.21
  -5  -3 -11    6.61    1.14
   6   0 -11    8.46    1.32
   6   0  11    6.66    1.37
  -6   0 -11    9.54    1.06
  -6   0  11    7.23    1.06
  -6   0  11    7.78    1.58
  -6   0 -11    6.20    1.28
  -6   1 -11   33.77    1.80
   6   1  11   35.00    2.50
   6  -1 -11   33.30    2.01
  -6  -1  11   33.37    2.66
  -6  -1  11   35.64    1.94
  -6   1  11   34.91    1.92
  -6  -1 -11   33.94    1.11
  -6  -1 -11   35.36    2.16
   6   1 -11   34.64    2.19
  -6  -1 -11   34.15    1.14
  -6   1  11   32.08    2.69
   6  -1  11   29.63    2.35
   6  -2 -11   12.47    1.47
  -6  -2  11   12.22    1.28
  -6  -2  11   10.81    1.55
   6  -2 -11   12.10    1.95
  -6   2 -11   11.44    1.46
  -6   2 -11   11.06    1.27
   6   2  11    9.47    1.75
  -6   2  11   11.48    1.29
   6  -2  11   12.95    1.65
  -6  -2 -11   11.29    1.37
   6   2 -11   11.80    1.53
   7   0 -11    6.29    1.42
   7   0  11   12.58    1.87
  -7   0  11    8.73    1.85
  -7   0 -11    8.27    1.30
  -7   0 -11    8.36    0.93
  -7   0  11   10.16    1.31
   0   0 -12    1.64    0.73
   0   0 -12    1.44    0.74
   0   0  12    1.27    0.81
   0  -1  12   -0.73    0.87
   0  -1 -12   -0.65    0.71
   0   1 -12   -0.47    0.83
   0  -1 -12   -0.17    0.74
   0   1  12   -1.81    0.86
   0   1 -12    0.81    0.65
   0   2  12    0.73    1.04
   0  -2  12    1.16    0.83
   0   2 -12    0.57    0.93
   0  -2 -12    0.00    0.75
   0  -2 -12    2.14    0.85
   0   2 -12    0.46    0.74
   0   3 -12    2.12    1.07
   0  -3  12   -1.39    0.92
   0  -3 -12    0.03    0.76
   0   3  12    2.76    1.16
   0   3 -12    0.09    0.83
   0  -3 -12    0.13    0.77
   0   4 -12    1.19    1.05
   0  -4  12    2.25    1.13
   0   4  12    3.06    1.30
   0  -4 -12    3.82    1.05
   0   4 -12    1.10    1.43
   0  -4 -12    2.41    0.88
   1   0 -12   14.26    1.63
  -1   0 -12   14.51    1.30
   1   0  12   14.27    1.45
   1   0 -12   14.40    1.28
  -1   0  12   14.55    1.48
  -1   0 -12   14.94    1.42
  -1   1 -12    2.32    0.84
  -1  -1  12    4.18    1.00
  -1   1 -12    2.08    0.76
   1  -1 -12    3.48    0.85
   1  -1 -12    1.85    0.87
   1   1  12    1.24    1.01
   1  -1  12    2.78    0.92
   1   1 -12    4.25    1.06
   1   1 -12    4.28    0.85
  -1   1  12    1.97    0.96
  -1  -1 -12    2.70    0.80
  -1  -1 -12    3.84    0.86
  -1   2 -12    3.62    0.88
  -1  -2  12    3.36    1.21
   1  -2 -12    3.54    1.01
   1   2  12    5.78    1.24
  -1   2 -12    4.83    1.08
  -1  -2  12    5.61    1.06
   1  -2 -12    3.04    0.84
   1  -2  12    5.42    1.01
  -1  -2 -12    3.00    0.83
  -1   2  12    2.14    1.10
   1   2 -12    4.11    1.18
   1   2 -12    3.87    0.91
  -1  -2 -12    3.79    0.92
   1   3  12    3.58    1.24
  -1   3 -12    1.41    0.90
   1  -3 -12    1.28    0.89
  -1  -3  12    1.94    1.47
   1  -3 -12    1.43    0.90
  -1   3 -12    2.22    1.15
  -1  -3  12    1.74    0.95
  -1  -3 -12    2.35    0.85
   1  -3  12    1.72    1.00
  -1  -3 -12    2.15    0.75
   1   3 -12    1.05    0.83
  -1   3  12    4.38    1.26
   1   3 -12    3.15    1.35
  -1   4 -12    4.37    1.59
   1  -4 -12    6.26    1.25
  -1  -4  12    6.74    1.18
   1  -4 -12    3.91    1.08
  -1   4 -12    5.52    1.20
   1   4  12    4.62    1.58
   1   4 -12    5.24    1.14
  -1   4  12    8.09    1.53
  -1  -4 -12    4.44    1.07
  -1  -4 -12    4.53    0.89
   1  -4  12    5.00    1.29
   1   4 -12    5.67    1.65
   2   0 -12   90.84    3.04
  -2   0 -12   92.38    3.19
   2   0  12   86.33    3.32
  -2   0 -12   90.44    3.01
   2   0 -12   90.44    3.45
  -2   0  12   92.39    3.16
   2  -1 -12   10.56    1.34
  -2   1 -12    8.88    1.08
  -2  -1  12   10.13    1.44
   2  -1 -12   10.91    1.18
  -2  -1  12    7.13    1.05
   2   1  12    7.17    1.39
  -2   1 -12   10.48    1.21
   2   1 -12    7.62    1.02
   2  -1  12    9.20    1.40
  -2   1  12    9.24    1.17
   2   1 -12    8.97    1.36
  -2  -1 -12   11.10    1.15
  -2  -1 -12   10.53    1.24
  -2   2 -12   67.76    2.92
   2  -2 -12   71.76    2.55
   2  -2 -12   73.48    2.99
  -2  -2  12   69.61    2.66
   2   2  12   61.68    3.07
  -2   2 -12   67.11    2.66
  -2  -2  12   70.97    3.12
  -2  -2 -12   67.58    2.51
  -2  -2 -12   69.40    2.59
   2  -2  12   72.14    2.84
  -2   2  12   70.09    2.96
   2   2 -12   70.63    3.20
   2   2 -12   66.60    2.63
  -2  -3  12    5.99    1.55
  -2   3 -12    6.72    1.06
   2  -3 -12    8.45    1.30
   2  -3 -12    6.40    1.05
   2   3  12    8.93    1.48
  -2  -3  12    7.40    1.15
  -2   3 -12    6.75    1.37
  -2   3  12    9.60    1.45
   2  -3  12    6.64    1.24
   2   3 -12    5.78    1.52
  -2  -3 -12    4.08    0.96
  -2  -3 -12    6.70    0.87
   2   3 -12    6.01    1.12
  -2  -4  12   54.85    2.58
   2   4  12   55.11    3.23
   2  -4 -12   54.88    2.82
  -2  -4  12   54.29    3.50
  -2   4 -12   54.63    2.57
  -2   4 -12   52.85    3.11
   2  -4 -12   55.62    2.37
  -2  -4 -12   54.62    2.16
  -2  -4 -12   52.57    2.41
   2   4 -12   53.78    2.54
  -2   4  12   57.49    3.16
   2  -4  12   57.69    2.76
  -3   0  12    0.93    1.24
   3   0 -12    1.49    1.10
  -3   0 -12    2.82    0.81
  -3   0 -12    1.48    0.89
   3   0 -12    1.64    0.89
  -3   0  12   -0.02    0.83
   3   0  12    0.46    0.91
  -3   1 -12   11.78    1.30
   3  -1 -12   18.06    1.92
   3   1  12   13.34    1.64
  -3   1 -12   14.34    1.53
  -3  -1  12   15.96    1.67
  -3  -1  12   17.38    1.45
   3  -1 -12   16.56    1.53
  -3  -1 -12   17.95    1.51
  -3   1  12   13.53    1.52
  -3   1  12   15.24    1.18
  -3  -1 -12   17.65    1.31
   3  -1  12   15.91    1.63
   3   1 -12   15.25    1.45
   3   1 -12   15.76    1.75
   3  -2 -12    0.04    0.83
  -3   2 -12   -0.28    0.88
  -3   2 -12   -0.67    0.87
  -3  -2  12    0.54    1.25
   3   2  12   -0.02    1.08
   3  -2 -12   -0.50    1.05
  -3  -2  12   -0.23    0.90
   3   2 -12   -0.78    0.79
   3  -2  12    0.97    0.97
  -3  -2 -12    0.23    0.62
  -3   2  12    0.56    1.09
  -3   2  12    0.39    0.74
   3   2 -12   -0.65    1.25
  -3  -2 -12    1.12    0.92
  -3  -3  12   12.39    1.29
   3   3  12   12.89    1.74
   3  -3 -12   12.38    1.36
  -3  -3  12   13.72    1.70
   3  -3 -12   11.82    1.55
  -3   3 -12   11.25    1.58
  -3   3 -12   10.81    1.38
  -3  -3 -12   11.83    1.13
  -3  -3 -12   12.55    1.28
   3   3 -12   12.58    1.35
  -3   3  12   11.23    1.14
   3  -3  12    9.88    1.42
  -3   4 -12    2.20    1.37
   3  -4 -12    0.61    1.23
  -3  -4  12    0.98    1.73
   3   4  12    2.80    1.64
   3  -4 -12    1.87    1.18
  -3  -4  12    2.22    1.14
  -3   4 -12    0.91    1.05
  -3  -4 -12    0.73    0.58
  -3   4  12    0.47    1.47
  -3  -4 -12    0.85    1.16
  -3   4  12   -1.29    1.11
   3   4 -12    1.53    1.17
   3  -4  12    1.80    1.15
  -4   0  12    6.63    1.07
  -4   0  12    4.88    1.41
   4   0 -12    7.00    1.51
  -4   0 -12    5.80    1.12
  -4   0  12    5.32    0.85
   4   0  12    7.81    1.32
   4   0 -12    5.25    1.06
  -4   0 -12    5.14    0.87
  -4   1 -12   36.54    2.02
  -4  -1  12   37.92    1.95
   4  -1 -12   39.12    2.14
  -4  -1  12   36.12    1.58
  -4   1 -12   37.41    2.00
   4  -1 -12   43.37    2.61
  -4  -1  12   34.79    2.65
   4   1  12   32.64    2.29
   4  -1  12   38.82    2.25
  -4   1  12   35.94    2.08
  -4  -1 -12   35.70    1.69
  -4   1  12   36.28    1.73
   4   1 -12   37.46    2.11
   4   1 -12   33.42    2.59
  -4  -2  12    7.88    1.53
   4   2  12    5.62    1.43
   4  -2 -12    8.16    1.59
  -4   2 -12    6.25    1.23
   4  -2 -12    6.77    1.22
  -4   2 -12    7.21    1.17
   4  -2  12    8.09    1.25
  -4  -2 -12    6.50    1.21
  -4   2  12    5.04    1.24
  -4   2  12    7.27    1.05
  -4  -2 -12    6.05    0.73
   4   2 -12    5.36    1.18
  -4  -2 -12    6.90    0.88
   4  -3 -12   28.54    2.02
  -4   3 -12   28.29    1.92
  -4   3 -12   25.73    2.16
   4  -3 -12   32.20    2.61
   4   3  12   33.17    2.61
  -4  -3  12   29.67    2.72
   4  -3  12   31.51    2.25
  -4  -3 -12   27.38    1.09
   4   3 -12   26.67    2.08
  -4   3  12   30.76    1.92
  -4   3  12   30.52    2.52
  -4  -3 -12   28.35    1.11
  -4  -3 -12   28.56    1.99
   5   0 -12    9.52    1.80
   5   0  12    6.23    1.37
  -5   0 -12    6.43    1.21
  -5   0 -12    6.63    0.93
   5   0 -12    6.98    1.18
  -5   0  12    6.88    1.75
  -5   0  12    5.99    1.04
  -5   1 -12    1.43    1.04
  -5  -1  12    2.57    0.92
   5   1  12    2.10    1.22
   5  -1 -12    2.16    1.48
  -5  -1  12    2.20    1.47
  -5   1 -12    1.92    0.90
   5  -1 -12    3.25    1.06
  -5  -1 -12    2.82    1.13
   5  -1  12    0.69    1.28
   5   1 -12    3.10    1.05
  -5   1  12    0.53    0.96
  -5  -1 -12    2.05    0.62
   5   2  12   13.31    1.90
  -5   2 -12   16.68    1.82
  -5   2 -12   12.77    1.51
   5  -2 -12   16.61    2.05
   5  -2 -12   12.51    1.42
  -5  -2  12   12.75    1.88
  -5  -2  12   13.31    1.30
  -5   2  12   14.81    1.40
  -5  -2 -12   14.11    1.51
   5   2 -12   15.49    1.54
   5  -2  12   13.55    1.66
  -6   0  12    3.85    1.22
   6   0 -12    5.81    1.39
  -6   0 -12    7.43    0.89
  -6   0  12    7.83    1.96
   6   0  12    7.31    1.54
  -6   0 -12    6.42    1.44
   6  -1 -12   -0.09    1.14
  -6   1 -12   -0.10    1.11
   6   1  12   -2.63    1.32
  -6  -1 -12   -1.02    1.09
   6   1 -12   -0.56    1.19
   0   0  13   -0.34    1.00
   0   0 -13   -0.39    0.91
   0   0 -13   -0.59    0.78
   0   1 -13   19.57    1.99
   0  -1 -13   18.92    1.62
   0   1  13   18.78    1.94
   0  -1  13   23.52    1.87
   0   1 -13   18.66    1.55
   0  -1 -13   21.08    1.79
   0  -2  13    0.77    1.11
   0   2 -13   -0.13    1.14
   0  -2 -13    0.07    0.85
   0  -2 -13   -0.96    0.82
   0   2 -13    1.06    0.93
   0   2  13   -2.20    1.22
   0  -3  13   13.46    1.64
   0  -3 -13   17.23    1.83
   0   3 -13   14.86    1.53
   0   3  13   16.69    1.93
   0   3 -13   14.75    1.86
   0  -3 -13   13.67    1.42
   0   4  13    1.03    1.55
   1   0 -13   13.29    1.47
  -1   0 -13   13.24    1.41
   1   0 -13   14.38    1.37
  -1   0 -13   14.55    1.68
   1   0  13   13.49    1.60
  -1   0  13   13.32    1.42
   1   1  13   -0.88    0.94
  -1  -1  13   -0.83    0.94
   1  -1 -13   -0.31    0.90
  -1   1 -13   -0.05    0.99
  -1   1 -13    0.49    0.82
   1  -1 -13   -1.22    0.84
   1  -1  13    1.21    1.03
  -1  -1 -13   -0.80    0.77
  -1   1  13   -0.75    0.96
   1   1 -13   -0.57    0.98
  -1  -1 -13    0.07    0.89
   1   1 -13   -0.46    0.81
   1   2  13   11.57    1.73
  -1  -2  13   11.82    1.38
  -1   2 -13    9.83    1.39
   1  -2 -13    9.71    1.34
   1  -2 -13    7.87    1.11
  -1   2 -13    8.52    1.18
   1   2 -13   10.36    1.25
   1  -2  13    9.35    1.33
  -1  -2 -13    8.52    1.12
   1   2 -13   10.84    1.60
  -1  -2 -13   10.31    1.26
  -1   2  13   12.41    1.69
   1   3  13    2.01    1.42
  -1   3 -13   -0.80    1.05
   1  -3 -13    1.95    1.08
   1  -3 -13    0.35    0.96
  -1   3 -13   -1.03    1.19
  -1  -3  13    1.99    1.09
  -1   3  13    0.28    1.34
  -1  -3 -13   -0.07    0.99
  -1  -3 -13    0.08    0.80
   1   3 -13    1.05    1.45
   1   3 -13    0.78    1.05
   1  -3  13   -0.05    1.15
  -2   0 -13    0.83    0.87
  -2   0  13    1.05    1.01
  -2   0 -13    1.48    0.91
   2   0 -13    0.41    0.91
   2   0 -13   -0.62    1.08
   2   0  13    0.29    1.02
  -2   1 -13    1.69    0.89
  -2  -1  13    0.93    0.98
  -2   1 -13    1.73    0.90
   2   1  13   -1.61    0.98
   2  -1 -13   -0.32    1.10
   2  -1 -13    1.29    0.94
  -2   1  13    0.30    1.09
   2  -1  13    0.93    1.09
   2   1 -13    1.31    1.28
  -2  -1 -13   -0.31    0.82
   2   1 -13    1.20    0.94
  -2  -1 -13    1.37    0.76
   2  -2 -13   -0.17    0.96
  -2  -2  13    0.50    1.02
  -2   2 -13    0.22    0.94
   2  -2 -13    0.16    1.05
   2   2  13    0.03    1.19
  -2   2 -13   -0.71    0.99
   2   2 -13    1.05    1.39
  -2  -2 -13   -0.66    0.91
  -2  -2 -13    0.96    0.78
   2   2 -13    0.12    0.91
  -2   2  13   -0.67    1.19
   2  -2  13    1.71    1.06
   2   3  13    3.42    1.62
  -2   3 -13    0.84    1.13
   2  -3 -13    1.30    1.21
  -2  -3  13    0.41    1.16
   2  -3 -13   -2.22    0.97
  -2   3 -13   -1.34    1.32
  -2  -3 -13    0.14    1.08
  -2  -3 -13    0.59    0.81
  -2   3  13    5.08    1.50
   2   3 -13    1.91    1.03
   2   3 -13    2.18    1.73
   2  -3  13    0.99    1.18
  -3   0  13    0.75    1.08
  -3   0 -13    1.17    0.92
   3   0  13    1.55    1.05
  -3   0 -13    1.63    0.83
   3   0 -13    2.04    0.94
   3   0 -13    0.51    1.30
   3  -1 -13   14.28    1.82
  -3  -1  13   11.91    1.36
   3  -1 -13    9.56    1.30
  -3   1 -13    8.40    1.25
   3   1  13   10.23    1.56
  -3   1 -13   10.55    1.32
   3   1 -13   11.35    1.39
  -3  -1 -13   12.54    1.41
   3  -1  13   13.09    1.60
  -3  -1 -13    9.67    1.31
  -3   1  13   12.00    1.52
   3   1 -13   12.92    1.88
   3  -2 -13    2.06    1.00
  -3   2 -13    1.97    1.04
   3  -2 -13    3.32    1.27
  -3  -2  13    2.48    1.14
   3   2  13    1.18    1.34
  -3   2 -13    3.05    1.13
   3  -2  13    3.31    1.22
  -3   2  13    0.47    1.26
   3   2 -13    2.34    1.64
   3   2 -13    2.10    1.07
  -3  -2 -13    3.40    0.82
  -3  -2 -13    2.59    1.10
   3   3  13   13.03    2.06
   3  -3 -13   12.38    1.79
   3  -3 -13   13.21    1.53
  -3   3 -13   10.99    1.70
  -3   3 -13   11.80    1.61
  -3  -3  13   11.15    1.41
  -3   3  13   10.57    1.86
  -3  -3 -13   12.35    1.29
   3   3 -13   15.10    1.58
  -3  -3 -13   11.94    1.43
   3  -3  13   13.96    1.74
  -4   0 -13    3.06    0.91
   4   0 -13    3.81    1.17
   4   0  13    2.62    1.32
  -4   0 -13    2.63    1.08
   4   0 -13    2.86    1.68
   4  -1 -13   11.36    1.39
   4   1  13   11.40    1.68
   4  -1 -13   10.05    1.90
  -4   1 -13   13.55    1.55
  -4   1 -13    8.51    1.23
   4  -1  13   11.47    1.69
   4   1 -13   10.01    1.93
  -4  -1 -13   11.91    1.45
  -4  -1 -13   11.26    1.33
   4   1 -13   10.77    1.45
   4   2  13   -1.35    1.45
  -4   2 -13    0.88    1.23
   4  -2 -13    0.88    1.12
  -4   2 -13    2.88    1.26
   4  -2 -13    0.55    1.41
   4  -2  13    0.85    1.26
  -4  -2 -13    1.22    0.67
  -4  -2 -13    0.33    1.11
   4   2 -13   -0.59    1.16
   0   0 -14   42.50    2.21
   0   0 -14   41.09    2.62
   0   0  14   45.78    2.57
   0   1  14   -0.63    1.13
   0  -1 -14   -0.90    0.95
   0  -1 -14    0.81    1.06
   0  -1  14    0.28    1.12
   0   1 -14    0.46    0.92
   0   1 -14   -0.27    1.22
   0   2 -14   47.69    3.08
   0  -2 -14   44.02    2.43
   0  -2  14   49.06    2.75
   0   2 -14   40.96    2.32
   0   2  14   40.05    2.81
   0  -2 -14   43.67    2.55
  -1   0 -14   11.10    1.43
   1   0 -14   11.42    1.63
  -1   0  14   11.18    1.49
   1   0 -14   11.38    1.39
  -1   0 -14   11.27    1.43
   1   0  14   12.03    1.73
   1   1  14    7.63    1.59
  -1   1 -14    7.22    1.42
  -1  -1  14    5.46    1.37
   1  -1 -14    6.35    1.39
  -1   1 -14    6.17    1.28
   1  -1 -14    7.29    1.23
   1   1 -14    6.96    1.58
  -1  -1 -14    5.97    1.26
  -1   1  14    6.89    1.50
   1  -1  14    6.96    1.49
   1   1 -14    5.20    1.19
  -1  -1 -14    7.03    1.24
  -1   2 -14   12.94    1.68
   1  -2 -14   11.75    1.62
  -1  -2  14   13.54    1.65
   1  -2 -14   12.40    1.47
  -1   2 -14   10.38    1.48
   1   2  14   11.60    1.86
   1   2 -14   12.83    1.88
  -1   2  14   12.01    1.86
   1   2 -14   11.57    1.41
   1  -2  14   15.19    1.78
  -1  -2 -14   13.06    1.45
  -1  -2 -14   15.16    1.59
   2   0 -14    0.39    1.43
  -2   0  14   -0.45    1.21
   2   0 -14    0.52    1.01
  -2   0 -14    0.56    1.00
   2   0  14   -0.64    1.26
  -2   0 -14   -0.96    0.97
  -2  -1  14    9.98    1.51
  -2   1 -14    6.53    1.32
   2   1  14    6.93    1.46
   2  -1 -14    9.46    1.63
   2  -1 -14    7.79    1.31
  -2   1 -14    9.40    1.39
  -2  -1 -14    9.03    1.39
  -2  -1 -14    7.79    1.20
   2   1 -14   10.03    1.45
  -2   1  14   10.19    1.57
   2   1 -14    6.74    1.73
   2  -1  14    6.72    1.51
  -2   2 -14   -1.41    1.13
   2  -2 -14    0.67    1.43
  -2   2 -14   -2.01    1.25
   2  -2 -14   -0.03    1.15
   2   2  14   -2.40    1.44
  -2  -2  14   -1.01    1.36
  -2  -2 -14   -1.11    1.17
   2  -2  14    0.98    1.37
   2   2 -14    1.24    1.74
   2   2 -14    0.07    1.14
  -2  -2 -14   -0.15    0.93
  -2   2  14   -0.02    1.41
  -3   0 -14   -0.76    1.10
   3   0 -14   -2.17    1.53
  -3   0  14   -2.43    1.27
   3   0 -14   -0.72    1.01
   3   0  14    1.30    1.40
  -3   0 -14    0.66    1.00
  -3   1 -14    2.35    1.19
   3   1  14    4.25    1.57
   3  -1 -14    5.38    1.30
   3  -1  14    4.15    1.63
   3   1 -14    2.67    1.17
  -3   1  14    4.36    1.45
  -3  -1 -14    2.84    1.34
   0   0   0    0.00    0.00
;
_shelx_hkl_checksum              80916
loop_
_space_group_symop_operation_xyz
'x, y, z'
'-x+1/2, -y, z+1/2'
'-x, y+1/2, -z'
'x+1/2, -y+1/2, -z+1/2'
'-x, -y, -z'
'x-1/2, y, -z-1/2'
'x, -y-1/2, z'
'-x-1/2, y-1/2, z-1/2'
loop_
_atom_site_label
_atom_site_type_symbol
_atom_site_fract_x
_atom_site_fract_y
_atom_site_fract_z
_atom_site_U_iso_or_equiv
_atom_site_adp_type
_atom_site_occupancy
_atom_site_site_symmetry_order
_atom_site_calc_flag
_atom_site_refinement_flags_posn
_atom_site_refinement_flags_adp
_atom_site_refinement_flags_occupancy
O1 O 0.2385(3) 0.0223(3) 0.32015(19) 0.0338(5) Uani 1 1 d . . .
O2 O 0.0082(3) 0.2500 0.0581(2) 0.0283(6) Uani 1 2 d S T P
N1 N 0.1612(4) 0.2500 0.5565(3) 0.0312(8) Uani 1 2 d S T P
P1 P 0.28252(9) 0.2500 0.41599(6) 0.00820(17) Uani 1 2 d S T P
Ca1 Ca 0.33890(8) 0.2500 0.07226(6) 0.01954(18) Uani 1 2 d S T P
Ca2 Ca 0.48232(8) 0.2500 0.70320(6) 0.01294(16) Uani 1 2 d S T P
loop_
_atom_site_aniso_label
_atom_site_aniso_U_11
_atom_site_aniso_U_22
_atom_site_aniso_U_33
_atom_site_aniso_U_23
_atom_site_aniso_U_13
_atom_site_aniso_U_12
O1 0.0369(10) 0.0204(8) 0.0441(10) -0.0166(7) -0.0202(9) 0.0088(7)
O2 0.0069(9) 0.0596(18) 0.0183(10) 0.000 0.0016(8) 0.000
N1 0.0098(11) 0.076(3) 0.0079(10) 0.000 0.0024(9) 0.000
P1 0.0061(3) 0.0106(3) 0.0079(3) 0.000 -0.0002(2) 0.000
Ca1 0.0088(3) 0.0300(3) 0.0199(3) 0.000 -0.0001(2) 0.000
Ca2 0.0084(2) 0.0207(3) 0.0097(3) 0.000 0.00092(17) 0.000
loop_
_atom_type_symbol
_atom_type_description
_atom_type_scat_dispersion_real
_atom_type_scat_dispersion_imag
_atom_type_scat_source
N N 0.0061 0.0000 'International Tables Vol C Tables 4.2.6.8 and 6.1.1.4'
O O 0.0106 0.0000 'International Tables Vol C Tables 4.2.6.8 and 6.1.1.4'
P P 0.1023 0.0000 'International Tables Vol C Tables 4.2.6.8 and 6.1.1.4'
Ca Ca 0.2262 0.0000 'International Tables Vol C Tables 4.2.6.8 and 6.1.1.4'
loop_
_geom_angle_atom_site_label_1
_geom_angle_atom_site_label_2
_geom_angle_atom_site_label_3
_geom_angle
_geom_angle_site_symmetry_1
_geom_angle_site_symmetry_3
P1 O1 Ca2 151.94(11) . 2_554
P1 O1 Ca2 112.84(9) . 5_656
Ca2 O1 Ca2 94.10(6) 2_554 5_656
P1 O1 Ca1 94.95(9) . .
Ca2 O1 Ca1 92.54(6) 2_554 .
Ca2 O1 Ca1 90.23(7) 5_656 .
P1 O1 Ca1 88.06(8) . 2
Ca2 O1 Ca1 86.89(6) 2_554 2
Ca2 O1 Ca1 84.38(6) 5_656 2
Ca1 O1 Ca1 174.52(7) . 2
P1 O2 Ca1 167.54(15) 6_556 .
P1 O2 Ca2 94.98(11) 6_556 6_556
Ca1 O2 Ca2 97.49(8) . 6_556
P1 O2 Ca2 87.15(6) 6_556 2_564
Ca1 O2 Ca2 87.26(5) . 2_564
Ca2 O2 Ca2 116.70(4) 6_556 2_564
P1 O2 Ca2 87.15(6) 6_556 2_554
Ca1 O2 Ca2 87.26(5) . 2_554
Ca2 O2 Ca2 116.70(4) 6_556 2_554
Ca2 O2 Ca2 126.59(8) 2_564 2_554
P1 N1 Ca1 92.96(11) . 6_556
P1 N1 Ca2 176.31(16) . 6_557
Ca1 N1 Ca2 90.73(8) 6_556 6_557
P1 N1 Ca2 90.40(12) . .
Ca1 N1 Ca2 176.64(11) 6_556 .
Ca2 N1 Ca2 85.90(7) 6_557 .
P1 N1 Ca1 92.66(5) . 2_565
Ca1 N1 Ca1 91.50(6) 6_556 2_565
Ca2 N1 Ca1 87.24(5) 6_557 2_565
Ca2 N1 Ca1 88.34(6) . 2_565
P1 N1 Ca1 92.66(5) . 2
Ca1 N1 Ca1 91.50(6) 6_556 2
Ca2 N1 Ca1 87.24(5) 6_557 2
Ca2 N1 Ca1 88.34(6) . 2
Ca1 N1 Ca1 173.75(11) 2_565 2
O2 P1 N1 112.87(14) 6_656 .
O2 P1 O1 106.28(9) 6_656 .
N1 P1 O1 112.90(10) . .
O2 P1 O1 106.28(9) 6_656 7_565
N1 P1 O1 112.89(10) . 7_565
O1 P1 O1 104.98(14) . 7_565
O2 P1 Ca1 168.84(9) 6_656 6_556
N1 P1 Ca1 55.96(10) . 6_556
O1 P1 Ca1 80.19(7) . 6_556
O1 P1 Ca1 80.19(7) 7_565 6_556
O2 P1 Ca2 54.28(9) 6_656 .
N1 P1 Ca2 58.59(10) . .
O1 P1 Ca2 127.05(7) . .
O1 P1 Ca2 127.05(7) 7_565 .
Ca1 P1 Ca2 114.55(2) 6_556 .
O2 P1 Ca1 100.50(5) 6_656 2_565
N1 P1 Ca1 58.226(14) . 2_565
O1 P1 Ca1 152.92(7) . 2_565
O1 P1 Ca1 62.75(8) 7_565 2_565
Ca1 P1 Ca1 74.068(17) 6_556 2_565
Ca2 P1 Ca1 72.827(16) . 2_565
O2 P1 Ca1 100.50(5) 6_656 2
N1 P1 Ca1 58.226(13) . 2
O1 P1 Ca1 62.76(8) . 2
O1 P1 Ca1 152.92(7) 7_565 2
Ca1 P1 Ca1 74.068(17) 6_556 2
Ca2 P1 Ca1 72.827(16) . 2
Ca1 P1 Ca1 116.38(3) 2_565 2
O2 P1 Ca1 92.31(9) 6_656 .
N1 P1 Ca1 154.82(10) . .
O1 P1 Ca1 56.54(8) . .
O1 P1 Ca1 56.54(8) 7_565 .
Ca1 P1 Ca1 98.85(2) 6_556 .
Ca2 P1 Ca1 146.59(3) . .
Ca1 P1 Ca1 119.138(14) 2_565 .
Ca1 P1 Ca1 119.137(14) 2 .
O2 P1 Ca2 65.26(4) 6_656 5_666
N1 P1 Ca2 122.47(3) . 5_666
O1 P1 Ca2 122.83(8) . 5_666
O1 P1 Ca2 41.71(7) 7_565 5_666
Ca1 P1 Ca2 119.292(15) 6_556 5_666
Ca2 P1 Ca2 94.901(17) . 5_666
Ca1 P1 Ca2 65.598(13) 2_565 5_666
Ca1 P1 Ca2 165.34(3) 2 5_666
Ca1 P1 Ca2 67.110(14) . 5_666
O2 P1 Ca2 65.26(4) 6_656 5_656
N1 P1 Ca2 122.47(3) . 5_656
O1 P1 Ca2 41.71(7) . 5_656
O1 P1 Ca2 122.83(8) 7_565 5_656
Ca1 P1 Ca2 119.292(15) 6_556 5_656
Ca2 P1 Ca2 94.901(17) . 5_656
Ca1 P1 Ca2 165.34(3) 2_565 5_656
Ca1 P1 Ca2 65.598(13) 2 5_656
Ca1 P1 Ca2 67.110(14) . 5_656
Ca2 P1 Ca2 108.65(2) 5_666 5_656
O2 Ca1 N1 147.62(9) . 6_656
O2 Ca1 N1 89.80(6) . 2_554
N1 Ca1 N1 88.50(6) 6_656 2_554
O2 Ca1 N1 89.80(6) . 2_564
N1 Ca1 N1 88.50(6) 6_656 2_564
N1 Ca1 N1 173.75(11) 2_554 2_564
O2 Ca1 O1 78.53(7) . .
N1 Ca1 O1 129.27(6) 6_656 .
N1 Ca1 O1 66.01(6) 2_554 .
N1 Ca1 O1 119.98(7) 2_564 .
O2 Ca1 O1 78.53(7) . 7_565
N1 Ca1 O1 129.27(6) 6_656 7_565
N1 Ca1 O1 119.98(7) 2_554 7_565
N1 Ca1 O1 66.01(6) 2_564 7_565
O1 Ca1 O1 53.98(7) . 7_565
O2 Ca1 O1 76.48(6) . 2_554
N1 Ca1 O1 75.97(6) 6_656 2_554
N1 Ca1 O1 55.60(6) 2_554 2_554
N1 Ca1 O1 118.29(6) 2_564 2_554
O1 Ca1 O1 115.525(9) . 2_554
O1 Ca1 O1 154.57(3) 7_565 2_554
O2 Ca1 O1 76.48(6) . 8_665
N1 Ca1 O1 75.97(6) 6_656 8_665
N1 Ca1 O1 118.29(6) 2_554 8_665
N1 Ca1 O1 55.60(6) 2_564 8_665
O1 Ca1 O1 154.57(3) . 8_665
O1 Ca1 O1 115.525(9) 7_565 8_665
O1 Ca1 O1 62.69(7) 2_554 8_665
O2 Ca1 P1 178.70(7) . 6_656
N1 Ca1 P1 31.07(6) 6_656 6_656
N1 Ca1 P1 90.12(6) 2_554 6_656
N1 Ca1 P1 90.12(6) 2_564 6_656
O1 Ca1 P1 102.62(4) . 6_656
O1 Ca1 P1 102.62(4) 7_565 6_656
O1 Ca1 P1 102.42(4) 2_554 6_656
O1 Ca1 P1 102.42(4) 8_665 6_656
O2 Ca1 P1 73.46(3) . 2_554
N1 Ca1 P1 90.16(3) 6_656 2_554
N1 Ca1 P1 29.12(5) 2_554 2_554
N1 Ca1 P1 145.43(6) 2_564 2_554
O1 Ca1 P1 86.74(4) . 2_554
O1 Ca1 P1 135.60(4) 7_565 2_554
O1 Ca1 P1 29.18(3) 2_554 2_554
O1 Ca1 P1 90.63(4) 8_665 2_554
P1 Ca1 P1 105.932(17) 6_656 2_554
O2 Ca1 P1 73.46(3) . 2_564
N1 Ca1 P1 90.16(3) 6_656 2_564
N1 Ca1 P1 145.43(6) 2_554 2_564
N1 Ca1 P1 29.12(5) 2_564 2_564
O1 Ca1 P1 135.60(4) . 2_564
O1 Ca1 P1 86.74(4) 7_565 2_564
O1 Ca1 P1 90.63(4) 2_554 2_564
O1 Ca1 P1 29.18(3) 8_665 2_564
P1 Ca1 P1 105.932(17) 6_656 2_564
P1 Ca1 P1 116.38(3) 2_554 2_564
O2 Ca1 P1 86.66(6) . .
N1 Ca1 P1 125.72(6) 6_656 .
N1 Ca1 P1 93.10(5) 2_554 .
N1 Ca1 P1 93.10(5) 2_564 .
O1 Ca1 P1 28.51(3) . .
O1 Ca1 P1 28.51(3) 7_565 .
O1 Ca1 P1 143.74(3) 2_554 .
O1 Ca1 P1 143.74(3) 8_665 .
P1 Ca1 P1 94.65(2) 6_656 .
P1 Ca1 P1 115.233(14) 2_554 .
P1 Ca1 P1 115.233(14) 2_564 .
O1 Ca2 O1 77.02(9) 2 8_666
O1 Ca2 O1 156.76(4) 2 3_656
O1 Ca2 O1 98.96(7) 8_666 3_656
O1 Ca2 O1 98.96(7) 2 5_656
O1 Ca2 O1 156.76(4) 8_666 5_656
O1 Ca2 O1 75.58(9) 3_656 5_656
O1 Ca2 O2 120.45(6) 2 6_656
O1 Ca2 O2 120.45(6) 8_666 6_656
O1 Ca2 O2 81.57(6) 3_656 6_656
O1 Ca2 O2 81.57(6) 5_656 6_656
O1 Ca2 N1 83.71(7) 2 6_657
O1 Ca2 N1 83.71(7) 8_666 6_657
O1 Ca2 N1 73.06(6) 3_656 6_657
O1 Ca2 N1 73.06(6) 5_656 6_657
O2 Ca2 N1 147.68(8) 6_656 6_657
O1 Ca2 N1 73.42(6) 2 .
O1 Ca2 N1 73.42(6) 8_666 .
O1 Ca2 N1 127.93(5) 3_656 .
O1 Ca2 N1 127.93(5) 5_656 .
O2 Ca2 N1 61.75(8) 6_656 .
N1 Ca2 N1 150.57(9) 6_657 .
O1 Ca2 P1 97.52(5) 2 .
O1 Ca2 P1 97.52(5) 8_666 .
O1 Ca2 P1 105.72(4) 3_656 .
O1 Ca2 P1 105.72(4) 5_656 .
O2 Ca2 P1 30.74(5) 6_656 .
N1 Ca2 P1 178.42(6) 6_657 .
N1 Ca2 P1 31.01(5) . .
O1 Ca2 O2 70.43(6) 2 2
O1 Ca2 O2 141.03(6) 8_666 2
O1 Ca2 O2 119.33(7) 3_656 2
O1 Ca2 O2 52.78(6) 5_656 2
O2 Ca2 O2 63.30(4) 6_656 2
N1 Ca2 O2 112.67(4) 6_657 2
N1 Ca2 O2 77.16(5) . 2
P1 Ca2 O2 66.94(4) . 2
O1 Ca2 O2 141.03(6) 2 2_565
O1 Ca2 O2 70.43(6) 8_666 2_565
O1 Ca2 O2 52.78(6) 3_656 2_565
O1 Ca2 O2 119.33(7) 5_656 2_565
O2 Ca2 O2 63.30(4) 6_656 2_565
N1 Ca2 O2 112.67(4) 6_657 2_565
N1 Ca2 O2 77.16(5) . 2_565
P1 Ca2 O2 66.94(4) . 2_565
O2 Ca2 O2 126.59(8) 2 2_565
O1 Ca2 P1 164.17(5) 2 5_666
O1 Ca2 P1 87.16(4) 8_666 5_666
O1 Ca2 P1 25.46(4) 3_656 5_666
O1 Ca2 P1 95.31(5) 5_656 5_666
O2 Ca2 P1 68.39(3) 6_656 5_666
N1 Ca2 P1 93.98(4) 6_657 5_666
N1 Ca2 P1 102.94(3) . 5_666
P1 Ca2 P1 85.099(17) . 5_666
O2 Ca2 P1 124.40(4) 2 5_666
O2 Ca2 P1 27.59(4) 2_565 5_666
O1 Ca2 P1 87.16(4) 2 5_656
O1 Ca2 P1 164.17(5) 8_666 5_656
O1 Ca2 P1 95.31(5) 3_656 5_656
O1 Ca2 P1 25.46(4) 5_656 5_656
O2 Ca2 P1 68.39(3) 6_656 5_656
N1 Ca2 P1 93.98(4) 6_657 5_656
N1 Ca2 P1 102.94(3) . 5_656
P1 Ca2 P1 85.099(17) . 5_656
O2 Ca2 P1 27.59(4) 2 5_656
O2 Ca2 P1 124.40(4) 2_565 5_656
P1 Ca2 P1 108.64(2) 5_666 5_656
loop_
_geom_bond_atom_site_label_1
_geom_bond_atom_site_label_2
_geom_bond_distance
_geom_bond_site_symmetry_2
O1 P1 1.5615(16) .
O1 Ca2 2.3785(17) 2_554
O1 Ca2 2.4170(18) 5_656
O1 Ca1 2.729(2) .
O1 Ca1 2.847(2) 2
O2 P1 1.553(2) 6_556
O2 Ca1 2.251(2) .
O2 Ca2 2.466(2) 6_556
O2 Ca2 3.0445(11) 2_564
O2 Ca2 3.0445(11) 2_554
N1 P1 1.559(2) .
N1 Ca1 2.503(3) 6_556
N1 Ca2 2.569(3) 6_557
N1 Ca2 2.583(3) .
N1 Ca1 2.7238(2) 2_565
N1 Ca1 2.7238(2) 2
P1 O2 1.553(2) 6_656
P1 O1 1.5615(16) 7_565
P1 Ca1 3.0166(9) 6_556
P1 Ca2 3.0263(8) .
P1 Ca1 3.2005(5) 2_565
P1 Ca1 3.2005(5) 2
P1 Ca1 3.2594(9) .
P1 Ca2 3.3482(5) 5_666
P1 Ca2 3.3481(5) 5_656
Ca1 N1 2.503(3) 6_656
Ca1 N1 2.7238(2) 2_554
Ca1 N1 2.7238(2) 2_564
Ca1 O1 2.729(2) 7_565
Ca1 O1 2.847(2) 2_554
Ca1 O1 2.847(2) 8_665
Ca1 P1 3.0166(9) 6_656
Ca1 P1 3.2005(5) 2_554
Ca1 P1 3.2005(5) 2_564
Ca2 O1 2.3785(17) 2
Ca2 O1 2.3785(17) 8_666
Ca2 O1 2.4170(18) 3_656
Ca2 O1 2.4170(18) 5_656
Ca2 O2 2.466(2) 6_656
Ca2 N1 2.569(3) 6_657
Ca2 O2 3.0446(11) 2
Ca2 O2 3.0446(11) 2_565
Ca2 P1 3.3482(5) 5_666
Ca2 P1 3.3482(5) 5_656
