#------------------------------------------------------------------------------
#$Date: 2017-01-01 03:27:10 +0200 (Sun, 01 Jan 2017) $
#$Revision: 189533 $
#$URL: file:///home/coder/svn-repositories/cod/cif/4/34/49/4344935.cif $
#------------------------------------------------------------------------------
#
# This file is available in the Crystallography Open Database (COD),
# http://www.crystallography.net/
#
# All data on this site have been placed in the public domain by the
# contributors.
#
data_4344935
loop_
_publ_author_name
'Reczy\'nski, Mateusz'
'Chorazy, Szymon'
'Nowicka, Beata'
'Sieklucka, Barbara'
'Ohkoshi, Shin-Ichi'
_publ_section_title
;
 Dehydration of Octacyanido-Bridged Ni(II)-W(IV) Framework toward Negative
 Thermal Expansion and Magneto-Colorimetric Switching.
;
_journal_name_full               'Inorganic chemistry'
_journal_paper_doi               10.1021/acs.inorgchem.6b01883
_journal_year                    2016
_chemical_formula_moiety         'C4 N4 Ni W0.50'
_chemical_formula_sum            'C4 N4 Ni W0.5'
_chemical_formula_weight         254.72
_space_group_IT_number           140
_symmetry_cell_setting           tetragonal
_symmetry_Int_Tables_number      140
_symmetry_space_group_name_Hall  '-I 4 2c'
_symmetry_space_group_name_H-M   'I 4/m c m'
_atom_sites_solution_hydrogens   difmap
_audit_conform_dict_location     ftp://ftp.iucr.org/pub/cif_core.dic
_audit_conform_dict_name         cif_core.dic
_audit_conform_dict_version      2.4.3
_audit_creation_date             2016-05-31T15:32:52-00:00
_audit_creation_method           'WinGX routine CIF_UPDATE'
_cell_angle_alpha                90
_cell_angle_beta                 90
_cell_angle_gamma                90
_cell_formula_units_Z            8
_cell_length_a                   10.9485(13)
_cell_length_b                   10.9485(13)
_cell_length_c                   12.7277(9)
_cell_measurement_reflns_used    6588
_cell_measurement_temperature    100(2)
_cell_measurement_theta_max      27.325
_cell_measurement_theta_min      3.201
_cell_measurement_wavelength     0.71075
_cell_volume                     1525.7(3)
_computing_cell_refinement       'RAPID AUTO'
_computing_data_collection       'RAPID AUTO'
_computing_data_reduction        'RAPID AUTO'
_computing_molecular_graphics    'Ortep for Windows (Farrugia, 2012)'
_computing_publication_material  'WinGX publication routines (Farrugia, 2012)'
_computing_structure_refinement  'SHELXL-2014/7 (Sheldrick, 2014)'
_computing_structure_solution    'SHELXS-97 (Sheldrick, 1990)'
_diffrn_ambient_temperature      100(2)
_diffrn_detector_area_resol_mean 10
_diffrn_measured_fraction_theta_full 0.997
_diffrn_measured_fraction_theta_max 0.998
_diffrn_measurement_device_type  'Rigaku R-AXIS RAPID'
_diffrn_measurement_method       \w
_diffrn_radiation_monochromator  graphite
_diffrn_radiation_probe          x-ray
_diffrn_radiation_type           MoK\a
_diffrn_radiation_wavelength     0.71075
_diffrn_reflns_av_R_equivalents  0.0421
_diffrn_reflns_av_unetI/netI     0.0186
_diffrn_reflns_Laue_measured_fraction_full 0.997
_diffrn_reflns_Laue_measured_fraction_max 0.998
_diffrn_reflns_limit_h_max       14
_diffrn_reflns_limit_h_min       -13
_diffrn_reflns_limit_k_max       13
_diffrn_reflns_limit_k_min       -14
_diffrn_reflns_limit_l_max       16
_diffrn_reflns_limit_l_min       -16
_diffrn_reflns_number            6588
_diffrn_reflns_point_group_measured_fraction_full 0.997
_diffrn_reflns_point_group_measured_fraction_max 0.998
_diffrn_reflns_theta_full        25.242
_diffrn_reflns_theta_max         27.325
_diffrn_reflns_theta_min         3.201
_diffrn_source                   'fine-focus sealed tube'
_diffrn_standards_number         0
_exptl_absorpt_coefficient_mu    9.96
_exptl_absorpt_correction_T_max  1.0000
_exptl_absorpt_correction_T_min  0.5453
_exptl_absorpt_correction_type   multi-scan
_exptl_absorpt_process_details   'ABSCOR (Rigaku, 1995)'
_exptl_crystal_colour            red
_exptl_crystal_density_diffrn    2.218
_exptl_crystal_density_method    'not measured'
_exptl_crystal_description       block
_exptl_crystal_F_000             936
_exptl_crystal_size_max          0.13
_exptl_crystal_size_mid          0.11
_exptl_crystal_size_min          0.11
_refine_diff_density_max         2.062
_refine_diff_density_min         -1.336
_refine_diff_density_rms         0.214
_refine_ls_extinction_method     none
_refine_ls_goodness_of_fit_ref   1.262
_refine_ls_hydrogen_treatment    undef
_refine_ls_matrix_type           full
_refine_ls_number_constraints    0
_refine_ls_number_parameters     25
_refine_ls_number_reflns         489
_refine_ls_number_restraints     0
_refine_ls_restrained_S_all      1.262
_refine_ls_R_factor_all          0.04
_refine_ls_R_factor_gt           0.04
_refine_ls_shift/su_max          0
_refine_ls_shift/su_mean         0
_refine_ls_structure_factor_coef Fsqd
_refine_ls_weighting_details
'w=1/[\s^2^(Fo^2^)+(0.0170P)^2^+61.6213P] where P=(Fo^2^+2Fc^2^)/3'
_refine_ls_weighting_scheme      calc
_refine_ls_wR_factor_gt          0.0873
_refine_ls_wR_factor_ref         0.0873
_reflns_Friedel_coverage         0
_reflns_number_gt                489
_reflns_number_total             489
_reflns_threshold_expression     'I > 2\s(I)'
_iucr_refine_instructions_details
;
 
    shelx.res created by SHELXL-2014/7
 
TITL NiWdeh
CELL  0.71075  10.9485  10.9485  12.7277   90.000   90.000   90.000
ZERR     8.00   0.0013   0.0013   0.0009    0.000    0.000    0.000
LATT   2
SYMM  - Y,   X,   Z
SYMM  - X, - Y,   Z
SYMM    Y, - X,   Z
SYMM  - X,   Y, 1/2 + Z
SYMM    Y,   X, 1/2 + Z
SYMM    X, - Y, 1/2 + Z
SYMM  - Y, - X, 1/2 + Z
SFAC  NI   W    C    N
UNIT  8 4 32 32
MERG   2
SHEL 99999.000000 0.000000
FMAP   2
PLAN   20
SIZE     0.110   0.110   0.130
ACTA
BOND   $H
CONF
LIST   4
WPDB  -2
L.S.  10
TEMP  -173.00
WGHT    0.017000   61.621300
FVAR       0.31827
W1    2    0.000000    0.000000    0.250000    10.12500    0.01799    0.01799 =
         0.00664    0.00000    0.00000    0.00000
NI1   1    0.316842    0.183158    0.500000    10.25000    0.02261    0.02261 =
         0.00696    0.00000    0.00000   -0.00657
N1    4    0.224758    0.103948    0.397700    11.00000    0.02267    0.02527 =
         0.01389    0.00203    0.00086   -0.00706
C1    3    0.148739    0.065579    0.343486    11.00000    0.02522    0.01554 =
         0.01207    0.00274    0.00241    0.00007
HKLF    4
 
REM  NiWdeh
REM R1 =  0.0400 for     489 Fo > 4sig(Fo)  and  0.0400 for all     489 data
REM     25 parameters refined using      0 restraints
 
END
 
WGHT      0.0170     61.6224
 
REM Highest difference peak  2.062,  deepest hole -1.336,  1-sigma level  0.214
Q1    1   0.3744  0.1256  0.5000  10.25000  0.05    2.06
Q2    1   0.4689  0.0311  0.5000  10.25000  0.05    1.18
Q3    1   0.1732  0.0360  0.5000  10.50000  0.05    1.10
Q4    1   0.1043  0.1043  0.2500  10.50000  0.05    0.91
Q5    1   0.2450  0.2550  0.4669  10.50000  0.05    0.74
Q6    1   0.1188  0.3812  0.5000  10.25000  0.05    0.72
Q7    1   0.0751  0.0012  0.3018  11.00000  0.05    0.62
Q8    1   0.3586  0.0262  0.5000  10.50000  0.05    0.58
Q9    1   0.1939  0.3061  0.4629  10.50000  0.05    0.57
Q10   1   0.2093  0.1065  0.2396  11.00000  0.05    0.56
Q11   1   0.2292  0.1211  0.2762  11.00000  0.05    0.56
Q12   1   0.1508  0.1508  0.2500  10.50000  0.05    0.55
Q13   1   0.0566  0.0402  0.3071  11.00000  0.05    0.52
Q14   1   0.0617  0.0059  0.5000  10.50000  0.05    0.51
Q15   1   0.0005  0.0445  0.2796  11.00000  0.05    0.47
Q16   1   0.2454  0.3603  0.5000  10.50000  0.05    0.46
Q17   1   0.3762  0.0000  0.2500  10.50000  0.05    0.46
Q18   1   0.3445 -0.0226  0.4378  11.00000  0.05    0.42
Q19   1   0.0945  0.1258  0.3212  11.00000  0.05    0.42
Q20   1   0.1652  0.3348  0.4536  10.50000  0.05    0.41
;
_cod_data_source_file            ic6b01883_si_003.cif
_cod_data_source_block           shelx
_cod_original_cell_volume        1525.7(4)
_cod_original_formula_sum        'C4 N4 Ni W0.50'
_cod_database_code               4344935
_shelx_estimated_absorpt_t_min   0.358
_shelx_estimated_absorpt_t_max   0.407
_iucr_refine_reflections_details
;
   0   0   2  430.42   25.01
   0   0  -2  435.72   25.78
   0   0   4 5243.73  120.67
   0   0  -4 5401.44  143.32
   0   0   6  374.00   27.49
   0   0  -6  415.24   27.92
   0   0   813584.09  397.10
   0   0  -813762.96  391.76
   0   0  10  244.24   34.88
   0   0 -10  261.35   54.26
   0   0  12 8619.80  260.80
   0   0 -12 8495.56  257.51
   0   0  14  693.39  105.83
   0   0 -14  635.17  103.19
   0   0  16 1857.86  174.87
   0   0 -16 1796.60  170.22
   0  -1   3    4.86    6.85
   0   1   3    7.16    7.31
  -1   0   3    9.42   11.45
  -1   0  -3    6.24   11.06
   0   1  -3   -4.34    6.89
   1   0  -3   -1.39    6.81
   1   0   5    2.06    9.10
  -1   0   5   26.62   15.53
   0   1   5    1.28    9.93
   0  -1   5   -5.20    9.57
   0  -1  -5   -5.92   16.56
   0   1  -5   35.15   15.50
  -1   0  -5   20.19   15.04
   1   0  -5   -0.23    9.58
   1   0   7   26.76   23.25
  -1   0   7   45.35   23.92
   0   1   7   26.02   14.42
   0  -1   7   46.76   23.64
  -1   0  -7   10.77   14.03
   1   0  -7    8.85   14.27
   0  -1  -7   30.45   24.35
   0   1  -7    5.53   14.38
   0  -1   9    7.48   29.91
   1   0   9   36.14   29.18
  -1   0   9   -6.38   29.82
   0   1   9   49.90   30.04
   0  -1  -9   -7.49   29.65
   0   1  -9    2.00   29.29
  -1   0  -9   52.15   28.65
   1   0  -9   40.68   29.61
   1   0  11   15.48   23.53
  -1   0  11   12.16   23.58
   0  -1  11   69.49   38.82
   0   1  11   72.49   38.46
   0   1 -11   25.19   22.49
   1   0 -11   15.05   36.72
  -1   0 -11    2.92   22.47
   0  -1 -11   22.97   37.57
   0  -1  13    9.84   25.24
   0   1  13  -17.98   25.11
  -1   0  13   -8.94   40.07
   1   0  13   10.21   24.70
  -1   0 -13  124.14   38.50
   1   0 -13  -26.87   24.40
   0   1 -13    8.39   37.76
   0  -1 -13   75.30   38.92
  -1   0  15   81.17   37.83
   0  -1  15   29.15   38.85
   1   0  15  -18.29   62.53
   0   1  15   90.37   61.29
   0   1 -15   12.29   37.25
   0  -1 -15   40.72   60.67
  -1   0 -15   21.80   59.60
   1   0 -15   17.04   37.17
   1   1   213171.43  284.57
  -1  -1   213092.57  280.64
  -1  -1   212945.61  274.49
  -1   1   212610.87  265.70
   1  -1   213217.02  287.06
  -1   1  -213555.59  294.31
   1   1  -213383.68  286.18
  -1  -1  -213367.39  290.20
   1  -1  -212417.70  262.64
   1  -1   4 2114.46   72.18
  -1   1   4 2178.49   77.49
   1   1   4 2122.20   73.29
  -1  -1   4 2100.06   56.51
   1  -1  -4 2161.76   78.32
  -1   1  -4 2192.81   74.01
  -1  -1  -4 2163.70   74.71
   1   1  -4 2172.25   71.98
   1  -1   6 4809.14  123.49
   1   1   6 4819.08  145.08
  -1   1   6 4860.33  147.32
  -1  -1   6 4974.13  144.71
   1  -1  -6 4983.18  149.38
  -1   1  -6 4844.63  122.32
   1   1  -6 4938.56  144.01
  -1  -1  -6 4877.92  145.19
   1   1   8 3031.01  115.89
  -1   1   8 2984.95  117.47
   1  -1   8 3069.93  116.75
  -1  -1   8 3016.51  115.69
   1  -1  -8 3043.45  118.44
  -1  -1  -8 3089.26  115.39
  -1   1  -8 3025.48   91.21
   1   1  -8 2960.38   91.04
   1  -1  10 4620.83  174.20
  -1   1  10 4586.84  145.07
  -1  -1  10 4634.57  177.34
   1   1  10 4526.35  143.73
   1  -1 -10 4679.45  176.86
  -1  -1 -10 4610.57  173.86
   1   1 -10 4584.61  174.35
  -1   1 -10 4640.77  143.31
   1  -1  12 2440.89  142.19
  -1   1  12 2432.51  141.87
   1   1  12 2434.61  140.38
  -1  -1  12 2427.71  104.94
  -1   1 -12 2395.97  137.54
   1   1 -12 2382.72  101.06
  -1  -1 -12 2508.06  137.05
   1  -1 -12 2404.26  138.25
  -1  -1  14 2236.20  116.63
   1   1  14 2289.94  159.42
  -1   1  14 2290.31  159.28
   1  -1  14 2235.28  161.79
   1  -1 -14 2232.13  156.43
  -1  -1 -14 2197.34  113.17
   1   1 -14 2168.21  155.60
  -1   1 -14 2240.62  112.61
   1   1  16  789.78   86.07
  -1   1  16  784.11  135.91
   1  -1  16  823.84  135.20
  -1  -1  16  865.95  135.52
  -1   1 -16  791.86  128.55
   1   1 -16  813.07   85.48
  -1  -1 -16  705.34   84.33
   1  -1 -16  764.71  129.03
   2   0   0 1272.52   30.77
  -2   0   0 1281.10   42.88
  -2   0   0 1311.49   25.32
   2   0   0 1271.03   24.88
   0   2   0 1243.56   31.44
   0  -2   0 1286.87   43.37
   0  -2   218095.98  411.57
   0   2   217643.10  405.10
  -2   0   218009.73  410.74
   2   0   217798.38  379.69
  -2   0   217846.02  391.76
   0  -2   218267.26  368.70
   0  -2  -217866.87  412.05
  -2   0  -218330.73  392.31
   2   0  -217564.94  371.06
   0   2   4 2531.28   85.97
   0  -2   4 2544.07   85.40
   2   0   4 2497.56   76.19
  -2   0   4 2466.77   79.09
   0   2  -4 2561.91   84.14
  -2   0  -4 2481.62   75.31
   2   0  -4 2488.36   63.15
   0  -2  -4 2538.22   88.43
   2   0   6 7308.59  175.31
  -2   0   6 7256.38  197.53
   0   2   6 7263.65  179.16
   0  -2   6 7434.32  180.44
   0   2  -6 7296.48  177.08
   2   0  -6 7311.40  177.83
   0  -2  -6 7493.21  183.67
  -2   0  -6 7222.61  192.83
   0  -2   8 1037.06   70.24
   2   0   8 1005.08   66.89
  -2   0   8 1010.05   68.51
   0   2   8 1025.36   69.94
   2   0  -8  998.10   47.09
  -2   0  -8  990.78   46.01
   0   2  -8 1025.35   47.20
   0  -2  -8 1118.69   71.61
   2   0  10 7667.46  248.97
   0   2  10 7444.75  212.49
  -2   0  10 7536.19  215.58
   0  -2  10 7836.56  253.95
   2   0 -10 7556.76  244.34
  -2   0 -10 7563.05  243.17
   0   2 -10 7608.92  215.62
   0  -2 -10 7726.68  219.61
   0  -2  12 1006.82   69.37
   0   2  12  923.37   68.05
   2   0  12  947.02  100.42
  -2   0  12  909.93  100.48
   0   2 -12  969.91   66.40
  -2   0 -12  955.83   64.80
   2   0 -12  923.80   97.26
   0  -2 -12  946.05   67.93
   0  -2  14 2912.38  185.78
   0   2  14 3045.65  181.80
   2   0  14 3068.01  135.68
  -2   0  14 2929.11  135.82
   0  -2 -14 2988.83  133.97
   2   0 -14 2939.04  176.74
   0   2 -14 2790.40  175.07
  -2   0 -14 2896.51  173.37
   2   0  16  623.08   80.30
  -2   0  16  624.78   82.01
   0   2  16  652.02   81.76
   0  -2  16  634.87  130.77
   2   0 -16  582.79   79.05
   0  -2 -16  656.20   78.31
  -2   0 -16  596.91   78.82
   0   2 -16  557.67   80.43
   1  -2   1 4282.32   70.21
  -2  -1   1 4270.02   88.94
   1  -2   1 4166.63   89.26
  -2   1   1 4201.20   83.44
  -1   2   1 4221.50  103.57
   2  -1   1 4200.35   80.59
   2  -1   1 4155.43   85.54
   2   1   1 4220.15   77.50
  -1  -2   1 4134.00   85.14
   1   2   1 4056.64   81.01
  -2   1   1 4347.06   89.18
   1   2  -1 4235.16   86.02
  -1  -2  -1 4230.49   95.56
   2   1  -1 4401.86   82.11
  -2  -1  -1 4321.63   84.59
   2  -1  -1 4260.53   95.17
   1  -2  -1 4283.70  106.63
   2   1  -1 4304.77   89.17
   2  -1  -1 4302.77   88.29
  -2  -1   3  784.80   26.45
   2   1   3  795.81   37.38
   1   2   3  819.22   30.51
  -2  -1   3  832.71   42.71
  -1   2   3  805.70   49.35
   1  -2   3  833.93   31.68
  -2   1   3  839.13   45.08
  -1  -2   3  853.74   33.31
   2  -1   3  823.97   28.63
  -1  -2   3  833.13   29.99
   2  -1  -3  833.61   45.93
   1  -2  -3  805.58   49.96
  -1  -2  -3  826.45   31.20
   1   2  -3  836.45   29.97
  -2   1  -3  859.48   29.02
  -2  -1  -3  804.41   26.29
   2   1  -3  828.97   38.01
  -2  -1   5  416.67   24.59
   1  -2   5  434.10   41.39
  -1   2   5  427.61   28.67
   1   2   5  435.55   27.02
   2   1   5  434.34   24.93
   2  -1   5  453.02   25.92
  -1  -2   5  455.11   40.81
  -2   1   5  417.49   41.95
   2  -1  -5  449.52   27.94
  -2   1  -5  443.58   25.34
   1  -2  -5  455.49   45.40
  -2  -1  -5  427.91   24.60
  -1   2  -5  440.74   41.80
   1   2  -5  445.52   25.94
  -1  -2  -5  447.14   26.99
   2   1  -5  426.51   24.63
   2   1   7  963.32   59.53
  -1   2   7  995.76   64.00
  -2  -1   7  970.20   59.91
   1  -2   7  971.65   62.79
   1   2   7  941.85   61.93
  -2   1   7  908.13   43.57
   2  -1   7  967.70   60.87
  -1  -2   7  933.07   62.16
   2   1  -7  946.56   59.06
   1   2  -7  986.38   60.23
  -1   2  -7 1025.00   61.06
  -2  -1  -7  978.61   41.71
   1  -2  -7 1017.85   65.85
  -2   1  -7  937.01   58.85
   2  -1  -7  995.58   63.44
  -1  -2  -7 1005.66   62.63
   1  -2   9 1081.99   78.60
   2  -1   9 1058.86   53.28
   2   1   9 1074.61   73.81
  -1  -2   9 1112.41   76.76
  -2  -1   9 1045.85   75.77
  -2   1   9 1053.29   54.02
  -1   2   9 1022.98   54.22
   1   2   9 1049.68   76.14
   2  -1  -9 1059.11   55.11
  -2   1  -9 1042.12   73.66
  -2  -1  -9 1056.06   72.85
   1  -2  -9 1066.62   54.50
  -1  -2  -9 1018.22   53.62
  -1   2  -9 1076.39   75.48
   1   2  -9 1012.14   74.03
   2   1  -9  997.24   50.75
   2  -1  11  685.97   54.65
  -1   2  11  691.58   56.00
   2   1  11  667.37   53.41
  -2  -1  11  677.27   55.22
  -1  -2  11  713.85   84.50
   1  -2  11  731.13   56.18
   1   2  11  746.93   82.53
  -2   1  11  755.84   83.49
   1   2 -11  636.01   79.77
  -2  -1 -11  732.13   78.59
  -2   1 -11  723.66   80.00
   1  -2 -11  690.47   55.35
   2   1 -11  769.43   79.44
   2  -1 -11  721.07   54.18
  -1  -2 -11  688.76   54.94
  -1   2 -11  747.85   79.63
   1   2  13  334.09   52.48
  -2  -1  13  370.85   52.72
  -2   1  13  336.71   52.05
  -1  -2  13  286.31   84.21
  -1   2  13  369.02   82.93
   2   1  13  356.03   51.63
   1  -2  13  305.08   53.80
   2  -1  13  371.48   82.70
   1   2 -13  328.79   50.37
  -1   2 -13  314.20   80.12
  -1  -2 -13  265.64   51.30
  -2   1 -13  305.76   50.47
   1  -2 -13  354.92   82.96
  -2  -1 -13  304.43   49.73
   2   1 -13  334.08   48.70
   2  -1 -13  334.14   51.70
   1   2  15  233.75   82.99
   2  -1  15  124.33   85.21
  -2  -1  15  158.93   84.66
   1  -2  15  168.30   52.64
  -1  -2  15  200.32   86.30
  -1   2  15  126.73   53.04
   2   1  15  195.02   83.52
  -2   1  15  189.83   83.62
   2   1 -15  263.16   80.53
   1  -2 -15  171.00   50.29
   1   2 -15  138.82   81.63
  -1   2 -15  123.82   50.51
  -2   1 -15  110.72   80.72
  -1  -2 -15  216.89   80.88
  -2  -1 -15  101.54   49.61
   2  -1 -15  162.15   50.86
  -2  -2   0 7712.15  154.40
  -2   2   0 8150.13  168.73
  -2   2   0 7352.97  156.23
   2  -2   0 7337.35  169.88
   2  -2   0 7871.05  159.18
   2   2   0 7491.16  149.37
   2   2   0 7319.52  167.98
   2   2   2 2899.90   72.07
  -2   2   2 2769.22   68.00
  -2  -2   2 3071.14   75.93
  -2  -2   2 3038.03   68.71
   2  -2  -2 2890.09   86.73
  -2  -2  -2 2928.47   74.43
   2   2  -2 2964.62   66.09
  -2   2   413927.90  343.53
  -2  -2   414074.11  332.41
  -2  -2   414210.09  334.52
   2   2   413948.76  332.74
   2  -2   413940.90  337.55
   2  -2  -414014.64  344.59
  -2  -2  -414052.41  335.20
   2   2  -414398.66  339.72
  -2   2  -413833.97  316.28
  -2   2   6 2201.78   88.28
   2  -2   6 2125.59   64.58
  -2  -2   6 2229.62   81.80
   2   2   6 2119.38   81.93
   2  -2  -6 2190.89   88.45
   2   2  -6 2201.62   81.28
  -2  -2  -6 2068.58   82.15
  -2   2  -6 2120.45   82.15
   2   2   8 5670.54  154.45
  -2   2   8 5639.22  185.15
  -2  -2   8 5847.54  183.60
   2  -2   8 5908.07  187.44
   2   2  -8 5699.49  154.49
   2  -2  -8 5814.92  161.84
  -2  -2  -8 5802.08  156.29
  -2   2  -8 5665.27  156.92
   2  -2  10 1608.37   75.07
  -2  -2  10 1570.07  102.88
   2   2  10 1610.71  100.83
  -2   2  10 1571.57  104.67
  -2  -2 -10 1612.59   72.09
   2   2 -10 1633.66   97.60
   2  -2 -10 1591.21  104.41
  -2   2 -10 1577.47   72.38
   2  -2  12 3614.63  174.50
  -2   2  12 3416.21  171.43
   2   2  12 3520.86  170.06
  -2  -2  12 3526.09  174.28
  -2   2 -12 3393.62  131.58
   2  -2 -12 3459.00  173.75
  -2  -2 -12 3423.19  129.33
   2   2 -12 3442.34  166.41
   2  -2  14  916.08  119.75
   2   2  14  893.52   75.75
  -2   2  14  830.22   78.48
  -2  -2  14 1006.57  117.33
  -2   2 -14  902.34  112.11
   2  -2 -14  818.33  114.69
   2   2 -14  805.14   74.93
  -2  -2 -14  820.71  110.83
   2  -2  16 2588.80  201.51
  -2   2  16 2541.12  197.19
   2   2  16 2551.53  195.91
  -2  -2  16 2517.07  201.30
  -2   2 -16 2391.84  189.21
   2   2 -16 2461.12  191.64
   2  -2 -16 2435.74  194.54
  -2  -2 -16 2385.18  191.26
   0  -3   1    8.48    8.79
  -3   0   1   22.23    9.18
   3   0   1    2.01   13.50
   0   3   1   15.73    8.70
  -3   0   1   11.04    7.99
   3   0   1   15.68    5.28
   3   0  -1   -4.66   14.74
   0   3  -1    1.03    4.41
   0  -3  -1    1.33   15.53
   3   0  -1    2.26    6.53
   0   3   3   15.46   11.03
  -3   0   3    9.76   10.78
  -3   0   3   17.81   13.15
   3   0   3    6.98   11.01
   0  -3   3   21.55   10.61
   0  -3   3   11.94    6.21
   3   0  -3    5.00   13.19
   0  -3  -3    9.86   11.41
  -3   0  -3   20.96   11.75
  -3   0   5   28.85   14.83
   3   0   5    3.07    8.64
  -3   0   5    6.89   10.62
   0  -3   5   -7.85   11.00
   0   3   5   -2.43   18.54
  -3   0  -5    2.53   13.82
   3   0  -5    9.49   15.51
   0   3  -5   17.61   10.52
   0  -3  -5   23.03   19.43
   0  -3   7    3.66   23.87
  -3   0   7    4.26   21.92
   0   3   7   62.35   24.84
   3   0   7   15.08   12.95
   0  -3  -7   17.62   25.39
  -3   0  -7   16.09   20.50
   3   0  -7    9.82   22.11
   0   3  -7   11.35   23.48
   0  -3   9   30.62   18.39
   0   3   9   32.36   18.28
   3   0   9    2.85   16.71
  -3   0   9   38.11   27.78
   0  -3  -9   18.48   18.70
   0   3  -9   -8.98   28.45
  -3   0  -9   12.04   26.03
   3   0  -9    1.63   17.09
   0  -3  11    8.95   39.65
   0   3  11  -12.24   23.94
   3   0  11   25.35   22.69
  -3   0  11   15.88   22.84
   0  -3 -11   54.36   39.30
  -3   0 -11   47.92   21.34
   0   3 -11   25.41   37.56
   3   0 -11    7.51   22.23
   0   3  13   -4.48   56.41
  -3   0  13   46.78   55.07
   0  -3  13  114.55   58.13
   3   0  13   38.57   54.76
  -3   0 -13   88.48   52.54
   3   0 -13   38.21   54.04
   0   3 -13   20.19   54.28
   0  -3 -13   89.00   56.15
  -3   0  15   10.40   35.98
   0   3  15   33.27   58.95
   0  -3  15  -35.18   61.46
   3   0  15   66.41   57.35
   0  -3 -15  -14.15   58.18
   0   3 -15   78.04   57.60
  -3   0 -15   12.83   34.14
   3   0 -15   80.52   56.33
   3   1   0 5783.12  127.63
  -3   1   0 5947.94  125.36
   3  -1   0 5866.44  120.75
  -1   3   0 5760.36  129.21
   1   3   0 5758.39  137.07
  -3  -1   0 5651.92  141.51
   3  -1   0 6029.13  141.26
  -3   1   0 6023.75  141.90
   1  -3   0 5718.81  145.04
  -1  -3   0 5950.63  140.34
   3  -1   2 2785.57   61.15
  -1   3   2 2798.14   88.01
   3   1   2 2842.28   60.43
  -1  -3   2 2883.39   63.89
  -3   1   2 2868.06   75.49
   1  -3   2 2846.31   72.82
   3  -1   2 2932.84   68.62
  -3  -1   2 2980.17   90.14
  -3   1   2 2925.69   87.85
   1   3   2 2780.83   66.90
  -3  -1   2 2852.07   63.10
   1  -3  -2 2834.94   73.46
   3   1  -2 2921.89   64.52
   1   3  -2 2919.19   63.27
   3  -1  -2 2797.58   62.79
   3   1  -2 2863.83   86.08
  -3  -1  -2 2892.47   61.12
  -1  -3  -2 2889.37   69.02
  -1  -3   412419.41  276.17
  -3  -1   411377.50  255.00
   1   3   411717.35  292.02
  -1  -3   411720.44  292.74
   3   1   411479.74  268.16
   3  -1   411908.19  285.08
  -1   3   411515.52  274.73
  -3   1   411687.25  286.18
   1  -3   411693.83  273.17
  -3  -1   411719.24  272.05
  -1  -3  -411555.05  291.49
   1  -3  -411601.51  295.73
  -3  -1  -411692.04  272.96
  -3   1  -411935.00  269.14
   3   1  -411724.65  274.66
   3  -1  -411876.06  290.81
   1  -3   6 2655.30   78.07
  -3  -1   6 2707.22   97.09
   1   3   6 2643.43   97.19
  -1  -3   6 2664.56   76.92
   3  -1   6 2641.01   93.49
  -1   3   6 2610.73  100.23
  -3  -1   6 2675.75   89.82
   3   1   6 2580.70   71.01
  -3   1   6 2595.08   75.27
   3   1  -6 2594.18   72.22
   3  -1  -6 2671.36   96.51
   1  -3  -6 2581.99   79.22
  -3  -1  -6 2611.90   86.46
   1   3  -6 2712.83   95.11
  -3   1  -6 2573.28   89.58
  -1  -3  -6 2598.97   77.73
  -1   3  -6 2646.67   95.89
   3  -1   8 5319.08  146.53
   1   3   8 5229.74  145.42
   1  -3   8 5311.96  148.09
   3   1   8 5203.31  165.18
  -3   1   8 5205.25  145.30
  -3  -1   8 5216.31  142.05
  -1  -3   8 5464.00  176.22
  -1   3   8 5189.64  174.90
   1  -3  -8 5308.87  151.35
   3  -1  -8 5307.84  147.60
  -3   1  -8 5211.71  142.01
   3   1  -8 5331.41  166.78
  -1  -3  -8 5341.84  149.34
   1   3  -8 5340.16  146.18
  -1   3  -8 5338.63  147.17
  -3  -1  -8 5163.85  140.34
   3   1  10 1573.52   70.00
  -1   3  10 1560.21  103.12
  -3  -1  10 1572.96   96.40
  -3   1  10 1523.29   71.45
   1  -3  10 1604.76  103.77
   1   3  10 1565.62   72.08
  -1  -3  10 1578.54   72.49
   3  -1  10 1543.68   70.78
  -1   3 -10 1510.25   98.72
  -1  -3 -10 1662.53  101.66
   3  -1 -10 1489.33  100.38
  -3  -1 -10 1548.89   94.04
   1  -3 -10 1471.34  103.00
   3   1 -10 1528.49   68.42
  -3   1 -10 1505.26   68.57
   1   3 -10 1558.31   70.40
  -3  -1  12 3048.41  121.67
   3   1  12 3033.22  158.07
   3  -1  12 3123.25  124.79
  -3   1  12 3025.01  122.47
  -1  -3  12 3197.49  165.01
  -1   3  12 3098.60  161.41
   1  -3  12 3144.49  167.18
   1   3  12 2974.31  121.57
   3   1 -12 3095.00  155.50
   1  -3 -12 2977.60  122.74
  -1  -3 -12 3151.87  161.64
  -3   1 -12 2911.37  154.35
   1   3 -12 3019.49  120.52
  -1   3 -12 2992.71  156.96
  -3  -1 -12 3041.39  153.60
   3  -1 -12 3082.66  159.66
  -3  -1  14 1010.38  121.55
  -1  -3  14 1035.15  127.09
   3  -1  14 1004.55   83.01
   3   1  14 1057.02   81.23
  -1   3  14 1084.51  124.64
   1   3  14 1018.84   81.37
   1  -3  14 1025.48  126.70
  -3   1  14 1018.92  121.22
  -1   3 -14  973.51   80.29
   1  -3 -14  977.62   83.33
   3  -1 -14  979.24  118.02
   3   1 -14  990.79   78.47
  -1  -3 -14  930.05  118.37
   1   3 -14  971.28  117.93
  -3   1 -14 1034.66  115.43
  -3  -1 -14  949.54   78.49
   3  -1  16 2462.38  143.97
  -1  -3  16 2599.11  202.58
  -3   1  16 2471.29  141.13
   1  -3  16 2505.54  145.01
   3   1  16 2468.90  197.45
   1   3  16 2557.26  194.31
  -3  -1  16 2554.98  199.27
  -3  -1  16 2298.28  136.63
  -1   3  16 2529.76  141.18
  -3   1 -16 2417.53  189.46
  -1   3 -16 2378.67  136.37
   3   1 -16 2454.13  191.52
  -1  -3 -16 2375.63  189.94
  -3  -1 -16 2358.60  187.57
   3  -1 -16 2316.34  137.28
   1   3 -16 2317.73  191.04
   1  -3 -16 2408.09  138.09
  -3   2   1 1635.21   43.69
  -3  -2   1 1726.29   41.63
  -3  -2   1 1695.83   60.18
   3   2   1 1649.56   39.53
  -2  -3   1 1670.35   51.09
   2   3   1 1648.74   48.89
  -3   2   1 1663.62   43.26
   3  -2   1 1665.98   53.95
  -2   3   1 1655.96   63.68
   2  -3   1 1616.66   47.42
   3  -2   1 1671.47   45.07
   3   2  -1 1660.05   59.36
  -3  -2  -1 1658.30   40.80
  -2   3  -1 1678.25   38.42
   2  -3  -1 1630.46   63.27
  -2  -3  -1 1702.52   51.46
   3  -2  -1 1610.20   55.30
   2   3  -1 1601.85   49.16
  -3   2  -1 1614.51   46.63
  -2   3  -1 1597.99   46.54
   3   2   3  196.62   21.66
  -3   2   3  226.80   19.41
  -2   3   3  186.88   21.38
   3  -2   3  200.15   27.93
  -3  -2   3  179.70   19.25
  -2  -3   3  194.73   16.70
   2   3   3  221.20   26.81
   2  -3   3  205.31   19.49
  -2  -3   3  219.27   24.34
  -3  -2   3  182.37   21.54
  -3  -2  -3  199.95   22.20
  -2  -3  -3  230.37   28.23
   3  -2  -3  236.41   31.05
   3   2  -3  226.38   23.15
   2  -3  -3  249.89   35.33
   3   2  -3  216.01   29.44
   2   3  -3  214.58   14.70
   3   2   5  135.54   26.72
  -3   2   5  129.84   32.58
  -2   3   5  167.88   36.25
   3  -2   5  124.84   30.86
  -2  -3   5  174.57   29.17
   2  -3   5  199.97   32.79
  -2  -3   5  136.63   24.12
  -3  -2   5  127.78   25.80
  -3  -2   5  145.07   29.04
   2   3   5  131.44   18.61
   2   3  -5  152.18   18.45
   3  -2  -5  109.27   21.14
  -3  -2  -5  140.82   16.53
   3   2  -5  143.84   26.99
   2  -3  -5  183.89   36.17
  -3   2  -5  148.73   18.93
  -2  -3  -5  183.55   30.95
   2  -3   7  199.21   39.05
   3   2   7  125.22   21.09
  -3   2   7  162.56   39.43
  -3  -2   7  155.37   21.30
  -2   3   7  162.93   40.97
  -3  -2   7  139.72   21.75
  -2  -3   7  176.26   36.86
   2   3   7  171.05   22.49
  -2  -3   7  170.52   29.53
   3  -2   7  167.35   37.53
  -3   2  -7  143.65   22.57
   3  -2  -7  160.26   24.79
   2  -3  -7  143.98   26.19
  -2  -3  -7  149.19   36.94
   3   2  -7  138.66   21.54
  -2   3  -7  133.78   37.95
   2   3  -7  145.96   22.36
  -3  -2  -7  140.97   21.53
  -2  -3   9  168.67   25.81
   2  -3   9  188.70   50.46
   2   3   9  199.78   47.46
  -2  -3   9  196.95   30.02
   3   2   9  197.74   28.40
  -3   2   9  203.02   31.63
  -2   3   9  210.97   33.12
  -3  -2   9  196.89   29.52
   3  -2   9  168.37   49.06
  -3  -2   9  178.93   28.57
   3   2  -9  215.27   28.19
  -3  -2  -9  174.40   28.10
  -3   2  -9  192.20   46.73
   2   3  -9  178.93   46.56
  -2   3  -9  192.05   30.59
   3  -2  -9  204.18   50.22
   2  -3  -9  159.60   51.35
  -2  -3  -9  175.47   30.20
  -3  -2  11  191.60   56.62
   3   2  11  135.88   54.89
  -3   2  11  174.71   36.71
   2  -3  11  103.79   59.71
   3  -2  11  137.33   58.56
  -3  -2  11  156.04   33.30
  -2   3  11  114.73   61.13
  -2  -3  11  179.05   36.16
   2   3  11  155.04   55.84
  -2   3 -11  145.46   35.92
   3  -2 -11  165.40   37.14
  -2  -3 -11  186.36   57.78
   3   2 -11  165.29   54.08
   2  -3 -11  171.97   37.68
  -3  -2 -11  108.96   33.72
  -3   2 -11  192.60   55.23
   2   3 -11  162.87   55.85
   2  -3  13   59.02   37.44
  -3  -2  13   74.12   57.94
  -3  -2  13   65.99   33.43
   3  -2  13   40.88   58.99
  -2   3  13   92.52   37.68
  -3   2  13   65.22   59.49
   2   3  13   34.56   35.75
  -2  -3  13   46.07   36.82
   3   2  13  134.85   56.64
  -2   3 -13   48.87   36.43
   2   3 -13   34.99   34.39
   3   2 -13   63.89   35.02
  -2  -3 -13  119.20   58.05
  -3   2 -13   75.01   56.11
   3  -2 -13   59.84   36.37
   2  -3 -13  100.95   37.66
  -3  -2 -13   94.88   54.68
  -2   3  15   64.78   40.80
  -2  -3  15   57.04   41.56
  -3  -2  15   84.89   64.93
  -3  -2  15   23.78   58.02
   2   3  15   34.69   64.66
  -3   2  15   31.70   66.15
  -2  -3  15   48.03   34.48
   2  -3  15   29.70   41.94
   3   2  15   72.82   62.66
   3  -2  15  102.89   65.53
  -2  -3 -15   -3.46   62.56
   2   3 -15   -3.18   63.52
   2  -3 -15   60.42   66.71
  -3   2 -15   40.95   38.55
   3   2 -15   42.46   62.51
  -3  -2 -15   34.48   60.78
   3  -2 -15    1.06   39.43
  -2   3 -15   55.64   63.05
  -3   3   0  798.37   32.23
   3  -3   0  671.06   29.36
   3   3   0  638.90   40.55
  -3   3   0  709.56   43.77
  -3  -3   0  690.58   26.89
   3   3   213953.83  314.00
  -3   3   213537.58  335.30
  -3  -3   214160.20  320.89
   3  -3   214348.07  313.54
  -3   3   213569.47  306.21
   3  -3   213857.50  340.88
  -3  -3   213665.53  331.93
   3  -3  -213428.15  315.19
   3   3  -213410.39  324.31
  -3  -3  -213761.93  311.56
   3   3   4  729.45   29.14
  -3  -3   4  789.26   41.59
  -3   3   4  805.17   52.74
  -3  -3   4  664.38   30.17
   3  -3   4  836.79   49.42
   3   3  -4  684.65   30.17
  -3  -3  -4  727.22   42.13
   3   3  -4  736.81   42.42
   3  -3  -4  719.54   36.37
  -3  -3   613911.26  363.38
  -3  -3   613822.86  360.18
  -3   3   613745.81  374.71
   3   3   613486.42  353.06
   3  -3   613599.67  364.82
   3   3  -613958.25  362.85
  -3  -3  -613535.51  354.90
   3  -3  -613540.82  369.82
  -3  -3   8  714.32   56.01
   3   3   8  659.13   58.45
  -3   3   8  648.33   68.35
  -3  -3   8  673.92   40.79
   3  -3   8  658.38   64.53
   3  -3  -8  656.39   68.65
   3   3  -8  618.08   58.43
  -3   3  -8  608.06   42.53
  -3  -3  -8  656.39   59.24
   3  -3  10 5580.37  178.24
  -3  -3  10 6003.15  185.54
   3   3  10 5579.99  200.06
  -3   3  10 5667.75  213.72
  -3  -3  10 5610.48  175.30
  -3   3 -10 5351.01  202.75
   3   3 -10 5410.86  199.08
   3  -3 -10 5522.89  177.36
  -3  -3 -10 5553.61  203.76
  -3  -3  12  329.83   49.51
  -3   3  12  329.53   50.97
   3   3  12  354.93   74.90
  -3  -3  12  345.13   68.49
   3  -3  12  353.98   78.55
  -3   3 -12  335.20   75.14
   3  -3 -12  365.17   80.54
   3   3 -12  312.10   72.41
  -3  -3 -12  359.89   72.76
   3   3  14 4280.12  177.09
  -3  -3  14 4073.86  181.32
  -3  -3  14 4260.56  179.83
  -3   3  14 4266.63  225.82
   3  -3  14 4172.42  228.54
   3   3 -14 4091.30  171.45
  -3  -3 -14 4084.43  213.68
   3  -3 -14 4083.52  223.25
  -3   3 -14 3990.99  215.51
  -4   0   0 2712.22   89.06
   4   0   0 2735.98   56.09
   4   0   0 2749.77   89.15
   0  -4   0 2679.02   88.65
   0   4   0 2635.62   88.41
   4   0   2 5750.96  150.18
   0  -4   2 5725.53  135.71
   4   0   2 5982.90  122.43
   0   4   2 5608.99  133.36
  -4   0   2 5789.15  124.22
  -4   0   2 5999.03  141.69
   0  -4  -2 5949.56  159.95
   4   0  -2 5815.81  125.71
   0   4  -2 6028.15  111.75
   4   0  -2 5873.37  138.92
   4   0   4 5358.41  131.34
   0  -4   4 5574.91  120.20
   0   4   4 5095.90  149.23
   0  -4   4 5189.30  149.24
  -4   0   4 5330.84  136.00
  -4   0   4 5147.75  150.85
  -4   0  -4 5267.19  118.18
   0  -4  -4 5197.89  153.43
   4   0  -4 5316.76  136.92
   0   4   6 6143.96  184.71
   0  -4   6 6287.43  162.29
   4   0   6 6141.55  169.25
  -4   0   6 6243.76  161.88
  -4   0   6 6104.83  170.43
   0  -4  -6 6218.18  186.92
  -4   0  -6 6160.02  167.41
   4   0  -6 6153.20  171.53
   0  -4   8 2824.55   93.39
  -4   0   8 2879.76   95.48
  -4   0   8 2774.96   87.66
   0   4   8 2824.35   94.08
   4   0   8 2805.74  108.71
   4   0  -8 2774.74  110.80
   0   4  -8 2825.76   91.56
   0  -4  -8 2830.74  121.51
  -4   0  -8 2727.91  106.16
   0  -4  10 2617.97  135.29
   4   0  10 2692.12  126.40
  -4   0  10 2609.60  124.44
   0   4  10 2596.51  133.86
   0   4 -10 2598.56  130.01
  -4   0 -10 2571.92  119.80
   0  -4 -10 2610.32  101.67
   0   4  12 1513.44  122.47
   4   0  12 1520.77  117.74
  -4   0  12 1542.68  116.39
   0  -4  12 1514.32   87.15
   4   0 -12 1619.10  114.38
   0  -4 -12 1508.99  121.73
  -4   0 -12 1469.67   79.56
   0   4 -12 1577.56  118.11
  -4   0  14 2035.92  112.58
   4   0  14 2129.32  116.83
  -4   0  14 1989.00  115.31
   0  -4  14 2018.47  165.62
   0   4  14 2089.18  161.78
   4   0 -14 1986.99  110.37
   0  -4 -14 2121.69  160.67
  -4   0 -14 2074.60  151.12
   0   4 -14 2026.04  156.86
   4   1   1  453.38   38.97
  -4  -1   1  458.73   13.35
   4  -1   1  451.06   21.50
  -4  -1   1  510.07   40.23
  -4   1   1  481.36   23.22
   1   4   1  463.43   34.89
   1  -4   1  473.01   41.01
  -1  -4   1  462.37   23.63
  -1   4   1  447.27   26.46
   4  -1   1  470.46   22.37
  -4   1   1  487.08   25.78
   4  -1  -1  481.22   36.99
   1  -4  -1  468.36   26.25
  -1  -4  -1  455.77   35.98
  -1   4  -1  470.68   25.93
  -4   1  -1  444.97   22.22
   4   1  -1  477.33   14.23
   4  -1  -1  443.86   23.55
   1   4  -1  439.56   18.85
   4   1  -1  457.59   25.80
  -4   1   3 4412.52   99.79
   4   1   3 4532.50   99.47
  -4  -1   3 4538.92  102.82
  -1   4   3 4569.04  132.03
  -4   1   3 4516.98  127.63
  -1  -4   3 4538.86  122.61
   4  -1   3 4687.68  109.71
  -1  -4   3 4592.76  103.96
  -4  -1   3 4595.51  112.47
   1   4   3 4454.01  107.87
   4  -1  -3 4582.10  116.52
   4   1  -3 4533.32  102.80
   4   1  -3 4614.57  111.97
   1  -4  -3 4583.42  132.93
  -4  -1  -3 4620.40  100.33
  -1  -4  -3 4543.50  110.45
  -4  -1   5 2840.49   83.98
  -1   4   5 2745.89   81.55
  -4   1   5 2776.23   97.77
  -4   1   5 2836.27   90.51
  -4  -1   5 2716.86   94.35
  -1  -4   5 2900.63   73.61
   4   1   5 2755.85   81.07
   1  -4   5 2758.94   98.78
   1   4   5 2795.14   97.15
  -1  -4   5 2814.15   96.51
   4  -1   5 2832.71   87.14
  -4   1  -5 2844.30   86.43
   1  -4  -5 2807.36  102.03
  -1  -4  -5 2765.17   99.11
   4   1  -5 2793.72   82.69
   4  -1  -5 2809.17   91.72
  -4  -1  -5 2769.01   79.62
  -4  -1   7  834.88   62.38
  -1   4   7  894.88   67.69
  -4  -1   7  867.63   54.49
  -1  -4   7  860.65   63.32
   1   4   7  832.55   43.34
   4  -1   7  888.68   56.65
   4   1   7  820.86   37.27
  -1  -4   7  897.71   43.96
  -4   1   7  828.71   57.77
   1  -4   7  833.92   43.95
   1   4  -7  870.73   42.48
   4   1  -7  852.40   38.00
  -4   1  -7  856.13   54.12
   1  -4  -7  842.41   45.64
  -1  -4  -7  820.55   43.82
  -4  -1  -7  817.32   35.91
   4  -1  -7  832.33   58.74
  -1   4   9  932.68   55.23
  -4   1   9  927.58   73.12
   4   1   9  950.85   70.64
  -4  -1   9  915.54   49.40
  -1  -4   9  983.75   80.00
   4  -1   9  930.63   72.86
   1  -4   9  992.37   80.91
   1   4   9  996.15   77.88
  -4  -1   9  942.14   77.04
  -1   4  -9  887.86   52.86
  -1  -4  -9  995.96   79.83
   1  -4  -9  897.70   56.65
  -4   1  -9  950.73   49.52
   4  -1  -9  972.00   75.67
  -4  -1  -9  960.59   67.83
   1   4  -9  936.50   76.11
   4   1  -9  938.56   70.34
  -1  -4  11  573.52   53.76
  -4   1  11  621.18   77.57
   1   4  11  579.62   51.50
  -4  -1  11  579.35   74.82
   4  -1  11  615.82   77.39
   1  -4  11  570.75   54.60
  -4  -1  11  574.81   78.32
  -1   4  11  618.35   85.08
   4   1  11  553.36   50.29
  -1  -4 -11  534.46   53.23
  -4   1 -11  547.93   47.62
   1  -4 -11  644.95   84.02
   1   4 -11  581.84   51.08
   4  -1 -11  596.57   78.52
  -4  -1 -11  604.60   71.19
  -1   4 -11  584.81   79.30
   4   1 -11  555.18   48.70
   1   4  13  371.51   56.03
  -1  -4  13  391.71   57.23
   4  -1  13  441.74   87.26
   1  -4  13  422.58   91.41
  -4  -1  13  456.08   86.33
  -1   4  13  394.29   92.33
  -4  -1  13  464.28   54.90
  -4   1  13  461.83   86.59
   4   1  13  456.70   85.66
  -1   4 -13  333.77   87.18
  -1  -4 -13  452.03   88.11
  -4   1 -13  364.97   52.20
  -4  -1 -13  375.20   79.88
   4   1 -13  440.13   82.75
   1   4 -13  363.05   54.92
   4  -1 -13  368.64   84.68
   1  -4 -13  449.76   92.38
  -1  -4  15  616.24   69.85
  -4  -1  15  638.22  120.32
  -1  -4  15  701.19   83.49
   1  -4  15  827.41  131.53
  -1   4  15  839.38  124.86
   4  -1  15  787.82  122.19
   1   4  15  838.60  123.13
   4   1  15  828.81  120.58
  -4  -1  15  627.82  115.18
  -4   1  15  730.07   79.42
  -1   4 -15  680.23   78.03
   1   4 -15  750.14  118.77
  -4   1 -15  712.54  115.81
  -4  -1 -15  701.12   75.09
  -1  -4 -15  742.12  122.57
   4  -1 -15  776.02  118.85
   1  -4 -15  755.35   81.81
   4   1 -15  761.57  114.95
   4  -2   0 8457.21  185.79
  -4   2   0 8676.27  201.33
  -4   2   0 8711.83  207.24
  -2   4   0 8703.89  178.79
  -2  -4   0 8565.19  188.88
   4   2   0 8187.69  191.19
   4  -2   0 8179.06  178.56
  -4  -2   0 7965.88  143.41
   2  -4   0 8247.07  194.61
  -2   4   0 8202.94  213.61
   2   4   0 8226.25  196.40
   2  -4   2 3968.47  121.95
  -4  -2   2 3870.87  117.31
  -4  -2   2 3593.78   77.48
  -4   2   2 3798.78   91.14
  -4   2   2 3756.60   93.18
   4  -2   2 4015.73  102.96
  -2   4   2 3909.44  121.40
   2   4   2 3649.87   88.06
   4  -2   2 3901.70   95.65
   4   2   2 3680.06   76.79
  -2  -4   2 3569.11   90.96
  -2  -4   2 3885.50  109.26
   4  -2  -2 3835.71  106.85
   2  -4  -2 3812.81  118.65
  -2  -4  -2 3969.34  110.94
  -4  -2  -2 3750.35   83.07
   4   2  -2 3730.97   96.75
   2   4  -2 3783.76   93.77
   4   2  -2 3995.01   85.46
  -4   2   4 3841.09  117.74
  -2   4   4 3761.31  122.77
   2   4   4 3878.53  114.83
  -4  -2   4 3891.72  100.14
  -4   2   4 3795.79  113.52
   4   2   4 3855.92   98.47
   2  -4   4 3736.16  118.23
  -2  -4   4 4147.23  105.59
  -4  -2   4 3899.56  119.85
  -2  -4   4 3826.37   97.53
   4  -2   4 3875.58   95.90
   4   2  -4 3847.29  101.33
   2  -4  -4 3756.83  103.39
   4  -2  -4 3837.56  116.30
   4   2  -4 3974.85  102.85
  -4  -2  -4 3776.95   85.08
  -2  -4  -4 3896.33  115.76
   2   4   6 6108.33  183.11
  -2  -4   6 5989.08  180.28
  -2  -4   6 6192.21  165.91
   4   2   6 5971.15  164.68
   4  -2   6 6066.00  181.76
  -2   4   6 6196.58  193.23
  -4  -2   6 5967.77  166.23
  -4  -2   6 5999.77  157.27
  -4   2   6 6083.77  182.19
   2  -4   6 6268.84  186.64
   2  -4  -6 6219.45  191.23
   4   2  -6 5877.87  147.81
  -4  -2  -6 6041.15  163.95
  -2  -4  -6 5952.60  179.10
   4  -2  -6 5951.22  160.05
  -4  -2   8 4385.49  154.46
   4   2   8 4280.87  122.76
   2   4   8 4189.21  150.23
  -2  -4   8 4415.86  142.33
  -4  -2   8 4220.06  143.71
  -2   4   8 4272.14  161.72
  -4   2   8 4205.49  128.01
   4  -2   8 4259.40  151.93
  -2  -4   8 4239.37  128.62
   2  -4   8 4196.84  156.10
   2   4  -8 4357.07  152.30
   4   2  -8 4188.29  121.15
  -4   2  -8 4128.01  146.48
  -2  -4  -8 4223.06  152.65
  -4  -2  -8 4244.07  141.44
   4  -2  -8 4276.29  154.63
   2  -4  -8 4199.20  160.75
  -4  -2  10 1361.23   66.51
   2   4  10 1318.87   69.19
  -2   4  10 1232.03   73.58
  -2  -4  10 1329.27   99.35
  -4  -2  10 1338.04   69.32
   4  -2  10 1301.50   69.44
   2  -4  10 1312.64   73.72
   4   2  10 1291.04   91.49
  -4   2  10 1374.42   97.59
  -2  -4  10 1366.20   63.47
   4   2 -10 1291.67   64.85
  -2  -4 -10 1285.58   67.86
   4  -2 -10 1254.51   70.39
   2  -4 -10 1316.74  106.33
  -4   2 -10 1205.57   65.59
  -4  -2 -10 1313.26   87.02
   2   4 -10 1313.66   67.61
  -2  -4  12 2066.01  124.39
  -2  -4  12 2187.77  103.67
   2   4  12 2195.36  101.07
  -4   2  12 2090.32  139.52
   2  -4  12 2198.15  144.51
   4  -2  12 2189.65  104.05
   4   2  12 2208.00  134.52
  -4  -2  12 2144.67  133.54
  -2   4  12 2135.50  106.04
  -4  -2  12 2195.85  104.92
  -2   4 -12 2079.59   99.63
   4   2 -12 2094.39  130.45
  -2  -4 -12 2132.28  100.56
  -4   2 -12 1978.73   97.27
   2  -4 -12 2057.35  102.55
   2   4 -12 2060.86   98.59
  -4  -2 -12 2069.45   96.18
   4  -2 -12 2131.04  139.23
  -4  -2  14 2057.53  157.41
  -4  -2  14 2013.07  115.59
  -4   2  14 2138.39  161.65
   2  -4  14 1976.08  117.72
  -2  -4  14 1823.38  144.66
  -2  -4  14 2160.95  119.95
   2   4  14 2165.59  115.49
  -2   4  14 2098.01  117.34
   4   2  14 2084.52  114.99
   4  -2  14 2168.82  119.43
   4  -2 -14 1988.08  157.81
  -2  -4 -14 2037.69  111.90
   2  -4 -14 2094.60  116.88
   4   2 -14 2034.56  111.35
   2   4 -14 2002.87  112.62
  -2   4 -14 1999.40  113.57
  -4  -2 -14 1941.81  150.83
  -4   2 -14 1964.61  111.09
  -3   4   1  542.02   44.21
  -3   4   1  534.30   20.43
   3  -4   1  533.01   43.91
   4   3   1  549.25   23.32
   4   3   1  577.78   42.94
  -4  -3   1  539.44   19.70
  -4  -3   1  520.53   27.09
  -4   3   1  564.66   24.59
  -3  -4   1  541.69   29.50
   3   4   1  526.04   28.61
  -4  -3   1  557.49   23.86
   4  -3   1  524.89   25.83
   4  -3   1  577.56   38.30
   3   4  -1  537.44   32.24
  -3   4  -1  545.44   28.49
  -3   4  -1  548.03   19.88
   3  -4  -1  539.06   42.90
  -4   3  -1  546.48   28.43
   4  -3  -1  547.59   38.43
  -4  -3  -1  504.98   18.82
   4   3  -1  554.95   38.34
  -3  -4  -1  560.67   30.21
  -4   3   3   40.44   13.32
  -3  -4   3   43.83   17.82
   4   3   3   41.07   12.89
   4  -3   3   58.12   21.32
   3  -4   3   52.56   25.34
   4  -3   3   47.22   12.55
  -3  -4   3   59.74   17.02
   3  -4   3   33.92    9.32
  -3   4   3   29.28   15.26
  -4   3   3   37.36   20.92
   3   4   3   51.27   17.26
  -4  -3   3   39.12   22.08
  -4  -3   3   44.85   13.20
   3   4  -3   24.27   16.36
   3  -4  -3   42.25   15.39
  -3  -4  -3   27.45   11.03
  -4  -3  -3   38.26   13.43
   4  -3  -3   24.05   22.58
   4   3  -3   49.30   20.29
  -3  -4   5  217.30   29.86
   4   3   5  239.43   27.79
  -3  -4   5  212.77   31.76
   4  -3   5  206.35   22.49
   3  -4   5  199.14   23.84
  -3   4   5  220.89   26.11
  -4   3   5  238.57   24.21
  -4  -3   5  224.79   18.26
  -4  -3   5  200.78   22.21
   3   4   5  253.10   32.26
   3  -4  -5  239.78   42.04
  -3  -4  -5  199.83   32.96
   4  -3  -5  183.06   38.75
  -4  -3  -5  217.24   27.73
   4   3  -5  233.80   29.35
  -4  -3   7  345.64   40.89
   4  -3   7  332.22   47.69
  -3   4   7  375.96   55.36
  -4  -3   7  360.60   44.59
  -4   3   7  366.86   51.24
  -3  -4   7  318.89   38.67
  -3  -4   7  323.35   29.37
   4   3   7  336.20   26.60
   3  -4   7  377.40   50.24
   3   4   7  377.80   44.33
   4   3  -7  388.27   41.93
  -4  -3  -7  368.82   40.97
   3  -4  -7  356.02   54.32
   3   4  -7  329.44   44.74
   4  -3  -7  346.08   51.77
  -3  -4  -7  347.84   44.82
  -4  -3   9   82.81   34.97
   3   4   9   45.38   22.77
  -4   3   9   41.78   25.21
  -3   4   9   39.38   44.33
  -4  -3   9   41.76   35.23
   4   3   9   42.41   33.80
   3  -4   9   54.20   24.89
   4  -3   9   52.29   24.08
  -3  -4   9   12.10   36.93
  -3  -4   9   69.39   31.79
  -3  -4  -9   95.25   37.01
   3  -4  -9   70.30   43.51
   3   4  -9   23.70   22.63
   4  -3  -9  105.44   40.77
   4   3  -9   69.47   34.46
  -4  -3  -9   51.93   34.20
   4  -3  11  130.88   52.09
   3  -4  11  116.07   54.53
  -3  -4  11  121.91   42.39
  -4  -3  11   61.05   29.72
  -3   4  11   54.05   56.12
   4   3  11   85.01   46.69
  -4   3  11   49.12   54.38
  -4  -3  11   90.44   48.61
   3   4  11   71.21   30.67
  -3  -4  11   75.09   32.04
  -3  -4 -11   82.74   30.62
   3  -4 -11   95.24   34.73
  -4   3 -11   66.36   30.28
  -4  -3 -11  117.75   46.50
   4  -3 -11   91.21   54.20
   4   3 -11  110.34   47.22
   3   4 -11   53.36   29.83
  -4  -3  13  191.36   44.51
  -4  -3  13  167.62   66.44
   4  -3  13  142.75   46.78
   3  -4  13  199.44   47.89
  -4   3  13   80.60   74.20
  -3  -4  13  162.76   45.99
  -3  -4  13  153.97   62.36
   4   3  13  189.68   43.17
  -3   4  13  126.14   48.90
   3   4  13  124.23   44.16
  -4   3 -13  154.04   43.24
   3   4 -13  166.24   42.84
   4   3 -13  161.70   43.50
  -4  -3 -13  175.92   67.15
   4  -3 -13  154.94   47.56
   3  -4 -13  122.97   77.71
  -3  -4 -13  206.29   43.02
   4  -3  15  -32.55   41.26
  -4  -3  15   86.62   59.06
  -3   4  15   45.88   69.55
  -3  -4  15  -14.27   55.49
   3  -4  15   58.57   67.31
  -4  -3  15   23.04   39.15
   4   3  15   58.76   62.49
   3   4  15   67.82   63.83
  -3  -4  15   85.77   41.26
  -4   3  15   -8.87   68.01
   4  -3 -15   69.33   41.39
  -4  -3 -15   62.64   59.90
   4   3 -15   46.57   61.51
   3   4 -15   56.69   62.28
  -3  -4 -15   54.99   37.42
   3  -4 -15   92.74   68.28
  -4   3 -15   15.41   38.79
  -4   4   0 2605.58   74.21
   4   4   0 2388.13   68.09
  -4  -4   0 2530.14   64.35
   4  -4   0 2348.46   85.63
  -4   4   0 2445.46   71.73
  -4   4   2 4705.25  127.09
   4   4   2 4903.41  113.85
  -4  -4   2 4753.72  103.16
  -4   4   2 4809.81  139.44
   4  -4   2 4680.75  120.02
  -4  -4   2 4666.42  132.13
  -4  -4   2 4809.35  114.55
   4  -4   2 4954.48  109.06
  -4  -4  -2 4813.43  114.18
   4  -4  -2 4675.30  138.74
   4   4  -2 4588.09  126.63
   4  -4   4 6769.52  192.60
   4  -4   4 6995.95  181.93
  -4  -4   4 7173.86  182.62
  -4   4   4 6875.16  201.25
   4  -4   4 6629.85  148.84
   4   4   4 6774.36  173.63
  -4  -4   4 6953.53  195.43
   4   4  -4 6791.04  188.10
  -4  -4  -4 6690.35  174.25
   4  -4  -4 6709.20  175.82
  -4  -4   6 1868.39   77.64
   4  -4   6 1837.60   66.85
  -4   4   6 1771.05   90.95
   4   4   6 1863.38   75.63
  -4  -4   6 1866.15   82.01
   4  -4  -6 1837.74   91.26
  -4  -4  -6 1819.27   75.39
   4   4   8 2731.82  113.64
  -4  -4   8 2672.82   97.06
   4  -4   8 2618.92  121.98
  -4   4   8 2769.26  132.21
  -4  -4   8 2714.18  116.99
   4   4  -8 2848.19  117.17
  -4  -4  -8 2649.13   90.17
   4  -4  -8 2668.43  129.23
   4   4  10 3491.19  122.94
  -4  -4  10 3559.73  124.85
   4  -4  10 3439.30  127.15
  -4  -4  10 3514.78  126.16
  -4   4  10 3410.57  129.50
  -4  -4 -10 3302.96  120.04
   4   4 -10 3479.98  121.97
   4  -4 -10 3309.65  128.32
   4  -4  12 1844.64  143.50
  -4   4  12 1869.01  144.46
  -4  -4  12 1845.31  130.07
  -4  -4  12 1959.33  101.08
   4   4  12 1900.51   98.89
   4   4 -12 1852.46   97.41
   4  -4 -12 1874.16  143.24
  -4  -4 -12 1932.05  130.59
   4  -4  14  881.35  125.82
  -4   4  14  921.40  127.13
  -4  -4  14  951.94   83.13
  -4  -4  14  760.65  109.62
   4   4  14 1001.73   80.85
  -4  -4 -14  812.18   75.99
   4  -4 -14  898.63   84.47
   4   4 -14  935.85   78.02
   5   0   1    8.00    4.83
  -5   0   1   11.54   11.57
  -5   0   1   13.15    5.31
   0  -5   1   18.21   11.20
   5   0   1   11.46   17.50
   0   5   1   21.08   11.29
   5   0   1    9.25    5.04
   5   0  -1   16.25   10.87
   0   5  -1   17.27   11.00
   0  -5  -1    1.53   11.16
   5   0  -1   18.03    8.17
  -5   0   3   27.19   12.72
   5   0   3   38.10   14.08
   5   0   3   35.03   10.43
  -5   0   3   54.84   15.95
   0   5   3   44.02   24.70
   0  -5   3   46.33   25.20
   5   0  -3   37.06   13.55
   5   0  -3   28.65   25.21
   0  -5  -3   37.39   15.80
   5   0   5    9.83   10.21
  -5   0   5   -3.10    6.66
   0   5   5   12.62    9.94
   0  -5   5    9.12    4.90
   0  -5   5  -10.92    9.71
   0  -5  -5    1.12   10.24
  -5   0  -5   -5.23   10.08
   5   0  -5   -2.83    7.08
   0   5   7    3.50   29.02
   0  -5   7   64.47   27.85
  -5   0   7   -1.11   28.64
   0  -5   7    7.59   12.47
   5   0   7   13.82   13.03
  -5   0   7   11.53   13.65
  -5   0  -7   32.63   20.42
   5   0  -7   38.83   22.21
   0  -5  -7   78.02   29.18
   0   5   9   13.16   21.50
  -5   0   9    6.23   17.31
   0  -5   9   36.70   21.20
   5   0   9   29.46   17.30
  -5   0   9    3.97   20.86
   0  -5   9   25.70   18.60
  -5   0  -9   35.98   26.96
   0  -5  -9   35.98   35.67
   5   0  -9    8.89   17.98
   0   5  11   25.30   41.22
  -5   0  11   18.49   40.60
   5   0  11   -5.52   22.12
   0  -5  11   23.48   42.40
  -5   0  11    5.47   21.86
   0  -5 -11   21.73   25.52
   5   0 -11   35.67   22.00
  -5   0 -11   48.93   33.35
  -5   0  13   26.38   47.57
   0  -5  13   44.64   33.59
   0   5  13   18.75   53.84
   5   0  13   53.06   49.08
  -5   0  13   69.86   51.49
   0  -5 -13   22.75   33.42
   5   0 -13    3.57   48.00
  -5   0 -13  -11.92   45.28
   0  -5  15   45.13   40.41
   0  -5  15    7.86   45.91
   0   5  15  100.68   64.05
  -5   0  15    6.56   37.16
  -5   0  15    0.41   35.70
   5   0  15   71.93   59.83
   5   0 -15   50.65   57.70
   0  -5 -15   37.48   63.80
  -5   0 -15   47.40   55.87
   5  -1   0 3323.02   78.20
  -1  -5   0 3403.69   89.36
  -5  -1   0 3265.22  111.20
   1  -5   0 3317.15   91.76
  -5   1   0 3526.92   93.09
  -5   1   0 3442.92   79.73
  -1   5   0 3292.41   92.67
   1   5   0 3244.91  104.18
   5   1   0 3175.70   86.60
   5  -1   0 3329.66  103.41
  -5   1   2 6935.70  160.65
  -5  -1   2 6655.61  189.17
   5  -1   2 6589.37  173.81
  -5  -1   2 6565.44  137.09
   1   5   2 6479.33  159.27
   5  -1   2 6634.65  153.29
   5  -1   2 6749.95  154.78
  -1   5   2 6400.90  164.86
  -5   1   2 6750.32  188.74
   1  -5   2 6338.04  185.78
  -1  -5   2 6595.63  163.62
   5   1   2 6662.73  135.53
   5   1   2 6337.36  162.07
  -1  -5  -2 6812.84  184.67
   1   5  -2 6741.16  144.01
   5   1  -2 6981.04  149.02
   5  -1  -2 6730.15  159.73
   5  -1  -2 6623.71  163.99
   1  -5  -2 6405.39  164.76
   5   1  -2 6512.51  182.94
   5  -1   4 2613.06   75.70
  -5   1   4 2450.30   77.93
  -5   1   4 2500.86   74.85
   1  -5   4 2502.23   76.08
   1   5   4 2381.66   73.09
  -5  -1   4 2578.86   71.75
  -5  -1   4 2391.94   75.78
  -1   5   4 2609.82  100.30
   5   1   4 2496.90   68.35
  -1  -5   4 2375.19   57.85
  -1  -5   4 2409.37   71.93
   5  -1  -4 2494.13   81.13
  -1  -5  -4 2431.06   75.35
  -5  -1  -4 2561.41   68.38
   1  -5  -4 2581.51   78.90
   5   1  -4 2459.92   69.49
   5   1  -4 2457.80   76.44
   1  -5   6 7219.61  158.08
  -1  -5   6 6559.51  200.88
  -1   5   6 6423.60  202.66
   5   1   6 6531.78  177.96
  -1  -5   6 7195.96  176.64
  -5   1   6 6424.28  168.33
   1  -5   6 6570.35  202.18
   5  -1   6 6641.26  190.29
  -5   1   6 6370.31  199.53
  -5  -1   6 6558.06  180.80
   1   5   6 6616.20  179.32
  -5  -1   6 6258.22  173.79
   1  -5  -6 6553.34  180.28
  -5  -1  -6 6570.26  176.08
  -1  -5  -6 6515.47  202.49
   5   1  -6 6491.88  178.52
  -5   1  -6 6449.47  184.87
   5  -1  -6 6485.32  188.89
  -1  -5   8 2201.31  110.89
  -5  -1   8 2045.96   95.16
  -1  -5   8 2112.50   67.16
  -1   5   8 2288.08  116.43
   1  -5   8 2206.99   84.86
  -5  -1   8 2189.99   84.90
   5  -1   8 2193.51   79.25
  -5   1   8 2132.14   99.93
   1   5   8 2294.00   85.11
   5   1   8 2170.68   94.90
  -5   1   8 2400.86  113.35
  -5   1  -8 2092.89   75.36
   1  -5  -8 2227.22   86.73
   5   1  -8 2093.98   94.65
  -1  -5  -8 2137.17   83.25
  -5  -1  -8 2132.57   72.32
   5  -1  -8 2079.50   79.38
  -5  -1  10 3074.56  150.99
  -5   1  10 3020.02  109.82
   5   1  10 3192.40  138.85
  -5   1  10 3072.62  152.00
   1  -5  10 2971.50  151.93
  -1  -5  10 3087.38  150.94
  -1   5  10 2958.97  116.31
   5  -1  10 3210.54  115.16
  -5  -1  10 3021.70  108.55
  -1  -5  10 2980.87  123.94
   1   5  10 3127.02  146.84
  -1  -5 -10 3036.46  150.07
  -5  -1 -10 2978.61  131.44
  -5   1 -10 2892.85  133.61
   5   1 -10 2930.91  105.33
   5  -1 -10 3004.22  140.41
   1  -5 -10 3018.44  116.48
  -5  -1  12 1216.85  106.19
  -5   1  12 1116.67  117.49
  -1  -5  12 1053.31   89.35
   1  -5  12 1206.73   84.98
   5  -1  12 1248.42   80.15
   5   1  12 1181.91  107.43
  -5   1  12 1115.79   74.83
  -1   5  12 1113.36  120.45
  -1  -5  12 1207.50  118.61
   1   5  12 1139.46   79.25
  -5  -1  12 1229.30  113.88
   5  -1 -12 1177.96  107.36
   5   1 -12 1105.36  104.14
  -5  -1 -12 1097.21  102.88
  -1  -5 -12 1232.16   78.88
  -5   1 -12 1132.08  102.84
   1  -5 -12 1194.19  120.31
  -5  -1  14 2336.76  174.15
  -1   5  14 2521.64  179.08
  -5   1  14 2237.30  172.38
   1  -5  14 2501.01  179.44
  -5   1  14 2545.59  166.82
  -1  -5  14 2542.46  134.72
   1   5  14 2515.23  128.96
   5   1  14 2457.55  128.42
  -1  -5  14 2019.62  117.52
   5  -1  14 2615.49  131.65
  -5  -1  14 2497.64  165.97
  -5  -1 -14 2292.13  122.06
   1  -5 -14 2422.75  176.81
   5  -1 -14 2347.93  122.75
  -1  -5 -14 2412.06  127.23
   5   1 -14 2380.29  121.34
  -5   1 -14 2320.72  121.16
  -5  -2   1  477.64   29.24
   2  -5   1  508.88   45.61
   2   5   1  464.40   35.64
   5  -2   1  471.87   19.05
  -5   2   1  521.89   40.93
  -5   2   1  486.47   29.69
  -2  -5   1  476.74   24.81
  -2   5   1  468.13   31.11
   5  -2   1  466.91   22.29
   5   2   1  478.05   30.07
  -5   2  -1  471.36   34.43
   5   2  -1  498.44   43.10
  -2   5  -1  496.71   45.23
   2  -5  -1  482.38   29.54
   5  -2  -1  500.56   30.05
  -2   5  -1  505.34   14.87
  -2  -5  -1  521.95   37.76
   5  -2  -1  527.44   39.90
   2   5  -1  450.86   25.33
   2  -5   3   59.82   29.59
  -5   2   3   51.65   11.86
   5  -2   3   67.77   16.19
   2   5   3   58.12   22.32
  -5  -2   3   59.95   16.38
  -2  -5   3   59.70   22.70
  -2   5   3   55.36   17.37
   5  -2   3   65.28   17.34
   5  -2   3   47.48   16.61
  -5  -2   3   42.76   11.59
  -2  -5   3   56.52   13.50
  -5   2   3   72.27   25.29
   5   2   3   55.34   13.98
  -2  -5   3   56.11   13.24
   5   2  -3   69.80   16.41
   5   2  -3   46.45   26.08
  -5  -2  -3   42.94    9.64
   2  -5  -3   60.54   29.86
   5  -2  -3   32.52   12.53
  -2  -5  -3   68.31   14.90
   2   5  -3   57.47   12.85
  -5   2   5  978.63   53.38
  -2   5   5  925.08   67.84
   5   2   5  949.11   42.51
   2  -5   5  979.92   63.62
  -5  -2   5  938.90   43.78
  -5   2   5  947.09   61.66
   2   5   5  930.27   41.12
   5  -2   5  974.53   51.09
  -5  -2   5  953.44   43.97
  -2  -5   5  940.30   40.85
  -2  -5   5  953.92   40.71
  -5  -2  -5  925.20   40.72
   2  -5  -5  945.93   67.20
   5  -2  -5  894.45   39.42
  -2  -5  -5  919.33   42.03
   5   2  -5  972.28   44.77
   5  -2   7  827.94   59.65
  -2  -5   7  818.15   63.44
  -5  -2   7  794.10   65.08
  -2   5   7  819.23   75.13
   5   2   7  831.13   52.68
  -5   2   7  808.15   69.22
   2   5   7  820.99   65.33
  -5  -2   7  782.91   38.02
   2  -5   7  808.73   69.77
  -5   2   7  837.41   42.96
  -2  -5   7  811.52   35.01
  -5  -2  -7  829.92   51.15
  -2  -5  -7  835.76   65.53
   5   2  -7  821.30   37.86
   5  -2  -7  844.99   43.72
   2  -5  -7  777.73   50.27
  -5  -2   9   84.16   38.40
  -5   2   9   43.67   36.53
   2   5   9   42.21   38.13
   5  -2   9   53.22   36.60
  -2  -5   9   34.38   24.12
  -5   2   9   25.43   25.78
   2  -5   9  104.06   41.30
  -5  -2   9   55.02   33.10
  -2   5   9   59.72   45.19
   5   2   9   58.84   32.84
  -2  -5   9   31.13   25.58
  -5  -2  -9   78.66   31.17
   5   2  -9   26.47   20.30
  -5   2  -9   28.55   21.15
  -2  -5  -9   44.96   23.86
   5  -2  -9   67.28   37.45
   2  -5  -9   69.95   44.17
  -5  -2  11    9.76   27.88
  -5  -2  11   47.38   30.15
   5  -2  11   87.05   47.12
  -2  -5  11   62.37   22.03
  -2  -5  11   65.07   50.67
   5   2  11   54.29   43.83
   2  -5  11   64.88   32.58
   2   5  11   66.20   30.40
  -5   2  11   59.16   31.58
  -2   5  11   40.53   33.82
  -5   2  11   81.84   28.44
  -5  -2 -11   68.93   41.36
   2   5 -11   46.26   29.85
   5   2 -11   41.35   43.18
   5  -2 -11   82.40   47.95
  -2  -5 -11   38.01   48.67
   2  -5 -11   93.41   54.78
  -5   2 -11   44.12   43.89
  -2   5  13  492.42  101.34
  -2  -5  13  314.79   72.32
   5  -2  13  485.64   91.12
  -5  -2  13  462.45   84.30
  -5   2  13  435.64   58.13
   2   5  13  483.58   57.74
  -5   2  13  383.66   59.65
   5   2  13  435.81   55.52
  -5  -2  13  404.38   58.76
  -2  -5  13  375.90   94.48
   2  -5  13  463.09   98.85
   2   5 -13  418.87   56.98
  -2  -5 -13  376.22   57.94
   2  -5 -13  458.87   96.86
   5   2 -13  397.86   54.59
   5  -2 -13  381.12   56.88
  -5   2 -13  372.62   83.61
  -5  -2 -13  405.85   51.71
   2  -5  15   93.88   49.57
  -2   5  15   46.38   50.01
  -5  -2  15   77.15   71.62
   2   5  15   48.30   46.80
   5  -2  15   77.99   75.69
   5   2  15  100.51   71.12
  -5   2  15   65.48   46.16
  -5  -2  15   26.59   45.12
  -2  -5  15   98.97   49.47
  -5   2  15  112.00   73.23
  -2  -5  15   70.82   36.84
  -2  -5 -15   80.17   45.49
   5   2 -15   52.56   70.23
  -5  -2 -15  115.84   66.69
  -5   2 -15  127.83   43.30
   5  -2 -15  105.94   45.01
   2  -5 -15   83.29   49.46
  -5  -3   011317.10  225.01
   5   3   012291.21  298.93
  -3  -5   012606.02  305.07
  -5  -3   011835.71  234.83
  -3   5   012302.59  304.68
  -5   3   012572.42  313.02
   3   5   012146.87  291.94
  -5   3   012313.49  307.34
   5  -3   012015.60  299.73
  -3   5   012841.61  282.86
   3   5   012067.16  298.33
   3  -5   011813.01  313.75
   5  -3   012553.16  307.02
  -3   5   2 1060.16   62.48
  -5  -3   2 1073.73   29.92
  -5  -3   2 1048.82   59.08
  -5   3   2 1019.75   40.80
   5  -3   2  982.09   47.00
  -5   3   2 1095.15   51.72
   3  -5   2  989.24   44.64
   5   3   2 1044.47   32.43
  -3  -5   2 1006.08   47.88
   5  -3   2 1011.63   40.21
   5   3   2  999.73   43.72
   3   5   2  940.29   34.08
  -5  -3  -2 1047.52   32.28
   3  -5  -2 1007.92   44.78
   3   5  -2 1004.52   42.47
  -3  -5  -2 1075.98   50.02
   5   3  -2 1004.43   56.42
   5  -3  -2  978.67   51.55
  -5   3   4 7995.41  200.78
   5   3   4 8278.47  197.35
   5  -3   4 8175.50  216.25
   3  -5   4 7661.65  150.25
  -3  -5   4 8207.36  211.39
  -3   5   4 7896.74  207.70
  -5   3   4 7736.40  220.59
   5  -3   4 7918.05  180.97
   5  -3   4 8191.17  203.38
  -5  -3   4 7980.06  206.31
   3   5   4 8161.06  219.15
   3  -5   4 8110.14  239.68
  -3  -5   4 8242.08  219.31
  -5  -3   4 8020.11  181.21
   3   5  -4 8010.23  192.61
   5  -3  -4 7907.56  218.30
  -5  -3  -4 8149.47  194.12
   3  -5  -4 7858.68  207.74
   5   3  -4 7982.64  225.41
  -3  -5  -4 8100.23  219.27
   5   3  -4 8882.98  213.01
  -3   5   6  729.62   68.58
  -5   3   6  763.09   64.49
   3   5   6  775.86   56.89
   5  -3   6  759.96   55.86
  -3  -5   6  757.73   35.15
  -5   3   6  783.99   41.89
   3  -5   6  749.41   63.67
  -5  -3   6  776.42   34.13
  -5  -3   6  751.57   43.11
   5   3   6  808.78   46.39
  -3  -5   6  764.55   39.73
   5   3  -6  856.08   50.10
   5  -3  -6  731.20   60.82
   3  -5  -6  778.65   69.06
  -3  -5  -6  742.16   39.25
  -5  -3  -6  786.27   46.59
  -5   3   8 6457.10  192.00
   3  -5   8 6267.71  218.52
  -5  -3   8 6619.47  184.90
  -5   3   8 6535.62  192.22
  -3  -5   8 6564.00  190.23
  -3   5   8 6488.13  199.67
   5   3   8 6614.80  183.71
  -5  -3   8 6667.43  224.78
  -3  -5   8 7082.85  218.10
   5  -3   8 6455.59  214.85
   3   5   8 6637.77  191.49
   5   3  -8 6553.17  208.82
   5  -3  -8 6395.53  221.44
   3  -5  -8 6424.83  229.09
  -5  -3  -8 6526.94  203.81
  -3  -5  -8 6378.19  186.61
   3  -5  10  706.24   85.93
  -3  -5  10  637.68   66.05
   5  -3  10  625.23   55.26
  -5  -3  10  703.10   74.73
  -3  -5  10  666.99   80.09
  -5   3  10  694.68   82.95
  -5  -3  10  699.75   53.99
   3   5  10  771.35   80.28
   5   3  10  698.30   71.43
  -3   5  10  818.58   92.90
   3  -5 -10  718.63   89.96
  -3  -5 -10  698.47   78.43
   5  -3 -10  662.62   55.94
   5   3 -10  705.17   72.19
  -5  -3 -10  692.92   48.10
   5  -3  12 4299.13  204.31
  -5   3  12 4247.49  162.88
   3   5  12 4286.04  161.32
  -3  -5  12 4419.76  187.88
   5   3  12 4248.17  160.24
  -5  -3  12 4201.29  201.99
  -5  -3  12 4265.37  196.26
   3  -5  12 4222.94  211.08
  -3   5  12 4113.44  166.17
  -3  -5  12 4347.92  204.84
   5   3 -12 4211.32  192.37
   5  -3 -12 4036.23  202.32
   3  -5 -12 4103.85  163.80
  -5  -3 -12 4106.15  190.35
  -3  -5 -12 4008.99  155.25
   3   5 -12 4082.42  156.65
   3  -5  14  460.91   69.07
  -5  -3  14  433.04   62.96
  -3   5  14  469.12   69.93
   5  -3  14  473.05  102.66
  -5  -3  14  396.82   94.59
   5   3  14  393.75   61.94
  -5   3  14  424.24   66.45
   3   5  14  479.60   64.89
  -3  -5  14  452.93  104.79
  -3  -5  14  367.94   82.33
   5  -3 -14  520.23  102.16
   3   5 -14  443.36   62.59
   3  -5 -14  482.42  107.82
   5   3 -14  425.53   61.01
  -3  -5 -14  442.87   62.74
  -5  -3 -14  425.99   90.66
   5   4   1  477.91   19.65
   4   5   1  494.47   30.16
   5   4   1  525.48   31.30
   4   5   1  511.57   27.97
  -5  -4   1  497.82   21.13
   4  -5   1  520.72   47.12
   5  -4   1  525.41   29.19
   5  -4   1  566.63   42.35
  -4   5   1  520.65   48.46
  -4   5   1  553.27   31.09
  -4  -5   1  486.77   21.51
  -5   4   1  530.82   41.66
  -5   4   1  530.78   26.22
  -5  -4   1  536.38   25.58
  -4   5  -1  549.12   31.85
  -4  -5  -1  519.90   30.77
   5   4  -1  527.92   42.18
   5  -4  -1  532.78   42.89
  -4   5  -1  473.33   22.26
   4  -5  -1  521.26   47.79
   4   5  -1  485.84   35.98
  -5   4  -1  475.11   29.79
  -5  -4  -1  512.22   21.07
   4  -5   3  596.88   21.55
  -5  -4   3  619.94   48.75
  -5  -4   3  616.47   30.08
   4  -5   3  601.24   53.31
  -4   5   3  593.52   29.18
   5  -4   3  577.24   28.76
  -5   4   3  609.91   47.27
  -5   4   3  608.58   45.23
  -4  -5   3  591.02   40.37
  -4   5   3  606.03   36.25
   4   5   3  578.76   35.14
  -4  -5   3  613.49   38.00
   5   4   3  607.69   28.53
   5  -4   3  600.78   47.93
  -4  -5   3  601.27   36.00
   5   4  -3  597.36   44.36
  -5  -4  -3  603.52   29.15
   5  -4  -3  593.04   48.41
   4   5  -3  562.54   38.74
   4  -5  -3  611.62   54.35
  -4  -5  -3  634.18   37.50
   5  -4   5  200.57   21.84
   5  -4   5  228.34   26.18
  -4   5   5  217.37   44.73
   4  -5   5  222.18   28.82
   4   5   5  256.11   32.04
  -4  -5   5  243.59   20.93
  -5   4   5  237.14   39.75
   5   4   5  231.26   27.83
  -4  -5   5  206.68   21.64
  -5  -4   5  203.34   24.85
   4  -5   5  186.29   13.51
   5  -4   5  199.73   24.55
   4  -5   5  216.99   27.17
  -5  -4   5  254.08   29.17
  -5   4   5  224.71   25.60
  -5  -4  -5  238.65   28.11
   5  -4  -5  229.74   42.15
   5   4  -5  244.20   37.57
   4  -5  -5  237.40   46.08
  -4  -5  -5  228.48   32.91
   4   5  -5  217.21   20.86
  -5  -4   7  239.39   44.77
  -5  -4   7  208.76   24.81
  -4  -5   7  206.02   26.90
   5  -4   7  249.88   47.39
  -4  -5   7  211.16   25.51
  -5   4   7  225.48   48.94
   4  -5   7  236.43   50.32
   4   5   7  194.37   41.45
   5   4   7  217.32   36.86
  -4   5   7  213.48   33.74
  -5  -4  -7  207.67   36.70
   5   4  -7  254.35   38.96
   5  -4  -7  254.24   51.29
   4  -5  -7  228.77   53.83
  -4  -5  -7  217.56   26.12
  -4  -5   9  442.13   61.54
  -4   5   9  498.91   76.78
   4   5   9  377.12   60.16
  -4  -5   9  357.95   54.84
  -5  -4   9  429.40   62.94
   5  -4   9  396.67   41.98
   4  -5   9  422.85   67.41
  -5   4   9  416.65   70.12
   5   4   9  418.82   55.34
  -5  -4   9  436.05   57.89
  -4  -5  -9  369.60   59.32
   4  -5  -9  465.30   73.71
   5   4  -9  374.04   37.87
   5  -4  -9  377.77   70.62
  -5  -4  -9  413.41   56.33
  -5   4  11  265.12   46.93
  -4  -5  11  222.07   65.17
  -4  -5  11  200.88   37.64
   5  -4  11  303.45   70.36
   4   5  11  251.69   64.02
  -5  -4  11  233.54   64.61
   4  -5  11  203.93   45.47
   5   4  11  224.01   38.20
  -4   5  11  236.43   77.24
  -5  -4  11  228.71   39.85
   4   5 -11  224.38   40.31
  -5  -4 -11  208.32   60.02
   4  -5 -11  249.26   46.58
  -4  -5 -11  212.10   40.38
   5  -4 -11  209.53   45.19
   5   4 -11  228.49   39.03
  -4  -5  13  119.98   62.22
  -5  -4  13   90.75   37.99
  -5  -4  13   83.16   58.61
  -4  -5  13  107.02   54.13
   5   4  13   79.82   36.31
  -5   4  13  104.43   42.31
   5  -4  13  129.95   40.59
   4  -5  13  115.37   67.52
  -4   5  13   65.82   71.79
   4   5  13   38.18   37.92
   4  -5 -13  -28.64   69.05
   4   5 -13   72.76   37.08
  -5  -4 -13   90.20   56.20
   5  -4 -13  106.76   67.57
  -4  -5 -13   57.87   36.92
   5   4 -13   53.31   36.51
  -5  -5   0  184.90   25.28
  -5   5   0  194.70   36.24
   5  -5   0  188.47   36.19
  -5   5   0  171.46   23.48
   5   5   0  215.04   35.00
   5   5   2 8780.97  209.98
  -5  -5   2 8467.14  207.83
   5  -5   2 8422.48  245.43
  -5  -5   2 8827.72  211.61
  -5   5   2 8916.87  252.26
  -5   5   2 8492.88  213.24
   5  -5   2 9192.93  213.96
  -5  -5  -2 8865.86  214.31
   5   5  -2 8343.56  230.21
   5  -5  -2 8605.68  247.95
   5   5   4 1812.55   66.12
   5  -5   4 1686.18   51.60
   5  -5   4 1762.65   66.26
  -5   5   4 1790.68   68.59
  -5   5   4 1795.71   62.77
  -5  -5   4 1787.71   82.87
   5  -5   4 1798.39   70.91
  -5  -5   4 1885.07   68.80
   5  -5  -4 1789.47   90.36
  -5  -5  -4 1743.41   65.99
   5   5  -4 1732.75   62.04
   5  -5   6 4734.86  164.93
   5   5   6 4804.70  148.72
   5  -5   6 4867.20  149.00
   5  -5   6 4318.83  110.56
  -5   5   6 4857.44  173.33
  -5  -5   6 4713.20  133.46
  -5  -5   6 4810.31  162.45
  -5   5   6 4571.39  136.08
   5  -5  -6 4723.77  173.14
  -5  -5  -6 4650.41  146.21
  -5  -5   8  418.20   57.76
  -5  -5   8  411.74   41.33
   5  -5   8  503.72   67.03
   5   5   8  488.75   55.52
  -5   5   8  470.81   47.67
  -5  -5  -8  480.37   55.79
   5  -5  -8  467.99   73.82
  -5  -5  10 5834.27  221.47
   5  -5  10 5468.10  187.59
  -5  -5  10 5636.20  195.17
   5   5  10 5426.98  214.12
  -5   5  10 5701.34  238.16
  -5  -5 -10 5267.57  179.67
   5  -5 -10 5320.50  229.43
  -5  -5  12  442.29   86.80
  -5  -5  12  541.35   57.95
  -5   5  12  512.19   67.22
   5   5  12  431.56   84.47
   5  -5  12  575.06   95.98
  -5  -5 -12  475.62   54.88
   5  -5 -12  503.91   64.88
   5   5 -12  500.57   56.85
  -5  -5  14 1660.58  157.39
   5  -5  14 1900.22  119.92
  -5   5  14 1988.11  123.73
  -5  -5  14 1942.72  160.48
   5   5  14 1863.14  156.03
   5   5 -14 1893.12  113.88
  -5  -5 -14 1810.71  108.23
   5  -5 -14 1892.00  170.86
   0  -6   0 6295.64  183.56
  -6   0   0 6333.25  161.92
   0   6   0 6242.01  181.79
   6   0   0 6477.77  133.43
   6   0   0 6374.66  181.28
   6   0   2 1077.79   35.72
   6   0   2 1006.62   29.29
   0   6   2 1007.58   45.00
   0  -6   2 1014.23   46.43
   6   0   2 1037.96   61.48
  -6   0   2 1087.84   38.74
  -6   0   2 1045.08   46.95
   0   6  -2 1049.48   26.41
   6   0  -2 1074.14   34.25
   6   0  -2 1023.03   63.97
   0  -6  -2 1005.73   65.18
   0   6   411638.85  333.83
   6   0   412075.72  313.06
  -6   0   412076.37  301.69
   6   0   412496.46  304.11
   0  -6   412226.95  350.22
   0  -6   411781.24  309.59
  -6   0   411924.47  316.69
   0  -6  -412161.95  319.72
   6   0  -412342.50  305.57
   6   0   6  366.53   35.67
  -6   0   6  380.68   37.13
   0   6   6  418.02   55.27
   0  -6   6  349.27   53.11
  -6   0   6  359.28   53.20
   0  -6  -6  370.38   56.39
   6   0  -6  367.22   38.26
  -6   0  -6  361.43   34.78
  -6   0   8 5480.27  160.43
   0  -6   8 5922.64  166.65
   0   6   8 5874.97  212.02
  -6   0   8 5739.02  208.15
   0  -6   8 5700.66  203.56
   6   0   8 5830.53  190.86
  -6   0  -8 5569.10  183.63
   0  -6  -8 5781.13  210.75
   6   0  -8 5534.97  185.99
  -6   0  10 1317.34   91.62
  -6   0  10 1294.27   76.47
   6   0  10 1248.17   94.07
   0  -6  10 1043.62   66.07
   0   6  10 1381.40  110.71
   0  -6  10 1351.51  108.51
   0  -6 -10 1301.10  110.62
  -6   0 -10 1152.58   87.11
   6   0 -10 1241.82   91.51
   6   0  12 3824.50  192.82
  -6   0  12 3815.53  205.09
   0   6  12 3949.90  205.30
  -6   0  12 3682.80  148.55
   0  -6  12 3792.05  207.62
  -6   0 -12 3550.71  179.70
   6   0 -12 3665.65  184.96
   0  -6 -12 3840.67  159.15
   6   0  14  255.64   52.26
   0  -6  14  164.78   57.99
   0  -6  14  209.98   57.92
  -6   0  14  193.32   86.84
   0   6  14  233.90   91.14
  -6   0  14  193.66   49.96
   0  -6 -14  216.35   90.09
  -6   0 -14  186.79   75.38
   6   0 -14  212.32   50.78
  -1   6   1  186.90   37.15
  -6   1   1  196.51   15.74
   1   6   1  184.63   20.83
  -6   1   1  183.65   22.50
   1  -6   1  189.88   36.88
   6   1   1  197.27   36.21
   6  -1   1  191.13   15.42
  -1  -6   1  208.90   33.08
  -6  -1   1  195.12   38.14
   6  -1   1  206.49   20.71
  -1  -6  -1  186.57   33.88
   6   1  -1  194.02   35.80
   6  -1  -1  185.08   21.32
   6  -1  -1  201.38   16.43
   1  -6  -1  188.94   23.72
  -6   1  -1  194.97   20.43
  -1   6  -1  184.48   23.47
   1   6  -1  175.90   13.75
  -6   1   3  373.82   26.15
   6  -1   3  374.57   24.04
   1  -6   3  377.56   31.25
  -6  -1   3  398.32   30.34
   6  -1   3  364.25   24.78
  -6  -1   3  370.60   19.34
  -6   1   3  401.80   45.69
   6   1   3  364.77   16.35
  -1  -6   3  400.88   42.88
   6   1   3  380.94   45.11
   6  -1   3  363.66   25.73
   1   6   3  364.23   41.90
  -1   6   3  375.16   30.59
   6  -1  -3  392.97   30.18
   6  -1  -3  402.38   28.55
   1   6  -3  363.14   16.62
   1  -6  -3  361.89   31.17
  -1  -6  -3  378.67   45.14
   6   1  -3  431.23   25.71
   6   1  -3  381.38   30.03
  -1  -6   5 1254.79   71.52
   1  -6   5 1250.51   53.61
   1   6   5 1294.77   73.19
  -6  -1   5 1301.84   51.04
  -1   6   5 1232.65   77.25
   6  -1   5 1281.39   54.06
  -6   1   5 1242.35   74.36
   1  -6   5 1223.07   55.86
   6   1   5 1245.46   37.35
  -6  -1   5 1266.55   54.29
  -1  -6   5 1147.47   40.75
  -6   1   5 1208.54   42.63
  -6  -1  -5 1309.44   48.57
  -1  -6  -5 1267.51   75.06
   6   1  -5 1302.54   50.78
   1  -6  -5 1267.17   56.82
   6  -1  -5 1255.56   44.37
  -6  -1   7  650.39   50.08
  -6  -1   7  678.79   68.72
  -1  -6   7  667.16   35.87
  -1  -6   7  672.02   44.55
  -6   1   7  685.49   53.63
  -6   1   7  739.34   69.08
   1   6   7  657.15   44.60
   1  -6   7  660.98   46.39
   1  -6   7  667.71   30.37
  -1   6   7  680.15   47.43
   6   1   7  703.33   48.46
   6  -1   7  690.17   53.91
   1  -6  -7  736.04   73.57
   6   1  -7  665.92   49.82
   6  -1  -7  700.09   54.84
  -6  -1  -7  668.23   47.83
  -1  -6  -7  680.30   46.60
  -6   1   9   52.38   21.45
  -1  -6   9   32.72   21.04
  -6   1   9   50.98   43.19
   1   6   9   37.17   26.42
  -1  -6   9   13.62   25.61
   6  -1   9   31.38   34.39
   1  -6   9   38.24   17.01
   1  -6   9   62.78   26.57
  -6  -1   9   83.30   32.09
  -1   6   9   50.35   45.99
   6   1   9   59.47   32.13
  -6  -1   9   76.15   41.61
  -6   1  -9   56.25   32.08
   6   1  -9   35.73   32.33
  -6  -1  -9   28.50   29.95
  -1  -6  -9   26.46   26.46
   6  -1  -9    3.13   22.48
   1  -6  -9   55.41   45.32
   6  -1  11  124.81   51.48
   1   6  11   71.91   59.87
  -1  -6  11  157.59   59.50
  -6  -1  11  133.87   58.20
  -6  -1  11  101.61   48.12
  -1  -6  11   65.65   33.08
  -6   1  11   69.27   31.23
  -1   6  11  156.65   63.07
   6   1  11   59.41   48.45
   1  -6  11   66.07   61.92
   1  -6  11   77.64   30.53
  -6   1  11  105.43   61.12
   6  -1 -11   81.77   31.77
  -1  -6 -11  160.63   59.41
  -6   1 -11  103.02   46.85
   1  -6 -11   74.59   38.45
   6   1 -11   91.83   47.79
  -6  -1 -11   91.17   45.89
   1  -6  13  271.35   58.66
  -6  -1  13  348.96   52.05
  -6   1  13  333.77   59.09
   1   6  13  368.33   59.92
  -6  -1  13  363.29   58.67
  -1  -6  13  239.07   61.90
   1  -6  13  362.45   62.59
   6  -1  13  479.86   85.62
  -1   6  13  355.82  100.56
  -6   1  13  375.31   52.92
   6   1  13  334.01   54.35
  -1  -6  13  356.02   95.56
   6   1 -13  342.65   52.44
  -6   1 -13  353.50   79.03
  -6  -1 -13  355.46   77.44
   6  -1 -13  406.05   53.90
  -1  -6 -13  381.76   58.60
   1  -6 -13  410.93   98.84
   6   2   0 3380.67   96.28
  -2  -6   0 3470.80  110.20
   6  -2   0 3225.97  104.09
   2   6   0 3291.91   91.02
  -2   6   0 3315.79   98.61
   2  -6   0 3390.72  119.84
  -6   2   0 3386.39   92.74
  -6   2   0 3421.49   94.17
   6  -2   0 3366.56   90.57
   6  -2   2 7112.72  193.89
  -2   6   2 7144.59  211.27
   6  -2   2 7051.32  178.01
  -2  -6   2 6963.84  180.09
   2   6   2 6909.40  193.45
  -6   2   2 7556.28  192.38
  -6  -2   2 7362.78  193.40
  -6  -2   2 7463.82  152.58
   6   2   2 7285.15  210.66
   2  -6   2 7266.67  214.75
  -6   2   2 7581.50  193.64
  -2  -6  -2 7343.68  205.49
   2   6  -2 7026.06  167.40
   6   2  -2 7177.80  187.32
   6  -2  -2 7530.48  214.22
   6  -2  -2 7349.47  188.78
   2  -6  -2 7187.68  212.04
  -2  -6   4  832.48   39.80
  -2  -6   4  893.43   59.93
   6  -2   4  900.23   43.63
  -6   2   4 1000.62   48.71
   6  -2   4  881.68   48.16
  -6   2   4  847.42   64.52
   2  -6   4  878.39   48.93
   2   6   4  865.78   58.53
  -2   6   4  826.70   47.93
  -6  -2   4  891.76   37.08
  -6  -2   4  912.76   64.55
   6   2   4  895.85   40.93
   6   2  -4  872.40   45.34
   2   6  -4  826.67   36.19
   6   2  -4  953.46   38.62
   6  -2  -4  847.94   36.75
   2  -6  -4  835.12   70.32
  -2  -6  -4  928.96   60.69
  -6  -2  -4  881.41   32.67
  -6   2   6 5218.78  164.12
  -6  -2   6 5339.38  152.80
  -6  -2   6 5257.29  156.62
   2  -6   6 5072.29  150.79
  -2  -6   6 5066.05  141.80
  -2   6   6 5261.82  158.49
   6  -2   6 5347.46  164.94
  -2  -6   6 5235.03  173.37
   2   6   6 5349.06  176.04
   6   2   6 5367.95  150.18
  -6   2   6 5063.26  177.68
  -6  -2  -6 5368.96  148.31
  -2  -6  -6 5228.58  177.57
   2  -6  -6 5219.72  156.67
   6  -2  -6 5168.81  166.78
   6   2  -6 5439.76  155.85
  -2   6   8 1324.85   72.01
   6  -2   8 1321.57   84.74
  -6   2   8 1310.71   84.59
   2  -6   8 1333.91   69.52
  -2  -6   8 1354.57   90.43
  -6   2   8 1273.86   96.44
   6   2   8 1355.25   74.82
   2   6   8 1473.16   94.07
  -2  -6   8 1255.46   65.58
  -6  -2   8 1334.20   75.11
  -6  -2   8 1276.74   68.89
   2  -6  -8 1289.47   72.64
   6   2  -8 1357.96   57.06
  -2  -6  -8 1332.94   94.36
  -6  -2  -8 1321.93   72.51
   6  -2  -8 1316.22   63.17
   6   2  10 3837.89  164.24
   2   6  10 3997.14  176.72
  -2  -6  10 3995.12  144.60
   6  -2  10 3963.36  143.77
  -6   2  10 3734.94  136.46
  -6  -2  10 3769.78  144.29
  -2   6  10 3930.34  149.57
  -6   2  10 3867.47  145.23
  -6  -2  10 3962.44  164.18
   2  -6  10 3867.97  180.07
   6  -2 -10 3740.51  170.85
  -2  -6 -10 3733.33  140.69
   6   2 -10 3799.51  157.95
  -6  -2 -10 3803.40  132.23
   2  -6 -10 3883.51  146.67
  -6   2  12 1049.18   81.31
  -2  -6  12 1054.40  116.49
   6  -2  12 1046.19  110.02
   6   2  12 1125.43  102.97
  -6  -2  12 1060.50   72.36
   2   6  12 1143.76  112.61
   2  -6  12 1056.40  120.71
  -2  -6  12  788.40   84.71
  -6  -2  12  987.51   79.44
  -2   6  12 1126.16   84.87
  -6   2  12 1073.67  106.72
   6  -2 -12 1128.16  109.51
   2  -6 -12 1040.02  123.27
  -6  -2 -12 1055.55   96.75
  -2  -6 -12 1044.24  112.02
   6   2 -12 1034.57  100.06
   6  -2  14 2352.04  178.27
  -2   6  14 2445.17  187.11
   6   2  14 2536.26  172.34
   2  -6  14 2343.03  184.29
  -2  -6  14 2483.90  184.55
   2   6  14 2425.60  131.42
  -6   2  14 2355.63  127.04
  -6  -2  14 2367.53  168.75
  -6  -2  14 2283.45  180.12
  -6   2  14 2201.50  129.29
   6   2 -14 2316.36  125.07
  -6  -2 -14 2257.83  124.69
   6  -2 -14 2299.06  174.37
   2  -6 -14 2386.16  133.23
  -2  -6 -14 2366.81  129.43
  -3   6   1   36.56   12.78
   6  -3   1   29.12   15.88
  -3  -6   1   13.92   18.30
  -3   6   1    7.66   16.82
   3   6   1   20.02   18.60
   3  -6   1    4.11   26.30
   6  -3   1   17.93   16.05
  -6   3   1   32.15   21.19
  -6   3   1   33.93   10.75
   6   3   1   -3.21   26.47
  -6  -3   1   27.64   16.02
   6   3  -1   41.48   15.78
  -3  -6  -1   63.95   19.40
  -3   6  -1    7.36   16.32
   6  -3  -1   41.65   21.44
   3  -6  -1   43.14   25.71
   3   6  -1   30.54   14.52
  -3   6  -1   19.22    5.87
   6  -3  -1   48.67   17.42
  -6   3  -1   38.17   17.87
   3  -6   3  223.13   44.36
   6  -3   3  219.06   27.65
  -3  -6   3  224.76   29.77
  -6  -3   3  216.78   21.21
  -3  -6   3  238.16   33.15
   6  -3   3  211.91   26.27
   6  -3   3  207.60   24.44
  -6   3   3  227.54   31.34
   6   3   3  217.51   13.98
  -6  -3   3  210.12   41.79
  -6   3   3  230.28   25.16
   6   3   3  218.14   27.18
  -3   6   3  219.11   44.44
   3   6   3  224.11   32.31
   3   6  -3  217.43   23.09
  -3  -6  -3  236.95   22.29
   6  -3  -3  203.65   20.84
   3  -6  -3  203.88   29.05
   6   3  -3  193.63   24.62
  -6  -3  -3  227.15   16.55
  -3  -6   5   24.82   17.03
  -6  -3   5   16.85   16.44
   6  -3   5   26.91   22.10
   6  -3   5   66.97   17.87
   6   3   5   54.03   20.28
  -3  -6   5   25.16   15.12
  -3   6   5   27.60   32.57
   3  -6   5   70.02   33.78
   3  -6   5   32.40   30.71
  -6  -3   5    2.55   29.23
  -6   3   5   71.06   23.89
   3   6   5   35.19   24.70
  -6   3   5   35.50   28.79
   6  -3  -5   22.65   25.68
   3  -6  -5   -6.21   20.73
   6   3  -5   19.93   28.65
  -6  -3  -5   30.76   14.58
   6   3  -5   42.12   17.48
  -3  -6  -5   30.11   16.03
  -3  -6   7   20.46   16.97
  -6  -3   7   13.49   31.03
   3  -6   7   20.69   20.26
   3   6   7   11.56   17.14
  -3   6   7   26.75   22.05
   6   3   7   17.97   20.54
   6  -3   7    4.11   26.26
  -6  -3   7   27.02   22.04
  -6   3   7   58.38   32.03
  -3  -6   7   41.44   19.30
  -6   3   7   19.30   17.38
   6  -3  -7    9.96   17.84
  -3  -6  -7   20.80   17.61
   3  -6  -7    3.78   21.83
   6   3  -7   24.67   13.69
  -6  -3  -7   28.12   19.80
   3  -6   9  154.87   54.41
  -6  -3   9  126.32   51.76
  -6   3   9  113.38   34.18
   6  -3   9  120.21   48.48
  -6  -3   9  109.05   41.78
  -3  -6   9  105.13   30.66
  -3  -6   9  122.51   35.19
   6   3   9  128.76   25.10
   3   6   9  111.75   31.33
  -3   6   9  136.41   36.75
  -6   3   9  119.43   49.39
   6   3  -9  121.07   41.89
   6  -3  -9  152.10   50.76
   3  -6  -9  153.98   37.65
  -6  -3  -9  140.82   38.40
  -3  -6  -9  131.68   31.16
   6   3  11   77.62   28.07
   3  -6  11  128.12   58.52
   6  -3  11   32.51   52.27
  -6   3  11   89.20   58.15
   3   6  11  115.76   52.88
  -3  -6  11   63.59   39.44
  -6  -3  11   52.59   29.12
  -6   3  11   61.49   32.15
  -3  -6  11   19.40   52.65
  -6  -3  11   87.21   54.95
   6   3 -11   84.15   45.68
   3  -6 -11  140.00   62.15
  -3  -6 -11   46.72   52.42
  -6  -3 -11  132.87   43.26
   6  -3 -11   29.65   33.52
   6  -3  13   -8.24   33.52
  -3   6  13   38.07   38.39
  -6   3  13   74.61   57.84
  -6   3  13  102.29   53.42
  -3  -6  13   28.56   42.24
  -6  -3  13   27.77   49.75
  -3  -6  13   61.21   55.14
  -6  -3  13    1.19   53.83
   6   3  13   82.07   48.46
   3  -6  13   73.89   36.42
   3   6  13   36.70   33.37
   6   3 -13   17.36   30.08
   3  -6 -13  -11.04   37.41
   6  -3 -13   67.24   33.50
  -3  -6 -13   -8.08   54.09
  -6  -3 -13   31.37   29.22
  -4   6   0 3428.70  128.89
   4   6   0 3524.89  111.18
   6  -4   0 3277.77   93.19
  -4   6   0 3737.33   93.31
   4  -6   0 3330.34  102.01
  -6  -4   0 3211.88   66.58
  -4  -6   0 3566.72  103.79
  -6   4   0 3458.06   94.47
   6  -4   0 3526.55  108.87
  -6   4   0 3525.43   98.67
   6   4   0 3455.85  123.67
  -4   6   2 4313.88  127.12
   6  -4   2 4043.64  133.52
  -6   4   2 4308.76  124.16
  -4   6   2 4470.02  132.75
  -6  -4   2 4202.82  105.01
   6   4   2 4367.51  125.76
   4  -6   2 4365.60  155.18
  -4  -6   2 4188.21  128.93
   4   6   2 4263.72  129.56
  -6   4   2 4573.31  146.39
   6  -4   2 4047.97  117.82
   6   4   2 4143.46   97.81
  -6  -4   2 4661.52  111.83
  -6  -4   2 4370.57  130.02
   4   6  -2 4132.54  126.34
  -4  -6  -2 4409.58  120.50
   4  -6  -2 4286.34  128.84
   6  -4  -2 4350.22  143.12
  -6  -4  -2 4340.78   93.15
   6   4  -2 4255.15  124.78
   6  -4   4 2405.10   96.48
   6  -4   4 2337.42   90.58
  -6   4   4 2349.86   97.40
   6  -4   4 2327.82   75.35
   6   4   4 2507.82   71.51
  -6  -4   4 2566.06   75.52
  -6  -4   4 2422.18  104.99
  -4  -6   4 2421.64   92.86
  -6   4   4 2435.69   78.76
   4  -6   4 2395.21   87.93
  -4  -6   4 2358.13   88.19
  -4  -6   4 2267.09   85.20
  -4   6   4 2317.22  109.46
   4   6   4 2349.19   88.15
  -6  -4  -4 2447.13   69.13
  -4  -6  -4 2437.50   92.51
   4  -6  -4 2384.89  110.20
   4   6  -4 2360.83   70.57
   6   4  -4 2285.39   77.90
   6  -4  -4 2437.55   98.93
   4   6   6 2751.38   93.50
  -4   6   6 2743.62  103.51
   6   4   6 2768.30   99.69
  -6   4   6 2609.06  122.07
   6  -4   6 2596.73   89.78
  -6  -4   6 2810.27  103.02
   4  -6   6 2689.99  134.03
  -4  -6   6 2545.21  108.29
   4  -6   6 2767.36  127.65
  -6   4   6 2775.58   97.14
   6  -4   6 2687.39  114.82
  -6  -4   6 2679.98  100.04
  -4  -6   6 2746.68   93.09
  -6  -4  -6 2729.37   96.31
  -4  -6  -6 2608.21   91.77
   4  -6  -6 2769.62  104.76
   6  -4  -6 2779.95  123.05
  -6   4   8 1946.50  114.21
   6   4   8 2015.64   73.86
   6  -4   8 2016.77  108.43
   4  -6   8 1985.97  117.28
  -4   6   8 2023.12  127.38
  -4  -6   8 1991.30  105.34
  -6   4   8 2072.37  110.83
   4   6   8 1874.65  102.87
  -6  -4   8 2088.28  115.06
  -6  -4   8 2077.02   96.85
  -4  -6  -8 1912.21   79.26
   4  -6  -8 2011.86   91.59
   6  -4  -8 1868.94  113.56
   6   4  -8 2026.10   97.96
  -6  -4  -8 1955.70   72.19
  -4   6  10 2525.51  120.17
  -6   4  10 2449.51  115.96
  -4  -6  10 2024.13  132.67
   6   4  10 2442.06  129.97
  -4  -6  10 2443.92  141.28
   4  -6  10 2457.06  151.99
   4   6  10 2525.03  140.60
  -6  -4  10 2635.73  138.18
   6  -4  10 2411.48  113.61
  -6   4  10 2406.43  152.25
  -6  -4  10 2349.98  115.46
  -4  -6 -10 2387.45  137.72
   6  -4 -10 2454.14  148.13
  -6  -4 -10 2404.32  101.31
   4  -6 -10 2479.15  159.55
   6   4 -10 2380.11  105.65
  -4   6  12 1525.36  146.99
   4   6  12 1673.49  126.70
   6   4  12 1570.46  118.85
  -6   4  12 1589.92  132.58
  -6  -4  12 1526.09  122.27
  -4  -6  12 1504.33  126.09
  -6  -4  12 1464.43  133.59
  -6   4  12 1531.41  133.87
   6  -4  12 1464.93  131.90
  -4  -6  12 1113.43  110.41
   4  -6  12 1434.98   95.86
   4  -6 -12 1543.90  140.15
   6   4 -12 1560.52   87.57
  -6  -4 -12 1475.53  113.44
  -4  -6 -12 1461.00  123.46
   6  -4 -12 1571.26  131.09
   4  -6  14 1175.21  146.72
  -6  -4  14 1161.77  102.83
  -4  -6  14  745.96  119.76
  -4   6  14 1304.95  157.08
  -6   4  14 1178.62  141.31
  -4  -6  14 1278.75  139.14
  -6  -4  14 1198.78   93.93
   6   4  14 1312.74  130.34
   6  -4  14 1189.25  139.38
  -6   4  14 1307.42  142.93
   4   6  14 1290.34  137.86
   6   4 -14 1167.26  128.17
  -6  -4 -14 1060.79  123.62
   6  -4 -14 1167.92   99.62
   4  -6 -14 1220.66  149.25
  -4  -6 -14 1242.90   92.43
  -6   5   1  150.10   18.61
   6   5   1  175.45   23.83
  -6   5   1  161.17   35.30
   5   6   1  138.63   21.04
   6  -5   1  138.76   34.21
  -5  -6   1  124.67   21.81
  -6  -5   1  131.05   13.96
  -5   6   1  148.08   24.51
  -6  -5   1  122.19   14.58
   5  -6   1  131.47   24.44
   5   6   1  156.29   20.94
  -5   6   1  135.06   39.91
  -5   6  -1  123.96   21.18
   5   6  -1  122.03   18.65
   5  -6  -1  147.04   24.91
   6  -5  -1  142.83   35.46
  -6  -5  -1  131.30   18.20
   6   5  -1  161.34   34.00
  -5  -6  -1  157.15   22.94
  -6   5  -1  108.74   22.10
  -6  -5   3   51.72   18.61
   5  -6   3   60.07   33.90
  -6  -5   3   62.95   14.98
  -6  -5   3   32.72   14.88
  -5  -6   3   58.44   19.73
   6  -5   3   38.59   14.85
  -5  -6   3   55.79   18.68
  -6   5   3   43.53   18.23
  -6   5   3   60.12   27.05
   6  -5   3   59.12   29.00
  -5   6   3   57.82   23.81
  -5   6   3   41.86   20.44
   5   6   3   29.74   19.61
   6   5   3   52.27   14.27
   6   5  -3   62.94   27.43
   6  -5  -3   61.47   30.51
   5  -6  -3   77.94   34.41
   5   6  -3   43.44   14.38
  -5  -6  -3   56.36   20.64
  -6  -5  -3   50.70   14.08
   5  -6   5   37.64   36.11
   5  -6   5   21.84   11.07
   5   6   5   27.34   22.23
  -5  -6   5   46.89   13.84
  -5   6   5   45.31   21.12
  -5  -6   5   55.68   25.51
  -5   6   5   36.61   16.91
   5  -6   5   56.04   32.72
  -6  -5   5   14.34   19.96
  -6   5   5   68.28   29.59
   6   5   5   29.49   18.21
   6  -5   5   39.97   32.27
  -6   5   5   27.22   18.91
   6  -5   5   73.27   29.45
   6  -5   5   25.76   14.13
  -6  -5   5   27.19   18.92
   5  -6  -5   27.67   21.56
   5   6  -5   27.61   23.49
  -5  -6  -5   48.80   22.89
  -6  -5  -5   22.94   18.59
   6  -5  -5   47.82   19.86
   6   5  -5   33.13   16.90
  -5  -6   7   66.31   19.72
   6  -5   7   43.57   17.37
  -6  -5   7   64.31   18.01
   5  -6   7   41.63   10.78
  -6   5   7   61.18   24.20
  -5  -6   7   53.82   19.76
   6   5   7   31.89   27.27
   6  -5   7   77.45   24.77
   5  -6   7   97.43   43.38
  -6   5   7   47.45   40.06
   5   6   7   35.03   30.68
  -6  -5   7   77.72   36.35
  -5   6   7  125.12   43.18
   5  -6   7   59.94   25.60
   6  -5   7   85.94   37.28
   5  -6  -7   45.96   27.37
  -6  -5  -7   40.40   27.49
  -5  -6  -7   21.85   19.47
   6  -5  -7   74.93   25.50
   5  -6   9  117.22   54.20
   6  -5   9   60.69   25.18
  -6  -5   9  131.28   48.77
  -6   5   9  215.54   54.68
   5   6   9  122.03   43.06
   6   5   9   88.00   40.25
  -6  -5   9  107.38   26.03
   5  -6   9   62.34   17.82
  -5  -6   9  129.68   42.06
   6  -5   9  166.56   50.82
  -6   5   9   86.54   53.30
  -5  -6   9   94.91   44.34
  -5  -6  -9  106.08   42.34
   5  -6  -9   68.17   36.10
   6  -5  -9  154.36   56.23
  -6  -5  -9   96.58   39.77
   5  -6  11   64.54   58.46
  -6  -5  11   65.88   52.03
  -5  -6  11  109.91   47.39
  -6  -5  11   51.14   30.09
   5   6  11  117.93   49.78
  -6   5  11   15.84   59.61
   6   5  11   49.01   46.38
   6  -5  11   54.02   35.14
  -6   5  11   38.30   35.89
  -5  -6  11  108.85   50.96
  -5   6  11   70.21   38.41
   6  -5 -11  103.44   59.69
  -5  -6 -11   38.14   48.33
   5  -6 -11  131.61   62.71
  -6  -5 -11  101.93   45.29
   5  -6  13 -114.81   65.37
   6  -5  13  101.64   60.75
  -6  -5  13   85.34   34.28
   5   6  13   73.87   55.28
  -6   5  13   -9.17   66.10
  -5  -6  13   82.38   55.71
  -6  -5  13   22.17   35.01
   6   5  13   96.19   52.68
  -5  -6  13   30.77   50.32
  -6   5  13   24.58   37.35
  -5   6  13   17.39   67.77
   6  -5 -13   47.03   63.58
  -5  -6 -13   19.02   32.35
   5  -6 -13   35.48   40.63
  -6  -5 -13   89.68   49.68
  -6  -6   0 5086.35  142.75
  -6   6   0 5339.56  192.77
   6   6   0 5203.56  160.66
   6  -6   0 5203.47  168.03
  -6   6   0 5257.34  165.18
   6  -6   2  582.17   58.36
  -6  -6   2  598.58   32.79
   6   6   2  526.89   31.10
  -6   6   2  598.52   49.30
  -6  -6   2  493.77   32.87
   6   6   2  595.61   57.06
  -6   6   2  619.60   59.12
  -6  -6  -2  580.84   34.04
   6   6  -2  580.89   50.15
   6  -6  -2  617.61   61.20
   6  -6   4 5138.54  191.28
  -6   6   4 5007.17  176.88
   6  -6   4 4571.58  124.61
  -6  -6   4 5091.71  154.74
  -6  -6   4 4760.16  157.16
   6   6   4 5103.18  154.43
  -6   6   4 5296.74  190.08
  -6  -6  -4 4679.45  149.58
   6   6  -4 4845.55  169.79
   6  -6  -4 5228.76  166.68
   6  -6   6 1683.60  110.58
   6   6   6 1667.10   62.69
  -6  -6   6 1566.61   96.66
   6  -6   6 1704.83   77.47
  -6  -6   6 1624.95   81.64
  -6   6   6 1656.87   71.93
  -6   6   6 1706.71   78.92
   6  -6  -6 1670.03  107.72
  -6  -6  -6 1519.27   77.14
   6  -6   8 4059.79  194.93
  -6  -6   8 3970.05  175.72
   6  -6   8 3852.95  150.29
   6   6   8 3981.13  163.00
  -6   6   8 4178.57  189.93
  -6  -6   8 4014.59  166.32
  -6   6   8 3807.10  179.99
  -6  -6  -8 3623.08  155.16
   6  -6  -8 4021.87  191.71
   6   6  10  227.06   55.74
  -6   6  10  250.05   47.66
  -6  -6  10  269.66   57.67
  -6  -6  10  146.96   37.78
   6  -6  10  153.90   68.46
  -6   6  10  224.11   43.25
   6  -6 -10  197.29   47.71
  -6  -6 -10  195.30   34.97
   6  -6  12 1894.30  118.49
   6   6  12 2052.52  144.29
  -6   6  12 1814.55  109.79
  -6   6  12 2130.61  167.68
  -6  -6  12 2102.20  113.19
  -6  -6  12 1652.09  149.87
  -6  -6 -12 1869.58  136.52
   6  -6 -12 2013.12  162.81
   7   0   1    8.77    5.43
  -7   0   1   13.14    5.92
   0   7   1   -7.11   20.60
   7   0   1    5.13    4.10
  -7   0   1  -10.52   13.31
   0  -7   1   12.70   20.54
   7   0   1   36.24   20.50
   0  -7  -1    6.99   12.66
   7   0  -1   35.87   20.20
   0   7  -1    9.13    4.94
   7   0  -1    8.39    6.88
   7   0   3   45.65   24.10
   0   7   3   19.51   24.67
  -7   0   3   22.65    9.75
   7   0   3    9.11   11.15
   7   0   3   14.97    8.23
  -7   0   3    5.09   15.90
   0  -7   3   37.53   25.38
   7   0  -3   24.76   25.88
   0  -7  -3    3.83   16.07
   7   0  -3   16.02   10.40
   7   0   5   30.25   28.00
   7   0   5   32.91   14.17
   0  -7   5   47.30   31.98
   0  -7   5   13.21   29.64
  -7   0   5   18.57   16.32
  -7   0   5   34.55   19.27
   0   7   5   14.12   30.77
   7   0  -5    0.72   16.89
   0  -7  -5   48.82   31.29
  -7   0   7    6.98   19.50
   0  -7   7   21.14   18.91
   0   7   7   -4.32   19.45
  -7   0   7    5.16   20.32
   0  -7   7   12.06    6.13
   7   0   7   26.39   19.40
   0  -7  -7   30.55   20.80
   7   0  -7   16.04   20.85
   7   0   9    5.80   30.58
   0  -7   9   26.48   17.97
  -7   0   9   26.79   30.94
  -7   0   9   27.46   25.89
   0   7   9   52.52   26.61
   0  -7   9   26.31   26.10
   0  -7  -9   29.87   26.99
  -7   0  -9   46.01   28.71
   7   0  -9    9.43   30.85
   0  -7  11   17.65   22.07
   0  -7  11   97.24   54.86
   0   7  11  -19.79   55.37
  -7   0  11   87.13   52.91
  -7   0  11   51.38   42.42
   7   0  11    2.17   42.81
   0  -7 -11  189.84   56.70
  -7   0 -11   45.56   39.20
   7   0 -11   37.70   41.39
  -7   0  13   64.16   48.07
  -7   0  13   77.95   56.09
   0  -7  13   23.92   16.31
   0  -7  13   65.42   37.20
   7   0  13   19.44   30.73
   0   7  13   -2.07   59.69
   0  -7 -13   65.92   36.19
  -7   0 -13  -25.75   45.71
   7   0 -13   13.89   29.85
   1  -7   0 2939.85  114.00
  -1  -7   0 2884.67   89.55
   1   7   0 2841.50   88.28
   7  -1   0 2935.49   72.83
  -1   7   0 2924.70  115.00
   7  -1   0 2900.33   87.86
  -7  -1   0 2980.95   91.72
   7   1   0 3028.65  113.87
  -7   1   0 2920.43   89.36
   7   1   2 3707.40  111.90
  -7  -1   2 3697.58   81.41
  -1   7   2 3597.71  111.79
   7  -1   2 3645.57   95.79
   1  -7   2 3605.56  112.59
  -7   1   2 3598.33  105.85
  -7   1   2 3677.50  135.16
  -7  -1   2 3724.68  139.01
  -1  -7   2 3511.38  109.29
   7  -1   2 3430.84  125.86
   1   7   2 3430.92  106.93
   7   1  -2 3460.23  106.26
   7  -1  -2 3615.39   99.70
   1   7  -2 3301.83   81.14
   7  -1  -2 3690.62  133.55
   1  -7  -2 3742.69  136.32
  -1  -7  -2 3596.18  110.56
  -7  -1   4 3846.52  145.89
  -7   1   4 3938.88  146.54
  -7   1   4 3851.31  112.41
   1  -7   4 3788.39  121.87
   7   1   4 3960.83   98.19
   7  -1   4 3533.01  107.15
   7  -1   4 3960.62  112.45
   1   7   4 3811.44  139.54
  -1   7   4 3890.32  145.05
   7  -1   4 3814.50  114.31
  -7  -1   4 3933.16  101.69
  -1  -7   4 3861.11  117.06
  -1  -7   4 3889.54  145.18
   7   1   4 3877.13  141.50
   7   1  -4 3844.28  144.24
  -1  -7  -4 3974.74  121.99
   1  -7  -4 3960.65  150.64
   7  -1  -4 3904.09  117.59
   7   1  -4 4117.24  105.19
   7  -1   6 1943.90   75.44
  -7  -1   6 1876.16   82.61
  -7   1   6 1819.90   82.91
  -7   1   6 1905.46   83.48
  -1  -7   6 1867.63  102.20
  -7  -1   6 1967.36   76.91
   7  -1   6 1924.64   83.08
  -1   7   6 1869.28   83.89
   1  -7   6 1904.87  109.49
   1   7   6 1889.04   79.31
   7   1   6 1925.84   75.12
   1  -7   6 1894.05   85.23
   1  -7  -6 1862.34  115.57
   7   1  -6 1965.00   77.18
   7  -1  -6 1946.67   84.66
  -1  -7  -6 1979.48  109.50
  -7  -1  -6 1986.28   75.48
   7  -1   8 2239.01  107.50
  -1  -7   8 2282.14  124.58
  -7  -1   8 2352.91   99.34
  -7  -1   8 2304.17  102.12
   7   1   8 2297.53  101.76
   1   7   8 2428.93  127.62
  -1   7   8 2357.98  101.07
   1  -7   8 2286.02  128.91
  -7   1   8 2208.88   95.38
  -7   1   8 2264.36  106.13
   1  -7  -8 2329.12  136.58
  -1  -7  -8 2395.72  131.45
  -7  -1  -8 2229.06   98.70
   7  -1  -8 2313.16  108.08
   7   1  -8 2231.23  100.68
  -1   7  10 2507.08  114.84
   1   7  10 2531.37  147.22
  -7   1  10 2394.98  129.72
   7   1  10 2366.71  127.58
  -7  -1  10 2413.13  151.25
  -7  -1  10 2376.15  126.91
   7  -1  10 2375.49  135.11
  -1  -7  10 2450.89  112.45
   1  -7  10 2331.96  149.89
  -7   1  10 2307.44  153.94
   7   1 -10 2263.20   98.67
   1  -7 -10 2425.14  157.64
  -1  -7 -10 2533.24  114.33
   7  -1 -10 2321.30  131.67
  -7  -1 -10 2281.81  122.37
  -7   1  12 1754.66  128.32
  -1  -7  12 1743.26  146.47
  -7  -1  12 1807.15  125.98
  -7   1  12 1774.18  107.78
  -7  -1  12 1685.04  104.80
  -1   7  12 1889.90  150.66
   7   1  12 1747.08  131.53
   7  -1  12 1823.28  135.01
   1  -7  12 1714.35  105.17
   1   7  12 1901.64  147.48
  -7  -1 -12 1642.92  123.09
   1  -7 -12 1885.05  107.63
  -1  -7 -12 1868.08  148.87
   7   1 -12 1739.58  125.16
   7   1  14  805.61  121.50
  -1  -7  14  925.40   90.68
  -7   1  14  913.58   90.70
  -1   7  14 1071.91  140.63
  -7   1  14  886.03  118.22
  -7  -1  14  828.94   89.76
   1  -7  14  882.66  139.33
   7  -1  14  841.00  125.26
  -7  -1  14  866.30   81.25
   1   7  14  991.39   90.61
   1  -7 -14  901.67  138.16
  -7  -1 -14  835.22  111.52
  -1  -7 -14  914.99   90.08
   7   1 -14  866.89  115.96
   7  -1 -14  816.14  120.49
  -2   7   1  637.74   61.06
   7   2   1  634.08   59.76
   2  -7   1  658.03   59.76
  -7  -2   1  629.86   60.05
  -7   2   1  606.89   32.94
   7  -2   1  622.92   48.02
  -7   2   1  651.17   37.00
  -2  -7   1  586.74   49.64
   2   7   1  609.93   34.30
   7  -2   1  625.16   32.59
  -2   7  -1  595.75   40.42
   2  -7  -1  592.01   39.67
  -2  -7  -1  659.89   52.12
   7   2  -1  636.88   40.18
   7  -2  -1  607.50   36.32
   2   7  -1  577.17   29.15
  -7   2  -1  615.36   33.98
  -2   7  -1  609.32   15.62
   7  -2  -1  615.10   33.85
   7   2   3  739.53   63.60
  -7   2   3  739.49   62.73
   7   2   3  634.06   20.80
  -2  -7   3  722.30   55.64
   2  -7   3  720.66   45.22
   2   7   3  725.04   37.80
   7  -2   3  694.14   33.97
  -2   7   3  714.21   44.08
  -7  -2   3  662.21   23.53
   7  -2   3  626.41   26.87
   7  -2   3  680.75   36.59
  -7  -2   3  782.22   64.60
  -7   2   3  711.62   40.84
   2   7  -3  643.05   29.30
   7   2  -3  782.77   26.09
   2  -7  -3  713.69   46.03
   7  -2  -3  701.01   30.43
  -2  -7  -3  753.58   41.01
   7   2  -3  722.76   61.48
   2   7   5  656.51   60.36
   7  -2   5  624.54   50.08
   7   2   5  634.16   32.65
  -2   7   5  631.68   46.68
   2  -7   5  620.03   48.08
  -7  -2   5  641.06   36.06
  -2  -7   5  675.69   63.16
  -7  -2   5  692.52   66.28
   7  -2   5  606.79   30.75
   2  -7   5  617.62   66.32
  -7   2   5  595.24   45.72
  -2  -7   5  665.81   56.94
  -7   2   5  595.72   44.38
   7   2  -5  681.40   46.42
  -7  -2  -5  674.13   32.39
  -2  -7  -5  634.50   63.44
   2  -7  -5  644.91   70.92
   7   2  -5  635.99   44.47
   7  -2  -5  636.69   50.65
  -7   2   7  475.02   44.86
  -7  -2   7  525.37   69.49
   7  -2   7  468.58   35.78
  -7   2   7  488.33   36.32
   2   7   7  533.84   43.66
   7   2   7  540.85   43.02
  -2  -7   7  466.10   41.45
  -2   7   7  508.18   74.88
   7  -2   7  497.80   35.28
   2  -7   7  489.40   48.80
  -7  -2   7  496.45   45.54
   2  -7   7  500.81   70.95
   2  -7  -7  563.98   75.48
  -7  -2  -7  540.59   42.46
  -2  -7  -7  518.96   44.38
   7  -2  -7  511.93   56.68
   7   2  -7  515.16   45.82
   7   2   9  370.30   51.79
   2  -7   9  425.87   77.14
  -2  -7   9  263.05   38.25
  -2  -7   9  369.40   69.29
  -7  -2   9  426.70   53.70
   7  -2   9  378.39   60.72
  -7  -2   9  358.95   74.54
  -7   2   9  363.50   39.42
  -7   2   9  374.07   75.57
  -2   7   9  485.24   82.00
   2   7   9  357.52   45.00
  -7  -2  -9  336.74   33.92
  -2  -7  -9  405.53   72.34
   7   2  -9  388.16   53.39
   7  -2  -9  381.98   62.24
   2  -7  -9  471.94   81.84
  -7  -2  11  321.79   63.05
  -2  -7  11  298.94   49.92
  -7   2  11  336.80   67.87
  -7   2  11  266.05   52.25
  -2   7  11  314.64   53.35
   2   7  11  281.43   77.63
   2  -7  11  264.24   51.16
  -2  -7  11  156.99   44.00
   7  -2  11  305.38   68.73
   7   2  11  280.37   40.15
  -7  -2  11  279.82   51.03
   7   2 -11  318.14   61.59
  -2  -7 -11  305.46   78.20
   2  -7 -11  333.50   54.11
   7  -2 -11  257.95   44.33
  -7  -2 -11  291.15   59.09
   2  -7  13  256.77   92.97
   7  -2  13  278.48   50.94
  -7   2  13  220.87   90.77
  -7   2  13  275.05   77.76
  -2   7  13   72.78   97.39
  -2  -7  13  213.35   88.39
  -7  -2  13  230.23   89.02
  -2  -7  13   96.79   50.73
   7   2  13  249.07   73.51
   2   7  13  246.47   53.86
  -7  -2  13  217.28   47.27
   7   2 -13  183.90   45.85
   7  -2 -13  227.40   49.27
   2  -7 -13  344.74   98.93
  -2  -7 -13  365.93   88.49
  -7  -2 -13  207.90   67.83
   7   3   0 4626.78  159.52
   3  -7   0 4424.58  136.24
  -3   7   0 4419.88  163.61
  -3   7   0 4588.67  114.64
   7  -3   0 4216.47  133.65
   3   7   0 4263.65  124.68
  -7   3   0 4165.90  132.44
   3   7   0 4364.94  120.03
   7  -3   0 4149.41  125.73
  -3  -7   0 4325.66  147.69
  -7   3   0 4272.17  130.58
  -7  -3   2 4228.18  151.57
  -3   7   2 4227.29  129.05
  -3  -7   2 3981.49  134.09
  -7   3   2 4228.35  116.39
  -7   3   2 4201.08  148.69
   3   7   2 4100.67  134.12
   3  -7   2 4148.73  152.33
   7  -3   2 3877.70  124.31
   7   3   2 4278.92  126.48
   7  -3   2 3808.59  113.67
   7   3  -2 4310.02  148.84
   3   7  -2 3877.46  100.14
   3  -7  -2 4198.49  152.81
  -3  -7  -2 4154.02  121.58
   7  -3  -2 3872.50  110.41
  -3  -7   4 1473.94   81.00
   7  -3   4 1332.40   63.82
  -7  -3   4 1522.46   50.67
   7  -3   4 1271.55   52.99
  -3  -7   4 1391.42   57.11
   3  -7   4 1554.93   98.81
   7  -3   4 1271.85   50.87
   7   3   4 1465.00   65.47
   7   3   4 1386.15   49.97
  -7   3   4 1439.04   88.53
  -7  -3   4 1558.93   91.21
  -7   3   4 1375.93   70.96
  -3   7   4 1460.91   70.63
   3   7   4 1363.85   58.72
   7  -3  -4 1416.25   56.57
  -7  -3  -4 1509.71   44.52
   3   7  -4 1244.16   56.11
  -3  -7  -4 1498.82   63.50
   7   3  -4 1478.03   87.54
   3  -7  -4 1487.33   69.87
   7  -3   6 2518.68  102.38
  -7   3   6 2412.42   92.25
  -7  -3   6 2409.34  121.64
  -7  -3   6 2486.81   75.16
   7  -3   6 2332.68   94.04
   3  -7   6 2454.16  124.01
   7   3   6 2400.65   85.08
  -7   3   6 2392.45  102.86
  -3  -7   6 2424.41  110.10
   3  -7   6 2527.58  101.74
  -3   7   6 2481.63  129.50
   3   7   6 2484.94   89.64
  -3  -7  -6 2514.87  117.10
  -7  -3  -6 2541.97   85.19
   7  -3  -6 2421.68  109.20
   3  -7  -6 2536.51  130.31
   7   3  -6 2663.30   93.68
  -7   3   8 1870.54  110.29
   7  -3   8 1688.44  105.02
   7  -3   8 1740.42   76.02
   3  -7   8 1908.15  123.86
  -7  -3   8 1926.90   94.29
  -7   3   8 1799.04   89.69
  -3  -7   8 1841.89  109.83
  -3   7   8 1951.66  133.88
   7   3   8 1731.90   90.18
  -7  -3   8 1868.90  123.71
   3   7   8 1982.18  115.97
   7   3  -8 1903.36   96.27
   3  -7  -8 1876.06  130.54
  -3  -7  -8 1828.67  115.83
   7  -3  -8 1807.19   84.37
  -7  -3  -8 1855.27   90.27
  -7  -3  10 2642.02  122.26
  -3   7  10 2777.88  168.97
  -7  -3  10 2730.20  133.43
   7  -3  10 2609.12  115.09
   3   7  10 2647.24  113.35
   3  -7  10 2540.57  117.63
  -3  -7  10 2672.18  115.25
  -7   3  10 2587.52  156.90
   7   3  10 2503.02  128.89
  -7   3  10 2659.15  144.82
  -7  -3 -10 2609.50  104.68
  -3  -7 -10 2591.74  114.14
   3  -7 -10 2520.69  163.81
   7   3 -10 2612.44  105.46
   7  -3 -10 2498.70  145.94
   3  -7  12 1527.71  143.93
   7   3  12 1477.64  119.22
  -7  -3  12 1406.04  145.06
  -3   7  12 1586.60  105.46
   3   7  12 1642.17  137.64
  -7  -3  12 1464.09   90.92
  -7   3  12 1506.51  130.35
  -7   3  12 1505.72  142.87
   7  -3  12 1404.99  129.04
  -3  -7  12 1420.51  134.26
  -3  -7 -12 1521.14  133.49
   7   3 -12 1405.96   89.27
   3  -7 -12 1532.56  103.50
   7  -3 -12 1470.06  133.99
  -7  -3 -12 1349.39  114.71
   4   7   1 1328.03   64.13
   7  -4   1 1225.61   62.25
  -4  -7   1 1207.25   61.87
   4   7   1 1294.75   48.80
  -7   4   1 1327.57   51.13
   7   4   1 1359.06   59.42
  -4   7   1 1373.59   51.88
  -4   7   1 1341.19   85.88
   4  -7   1 1315.95   60.93
   7  -4   1 1295.25   59.98
  -7   4   1 1285.48   69.44
   4  -7  -1 1327.91   84.14
   4   7  -1 1264.73   57.04
  -4   7  -1 1187.42   32.94
  -4  -7  -1 1290.17   62.91
  -7   4  -1 1132.27   61.04
   7   4  -1 1366.94   61.01
   7  -4  -1 1272.45   65.24
  -4   7  -1 1362.67   61.82
   7   4   3  923.08   50.52
   7  -4   3  872.81   47.80
  -7  -4   3  925.58   51.28
  -4   7   3  986.67   76.82
   7   4   3  933.47   30.27
  -7   4   3  951.84   48.84
  -7   4   3  971.41   44.46
  -7  -4   3 1009.27   40.21
  -7  -4   3  912.47   30.75
  -4  -7   3  930.17   53.80
   4   7   3  926.85   57.63
   7  -4   3  914.80   41.64
   4  -7   3  978.00   55.02
  -4  -7   3  899.01   56.50
  -7  -4  -3  985.10   30.77
  -4  -7  -3  997.80   60.09
   4  -7  -3  995.61   54.05
   4   7  -3  902.94   36.99
   7  -4  -3  921.19   61.52
   7   4  -3  996.07   66.80
   4  -7   5  434.72   44.54
  -4   7   5  472.04   67.79
  -4  -7   5  423.12   47.36
  -7  -4   5  485.81   60.94
  -7  -4   5  446.28   34.32
  -4  -7   5  448.25   52.63
   7   4   5  454.37   30.43
   4   7   5  469.86   49.30
  -7   4   5  440.26   49.71
   7  -4   5  423.00   45.75
  -7   4   5  430.33   57.09
   4  -7   5  475.49   41.74
   7  -4   5  456.61   49.56
   7  -4   5  409.39   35.75
  -7  -4  -5  469.66   29.43
  -4  -7  -5  470.54   35.50
   7   4  -5  446.32   37.74
   7  -4  -5  436.14   36.34
   4  -7  -5  487.50   67.87
   4   7  -5  394.63   38.34
   4  -7   7  552.65   74.47
   7  -4   7  479.18   41.02
   7   4   7  520.90   43.75
  -4  -7   7  461.43   57.81
   4  -7   7  522.79   80.40
   7  -4   7  436.63   57.46
  -7  -4   7  497.50   47.61
   7  -4   7  418.68   29.72
  -7   4   7  499.39   41.04
  -7   4   7  533.41   69.64
  -7  -4   7  462.09   44.72
   4   7   7  524.53   59.03
  -4   7   7  511.94   51.48
   4  -7  -7  566.38   79.00
   7  -4  -7  507.72   43.16
  -4  -7  -7  488.65   60.73
  -7  -4  -7  507.89   43.54
  -4  -7   9  945.48   61.07
  -7   4   9  940.76   96.96
  -4  -7   9  699.19   71.62
   4  -7   9  886.62   69.31
  -7  -4   9  952.16   68.91
   7  -4   9  805.53   64.72
   7  -4   9  875.79   87.22
  -7   4   9  957.93   63.24
  -7  -4   9  953.73   77.37
   7   4   9  970.30   52.54
  -4   7   9 1257.19  115.30
   4   7   9  958.69   87.97
   4  -7  -9 1025.24  110.18
   7   4  -9  971.85   77.63
  -4  -7  -9  937.71   62.27
  -7  -4  -9  941.46   71.28
   7  -4  -9  962.06   93.41
   4   7  11  648.12   88.32
  -7   4  11  590.54   98.99
  -4  -7  11  613.42   88.42
   7   4  11  650.38   77.03
  -7  -4  11  573.53   94.85
  -7  -4  11  657.87   80.96
  -7   4  11  578.35   94.12
   4  -7  11  597.90   65.59
   7  -4  11  543.23   59.29
  -4  -7  11  407.25   71.88
  -4   7  11  618.30  114.11
  -4  -7 -11  658.88   87.85
   7   4 -11  606.15   78.18
   4  -7 -11  622.11   68.35
   7  -4 -11  596.59   60.68
  -7  -4 -11  567.27   74.16
  -4   7  13  536.58  100.68
   7  -4  13  167.52   79.44
  -4  -7  13  248.08   81.32
  -4  -7  13   95.82   64.89
  -7   4  13  267.28   88.39
   4  -7  13  149.86   92.88
   4   7  13  164.08   82.66
  -7  -4  13  242.17   74.67
  -7  -4  13  125.03   52.89
  -7   4  13  199.86   53.03
   7   4  13  233.90   70.99
  -4  -7 -13  145.16   80.94
   7  -4 -13  253.47   84.10
   4  -7 -13  217.40   97.14
   7   4 -13  239.70   71.63
  -7  -4 -13  206.78   43.36
  -7   5   0 4131.68  143.55
  -5  -7   0 4023.37  127.70
   7  -5   0 3870.29  147.19
  -7   5   0 3547.84  131.76
   5  -7   0 3900.99  159.00
   5   7   0 4011.57  142.69
   7   5   0 4035.32  150.19
  -5   7   0 3954.16  134.49
  -5   7   0 3611.78  114.93
   5   7   2 1579.64   74.04
  -7   5   2 1648.28   69.41
   5   7   2 1558.02   63.39
  -5   7   2 1563.52   73.34
  -7   5   2 1723.47   89.29
   5  -7   2 1597.57   97.77
  -5  -7   2 1404.01   69.55
  -7  -5   2 1404.71   49.98
  -5   7   2 1672.44   75.95
  -5  -7   2 1401.63   65.75
   7  -5   2 1543.87   67.93
   7  -5   2 1507.96   82.11
   7   5   2 1715.44   95.86
  -7  -5   2 1457.60   47.28
   7   5  -2 1563.83   68.04
   7  -5  -2 1605.46   88.98
  -7  -5  -2 1475.49   46.75
   5   7  -2 1548.68   74.32
  -5  -7  -2 1593.56   75.71
   5  -7  -2 1603.24   72.98
  -5   7   4 2583.54  107.21
  -7  -5   4 2799.53   88.71
  -5  -7   4 2679.64   87.40
  -7  -5   4 2516.33   79.92
   7  -5   4 2846.23  112.86
   7  -5   4 2623.37  117.53
   5   7   4 2844.62   90.85
   5  -7   4 2870.75  138.04
   7   5   4 2668.57   98.11
  -5  -7   4 2622.68  105.71
   7   5   4 2896.13   84.04
  -7  -5   4 2733.46  101.24
  -5   7   4 2829.18  105.86
  -7   5   4 2725.45  120.60
  -7   5   4 2850.04  124.31
   7  -5   4 2582.07   86.33
   7   5  -4 2681.25  118.88
   5  -7  -4 2818.05  134.90
  -7  -5  -4 2922.85   91.34
  -5  -7  -4 2701.58  111.58
   5   7  -4 2520.53  102.51
   7  -5  -4 2790.53  101.17
  -7  -5   6 2364.37  127.21
   7  -5   6 1966.93   81.45
   7  -5   6 2282.45  122.26
  -5  -7   6 2034.78  102.79
  -5  -7   6 2062.07  105.71
  -5  -7   6 2265.37   93.48
   7  -5   6 2269.15  115.15
  -7   5   6 2223.43  121.18
  -7   5   6 2335.87  118.09
  -5   7   6 2495.46  136.30
  -7  -5   6 2326.81   95.51
   7   5   6 2203.91   89.99
   5   7   6 2238.65  108.45
   5  -7   6 2473.14  129.40
   5  -7   6 2525.54  140.05
  -5  -7  -6 2099.69   88.42
   5  -7  -6 2317.63  133.80
   7   5  -6 2260.75   93.76
  -7  -5  -6 2337.49   90.64
   7  -5  -6 2240.82  124.38
  -7  -5   8 2421.67  140.40
  -7  -5   8 2580.87  122.29
   5  -7   8 2667.13  149.99
   5   7   8 2733.56  132.91
  -7   5   8 2530.10  141.46
  -7   5   8 2739.98  144.18
  -5   7   8 2812.88  119.14
  -5  -7   8 2391.60  102.42
   7   5   8 2445.35  116.21
   5  -7   8 2750.45  160.32
   7  -5   8 2501.86  111.97
  -5  -7   8 2126.33  123.88
   7  -5   8 2564.97  134.72
   7  -5  -8 2635.14  113.07
  -7  -5  -8 2501.88  115.11
  -5  -7  -8 2432.69  102.26
   5  -7  -8 2637.27  155.51
  -5   7  10  865.34  113.39
   7   5  10  714.42   77.21
  -5  -7  10  530.15   78.62
  -5  -7  10  686.91   86.83
   5  -7  10  739.47   69.61
  -7  -5  10  649.96   94.50
   5   7  10  789.59   87.46
  -7   5  10  797.83  100.31
  -7  -5  10  766.49   81.72
  -7   5  10  773.43   97.70
   7  -5  10  700.60   90.93
  -7  -5 -10  685.08   53.02
   5  -7 -10  824.43  109.24
  -5  -7 -10  705.83   85.31
   7  -5 -10  753.22  101.17
  -7  -5  12 1469.80  126.99
  -7   5  12 1400.73   96.99
  -5   7  12 1627.67  156.97
  -5  -7  12 1501.23  132.01
   7   5  12 1400.11   88.62
  -7  -5  12 1281.34  102.22
   5  -7  12 1601.33  147.57
  -7   5  12 1553.35   99.58
   7  -5  12 1386.35   97.52
   5   7  12 1535.46  129.79
   5  -7 -12 1529.99  105.61
  -7  -5 -12 1405.60  119.18
  -5  -7 -12 1508.75  126.57
   7  -5 -12 1456.09  100.40
   6   7   1  632.11   40.51
  -7  -6   1  576.17   27.22
  -7   6   1  578.36   34.89
  -6  -7   1  519.63   38.38
   6  -7   1  599.90   45.93
  -6   7   1  697.50   68.46
  -6  -7   1  507.71   33.62
  -7   6   1  640.05   61.97
  -7  -6   1  594.81   26.74
   7  -6   1  554.55   59.65
  -6   7   1  595.46   45.01
   7   6   1  643.93   64.39
  -7   6  -1  485.69   39.18
   7  -6  -1  623.51   42.33
   6  -7  -1  613.15   67.52
   7   6  -1  664.87   44.41
   6   7  -1  652.83   54.24
  -7  -6  -1  619.75   33.97
  -6   7  -1  551.47   30.73
  -6  -7  -1  583.98   40.69
   7  -6   3  105.92   25.22
   7  -6   3   99.86   20.93
  -7   6   3  127.89   36.62
   7   6   3  135.11   44.45
  -6  -7   3  105.36   24.41
  -7  -6   3  104.57   19.48
   6  -7   3  125.95   28.58
   7   6   3  109.88   16.50
   6   7   3   97.11   24.96
  -6   7   3  104.39   20.64
  -6  -7   3   98.80   24.91
   6   7   3  146.02   27.33
  -7  -6   3   88.21   18.41
  -6   7   3  118.47   46.19
  -7   6   3  120.83   26.03
   7   6  -3  127.98   37.38
   7  -6  -3   92.02   42.82
  -7  -6  -3  102.32   17.67
  -6  -7  -3  129.07   27.21
   6  -7  -3  121.54   47.28
   6   7  -3  120.41   20.89
  -7   6   5   78.47   22.75
  -7   6   5   97.03   40.00
  -6   7   5   87.81   33.86
   6  -7   5   76.45   42.44
  -7  -6   5   68.19   39.55
  -6  -7   5   46.38   26.83
  -7  -6   5   62.15   23.70
   6  -7   5   67.58   28.59
   7   6   5   50.85   22.23
   7  -6   5   71.27   23.79
   7  -6   5   71.78   25.24
   7  -6   5   53.37   16.64
   6   7   5   75.44   27.75
  -7  -6   5   67.19   22.80
  -6   7   5   72.30   44.94
  -6  -7   5   64.30   27.84
   7   6  -5  103.46   35.18
  -7  -6  -5   79.56   28.55
   7  -6  -5  104.40   42.56
  -6  -7  -5   69.14   28.42
   6   7  -5   48.93   19.08
   6  -7  -5   55.98   28.87
  -6  -7   7  165.11   27.89
  -7  -6   7  139.71   35.17
   6  -7   7  169.80   68.19
   7  -6   7  170.97   34.91
  -6   7   7  239.05   40.70
   6  -7   7  246.31   61.79
  -6  -7   7  197.02   48.44
   7  -6   7  199.45   60.71
   7  -6   7  127.60   23.08
   7   6   7  223.55   37.42
   6   7   7  205.04   43.24
  -6   7   7  174.08   52.60
  -7  -6   7  228.38   39.82
  -7   6   7  236.96   37.09
  -7   6   7  154.59   35.05
   6  -7  -7  234.74   41.28
  -7  -6  -7  211.01   37.73
   7  -6  -7  253.23   61.85
  -6  -7  -7  218.81   43.54
  -6   7   9  341.79   51.35
  -7  -6   9  312.13   55.84
   7  -6   9  201.95   44.13
  -7  -6   9  224.98   42.91
   7   6   9  333.14   52.06
  -7   6   9  298.93   72.17
  -6   7   9  247.16   43.40
  -7   6   9  446.98   74.92
   6  -7   9  321.14   74.28
   7  -6   9  308.13   73.48
  -6  -7   9  260.78   60.43
   6   7   9  318.25   38.26
  -6  -7   9  288.65   58.06
   6  -7   9  253.14   82.00
  -7  -6  -9  239.49   52.05
   6  -7  -9  304.09   80.23
  -6  -7  -9  314.47   56.19
   7  -6  -9  358.43   77.25
   7  -6  11  265.97   77.68
  -6  -7  11  249.46   67.60
   6  -7  11  228.00   51.49
  -7  -6  11  238.91   66.25
   6  -7  11  219.97   54.66
  -7   6  11  205.47   48.51
  -6  -7  11  182.89   65.31
  -7  -6  11  185.10   46.37
  -7   6  11  282.09   51.92
   7   6  11  262.02   63.62
   6   7  11  259.20   66.14
  -6   7  11  191.49   46.40
  -7  -6 -11  243.52   59.34
   7  -6 -11  259.00   51.96
  -6  -7 -11  218.56   41.85
   6  -7 -11  240.32   54.78
   7  -7   0  873.80   80.10
   7   7   0  989.40   75.33
  -7   7   0  961.43   56.94
  -7  -7   0  760.88   35.28
  -7   7   0  707.11   50.24
  -7  -7   0  872.27   41.98
  -7   7   2 1877.19  114.35
  -7  -7   2 1731.61   65.00
  -7   7   2 1593.80   97.18
   7   7   2 1889.83  105.30
   7  -7   2 1758.09  109.51
  -7  -7   2 1542.50   64.99
  -7  -7  -2 1769.60   71.28
   7   7  -2 1786.63   77.70
   7  -7  -2 1809.86   88.78
  -7  -7   4 2065.28   83.21
   7   7   4 2206.35   88.56
  -7   7   4 1999.95  112.33
   7  -7   4 2070.60  122.10
   7   7   4 1856.56   81.73
  -7   7   4 2209.98  124.16
  -7  -7  -4 2216.96   83.31
   7   7  -4 2032.98  101.99
   7  -7  -4 2150.89   96.72
  -7   7   6 3139.94  158.39
  -7  -7   6 2889.08  124.70
  -7   7   6 2894.79  146.03
   7  -7   6 3254.88  134.70
   7  -7   6 2919.69  155.93
   7   7   6 2822.13  123.89
  -7  -7   6 2597.78  150.33
   7  -7  -6 3069.24  131.24
  -7  -7  -6 2821.17  120.89
   7   7  -6 2501.11  112.14
  -7  -7   8 1094.46   66.26
  -7   7   8 1288.64   82.31
  -7  -7   8 1124.95  105.43
   7  -7   8 1223.04  121.62
  -7   7   8 1215.78  105.43
   7  -7   8 1150.74  111.32
   7   7   8 1193.48   86.83
  -7  -7  -8 1191.27   82.68
   7  -7  -8 1370.66   85.23
  -7   7  10  852.23  111.09
  -7   7  10  681.64   68.88
   7   7  10  792.72   61.66
  -7  -7  10  602.12   95.46
   7  -7  10  771.76  105.60
  -7  -7  10  720.66   61.28
   7  -7  10  712.92   78.93
   7  -7 -10  820.09  113.64
  -7  -7 -10  707.90   81.52
  -8   0   0  832.81   48.52
   0  -8   0  736.81   46.82
   8   0   0  735.93   65.95
   0   8   0  723.91   46.58
   8   0   2 6332.24  184.63
   0   8   2 6193.87  207.95
   8   0   2 5880.11  127.60
  -8   0   2 6141.68  144.67
  -8   0   2 6550.56  218.93
   8   0   2 6076.46  137.99
   0  -8   2 6367.65  210.23
   8   0  -2 6283.77  207.79
   0  -8  -2 6586.68  215.23
   8   0  -2 6651.78  149.44
  -8   0   4  557.59   44.37
   8   0   4  504.28   42.38
   0   8   4  509.01   63.74
  -8   0   4  521.31   40.19
   0  -8   4  472.33   66.70
   0  -8  -4  544.71   67.28
   8   0  -4  451.21   32.56
   8   0  -4  466.84   43.51
   8   0   6 7484.00  256.58
   0  -8   6 7443.34  234.85
   0  -8   6 7430.36  258.22
   8   0   6 7563.89  223.04
   0   8   6 7462.18  228.62
  -8   0   6 7336.31  261.57
  -8   0   6 7114.85  218.61
   8   0  -6 7302.50  222.04
   0  -8  -6 7562.19  269.26
  -8   0   8  535.70   56.13
   0  -8   8  492.66   82.31
   8   0   8  482.80   54.65
  -8   0   8  485.15   83.86
   0   8   8  482.35   82.83
   8   0  -8  468.80   56.42
   0  -8  -8  494.79   87.83
  -8   0  10 2982.29  137.20
  -8   0  10 2946.92  147.73
   8   0  10 2739.74  148.31
   0  -8  10 2885.22  132.44
   0   8  10 3177.25  135.70
   8   0 -10 2922.31  118.94
   0  -8 -10 3120.34  181.31
   0  -8  12  277.29   90.03
   8   0  12  240.79   46.38
  -8   0  12  238.82   70.07
   0   8  12  237.52   87.77
  -8   0  12  241.55   88.21
   8   0 -12  218.85   68.95
   0  -8 -12  278.59   57.55
   8   1   1   39.96   31.98
   1   8   1   33.86   18.21
  -8  -1   1   26.70   31.83
  -8   1   1   47.84   30.64
  -1  -8   1   23.42   17.96
   8  -1   1   17.22    9.64
  -8   1   1   21.83    9.66
   8  -1   1   34.45   17.17
   1  -8   1   32.27   19.68
   8  -1   1   27.37   12.35
  -1   8   1   17.62   20.01
   8  -1  -1   41.67   27.44
  -1  -8  -1   39.81   29.92
   8  -1  -1   27.15   10.80
   1   8  -1   26.65   13.06
   1  -8  -1   62.23   31.72
   8   1  -1   54.87   19.40
  -8   1   3  153.36   29.06
  -8  -1   3  140.44   16.75
   1   8   3  148.73   42.45
  -8  -1   3  197.91   47.25
   8   1   3  214.95   46.02
  -8   1   3  147.36   20.71
   8  -1   3  170.05   25.85
   8  -1   3  108.65   17.24
   8  -1   3  123.37   18.83
  -1  -8   3  162.47   43.54
  -1   8   3  130.28   47.62
   1  -8   3  154.42   48.42
   8   1  -3  152.40   29.02
   1  -8  -3  159.60   31.27
   8   1  -3  148.89   13.85
   8  -1  -3  122.15   45.45
  -1  -8  -3  169.00   45.15
   8  -1  -3  165.62   28.80
   8   1   5   95.95   28.48
  -1   8   5   96.42   30.05
  -8   1   5   95.48   47.12
   1   8   5  146.08   43.81
   8   1   5   85.73   17.70
   8  -1   5   96.47   25.14
   1  -8   5   88.59   28.09
  -8  -1   5   94.45   19.92
  -8   1   5  118.18   24.70
   8  -1   5   89.29   22.62
   8  -1   5   82.19   21.87
  -1  -8   5  131.59   42.62
   1  -8   5   87.64   30.52
  -1  -8   5  108.83   46.06
  -8  -1   5  161.62   46.55
  -1  -8  -5  113.47   46.78
   8   1  -5   74.00   21.00
   1  -8  -5  127.70   50.11
   8  -1  -5  121.19   26.79
  -1  -8   7   35.05   28.94
   1   8   7  142.73   45.04
  -8  -1   7   92.29   47.57
   1  -8   7   52.63   46.89
  -1   8   7   96.72   48.23
  -8   1   7   49.81   46.28
  -8  -1   7   57.70   26.00
   8  -1   7   41.35   38.00
   1  -8   7   92.61   49.35
  -1  -8   7   64.28   26.81
  -8   1   7   63.55   29.06
   8  -1   7   43.49   17.16
   8   1   7   45.74   24.14
   8  -1  -7   32.26   30.44
  -1  -8  -7   79.34   28.98
   8   1  -7   27.94   26.36
   1  -8  -7   68.97   50.02
  -8   1   9   69.28   25.84
  -8  -1   9  101.63   58.43
  -8   1   9  161.85   59.33
   8   1   9   41.94   36.75
  -8  -1   9   76.38   38.58
  -1   8   9  150.97   62.61
   1   8   9  160.58   58.75
   1  -8   9   88.53   35.74
   8  -1   9   84.06   40.45
  -1  -8   9   56.88   55.92
   8   1  -9   75.36   37.78
  -1  -8  -9  180.25   62.94
  -8  -1  -9   95.74   35.67
   8  -1  -9   57.15   42.40
   1  -8  11   71.13   59.64
  -8  -1  11   38.39   43.23
  -1  -8  11   20.79   19.18
  -1  -8  11  143.74   57.11
   8   1  11   56.27   42.56
   8  -1  11   74.79   45.58
  -8   1  11   43.67   45.02
  -8   1  11   15.54   36.08
   1   8  11   37.97   58.38
  -8  -1  11   48.99   36.64
   8   1 -11   49.81   41.51
  -1  -8 -11  107.75   60.49
   1  -8 -11   69.98   38.39
  -8  -1 -11   44.39   41.16
   8  -1 -11   64.02   44.98
   8  -1  13   26.44   55.78
   1  -8  13   22.32   41.27
   1   8  13   48.43   39.38
  -8  -1  13   38.74   51.45
  -1   8  13  171.07   70.32
  -8   1  13   54.07   54.07
   8   1  13   80.20   52.32
  -1  -8  13   31.78   68.20
  -8  -1  13   76.15   41.13
  -8   1  13    7.41   40.11
  -8  -1 -13   78.64   49.93
   1  -8 -13 -101.46   71.96
   8   1 -13   13.50   50.46
  -1  -8 -13   52.42   41.14
   8  -1 -13    1.96   53.55
   8   2   0 5804.64  172.20
   2  -8   0 5443.77  165.34
  -2   8   0 5492.31  169.05
   2   8   0 5358.88  152.09
  -8   2   0 5240.61  162.27
   2   8   0 5292.82  178.90
   8  -2   0 5069.27  154.06
  -2  -8   0 5408.67  185.40
   8  -2   0 5354.85  151.43
  -8   2   2 1066.28   50.48
  -2  -8   2 1059.14   72.54
   2  -8   2 1133.80   60.83
   8   2   2 1199.88   60.31
  -8   2   2 1193.22   79.83
   2   8   2 1109.87   53.35
   8  -2   2  939.02   52.99
   8  -2   2 1081.30   69.59
  -2   8   2 1145.69   84.40
  -8  -2   2 1214.30   60.65
   2  -8  -2 1172.04   83.26
   8  -2  -2 1136.93   56.30
   8   2  -2 1213.09   81.55
  -2  -8  -2 1080.91   74.81
   8  -2  -2 1068.30   51.23
   2   8  -2  966.39   40.26
  -2  -8   4 4645.53  145.61
  -8   2   4 4781.30  152.17
  -8   2   4 4786.96  156.01
   2  -8   4 4877.38  160.33
   8   2   4 4686.79  110.10
   8  -2   4 4448.83  141.33
   2   8   4 4596.92  143.67
   8  -2   4 4573.04  160.13
  -8  -2   4 4790.43  156.70
  -8  -2   4 4636.02  118.76
   8   2   4 4939.85  181.68
  -2  -8   4 4708.06  177.74
  -2   8   4 4825.54  183.24
   8  -2  -4 4536.41  133.33
   2   8  -4 4177.54  123.27
   8   2  -4 5109.16  133.76
  -2  -8  -4 4891.77  156.00
   2  -8  -4 4855.89  157.64
   8   2  -4 4834.61  180.19
   2   8   6  548.61   46.07
   8  -2   6  425.32   32.47
   8  -2   6  469.09   46.52
   2  -8   6  534.77   49.30
  -2   8   6  591.17   52.83
   8   2   6  568.61   48.93
   8   2   6  468.79   35.73
   8  -2   6  512.15   39.33
  -8   2   6  525.51   49.16
   2  -8   6  588.19   80.93
  -8   2   6  570.98   74.28
  -2  -8   6  524.31   49.08
  -8  -2   6  564.41   72.42
  -2  -8   6  510.83   64.48
  -8  -2   6  556.64   40.68
  -2  -8  -6  574.34   72.17
   2  -8  -6  582.59   52.83
   8   2  -6  596.37   42.24
  -8  -2  -6  512.34   34.62
   8  -2  -6  510.00   37.52
  -2  -8   8 3543.49  164.05
   2  -8   8 3415.33  138.10
  -8  -2   8 3545.74  140.85
   2  -8   8 3591.05  181.12
   8  -2   8 3307.89  150.64
  -8  -2   8 3615.54  179.43
   8  -2   8 3533.05  156.75
   2   8   8 3620.97  168.28
  -2   8   8 3630.50  143.52
  -8   2   8 3551.69  151.87
  -8   2   8 3542.04  176.19
   8   2   8 3184.17  134.95
  -2  -8  -8 3634.93  174.52
   2  -8  -8 3550.21  143.40
  -8  -2  -8 3284.54  136.83
   8  -2  -8 3421.14  152.35
   8   2  -8 3503.30  142.38
  -8   2  10  852.51   73.93
   8   2  10  816.18   79.49
   2  -8  10  843.37  113.95
  -8   2  10  914.44   90.64
  -2  -8  10  840.04   70.80
  -8  -2  10  879.32   76.29
   8  -2  10  814.64   90.27
  -8  -2  10  930.29   83.52
  -2   8  10  941.22  122.46
   2   8  10  995.72   72.37
   8   2 -10  898.91   82.03
  -8  -2 -10  832.51   79.62
  -2  -8 -10  998.34   74.52
   8  -2 -10  870.79   92.26
   2  -8 -10  969.04   80.17
   2  -8  12 2562.29  182.37
   8  -2  12 2476.33  164.87
  -8  -2  12 2483.13  186.67
  -8   2  12 2633.66  184.29
  -8  -2  12 2548.59  158.86
   2   8  12 2734.01  175.65
   8   2  12 2329.64  156.03
  -2  -8  12 2553.69  178.27
  -2   8  12 2702.58  191.73
  -8   2  12 2635.16  161.98
   8  -2 -12 2503.40  162.29
   8   2 -12 2367.49  154.43
  -2  -8 -12 2726.57  179.89
  -8  -2 -12 2283.91  155.65
   2  -8 -12 2586.00  189.19
   3   8   1   70.89   19.67
   8  -3   1   59.63   18.02
  -3  -8   1   85.42   31.39
   8   3   1   82.43   40.15
  -3   8   1   92.92   26.73
   8  -3   1   59.44   20.44
   3  -8   1   90.58   41.29
  -8   3   1   75.72   21.94
  -8   3   1  110.16   34.49
   3  -8  -1   76.08   42.83
   3   8  -1   90.60   18.89
   8  -3  -1   66.69   14.32
   8   3  -1   87.90   25.31
  -3  -8  -1   90.82   32.26
  -8   3  -1   62.62   19.63
   8  -3  -1   76.85   20.49
   8   3   3   25.49   20.02
  -8  -3   3   78.98   32.12
   8  -3   3    3.90   15.55
  -3  -8   3   31.55   24.80
   8  -3   3   34.55   20.17
   3   8   3   34.13   25.47
  -3   8   3   23.42   20.99
  -8   3   3  105.10   29.62
  -8  -3   3   14.58    5.33
   3  -8   3   33.85   20.34
  -8   3   3    9.25   18.67
   8  -3   3    1.38   15.75
  -3  -8  -3    3.82   16.46
   8   3  -3   16.74   17.92
   3  -8  -3    1.07   20.91
   3   8  -3   22.61   13.21
   8  -3  -3   38.12   20.14
  -8  -3   5  226.26   34.92
  -8  -3   5  212.42   23.60
  -3  -8   5  201.73   27.78
   3  -8   5  204.93   35.65
   8  -3   5  198.87   35.24
  -3   8   5  228.41   37.53
   8   3   5  210.06   56.22
  -8   3   5  215.68   52.49
  -3  -8   5  225.53   48.44
   3  -8   5  216.26   61.85
   8  -3   5  155.30   22.06
  -8   3   5  227.56   36.63
   8  -3   5  161.19   20.84
   3   8   5  223.83   29.66
   8   3   5  184.56   18.97
   8   3  -5  249.75   53.32
  -3  -8  -5  233.43   49.85
   3  -8  -5  214.33   38.01
   8  -3  -5  232.77   40.28
  -8  -3  -5  203.04   23.16
  -8   3   7  104.84   48.30
  -3   8   7  101.98   34.27
  -8   3   7   89.54   22.72
  -8  -3   7   95.55   29.92
   3  -8   7   69.99   31.72
  -3  -8   7   74.07   28.99
   3   8   7  104.64   43.58
  -3  -8   7   62.50   25.54
  -8  -3   7   79.36   27.72
   8   3   7   82.50   23.80
   8  -3   7   51.01   20.46
  -3  -8   7   54.96   20.34
   8  -3   7   68.13   20.29
   8  -3   7   69.46   20.98
   3  -8   7   50.18   33.88
   8   3  -7   89.38   28.08
  -3  -8  -7  107.36   28.98
   8  -3  -7  106.88   39.13
   3  -8  -7   63.75   33.66
  -8  -3  -7   70.42   24.10
  -3  -8   9  183.65   58.70
   3   8   9  155.72   62.66
  -8   3   9  206.00   34.39
  -8   3   9  201.11   42.24
   3  -8   9   98.98   72.89
   8  -3   9  187.90   51.59
  -3   8   9  152.14   47.37
  -8  -3   9  220.70   46.41
   8  -3   9  173.37   45.70
   8   3   9  149.86   26.78
   3  -8   9  145.63   44.74
  -8  -3   9  196.06   43.19
  -8  -3  -9  181.13   42.86
   3  -8  -9  210.16   47.19
  -3  -8  -9  155.51   64.67
   8  -3  -9  164.25   35.30
   8   3  -9  234.87   45.26
  -3  -8  11   42.52   36.35
  -8  -3  11  148.97   47.74
   3   8  11   74.20   60.47
  -8   3  11   74.27   55.30
  -3  -8  11   55.61   30.29
   8  -3  11   54.57   32.46
  -3   8  11   67.57   43.94
   8   3  11   96.00   44.35
   3  -8  11  148.65   68.07
  -8  -3  11   95.23   65.31
  -8   3  11  132.44   65.87
  -8  -3 -11  103.02   45.89
   8   3 -11   87.25   46.65
  -3  -8 -11  -38.27   62.70
   8  -3 -11  123.88   56.60
  -3  -8  13   68.16   71.09
  -3   8  13   65.81   51.50
  -8  -3  13   91.07   38.72
   8   3  13  126.12   58.42
   3   8  13   15.45   72.69
  -8   3  13   75.01   42.36
  -8  -3  13  119.04   46.92
  -8   3  13  104.46   78.67
   8  -3  13  101.38   63.96
   3  -8  13  100.78   49.02
   8   3 -13   54.31   59.28
  -8  -3 -13  131.57   57.78
   8  -3 -13  119.41   68.30
   3  -8 -13   83.51   51.55
  -3  -8 -13   31.48   73.95
  -4  -8   0 3104.61  126.98
  -4   8   0 3128.74   91.31
   4  -8   0 3295.35  148.54
   8  -4   0 3120.05  129.26
  -4   8   0 3417.31  156.41
   4   8   0 3226.04  103.37
   8  -4   0 3288.13  126.73
   8   4   0 3640.96  154.78
  -8   4   0 3042.35  134.55
  -4   8   2 2369.26   86.94
  -4  -8   2 2008.93   97.30
   4   8   2 2245.10   83.04
   8   4   2 2370.89  121.91
  -4   8   2 2316.04   97.30
   4  -8   2 2308.19  124.48
  -8   4   2 2246.07   98.25
  -8   4   2 2267.85   90.79
   8  -4   2 1987.37   88.16
   8  -4   2 2006.06   74.80
   8   4  -2 2396.54  118.27
   4  -8  -2 2265.09   93.89
   8  -4  -2 2210.21  100.74
   4   8  -2 2108.29   82.88
  -4  -8  -2 2215.01  104.72
  -8   4   4 1905.81   95.92
   8   4   4 2046.17   86.11
   4  -8   4 1942.21  123.02
  -4  -8   4 1757.02   77.65
  -8  -4   4 1934.72  115.19
  -8   4   4 1905.85   86.28
  -4   8   4 1963.77  121.59
  -8  -4   4 1913.31   61.46
  -4  -8   4 1774.82   92.23
   8  -4   4 1610.46   79.71
   8  -4   4 1720.61   86.64
   8  -4   4 1553.25   85.54
   8   4  -4 1922.66   84.07
  -8  -4  -4 1777.79   46.26
   8  -4  -4 1848.55   97.91
  -4  -8  -4 1978.18  104.14
   4  -8  -4 1941.77   90.61
  -8  -4   6 1409.61  108.12
  -4  -8   6 1394.11   88.81
  -8   4   6 1411.22   87.48
  -4  -8   6 1403.39   74.55
  -4   8   6 1575.73  118.88
  -8  -4   6 1557.01   71.38
   4  -8   6 1545.73   86.07
   4   8   6 1538.88   96.16
   8  -4   6 1313.16   63.77
  -8   4   6 1406.19   76.31
   8   4   6 1327.15   59.56
   4  -8   6 1489.92   80.62
   8  -4   6 1261.51   87.37
   8   4  -6 1478.98   76.56
   4  -8  -6 1464.96   82.64
  -8  -4  -6 1539.37   61.51
  -4  -8  -6 1549.75   99.13
   8  -4  -6 1375.42   93.44
   4  -8   8 1999.38  107.35
   4   8   8 2003.11   94.55
  -8   4   8 2039.89  118.06
  -4   8   8 2164.79  147.05
   8   4   8 1640.78   91.94
  -4  -8   8 1800.59  115.94
  -8  -4   8 1862.91   98.17
  -8  -4   8 2073.31  102.12
  -8   4   8 1902.70   96.63
   4  -8   8 1933.03  100.27
   8  -4   8 1656.52   82.61
   8  -4   8 1695.10  114.15
  -8  -4  -8 1769.20   76.27
   8  -4  -8 1829.20  120.17
   4  -8  -8 2104.54  104.92
  -4  -8  -8 1898.71  123.40
   4  -8  10 1548.60  138.33
  -8   4  10 1544.80  136.46
   4  -8  10 1497.51  101.38
   8   4  10 1395.59  101.30
   4   8  10 1635.53   93.32
  -4  -8  10 1427.83   88.64
  -4   8  10 1774.38  104.04
   8  -4  10 1339.08  114.60
  -8   4  10 1607.04  120.71
  -8  -4  10 1604.40  108.88
  -8  -4  10 1538.68  136.09
  -8  -4 -10 1467.10  105.49
  -4  -8 -10 1596.46   93.34
   4  -8 -10 1540.81  102.20
   8  -4 -10 1491.68  122.27
   8   4 -10 1533.62  107.31
   4   8  12 1598.26  139.59
  -8  -4  12 1310.36  107.53
   4  -8  12 1430.91  107.02
  -8   4  12 1386.26  103.80
  -8   4  12 1499.62   98.30
  -4  -8  12 1400.14  135.99
   8   4  12 1360.11   89.57
  -4   8  12 1693.44  165.62
   8  -4  12 1247.89   93.67
  -8  -4  12 1419.93   94.03
  -8  -4 -12 1330.89  121.27
   4  -8 -12 1513.80  161.02
  -4  -8 -12 1527.17  137.98
   8   4 -12 1274.26  119.94
   8  -4 -12 1446.34   99.13
   8  -5   1  140.42   31.20
   5   8   1  169.27   37.30
  -8   5   1  129.23   24.76
   8  -5   1  141.29   22.74
  -5   8   1  182.37   53.65
   5  -8   1  153.36   33.24
  -5   8   1  129.93   24.80
  -5  -8   1  130.34   31.79
  -8   5   1  137.66   24.82
   8   5   1  169.78   50.59
   8   5  -1  168.28   49.94
   8  -5  -1  155.28   39.39
  -5  -8  -1  124.40   33.55
  -8   5  -1  125.71   32.21
   5  -8  -1  111.04   32.85
   5   8  -1  124.32   20.14
  -5   8   3   37.04   40.37
  -5   8   3   39.75   23.12
  -5  -8   3   36.05   21.42
  -8   5   3   26.42   29.06
   8   5   3   42.28   37.66
   8  -5   3   25.76   18.73
   5  -8   3   55.04   24.21
   8  -5   3   47.26   25.01
  -8   5   3   32.44   32.07
  -8  -5   3   14.81   10.55
  -5  -8   3   37.02   23.87
   5   8   3   21.29   25.42
  -8  -5   3   15.33   11.25
  -8  -5  -3   39.74    6.42
   5   8  -3   16.82   13.43
   8   5  -3   63.65   32.87
   8  -5  -3   52.35   30.23
   5  -8  -3   60.90   40.01
  -5  -8  -3   33.85   26.23
  -8   5   5   37.75   35.00
   8  -5   5   -1.61   18.15
  -5   8   5   29.03   26.83
   5  -8   5   50.66   24.15
   8  -5   5   76.83   28.01
  -5  -8   5   26.96   27.72
  -8  -5   5   17.29   23.05
  -8  -5   5   25.72   13.99
  -5  -8   5   67.19   25.23
   8   5   5   31.19   19.46
   8   5   5   23.73   23.45
   5   8   5   36.17   17.05
  -8   5   5   32.18   30.67
   5  -8   5    5.31   41.69
  -5   8   5   31.98   25.70
  -8  -5   5   12.80   17.30
   8  -5   5   23.42   16.96
   8   5  -5   11.63   20.67
  -5  -8  -5   21.38   29.27
   5   8  -5   24.10   21.26
   5  -8  -5   44.87   42.03
   8  -5  -5   43.67   32.39
  -8  -5  -5    5.82   13.69
  -8   5   7   84.87   40.11
  -8  -5   7  110.68   45.70
   8  -5   7   38.54   22.84
  -8  -5   7   42.00   28.17
   8  -5   7   86.38   39.42
   8  -5   7   34.61   22.46
  -8   5   7   77.98   26.86
   8   5   7   63.13   24.38
   5  -8   7   60.09   31.37
   5   8   7   24.52   23.42
  -5  -8   7   22.64   29.21
  -5  -8   7   41.87   41.18
  -5   8   7   68.12   53.26
   5  -8   7   79.62   33.77
  -5  -8   7   31.37   34.97
   5  -8  -7   76.46   55.00
   8  -5  -7   46.94   43.21
  -5  -8  -7   21.51   38.80
  -8  -5  -7   22.58   24.57
   8  -5   9   52.79   23.33
   5   8   9   36.19   25.21
   8  -5   9   14.17   24.81
  -8  -5   9   43.71   32.96
   5  -8   9   47.88   53.34
   5  -8   9   50.94   33.99
  -5  -8   9   20.55   30.14
  -5   8   9   72.83   56.83
  -8   5   9   23.38   43.88
  -5  -8   9   25.38   24.07
  -8   5   9   59.54   47.83
  -8  -5   9   67.86   46.36
   8  -5   9   38.09   42.40
   8   5   9   19.73   30.18
  -5  -8  -9   19.28   25.64
   5  -8  -9    0.82   33.84
   8  -5  -9   75.26   47.02
  -8  -5  -9   28.86   20.03
  -5   8  11    2.08   42.87
   5  -8  11  179.01   68.35
  -5  -8  11  100.69   51.87
   8  -5  11   19.96   53.40
  -5  -8  11   23.99   37.89
   8   5  11   24.91   42.04
  -8   5  11   78.18   34.97
   5   8  11   53.79   32.76
  -8  -5  11   14.81   28.34
  -8  -5  11   10.39   35.69
   5  -8  11  151.35   65.97
  -8   5  11   60.42   37.58
  -8  -5 -11   45.59   42.99
   5  -8 -11  199.61   70.32
  -5  -8 -11   94.05   51.97
   8  -5 -11   66.80   59.28
  -6   8   0  132.05   23.09
   8   6   0  232.20   52.04
   6  -8   0  253.59   55.04
   6   8   0  250.14   44.98
  -8   6   0  117.20   35.60
  -6  -8   0  161.09   31.17
   8  -6   0  176.33   45.19
  -6   8   0  246.53   56.18
   8   6   2 3977.23  169.81
  -6   8   2 3435.50  146.33
   8  -6   2 3733.30  131.19
   6   8   2 3811.54  129.46
  -8   6   2 3355.22  156.61
  -6   8   2 4122.77  182.01
   6  -8   2 3827.35  174.95
   6   8  -2 3750.78  140.97
   8   6  -2 3799.27  160.32
   6  -8  -2 3820.65  174.80
  -6  -8  -2 3928.50  141.42
   8  -6  -2 3830.51  167.37
  -6   8   4  947.94   66.27
  -6  -8   4  652.69   59.58
  -6   8   4  892.88   71.48
   8  -6   4  824.01   73.44
  -8  -6   4  893.42   46.86
  -6  -8   4  790.10   58.67
   8   6   4  795.66   40.00
   8  -6   4  695.80   45.59
   6   8   4  851.27   64.24
   8  -6   4  766.39   75.42
   6  -8   4  850.60   93.45
   8   6   4  923.35   60.33
  -8   6   4  869.16   81.17
  -8   6   4  944.84   81.55
   8   6  -4  839.21   79.01
   6   8  -4  757.08   62.97
   8  -6  -4  906.92   59.84
  -6  -8  -4  842.19   65.89
   6  -8  -4  920.16   94.77
  -8  -6  -4  982.45   42.74
   8  -6   6 3852.77  148.24
  -6  -8   6 3717.61  150.40
  -8   6   6 3442.32  172.87
  -8   6   6 3930.46  145.06
  -6   8   6 3813.46  191.15
   6  -8   6 4030.39  162.92
  -8  -6   6 3543.57  141.51
   6  -8   6 3848.02  153.62
  -8  -6   6 3876.92  152.80
  -6   8   6 3718.47  135.29
   6   8   6 3583.35  159.97
   8  -6   6 3675.80  164.56
   8   6  -6 3708.49  141.24
  -6  -8  -6 3578.83  161.51
   6  -8  -6 3807.22  193.57
  -8  -6  -6 4271.20  139.90
   8  -6  -6 3917.32  149.75
   8  -6   8  356.92   72.06
   6  -8   8  394.94   61.05
  -8  -6   8  376.98   56.36
  -6  -8   8  309.15   59.11
  -8  -6   8  380.47   52.61
  -6  -8   8  323.90   41.85
   6  -8   8  418.93   56.25
   6   8   8  400.92   44.03
   8  -6   8  462.83   79.23
   8   6   8  414.26   51.65
  -6  -8   8  443.17   69.37
  -6   8   8  475.85   91.98
  -8   6   8  468.24   51.70
  -8   6   8  392.88   76.28
  -6   8   8  468.77   71.92
   8  -6  -8  461.80   80.91
  -8  -6  -8  401.76   52.89
  -6  -8  -8  395.06   65.80
   6  -8  -8  459.32   91.19
   6  -8  10 2215.85  131.75
  -8  -6  10 1880.63  120.96
  -6  -8  10 2282.81  140.59
  -8   6  10 2473.50  122.88
   6  -8  10 2238.19  168.00
   8  -6  10 2153.78  161.63
  -8  -6  10 2003.53  134.23
   6   8  10 2210.85  143.69
  -6   8  10 2095.29  109.36
  -8   6  10 2268.82  121.15
   8  -6  10 2177.59  113.72
  -6   8  10 2460.87  178.85
   8   6  10 2025.16  127.45
  -6  -8 -10 2120.46  143.85
   6  -8 -10 2349.15  128.35
   8  -6 -10 2248.75  160.39
  -8  -6 -10 1992.89  130.55
  -7   8   1   39.17   18.96
  -7  -8   1   -3.68   15.91
   7  -8   1   30.89   34.49
   8  -7   1   31.30   18.63
  -7   8   1   69.07   21.95
  -8   7   1   58.20   32.14
   7   8   1   39.38   30.84
  -8  -7   1    7.18    9.93
  -8  -7   1   23.71   10.54
   8   7   1  104.06   33.19
  -7  -8   1   -6.69   13.62
  -8   7   1   13.01   14.12
   7  -8  -1    2.64   22.11
   8  -7  -1   28.73   32.14
  -7  -8  -1   20.63   16.57
   8   7  -1   61.66   33.14
  -8  -7  -1    7.63   10.55
   7   8  -1   29.65   17.68
  -8  -7  -1    1.63   10.61
  -7  -8   3   57.49   21.79
  -7  -8   3   35.26   22.68
   7  -8   3   86.23   29.64
  -8   7   3   64.62   43.08
  -7   8   3  104.92   47.01
   8   7   3  142.87   45.00
  -8  -7   3   46.25   23.42
   7   8   3   82.33   25.07
  -7   8   3  103.23   34.00
   8  -7   3   46.01   25.25
  -8   7   3   45.86   37.10
   7   8   3   27.20   21.00
   8   7  -3   82.64   38.41
   7   8  -3   36.00   33.71
   7  -8  -3   51.54   30.25
  -7  -8  -3   57.59   25.66
   8  -7  -3   93.23   45.02
  -8  -7  -3   55.59   16.13
   7  -8   5   59.14   47.39
   8  -7   5   76.70   26.24
  -8   7   5   81.02   45.01
   7  -8   5   52.15   50.54
  -8   7   5   50.95   25.46
   8  -7   5   85.85   43.85
   7   8   5   37.93   29.44
  -7  -8   5   34.98   26.03
   8   7   5   75.35   47.75
  -7   8   5   40.17   23.17
   8   7   5   47.19   19.85
  -8  -7   5   68.55   23.49
   8  -7   5   37.94   16.87
  -7   8   5  108.67   48.51
  -7  -8   5   32.40   26.56
  -8  -7   5   28.39   20.24
  -8  -7  -5   63.55   21.15
   8   7  -5   39.86   37.84
   8  -7  -5   56.32   47.80
   7   8  -5   35.44   33.04
  -7  -8  -5   53.20   29.47
   7  -8  -5   36.43   31.22
   8  -7   7   18.88   25.79
  -8  -7   7   10.37   39.04
   8  -7   7   -7.40   13.08
  -7  -8   7   29.20   28.60
   7   8   7   36.55   28.70
   7  -8   7  -46.93   44.06
  -8   7   7   49.04   40.62
  -8   7   7   18.04   22.72
  -8  -7   7   21.76   24.14
  -8  -7   7    5.32   24.95
   8  -7   7   25.63   23.81
   7  -8   7   22.68   28.55
  -7   8   7    5.93   44.13
  -7  -8   7   46.92   27.17
  -7   8   7   30.58   21.99
   8   7   7   67.42   24.52
   7  -8  -7  -10.67   46.86
  -8  -7  -7   31.09   24.22
   8  -7  -7   35.37   44.13
  -7  -8  -7   56.90   28.60
  -7  -8   9    1.24   27.23
   7   8   9   49.79   40.51
   7  -8   9   63.33   34.88
   7  -8   9   54.55   38.44
  -7  -8   9   39.94   27.34
   8  -7   9  153.59   53.64
  -8  -7   9   80.68   37.48
  -7  -8   9   37.24   39.51
  -8  -7   9  -12.70   51.42
   8  -7   9   50.43   34.66
  -7   8   9   45.03   61.28
  -8   7   9   83.55   52.27
  -7   8   9  122.48   49.66
   8   7   9   52.35   36.14
  -8   7   9   18.12   34.81
  -7  -8  -9   47.58   25.48
   7  -8  -9  129.78   64.05
   8  -7  -9   50.82   35.72
  -8  -7  -9   34.82   22.31
  -8  -8   0 2526.91   80.83
  -8  -8   0 2398.26   73.52
  -8   8   2  195.42   42.66
  -8  -8   2  160.25   24.75
   8  -8   2  237.54   60.38
   8   8   2  282.27   58.50
  -8   8   2  270.83   62.94
   8   8  -2  234.82   51.81
   8  -8  -2  272.05   64.65
  -8  -8  -2  152.55   29.08
  -8   8   4 3673.68  149.41
   8   8   4 3726.34  137.70
  -8   8   4 3101.70  166.80
   8  -8   4 3538.21  178.76
  -8  -8   4 3212.25  114.14
   8  -8  -4 3630.35  185.42
  -8  -8  -4 3727.83  126.04
   8   8  -4 2971.70  154.07
  -8  -8   6  213.03   42.32
   8  -8   6  376.36   80.89
   8   8   6  331.94   45.37
   8  -8   6  414.27   76.62
  -8   8   6  346.58   66.92
  -8  -8   6  290.28   46.40
   8   8   6  424.47   49.39
   8   8  -6  273.89   60.92
   8  -8  -6  419.50   54.49
  -8  -8  -6  319.34   48.04
   8  -8   8 2761.56  140.96
  -8  -8   8 2270.06  126.10
   8   8   8 2226.88  137.82
  -8  -8   8 2055.33  126.13
  -8   8   8 2600.90  154.37
  -8   8   8 2966.04  173.32
   8  -8   8 2724.99  165.68
  -8  -8  -8 2403.26  138.79
   8  -8  -8 2786.82  179.30
  -9   0   1    0.62   25.37
   9   0   1   -4.54   24.74
   0   9   1   35.50   25.36
   0  -9   1   -3.43   24.96
   0   9  -1    3.70    7.02
   9   0  -1    0.45   24.33
   0  -9  -1   23.48   25.60
   0   9   3   16.91   29.05
   0  -9   3   24.44   28.60
  -9   0   3   23.66   30.18
   9   0   3   12.27    5.68
   9   0   3    2.34    6.01
  -9   0   3    8.69    8.04
   9   0   3   21.26   17.14
   9   0  -3   76.77   29.30
   0  -9  -3   -8.51   18.57
   9   0  -3   10.18    8.85
   0  -9   5  103.57   38.16
  -9   0   5   13.91   15.81
  -9   0   5   37.41   22.64
   9   0   5   36.94   17.90
   0  -9   5  -22.08   35.89
   9   0   5   10.19   12.07
   9   0   5   12.75   35.26
   0   9   5   28.20   36.53
   0  -9  -5   21.95   39.11
   9   0  -5   18.95   16.38
   0  -9   7  -11.70   39.94
   0  -9   7   71.80   42.51
  -9   0   7   -3.79   25.43
   9   0   7    9.43   19.92
   0   9   7   88.18   40.96
   9   0   7   28.69   22.13
  -9   0   7   17.45   13.56
   9   0  -7   18.58   22.06
   0  -9  -7  -26.37   42.35
  -9   0   9   25.55   20.36
   0   9   9   74.53   54.28
  -9   0   9  -29.74   32.46
   9   0   9   45.49   28.00
   9   0   9   16.53   31.56
   0  -9   9   13.63   54.70
   0  -9   9   56.08   31.78
   0  -9  -9   72.13   33.37
   9   0  -9   75.67   32.76
  -9   0  11   78.13   64.58
   9   0  11   44.65   27.47
   0   9  11   -0.05   62.38
   0  -9  11   21.00   62.49
  -9   0  11   60.29   44.67
   0  -9 -11   44.27   67.45
   9   0 -11   72.62   43.26
  -1   9   0 3264.32  149.20
   9   1   0 3236.39  120.22
  -1  -9   0 3055.15  141.56
   1  -9   0 3198.25  146.64
   1   9   0 3012.96  139.16
  -9   1   0 3124.23  118.19
   9  -1   0 3161.83  141.47
  -1  -9   2 1255.91   88.28
  -1   9   2 1310.20   94.53
   1   9   2 1304.32   89.62
  -9   1   2 1273.20   67.43
   9   1   2 1410.77   93.47
   9  -1   2 1328.11   88.91
   1  -9   2 1297.10   93.73
  -9  -1   2 1278.01   68.36
   9  -1  -2 1127.43   47.33
  -1  -9  -2 1294.76   65.45
   9  -1  -2 1233.72   89.10
   9   1  -2 1275.38   66.10
   1  -9  -2 1303.41   94.52
   1   9   4 2709.86  137.43
  -9  -1   4 2713.84  113.04
  -9  -1   4 2491.10   87.79
  -9   1   4 2546.51   94.54
  -1  -9   4 2630.39  137.94
  -1   9   4 2857.39  141.87
   9   1   4 2946.56  143.84
  -9   1   4 2719.13  110.96
   1  -9   4 2796.24  146.44
   9  -1   4 2670.28  131.82
  -1  -9  -4 2836.29  142.16
   9  -1  -4 2542.36   95.58
   1  -9  -4 2864.83  116.12
   9   1  -4 2746.97  111.40
   9   1  -4 2531.20   91.05
  -1  -9   6 2343.58  131.47
   9  -1   6 2329.74   99.60
   9   1   6 2375.37  102.59
   1  -9   6 2397.00  109.21
   1  -9   6 2254.84  101.78
   9  -1   6 1962.12   94.36
  -9  -1   6 2265.23  103.04
  -1  -9   6 2387.06  107.11
   1   9   6 2325.99  101.72
  -1   9   6 2449.76  105.23
  -9   1   6 2087.67   79.26
  -9   1   6 2279.70  104.87
  -9  -1   6 2040.69   85.35
   9   1  -6 2242.43   90.83
   9  -1  -6 2171.07   98.66
  -1  -9  -6 2460.34  139.90
   1  -9  -6 2428.21  107.32
   1  -9   8 2250.70  120.37
   1  -9   8 2319.14  113.15
  -1  -9   8 2359.13  157.01
  -1   9   8 2493.06  119.86
  -9  -1   8 2229.75  112.66
  -1  -9   8 2340.18  145.91
   1   9   8 2453.83  153.34
  -9   1   8 2315.52  115.84
  -9  -1   8 2338.98  118.99
  -9   1   8 2248.23  118.32
   9  -1   8 2313.78  109.98
   9   1   8 2494.15  113.28
   9  -1   8 1975.67  116.21
   9   1   8 1906.45  107.09
   1  -9  -8 2485.86  120.62
   9   1  -8 2285.91  111.28
  -1  -9  -8 2478.70  158.62
   9  -1  -8 2231.91  118.85
   1  -9  10  489.10  100.37
  -9   1  10  484.23  102.05
   1   9  10  519.79   63.75
  -1   9  10  530.31   67.41
  -9  -1  10  546.60   70.62
  -9   1  10  527.50   72.94
  -1  -9  10  490.11   64.39
  -1  -9  10  494.60   62.17
   1  -9  10  483.86   67.00
  -9  -1  10  490.75  100.66
   9  -1  10  445.53   72.33
   9  -1  10  518.15   55.53
   9   1  10  461.61   65.76
   1  -9 -10  600.24  107.17
   9   1 -10  540.66   67.99
  -1  -9 -10  507.25  102.32
   9  -1 -10  469.43   72.20
  -9   1  12 1289.35  119.56
   1   9  12 1414.61  145.43
  -9  -1  12 1198.22  103.63
  -9   1  12 1183.35  105.60
  -1  -9  12 1249.01  144.16
  -1   9  12 1417.98  153.70
   9  -1  12 1083.98   84.87
   1  -9  12 1161.44  100.53
  -9  -1  12 1205.71  117.20
   9   1  12 1089.62  114.56
   9  -1 -12 1111.46   83.81
   9   1 -12 1159.43  111.23
  -1  -9 -12 1376.25  150.29
   1  -9 -12 1424.69  153.19
   9  -2   1   93.69   19.02
   9  -2   1  117.25   40.10
   2   9   1  118.73   26.84
  -2  -9   1  126.49   41.47
   2  -9   1  184.32   49.78
   9   2   1  166.43   51.09
  -2   9   1  143.16   51.28
  -9   2   1  120.46   45.24
   2  -9  -1  130.28   49.75
   9  -2  -1  112.40   20.95
   2   9  -1  106.79   23.31
  -2  -9  -1  105.36   26.51
   9  -2  -1  116.60   42.62
   9   2  -1  150.63   49.67
  -2   9   3  627.43   77.61
  -2  -9   3  529.69   65.32
  -9  -2   3  536.08   75.03
  -9   2   3  513.73   38.73
   2   9   3  517.05   64.61
   2  -9   3  550.29   75.50
  -9   2   3  542.73   70.59
   9   2   3  576.50   49.53
   9  -2   3  566.17   60.48
   9  -2  -3  545.53   47.03
   2  -9  -3  562.29   51.22
  -2  -9  -3  572.96   67.95
   9  -2  -3  515.13   40.96
   9   2  -3  595.39   73.47
   9   2   5  282.52   62.94
   9   2   5  190.01   16.93
  -9   2   5  251.04   39.18
  -9  -2   5  233.10   23.72
   9  -2   5  169.24   30.19
  -9   2   5  221.62   23.70
   9  -2   5  211.29   30.75
  -2   9   5  229.18   41.81
  -2  -9   5  225.62   33.94
   2  -9   5  252.97   42.13
  -9  -2   5  266.74   40.93
   9  -2   5  266.07   46.49
  -2  -9   5  255.98   58.45
   2   9   5  260.05   36.16
   2  -9   5  262.08   39.97
   9   2  -5  237.07   24.30
   9  -2  -5  269.44   38.60
   2  -9  -5  260.58   42.91
   9   2  -5  213.68   63.65
  -2  -9  -5  314.67   38.46
  -9  -2   7   94.26   29.14
  -9   2   7   95.28   36.21
   9   2   7   83.09   24.95
  -9  -2   7  111.75   35.43
   9  -2   7   97.07   32.45
   9   2   7  147.41   56.67
   9  -2   7  101.73   33.07
  -2  -9   7  101.88   35.44
  -9   2   7  106.60   22.62
   2   9   7  150.71   53.53
   9  -2   7   88.22   27.48
   2  -9   7   69.33   36.81
  -2   9   7   99.55   64.30
   2  -9   7  137.86   64.20
  -2  -9   7  119.10   30.78
   9  -2  -7  117.41   38.88
  -2  -9  -7  128.15   35.16
   2  -9  -7   92.92   38.61
   9   2  -7  102.91   29.53
   9   2   9  239.11   45.36
   9  -2   9  221.16   52.62
  -2   9   9  387.70   86.10
   9  -2   9  260.07   38.40
  -2  -9   9  256.89   49.60
  -9  -2   9  278.92   50.34
   2  -9   9  264.39   86.06
   2   9   9  276.01   75.30
  -9  -2   9  246.68   49.96
   2  -9   9  268.79   79.75
  -9   2   9  278.90   56.29
  -2  -9   9  267.65   72.86
  -9   2   9  270.94   50.86
   9  -2  -9  305.35   58.57
   9   2  -9  229.00   49.40
   2  -9  -9  278.38   90.20
  -9  -2  -9  211.94   29.33
  -2  -9  -9  291.09   81.35
  -2   9  11  138.24   55.47
   9   2  11  108.91   54.04
   2   9  11  176.10   78.27
  -9  -2  11  167.42   84.44
   2  -9  11  228.96   53.70
   9  -2  11  125.29   59.88
  -2  -9  11  322.04   77.97
   2  -9  11  196.18   51.68
  -9  -2  11  182.85   58.82
  -9   2  11  132.87   63.99
  -9   2  11  145.21   86.32
   9   2 -11  157.58   56.51
  -2  -9 -11  282.82   85.13
   9  -2 -11  191.83   62.75
  -9  -2 -11  155.82   53.40
   9   3   0  919.34   85.44
  -3   9   0  718.65   28.98
  -3  -9   0  826.46   66.24
  -3   9   0  896.34   87.02
   9  -3   0  752.52   46.82
   3  -9   0  864.15   82.20
   3   9   0  832.98   46.85
  -9   3   0  713.42   68.59
   9  -3   0  716.88   48.40
  -3   9   2 4068.64  183.85
   9   3   2 4272.77  179.37
   3   9   2 3789.49  163.34
  -9   3   2 3370.12  135.64
  -9   3   2 3658.16  146.49
  -9  -3   2 4147.89  149.61
   3  -9   2 3924.79  181.57
  -3  -9   2 3541.33  161.40
   9  -3   2 3382.21  151.57
   9  -3  -2 3627.78  143.09
   3  -9  -2 3824.71  147.85
   9  -3  -2 3725.39  142.04
   9   3  -2 4233.11  179.17
  -3  -9  -2 3845.97  167.86
  -3  -9   4  959.93   81.22
  -9   3   4  963.28   90.65
  -9   3   4  931.31   46.56
   3  -9   4  963.98   67.76
  -3   9   4  987.74   98.67
  -3  -9   4  897.24   73.76
   9   3   4 1059.38   65.38
   3   9   4  967.44   57.10
   9  -3   4  826.76   68.15
  -9  -3   4  981.85   92.72
  -9  -3   4  925.80   36.17
  -3  -9  -4  983.44   83.52
   3  -9  -4  981.88   68.19
   9  -3  -4  900.73   48.28
   9   3  -4 1032.68   90.09
   9   3   6 2394.19  137.45
  -3  -9   6 2163.61  108.39
   3  -9   6 2304.61  145.81
  -9  -3   6 2131.06  106.92
  -9  -3   6 2033.93   86.37
   9  -3   6 1851.66  108.03
   3   9   6 2228.35  130.68
   3  -9   6 2329.13  152.23
  -9   3   6 2124.09  106.56
  -9   3   6 2081.70  106.15
  -3   9   6 2350.02  152.00
  -3  -9   6 2091.85  122.49
   9  -3   6 1908.64   98.52
   3  -9  -6 2289.73  111.00
   9  -3  -6 2037.99   91.26
  -3  -9  -6 2226.47  136.69
   3   9   8  696.41   58.93
  -3  -9   8  608.36   79.06
   3  -9   8  698.40  104.12
   9  -3   8  511.80   65.47
  -9  -3   8  530.36   61.81
   3  -9   8  676.18   95.77
  -3   9   8  710.84   66.64
  -9  -3   8  607.34   42.68
   9   3   8  514.62   50.46
   9  -3   8  477.19   63.12
  -3  -9   8  643.52   91.94
  -9   3   8  651.26   93.66
   9  -3   8  608.92   65.97
  -9   3   8  657.04   70.11
  -9  -3  -8  539.56   49.58
   3  -9  -8  643.90   66.89
   9   3  -8  634.97   59.12
   9  -3  -8  639.84   72.69
  -3  -9  -8  688.65   89.68
   3  -9  10 3148.13  202.31
   3  -9  10 2973.79  193.52
   9   3  10 2334.22  142.15
   9  -3  10 2669.57  156.33
  -9   3  10 2919.86  165.13
  -3   9  10 3121.08  200.78
   3   9  10 3054.62  143.23
  -9  -3  10 2847.08  193.42
  -3  -9  10 2851.87  133.18
  -9   3  10 2924.46  190.12
  -9  -3  10 2752.87  158.24
  -3  -9  10 3016.36  146.89
   3  -9 -10 3171.26  201.07
   9  -3 -10 2629.60  130.36
  -3  -9 -10 2978.06  146.91
   9   3 -10 2573.88  152.09
  -9  -3 -10 2326.78  148.18
  -9   3  12  621.74  118.39
  -9   3  12  632.35   98.10
  -9  -3  12  542.15   61.61
   9   3  12  478.54   83.93
   9  -3  12  488.89   62.18
   3  -9  12  638.75   78.79
   3   9  12  766.40  111.88
  -9  -3  12  538.35   80.13
  -3   9  12  719.83   83.95
   3  -9  12  625.07   80.70
  -3  -9  12  606.19  105.79
  -3  -9 -12  692.66  113.72
  -9  -3 -12  569.44   89.91
   9   3 -12  549.57   86.85
   9  -3 -12  691.93  101.99
   3  -9 -12  672.77   83.89
   4  -9   1  468.55   48.37
   9  -4   1  413.74   50.35
   9  -4   1  367.17   28.98
   9   4   1  504.40   48.05
  -4  -9   1  415.77   52.51
  -9   4   1  414.20   43.30
  -4   9   1  447.60   31.25
  -9   4   1  392.97   40.91
   4   9   1  522.13   33.85
  -4   9   1  494.47   77.10
   4   9   1  437.26   36.56
   4   9  -1  447.91   37.86
   9   4  -1  536.89   47.78
  -4  -9  -1  422.63   36.40
   9  -4  -1  405.23   32.59
   4  -9  -1  479.21   48.40
   9  -4  -1  454.19   39.96
  -4  -9   3  253.34   28.95
  -4  -9   3  257.43   31.86
   9   4   3  365.69   67.73
   9  -4   3  219.63   35.18
  -4   9   3  416.34   70.99
  -9  -4   3  303.87   42.90
  -9   4   3  272.93   37.61
  -9   4   3  329.34   42.85
   9  -4   3  261.34   35.71
   4  -9   3  321.01   44.47
   9  -4   3  262.16   40.41
  -4   9   3  298.16   25.79
   4   9   3  313.68   51.36
   9   4  -3  288.66   39.16
   4  -9  -3  309.49   44.47
  -4  -9  -3  342.03   52.43
   9  -4  -3  273.47   45.17
   4   9  -3  271.19   31.12
   9  -4   5  369.39   44.97
   4   9   5  427.16   59.60
  -4  -9   5  390.02   54.91
  -9  -4   5  370.43   36.05
  -9   4   5  411.31   53.64
  -9  -4   5  430.40   75.59
  -4  -9   5  408.93   40.61
   9   4   5  448.37   48.18
  -9   4   5  412.07   70.52
   4  -9   5  457.37   82.47
   9  -4   5  311.82   44.24
   9  -4   5  308.96   45.63
  -4   9   5  484.86   53.41
   4  -9  -5  465.58   52.39
   9   4  -5  425.14   46.73
  -4  -9  -5  421.38   42.42
   9  -4  -5  412.51   38.25
  -9   4   7  421.14   58.79
   9  -4   7  308.96   31.99
   9   4   7  401.25   50.46
  -4  -9   7  384.76   72.58
  -4   9   7  416.38   57.30
   4  -9   7  404.20   83.29
   9  -4   7  304.06   51.68
   4   9   7  402.20   44.53
   4  -9   7  457.42   89.08
   9  -4   7  281.75   55.70
   9   4   7  358.16   35.08
  -9   4   7  419.79   76.79
  -4  -9   7  358.06   62.72
  -9  -4   7  430.64   45.86
  -9  -4   7  371.90   79.25
  -9  -4  -7  324.17   33.78
   9  -4  -7  437.12   64.49
   4  -9  -7  416.32   55.85
  -4  -9  -7  398.15   46.92
   9   4   9  169.03   40.76
   9  -4   9  158.62   33.90
   9  -4   9  213.54   56.40
  -4  -9   9  189.07   69.54
  -4  -9   9   87.19   31.82
  -9  -4   9  194.16   47.83
   4  -9   9  151.13   85.14
  -9  -4   9  180.56   72.93
  -4   9   9  220.24   52.78
   4   9   9  222.16   64.69
  -4  -9   9  221.94   38.68
   9  -4   9  183.32   43.44
   4  -9   9  167.03   80.15
  -9   4   9  149.14   58.67
  -9   4   9  187.50   73.08
   4  -9  -9   59.96   86.83
   9  -4  -9  163.18   61.59
  -9  -4  -9  186.12   42.23
  -4  -9  -9  233.47   43.17
  -9   4  11  191.03   72.79
  -9   4  11  225.90   85.13
   4   9  11  218.33   49.00
   4  -9  11  201.50   55.29
   9   4  11  202.64   56.05
  -4  -9  11  246.56   74.90
  -9  -4  11  189.03   84.75
  -9  -4  11  187.44   40.42
   9  -4  11  178.69   65.84
   4  -9  11  396.42  100.86
  -4   9  11  358.02  101.52
   9  -4 -11  200.20   74.64
  -9  -4 -11  201.09   60.76
  -4  -9 -11  163.98   81.10
  -9   5   0 2395.97  104.98
   5  -9   0 3032.32  154.89
   5   9   0 2685.32   98.70
   9  -5   0 2262.40  119.21
   9   5   0 3120.81  122.33
  -5   9   0 2349.27   78.93
  -5   9   0 2992.08  123.85
  -5  -9   0 2448.69  120.78
  -5  -9   2  804.66   67.35
   5  -9   2 1006.65   97.75
   9   5   2 1093.16   67.66
   5   9   2 1020.98   72.99
  -9   5   2  890.55   81.91
   9  -5   2  748.23   62.10
   9  -5   2  702.47   61.89
  -5   9   2 1025.02   71.08
  -9   5   2  905.33   72.97
  -5   9   2  856.47   57.47
   5   9   2  863.28   73.06
   9  -5  -2  833.03   75.24
   5   9  -2  807.84   58.68
  -5  -9  -2  880.02   71.56
   5  -9  -2  945.68   65.99
   9   5  -2 1031.99   68.42
  -9   5   4 2411.09  108.89
   9   5   4 2768.59  149.75
  -5   9   4 2847.02  160.76
  -9   5   4 2746.44  119.24
  -5   9   4 2364.44   99.69
  -9  -5   4 2732.39  122.96
  -9  -5   4 2475.40   68.47
   5  -9   4 2677.11  157.83
   9  -5   4 2158.03  112.09
   5   9   4 2425.44  106.28
  -5  -9  -4 2551.38  133.05
   9   5  -4 2618.67  112.53
   9  -5  -4 2328.20  108.01
   5  -9  -4 2670.41  122.03
   5   9   6  642.17   50.62
  -5  -9   6  549.78   46.63
  -9  -5   6  585.59   89.76
  -5   9   6  691.19   67.08
   9   5   6  751.29   88.64
   5  -9   6  635.13   99.65
   5  -9   6  636.10   63.62
  -9  -5   6  621.62   51.54
  -5  -9   6  522.91   73.02
  -9   5   6  605.00   83.25
   9  -5   6  533.30   67.57
   9   5   6  510.48   43.56
   9  -5   6  487.22   62.45
  -9   5   6  650.69   72.63
   5  -9  -6  696.27   65.83
  -9  -5  -6  521.00   43.16
  -5  -9  -6  694.81   76.44
   9  -5  -6  617.43   53.57
   9   5  -6  620.49   56.33
   5  -9   8 1982.03  117.45
  -9   5   8 2033.12  107.60
   5   9   8 2056.81  132.89
   5  -9   8 2165.18  156.28
  -9   5   8 1923.39   98.68
  -5  -9   8 1776.27  109.19
   9   5   8 1564.51   96.23
  -5   9   8 2250.18  162.14
   9  -5   8 1588.77  126.66
   9  -5   8 1762.56  116.91
  -5  -9   8 1751.85  120.65
  -9  -5   8 1794.02  146.83
  -9  -5   8 1827.66  111.86
   5  -9  -8 2050.59  115.89
  -9  -5  -8 1651.94  100.33
  -5  -9  -8 1956.53  134.49
   9  -5  -8 1990.07  135.93
   5  -9  10  854.32  125.98
  -5  -9  10  682.72   94.17
  -9  -5  10  681.05   60.17
  -9   5  10  763.40  110.76
   5  -9  10  803.50  119.01
   9   5  10  621.12   73.17
   9  -5  10  626.23   99.54
   5   9  10  795.46   99.67
  -5  -9  10  659.57   74.96
  -5   9  10  917.45   85.49
  -9   5  10  813.43   69.93
  -9  -5  10  640.07   75.94
   9  -5  10  608.83   62.33
  -5  -9 -10  803.61  102.15
   9  -5 -10  749.69  104.42
  -9  -5 -10  725.35   84.14
   5  -9 -10  869.20  123.48
  -6  -9   1  119.61   32.24
  -9   6   1  102.16   39.90
   6   9   1  136.28   42.32
   9  -6   1  102.90   38.93
   6  -9   1  144.65   56.26
  -6   9   1   68.54   24.49
  -9   6   1  134.95   41.51
   9   6   1  136.86   34.10
  -6   9   1  143.44   37.40
   9  -6  -1  110.65   27.50
   6  -9  -1  164.55   57.84
  -6  -9  -1   94.83   33.55
   9   6  -1  150.43   54.61
   6   9  -1  128.78   36.92
  -9   6   3  196.00   49.12
  -6  -9   3  140.79   21.20
  -6   9   3  186.46   38.40
  -9   6   3  211.02   49.58
   9   6   3  249.05   60.99
  -6  -9   3  125.59   23.78
   6   9   3  160.62   26.12
  -6   9   3  236.62   64.00
   6  -9   3  167.42   40.28
  -9  -6   3  132.14   18.81
   9  -6   3  163.84   42.78
   9  -6   3  139.01   30.37
   6   9   3  248.24   49.05
   6  -9  -3  224.49   63.79
   6   9  -3  156.53   36.41
  -6  -9  -3  169.10   40.61
   9   6  -3  198.98   53.02
   9  -6  -3  120.50   50.74
   6   9   5  154.95   42.29
   9   6   5  210.80   37.57
  -9  -6   5  185.44   37.86
   6  -9   5  159.98   39.63
  -6  -9   5  116.86   23.99
  -9   6   5  136.61   33.99
   9  -6   5  128.03   44.74
   9  -6   5  152.27   42.99
  -6   9   5  158.59   42.94
  -6  -9   5  155.77   39.46
   6  -9   5  188.27   66.22
  -9   6   5  151.27   50.25
  -6   9   5  141.73   41.25
   9  -6   5   88.40   26.52
  -9  -6   5  104.25   18.90
   9   6   5   93.09   17.18
  -9  -6   5  156.86   26.04
   9   6  -5  119.68   52.01
  -6  -9  -5  137.89   44.15
  -9  -6  -5  122.58   17.02
   6   9  -5  107.21   22.66
   9  -6  -5  179.32   52.37
   6  -9  -5  130.95   65.98
  -9  -6   7  133.63   37.42
  -9  -6   7  110.39   33.48
  -9   6   7   97.46   53.18
   9   6   7   61.07   27.74
  -6  -9   7   89.17   29.54
  -6   9   7  126.22   68.55
   6   9   7   97.13   45.33
  -6   9   7  135.60   46.55
   9   6   7  125.03   37.47
  -9  -6   7   57.29   26.85
   9  -6   7  123.22   46.64
   9  -6   7   85.62   26.49
   6  -9   7   97.56   43.17
   6  -9   7  103.77   40.97
  -9   6   7  107.70   35.69
  -6  -9   7   91.45   41.41
   9  -6   7  112.03   32.40
  -6  -9  -7  152.83   47.70
   9  -6  -7  204.78   58.44
   6  -9  -7  111.64   41.71
  -9  -6  -7   93.84   29.42
   6  -9   9  126.90   48.65
  -9   6   9  112.61   64.61
  -9   6   9  154.04   39.11
  -9  -6   9  129.47   42.53
  -9  -6   9   85.03   41.88
   9  -6   9   56.70   38.76
   6  -9   9  152.54   75.41
   9  -6   9   83.43   54.71
  -6   9   9  156.47   55.15
   9  -6   9   71.05   28.42
  -6  -9   9  108.49   51.00
   6   9   9  103.46   54.45
  -6  -9   9  148.97   61.14
  -9  -6  -9  108.25   44.67
   9  -6  -9   99.74   41.08
  -6  -9  -9  141.05   56.11
   6  -9  -9  121.16   47.60
   7  -9   0  837.35   69.23
  -7  -9   0  541.19   55.09
   9   7   0  943.02   66.69
   9  -7   0  665.85   56.28
   7   9   0  854.79   57.72
  -9   7   0  539.31   60.66
   7  -9   2 1517.81   90.12
  -7   9   2 1609.06  128.37
   9  -7   2 1150.79   97.69
   9   7   2 1729.39   87.83
  -9   7   2 1322.70   83.94
   7   9   2 1700.24   83.23
   7  -9  -2 1608.32   96.05
   9  -7  -2 1374.17   84.10
   7   9  -2 1566.78   92.31
   9   7  -2 1647.09  113.28
  -7   9   4 1639.69   98.98
   7   9   4 1698.06  110.77
  -9  -7   4 1365.57   60.50
  -9   7   4 1600.32   92.13
   7   9   4 1123.73   83.28
   9   7   4 1647.88  124.13
  -7   9   4 1358.37  107.12
  -9   7   4 1315.24  117.29
   7  -9   4 1519.36  132.94
   9  -7   4 1388.64   83.87
   9  -7   4 1298.55  106.24
   7  -9  -4 1586.35  133.65
   9   7  -4 1521.29  111.02
   7   9  -4 1213.96   92.66
  -9  -7  -4 1331.35   58.66
   9  -7  -4 1506.09   90.86
  -7  -9  -4 1274.35   93.05
   9  -7   6  871.56   95.88
  -9   7   6  965.74  103.55
   7  -9   6 1098.07  123.66
  -7   9   6  980.06   93.76
   9   7   6 1148.07  108.01
   9  -7   6  893.98  102.63
  -7   9   6 1081.54  119.21
   7  -9   6 1190.95   83.83
   7   9   6 1037.83   85.94
  -7  -9  -6  870.21   65.59
   9   7  -6  987.00   96.28
   7  -9  -6 1199.75  122.07
  -9  -7  -6 1249.88   64.69
   9  -7  -6 1058.73   77.73
  -9  -7   8  691.77   73.51
  -9  -7   8  710.67  108.05
   9  -7   8  652.94   67.64
   7  -9   8  771.19   80.20
  -7  -9   8  684.21   84.81
  -7  -9   8  688.03   80.42
  -9   7   8  860.82  103.64
  -7   9   8  743.84   94.58
  -7   9   8  949.20  120.97
   7   9   8  795.16   87.07
   9  -7   8  690.40   73.60
  -9   7   8  818.35  104.42
   7  -9   8  831.04   85.31
   9  -7  -8  900.35  112.72
   7  -9  -8  886.14  123.60
  -7  -9  -8  810.09   91.43
  -9  -7  -8  782.53   79.99
  -9   8   1   20.95   23.98
   9   8   1   49.99   24.95
  -8   9   1   42.95   26.56
  -8   9   1   22.55   20.94
   8   9   1   36.74   36.85
  -9  -8   1   18.33   13.70
  -8  -9   1   20.42   17.43
  -8  -9   1   11.33   14.91
  -9   8   1   14.01   15.90
   8  -9   1   47.63   42.37
   9  -8   1   -0.57   22.70
   8  -9  -1   63.85   42.32
   9  -8  -1   39.37   23.99
  -8  -9  -1   28.28   18.50
   9   8  -1    3.75   40.73
  -9  -8  -1   18.63   11.46
   8   9  -1   27.11   35.10
  -8   9   3   37.91   29.18
  -8   9   3   67.76   43.90
  -9   8   3   37.69   41.14
   9  -8   3    5.71   23.17
  -8  -9   3   27.11   17.51
  -8  -9   3    4.14   11.31
  -9   8   3   68.05   31.76
   9   8   3   54.48   40.22
  -9  -8   3   13.63   12.74
   8   9   3   37.52   23.74
   8  -9   3   22.55   26.47
  -9  -8   3    3.95   13.88
   8  -9  -3   45.98   28.43
   9  -8  -3   58.19   42.47
   9   8  -3   64.12   34.65
  -8  -9  -3    0.27   21.75
   8   9  -3   46.56   29.88
  -8   9   5   29.65   37.37
   8   9   5   -3.91   41.47
  -9   8   5   -1.54   43.68
   9  -8   5   40.61   24.63
   9   8   5   37.68   44.60
  -8  -9   5   13.78   21.87
  -9  -8   5   19.11   16.47
  -9  -8   5    8.58   19.36
   8   9   5   21.49   21.76
  -9   8   5   59.06   39.34
   9  -8   5   39.81   42.12
  -8   9   5   -5.54   46.55
  -8  -9   5   18.44   22.50
   8  -9   5   19.47   46.12
   8  -9   5   75.46   48.07
   9   8  -5   46.79   36.04
  -8  -9  -5   29.88   27.40
   8   9  -5   43.36   31.91
   8  -9  -5   27.75   30.74
   9  -8  -5   63.13   46.31
  -8  -9   7   32.50   27.11
   8   9   7   51.72   30.99
   9   8   7   80.28   50.21
   8  -9   7  -72.79   50.29
  -9  -8   7   28.79   21.86
   8  -9   7  102.39   52.74
  -8   9   7   -1.46   23.93
  -8  -9   7   29.40   27.62
  -9  -8   7    4.75   24.89
   9  -8   7    0.52   47.42
   9  -8   7    8.41   27.09
  -8   9   7  -26.28   50.61
  -9   8   7   46.33   26.01
  -9   8   7   37.68   45.74
   8  -9  -7  -60.20   53.66
   9  -8  -7  -22.73   51.30
  -8  -9  -7   52.63   32.98
   9   9   0 1772.43  100.07
   9  -9   0 1313.00   91.20
   9   9   2 1592.64  123.77
   9  -9   2 1112.40  120.28
  -9   9   2 1428.21  133.46
   9  -9  -2 1372.10  129.01
   9   9  -2 1483.82   87.98
   9   9   4  282.53   46.41
   9  -9   4  248.13   72.60
  -9   9   4  176.87   39.84
   9  -9   4  201.18   46.74
  -9   9   4  258.59   48.92
   9   9  -4  177.49   37.96
   9  -9  -4  263.42   80.24
  -9   9   6 1191.42  127.03
   9  -9   6 1669.39  137.76
   9  -9   6 1335.30  138.18
  -9   9   6 1593.46  137.63
   9   9   6 1611.12   96.04
   9   9  -6 1188.28   82.24
   9  -9  -6 1430.46  144.56
  10   0   0 2822.91  114.95
   0  10   0 2741.08  112.93
   0 -10   0 2743.66  113.29
  10   0   2  833.93   88.84
   0  10   2  763.56   62.36
 -10   0   2  770.49   62.81
   0 -10   2  766.25   61.41
   0 -10  -2  740.66   61.37
  10   0  -2  796.21   60.93
   0 -10   4 3111.65  161.94
  10   0   4 3136.75  126.33
   0  10   4 3087.96  160.94
 -10   0   4 3015.31  162.02
   0 -10  -4 3136.97  129.53
  10   0  -4 3090.89  163.12
 -10   0   6 1530.83   81.41
 -10   0   6 1615.83   98.62
   0  10   6 1772.96   99.09
  10   0   6 1884.77  132.62
   0 -10   6 1766.86  102.86
   0 -10   6 1735.76   96.80
  10   0  -6 1446.55   79.76
   0 -10  -6 1847.56  104.13
  10   0   8 2563.62  156.58
   0 -10   8 2518.09  171.35
   0  10   8 2716.69  167.54
   0 -10   8 2580.65  125.03
 -10   0   8 2451.56  127.37
  10   0  -8 2279.94  118.04
   0 -10  -8 2585.19  128.39
 -10   0  10  206.05   57.47
   0 -10  10  296.61   84.28
   0 -10  10  200.75   57.85
  10   0  10  158.69   55.90
 -10   0  10  152.16   89.89
   0  10  10  209.49   55.78
  10   0 -10  165.83   36.26
   0 -10 -10  267.72   90.07
  10   1   1  617.52   79.04
   1 -10   1  539.85   52.29
 -10   1   1  498.81   75.30
  -1  10   1  551.16   52.80
   1  10   1  539.25   48.44
  10  -1   1  559.03   48.74
  -1 -10   1  476.83   48.71
  -1 -10  -1  521.50   48.95
  10  -1  -1  537.34   72.63
  10   1  -1  507.16   77.38
   1 -10  -1  569.08   52.56
  -1  10   3  181.84   39.44
   1  10   3  240.89   57.55
 -10  -1   3  159.95   62.80
   1 -10   3  223.20   38.93
  -1 -10   3  196.61   36.64
 -10   1   3  146.95   20.08
  10   1   3  241.63   39.06
 -10   1   3  237.04   60.44
  10  -1   3  190.34   35.47
   1 -10  -3  227.16   40.71
  -1 -10  -3  238.21   59.26
  10  -1  -3  162.21   29.60
  10   1  -3  208.80   62.25
  10  -1  -3  181.26   59.33
  10  -1   5  291.14   60.89
  -1 -10   5  282.56   68.29
  10  -1   5  205.67   29.44
 -10  -1   5  222.24   24.39
 -10   1   5  236.71   32.90
  10   1   5  320.11   69.99
 -10  -1   5  204.94   45.33
  -1 -10   5  266.09   62.67
   1 -10   5  253.94   43.22
   1  10   5  314.00   66.61
   1 -10   5  286.56   74.45
 -10   1   5  290.48   68.87
  10   1  -5  282.37   45.54
  10  -1  -5  226.88   33.66
   1 -10  -5  308.24   47.40
  -1 -10  -5  304.88   69.03
  10   1  -5  248.29   27.21
 -10   1   7  344.24   47.35
 -10   1   7  330.05   52.53
  -1 -10   7  351.41   77.41
   1  10   7  432.73   81.13
  -1  10   7  399.49   87.68
 -10  -1   7  310.89   52.06
  10  -1   7  410.82   70.59
  10   1   7  435.66   80.67
   1 -10   7  368.41   88.72
  10   1   7  281.89   45.40
 -10  -1   7  291.01   40.64
  10  -1   7  263.32   43.19
  -1 -10   7  378.38   53.14
   1 -10   7  346.22   52.17
  -1 -10  -7  346.78   84.07
  10   1  -7  301.64   41.94
   1 -10  -7  416.50   56.10
  10  -1  -7  310.56   47.62
 -10   1   9  151.35   32.27
   1  10   9  226.83   79.77
   1 -10   9  264.21   84.86
  10   1   9  138.01   43.04
 -10  -1   9  205.06   47.84
  -1 -10   9  166.62   51.76
  -1 -10   9  199.90   47.21
   1 -10   9  220.48   80.04
  10  -1   9  213.18   66.69
  -1  10   9  258.54   85.72
 -10  -1   9  265.99   83.09
  10  -1   9  167.75   48.50
 -10   1   9  289.16   81.35
  10   1   9  297.28   73.64
  10  -1  -9  184.52   52.44
  -1 -10  -9  222.17   52.01
  10   1  -9  224.53   46.83
   1 -10  -9  221.08   88.46
   1  10  11  350.21   89.76
  -1 -10  11   63.34   90.16
  -1 -10  11  225.19   90.95
 -10  -1  11  176.31   93.83
   1 -10  11  210.58   57.27
  10   1  11  139.39   39.40
  -1  10  11  370.94   97.18
 -10   1  11  209.58   64.61
 -10  -1  11  233.77   64.04
   1 -10  11  342.76   99.50
  10  -1  11  169.08   59.75
 -10   1  11  123.13   58.78
  -1 -10 -11  419.42   99.83
  10  -1 -11  180.55   40.25
  10   1 -11  163.97   59.01
  10   2   0  606.64   55.77
  10  -2   0  513.08   71.18
  -2 -10   0  553.35   71.06
   2  10   0  485.02   36.51
 -10   2   0  534.87   50.11
  10  -2   0  398.58   42.24
  -2  10   0  595.94   55.24
   2 -10   0  583.76   54.69
  -2  10   2 2731.69  119.04
 -10   2   2 2527.28  115.25
 -10  -2   2 2686.77  117.25
  10  -2   2 2501.24  133.89
  -2 -10   2 2532.10  108.91
   2  10   2 2513.65  137.74
   2 -10   2 2630.89  116.53
  10   2   2 2789.94  150.35
  -2 -10  -2 2644.68  141.95
  10   2  -2 2658.91  113.86
  10  -2  -2 2528.52  138.44
   2 -10  -2 2612.57  114.69
 -10   2   4 1432.14  117.77
  -2 -10   4 1449.08   81.33
 -10  -2   4 1505.09  122.40
   2 -10   4 1523.05  124.57
  10   2   4 1677.40   90.44
 -10   2   4 1298.64   71.72
  -2 -10   4 1410.19  110.49
  10  -2   4 1267.03   78.37
  -2  10   4 1592.24  125.12
   2  10   4 1485.24  109.88
  10   2  -4 1548.91   86.73
  -2 -10  -4 1562.90  115.69
  10  -2  -4 1232.80   74.06
   2 -10  -4 1479.20   89.30
  10  -2   6 1907.48  119.69
  -2 -10   6 1987.65  138.80
  -2 -10   6 1947.47   97.59
  -2  10   6 2150.78  109.75
 -10  -2   6 1929.90  106.63
   2 -10   6 2027.27  143.54
   2 -10   6 2056.13  111.87
 -10   2   6 1969.32  144.06
 -10  -2   6 1888.67   82.67
   2  10   6 2096.81  103.33
  10   2   6 2221.57  144.19
 -10   2   6 1876.84  101.39
  10  -2  -6 1860.76  100.60
   2 -10  -6 2093.31  110.55
  -2 -10  -6 2136.71  140.71
   2 -10   8  784.89   78.07
 -10  -2   8  609.34   62.09
   2  10   8  768.08  102.11
 -10  -2   8  754.06  106.85
   2 -10   8  743.70  108.71
  -2 -10   8  664.51   95.58
  10  -2   8  688.95   85.85
  -2  10   8  827.99   77.90
 -10   2   8  660.76   70.75
  10  -2   8  516.81   64.49
 -10   2   8  695.13  106.55
  -2 -10   8  713.86  108.30
  10   2   8  853.41  101.23
  10   2  -8  644.97   62.38
  -2 -10  -8  842.74  109.23
   2 -10  -8  885.30  115.08
  10  -2  -8  717.22   74.66
  10  -2  10 1367.93  114.89
 -10   2  10 1774.31  116.44
   2 -10  10 1847.96  123.70
   2 -10  10 1869.19  116.22
 -10   2  10 1698.56  125.88
  10  -2  10 1778.04  137.78
  -2  10  10 2080.65  123.29
 -10  -2  10 1695.75  161.43
 -10  -2  10 1653.98  100.77
   2  10  10 1993.99  114.19
  -2 -10  10 1777.42  146.86
  10   2  10 1839.41  106.35
  -2 -10  10 1948.90  163.37
  10  -2 -10 1768.60  127.05
  10   2 -10 1488.13  116.59
   2 -10 -10 1975.64  172.87
  -2 -10 -10 1989.36  162.01
  -3  10   1   15.65   25.45
   3 -10   1   19.29   24.25
  -3  10   1   21.69   12.42
   3  10   1   16.89   18.88
   3  10   1   24.43   19.73
  10   3   1   11.25   24.95
  -3 -10   1   45.08   30.69
  10  -3   1   31.77   28.08
 -10   3   1    9.71   20.32
  10  -3   1   13.02   16.20
  -3 -10  -1   15.61   30.34
   3 -10  -1  -29.25   24.67
  10   3  -1   82.05   39.94
  10  -3  -1   41.24   31.15
  10  -3  -1   30.84   18.18
   3  10  -1    1.44   14.49
  10  -3   3   82.86   22.61
   3 -10   3  156.78   57.85
 -10   3   3   83.38   31.76
  -3  10   3  120.96   36.81
  10  -3   3   64.15   21.45
 -10   3   3  100.53   27.41
   3  10   3  130.06   45.93
 -10  -3   3   94.83   57.16
  10  -3   3   71.97   38.98
  10   3   3  194.19   57.15
  -3 -10   3  132.75   44.54
  10  -3  -3  106.30   30.04
   3 -10  -3  145.28   36.38
  -3 -10  -3  113.85   29.65
   3  10  -3   62.98   18.39
  10   3  -3  160.62   56.14
  10  -3   5  113.07   29.28
 -10  -3   5  161.51   64.50
 -10  -3   5  105.73   19.94
 -10   3   5  194.09   60.58
 -10   3   5  134.15   23.87
  -3 -10   5  141.18   55.87
   3 -10   5  170.70   43.85
  10  -3   5  153.62   44.25
  10   3   5  167.76   41.15
  -3 -10   5  232.48   49.65
  -3  10   5  231.38   70.15
   3  10   5  168.50   35.15
  10  -3  -5  169.30   40.12
   3 -10  -5  182.88   42.92
  10   3  -5   91.99   63.36
  -3 -10  -5  175.93   57.52
  10  -3   7   31.64   17.71
 -10  -3   7   39.88   21.98
  -3 -10   7   90.89   43.52
  10  -3   7   45.58   28.54
  10   3   7   56.20   32.88
 -10   3   7   88.88   53.00
 -10  -3   7   64.05   53.95
   3  10   7   89.85   47.34
 -10   3   7   25.54   21.32
  -3 -10   7   88.38   51.38
  -3  10   7  119.95   59.33
  10  -3   7   64.81   34.88
   3 -10   7  103.73   59.69
   3 -10   7   76.16   55.84
  -3 -10  -7   -1.53   31.60
  10  -3  -7   65.09   36.52
   3 -10  -7   24.19   59.26
  -3 -10   9   41.92   28.14
 -10  -3   9    3.84   54.58
  10   3   9   40.14   31.91
 -10  -3   9   43.53   33.77
 -10   3   9   -1.19   36.99
  -3 -10   9   50.27   55.36
  10  -3   9   53.61   32.33
 -10   3   9   15.93   33.35
   3  10   9   64.03   50.01
   3 -10   9   32.61   37.41
  10  -3   9    6.90   21.72
  10  -3   9   27.53   36.82
  -3  10   9   34.98   63.82
  10  -3  -9   39.01   38.97
  -3 -10  -9   16.50   32.17
  10   3  -9   25.04   30.18
  -3 -10  11   94.45   51.58
  -3 -10  11   71.25   58.15
 -10   3  11   68.95   62.37
   3 -10  11   31.50   38.59
 -10  -3  11    2.96   37.21
   3  10  11   78.13   56.40
  10  -3  11   27.95   25.97
  10  -3  11   72.29   39.47
   3 -10  11    4.21   40.94
 -10   3  11   -4.65   28.61
 -10  -3  11   28.87   26.06
  -3  10  11  -16.20   41.19
   3 -10 -11  -15.91   41.25
  10   3 -11   60.47   38.37
  10  -3 -11   32.76   29.07
  -3 -10 -11   30.10   59.83
  -4  10   0 2417.48  115.20
 -10   4   0 1782.04  123.94
   4 -10   0 2333.08  143.65
   4  10   0 1979.67   94.83
  10   4   0 2573.97  147.53
  -4 -10   0 1876.88   95.65
  10  -4   0 1782.78  101.82
  10  -4   0 1769.28  116.20
   4  10   2 1590.92   90.42
  10   4   2 1660.36   86.39
 -10   4   2 1135.31   78.21
  -4  10   2 1640.81   92.38
   4  10   2 1414.06   99.97
  10  -4   2 1217.77   86.89
 -10   4   2 1365.36  108.85
   4 -10   2 1627.49  124.24
  -4 -10   2 1236.06   94.17
  -4  10   2 1198.08   71.27
  10  -4  -2 1295.06   83.51
   4 -10  -2 1548.19   86.93
  -4 -10  -2 1328.93   98.53
  10   4  -2 1691.74  120.76
   4  10   4 1022.32   90.05
  10   4   4 1152.86  109.17
  10  -4   4  811.01   56.51
 -10  -4   4 1078.70  111.67
 -10   4   4  956.33   71.13
   4 -10   4 1112.93   80.13
 -10   4   4  969.83   75.22
  -4 -10   4  928.80   86.57
  -4 -10   4  852.77   59.14
  -4  10   4 1184.20  116.24
  10  -4  -4  922.66   79.61
  -4 -10  -4  954.77   92.25
   4 -10  -4 1064.15   79.87
  10   4  -4 1138.12  103.70
  -4 -10   6 1063.33   72.07
   4 -10   6 1483.54  134.17
  10   4   6 1496.60  119.03
   4  10   6 1380.64  108.92
  -4 -10   6 1227.14   81.39
  -4  10   6 1530.56  133.29
 -10   4   6 1286.76   92.81
   4 -10   6 1462.72  130.99
 -10  -4   6 1250.96  123.49
  10  -4   6 1030.48   84.21
 -10   4   6 1288.00   85.18
  -4 -10  -6 1375.81  112.13
  10  -4  -6 1274.13   96.50
   4 -10  -6 1414.95   92.59
  10   4  -6 1325.01   85.39
   4  10   8 1350.75  118.82
   4 -10   8 1313.36  143.31
 -10   4   8 1202.79   90.93
 -10  -4   8 1251.63  132.49
  10  -4   8  886.78   92.78
 -10  -4   8 1186.62   95.06
   4 -10   8 1274.52  137.60
  -4 -10   8 1060.32  105.81
  -4 -10   8 1090.36   91.34
  10   4   8 1351.45  125.45
 -10   4   8 1173.39   75.58
  -4  10   8 1479.18  146.03
   4 -10  -8 1356.65  142.04
  10  -4  -8 1279.78   80.42
  -4 -10  -8 1321.96  123.28
  10  -4  10  680.51   68.71
  10   4  10  852.85   76.19
   4 -10  10 1005.56  140.99
  10  -4  10  584.30   87.29
 -10  -4  10  730.76   90.98
  -4 -10  10  835.73   85.65
   4 -10  10  903.34   86.91
  -4 -10  10  770.54  103.87
 -10  -4  10  833.34  126.19
  10  -4  10  614.03   80.67
   4  10  10 1018.29  114.59
  -4  10  10 1164.75  141.09
 -10   4  10  952.18  127.50
 -10   4  10  918.47   72.72
   4 -10 -10  976.85   93.24
  10  -4 -10  862.88  104.99
  -4 -10 -10 1029.81  118.40
  10  -5   1  181.71   41.26
 -10   5   1  167.63   49.24
   5 -10   1  210.23   66.28
  10  -5   1  118.07   35.03
  -5 -10   1  163.74   41.56
  -5  10   1  107.35   22.70
   5  10   1  180.61   27.93
  10   5   1  209.48   65.90
  -5  10   1  198.69   69.76
  10   5  -1  212.11   63.77
   5  10  -1  157.58   34.07
  -5 -10  -1  126.60   28.34
   5 -10  -1  199.58   64.96
  10  -5  -1  127.08   42.10
  -5 -10   3   52.93   32.62
 -10   5   3   31.40   20.28
 -10   5   3   52.38   41.33
  -5 -10   3   13.20   28.77
  10  -5   3   54.31   25.81
  10  -5   3   26.06   16.99
   5 -10   3   70.56   31.81
  10   5   3   67.14   30.52
   5  10   3   23.76   22.10
  10  -5   3   22.93   25.91
  -5  10   3   59.92   26.64
  -5  10   3   57.81   53.56
   5  10   3   49.78   35.73
   5  10  -3   28.20   21.95
  10   5  -3   41.85   28.21
   5 -10  -3   33.58   51.37
  -5 -10  -3   56.98   34.66
  10  -5  -3   59.60   33.64
  10   5   5  102.97   35.24
  -5  10   5   71.65   38.12
  -5  10   5   56.31   34.94
  10  -5   5   52.38   19.94
 -10   5   5   86.03   51.51
   5 -10   5  118.84   59.95
  -5 -10   5   63.74   35.81
   5 -10   5   17.19   36.22
   5  10   5   76.95   42.34
 -10  -5   5   41.29   14.51
  -5 -10   5   88.68   41.20
 -10   5   5   81.65   25.35
  10  -5   5   70.98   28.67
 -10  -5   5   91.54   55.85
  10  -5   5   53.16   31.92
   5 -10  -5   84.96   37.72
   5  10  -5   48.43   25.87
  -5 -10  -5   28.44   43.21
  10  -5  -5  116.84   42.18
  10   5  -5   78.10   32.01
  10  -5   7   83.97   43.66
   5 -10   7   70.84   72.16
  -5 -10   7   69.72   47.30
 -10  -5   7  144.02   35.11
  10   5   7  122.14   40.59
 -10  -5   7  109.96   66.29
  -5  10   7  131.98   46.61
   5 -10   7  123.66   74.91
 -10   5   7   87.18   49.82
  10  -5   7   80.24   26.17
  -5 -10   7  109.94   53.28
 -10   5   7  139.18   38.19
  10  -5   7   63.31   21.21
   5  10   7  184.06   53.61
   5 -10  -7  148.59   45.66
  10  -5  -7  117.44   53.96
  -5 -10  -7  125.71   55.45
 -10  -5   9   18.71   61.02
   5 -10   9  -99.16   67.31
  10  -5   9   73.49   31.03
  10  -5   9   91.48   40.76
 -10   5   9   80.71   59.64
 -10  -5   9   68.25   35.82
   5  10   9   53.17   31.49
  10   5   9   42.88   35.54
  -5  10   9   47.72   43.37
  -5 -10   9   42.18   56.35
  10  -5   9   56.80   46.77
   5 -10   9   41.58   69.69
  -5 -10   9  -22.67   46.49
  10  -5  -9   52.54   32.29
   5 -10  -9  -41.62   70.80
  -5 -10  -9   27.37   53.86
 -10   6   0 1122.78   95.82
  10  -6   0 1322.66   94.15
  -6 -10   0 1231.53   87.37
 -10   6   2  567.32   86.78
   6 -10   2  859.41   75.85
 -10   6   2  726.00   81.53
  -6  10   2  912.44  112.54
  10   6   2  938.51  104.44
   6  10   2  935.49   84.24
  10  -6   2  646.84   68.78
   6  10  -2  694.83   64.14
  10   6  -2  956.60   74.47
   6 -10  -2  865.50  108.93
  10  -6  -2  718.59   59.87
  -6 -10  -2  634.91   53.08
  -6 -10   4 1227.37   96.40
 -10   6   4 1602.25  118.57
 -10   6   4 1469.16  124.83
   6 -10   4 1946.12  146.04
  10  -6   4 1554.44   97.43
  -6  10   4 1349.95  105.14
  10  -6   4 1203.84   97.23
  -6 -10   4 1206.61   89.32
   6  10   4 1650.08  118.64
  10  -6  -4 1626.72   92.26
  -6 -10  -4 1564.51  109.62
   6 -10  -4 1808.86  141.81
  10   6  -4 1830.82   96.51
  -6 -10   6  297.51   62.09
 -10   6   6  437.70   88.30
  -6  10   6  474.05   69.21
 -10   6   6  437.99   78.44
  -6 -10   6  380.68   68.57
  10   6   6  579.95   93.64
   6 -10   6  525.69   67.42
   6 -10   6  508.83  105.93
 -10  -6   6  509.86   64.96
  -6  10   6  534.91   69.60
  10  -6   6  314.91   65.25
   6  10   6  451.01   73.98
  10  -6   6  317.83   67.11
  10  -6  -6  513.62   57.09
   6 -10  -6  509.53   68.41
  10   6  -6  439.44   57.15
  -6 -10  -6  492.82   74.91
 -10  -6   8 1237.41   96.48
  -6 -10   8 1043.29  114.37
   6 -10   8 1347.27  151.91
   6  10   8 1272.81   86.24
   6 -10   8 1377.80  146.80
  -6  10   8 1569.30  107.51
  -6  10   8 1086.18  109.09
  10   6   8 1507.51  131.82
  10  -6   8  959.64  111.01
  -6 -10   8 1041.13  100.16
 -10   6   8 1316.22  118.02
 -10   6   8 1288.80  128.24
  -6 -10  -8 1214.35  117.19
  10  -6  -8 1362.43  126.28
   6 -10  -8 1432.51  104.54
 -10   7   1   76.80   43.35
  -7 -10   1   94.05   27.61
  10  -7   1  118.95   43.96
  -7 -10   1   97.34   33.02
  10   7   1  193.30   64.66
  -7  10   1  180.87   42.61
  -7  10   1   74.06   24.42
   7 -10   1   91.69   65.32
   7  10   1  191.99   52.12
  10  -7  -1  131.75   48.13
   7  10  -1  181.87   44.11
  10   7  -1  109.63   39.19
   7 -10  -1  135.72   41.49
  -7 -10  -1  123.67   34.68
   7 -10   3  297.94   49.32
  -7 -10   3  140.47   39.60
  -7  10   3  244.13   79.35
 -10   7   3  205.58   60.87
  -7  10   3  167.23   29.63
  10   7   3  283.96   45.73
   7  10   3  289.38   60.25
  -7 -10   3  145.72   35.44
 -10   7   3  203.84   59.58
  10  -7   3  174.08   50.89
  -7 -10  -3  146.29   44.44
  10   7  -3  210.25   41.06
  10  -7  -3  233.80   62.95
   7  10  -3  181.27   44.07
   7 -10  -3  275.84   48.81
  10   7   5  389.78   53.37
   7 -10   5  363.59   56.74
  -7 -10   5  243.11   46.70
   7 -10   5  376.97   90.59
   7  10   5  287.67   56.52
  -7 -10   5  196.07   48.94
  -7  10   5  350.12   61.95
  10  -7   5  270.35   41.65
  10  -7   5  313.70   61.07
   7  10   5  391.41   47.20
 -10   7   5  301.82   49.27
  -7  10   5  353.28   57.72
 -10   7   5  350.48   47.99
  10   7  -5  315.54   47.05
   7 -10  -5  362.63   89.73
  -7 -10  -5  259.89   57.52
  10  -7  -5  341.72   75.11
   7  10  -5  240.77   33.65
  10  -7   7  160.28   61.13
 -10   7   7  179.66   46.45
   7  10   7  193.76   59.77
  -7 -10   7  154.52   52.73
   7 -10   7  182.95   90.99
  10   7   7  271.69   49.55
  -7  10   7  224.92   61.48
 -10   7   7  247.76   71.61
   7 -10   7  237.20   54.94
  -7  10   7  321.55   89.26
  -7 -10   7  122.42   48.14
  -7 -10  -7  240.93   59.96
  10  -7  -7  235.57   48.76
   7 -10  -7  247.21   56.34
   8 -10   0  706.75  104.41
  10  -8   0  627.08   84.83
 -10   8   2 1637.58  136.17
   8 -10   2 1687.65  110.46
  -8  10   2 1995.29  159.58
   8  10   2 2027.11  104.97
  10   8   2 2079.04  109.01
  10   8  -2 2087.74  110.25
   8  10  -2 1526.32  116.50
   8 -10  -2 1818.71  155.61
  10  -8  -2 1697.94  132.75
  10  -8   4  252.67   65.36
  -8 -10   4  140.59   38.23
  10   8   4  330.81   79.98
  10  -8   4  258.20   43.86
  -8 -10   4  147.11   39.63
   8  10   4  387.75   71.99
 -10   8   4  196.03   45.17
   8 -10   4  326.56   85.94
 -10   8   4  264.71   49.23
  -8  10   4  232.40   59.38
  -8  10   4  325.38   55.47
  10  -8  -4  335.96   77.29
   8 -10  -4  335.40   58.88
  -8 -10  -4  201.70   47.70
   8  10  -4  255.11   36.07
  10   8  -4  269.16   45.57
  10  -8   6 1096.75  115.68
 -10   8   6 1074.64  129.33
   8  10   6 1534.25  127.27
  10  -8   6 1023.54  121.13
   8 -10   6 1389.25  143.87
  -8  10   6 1586.31  142.90
  -8  10   6  948.20  118.86
 -10   8   6 1428.10  128.94
   8 -10   6 1300.59  144.95
  10   8   6 1568.19  133.14
  10   8  -6 1253.08  114.69
   8 -10  -6 1494.70  148.31
  -8 -10  -6  946.46  100.11
  10  -8  -6 1353.59   98.73
  10   9   1  152.97   64.95
  -9  10   1   45.80   29.75
  10  -9   1  117.77   55.54
 -10   9   1   56.79   36.59
   9  10   1  127.58   60.64
   9 -10   1   93.89   65.49
   9  10  -1  149.64   35.40
  10  -9  -1  185.73   58.66
  10   9  -1  175.55   64.19
   9 -10  -1   88.86   41.47
  10  -9   3  123.49   40.17
  -9  10   3  128.87   48.71
 -10   9   3  181.89   71.93
  10   9   3  194.55   70.48
   9 -10   3  177.98   47.26
  -9  10   3  120.63   45.65
 -10   9   3   66.91   34.11
   9  10   3  210.84   42.50
   9 -10  -3  205.50   75.66
   9  10  -3  182.39   33.97
  10   9  -3  167.06   38.28
  10  -9  -3  213.98   44.17
  -9  10   5   46.40   56.50
   9 -10   5   34.42   68.45
  -9  10   5  113.60   70.64
   9 -10   5   73.32   70.40
 -10   9   5   59.52   58.98
  10  -9   5   90.08   59.71
   9  10   5  147.60   63.95
  10  -9   5  119.77   61.48
  10   9   5  108.81   41.98
 -10   9   5   83.01   42.00
   9 -10  -5  146.88   74.19
   9  10  -5   63.72   29.62
  10   9  -5  107.12   33.57
  10  -9  -5  148.41   67.80
  10 -10   0 1240.85  137.72
  10  10   0 1694.80  146.97
  11   0   1   33.97   47.49
   0 -11   1   15.17   46.86
   0  11   1   46.78   47.50
   0 -11  -1   30.39   47.34
  11   0  -1   79.88   46.12
 -11   0   3   33.96   53.08
   0  11   3   66.85   51.08
  11   0   3   62.36   51.97
   0 -11   3   97.08   51.00
   0 -11  -3  -10.55   52.39
  11   0  -3   61.50   31.26
 -11   0   5   28.09   45.80
  11   0   5   15.98   26.39
   0 -11   5   22.90   26.03
   0 -11   5   -4.72   46.45
   0  11   5   58.70   45.45
 -11   0   5    7.70   12.72
   0 -11  -5   34.34   28.28
  11   0  -5   37.50   21.66
  11   0   7   86.13   46.37
   0  11   7   49.60   29.82
   0 -11   7  -25.41   31.83
 -11   0   7   45.98   49.98
 -11   0   7   28.91   22.76
   0 -11   7   -3.62   29.27
  11   0  -7    1.61   22.65
   0 -11  -7   42.57   31.19
   0  11   9   19.97   35.47
   0 -11   9  -37.56   56.90
 -11   0   9   38.08   31.54
   0 -11   9   27.10   36.79
  11   0   9   16.09   31.88
 -11   0   9   85.08   57.55
  11   0  -9   45.53   31.63
   0 -11  -9  -26.69   63.00
  -1 -11   0  527.22   78.46
  11  -1   0  457.25   51.96
  11   1   0  540.38   58.01
   1 -11   0  480.35   84.61
   1 -11   2 2106.83  144.03
  11   1   2 2281.70  149.24
  11  -1   2 2011.42  138.74
 -11  -1   2 2135.77  111.73
  -1 -11   2 2010.14  137.42
 -11   1   2 1981.29  108.59
   1  11   2 2173.78  140.51
  -1  11   2 2085.23  146.51
  11  -1  -2 2005.02  137.78
  11   1  -2 2194.46  144.96
   1 -11  -2 2127.99  107.03
  -1 -11  -2 2042.63  136.17
  11   1   4 1245.62   85.24
 -11   1   4 1156.94  118.76
  -1 -11   4 1136.28   81.95
   1 -11   4 1175.60   85.23
 -11  -1   4 1181.25  119.92
  -1  11   4 1259.31   85.09
  11  -1   4 1137.23   81.32
   1  11   4 1200.68   81.40
  11   1  -4 1216.13  117.06
   1 -11  -4 1178.06   86.36
  -1 -11  -4 1212.46  117.22
 -11   1   6 1700.15  147.61
  11   1   6 2043.52  111.89
  11  -1   6 1823.59  104.49
   1 -11   6 1809.52  109.41
   1 -11   6 1897.40  157.61
  -1 -11   6 1877.02  150.77
 -11  -1   6 1780.33  149.98
  -1  11   6 1966.99  155.14
   1  11   6 1976.99  145.03
  -1 -11   6 1800.23  139.50
   1 -11  -6 1977.25  113.82
  -1 -11  -6 1866.64  149.08
   1 -11   8  630.44  115.50
   1 -11   8  655.18  110.24
  -1 -11   8  617.28  113.78
 -11   1   8  544.84   49.60
  -1 -11   8  585.28   69.38
 -11   1   8  589.20  108.25
  -1  11   8  712.26  113.50
  11  -1   8  629.69   95.71
 -11  -1   8  532.56   63.94
   1  11   8  541.63  106.15
  11   1   8  690.42   72.58
 -11  -1   8  637.76  110.08
  -1 -11  -8  717.95   74.45
   1 -11  -8  739.37  117.44
  11   1  -8  495.66   64.14
   1 -11  10 1386.56  114.09
 -11  -1  10 1334.03  156.80
  11   1  10 1514.36  146.33
   1  11  10 1589.60  156.06
  -1  11  10 1676.39  113.38
 -11   1  10 1133.36  108.97
 -11   1  10 1347.21  112.58
 -11  -1  10 1205.88  118.22
  -1 -11  10 1242.04  149.15
   1 -11  10 1504.14  110.07
  11  -1  10 1476.50  104.23
  -1 -11  10 1438.54  159.80
   1 -11 -10 1513.97  169.52
  -1 -11 -10 1669.39  161.80
  11  -1 -10 1193.26  109.04
  11   1 -10 1074.27  105.61
  11   2   1   53.51   29.55
   2  11   1    9.25   18.96
 -11   2   1   19.23   41.84
  -2 -11   1   16.01   39.09
   2  11   1   31.19   25.11
  11  -2   1   28.23   14.64
  11  -2   1   71.20   23.68
   2 -11   1   64.68   46.57
  11  -2   1   20.47   11.39
  -2  11   1   52.21   48.67
   2  11  -1   22.12   12.97
   2 -11  -1   28.20   47.22
  -2 -11  -1   38.63   39.39
  11  -2  -1   36.26   40.17
  11  -2  -1   20.66   15.06
  11   2  -1   66.85   47.65
  -2 -11   3   24.83   23.58
  11   2   3   18.14   44.44
 -11  -2   3   14.84   45.52
  11  -2   3    9.68   12.30
 -11   2   3   18.79   25.85
  -2  11   3   35.02   46.08
 -11   2   3   34.58   14.25
  11  -2   3   66.75   34.96
   2 -11   3   -8.47   27.57
  11  -2   3   17.84   12.77
   2  11   3    6.97   24.17
   2  11  -3   11.73    9.47
  11  -2  -3   21.97   17.22
  -2 -11  -3   42.47   38.84
  11   2  -3   15.14   27.29
   2 -11  -3   31.40   28.03
  11  -2   5   19.34   17.66
  11  -2   5    5.40   23.18
  -2  11   5   86.76   51.23
  11  -2   5   14.66   14.65
  -2 -11   5   14.08   25.18
 -11   2   5   17.81   21.00
  -2 -11   5   22.90   43.91
   2 -11   5   33.09   30.00
 -11  -2   5   -3.09   49.29
 -11   2   5   -7.63   46.04
  11   2   5   74.07   29.82
   2 -11   5   52.17   51.07
   2  11   5   43.94   42.81
  -2 -11  -5   68.65   44.07
   2 -11  -5   49.18   31.17
  11  -2  -5   -3.67   22.86
  11   2  -5   31.84   28.99
   2 -11   7   -2.47   61.73
 -11  -2   7   75.14   57.67
  11  -2   7   29.78   24.60
   2 -11   7   -1.40   58.50
   2  11   7  105.35   52.49
 -11   2   7   22.96   53.77
  11  -2   7   26.31   21.96
  11   2   7   32.09   34.37
  11  -2   7   15.54   26.31
  -2 -11   7   67.33   33.56
  -2 -11   7   73.32   48.69
 -11   2   7   55.33   31.37
  -2  11   7   42.74   37.03
 -11  -2   7   28.87   21.84
  11  -2  -7   50.42   31.53
   2 -11  -7   34.17   61.92
  -2 -11  -7   14.04   55.06
  -2 -11   9  -77.23   50.42
 -11  -2   9   39.34   31.20
  11  -2   9    1.18   26.70
  -2 -11   9   32.89   33.78
  11  -2   9   29.02   27.50
   2  11   9   15.34   53.71
  11   2   9   19.34   53.29
 -11  -2   9   30.33   57.33
   2 -11   9   65.93   35.36
  11  -2   9   13.27   28.75
   2 -11   9  -13.53   61.79
  -2  11   9   65.55   61.45
 -11   2   9   14.64   34.92
 -11   2   9    6.40   21.26
   2 -11  -9   17.02   64.73
  11  -2  -9   48.70   35.37
  -2 -11  -9  102.66   56.57
  -3 -11   0 2982.20  136.09
  11   3   0 3549.73  188.84
   3 -11   0 3130.47  180.42
  11  -3   0 2680.70  160.82
  11  -3   2  253.76   39.03
  -3 -11   2  237.21   42.65
   3  11   2  296.11   32.04
  -3  11   2  368.10   84.93
   3 -11   2  335.97   53.29
   3  11   2  272.41   67.39
  11   3   2  321.78   53.54
 -11   3   2  300.79   71.13
   3 -11  -2  290.88   80.90
  11   3  -2  307.63   52.05
  11  -3  -2  230.00   38.82
  -3 -11  -2  316.43   44.46
  11  -3  -2  293.97   45.20
  -3  11   4 3017.45  142.48
  11  -3   4 2351.23  147.21
   3 -11   4 2952.89  183.79
   3  11   4 2831.34  165.18
 -11  -3   4 2833.14  180.30
 -11   3   4 2664.28  137.04
  -3 -11   4 2366.88  150.64
  -3 -11   4 2504.34  158.85
  11   3   4 3209.20  181.94
  11   3  -4 2898.58  173.96
  -3 -11  -4 2724.94  133.62
   3 -11  -4 3016.04  143.57
  -3  11   6  372.69   62.43
  11  -3   6  240.88   63.14
   3 -11   6  353.55   90.86
  -3 -11   6  337.12   69.86
  -3 -11   6  346.59   79.40
   3  11   6  307.66   51.48
 -11  -3   6  339.34   89.68
 -11   3   6  290.24   53.39
  11   3   6  373.38   89.73
   3 -11   6  306.72   61.07
 -11   3   6  287.42   51.47
  11  -3  -6  260.77   54.42
  -3 -11  -6  364.09   51.61
   3 -11  -6  379.06   60.86
  11  -3   8 1850.58  110.95
  -3  11   8 2604.19  140.64
  11   3   8 2552.90  172.75
   3 -11   8 2444.99  142.49
   3 -11   8 2590.60  186.12
   3  11   8 2471.15  130.68
 -11   3   8 2091.59  139.01
  -3 -11   8 2221.19  177.32
 -11   3   8 2282.32  132.63
 -11  -3   8 2093.73  177.80
  -3 -11   8 2137.75  117.05
  -3 -11  -8 2280.88  132.83
  11  -3  -8 1973.06  137.62
   3 -11  -8 2596.93  190.01
 -11   4   1   58.56   42.97
  -4  11   1   24.52   18.14
  -4 -11   1   16.01   37.70
   4  11   1   63.68   27.63
  11  -4   1   25.52   22.69
  -4  11   1   68.72   56.73
  11  -4   1   54.86   36.55
   4 -11   1   53.89   33.41
  11   4   1   71.81   55.13
  11  -4  -1   43.64   17.90
   4  11  -1   39.04   21.52
  11   4  -1   51.48   33.89
  -4 -11  -1   41.32   38.54
   4 -11  -1   80.59   54.62
  -4  11   3   30.30   34.55
   4 -11   3   74.23   53.15
  -4  11   3   28.90   25.22
  11   4   3   10.30   31.54
 -11   4   3   33.29   44.33
 -11   4   3   38.97   25.59
   4  11   3   26.05   25.54
  11  -4   3   19.72   19.91
  -4 -11   3   25.77   37.09
  11  -4   3   53.55   20.54
  -4 -11   3   44.02   21.59
  11  -4   3   26.62   31.11
  11  -4  -3   16.45   28.94
   4 -11  -3    9.29   54.05
  11   4  -3   -2.57   52.05
   4  11  -3   26.45   17.61
  -4 -11  -3    0.11   39.28
  11  -4   5   43.67   27.07
  -4 -11   5  102.62   48.56
   4 -11   5   70.46   42.23
   4  11   5   86.60   51.18
  -4 -11   5   65.67   27.30
  11   4   5   92.30   63.73
  -4  11   5   91.76   67.99
 -11   4   5   37.98   56.39
  11  -4   5   83.86   37.80
 -11   4   5   84.46   36.50
 -11  -4   5  111.90   63.08
  11  -4   5   57.41   26.27
  11   4  -5  106.73   59.81
   4 -11  -5   81.51   41.58
  -4 -11  -5   65.52   50.94
  11  -4  -5   82.12   39.74
   4  11   7   90.54   58.39
   4 -11   7  112.15   47.19
  -4 -11   7   39.59   50.69
  11  -4   7   90.25   40.26
   4 -11   7   98.86   73.66
 -11   4   7   75.35   63.63
  11  -4   7   42.24   35.22
 -11  -4   7   65.77   69.93
  -4 -11   7  120.17   59.37
  11   4   7  178.97   67.35
 -11   4   7   82.41   47.04
  -4 -11  -7   49.78   59.65
   4 -11  -7  132.84   75.94
  11  -4  -7   72.69   29.98
   4  11   9   67.41   54.31
  11  -4   9   34.49   22.38
 -11   4   9   48.51   43.21
   4 -11   9   59.03   41.57
 -11   4   9   -0.30   61.47
  11   4   9   71.22   36.66
  -4  11   9  -17.09   72.74
  -4 -11   9  -16.75   49.09
  11  -4   9   44.02   37.52
  -4 -11   9   31.58   60.34
 -11  -4   9   61.92   63.60
   4 -11   9   37.95   43.01
  11  -4   9   36.32   36.01
  11  -4  -9   78.10   46.32
   4 -11  -9  -34.57   73.08
  -4 -11  -9  -13.66   57.66
  11   5   0  791.12   71.69
  -5 -11   0  520.00   50.92
   5 -11   0  763.90   72.46
   5  11   0  610.53   56.89
   5 -11   2 2640.73  176.15
  -5  11   2 2682.34  136.01
  11   5   2 2715.92  166.23
 -11   5   2 1819.14  149.76
   5  11   2 2526.22  136.21
  11  -5  -2 1878.93  125.85
  11   5  -2 2536.16  166.68
  -5 -11  -2 1881.70  131.95
   5 -11  -2 2616.82  173.57
 -11   5   4  164.50   61.48
  -5 -11   4  115.21   42.85
  11  -5   4  101.91   38.40
  -5  11   4  119.93   42.57
   5 -11   4  175.38   47.61
 -11   5   4   93.41   43.39
  -5 -11   4   93.89   31.44
  -5  11   4  222.38   75.69
  11  -5   4   94.63   32.67
  11   5   4  168.06   44.53
   5  11   4  193.63   54.37
  11  -5   4   88.68   34.08
  11   5  -4  123.90   66.16
   5  11  -4   78.75   28.68
   5 -11  -4  179.50   74.03
  -5 -11  -4  186.81   51.84
  11  -5  -4  140.98   47.66
 -11   5   6 2250.35  168.39
   5  11   6 2351.01  127.67
 -11  -5   6 2680.51  182.70
   5 -11   6 2781.72  191.60
 -11   5   6 2126.26  120.08
  -5 -11   6 1855.12  148.71
  -5 -11   6 2059.22  134.05
  11   5   6 2774.24  132.91
   5 -11   6 2627.88  191.26
  -5  11   6 2956.89  196.61
  11   5  -6 2526.19  133.31
  -5 -11  -6 2252.41  158.77
  11  -5  -6 2226.05  149.29
   5 -11  -6 2564.20  142.90
 -11   5   8  356.01   90.01
  11  -5   8  191.47   59.89
  11  -5   8  226.15   55.45
 -11   5   8  354.61   70.64
  -5 -11   8  264.14   52.94
   5 -11   8  346.96  105.62
  -5 -11   8  275.25   45.30
   5 -11   8  365.13  101.88
  11  -5   8  206.78   34.53
 -11  -5   8  300.27   94.24
  -5  11   8  371.88  107.79
   5  11   8  313.37   79.69
  11   5   8  452.77   89.33
   5 -11  -8  325.98  105.04
  -5 -11  -8  319.76   53.24
  11  -5  -8  381.37   75.16
   6 -11   1   64.86   53.40
  11   6   1   54.04   32.96
  -6  11   1   61.70   34.56
   6  11   1   47.62   20.85
 -11   6   1    7.04   37.74
  -6 -11   1   38.90   30.20
  -6  11   1   12.80   13.96
  11  -6   1   14.27   27.93
  11   6  -1   66.68   52.79
  -6 -11  -1   18.07   31.95
  11  -6  -1   49.27   31.81
   6  11  -1   37.41   27.92
   6 -11  -1   38.76   33.60
  -6 -11   3   81.81   34.55
  -6 -11   3   88.24   39.60
 -11   6   3  111.82   53.74
   6 -11   3   93.38   42.95
  -6  11   3   37.97   32.59
   6  11   3  113.41   48.75
  11  -6   3   49.30   34.10
 -11   6   3   89.65   43.95
  -6  11   3  138.25   70.84
  11   6   3   82.98   63.97
  11  -6   3   63.15   34.50
  11  -6   3   89.01   33.71
  11  -6  -3   72.44   46.10
   6 -11  -3  175.01   68.26
   6  11  -3   97.71   30.23
  -6 -11  -3   83.43   26.47
  11   6  -3  106.38   59.20
   6  11   5   73.78   45.58
 -11   6   5   57.83   32.26
  -6  11   5   75.32   41.57
 -11   6   5   53.47   45.49
  -6  11   5   47.16   42.55
  -6 -11   5   67.62   34.91
  -6 -11   5   84.91   39.20
  11  -6   5   55.23   34.47
  11   6   5   91.27   61.12
  11  -6   5   28.84   21.81
   6 -11   5   52.97   40.27
  11  -6   5   50.22   28.62
   6 -11   5  159.15   66.68
  11  -6  -5  104.22   48.03
   6 -11  -5   -7.61   66.19
  -6 -11  -5   59.52   42.78
   6  11  -5   31.62   27.94
  11   6  -5   21.53   33.91
   6 -11   7  -27.76   63.16
 -11   6   7   23.53   31.45
 -11  -6   7  -10.63   34.76
  -6  11   7   58.20   37.24
  11  -6   7   17.88   14.94
  -6 -11   7   43.19   24.51
   6 -11   7   27.13   60.88
  11  -6   7   28.09   32.69
  11   6   7   85.82   54.89
  -6  11   7   10.31   39.27
  11  -6   7   13.55   21.92
  -6 -11   7    7.56   21.33
   6  11   7   97.17   42.69
 -11   6   7   81.50   43.71
  11  -6  -7   54.98   45.75
  -6 -11  -7   40.77   26.39
   6 -11  -7    2.41   38.28
  11  -7   0  687.76   84.45
  -7 -11   0  665.37   75.52
   7 -11   0 1245.18  130.20
   7  11   0 1129.58   90.73
  11  -7   2  556.72   71.87
  11   7   2  954.46  110.77
 -11   7   2  473.49   88.18
  -7  11   2  907.67  122.91
   7 -11   2  762.07   79.65
   7  11   2  880.00   94.47
  11   7  -2  878.80  113.30
  11  -7  -2  546.28   82.82
   7 -11  -2  777.80   81.86
   7  11  -2  642.96   69.58
  -7 -11   4  581.65   66.98
   7 -11   4 1127.24  131.35
  11  -7   4  667.03   81.88
  -7  11   4  755.10   86.04
 -11   7   4 1031.77  102.41
 -11   7   4  800.86  108.19
  -7 -11   4  587.95   75.15
  11  -7   4  720.64   80.58
   7 -11  -4 1235.78  131.73
  11  -7  -4  986.20  104.24
  -7 -11  -4  740.01   84.44
   7  11  -4  704.39   70.10
  -7  11   6  611.05   74.08
  11  -7   6  312.32   68.48
  11  -7   6  293.33   48.45
  11   7   6  578.43   67.54
   7  11   6  583.40   60.66
  -7 -11   6  276.58   64.40
  -7  11   6  329.50   53.94
   7 -11   6  553.90  112.86
 -11   7   6  459.49   58.63
   7  11   6  447.08   79.15
   7 -11   6  558.58   73.10
  -7 -11   6  292.59   58.37
 -11   7   6  387.48   93.61
  -7 -11  -6  360.79   50.58
  11  -7  -6  421.78   60.54
  11   7  -6  382.91   59.75
   7 -11  -6  598.12  111.92
  11  -8   1   26.95   36.14
  11   8   1   37.03   33.07
 -11   8   1   15.70   33.87
   8  11   1   45.22   26.10
  -8 -11   1   16.05   19.78
  -8 -11   1    2.42   25.03
   8 -11   1   56.44   34.57
  11  -8  -1   38.51   24.09
   8 -11  -1   51.73   56.38
  -8 -11  -1   20.69   25.69
  11   8  -1   69.97   52.82
   8  11  -1   23.53   22.89
  -8 -11   3   46.49   25.54
  -8 -11   3   43.76   29.20
  11   8   3   66.14   36.97
   8  11   3  129.35   53.11
 -11   8   3   65.67   50.87
  -8  11   3   50.06   31.86
  -8  11   3   77.62   41.48
  11  -8   3   43.47   43.11
   8 -11   3   66.51   65.23
 -11   8   3   66.29   47.25
  11  -8   3   20.61   43.05
  -8 -11  -3   32.18   33.00
  11   8  -3   74.74   54.36
  11  -8  -3   53.16   30.57
   8 -11  -3   71.16   66.64
   8  11  -3   37.51   22.93
  12   0   0 1501.17   98.77
   0 -12   0 1612.09  138.49
 -12   0   2  886.56   80.70
   0  12   2  912.15   78.18
  12   0   2 1051.21  114.77
   0 -12   2  905.62   78.00
   0 -12  -2  946.88  113.74
  12   0  -2  944.42  113.46
   0 -12   4 1353.50  134.80
   0  12   4 1401.10  136.11
  12   0   4 1363.29  139.46
 -12   0   4 1264.14  134.61
  12   0  -4 1294.22   99.60
   0 -12  -4 1433.96  137.46
 -12   0   6  577.56  109.02
   0 -12   6  577.85  113.79
   0 -12   6  550.57   67.90
  12   0   6  608.93   70.48
   0  12   6  666.20  108.98
   0 -12  -6  639.36   73.09
  12   0   8 1260.98   98.76
   0 -12   8 1088.55  140.18
   0 -12   8 1119.66  149.13
 -12   0   8 1073.47  145.17
   0  12   8 1326.74  146.16
   0 -12  -8 1189.36  149.98
   1 -12   1  436.88   60.13
   1  12   1  470.84   57.06
  12  -1   1  442.94   54.97
  -1  12   1  483.86   60.40
  -1 -12   1  442.86   56.31
  12   1   1  519.71   62.66
  -1 -12  -1  429.30   56.55
  12   1  -1  466.58   92.91
  12  -1  -1  474.15   88.16
   1 -12  -1  514.30   92.90
  12   1   3  220.51   84.67
   1 -12   3  289.08   82.63
  -1 -12   3  215.33   77.61
  12  -1   3  248.51   74.85
 -12  -1   3  272.84   84.77
 -12   1   3  193.28   50.25
  -1  12   3  402.24   84.31
   1  12   3  247.85   80.10
  12   1  -3  328.65   52.95
  -1 -12  -3  253.77   78.87
  12  -1  -3  275.23   79.77
   1 -12  -3  288.06   83.77
  12  -1   5   81.94   36.76
  -1 -12   5   38.64   38.39
   1 -12   5   92.06   41.25
 -12  -1   5   62.55   66.37
  -1 -12   5   31.77   57.13
  12   1   5   74.80   65.09
   1 -12   5   60.21   38.99
 -12   1   5   90.93   64.26
  -1  12   5   78.06   41.21
   1  12   5   66.24   39.02
  -1 -12  -5   89.31   63.11
   1 -12  -5   86.33   42.10
  -1 -12   7  162.14   50.53
   1 -12   7  137.67   53.45
  -1  12   7  138.22   53.55
 -12  -1   7  190.20   84.23
 -12   1   7  194.26   49.97
   1  12   7  170.48   49.56
  -1 -12   7  128.59   45.74
  12   1   7  170.29   81.42
   1 -12   7  124.43   81.34
  12  -1   7  145.79   44.11
  -1 -12  -7   96.74   49.99
   1 -12  -7  106.14   85.94
  12   2   0 1068.73   85.59
  12  -2   0  869.45   74.79
   2 -12   0 1061.30  119.74
  -2 -12   0  889.26   75.41
  -2  12   2 1399.07   98.81
   2  12   2 1086.02   59.89
   2  12   2 1344.76  122.55
  -2 -12   2 1165.72  120.59
  12  -2   2 1214.76  115.07
 -12   2   2 1107.89  128.11
   2 -12   2 1332.43   95.31
  12   2   2 1417.89  138.85
   2 -12  -2 1388.81  133.51
  12  -2  -2 1218.29  124.66
  -2 -12  -2 1227.74   90.74
  12   2  -2 1352.59  137.06
   2  12   4  844.31   75.60
 -12   2   4  737.80   77.70
  12   2   4 1032.55  119.83
  12  -2   4  790.06   98.82
   2 -12   4  892.46  122.91
  -2  12   4  992.30  125.30
  -2 -12   4  797.63  106.75
 -12  -2   4  840.13  119.01
  -2 -12   4  802.03   70.16
  12   2  -4  850.78   81.78
   2 -12  -4  906.79   83.94
  -2 -12  -4  821.99   76.08
  12   2   6 1175.88  140.40
  -2 -12   6 1017.51  124.37
   2 -12   6 1211.04  138.47
  -2  12   6 1276.55  145.97
 -12   2   6 1029.45   91.84
   2 -12   6 1209.76  142.83
 -12  -2   6 1004.28  140.94
  12  -2   6 1070.18  117.07
   2  12   6 1168.32  129.08
  -2 -12   6 1101.70  131.61
   2 -12  -6 1202.64   99.71
  -2 -12  -6 1161.69  130.97
   2 -12   8  831.27  138.54
  12  -2   8  673.79  102.12
   2 -12   8  963.29  129.38
 -12  -2   8  734.44  129.20
  12   2   8  807.96  127.19
  -2 -12   8  683.32  112.18
  -2 -12   8  812.55  126.19
   2  12   8  826.14  122.46
  -2  12   8  884.25  135.45
 -12   2   8  713.14   83.26
   2 -12  -8  822.87  137.56
  -2 -12  -8  883.86  125.14
   3 -12   1   53.25   35.55
  12  -3   1   27.68   26.85
  -3 -12   1   32.16   43.96
   3  12   1   22.59   14.70
  -3  12   1   56.14   36.06
  12   3   1  113.10   35.26
 -12   3   1   19.72   29.87
  12   3  -1   62.52   57.74
  -3 -12  -1   54.01   44.32
   3 -12  -1   60.59   55.70
  12  -3  -1   52.11   23.62
   3  12  -1   29.92   17.83
  12  -3  -1   44.73   46.51
  12   3   3  113.68   45.14
  -3  12   3  133.68   73.57
 -12   3   3   53.32   62.62
   3  12   3   84.10   37.31
   3 -12   3   85.91   72.23
  12  -3   3   97.65   48.86
  -3 -12   3   96.92   56.04
  12  -3  -3   80.33   31.65
   3 -12  -3   94.70   71.95
  -3 -12  -3  112.36   56.99
  12   3  -3  127.88   43.33
  -3 -12   5   68.24   52.50
  -3 -12   5   84.22   48.36
 -12   3   5  -15.30   58.49
  -3  12   5   38.00   42.23
   3 -12   5   84.93   40.04
  12   3   5   86.67   62.89
   3 -12   5   14.91   67.37
   3  12   5   85.10   54.14
  12  -3   5   17.68   44.62
 -12   3   5   25.83   27.25
  12  -3   5   18.41   43.87
 -12  -3   5   43.06   62.64
  -3 -12  -5   87.78   33.42
  12  -3  -5    9.88   31.89
  12   3  -5   92.25   62.11
   3 -12  -5   89.57   40.57
   3 -12   7  -26.73   67.15
   3  12   7   86.35   57.71
  12  -3   7   49.95   45.29
  -3 -12   7   53.61   31.55
 -12   3   7   13.87   35.48
  -3 -12   7   41.89   37.37
 -12  -3   7  -25.11   67.21
  -3  12   7   33.67   44.06
   3 -12   7   85.99   71.20
 -12   3   7   90.18   60.58
  12   3   7   57.63   64.81
  -3 -12  -7   52.38   36.27
  12  -3  -7   77.16   37.45
   3 -12  -7   -9.51   71.49
   4 -12   0  979.12   85.96
   4  12   0  647.88   56.39
  12   4   0 1103.98  124.15
  -4 -12   0  736.02   89.86
  12  -4   0  771.15   93.56
  12  -4   2  741.83   94.14
   4 -12   2 1071.43  132.94
  -4 -12   2  779.83   70.62
 -12   4   2  818.41   80.56
  -4  12   2 1058.77   94.09
   4  12   2  934.85   79.21
  12   4   2 1251.49  132.99
  12   4  -2 1219.81   89.56
   4 -12  -2 1166.21  131.92
  -4 -12  -2  859.44  103.10
  -4  12   4  611.09   79.52
 -12   4   4  744.45  110.29
  -4  12   4  936.46   86.62
   4  12   4  867.78  102.07
  12  -4   4  578.68   56.81
  12   4   4  925.56   80.83
  -4 -12   4  675.66   93.37
  -4 -12   4  635.45   61.08
   4 -12   4  842.94   86.56
  12  -4  -4  642.35   82.31
  12   4  -4  990.11  120.99
   4 -12  -4  897.41  126.27
  -4 -12  -4  727.18   98.10
 -12   4   6  685.76   85.15
  -4 -12   6  779.68  101.67
  -4 -12   6  912.46  113.32
 -12   4   6  958.23  125.44
   4 -12   6 1118.14  139.26
  -4  12   6 1190.68  146.55
 -12  -4   6  951.59  137.00
  12   4   6 1180.84   93.31
   4 -12   6 1068.72  100.34
  12  -4   6  704.88   89.50
   4  12   6 1059.55  117.69
  -4 -12  -6  999.00  116.99
   4 -12  -6 1132.31   99.10
  12  -4  -6  780.86   67.72
   5  12   1   20.01   18.15
   5 -12   1   76.05   56.90
  12  -5   1   25.82   23.90
  -5  12   1   40.17   36.77
  -5 -12   1   22.09   36.69
  12  -5   1   -0.59   22.43
  12   5   1  111.30   56.68
  12  -5   1   24.40   14.25
 -12   5   1   31.34   27.05
   5  12  -1   19.12   23.28
  12  -5  -1   63.53   28.26
   5 -12  -1   35.89   36.32
  -5 -12  -1   60.04   37.60
  12   5  -1   37.27   35.27
   5 -12   3  261.96   55.84
  -5  12   3  297.08   90.56
  -5 -12   3  164.18   55.89
 -12   5   3  142.00   71.74
 -12   5   3  123.79   28.03
  12   5   3  297.25   81.56
  -5  12   3  108.59   35.89
  12  -5   3  154.80   35.59
  12  -5   3  172.64   49.18
   5  12   3  269.78   38.18
   5  12   3  213.46   40.93
  -5 -12   3  170.28   50.55
  12  -5   3  105.57   33.59
   5  12  -3  112.32   31.26
  12   5  -3  265.07   85.19
  -5 -12  -3  230.72   59.32
  12  -5  -3  205.02   50.39
   5 -12  -3  313.32   85.54
  -5  12   5  160.63   76.49
   5 -12   5   51.43   47.29
  -5 -12   5   73.34   43.51
  -5  12   5   98.32   45.82
  12  -5   5   67.86   37.15
  12   5   5  115.21   70.40
   5  12   5   79.55   55.17
   5 -12   5   75.24   45.17
  12  -5   5   78.79   30.91
  12  -5   5   51.57   29.83
  -5 -12   5   27.26   31.08
 -12   5   5   76.49   38.88
 -12   5   5   69.65   26.27
  12   5  -5   24.90   67.03
  -5 -12  -5   57.25   52.33
  12  -5  -5   83.73   50.42
   5 -12  -5   88.36   46.42
   6  12   0  780.81   81.39
  12   6   0 1313.37  136.82
   6 -12   0 1135.73  139.48
  -6 -12   2  361.38   47.67
   6 -12   2  626.36   75.31
  12   6   2  683.95   74.11
  -6 -12   2  359.56   59.52
 -12   6   2  363.94   59.53
   6  12   2  631.07   76.11
  12  -6   2  362.76   55.50
  -6  12   2  717.67  116.83
  12   6  -2  700.79   71.98
  -6 -12  -2  393.15   50.46
   6 -12  -2  729.06   78.59
  12  -6  -2  420.38   66.20
 -12   6   4  726.53   89.21
  -6  12   4 1038.19  142.09
   6  12   4  868.77  101.58
  -6 -12   4  556.04   74.89
  -6  12   4  533.54   78.81
   6 -12   4 1107.05  136.85
  -6 -12   4  616.57   85.24
 -12   6   4  658.92  114.22
  12   6  -4 1096.15  121.71
   6 -12  -4  982.05  133.55
  12  -6  -4  707.77   93.18
  -6 -12  -4  640.69   67.72
 -12   7   1   69.25   30.61
  -7 -12   1   53.38   30.65
   7  12   1   80.69   28.73
   7 -12   1  134.47   45.91
  12  -7   1   47.85   38.31
  -7 -12   1   69.96   38.69
  12   7   1  165.99   70.38
  12  -7  -1   79.92   41.74
  12   7  -1   73.97   43.99
   7 -12  -1  171.85   75.45
  -7 -12  -1   60.10   25.09
   7  12  -1   64.70   24.77
   7 -12   3  245.48   91.21
  12  -7   3  160.50   48.68
  -7 -12   3  143.00   41.19
  12  -7   3  120.63   47.02
  -7  12   3  296.26   95.49
 -12   7   3  170.32   70.07
   7  12   3  337.12   68.93
  -7 -12   3  142.97   48.57
  12   7   3  282.86   84.63
  -7 -12  -3  135.78   34.17
  12  -7  -3  157.05   37.84
   7  12  -3  136.09   42.11
   7 -12  -3  298.76   59.58
  12   7  -3  301.53   86.22
   0 -13   1   26.53   57.60
  13   0   1   63.91   58.51
   0 -13  -1   32.78   35.75
  13   0  -1   54.25   36.45
 -13   0   3    5.51   32.98
   0  13   3   21.85   33.08
  13   0   3   30.55   52.15
   0 -13   3   -8.07   31.75
  13   0  -3   99.29   53.38
   0 -13  -3   51.38   53.86
 -13   0   5   45.99   65.85
  13   0   5  100.41   65.48
   0  13   5   72.78   66.35
   0 -13   5    8.87   61.09
   0 -13   5   37.94   66.31
   0 -13  -5   35.08   66.73
  13  -1   0 1715.81  118.38
  -1 -13   0 1815.00  154.90
  13   1   0 1962.80  121.08
   1 -13   0 1792.31  120.59
  13   1   2  767.25  121.20
  -1 -13   2  661.63  110.07
   1 -13   2  773.82  116.97
  -1  13   2  750.69  119.44
   1  13   2  715.27   76.14
  13  -1   2  624.79  108.89
  13   1  -2  783.05  119.60
   1 -13  -2  739.20  120.60
  -1 -13  -2  642.78   76.08
  13  -1  -2  710.93  113.13
  -1 -13   4  760.85  118.93
   1 -13   4  852.34  127.58
 -13  -1   4  826.39  126.45
  13   1   4  918.16  131.25
  13  -1   4  799.19  117.17
 -13   1   4  749.64   82.45
  -1  13   4  915.51  131.09
   1  13   4  765.58  123.47
  -1 -13  -4  828.57  121.64
   1 -13  -4  924.72  126.73
  13   1  -4  845.94   85.95
  13  -1   6  523.28  104.28
  13   1   6  544.73  114.75
   1 -13   6  448.57   77.91
  -1 -13   6  485.95  101.34
 -13   1   6  414.55   73.74
 -13  -1   6  486.95  113.92
  -1 -13   6  483.37   72.99
   1 -13   6  514.53   73.95
   1  13   6  516.97  110.28
  -1  13   6  494.49   76.70
  -1 -13  -6  561.54  110.89
   1 -13  -6  481.61   77.10
  13  -2   1   61.68   32.75
   2 -13   1   39.99   61.52
   2  13   1   39.24   20.31
  -2 -13   1   22.87   53.01
  13   2   1   16.85   39.39
  -2 -13  -1   52.75   52.11
   2 -13  -1   36.74   38.03
  13  -2  -1   22.14   34.26
  13   2  -1   73.29   62.34
  -2  13   3   51.78   43.62
 -13   2   3   69.89   63.54
  13  -2   3   63.09   54.73
  -2 -13   3   48.62   35.82
  13   2   3   73.61   68.38
   2  13   3   27.59   60.97
   2 -13   3   90.07   42.45
   2 -13  -3  101.98   68.44
  -2 -13  -3   30.83   37.41
  13   2  -3   47.95   70.25
  -2 -13   5  135.89   43.91
  -2  13   5  140.48   88.24
  -2 -13   5  130.56   47.57
   2 -13   5  117.62   51.37
  13  -2   5  101.74   66.90
  13   2   5  168.10   86.56
   2 -13   5  133.15   54.45
 -13  -2   5  164.01   86.49
 -13   2   5  138.99   50.25
   2  13   5  158.56   48.41
  -2 -13  -5  136.53   48.02
  13   2  -5  114.55   54.33
   2 -13  -5  127.72   53.64
  13  -3   0  278.79   52.83
  13   3   0  345.77  100.18
  -3 -13   0  273.87   51.16
   3 -13   0  300.57  100.85
  13   3   2 1772.25  118.79
 -13   3   2 1283.94  107.90
  13  -3   2 1234.31   96.74
   3 -13   2 1742.91  115.46
  -3  13   2 1738.65  163.46
  -3 -13   2 1240.76   97.01
   3 -13  -2 1774.46  165.20
  -3 -13  -2 1302.51  136.79
  13   3  -2 1709.73  163.54
  -3 -13   4  321.43   88.12
  -3 -13   4  287.76   86.06
   3  13   4  367.36   61.74
  -3  13   4  391.52  114.69
   3 -13   4  438.50  110.16
  13  -3   4  289.19   76.99
  13   3   4  390.13   73.34
 -13   3   4  347.19   97.45
   3 -13  -4  425.63  110.12
  -3 -13  -4  407.39   88.64
  13   3  -4  312.88   70.65
  -4 -13   1  146.04   56.85
  13   4   1  193.55   80.36
   4 -13   1  168.19   82.06
  13  -4   1  135.47   56.18
   4  13   1   92.65   33.25
   4  13  -1   66.48   26.23
  -4 -13  -1   99.63   37.24
  13   4  -1  175.19   48.64
   4 -13  -1   91.52   51.02
  -4 -13   3    6.53   46.25
  13  -4   3   26.60   27.34
  -4  13   3   22.01   44.42
  -4 -13   3   36.14   47.73
 -13   4   3   35.59   35.25
   4  13   3   32.97   22.93
   4 -13   3  136.76   69.35
   4  13   3   44.80   33.08
  13   4   3   60.60   69.50
  -4 -13  -3   44.13   31.09
  13   4  -3  114.31   66.93
   4 -13  -3  123.08   69.93
  -5 -13   0  653.56   96.98
  13   5   0 1096.11   94.90
   5 -13   0 1003.04  141.86
  13   5   2  357.32  103.29
  -5  13   2  360.51   69.24
  -5 -13   2  207.27   46.65
 -13   5   2  234.45   82.77
  -5 -13   2  237.98   42.42
  13  -5   2  223.83   65.83
   5  13   2  277.55   56.23
   5 -13   2  304.50   67.38
  -5 -13  -2  269.31   71.04
  13   5  -2  434.82  101.23
   5 -13  -2  385.39   69.43
   0 -14   0  436.04  104.53
  14   0   0  403.61   70.95
  14   0   2 1754.50  173.78
   0 -14   2 1728.07  170.70
   0 -14  -2 1768.59  128.09
  14   0  -2 1659.11  129.52
  14  -1   1  105.12   78.67
  -1 -14   1  116.35   46.78
  14   1   1  117.68   51.31
   1 -14   1  114.26   50.57
  14  -1  -1  101.41   48.00
  14   1  -1   82.27   52.52
  -1 -14  -1   63.12   76.44
   1 -14  -1  203.86   79.72
  -2 -14   0 1369.11  110.48
  14  -2   0 1336.73  114.24
   2 -14   0 1567.26  170.55
  14   2   0 1742.64  123.41
;
loop_
_symmetry_equiv_pos_as_xyz
'x, y, z'
'-y, x, z'
'-x, -y, z'
'y, -x, z'
'-x, y, z+1/2'
'y, x, z+1/2'
'x, -y, z+1/2'
'-y, -x, z+1/2'
'x+1/2, y+1/2, z+1/2'
'-y+1/2, x+1/2, z+1/2'
'-x+1/2, -y+1/2, z+1/2'
'y+1/2, -x+1/2, z+1/2'
'-x+1/2, y+1/2, z+1'
'y+1/2, x+1/2, z+1'
'x+1/2, -y+1/2, z+1'
'-y+1/2, -x+1/2, z+1'
'-x, -y, -z'
'y, -x, -z'
'x, y, -z'
'-y, x, -z'
'x, -y, -z-1/2'
'-y, -x, -z-1/2'
'-x, y, -z-1/2'
'y, x, -z-1/2'
'-x+1/2, -y+1/2, -z+1/2'
'y+1/2, -x+1/2, -z+1/2'
'x+1/2, y+1/2, -z+1/2'
'-y+1/2, x+1/2, -z+1/2'
'x+1/2, -y+1/2, -z'
'-y+1/2, -x+1/2, -z'
'-x+1/2, y+1/2, -z'
'y+1/2, x+1/2, -z'
loop_
_atom_site_label
_atom_site_type_symbol
_atom_site_fract_x
_atom_site_fract_y
_atom_site_fract_z
_atom_site_U_iso_or_equiv
_atom_site_adp_type
_atom_site_occupancy
_atom_site_site_symmetry_order
_atom_site_calc_flag
_atom_site_refinement_flags_posn
_atom_site_refinement_flags_adp
_atom_site_refinement_flags_occupancy
W1 W 0 0 0.25 0.0142(2) Uani 1 8 d S T P
Ni1 Ni 0.31684(13) 0.18316(13) 0.5 0.0174(4) Uani 1 4 d S T P
N1 N 0.2248(6) 0.1039(6) 0.3977(4) 0.0206(13) Uani 1 1 d . . .
C1 C 0.1487(7) 0.0656(6) 0.3435(5) 0.0176(14) Uani 1 1 d . . .
loop_
_atom_site_aniso_label
_atom_site_aniso_U_11
_atom_site_aniso_U_22
_atom_site_aniso_U_33
_atom_site_aniso_U_23
_atom_site_aniso_U_13
_atom_site_aniso_U_12
W1 0.0180(3) 0.0180(3) 0.0066(3) 0 0 0
Ni1 0.0226(6) 0.0226(6) 0.0070(7) 0 0 -0.0066(8)
N1 0.023(3) 0.025(3) 0.014(2) 0.002(2) 0.001(2) -0.007(2)
C1 0.025(4) 0.016(3) 0.012(3) 0.003(3) 0.002(3) 0.000(3)
loop_
_atom_type_symbol
_atom_type_description
_atom_type_scat_dispersion_real
_atom_type_scat_dispersion_imag
_atom_type_scat_source
Ni Ni 0.3393 1.1124 'International Tables Vol C Tables 4.2.6.8 and 6.1.1.4'
W W -0.849 6.8722 'International Tables Vol C Tables 4.2.6.8 and 6.1.1.4'
C C 0.0033 0.0016 'International Tables Vol C Tables 4.2.6.8 and 6.1.1.4'
N N 0.0061 0.0033 'International Tables Vol C Tables 4.2.6.8 and 6.1.1.4'
loop_
_geom_angle_atom_site_label_1
_geom_angle_atom_site_label_2
_geom_angle_atom_site_label_3
_geom_angle
_geom_angle_site_symmetry_1
_geom_angle_site_symmetry_3
C1 W1 C1 145.0(4) . 22_556
C1 W1 C1 140.8(4) . 23_556
C1 W1 C1 72.01(17) 22_556 23_556
C1 W1 C1 72.01(17) . 2
C1 W1 C1 140.8(4) 22_556 2
C1 W1 C1 78.4(3) 23_556 2
C1 W1 C1 78.4(3) . 24_556
C1 W1 C1 112.5(3) 22_556 24_556
C1 W1 C1 72.01(17) 23_556 24_556
C1 W1 C1 81.0(4) 2 24_556
C1 W1 C1 112.5(3) . 3
C1 W1 C1 78.4(3) 22_556 3
C1 W1 C1 81.0(4) 23_556 3
C1 W1 C1 72.01(17) 2 3
C1 W1 C1 145.0(4) 24_556 3
C1 W1 C1 81.0(4) . 21_556
C1 W1 C1 72.01(17) 22_556 21_556
C1 W1 C1 112.5(3) 23_556 21_556
C1 W1 C1 145.0(4) 2 21_556
C1 W1 C1 72.01(17) 24_556 21_556
C1 W1 C1 140.8(4) 3 21_556
C1 W1 C1 72.01(17) . 4
C1 W1 C1 81.0(4) 22_556 4
C1 W1 C1 145.0(4) 23_556 4
C1 W1 C1 112.5(3) 2 4
C1 W1 C1 140.8(4) 24_556 4
C1 W1 C1 72.01(17) 3 4
C1 W1 C1 78.4(3) 21_556 4
N1 Ni1 N1 88.8(3) 30_556 16_554
N1 Ni1 N1 90.9(3) 30_556 19_556
N1 Ni1 N1 173.9(4) 16_554 19_556
N1 Ni1 N1 173.9(4) 30_556 .
N1 Ni1 N1 90.9(3) 16_554 .
N1 Ni1 N1 88.8(3) 19_556 .
C1 N1 Ni1 166.8(6) . .
N1 C1 W1 176.3(6) . .
loop_
_geom_bond_atom_site_label_1
_geom_bond_atom_site_label_2
_geom_bond_distance
_geom_bond_site_symmetry_2
W1 C1 2.141(7) .
W1 C1 2.141(7) 22_556
W1 C1 2.141(7) 23_556
W1 C1 2.141(7) 2
W1 C1 2.141(7) 24_556
W1 C1 2.141(7) 3
W1 C1 2.141(7) 21_556
W1 C1 2.141(7) 4
Ni1 N1 1.861(6) 30_556
Ni1 N1 1.861(6) 16_554
Ni1 N1 1.861(6) 19_556
Ni1 N1 1.861(6) .
N1 C1 1.160(9) .
loop_
_geom_torsion_atom_site_label_1
_geom_torsion_atom_site_label_2
_geom_torsion_atom_site_label_3
_geom_torsion_atom_site_label_4
_geom_torsion
_geom_torsion_site_symmetry_1
N1 Ni1 N1 C1 -116(2) 16_554
N1 Ni1 N1 C1 58(3) 19_556
