#------------------------------------------------------------------------------
#$Date: 2017-03-04 03:43:24 +0200 (Sat, 04 Mar 2017) $
#$Revision: 192919 $
#$URL: file:///home/coder/svn-repositories/cod/cif/4/34/53/4345354.cif $
#------------------------------------------------------------------------------
#
# This file is available in the Crystallography Open Database (COD),
# http://www.crystallography.net/
#
# All data on this site have been placed in the public domain by the
# contributors.
#
data_4345354
loop_
_publ_author_name
'Marinho, Maria Vanda'
'Reis, Daniella O.'
'Oliveira, Willian X. C.'
'Marques, Lippy F.'
'Stumpf, Humberto O.'
'D\'eniz, Mariadel'
'Pas\'an, Jorge'
'Ruiz-P\'erez, Catalina'
'Cano, Joan'
'Lloret, Francesc'
'Julve, Miguel'
_publ_section_title
;
 Photoluminescent and Slow Magnetic Relaxation Studies on
 Lanthanide(III)-2,5-pyrazinedicarboxylate Frameworks.
;
_journal_issue                   4
_journal_name_full               'Inorganic chemistry'
_journal_page_first              2108
_journal_page_last               2123
_journal_paper_doi               10.1021/acs.inorgchem.6b02774
_journal_volume                  56
_journal_year                    2017
_chemical_formula_sum            'C9 H13 N3 Nd O11'
_chemical_formula_weight         483.38
_chemical_name_systematic
;
 ?
;
_space_group_crystal_system      triclinic
_space_group_IT_number           2
_space_group_name_Hall           '-P 1'
_space_group_name_H-M_alt        'P -1'
_symmetry_space_group_name_Hall  '-P 1'
_symmetry_space_group_name_H-M   'P -1'
_atom_sites_solution_hydrogens   geom
_audit_creation_method           SHELXL-2013
_cell_angle_alpha                72.133(3)
_cell_angle_beta                 89.023(3)
_cell_angle_gamma                89.009(3)
_cell_formula_units_Z            2
_cell_length_a                   6.0736(2)
_cell_length_b                   10.4912(3)
_cell_length_c                   13.5790(4)
_cell_measurement_reflns_used    12878
_cell_measurement_temperature    293(2)
_cell_measurement_theta_max      73.419
_cell_measurement_theta_min      3.420
_cell_volume                     823.33(5)
_computing_cell_refinement
;
CrysAlisPro, Agilent Technologies,
Version 1.171.37.31f (release 05-03-2014 CrysAlis171 .NET)
(compiled Mar  5 2014,18:34:03)
;
_computing_data_collection
;
CrysAlisPro, Agilent Technologies,
Version 1.171.37.31f (release 05-03-2014 CrysAlis171 .NET)
(compiled Mar  5 2014,18:34:03)
;
_computing_data_reduction
;
CrysAlisPro, Agilent Technologies,
Version 1.171.37.31f (release 05-03-2014 CrysAlis171 .NET)
(compiled Mar  5 2014,18:34:03)
;
_computing_structure_refinement  'SHELXL-2013 (Sheldrick, 2013)'
_computing_structure_solution    'SHELXS-97 (Sheldrick, 1997)'
_diffrn_ambient_temperature      293(2)
_diffrn_detector                 'CCD plate'
_diffrn_detector_area_resol_mean 10.5953
_diffrn_detector_type            Atlas
_diffrn_measured_fraction_theta_full 0.998
_diffrn_measured_fraction_theta_max 0.981
_diffrn_measurement_device_type  'SuperNova, Dual, Cu at zero, Atlas'
_diffrn_measurement_method       'w scans'
_diffrn_radiation_monochromator  mirror
_diffrn_radiation_type           CuK\a
_diffrn_radiation_wavelength     1.5418
_diffrn_reflns_av_R_equivalents  0.0302
_diffrn_reflns_av_unetI/netI     0.0207
_diffrn_reflns_Laue_measured_fraction_full 0.998
_diffrn_reflns_Laue_measured_fraction_max 0.981
_diffrn_reflns_limit_h_max       7
_diffrn_reflns_limit_h_min       -7
_diffrn_reflns_limit_k_max       12
_diffrn_reflns_limit_k_min       -13
_diffrn_reflns_limit_l_max       16
_diffrn_reflns_limit_l_min       -16
_diffrn_reflns_number            12878
_diffrn_reflns_point_group_measured_fraction_full 0.998
_diffrn_reflns_point_group_measured_fraction_max 0.981
_diffrn_reflns_theta_full        67.680
_diffrn_reflns_theta_max         73.419
_diffrn_reflns_theta_min         3.420
_diffrn_source                   'sealed X-ray tube'
_exptl_absorpt_coefficient_mu    24.650
_exptl_absorpt_correction_T_max  1.014
_exptl_absorpt_correction_T_min  0.110
_exptl_absorpt_correction_type   gaussian
_exptl_absorpt_process_details
;
CrysAlisPro, Agilent Technologies,
Version 1.171.35.21 (release 20-01-2012 CrysAlis171 .NET)
(compiled Jan 23 2012,18:06:46)
Numerical absorption correction based on gaussian integration over
            a multifaceted crystal model
;
_exptl_crystal_colour            yellow
_exptl_crystal_density_diffrn    1.950
_exptl_crystal_description       needle
_exptl_crystal_F_000             452
_exptl_crystal_size_max          0.710
_exptl_crystal_size_mid          0.070
_exptl_crystal_size_min          0.040
_refine_diff_density_max         1.327
_refine_diff_density_min         -1.287
_refine_diff_density_rms         0.147
_refine_ls_extinction_method     none
_refine_ls_goodness_of_fit_ref   1.109
_refine_ls_hydrogen_treatment    constr
_refine_ls_matrix_type           full
_refine_ls_number_parameters     226
_refine_ls_number_reflns         3260
_refine_ls_number_restraints     0
_refine_ls_restrained_S_all      1.109
_refine_ls_R_factor_all          0.0286
_refine_ls_R_factor_gt           0.0283
_refine_ls_shift/su_max          0.002
_refine_ls_shift/su_mean         0.000
_refine_ls_structure_factor_coef Fsqd
_refine_ls_weighting_details
'w=1/[\s^2^(Fo^2^)+(0.0463P)^2^+2.2526P] where P=(Fo^2^+2Fc^2^)/3'
_refine_ls_weighting_scheme      calc
_refine_ls_wR_factor_gt          0.0790
_refine_ls_wR_factor_ref         0.0792
_reflns_Friedel_coverage         0.000
_reflns_number_gt                3224
_reflns_number_total             3260
_reflns_threshold_expression     'I > 2\s(I)'
_cod_data_source_file            ic6b02774_si_005.cif
_cod_data_source_block           compound_3
_cod_database_code               4345354
_shelx_space_group_comment
;
The symmetry employed for this shelxl refinement is uniquely defined
by the following loop, which should always be used as a source of
symmetry information in preference to the above space-group names.
They are only intended as comments.
;
_shelx_estimated_absorpt_t_min   0.020
_shelx_estimated_absorpt_t_max   0.439
_shelxl_version_number           2013-4
_shelx_res_file
;
TITL ull2372 in P -1
CELL  1.54180   6.0736  10.4912  13.5790   72.133   89.023   89.009
ZERR     2.00   0.0002   0.0003   0.0004    0.003    0.003    0.003
LATT   1
SFAC  C    H    N    ND   O
UNIT  18   6    6    2    22
MERG   2
FMAP   2
PLAN   20
SIZE     0.040   0.070   0.710
ACTA
BOND
L.S.  40
TEMP    20.00
WGHT    0.046300    2.252600
FVAR       7.63344
ND1   4    0.250943    0.660187    0.708383    11.00000    0.01521    0.02221 =
         0.01184   -0.00287    0.00148    0.00209
N1    3    0.078365    0.886361    0.575396    11.00000    0.02557    0.02682 =
         0.02212   -0.00293    0.00312    0.00000
N2    3    0.433695    0.556799    0.897935    11.00000    0.02953    0.02956 =
         0.01541   -0.00377    0.00249   -0.00146
N3    3    0.090162    0.572568    0.559120    11.00000    0.01446    0.03361 =
         0.01812   -0.00902    0.00140    0.00223
O1    5    0.454052    0.770307    0.546998    11.00000    0.02602    0.03384 =
         0.02412    0.00221    0.00355    0.00316
O3    5    0.063563    0.699512    0.855294    11.00000    0.03141    0.05291 =
         0.01959   -0.01172    0.00002    0.01096
O5    5   -0.151847    0.641262    0.699295    11.00000    0.01797    0.03553 =
         0.02463   -0.01415    0.00330    0.00111
O2    5    0.503895    0.912307    0.389732    11.00000    0.04017    0.03921 =
         0.03153    0.00414    0.01626    0.00891
O4    5   -0.001248    0.680485    1.020052    11.00000    0.04919    0.06446 =
         0.02226   -0.00836    0.00849    0.01985
O6    5   -0.440213    0.524246    0.675842    11.00000    0.01953    0.02984 =
         0.02395   -0.00809    0.00609    0.00147
O1W   5    0.155719    0.418454    0.781980    11.00000    0.04055    0.02918 =
         0.02606   -0.00459    0.00967   -0.00570
O2W   5    0.439411    0.844034    0.746550    11.00000    0.05254    0.03315 =
         0.03051   -0.00455   -0.00076   -0.01029
O3W   5    0.622298    0.839246    0.929975    11.00000    0.10847    0.08685 =
         0.11004   -0.04902   -0.05801    0.03837
O4W   5    0.185214    0.224364    0.691611    11.00000    0.37042    0.09723 =
         0.36166   -0.13317    0.29294   -0.08539
O5W   5    0.013259    0.013046    0.836681    10.50000    0.15458    0.10395 =
         0.18882    0.00071    0.08058   -0.03464
O6W   5   -0.363814    0.155661    0.877175    10.50000    0.18870    0.32378 =
         0.63353   -0.39486    0.08177   -0.07389
C1    1    0.399681    0.868980    0.472288    11.00000    0.02293    0.02612 =
         0.02372   -0.00470    0.00162    0.00015
C2    1    0.187107    0.939259    0.486152    11.00000    0.02462    0.02827 =
         0.02213   -0.00529    0.00223    0.00045
C3    1   -0.108379    0.947190    0.589267    11.00000    0.02664    0.03149 =
         0.02322    0.00031    0.00633    0.00321
AFIX  43
H3    2   -0.188124    0.913251    0.650583    11.00000   -1.20000
AFIX   0
C4    1    0.109752    0.657957    0.949848    11.00000    0.02768    0.03253 =
         0.02021   -0.00660    0.00514   -0.00127
C5    1    0.316693    0.574177    0.976955    11.00000    0.02627    0.02699 =
         0.01841   -0.00545    0.00243   -0.00450
C6    1    0.616971    0.481793    0.921293    11.00000    0.03003    0.03540 =
         0.01456   -0.00462    0.00329    0.00353
AFIX  43
H6    2    0.701945    0.466757    0.868218    11.00000   -1.20000
AFIX   0
C7    1   -0.245996    0.568086    0.657052    11.00000    0.01390    0.02557 =
         0.01487   -0.00236    0.00273    0.00463
C8    1   -0.115886    0.529021    0.574408    11.00000    0.01679    0.02899 =
         0.01433   -0.00563    0.00106    0.00366
C9    1   -0.206467    0.456127    0.515594    11.00000    0.01692    0.03575 =
         0.01953   -0.00928    0.00345    0.00057
AFIX  43
H9    2   -0.350814    0.426851    0.528605    11.00000   -1.20000
AFIX   0
HKLF    4

REM  ull2372 in P -1
REM R1 =  0.0283 for    3224 Fo > 4sig(Fo)  and  0.0286 for all    3260 data
REM    226 parameters refined using      0 restraints

END

WGHT      0.0462      2.2549

REM Highest difference peak  1.327,  deepest hole -1.287,  1-sigma level  0.147
Q1    1   0.1484  0.2415  0.6664  11.00000  0.05    1.33
Q2    1   0.3871  0.1962  0.7713  11.00000  0.05    0.98
Q3    1  -0.1067  0.1026  0.8444  11.00000  0.05    0.83
Q4    1  -0.3193  0.2357  0.7644  11.00000  0.05    0.79
Q5    1  -0.0261  0.0583  0.9001  11.00000  0.05    0.71
Q6    1   0.0705  0.3823  0.8383  11.00000  0.05    0.64
Q7    1  -0.3116  0.0641  0.9752  11.00000  0.05    0.64
Q8    1   0.1673  0.3549  0.7543  11.00000  0.05    0.59
Q9    1  -0.4125  0.2210  0.7657  11.00000  0.05    0.54
Q10   1  -0.2020  0.1250  0.7872  11.00000  0.05    0.53
Q11   1   0.4708  0.9168  0.7151  11.00000  0.05    0.51
Q12   1   0.1054  0.0018  0.8647  11.00000  0.05    0.50
Q13   1   0.4934  0.8500  0.8012  11.00000  0.05    0.50
Q14   1  -0.6278  0.0988  0.9247  11.00000  0.05    0.48
Q15   1   0.0283  0.0008  0.8189  11.00000  0.05    0.48
Q16   1  -0.4209  0.2197  0.8730  11.00000  0.05    0.46
Q17   1   0.1156 -0.0009  0.9449  11.00000  0.05    0.44
Q18   1  -0.4710  0.1096  0.8874  11.00000  0.05    0.43
Q19   1  -0.5222  0.1966  0.8951  11.00000  0.05    0.37
Q20   1  -0.1449 -0.0310  0.8374  11.00000  0.05    0.36
;
_shelx_res_checksum              9224
_shelx_hkl_file
;
   0   0   1 127485. 2073.80   3
   0   0  -1 131478. 1923.01   1
   0   0   2 125496. 2373.92   3
   0   0  -2 124645. 2116.89   1
   0   0   3 288746. 4978.66   3
   0   0  -3 299367. 4618.37   1
   0   0  -4 184905. 3478.75   1
   0   0   4 197797. 4000.79   3
   0   0   5 546390. 9249.18  23
   0   0   5 537487. 9160.89   3
   0   0  -5 556867. 9856.54  21
   0   0   5 535156. 9444.49  26
   0   0  -5 527248. 8316.86   1
   0   0   6 5183.95 699.576  23
   0   0  -6 5682.81 854.916  21
   0   0   6 5398.62 726.223   3
   0   0   6 5189.15 759.984  26
   0   0  -6 4849.86 486.235   1
   0   0  -7 433005. 9945.40  21
   0   0   7 404003. 8845.07  23
   0   0  -8 139932. 5707.68  21
   0   0   8 123209. 4729.77  23
   0   0   9 66615.6 3753.13  23
   0   0   9 67682.9 3621.77   2
   0   0   9 68760.6 3000.83  20
   0   0  -9 71223.3 4513.26  21
   0   0  10 154989. 6208.33   2
   0   0  10 151801. 3674.42  38
   0   0 -10 149728. 3981.74  34
   0   0 -10 164051. 4034.05  27
   0   0  10 150515. 3463.84  43
   0   0  10 150314. 6416.70  23
   0   0 -10 156186. 7489.65  21
   0   0 -10 151479. 4313.27  45
   0   0 -10 151589. 3486.78  47
   0   0 -11 1085.52 819.911  21
   0   0 -11 2142.73 556.880  45
   0   0 -11 1854.16 444.784  34
   0   0  11 1248.02 756.122  23
   0   0 -11 2652.02 425.725  47
   0   0 -11 1550.78 409.615  27
   0   0  11 2336.12 439.494  38
   0   0  12 134124. 3707.91  38
   0   0 -12 128527. 4077.06  34
   0   0  12 132805. 3724.76  46
   0   0 -12 139085. 3444.34  47
   0   0 -12 149018. 4465.84  45
   0   0 -12 136482. 4074.95  27
   0   0 -12 133734. 7586.39  21
   0   0  13 10798.4 994.876  46
   0   0  13 10654.7 979.819  38
   0   0  13 10958.2 943.743  50
   0   0 -13 12894.3 1176.91  45
   0   0 -13 9311.49 1961.95  21
   0   0 -14 99266.2 3087.89  45
   0   0  14 95755.6 2919.15  38
   0   0  14 97744.2 2833.45  50
   0   0  14 94967.0 2944.92  46
   0   0  15 56041.5 1917.15  38
   0   0  15 54514.4 1922.37  46
   0   0 -16 31792.4 1108.84  37
   1   0 -15 54299.2 1849.22  37
  -1   0  15 50079.1 1834.22  38
   1   0 -15 48615.6 1680.32  45
  -1   0  14 11350.7 934.809  46
  -1   0  14 12277.8 1022.12  38
  -1   0  14 13255.6 867.300  41
   1   0 -14 13944.2 1055.51  45
   1   0 -13 122547. 6579.73  21
  -1   0  13 124479. 3636.93  46
   1   0 -13 135798. 3902.94  45
   1   0 -13 122111. 3662.99  34
   1   0 -13 125853. 3614.50  27
  -1   0  13 125628. 3711.66  38
  -1   0  13 124303. 3326.09  41
  -1   0  12 5291.11 1369.10  17
   1   0 -12 5293.40 1477.52  21
  -1   0  12 4666.93 668.226  46
  -1   0  12 5247.73 735.713  38
   1   0 -12 6104.71 759.270  27
   1   0 -12 5525.66 722.231  34
   1   0 -12 5011.64 733.345  45
   1   0 -11 275880. 5795.78  27
   1   0 -11 279567. 6084.78  45
   1   0 -11 276889. 10107.9  21
  -1   0  11 277054. 5910.84  38
  -1   0  11 269152. 5804.11  46
   1   0 -11 270333. 5806.81  34
   1   0 -10 19679.1 1188.44  34
  -1   0  10 20727.5 1214.87  46
  -1   0  10 18112.4 2386.98   2
   1   0 -10 20692.9 2472.44  21
   1   0 -10 19054.4 1224.55  45
  -1   0  10 19800.8 1239.17  38
   1   0 -10 19156.6 1162.07  27
  -1   0   9 102113. 5421.83   2
   1   0  -9 95328.5 2648.31  45
   1   0  -9 107443. 5167.38  21
   1   0  -9 103310. 2648.36  27
   1   0  -9 100290. 2629.37  34
  -1   0   9 95310.5 2706.07  38
  -1   0   8 377862. 10593.1   2
   1   0  -8 387715. 9722.66  21
   1   0  -7 28378.9 1761.26   4
  -1   0   7 28574.9 2438.67   2
   1   0  -7 29915.3 2098.20  21
  -1   0   7 25809.2 2027.68  23
  -1   0   6 409658. 9693.84   2
   1   0  -6 406684. 8387.24  21
  -1   0   5 1981.38 442.049  23
   1   0  -5 2141.16 456.378  21
   1   0  -5 2168.72 172.558  12
  -1   0   5 1436.94 552.519   2
   1   0  -4 204849. 3956.36   8
  -1   0   4 211482. 5703.31   2
  -1   0   3 319193. 7192.67   2
   1   0  -3 330254. 5525.53   8
   1   0  -3 337088. 4672.29  15
   1   0  -2 83387.1 1925.07   6
  -1   0   2 82890.0 3002.36   2
   1   0  -1 515989. 6902.95   6
  -1   0   1 524666. 7344.76   1
  -1   0   0 357.420 126.665   1
   1   0   0 2589.72 168.152   6
  -1   0  -1 508579. 7725.30   1
  -1   0  -1 487430. 7030.32   5
  -1   0  -2 32217.1 1308.30   1
   1   0   2 32890.8 846.392   4
   1   0   3 553265. 8456.82   9
   1   0   3 534843. 8498.86   3
   1   0   4 223533. 4461.93  16
  -1   0  -4 234605. 4985.37   1
   1   0   4 237031. 3417.90  13
   1   0   4 233482. 4723.38   3
  -1   0  -4 247575. 5940.38  21
   1   0   5 267555. 3843.98  13
  -1   0  -5 271684. 7167.16  21
   1   0   5 262447. 5614.87  26
   1   0   5 259853. 5405.12   3
  -1   0  -5 253763. 5585.20   1
   1   0   6 148983. 4331.14  26
   1   0   6 157443. 4086.82   3
  -1   0  -6 150288. 4145.03   1
  -1   0  -6 158280. 5778.25  21
   1   0   7 86799.1 3448.59  23
   1   0   7 83738.6 3441.86  26
  -1   0  -7 86368.3 3090.30   1
  -1   0  -7 87687.3 4641.11  21
   1   0   7 87072.5 3131.86   3
   1   0   8 222598. 6617.86  26
  -1   0  -8 235702. 8772.03  21
   1   0   8 224478. 6563.75  23
   1   0   8 229911. 5975.33   3
   1   0   9 94296.5 3901.95   3
   1   0   9 88938.9 4289.36  23
  -1   0  -9 93444.2 2317.57  48
  -1   0  -9 88844.5 5749.25  21
  -1   0  -9 95815.5 2956.60  27
  -1   0 -10 20376.7 2961.41  21
   1   0  10 20787.2 2227.83  23
  -1   0 -10 23298.0 1298.90  47
   1   0  10 22177.4 1190.63  38
  -1   0 -10 26148.7 1866.84  45
  -1   0 -10 25648.9 1195.20  48
   1   0  11 86853.0 4950.34  23
   1   0  11 86565.0 2656.79  38
  -1   0 -11 74492.2 6032.92  21
  -1   0 -11 87121.8 2786.42  47
   1   0  11 77345.6 3919.24  20
   1   0  12 4273.62 1198.59  23
  -1   0 -12 4874.78 800.944  45
  -1   0 -12 3804.22 571.241  47
   1   0  12 4538.17 600.956  38
  -1   0 -12 5630.87 953.351  37
  -1   0 -13 222230. 4993.09  47
   1   0  13 235723. 5266.97  46
   1   0  13 227186. 4975.62  38
  -1   0 -13 231570. 5603.95  45
   1   0  14 116993. 3168.13  50
   1   0  14 124103. 3361.59  46
   1   0  14 122737. 3166.54  38
  -1   0 -14 115362. 3197.00  45
   1   0  15 16859.9 894.992  38
  -1   0 -15 17983.3 1096.54  37
   1   0  15 17509.0 1023.78  46
   1   0  15 16999.6 932.175  50
  -2   0  15 53794.3 1791.72  38
   2   0 -15 51760.6 1571.60  45
  -2   0  14 114283. 3268.85  38
  -2   0  14 104537. 2790.94  41
   2   0 -14 114776. 3057.66  45
   2   0 -14 112582. 3036.00  34
  -2   0  13 2712.96 600.605  38
   2   0 -13 2070.26 481.136  34
  -2   0  13 2233.06 464.318  41
   2   0 -13 2519.82 454.140  27
   2   0 -13 2677.64 524.007  45
  -2   0  12 190716. 8219.41  17
   2   0 -12 196954. 4685.98  34
   2   0 -12 197824. 4563.07  27
  -2   0  12 203521. 4842.46  41
   2   0 -12 192346. 7970.47  21
   2   0 -12 210691. 4872.40  45
  -2   0  12 207411. 5243.81  38
   2   0 -11 1559.25 383.464  27
  -2   0  11 1936.50 998.695  17
   2   0 -11 2380.89 480.755  34
   2   0 -11 1970.49 891.488  21
  -2   0  11 1668.82 467.099  38
   2   0 -11 2769.27 487.213  45
  -2   0  11 1646.59 477.946  41
   2   0 -10 202289. 4361.95  34
  -2   0  10 197442. 8356.47  17
   2   0 -10 192325. 4235.16  27
   2   0 -10 196745. 7514.20  21
   2   0 -10 192474. 4284.89  45
  -2   0  10 201170. 4903.73  38
   2   0  -9 138085. 3154.05  28
   2   0  -9 143207. 3281.74  34
  -2   0   9 139471. 3723.98  38
  -2   0   9 141911. 3208.57  54
  -2   0   9 137988. 6597.06  17
   2   0  -9 137528. 3213.99  45
   2   0  -9 138702. 5786.34  21
  -2   0   9 148555. 8381.13   2
   2   0  -8 106961. 4494.18   4
   2   0  -8 111157. 4700.39  21
  -2   0   8 113469. 7121.44   2
   2   0  -7 214486. 6278.95  21
   2   0  -7 204116. 6400.57   4
   2   0  -7 207782. 3503.69  12
   2   0  -6 51619.4 2651.43  21
   2   0  -6 47859.5 1276.17  12
  -2   0   6 52069.9 4460.65   2
  -2   0   5 464974. 13966.9   2
   2   0  -5 532149. 9217.81   8
   2   0  -4 230261. 5138.55   8
   2   0  -4 235215. 3593.17  15
  -2   0   4 220466. 6079.26  17
   2   0  -4 229060. 5627.00  22
   2   0  -3 394139. 7979.33  22
   2   0  -3 400236. 5562.33  15
  -2   0   2 246489. 5199.39   1
  -2   0   2 232942. 5536.45  17
   2   0  -2 244013. 3606.26  15
   2   0  -2 244811. 5888.04  22
   2   0  -1 11507.3 424.812  15
   2   0  -1 10566.2 490.856   6
  -2   0   1 11289.9 1172.05   7
   2   0  -1 10626.0 587.437  10
  -2   0   1 11157.1 946.561  17
  -2   0   1 11073.9 891.331   1
  -2   0   0 139596. 3679.28   1
   2   0   0 146385. 2297.29   6
  -2   0   0 141949. 4391.68   7
  -2   0  -1 94161.6 3524.95   7
   2   0   1 91811.5 1923.64   6
  -2   0  -1 94097.4 2998.21   1
  -2   0  -2 700522. 9718.12   5
  -2   0  -2 674716. 13055.1   7
   2   0   2 679857. 10792.5   4
   2   0   3 122987. 2772.62   4
  -2   0  -3 124317. 4863.21   7
  -2   0  -3 120295. 3809.92   1
  -2   0  -3 129742. 3152.15   5
  -2   0  -4 175983. 6638.86   7
   2   0   4 185332. 4515.83   9
   2   0   4 177268. 4521.99   3
  -2   0  -4 187595. 5143.86   1
   2   0   4 188596. 3194.12  11
   2   0   5 404935. 7967.26   9
   2   0   5 434031. 8141.94   3
   2   0   5 400832. 5946.63  13
   2   0   5 424680. 7701.32  16
   2   0   6 1423.81 451.388   3
  -2   0  -6 946.895 416.264   1
   2   0   6 1565.33 453.906  26
   2   0   6 1334.00 178.489  13
   2   0   6 1244.32 336.667  16
  -2   0  -7 73934.8 3455.23   1
   2   0   7 76786.5 3387.36  26
   2   0   7 75668.4 3012.21   3
   2   0   8 20436.5 1596.77   3
   2   0   8 20903.8 1895.47  26
   2   0   8 20422.4 1892.03  23
  -2   0  -8 21367.3 1854.34   1
   2   0   9 132370. 4618.67   3
  -2   0  -9 132101. 3528.82  47
   2   0   9 132434. 5352.20  26
   2   0   9 131946. 5478.74  23
  -2   0  -9 132536. 2954.76  48
  -2   0 -10 162161. 4178.15  47
   2   0  10 162985. 5512.66   3
  -2   0 -10 161481. 3541.54  48
   2   0  10 163815. 6499.02  23
   2   0  11 29605.9 1383.24  38
   2   0  11 30174.0 2559.78  20
  -2   0 -11 29079.5 2245.29  37
  -2   0 -11 32636.5 2057.68  45
  -2   0 -11 30616.0 1688.44  47
   2   0  11 31134.3 2866.92  23
  -2   0 -12 109215. 3377.02  47
   2   0  12 106611. 2882.84  38
  -2   0 -12 106772. 3580.16  45
  -2   0 -12 109469. 4184.02  37
   2   0  12 102625. 4770.26  20
   2   0  12 99405.1 5346.96  23
   2   0  13 14510.3 1068.81  46
   2   0  13 14047.0 894.876  38
   2   0  13 12411.3 1791.99  23
  -2   0 -13 15268.7 1397.18  37
  -2   0 -14 114460. 3456.35  37
   2   0  14 107587. 2937.34  46
   2   0  15 42517.1 1457.62  50
   2   0  15 43424.8 1518.57  46
  -3   0  14 27976.4 1357.31  38
   3   0 -14 28803.6 1222.02  45
   3   0 -14 28415.6 1224.99  34
  -3   0  13 85503.2 2663.32  41
   3   0 -13 82093.2 2233.09  27
   3   0 -13 83656.8 2486.46  34
   3   0 -13 91720.8 2620.46  45
  -3   0  13 83429.8 2933.93  38
  -3   0  12 561.835 327.736  41
   3   0 -12 1230.00 420.915  45
  -3   0  12 998.584 451.253  38
   3   0 -12 666.874 252.602  27
   3   0 -12 1192.55 387.408  34
  -3   0  11 240269. 5979.93  38
  -3   0  11 234379. 5609.62  41
   3   0 -11 229023. 4859.10  34
   3   0 -11 226824. 4833.48  45
   3   0 -11 223626. 4669.17  27
  -3   0  11 232061. 4656.68  54
   3   0 -11 213062. 7769.15  21
  -3   0  11 228964. 9653.43  17
   3   0 -10 68265.1 4100.95  21
  -3   0  10 72824.1 2823.76  41
  -3   0  10 69878.7 2299.73  54
   3   0 -10 71014.3 2284.05  34
   3   0 -10 70659.0 2244.51  45
  -3   0  10 70604.2 5254.31  17
  -3   0  10 73038.0 2988.54  38
   3   0  -9 175154. 6498.07  21
   3   0  -9 173937. 3660.52  28
  -3   0   9 169968. 4557.47  41
   3   0  -9 172046. 3687.76  45
  -3   0   9 166372. 3940.74  54
  -3   0   9 169733. 4697.22  38
   3   0  -9 176735. 3822.15  34
  -3   0   9 179515. 8357.33  17
  -3   0   8 225025. 9088.74  17
  -3   0   8 212659. 4487.48  31
   3   0  -8 211212. 4261.23  45
  -3   0   8 238592. 16288.6   2
   3   0  -8 225438. 7107.12  21
   3   0  -8 219298. 4151.45  28
   3   0  -8 219994. 7717.87   4
  -3   0   8 229657. 5210.17  41
   3   0  -8 226095. 4367.52  34
  -3   0   8 226892. 5305.48  38
   3   0  -7 41780.0 1361.00  28
   3   0  -7 43515.0 3261.52   4
   3   0  -7 43378.1 1399.74  12
   3   0  -7 42767.5 2778.16  21
  -3   0   7 40712.2 1576.39  31
   3   0  -7 44584.7 1485.48  34
  -3   0   7 37779.4 5867.64   2
  -3   0   7 41947.1 1840.54  38
  -3   0   7 41694.7 1834.83  41
  -3   0   7 45327.6 3763.61  17
   3   0  -6 168861. 6553.51   4
  -3   0   6 171863. 6978.05  17
   3   0  -6 159536. 4892.89   8
   3   0  -6 164743. 3276.46  12
  -3   0   5 16635.1 1934.70  17
  -3   0   5 20385.2 2759.95   7
   3   0  -5 17396.1 1482.23   8
  -3   0   4 412480. 12291.5   7
   3   0  -4 380149. 9027.06  22
   3   0  -4 386814. 8564.02   8
   3   0  -4 420137. 6056.09  15
  -3   0   4 383603. 9999.36  17
  -3   0   3 215809. 7870.78   7
   3   0  -3 207075. 3350.81  15
   3   0  -3 204689. 5617.61   8
   3   0  -3 203931. 6095.38  22
  -3   0   3 195906. 6298.71  17
  -3   0   2 58865.3 3738.68   7
   3   0  -2 56889.6 3102.79  22
   3   0  -2 57608.5 1309.49  15
   3   0  -1 650667. 10109.7  10
  -3   0   1 629631. 11945.1   1
   3   0  -1 663422. 9099.32  15
   3   0   0 55847.3 2015.82  10
  -3   0   0 50475.7 2566.86   1
  -3   0   0 52382.9 3288.32   7
   3   0   1 26747.6 1774.01   4
  -3   0  -1 28434.1 2405.74   7
  -3   0  -1 27249.3 1909.00   1
   3   0   2 210954. 5314.80   4
  -3   0  -2 215692. 7281.63   7
  -3   0  -2 215386. 6146.26   1
  -3   0  -3 261488. 7181.84   1
  -3   0  -3 263586. 8579.35   7
  -3   0  -4 366101. 11212.2   7
  -3   0  -4 380774. 9396.08   1
   3   0   4 390684. 8323.57   9
   3   0   4 374766. 8357.72   3
  -3   0  -5 5542.85 1047.57   1
   3   0   5 4728.11 386.522  13
   3   0   5 4885.38 740.531   9
   3   0   5 4430.99 770.965   3
   3   0   6 213988. 3577.14  13
  -3   0  -6 212923. 7000.67   1
   3   0   6 212952. 5817.33   3
   3   0   7 12374.9 561.099  13
  -3   0  -7 12594.5 1676.53  37
   3   0   7 10155.5 1187.42   3
  -3   0  -7 11412.5 917.403  47
   3   0   7 10949.3 1315.72  26
  -3   0  -7 10102.8 1481.02   1
  -3   0  -8 142922. 3189.88  35
  -3   0  -8 138477. 5727.79   1
   3   0   8 145100. 4821.57   3
  -3   0  -8 146448. 3924.28  47
  -3   0  -8 146726. 3108.84  48
   3   0   8 148139. 5419.07  26
   3   0   8 158154. 5782.90  23
  -3   0  -9 160949. 4266.02  47
  -3   0  -9 154609. 3338.69  48
   3   0   9 161933. 6187.72  23
   3   0   9 155304. 5100.74   3
   3   0   9 163000. 5989.28  26
  -3   0 -10 34374.0 1391.73  48
   3   0  10 33153.8 2809.40  23
  -3   0 -10 35017.7 1898.49  47
   3   0  11 117262. 5524.00  23
   3   0  11 125023. 5446.39  20
   3   0  12 3143.74 844.155  23
  -3   0 -12 4004.69 912.130  37
  -3   0 -13 82671.0 3113.06  37
   3   0  13 79824.8 2357.46  46
  -3   0 -14 21269.7 1225.59  37
   3   0  14 18841.3 937.237  46
   4   0 -13 4747.75 469.007  45
   4   0 -13 4372.51 437.928  34
   4   0 -12 82760.6 2293.16  45
  -4   0  12 76136.0 1973.57  54
  -4   0  12 77972.1 2797.88  38
   4   0 -12 80529.1 2240.27  34
  -4   0  11 15875.4 1274.83  41
   4   0 -11 14817.7 940.923  34
  -4   0  11 14574.9 903.268  54
   4   0 -11 14093.6 789.861  27
   4   0 -11 13942.6 910.183  45
  -4   0  11 15443.3 1394.53  38
  -4   0  10 90180.6 2669.50  54
  -4   0  10 91644.5 3748.20  38
   4   0 -10 95617.8 2604.19  34
  -4   0  10 97882.7 3448.80  41
   4   0 -10 93724.9 2372.84  27
   4   0 -10 86942.4 4277.88  21
   4   0 -10 94783.0 2579.58  45
  -4   0   9 100021. 4022.60  38
   4   0  -9 89119.0 4386.72  21
   4   0  -9 98412.8 2637.38  34
   4   0  -9 96744.4 2585.65  45
  -4   0   9 98510.7 2881.37  54
  -4   0   9 102335. 3580.82  41
   4   0  -9 96258.5 2414.06  28
  -4   0   8 23112.7 1867.83  38
   4   0  -8 21981.1 1018.63  28
   4   0  -8 22548.3 1016.49  12
   4   0  -8 23112.5 1137.35  34
  -4   0   8 21228.7 1268.65  54
   4   0  -8 22405.6 2107.36  21
   4   0  -8 22600.9 1142.68  45
  -4   0   8 23113.2 1619.32  41
   4   0  -7 68924.7 3734.84  21
   4   0  -7 68924.7 1894.82  28
   4   0  -7 70120.6 2075.17  34
  -4   0   7 73124.5 2835.63  41
  -4   0   7 70655.2 2399.16  54
   4   0  -7 67863.4 2022.94  12
   4   0  -6 38555.0 1492.80  12
  -4   0   6 32280.0 1326.57  53
  -4   0   6 34865.0 1819.93  41
  -4   0   6 37118.2 4861.39   7
   4   0  -6 35709.7 1266.30  28
   4   0  -6 35118.6 2424.80   8
   4   0  -6 39533.1 3444.90   4
   4   0  -5 133852. 5042.79   8
   4   0  -5 143073. 6645.57   4
  -4   0   5 142779. 3765.75  41
  -4   0   5 155352. 9154.10   7
  -4   0   5 142321. 3229.30  53
   4   0  -4 31045.8 2328.20   8
  -4   0   4 31244.6 3741.17   7
  -4   0   4 33458.9 1573.35  41
   4   0  -4 31160.0 2935.86   4
   4   0  -4 34791.6 2530.21  22
  -4   0   4 37160.6 1430.41  53
   4   0  -3 118875. 4728.94   8
   4   0  -3 121565. 5682.83   4
  -4   0   3 126199. 7137.64   7
   4   0  -3 124187. 5118.67  22
   4   0  -2 153063. 6114.48   4
   4   0  -2 156919. 6040.50  22
   4   0  -2 154142. 5465.06   8
  -4   0   2 149543. 7471.93   7
   4   0  -1 32257.0 2589.78   4
   4   0  -1 34964.5 2886.29  22
  -4   0   1 31973.5 3231.42   7
  -4   0   0 137216. 5370.95   1
   4   0   0 131047. 5144.10   4
  -4   0   0 146077. 6897.55   7
   4   0   1 7229.90 865.911  10
   4   0   1 5554.34 975.689   4
  -4   0  -1 4209.28 1300.09   7
  -4   0  -1 4090.24 898.962   1
  -4   0  -2 257606. 7994.85   1
   4   0   2 275733. 6726.09  10
  -4   0  -2 276904. 9993.29   7
   4   0   3 193003. 6184.06   3
  -4   0  -3 199399. 8652.93   7
  -4   0  -3 191999. 6875.96   1
  -4   0  -4 74016.9 5395.90   7
   4   0   4 69297.5 3462.03   3
  -4   0  -4 67984.5 4067.57   1
  -4   0  -4 69433.9 2149.76  35
  -4   0  -4 74793.4 3078.52  37
   4   0   5 191517. 3730.06  13
   4   0   5 186941. 5859.76   3
  -4   0  -5 196129. 4155.96  35
  -4   0  -5 204873. 5912.52  37
  -4   0  -5 186362. 7189.59   1
   4   0   6 4589.91 398.260  13
  -4   0  -6 4678.70 547.236  35
   4   0   6 5103.71 876.303   3
  -4   0  -6 5424.23 1001.97  37
  -4   0  -6 4129.48 1004.62   1
  -4   0  -7 282885. 8942.07  37
  -4   0  -7 286009. 9206.14   1
  -4   0  -7 269050. 5345.54  35
   4   0   7 279249. 7237.78   3
   4   0   7 296222. 8030.38  23
   4   0   8 3319.99 871.826  23
  -4   0  -8 2962.77 1056.77  37
  -4   0  -8 4733.25 451.436  48
  -4   0  -8 4327.92 523.086  35
  -4   0  -9 62105.7 1793.90  48
   4   0   9 60111.0 3534.48  23
  -4   0 -10 97874.5 2345.15  48
   4   0  10 92310.7 4448.65  23
   4   0  10 98758.1 4675.32  20
  -4   0 -11 13724.2 1540.74  37
  -4   0 -12 126273. 4020.60  37
  -4   0 -13 3968.97 542.315  37
   5   0 -11 66879.7 1786.46  34
   5   0 -11 71484.2 1894.73  45
  -5   0  11 68912.2 1826.36  54
   5   0 -10 53727.4 1672.69  45
   5   0 -10 51084.8 1621.68  34
  -5   0  10 55312.0 1786.62  54
   5   0  -9 74956.3 2076.90  45
  -5   0   9 71864.9 2277.48  54
   5   0  -9 74936.2 2067.28  34
  -5   0   8 95145.7 2791.25  54
   5   0  -8 94705.9 2449.63  45
   5   0  -8 92984.2 2400.81  34
   5   0  -7 32424.3 1293.21  34
   5   0  -7 30034.6 1255.99  12
  -5   0   7 27713.7 1451.83  54
   5   0  -6 362584. 6444.19  12
  -5   0   6 353631. 6286.81  53
   5   0  -6 376953. 6226.85  34
   5   0  -6 359981. 9082.73  21
  -5   0   6 356938. 6800.21  54
  -5   0   5 94835.2 2615.15  53
  -5   0   5 93124.2 2784.43  54
   5   0  -5 92877.0 2681.66  12
   5   0  -4 49069.3 1863.61  12
  -5   0   4 43670.2 1791.15  54
  -5   0   4 44880.1 1747.68  53
   5   0  -3 30221.5 1464.45  12
   5   0  -3 29919.7 2495.69   8
  -5   0   3 34976.1 1527.27  53
   5   0  -3 30000.4 2466.78  22
  -5   0   3 33479.3 1483.19  54
   5   0  -2 36441.8 3116.63   4
  -5   0   2 36414.6 1573.32  53
  -5   0   2 39389.3 1696.65  32
  -5   0   2 35304.5 1449.71  54
  -5   0   2 41533.6 4521.08   7
   5   0  -2 41167.4 3032.54  22
   5   0  -2 38903.6 2900.36   8
   5   0  -1 181402. 7089.17  22
  -5   0   1 179686. 3907.79  53
  -5   0   1 172058. 4036.45  32
   5   0  -1 174599. 6451.62   8
  -5   0   1 173002. 9158.88   7
   5   0   0 1441.87 539.829   8
  -5   0   0 1316.21 299.376  32
  -5   0   0 782.032 279.508  53
  -5   0  -1 244917. 5051.14  32
   5   0   1 252770. 7881.37   8
  -5   0  -1 247742. 10888.8   7
   5   0   1 264211. 9856.34  22
  -5   0  -1 237851. 4728.99  53
  -5   0  -1 248816. 5963.51  37
   5   0   2 29911.6 2528.76   8
  -5   0  -2 35612.3 2089.31  37
  -5   0  -2 34556.0 3971.16   7
  -5   0  -2 35600.9 1377.05  53
  -5   0  -2 31453.5 2987.55   1
  -5   0  -2 32945.0 1521.19  32
  -5   0  -3 56547.6 1748.83  53
  -5   0  -3 59514.1 2115.99  32
   5   0   3 63479.6 3569.31   8
  -5   0  -3 64837.0 3013.68  37
  -5   0  -4 130640. 2786.25  53
   5   0   4 122578. 4823.91  10
  -5   0  -4 124987. 3303.58  32
  -5   0  -5 3556.08 826.422  37
   5   0   5 4020.50 892.715  10
  -5   0  -6 165840. 6245.79  37
  -5   0  -7 5004.49 925.609  37
   5   0   7 7244.46 1113.97  20
  -5   0  -7 6698.70 635.616  32
  -5   0  -8 144145. 3249.59  32
   5   0   8 141511. 5164.79  20
  -5   0  -9 61980.7 1760.74  32
  -5   0  -9 45500.8 3328.82  37
  -5   0 -10 22015.6 830.337  32
  -5   0 -10 17331.8 1670.42  37
  -5   0 -11 74340.8 2758.26  37
  -5   0 -12 584.273 214.910  37
   6   0  -9 44013.5 1303.37  45
  -6   0   9 47273.4 1459.27  54
  -6   0   8 19022.0 973.144  54
   6   0  -8 20755.6 877.265  45
   6   0  -7 94528.0 2196.51  45
  -6   0   7 89925.2 2426.51  54
  -6   0   6 1636.72 344.584  54
   6   0  -6 1299.32 282.354  45
  -6   0   6 1074.77 232.312  53
  -6   0   5 185403. 3949.08  54
  -6   0   5 183791. 3696.28  53
  -6   0   4 10238.3 735.247  53
  -6   0   4 11408.7 801.574  54
  -6   0   3 35571.3 1386.04  54
  -6   0   3 37091.4 1504.98  53
   6   0  -2 91932.8 2561.72  12
  -6   0   2 98851.8 2643.42  53
  -6   0   1 19999.9 1097.22  53
   6   0  -1 21385.7 1123.66  12
   6   0   0 146306. 3418.56  12
  -6   0   0 165633. 3586.99  53
  -6   0  -1 18056.9 1233.83  32
  -6   0  -1 16051.0 905.166  53
  -6   0  -2 70422.5 2451.45  32
  -6   0  -2 58148.2 1807.38  53
  -6   0  -3 55601.5 1669.36  53
  -6   0  -3 62326.9 2252.00  32
  -6   0  -4 19135.2 1806.80  37
  -6   0  -4 14919.7 750.554  53
  -6   0  -4 17566.6 1117.94  32
  -6   0  -5 66626.6 2215.34  32
  -6   0  -5 65347.3 3475.28  37
  -6   0  -6 2369.03 394.464  32
  -6   0  -6 1915.87 837.129  37
  -6   0  -7 110759. 2582.73  32
  -6   0  -7 80538.5 4614.27  37
  -6   0  -8 37238.5 2550.66  37
  -6   0  -8 56873.1 1538.67  32
  -6   0  -9 9300.77 955.017  37
  -6   0  -9 14707.2 586.931  32
  -7   0   5 838.699 155.156  53
   7   0  -4 81705.6 1662.60  45
  -7   0   4 88681.0 1912.08  53
   7   0  -3 30046.1 889.426  45
  -7   0   3 30838.1 1073.03  53
  -7   0   2 37166.7 1235.57  53
  -7   0   1 80159.7 1951.03  53
  -7   0   0 1386.97 280.889  53
  -7   0  -1 54077.4 1472.96  53
  -7   0  -2 7922.20 501.861  53
  -7   0  -3 84118.2 1835.34  53
  -7  -1  -6 24893.1 1094.79  32
  -7  -1  -5 81217.0 2427.60  32
  -7  -1  -4 14741.2 1191.38  32
  -7  -1  -3 88517.2 1972.05  53
  -7  -1  -3 114121. 3144.70  32
  -7  -1  -2 26487.0 983.372  53
  -7  -1  -1 33393.4 1176.62  53
  -7  -1   0 75051.3 1963.11  53
  -7  -1   1 6804.76 577.819  53
  -7  -1   2 106115. 2520.82  53
  -7  -1   3 15774.3 817.261  53
   7   1  -4 32698.9 1037.19  45
  -7  -1   4 35131.7 1144.20  53
  -6  -1 -10 1126.15 298.285  37
  -6  -1  -9 51495.4 2002.61  37
  -6  -1  -9 55449.3 1493.92  32
  -6  -1  -8 19654.2 1415.18  37
  -6  -1  -8 21551.0 1019.88  32
  -6  -1  -7 30713.6 1880.02  37
  -6  -1  -7 28577.6 1333.98  32
  -6  -1  -6 40498.9 2182.47  37
  -6  -1  -6 39191.1 1716.76  32
  -6  -1  -5 10825.4 960.517  32
  -6  -1  -5 11578.0 1191.78  37
  -6  -1  -4 67761.7 2823.22  37
  -6  -1  -4 63221.5 2406.09  32
  -6  -1  -3 1296.56 406.774  32
  -6  -1  -3 1201.21 273.615  53
   6   1   2 69244.5 2524.82  11
  -6  -1  -2 72988.4 2123.08  53
   6   1   1 52477.9 1655.61  12
  -6  -1  -1 53705.4 1856.85  53
  -6  -1   0 43903.5 1696.81  53
  -6  -1   0 45563.2 2053.53  32
  -6  -1   1 159463. 3785.41  53
   6   1  -1 151871. 3464.60  12
  -6  -1   2 2829.64 422.753  53
  -6  -1   3 67143.8 2165.19  54
  -6  -1   3 67349.0 2248.01  53
  -6  -1   4 47884.9 1817.26  53
  -6  -1   4 46766.6 1821.10  54
  -6  -1   5 106610. 2734.84  53
   6   1  -5 111472. 2545.54  34
   6   1  -6 74287.3 1925.06  34
  -6  -1   6 67677.0 1930.76  53
  -6  -1   6 71941.4 2282.78  54
   6   1  -7 7135.63 527.324  34
   6   1  -7 7742.92 570.317  45
  -6  -1   7 8087.92 704.724  54
   6   1  -8 85131.9 1960.80  45
   6   1  -8 78864.9 1851.38  34
  -6  -1   8 80538.5 2216.52  54
  -6  -1   9 3206.14 342.513  54
   6   1  -9 3368.78 317.727  45
  -5  -1 -12 66280.7 2001.34  37
  -5  -1 -11 4688.24 666.581  37
  -5  -1 -10 79273.6 3093.30  37
  -5  -1 -10 75049.3 1962.93  32
  -5  -1  -9 585.917 501.534  37
  -5  -1  -8 128273. 4543.18  37
   5   1   8 103049. 4255.59  20
  -5  -1  -7 184024. 5447.91  37
   5   1   7 160040. 5440.03  20
   5   1   6 40521.4 1397.92  13
   5   1   6 37059.8 2658.27  10
   5   1   5 109071. 4594.58  10
  -5  -1  -5 119532. 4020.35  37
   5   1   5 109839. 2888.58  13
   5   1   4 142.666 214.921  10
  -5  -1  -4 169.965 130.077  53
  -5  -1  -4 213.547 331.647  37
  -5  -1  -3 130642. 3909.90  37
   5   1   3 114470. 5242.81   3
  -5  -1  -3 118715. 2852.88  53
  -5  -1  -3 122635. 6186.98   1
  -5  -1  -2 62682.9 2083.42  40
  -5  -1  -2 59632.8 1967.08  53
  -5  -1  -2 67604.2 4513.04   1
  -5  -1  -2 65235.9 2337.48  32
   5   1   2 62840.5 1861.66  12
  -5  -1  -2 64364.8 2534.12  37
  -5  -1  -2 67505.4 5634.64   7
  -5  -1  -1 72764.3 2489.76  32
  -5  -1  -1 71982.4 4629.23   1
  -5  -1  -1 76085.1 2347.68  40
  -5  -1  -1 75294.3 2668.22  37
   5   1   1 68692.1 2082.92  12
  -5  -1  -1 71894.9 5901.01   7
  -5  -1  -1 76511.8 2314.27  53
  -5  -1   0 209633. 4486.37  40
  -5  -1   0 207340. 4487.72  53
  -5  -1   0 213117. 4744.72  32
  -5  -1   0 218317. 4960.60  37
   5   1   0 211623. 9359.36  22
  -5  -1   0 198977. 10260.3   7
   5   1   0 218575. 4386.51  12
   5   1  -1 1013.48 525.785   4
   5   1  -1 1318.46 307.920  12
  -5  -1   1 2226.30 422.805  53
  -5  -1   1 1320.13 893.025   7
  -5  -1   1 1690.05 359.607  32
  -5  -1   1 2535.21 429.253  40
   5   1  -1 1078.68 674.690  22
   5   1  -1 746.543 609.199   8
   5   1  -2 135935. 6558.44  22
  -5  -1   2 139376. 3556.87  53
   5   1  -2 142037. 3436.00  12
   5   1  -2 142463. 6068.85   8
   5   1  -3 260.064 407.818   8
  -5  -1   3 839.272 299.536  53
   5   1  -3 1478.76 355.043  12
   5   1  -3 1955.41 818.212  22
  -5  -1   4 201501. 4525.74  53
   5   1  -5 126278. 3118.05  12
  -5  -1   5 118219. 3209.30  53
   5   1  -5 122050. 2936.27  28
  -5  -1   6 59663.6 2021.76  53
   5   1  -6 55208.0 1899.02  34
   5   1  -6 51898.0 1788.18  12
   5   1  -6 54428.9 1743.20  28
   5   1  -6 48527.4 3263.64  21
  -5  -1   6 60678.6 2303.70  54
   5   1  -7 113101. 2850.55  34
  -5  -1   7 112718. 2757.93  53
   5   1  -7 103021. 4636.48  21
   5   1  -7 109254. 2612.02  28
  -5  -1   7 114562. 3316.17  54
   5   1  -8 471.301 204.969  28
  -5  -1   8 5.83455 342.436  54
   5   1  -8 579.694 263.929  34
   5   1  -8 924.767 343.173  45
  -5  -1   9 118441. 3104.76  54
   5   1  -9 123221. 2761.78  45
  -5  -1  10 3166.82 427.729  54
   5   1 -10 4037.74 423.688  45
   5   1 -10 3940.65 446.917  34
  -5  -1  11 49458.8 1385.36  54
   5   1 -11 51340.6 1474.38  34
  -4  -1 -13 44092.0 1826.87  37
  -4  -1 -12 16841.4 1346.59  37
  -4  -1 -11 113315. 4039.92  37
   4   1  11 104388. 4430.22  23
   4   1  10 755.358 539.732  20
  -4  -1 -10-61.7812 426.767  37
   4   1  10-28.5885 268.735  23
  -4  -1 -10-36.6012 144.247  35
  -4  -1  -9 94621.2 2697.28  35
  -4  -1  -9 103060. 4339.96  37
   4   1   9 89062.2 4125.13  23
   4   1   9 95567.4 4528.08  20
  -4  -1  -8 62739.6 3189.85  37
   4   1   8 62441.6 1589.19  13
   4   1   8 57577.2 3127.29  23
   4   1   7 89536.7 4085.18   3
  -4  -1  -7 87804.9 4957.00   1
   4   1   7 92825.2 3828.37  23
  -4  -1  -7 87943.7 2685.65  35
   4   1   7 92735.6 2178.58  13
  -4  -1  -7 100252. 3797.35  37
  -4  -1  -6 155562. 6653.64   1
   4   1   6 142650. 5407.71   3
   4   1   6 150685. 3263.01  13
  -4  -1  -6 158165. 4625.31  37
  -4  -1  -6 146991. 3649.04  35
  -4  -1  -5 51290.6 3681.90   1
   4   1   5 45416.9 3007.52   3
  -4  -1  -5 53433.4 1968.22  35
  -4  -1  -4 331793. 6653.14  37
   4   1   4 313252. 8860.54   3
   4   1   4 323931. 8210.41  10
  -4  -1  -4 304849. 9428.57   1
  -4  -1  -4 316155. 5934.44  35
  -4  -1  -3 59653.0 4666.76   7
   4   1   3 60818.0 3019.25  10
   4   1   3 61274.0 1629.27  12
  -4  -1  -3 58554.4 3679.02   1
  -4  -1  -2 177480. 6499.99   1
   4   1   2 195304. 5429.88  10
   4   1   2 189563. 6023.65   4
  -4  -1  -2 175775. 8074.76   7
  -4  -1  -1 96941.8 5805.72   7
   4   1   1 93495.8 4199.09   4
  -4  -1  -1 93315.6 4460.70   1
   4   1   1 97356.5 3467.54  10
   4   1   0 24203.3 2163.27   4
  -4  -1   0 26207.7 2270.61   1
  -4  -1   0 26766.7 3077.53   7
   4   1  -1 343312. 9454.99   4
  -4  -1   1 361206. 9294.51   1
  -4  -1   1 348097. 12234.0   7
   4   1  -1 335523. 10835.4  22
   4   1  -2 15794.3 2018.20  22
   4   1  -2 15769.9 1886.79   4
  -4  -1   2 19465.5 2867.32   7
  -4  -1   3 244398. 11380.1   7
  -4  -1   3 256525. 5101.76  31
   4   1  -3 252444. 8452.97  22
   4   1  -3 270180. 8814.30   4
   4   1  -3 272520. 5033.48  12
   4   1  -3 254799. 7647.03   8
  -4  -1   4 33272.8 1537.71  31
  -4  -1   4 30370.0 4308.50   7
   4   1  -4 32244.4 2967.85   4
   4   1  -4 32721.7 2780.96  22
   4   1  -4 31961.2 2460.51   8
   4   1  -4 35754.9 1426.90  12
  -4  -1   4 34990.1 1453.70  53
  -4  -1   4 33918.8 1690.18  41
  -4  -1   4 33498.5 1271.17  40
  -4  -1   5 101961. 8974.60   7
   4   1  -5 107701. 4573.29   8
  -4  -1   5 114811. 6680.51  17
  -4  -1   5 122389. 3689.01  41
   4   1  -5 117204. 5889.82   4
   4   1  -5 118062. 2875.72  12
  -4  -1   5 116435. 3264.49  31
  -4  -1   5 114944. 2949.37  53
  -4  -1   6 220037. 4463.88  53
  -4  -1   6 228371. 5007.53  31
  -4  -1   6 196302. 14931.1   7
   4   1  -6 219559. 4309.23  12
  -4  -1   6 228223. 10328.0  17
   4   1  -6 207371. 4252.32  28
  -4  -1   6 229378. 5740.64  41
   4   1  -6 234267. 8573.95   4
   4   1  -7 2281.25 340.488  12
  -4  -1   7 2259.23 1264.95  17
  -4  -1   7 2263.06 625.399  41
   4   1  -7 1533.92 340.009  34
   4   1  -7 1550.90 310.542  28
   4   1  -7 1692.19 723.664  21
   4   1  -8 75822.1 2217.05  28
  -4  -1   8 83879.2 6563.12  17
   4   1  -8 77314.0 2352.65  34
  -4  -1   8 76184.6 2631.93  54
  -4  -1   8 83977.4 3463.97  41
   4   1  -8 71371.4 4062.73  21
   4   1  -8 75856.4 2254.61  45
  -4  -1   9 5088.35 881.621  41
  -4  -1   9 4583.72 1539.15  17
   4   1  -9 5749.84 572.918  28
  -4  -1   9 3328.13 507.507  54
   4   1  -9 5531.56 583.667  45
   4   1  -9 3764.10 942.778  21
   4   1  -9 5909.26 631.533  34
   4   1 -10 84870.3 2486.80  34
  -4  -1  10 85320.5 2595.00  54
  -4  -1  10 93426.7 3598.92  41
   4   1 -10 91057.6 2435.89  45
   4   1 -11 22350.1 1053.38  27
   4   1 -11 23335.9 1110.67  45
  -4  -1  11 20839.0 1057.40  54
   4   1 -11 23337.3 1169.70  34
  -4  -1  11 24241.5 1639.98  41
  -4  -1  12 13127.0 629.716  54
   4   1 -12 12563.8 787.410  34
   4   1 -12 14170.7 799.049  45
   4   1 -12 11118.6 645.472  27
   4   1 -13 54789.2 1490.87  34
   3   1  15 54641.3 1580.88  50
   3   1  14 8805.44 643.863  46
  -3  -1 -14 9066.68 829.601  37
  -3  -1 -13 47982.7 2042.85  45
  -3  -1 -13 50655.8 2376.39  37
   3   1  13 52395.8 1804.37  46
  -3  -1 -12 88095.1 3522.96  37
   3   1  12 88702.8 2564.56  46
   3   1  12 90141.1 4343.64  20
   3   1  12 84882.1 4520.24  23
  -3  -1 -12 87943.3 3441.31  45
  -3  -1 -11 6402.07 1066.34  45
   3   1  11 6140.38 1192.46  20
   3   1  11 5540.45 1189.63  23
  -3  -1 -11 7352.03 1081.02  37
   3   1  10 209651. 7126.42  20
  -3  -1 -10 218075. 7166.06  45
  -3  -1 -10 201299. 3883.98  48
   3   1  10 197787. 6922.46  23
  -3  -1 -10 197192. 4081.05  35
  -3  -1 -10 194375. 6023.02  37
   3   1   9 16036.3 1785.65  23
  -3  -1  -9 19312.6 2094.12   1
   3   1   9 18639.0 1725.20   3
  -3  -1  -9 16064.6 951.116  35
  -3  -1  -9 17356.8 1661.59  37
  -3  -1  -9 14072.0 1989.21  45
  -3  -1  -9 16408.1 817.952  48
   3   1   8 155567. 5279.09   3
   3   1   8 163144. 5182.14  26
  -3  -1  -8 149123. 6131.81   1
  -3  -1  -8 171010. 5226.63  37
  -3  -1  -8 155241. 3498.86  35
   3   1   8 161629. 2975.63  13
   3   1   8 159944. 5524.49  23
  -3  -1  -8 161633. 3077.55  48
  -3  -1  -8 154864. 7242.40  45
   3   1   7 63180.9 3105.01  23
   3   1   7 63306.3 1608.94  13
   3   1   7 59954.1 2770.63  26
  -3  -1  -7 58403.3 3631.97   1
   3   1   7 63264.3 3158.30   3
  -3  -1  -6 137573. 5489.08   1
   3   1   6 136810. 4772.50   3
   3   1   6 132570. 2783.74  13
   3   1   5 275463. 7299.31   3
   3   1   5 273003. 5165.33  11
   3   1   5 274353. 5722.47   9
  -3  -1  -5 283093. 8009.66   1
  -3  -1  -4 10902.1 1387.62   1
  -3  -1  -4 9279.14 1660.05   7
   3   1   4 11412.1 929.705   9
  -3  -1  -3 647340. 12897.0   1
   3   1   3 660204. 11704.0   4
  -3  -1  -2 12217.9 1343.93   1
   3   1   2 11644.3 1141.61   4
  -3  -1  -2 11680.4 1640.35   7
  -3  -1  -1 156429. 4958.66   1
   3   1   1 166394. 4163.29  10
  -3  -1  -1 166273. 6252.60   7
   3   1   1 161969. 4857.15   4
  -3  -1   0 73683.0 3123.36   1
   3   1   0 73968.9 2491.59  10
  -3  -1   0 78820.2 4228.58   7
   3   1   0 80047.0 3379.54   4
  -3  -1   1 69255.3 4125.32   7
  -3  -1   1 63750.3 2830.74   1
   3   1  -1 72273.9 3372.28   4
  -3  -1   2 360281. 8868.29  17
   3   1  -2 389548. 9286.99   4
  -3  -1   2 372134. 11161.2   7
  -3  -1   2 382104. 8042.90   1
   3   1  -2 353393. 9562.40  22
   3   1  -3 40917.3 2799.09  22
  -3  -1   3 46387.6 3936.85   7
   3   1  -3 43460.4 2845.62   4
  -3  -1   3 43966.0 2871.77  17
   3   1  -4 306589. 5129.14  12
  -3  -1   4 308937. 9043.90  17
   3   1  -4 294066. 8203.29  22
  -3  -1   4 308022. 11973.4   7
   3   1  -4 303980. 7455.64   8
   3   1  -4 321879. 8764.03   4
   3   1  -5 37465.1 2781.69   4
   3   1  -5 34073.1 2137.82   8
   3   1  -5 34748.2 1220.84  12
  -3  -1   5 36474.5 3115.97  17
  -3  -1   6 73192.4 4937.02  17
   3   1  -6 70306.6 3974.97   4
   3   1  -6 70755.0 1861.03  12
  -3  -1   6 72556.3 6113.27   2
   3   1  -7 236865. 4617.72  34
   3   1  -7 239725. 4249.53  12
  -3  -1   7 230928. 4851.76  31
   3   1  -7 239302. 4499.56  36
   3   1  -7 229543. 7734.27   4
   3   1  -7 234816. 7584.07  21
  -3  -1   7 249922. 5653.29  38
  -3  -1   7 259279. 12408.1   2
   3   1  -7 226964. 4450.92  28
  -3  -1   7 254150. 5666.26  41
  -3  -1   7 251361. 10084.1  17
  -3  -1   8 26007.0 3317.49  17
   3   1  -8 25227.9 1167.28  45
   3   1  -8 26162.7 1262.37  34
  -3  -1   8 27758.8 1742.06  41
   3   1  -8 21828.0 2185.81   4
  -3  -1   8 27215.5 3910.25   2
   3   1  -8 23164.7 1163.85  28
   3   1  -8 24285.7 2350.84  21
  -3  -1   8 24484.3 1326.26  31
  -3  -1   8 28738.0 1785.01  38
  -3  -1   9 313209. 12276.9  17
  -3  -1   9 305993. 6034.33  54
   3   1  -9 285548. 5590.66  28
   3   1  -9 297935. 5693.46  34
  -3  -1   9 318076. 7084.58  41
   3   1  -9 287892. 9091.69  21
   3   1  -9 307801. 5558.73  45
  -3  -1   9 313912. 7217.67  38
  -3  -1   9 290802. 5869.22  31
  -3  -1  10 107329. 3759.56  41
   3   1 -10 105417. 2792.75  45
   3   1 -10 101774. 2879.23  34
  -3  -1  10 100542. 2918.58  54
   3   1 -10 96024.4 5081.47  21
  -3  -1  10 106530. 7006.19  17
  -3  -1  10 103836. 3868.30  38
  -3  -1  11 65795.4 2833.71  41
   3   1 -11 55351.3 3811.79  21
  -3  -1  11 59645.0 4971.94  17
   3   1 -11 60632.4 2156.64  34
   3   1 -11 58402.2 2084.79  27
  -3  -1  11 60815.1 1980.32  54
   3   1 -11 63694.5 2104.06  45
  -3  -1  11 59496.1 2798.65  38
  -3  -1  12 58348.6 2566.58  38
   3   1 -12 59536.8 2085.07  34
   3   1 -12 64950.8 2080.92  45
  -3  -1  12 62589.9 2572.90  41
   3   1 -12 59394.8 2020.63  27
  -3  -1  13 6037.67 681.116  41
  -3  -1  13 4845.38 637.701  38
   3   1 -13 4368.75 471.793  27
   3   1 -13 5099.98 514.718  45
   3   1 -13 4907.61 536.792  34
   3   1 -14 104466. 2325.77  34
   2   1  15 15908.1 924.577  46
   2   1  15 16474.9 962.101  50
  -2  -1 -15 14618.6 977.033  37
  -2  -1 -14 123857. 3708.45  37
   2   1  14 130190. 3287.39  46
  -2  -1 -14 118953. 3496.50  45
  -2  -1 -13 55480.8 2703.38  45
  -2  -1 -13 52244.2 2539.07  37
   2   1  13 48053.1 3026.32  20
   2   1  13 55945.5 2092.17  46
  -2  -1 -12 15213.5 1451.97  37
  -2  -1 -12 15187.7 1586.46  45
   2   1  12 13309.1 1662.68  20
   2   1  12 13622.1 1905.55  23
   2   1  11 220063. 7228.62  20
  -2  -1 -11 217435. 4987.40  47
  -2  -1 -11 209690. 6081.75  37
   2   1  11 224283. 7847.25  23
  -2  -1 -10 2058.26 578.074  37
   2   1  10 2007.47 624.030   3
  -2  -1 -10 1282.71 352.772  47
  -2  -1 -10 1374.48 614.661  45
   2   1  10 1115.61 567.510  20
  -2  -1 -10 1467.70 295.558  48
   2   1  10 1660.68 725.628  23
   2   1   9 354321. 9188.46  23
  -2  -1  -9 349461. 8025.10  37
  -2  -1  -9 358142. 6554.31  47
   2   1   9 345867. 8294.80   3
  -2  -1  -9 347265. 9012.12   1
  -2  -1  -9 353068. 5737.81  48
   2   1   8 139830. 4900.15  23
   2   1   8 133398. 4625.30  26
  -2  -1  -8 132977. 5082.19   1
   2   1   8 135385. 4508.28   3
   2   1   7 147981. 4668.14  23
   2   1   7 146005. 4580.19   3
   2   1   7 147478. 2655.51  13
   2   1   7 137771. 4359.02  26
  -2  -1  -7 147762. 5158.00   1
   2   1   6 224175. 3699.71  13
  -2  -1  -6 230762. 6406.99   1
   2   1   6 218340. 5243.39  26
   2   1   6 225691. 5764.18   3
   2   1   5 12900.3 644.513  13
   2   1   5 9990.33 680.448  11
  -2  -1  -5 11854.1 1248.14   1
   2   1   5 12337.9 1170.25   3
   2   1   5 13375.5 969.353  26
  -2  -1  -4 526081. 9887.85   1
   2   1   4 540491. 7460.39  11
   2   1   4 512295. 9657.08   3
  -2  -1  -3 12519.8 1443.42   7
   2   1   3 14455.9 1024.26   4
   2   1   3 14508.6 890.901   9
  -2  -1  -3 14571.0 1229.00   1
  -2  -1  -2 274833. 6937.02   7
   2   1   2 268439. 5482.35   4
  -2  -1  -2 275310. 5990.29   1
  -2  -1  -1 64737.6 2389.93   1
   2   1   1 69496.6 2433.03   4
  -2  -1  -1 69803.3 3031.17   7
   2   1   0 147957. 3958.85   4
  -2  -1   0 141487. 3520.63  17
   2   1   0 142123. 3102.41  10
  -2  -1   0 135687. 3538.49   1
  -2  -1   0 143808. 4552.24   7
  -2  -1   1 196768. 5681.25   7
  -2  -1   1 183625. 4422.20  17
   2   1  -1 194113. 4881.15   4
  -2  -1   2 11522.1 1065.33  17
  -2  -1   2 12858.1 1616.72   2
  -2  -1   2 13756.7 888.060   1
   2   1  -2 13745.3 1218.32   4
   2   1  -2 11946.4 1275.93  22
   2   1  -2 12229.4 379.971  15
   2   1  -3 231117. 5926.32   4
  -2  -1   3 242168. 7971.98   2
   2   1  -3 219999. 6071.99  22
   2   1  -4 333220. 6692.62   8
   2   1  -4 337535. 7711.76   4
   2   1  -4 327529. 5017.62  12
   2   1  -5 33725.9 1703.51   8
   2   1  -5 33565.3 1018.55  12
  -2  -1   5 38298.3 3268.47   2
   2   1  -5 32293.9 2128.91   4
   2   1  -6 140764. 4901.47   4
   2   1  -6 149839. 5216.61  21
  -2  -1   6 151981. 7066.11   2
   2   1  -6 151010. 2730.48  12
   2   1  -7 13271.8 1599.91  21
   2   1  -7 11960.5 1373.47   4
   2   1  -7 13078.2 605.327  12
  -2  -1   7 13879.9 2216.68   2
  -2  -1   8 330020. 6426.89  38
   2   1  -8 313993. 5666.85  28
   2   1  -8 323746. 9208.43  21
   2   1  -8 322070. 5696.64  34
  -2  -1   8 333262. 11689.7   2
   2   1  -8 320668. 5522.20  45
   2   1  -9 1140.13 279.769  45
   2   1  -9 1288.41 300.962  28
  -2  -1   9 1444.58 811.334   2
  -2  -1   9 1357.61 400.867  38
   2   1  -9 621.267 237.609  34
   2   1  -9 1183.91 569.412  21
  -2  -1  10 117772. 3755.37  38
  -2  -1  10 113169. 6775.83  17
   2   1 -10 103126. 5541.34  21
   2   1 -10 107472. 3018.72  34
   2   1 -10 114110. 3000.47  45
   2   1 -11 197045. 4619.27  27
  -2  -1  11 205534. 5398.59  38
  -2  -1  11 211545. 5279.90  41
   2   1 -11 208478. 4548.86  45
   2   1 -11 189538. 4503.26  34
   2   1 -11 188768. 7921.80  21
  -2  -1  11 196647. 9148.43  17
   2   1 -12 78074.2 2508.58  45
   2   1 -12 75058.1 2552.24  34
   2   1 -12 73580.4 4718.28  21
   2   1 -12 75466.3 2579.73  27
  -2  -1  12 78121.1 2910.38  41
  -2  -1  12 76798.2 3021.50  38
   2   1 -13 63071.3 2228.00  27
   2   1 -13 64419.8 2129.79  45
  -2  -1  13 65902.9 2434.32  41
   2   1 -13 67539.4 2264.14  34
  -2  -1  13 64354.4 2563.62  38
   2   1 -14 728.512 224.625  45
  -2  -1  14 627.487 208.670  41
  -2  -1  14 782.235 305.948  38
   2   1 -14 470.763 214.046  34
   2   1 -15 79730.3 1817.67  37
   1   1  16 108.236 150.849  50
  -1  -1 -16 343.684 159.146  37
   1   1  15 99823.7 2424.55  38
  -1  -1 -15 95163.7 2819.08  45
   1   1  15 94970.2 2684.04  50
  -1  -1 -15 97619.1 2901.42  37
   1   1  15 102386. 2797.90  46
  -1  -1 -14 19073.0 1401.52  37
   1   1  14 19769.7 1255.50  46
  -1  -1 -14 19298.3 1479.73  45
   1   1  14 18593.7 1199.39  50
   1   1  14 19578.7 1104.02  38
  -1  -1 -13 89994.7 2690.94  47
   1   1  13 93331.3 2930.43  46
  -1  -1 -13 91221.9 3473.59  37
   1   1  13 89472.0 2682.08  38
   1   1  12 39329.2 2714.55  20
  -1  -1 -12 44624.0 2453.22  37
   1   1  12 43323.1 1777.96  38
  -1  -1 -12 50422.2 2901.81  45
   1   1  12 39614.3 3333.92  23
  -1  -1 -12 46207.9 1869.37  47
   1   1  11 27980.0 1336.41  38
   1   1  11 25867.7 2152.78  20
  -1  -1 -11 26052.3 1356.42  47
  -1  -1 -11 28529.9 2134.41  45
  -1  -1 -11 27489.5 3388.45  21
   1   1  11 26903.9 2617.42  23
   1   1  10 218945. 4363.21  38
   1   1  10 232421. 6717.57  20
  -1  -1 -10 206554. 6120.46  45
  -1  -1 -10 238795. 9607.56  21
   1   1  10 216461. 7378.77  23
  -1  -1 -10 218780. 4560.53  47
   1   1  10 233214. 6910.88   3
  -1  -1  -9 7620.46 1543.43  21
   1   1   9 7136.72 1017.87   3
   1   1   9 8163.37 1237.48  23
   1   1   8 324638. 7460.61   3
  -1  -1  -8 338299. 9912.77  21
  -1  -1  -8 336434. 7604.37   1
   1   1   8 316417. 7853.80  23
  -1  -1  -7 219339. 5664.74   1
   1   1   7 230093. 5569.00   3
   1   1   7 214675. 5705.20  23
   1   1   7 216392. 5640.91  26
  -1  -1  -7 223056. 7133.66  21
   1   1   6 117457. 3512.79  26
   1   1   6 115502. 3604.72  23
  -1  -1  -6 123247. 4626.04  21
   1   1   6 127799. 3725.55   3
  -1  -1  -6 121423. 3763.85   1
   1   1   6 124448. 2190.60  13
   1   1   5 471882. 6733.87  13
  -1  -1  -5 485650. 8777.15   1
   1   1   5 488637. 8214.01  26
   1   1   5 465744. 8520.26   3
  -1  -1  -5 482660. 9769.84  21
  -1  -1  -4 11972.5 1076.56  21
   1   1   4 11496.0 487.004  13
   1   1   4 10683.9 874.739   3
  -1  -1  -4 11086.0 899.658   1
  -1  -1  -3 115007. 2990.65   1
   1   1   3 112022. 3068.56   3
   1   1   2 97825.0 1858.88   9
  -1  -1  -2 95750.8 3065.74   7
  -1  -1  -2 96391.3 2489.42   1
  -1  -1  -1 190888. 4022.95   7
   1   1   1 194129. 3655.25   4
  -1  -1  -1 187861. 2735.92   6
  -1  -1  -1 188917. 3606.82   1
  -1  -1   0 320286. 5152.49   1
   1   1   0 328884. 5046.64  10
   1   1   0 334025. 5641.44   4
  -1  -1   1 97813.9 3281.19   2
   1   1  -1 99443.5 2589.79   4
  -1  -1   1 94392.1 1877.54   1
   1   1  -2 142810. 2219.88  12
  -1  -1   2 146049. 4340.68   2
   1   1  -2 138672. 3425.98   4
   1   1  -3 22469.7 1310.51   4
  -1  -1   3 26395.5 1748.10   2
   1   1  -3 24815.2 1436.14  22
   1   1  -3 24932.7 646.442  12
   1   1  -4 76737.4 1412.57  12
   1   1  -4 76210.7 1959.54   8
   1   1  -4 72454.1 2581.76   4
   1   1  -5 345667. 7104.00   4
   1   1  -5 352397. 7789.38  21
  -1  -1   5 360720. 7433.89  23
  -1  -1   5 368320. 8668.56   2
   1   1  -5 354430. 5057.78  12
   1   1  -6 50820.6 2285.68   4
  -1  -1   6 50556.3 3034.86   2
  -1  -1   6 50740.1 2689.63  23
   1   1  -6 52826.2 2782.81  21
   1   1  -7 254342. 7336.47  21
  -1  -1   7 251490. 7762.73   2
  -1  -1   7 248375. 7327.30  23
  -1  -1   8 14474.0 1861.51   2
   1   1  -8 14834.7 1819.37  21
  -1  -1   8 15525.0 1889.09  23
  -1  -1   9 209771. 8024.60   2
  -1  -1   9 225183. 4902.24  38
   1   1  -9 230508. 4587.90  45
   1   1  -9 209962. 4467.18  34
   1   1  -9 216846. 8068.87  21
   1   1 -10 49671.4 2011.67  34
  -1  -1  10 51613.0 3994.20   2
   1   1 -10 53755.2 4151.17  21
   1   1 -10 55954.1 2177.16  27
   1   1 -10 57627.1 2116.48  45
  -1  -1  10 55896.7 2302.66  38
   1   1 -11 133125. 3711.81  34
  -1  -1  11 139204. 4051.30  38
  -1  -1  11 139500. 3891.79  46
   1   1 -11 129349. 6895.02  21
   1   1 -11 145027. 3791.25  45
   1   1 -11 137012. 3844.70  27
  -1  -1  12 105653. 3362.50  46
   1   1 -12 111226. 3463.51  27
   1   1 -12 112699. 3267.78  45
   1   1 -12 106229. 6248.66  21
  -1  -1  12 113888. 3636.68  38
   1   1 -12 110318. 3326.71  34
  -1  -1  13 39067.7 1807.52  41
   1   1 -13 39885.6 1919.89  27
   1   1 -13 40557.0 1745.15  45
   1   1 -13 41078.1 1843.68  34
  -1  -1  13 42319.4 2056.46  38
  -1  -1  13 39699.7 1831.86  46
   1   1 -14 79913.3 2234.64  45
  -1  -1  14 81114.5 2368.54  41
  -1  -1  14 84800.7 2711.26  38
  -1  -1  14 81263.6 2367.75  46
   1   1 -15 3102.40 385.575  37
  -1  -1  15 3117.38 417.849  38
   0   1  16 96580.9 2215.73  38
   0  -1 -16 97698.5 2316.99  37
   0  -1 -15 1437.96 350.141  37
   0   1  15 1266.79 343.831  46
   0   1  15 1286.03 322.333  50
   0   1  15 1164.03 305.264  38
   0  -1 -15 1212.76 374.329  45
   0  -1 -14 134422. 3918.38  37
   0   1  14 126917. 3402.25  38
   0   1  14 129475. 3581.45  46
   0   1  14 125510. 3543.00  50
   0   1  13 112690. 3384.85  50
   0  -1 -13 124896. 4269.85  45
   0   1  13 115206. 3389.77  46
   0  -1 -13 109710. 6670.01  21
   0   1  13 114034. 3280.18  38
   0  -1 -12 42202.0 4044.38  21
   0   1  12 40756.7 1846.23  46
   0  -1 -12 43550.6 2207.22  34
   0  -1 -12 40610.3 2346.54  45
   0   1  12 42064.7 1838.05  38
   0  -1 -11 89134.7 5644.15  21
   0  -1 -11 92793.1 3145.30  34
   0   1  11 86942.6 2680.78  38
   0  -1 -11 88468.1 3408.36  45
   0  -1 -11 93082.9 2909.06  27
   0   1  11 92929.0 2772.20  46
   0   1  11 94888.7 5090.59   2
   0  -1 -10 3335.04 565.781  45
   0   1  10 2656.41 869.226   2
   0  -1 -10 3488.88 476.951  27
   0   1  10 1658.49 468.977  20
   0  -1 -10 1626.19 785.482  21
   0   1  10 2036.41 712.574  23
   0   1  10 2696.75 406.595  38
   0  -1 -10 3078.62 509.739  34
   0   1   9 128940. 5167.66  23
   0   1   9 134327. 4285.11  20
   0  -1  -9 135032. 5849.49  21
   0   1   8 44522.2 2617.06  23
   0  -1  -8 48650.2 3008.18  21
   0   1   8 49499.0 2723.71   3
   0   1   8 45326.2 2192.89  20
   0   1   7 224509. 5738.61   3
   0  -1  -7 218308. 6103.28  21
   0  -1  -7 215377. 4819.01   1
   0   1   6 347239. 7225.97  23
   0  -1  -6 353949. 7640.75  21
   0   1   6 367382. 7321.34   3
   0  -1  -6 364168. 6567.22   1
   0  -1  -5 58569.5 2247.40  21
   0  -1  -5 53925.2 1790.74   1
   0   1   5 56126.1 2097.05  23
   0  -1  -4 667533. 10132.5   6
   0   1   4 593291. 9773.65   3
   0  -1  -3 78643.6 2107.40   6
   0   1   3 81711.3 2044.00   3
   0  -1  -2 534769. 7848.01   6
   0   1   2 521919. 7633.36   3
   0   1   1 774366. 10485.5   5
   0  -1  -1 761156. 10666.9   6
   0  -1   0 414167. 5879.78   2
   0   1   0 377714. 6977.57   4
   0   1  -1 559215. 8032.47   4
   0  -1   1 529413. 7750.18   2
   0  -1   2 1800.88 257.107   3
   0   1  -2 1224.28 193.686   4
   0   1  -2 1364.72 155.566   1
   0  -1   3 483030. 7724.72   3
   0   1  -3 483392. 6944.18   1
   0   1  -3 471640. 7259.64   4
   0   1  -4 84367.9 1897.36   1
   0   1  -4 84979.5 2071.66   4
   0  -1   4 87965.3 2761.39  26
   0  -1   4 87941.9 2575.70   3
   0   1  -4 84377.2 2882.46  21
   0   1  -5 525786. 10406.0  21
   0   1  -5 555894. 8085.50   1
   0   1  -5 527918. 8283.80   4
   0  -1   5 537487. 10027.2  26
   0   1  -6 669015. 13329.2  21
   0  -1   6 679768. 12889.1  26
   0  -1   6 687580. 12275.4  23
   0  -1   7 16294.7 1512.84   2
   0   1  -7 15196.1 1759.99  21
   0  -1   7 14020.6 1425.52  23
   0  -1   7 16410.3 1677.22  26
   0   1  -8 487076. 12932.5  21
   0  -1   8 511551. 11184.6   2
   0  -1   8 513990. 11602.9  23
   0   1  -9 96469.2 2855.74  34
   0  -1   9 98849.1 4656.70   2
   0   1  -9 100935. 5800.04  21
   0  -1   9 99844.8 2757.25  43
   0   1  -9 108651. 3119.49  27
   0  -1   9 105947. 5057.75  23
   0   1  -9 103600. 2784.03  47
   0  -1  10 130562. 6194.01  23
   0  -1  10 141143. 3611.71  43
   0   1 -10 134477. 3915.15  27
   0   1 -10 143692. 3614.10  47
   0   1 -10 129538. 7152.68  21
   0  -1  10 138066. 3681.06  38
   0   1 -10 130161. 3739.46  34
   0  -1  10 136428. 5959.87   2
   0   1 -11 40108.8 1915.55  45
   0   1 -11 36724.4 1915.32  34
   0  -1  11 32290.7 3212.03  23
   0   1 -11 36711.4 1729.07  47
   0   1 -11 35657.9 1961.83  27
   0  -1  11 39802.2 1889.03  38
   0   1 -11 31053.6 3596.41  21
   0   1 -12 56339.5 2193.95  47
   0   1 -12 62090.9 2512.10  34
   0   1 -12 57626.3 4862.70  21
   0   1 -12 61072.1 2374.23  45
   0   1 -12 54620.7 2509.37  27
   0  -1  12 54654.8 2342.55  38
   0   1 -13 156884. 7738.03  21
   0   1 -13 157808. 3779.52  47
   0   1 -13 157920. 3897.53  45
   0  -1  13 155920. 4068.94  46
   0  -1  13 164010. 4235.98  38
   0  -1  13 159382. 3808.16  50
   0  -1  14 2169.55 431.653  46
   0   1 -14 1959.05 434.776  37
   0  -1  14 2093.45 440.342  38
   0  -1  15 90949.9 2286.60  46
   0  -1  15 91865.1 2422.44  38
   0   1 -15 95176.6 2382.25  37
  -1   1  16 332.723 171.052  38
   1  -1 -16-148.548 153.815  45
   1  -1 -16 272.885 135.291  37
  -1   1  15 92258.4 2687.00  38
   1  -1 -15 95520.2 2723.58  37
  -1   1  14 14191.6 1089.57  38
  -1   1  14 14576.7 1115.97  46
   1  -1 -14 15015.6 1256.63  45
  -1   1  13 65924.6 2171.97  41
  -1   1  13 70493.7 2699.27  50
   1  -1 -13 69255.0 2670.79  34
  -1   1  13 67418.8 2564.11  46
  -1   1  13 67016.4 2515.99  38
   1  -1 -13 68108.6 2844.00  45
   1  -1 -13 62369.2 4573.97  21
   1  -1 -12 275672. 5995.21  34
   1  -1 -12 273202. 6341.08  45
  -1   1  12 258126. 8794.89  17
   1  -1 -12 267754. 5659.17  27
  -1   1  12 268213. 5384.96  41
  -1   1  12 266526. 5812.16  46
   1  -1 -12 269039. 9880.13  21
  -1   1  12 283807. 6187.28  50
  -1   1  12 267489. 5808.56  38
  -1   1  11 47848.5 4245.16   2
  -1   1  11 43217.2 1969.14  50
   1  -1 -11 44041.1 3618.52  21
  -1   1  11 40267.7 1821.45  46
   1  -1 -11 42610.8 2043.12  45
  -1   1  11 40804.4 3271.09  17
   1  -1 -11 44889.3 1919.99  34
   1  -1 -11 43583.1 1796.45  27
  -1   1  11 42853.3 1876.96  38
   1  -1 -10 112404. 2989.07  34
  -1   1  10 113877. 3114.67  50
   1  -1 -10 113307. 3201.48  45
   1  -1 -10 109934. 2838.87  27
   1  -1 -10 109427. 5372.87  21
  -1   1  10 110559. 2971.85  46
  -1   1  10 107097. 2998.43  38
   1  -1  -9 100671. 4619.63  21
  -1   1   9 108244. 5795.55   2
   1  -1  -8 92492.9 3957.47  21
  -1   1   8 102791. 5175.56   2
   1  -1  -7 205096. 5582.98  21
  -1   1   7 218694. 7290.55   2
   1  -1  -6 16712.9 1254.67  21
  -1   1   6 16929.8 1838.33   2
   1  -1  -6 15745.2 844.192  19
   1  -1  -5 510985. 8791.00  21
   1  -1  -5 529030. 9305.55   6
  -1   1   4 42148.7 2406.66   2
   1  -1  -4 44688.9 1022.19  15
   1  -1  -4 43155.6 1778.11   6
  -1   1   3 301015. 5736.25  17
   1  -1  -3 296467. 4187.92  15
   1  -1  -3 300953. 5347.56   6
  -1   1   2 88652.6 2863.78   2
   1  -1  -2 109841. 2510.48   6
   1  -1  -1 378761. 6130.96   6
  -1   1   1 383974. 6577.78   7
  -1   1   0 644066. 9795.18   1
  -1   1   0 647683. 9608.20   5
   1  -1   0 649804. 10299.5   6
  -1   1  -1 9047.72 671.977   1
   1  -1   1 9767.61 543.465   3
  -1   1  -1 10580.5 928.382   5
   1  -1   2 66789.3 1736.31   3
  -1   1  -2 64250.9 2028.63   1
   1  -1   3 25585.0 1437.07   9
   1  -1   3 28149.8 1521.11  16
   1  -1   3 27190.9 1124.92   3
  -1   1  -3 24969.5 1269.25   1
  -1   1  -4 653683. 10801.6   1
   1  -1   4 646428. 11176.6  16
   1  -1   4 682488. 10456.0   3
   1  -1   4 645321. 11259.6   9
   1  -1   5 10979.6 1037.26  16
  -1   1  -5 11948.3 1620.21  21
   1  -1   5 12462.2 944.269   3
  -1   1  -5 11952.7 956.799   1
  -1   1  -6 61696.7 3996.66  21
   1  -1   6 63408.9 2996.70  26
   1  -1   6 70311.5 2566.64   3
  -1   1  -6 62439.8 2395.31   1
   1  -1   7 421336. 8466.63   3
   1  -1   7 408944. 9637.34  26
  -1   1  -8 637.171 615.797  21
   1  -1   8 819.568 495.170  23
   1  -1   8 1266.78 546.595  26
   1  -1   8 846.114 346.379   3
   1  -1   9 188834. 3971.71  43
  -1   1  -9 202001. 4523.71  47
   1  -1   9 199897. 7350.21  26
  -1   1  -9 191408. 4962.95  27
   1  -1   9 200016. 7063.61  23
  -1   1  -9 197313. 4056.92  48
  -1   1 -10 12522.0 2484.35  21
   1  -1  10 16872.0 2114.80  23
  -1   1 -10 18082.6 1239.58  47
   1  -1  10 16039.5 1004.71  43
  -1   1 -10 17623.6 1074.55  48
   1  -1  10 15922.3 1787.71   2
  -1   1 -11 163067. 4353.61  47
   1  -1  11 152016. 6899.74  23
   1  -1  11 167175. 6005.24  20
  -1   1 -11 148168. 8670.92  21
   1  -1  11 163570. 3872.38  43
   1  -1  11 163819. 4145.91  38
   1  -1  12 110567. 3329.67  38
  -1   1 -12 115377. 3523.16  47
   1  -1  12 105573. 5724.43  23
  -1   1 -13 2795.02 615.199  37
  -1   1 -13 2883.17 517.765  47
   1  -1  13 3222.47 580.416  46
   1  -1  13 3744.34 578.694  38
   1  -1  14 132607. 3136.09  50
   1  -1  14 138754. 3450.06  46
   1  -1  14 133938. 3335.95  38
  -1   1 -14 129672. 3243.98  47
   1  -1  15 6385.83 554.696  46
   1  -1  15 6062.00 500.093  38
  -1   1 -15 6499.25 555.643  37
   2  -1 -15 8334.89 739.933  45
  -2   1  15 7218.82 687.036  38
   2  -1 -14 87477.8 2837.89  45
  -2   1  14 83714.2 2773.19  38
  -2   1  14 80032.0 2283.94  41
   2  -1 -14 80619.5 2621.53  34
  -2   1  13 45244.2 2097.54  38
  -2   1  13 42230.7 1774.24  41
   2  -1 -13 41088.0 3329.12  21
   2  -1 -13 44258.8 1750.08  27
   2  -1 -13 44550.8 1971.40  34
   2  -1 -13 47616.6 2140.80  45
   2  -1 -12 81730.0 2693.21  34
   2  -1 -12 76944.6 2777.28  45
  -2   1  12 76036.9 2563.16  41
  -2   1  12 78447.6 2879.00  38
   2  -1 -12 76483.5 4666.57  21
   2  -1 -12 77729.8 2441.03  27
  -2   1  12 69625.2 4579.15  17
  -2   1  11 202709. 4952.86  38
   2  -1 -11 202376. 4303.95  27
  -2   1  11 191983. 7948.30  17
  -2   1  11 190805. 4609.67  41
   2  -1 -11 210386. 4575.14  34
   2  -1 -11 204830. 7669.04  21
  -2   1  11 213479. 5088.35  46
   2  -1 -11 203909. 4689.53  45
  -2   1  10 9798.08 889.842  46
   2  -1 -10 11970.3 1663.27  21
  -2   1  10 9466.34 682.940  54
   2  -1 -10 11302.1 831.436  34
   2  -1 -10 11739.5 858.089  45
   2  -1 -10 11029.1 767.495  27
  -2   1  10 10224.0 924.947  38
  -2   1  10 11377.0 1829.83  17
  -2   1  10 9687.26 848.356  41
   2  -1  -9 231245. 4383.17  34
  -2   1   9 243036. 12477.0   2
  -2   1   9 229231. 4771.43  41
  -2   1   9 225039. 4878.75  38
   2  -1  -9 228185. 4391.51  45
  -2   1   9 226136. 4797.58  46
  -2   1   9 223416. 8088.50  17
   2  -1  -9 229393. 7127.47  21
  -2   1   9 221939. 4299.75  54
   2  -1  -8 93917.2 3919.53  21
  -2   1   8 90973.5 7895.86   2
  -2   1   8 87732.5 4603.81  17
   2  -1  -7 168527. 5019.49  21
  -2   1   7 169389. 6161.90  17
   2  -1  -6 85695.9 3119.79  21
  -2   1   6 85214.7 3944.69  17
   2  -1  -5 32529.9 1676.39   8
   2  -1  -5 31429.2 971.281  15
  -2   1   5 33201.7 2238.66  17
  -2   1   4 683847. 12780.8  17
   2  -1  -4 701970. 9613.29  15
   2  -1  -4 678765. 11272.3   8
   2  -1  -3 30097.7 1456.71  22
   2  -1  -3 27534.7 1463.38   8
  -2   1   3 27490.1 2093.89   2
   2  -1  -3 27764.1 1348.43   6
   2  -1  -3 28345.6 845.746  15
  -2   1   3 29607.1 1815.11  17
  -2   1   2 686051. 12008.0  17
   2  -1  -2 697193. 11292.6   8
   2  -1  -2 694251. 9626.71  15
   2  -1  -2 704886. 10651.3   6
  -2   1   2 686343. 12593.3   7
  -2   1   1 41621.1 1908.46   1
   2  -1  -1 42487.1 1481.51   6
  -2   1   1 43815.6 2259.29   7
   2  -1   0 370431. 6519.42   6
  -2   1   0 378862. 8036.77   7
  -2   1   0 382191. 7367.37   1
  -2   1  -1 782250. 13723.4   7
  -2   1  -1 774792. 11642.0   5
  -2   1  -1 776448. 12837.3   1
   2  -1   1 755607. 13086.7   6
   2  -1   2 37657.7 1634.10   3
  -2   1  -2 37211.6 1954.11   1
  -2   1  -2 40867.0 2457.13   7
  -2   1  -2 39954.8 1907.75   5
  -2   1  -3 577481. 12290.5   7
  -2   1  -3 566062. 10374.5   1
   2  -1   3 562026. 9266.25   3
   2  -1   4 69441.7 2388.17   3
   2  -1   4 68553.4 1317.48  13
  -2   1  -4 68071.7 2904.65   1
   2  -1   4 70008.3 2934.93   9
   2  -1   5 94258.9 3519.39   9
  -2   1  -5 89157.2 3510.71   1
   2  -1   5 95979.3 1645.68  13
   2  -1   5 91704.6 3432.34  16
   2  -1   5 93981.5 3014.38   3
   2  -1   6 64413.8 2954.39  16
  -2   1  -6 62366.6 2972.86   1
   2  -1   7 20628.3 1526.41   3
   2  -1   7 21117.4 1930.47  26
  -2   1  -7 20898.3 1722.29   1
  -2   1  -8 193610. 3952.34  48
  -2   1  -8 197905. 4550.32  47
   2  -1   8 197089. 6793.87  26
   2  -1   8 192913. 5560.22   3
  -2   1  -9 11070.7 790.709  48
   2  -1   9 11758.4 1730.27  23
  -2   1  -9 13799.2 1490.71  37
  -2   1  -9 11472.7 1022.00  47
   2  -1   9 11691.4 1339.91   3
   2  -1   9 12456.5 1791.30  26
  -2   1 -10 182365. 5617.61  37
  -2   1 -10 163906. 3787.02  48
   2  -1  10 163594. 6916.75  26
  -2   1 -10 174510. 4624.12  47
   2  -1  10 163757. 6887.01  23
   2  -1  11 57822.9 4076.39  23
   2  -1  11 59428.1 2186.96  38
  -2   1 -11 62519.9 2640.47  47
  -2   1 -11 60795.3 2101.65  48
  -2   1 -12 44465.1 2310.79  37
  -2   1 -12 38948.3 2021.80  47
   2  -1  12 35943.0 2694.12  20
   2  -1  12 37426.3 3232.72  23
   2  -1  12 37151.9 1659.31  38
  -2   1 -13 108543. 3299.51  47
   2  -1  13 104838. 2838.05  38
   2  -1  14 179.682 214.933  46
  -2   1 -14 557.020 275.621  37
   2  -1  14 274.634 128.927  38
   2  -1  15 72322.5 1834.20  46
  -2   1 -15 73511.8 1846.05  37
   3  -1 -14 28518.6 1285.09  34
   3  -1 -14 31054.1 1407.82  45
  -3   1  14 29180.1 1487.42  38
  -3   1  13 53726.1 2005.62  41
   3  -1 -13 57316.7 2030.42  34
   3  -1 -13 54794.6 1713.10  29
  -3   1  13 59200.5 2419.71  38
   3  -1 -13 56686.7 2116.69  45
   3  -1 -12 73098.4 2104.58  27
   3  -1 -12 75454.8 2420.47  34
  -3   1  12 73999.1 2592.01  41
   3  -1 -12 75045.2 2532.96  45
  -3   1  12 75500.6 2120.51  54
  -3   1  12 79452.3 2983.15  38
  -3   1  11 16110.2 2284.96  17
  -3   1  11 16338.4 989.346  54
   3  -1 -11 16112.8 1079.15  45
  -3   1  11 17477.1 1390.13  38
  -3   1  11 16812.7 1230.24  41
   3  -1 -11 18659.1 991.705  27
   3  -1 -11 18259.3 1115.28  34
   3  -1 -11 16114.4 1912.70  21
  -3   1  10 241772. 9453.74  17
   3  -1 -10 252682. 4956.14  45
   3  -1 -10 249640. 4621.90  27
  -3   1  10 240926. 4919.82  54
   3  -1 -10 253562. 4923.46  34
  -3   1  10 248156. 5843.80  38
   3  -1 -10 243276. 7783.44  21
  -3   1  10 247022. 5555.49  41
  -3   1   9 1552.77 420.998  41
   3  -1  -9 1735.39 332.777  34
   3  -1  -9 1234.54 560.466   4
   3  -1  -9 925.608 487.810  21
  -3   1   9 586.149 625.545  17
   3  -1  -9 1398.06 325.424  45
  -3   1   9 1101.96 296.612  54
  -3   1   9 964.438 311.826  38
   3  -1  -8 269039. 6388.12  19
   3  -1  -8 294433. 5066.08  34
  -3   1   8 287325. 9897.10  17
   3  -1  -8 287738. 5057.28  45
   3  -1  -8 295020. 7730.34  21
   3  -1  -8 292551. 9416.96   4
  -3   1   8 278570. 5836.66  41
  -3   1   8 288396. 5451.47  54
  -3   1   8 274135. 5924.66  38
  -3   1   7 93212.1 2751.80  41
  -3   1   7 95254.3 8662.35   2
  -3   1   7 90366.3 5068.10  17
   3  -1  -7 95318.5 3840.79  21
  -3   1   7 97155.4 2572.23  54
  -3   1   6 72635.6 4925.87   7
  -3   1   6 70330.6 4223.46  17
   3  -1  -6 76797.5 3234.32  21
  -3   1   6 78463.1 6167.38   2
   3  -1  -5 242107. 4124.06  15
  -3   1   5 244262. 7802.15  17
  -3   1   5 255345. 8887.38   7
   3  -1  -5 239702. 6083.75   8
   3  -1  -4 397.923 147.330  15
  -3   1   4 319.776 468.910   7
   3  -1  -4 468.034 344.170   8
  -3   1   4 351.538 361.252  17
   3  -1  -3 489956. 7246.00  15
  -3   1   3 494366. 12018.4   7
   3  -1  -3 501476. 9764.76   8
   3  -1  -3 467632. 9412.50  22
  -3   1   2 165570. 6052.21   7
   3  -1  -2 160038. 2999.80  15
   3  -1  -2 172716. 4894.07   8
   3  -1  -2 168049. 4858.19  22
  -3   1   1 181447. 6210.90   7
   3  -1  -1 176724. 3300.72  15
  -3   1   1 179055. 5322.98   1
  -3   1   0 111979. 4115.44   1
  -3   1   0 116959. 4844.17   7
  -3   1  -1 45903.2 3024.19   7
  -3   1  -1 43027.3 2522.42   1
  -3   1  -2 586277. 12061.1   1
   3  -1   2 606136. 10785.1   4
  -3   1  -2 601600. 13542.6   7
  -3   1  -3 8678.99 1184.15   1
   3  -1   3 8457.89 918.827   3
   3  -1   4 282286. 6361.54   3
  -3   1  -4 277331. 7731.67   1
  -3   1  -4 269162. 9199.47   7
   3  -1   4 274387. 7435.47   9
   3  -1   5 231284. 6587.35   9
   3  -1   5 236831. 5814.72   3
   3  -1   5 239170. 6561.23  16
  -3   1  -5 223618. 7022.41   1
   3  -1   6 40472.9 2185.76   3
  -3   1  -6 39179.9 2775.12   1
   3  -1   6 36687.7 2440.52   9
   3  -1   6 42337.4 2452.14  16
  -3   1  -7 95607.2 4526.52   1
  -3   1  -7 110441. 3248.84  47
   3  -1   7 97749.5 3635.36   3
  -3   1  -7 99355.8 2566.41  48
   3  -1   7 106254. 4720.78  26
   3  -1   8 1048.96 570.967  26
  -3   1  -8 1066.88 281.729  48
  -3   1  -8 1345.30 419.225  47
  -3   1  -8 1589.14 724.661  37
  -3   1  -8 1205.96 493.035   1
   3  -1   8 851.600 370.385   3
  -3   1  -9 214120. 7340.22  37
   3  -1   9 201105. 7443.34  23
  -3   1  -9 189206. 4121.76  48
  -3   1  -9 201651. 5184.30  47
   3  -1   9 186378. 7081.19  26
  -3   1 -10 80083.1 3144.32  47
  -3   1 -10 76085.8 2313.73  48
  -3   1 -10 83839.7 3974.73  37
   3  -1  10 73161.2 4362.86  26
   3  -1  10 77043.9 4546.33  23
  -3   1 -11 41650.6 1639.76  48
  -3   1 -11 44291.9 2282.37  47
   3  -1  11 40236.1 3226.40  23
  -3   1 -12 109744. 3737.33  37
  -3   1 -13 9689.06 900.241  37
   3  -1  13 7688.57 661.466  46
  -3   1 -14 94992.0 2336.83  37
   3  -1  14 81564.6 2046.38  46
   4  -1 -13 60764.3 1659.65  29
   4  -1 -13 65388.9 1860.66  34
  -4   1  13 69079.5 2349.07  38
   4  -1 -13 66404.0 1977.57  45
  -4   1  12 23606.2 1574.30  38
   4  -1 -12 23685.3 1129.47  34
   4  -1 -12 23878.1 1201.87  45
  -4   1  12 22311.5 1024.40  54
  -4   1  11 79963.9 3182.79  38
  -4   1  11 75837.0 2231.60  54
   4  -1 -11 77008.5 2306.47  45
   4  -1 -11 76126.0 2221.01  34
   4  -1 -10 1767.58 367.301  34
  -4   1  10 1769.27 396.093  54
   4  -1 -10 1577.48 366.812  45
  -4   1  10 1601.94 500.469  41
  -4   1  10 1424.98 485.267  38
  -4   1   9 147233. 4645.75  38
   4  -1  -9 142521. 5210.88  21
   4  -1  -9 144724. 3255.63  45
  -4   1   9 141145. 3526.34  54
   4  -1  -9 142609. 3224.65  34
  -4   1   9 144680. 4110.57  41
   4  -1  -8 5133.95 503.263  34
  -4   1   8 6319.85 659.117  54
   4  -1  -8 3962.07 433.920  12
   4  -1  -8 5132.09 539.638  45
   4  -1  -8 4624.55 857.709  21
  -4   1   8 6391.96 892.709  38
  -4   1   8 5199.92 717.184  41
   4  -1  -8 3550.77 632.993  19
   4  -1  -7 89419.5 2225.13  34
  -4   1   7 81350.3 2561.98  54
  -4   1   7 85198.3 2941.81  41
  -4   1   7 91695.0 3253.44  38
   4  -1  -7 96244.3 5533.02   4
   4  -1  -7 88759.6 2436.88  12
   4  -1  -7 95408.1 3930.50  21
  -4   1   6 72680.1 2592.27  41
   4  -1  -6 83280.4 5130.78   4
  -4   1   6 86366.2 6137.91   7
   4  -1  -6 79188.4 3511.74  21
  -4   1   6 75759.7 2391.24  54
  -4   1   6 79867.4 2877.86  38
   4  -1  -6 79554.1 1984.91  34
  -4   1   5 30150.9 1377.21  54
  -4   1   5 30205.2 1229.66  53
   4  -1  -5 34488.7 1172.64  15
   4  -1  -5 32172.9 2292.38   8
  -4   1   5 35341.8 3715.55   7
   4  -1  -4 101368. 4212.49   8
   4  -1  -4 105714. 2329.12  15
  -4   1   4 113067. 2777.89  54
  -4   1   4 105620. 6159.22   7
   4  -1  -3 6507.26 944.312  22
   4  -1  -3 6736.18 1057.07   8
   4  -1  -3 6535.04 475.521  15
  -4   1   3 7647.87 1630.58   7
  -4   1   2 163583. 7233.01   7
   4  -1  -2 159971. 5448.73   8
   4  -1  -2 165794. 5365.76  22
   4  -1  -2 165261. 3194.33  15
  -4   1   1 99333.2 5416.03   7
   4  -1  -1 106075. 2410.01  15
   4  -1  -1 103115. 4261.89   8
   4  -1  -1 102353. 4352.23  22
   4  -1   0 68881.4 1959.81  15
   4  -1   0 60437.4 3436.45   4
  -4   1   0 67088.4 4384.26   7
  -4   1   0 65810.2 3676.55   1
   4  -1   0 71754.5 3465.10   8
   4  -1   1 129376. 4793.30   8
  -4   1  -1 124698. 6198.77   7
  -4   1  -1 123068. 5244.35   1
   4  -1   1 123827. 4756.66   4
   4  -1   2 13700.9 1379.18   3
  -4   1  -2 14216.8 2089.56   7
   4  -1   2 14546.2 1545.51   8
  -4   1  -2 15276.0 1819.11   1
  -4   1  -3 340675. 11442.9   7
   4  -1   3 351453. 8009.52   3
  -4   1  -3 322524. 7778.01  37
   4  -1   3 359099. 8416.70   8
  -4   1  -3 345427. 9799.92   1
  -4   1  -4 21226.0 1851.14  37
   4  -1   4 20553.7 1624.19   3
  -4   1  -4 22893.4 879.981  53
   4  -1   4 21329.3 2007.82   9
  -4   1  -4 19474.9 2198.37   1
  -4   1  -4 20987.5 2759.94   7
   4  -1   5 86808.2 3977.97   9
  -4   1  -5 84789.2 4659.73   1
  -4   1  -5 81892.4 2250.56  48
  -4   1  -6 222603. 4287.97  48
  -4   1  -6 230707. 8056.77   1
  -4   1  -7 47923.2 1696.38  48
   4  -1   7 53284.3 3286.81  26
  -4   1  -8 72115.6 5459.69  37
   4  -1   8 74837.9 3955.13  26
  -4   1  -8 73599.7 2176.14  48
  -4   1  -8 68934.9 1997.09  32
   4  -1   8 72114.3 4139.42  23
  -4   1  -9 3584.27 1110.57  37
   4  -1   9 2917.28 815.158  23
  -4   1  -9 3686.81 459.636  48
   4  -1   9 3208.19 832.720  26
  -4   1 -10 105062. 2641.36  48
   4  -1  10 107283. 4988.12  23
  -4   1 -11 81397.4 3256.20  37
  -4   1 -12 28501.0 1516.24  37
   4  -1  12 24091.7 1021.84  46
  -4   1 -13 61912.0 1828.85  37
   5  -1 -12 65654.5 1728.71  45
   5  -1 -12 67972.3 1658.45  29
   5  -1 -11 18494.5 906.575  45
   5  -1 -11 18863.9 830.666  34
  -5   1  11 17493.4 872.899  54
   5  -1 -10 151743. 3081.26  34
   5  -1 -10 154117. 3216.09  45
  -5   1  10 151958. 3333.15  54
  -5   1   9 4078.51 532.827  54
   5  -1  -9 3433.38 401.876  34
   5  -1  -9 3719.04 447.861  45
   5  -1  -8 147009. 3105.22  45
   5  -1  -8 143616. 2974.43  34
  -5   1   8 138243. 3430.26  54
   5  -1  -7 69493.9 1929.97  45
  -5   1   7 66691.2 2213.50  54
   5  -1  -7 65980.6 1777.00  34
  -5   1   6 54591.2 1975.85  54
  -5   1   6 51914.3 1668.36  53
   5  -1  -6 54717.6 1942.10  12
  -5   1   5 210395. 4239.73  53
  -5   1   5 219680. 4582.13  54
  -5   1   4 1644.14 339.911  54
  -5   1   4 822.555 203.778  53
   5  -1  -3 102399. 4558.31   8
  -5   1   3 101484. 2689.22  53
  -5   1   3 105224. 2694.75  54
  -5   1   2 94224.6 2535.53  53
   5  -1  -2 87903.6 4249.03   8
  -5   1   2 92945.3 2731.69  32
  -5   1   1 114618. 6831.99   7
  -5   1   1 106802. 2766.99  53
   5  -1  -1 116083. 4913.34   8
  -5   1   1 107613. 2963.66  32
   5  -1   0 243129. 7432.76   8
  -5   1   0 246246. 10177.2   7
  -5   1   0 230623. 4802.27  32
  -5   1   0 241045. 4600.63  53
  -5   1   0 234405. 5976.99  37
  -5   1  -1 7973.25 705.949  32
   5  -1   1 6902.97 1157.46   8
  -5   1  -1 6990.81 589.165  53
  -5   1  -1 6466.50 925.096  37
  -5   1  -1 7943.53 1819.93   7
  -5   1  -2 159237. 3337.14  53
  -5   1  -2 156726. 3668.66  32
  -5   1  -2 156882. 5158.28  37
   5  -1   2 160137. 5699.84   8
  -5   1  -3 21218.4 1175.47  32
  -5   1  -3 22882.4 1008.14  53
   5  -1   3 24129.8 1987.18   8
  -5   1  -3 20801.6 1875.20  37
  -5   1  -4 72391.1 1855.16  53
  -5   1  -4 71733.9 2271.01  32
  -5   1  -5 47690.9 1791.37  32
   5  -1   5 39980.8 2875.64  10
  -5   1  -5 53778.7 1478.20  53
  -5   1  -5 35038.2 2915.00  37
  -5   1  -6 94199.6 2571.18  32
  -5   1  -6 69349.0 4445.02  37
  -5   1  -7 133880. 3068.22  32
  -5   1  -7 108322. 5984.93  37
  -5   1  -8 4244.80 442.487  32
  -5   1  -8 6291.28 1562.60  37
  -5   1  -9 107740. 4429.25  37
  -5   1 -10 30156.9 1806.24  37
  -5   1 -11 57081.1 1985.53  37
   6  -1  -9 63128.4 1572.21  45
  -6   1   9 67368.4 1789.33  54
  -6   1   8 18374.3 917.432  54
   6  -1  -8 18163.6 788.992  45
   6  -1  -7 52924.9 1458.30  45
  -6   1   7 48598.9 1626.20  54
  -6   1   6 88984.5 2057.75  53
  -6   1   6 88962.7 2385.29  54
  -6   1   5 20616.0 938.843  53
  -6   1   5 21631.9 1063.19  54
  -6   1   4 73575.1 2029.30  53
  -6   1   4 75000.2 2079.60  54
  -6   1   3 1709.35 327.556  53
  -6   1   2 110760. 2699.86  53
   6  -1  -2 106062. 2846.66  12
   6  -1  -1 73985.0 2288.00  12
  -6   1   1 79763.9 2199.51  53
  -6   1   0 48004.2 1623.55  53
   6  -1   0 43887.7 1666.42  12
  -6   1  -1 150337. 3233.29  53
  -6   1  -1 165399. 3877.27  32
  -6   1  -2 3750.56 591.950  32
  -6   1  -2 3720.47 431.148  53
  -6   1  -3 111403. 2455.79  53
  -6   1  -3 101783. 4380.31  37
  -6   1  -4 24555.1 963.985  53
  -6   1  -4 24703.6 1240.29  32
  -6   1  -5 77416.2 1859.62  53
  -6   1  -5 71642.3 2126.98  32
  -6   1  -6 62051.9 1804.01  32
  -6   1  -6 53693.8 3414.31  37
  -6   1  -7 2471.86 782.660  37
  -6   1  -7 3759.41 396.374  32
  -6   1  -8 95059.2 1921.14  32
  -6   1  -8 110635. 3522.09  37
  -6   1  -9 4040.58 501.308  37
  -7   1   5 87217.0 1702.65  53
  -7   1   4 117.543 114.833  53
  -7   1   3 74465.7 1733.28  53
  -7   1   2 5665.29 444.463  53
  -7   1   1 50829.0 1404.88  53
  -7   1   0 40444.9 1208.71  53
  -7   1  -1 11253.6 592.871  53
  -7   1  -2 96367.2 2037.62  53
  -7   1  -3 539.314 167.408  53
  -7  -2  -6 20084.1 1212.50  32
  -7  -2  -5 35669.8 1953.97  32
  -7  -2  -4 50233.3 2284.16  32
  -7  -2  -3 25967.6 1651.47  32
  -7  -2  -3 12446.7 636.264  53
  -7  -2  -2 96201.6 2254.16  53
  -7  -2  -1 10032.8 692.207  53
  -7  -2   0 64704.1 1936.07  53
  -7  -2   1 28642.2 1285.38  53
  -7  -2   2 35912.0 1458.87  53
  -7  -2   3 57582.2 1770.79  53
   7   2  -4 2802.71 307.264  45
  -7  -2   4 2357.88 308.945  53
  -6  -2 -10 55605.5 1416.79  32
  -6  -2  -9 1907.77 376.800  37
  -6  -2  -9 1127.22 256.463  32
  -6  -2  -8 34665.9 1493.14  32
  -6  -2  -8 31809.6 1475.90  37
  -6  -2  -7 1200.03 359.711  32
  -6  -2  -7 1989.15 503.967  37
  -6  -2  -6 88918.2 3043.58  32
  -6  -2  -6 81306.3 2643.17  37
  -6  -2  -5 29198.2 1752.90  32
  -6  -2  -5 31631.0 1657.49  37
  -6  -2  -4 27527.3 1730.43  32
  -6  -2  -4 25713.6 1109.64  53
  -6  -2  -3 73166.6 2125.04  53
  -6  -2  -3 77722.6 2966.48  32
   6   2   2-169.879 870.362  22
  -6  -2  -2 1063.47 351.546  32
  -6  -2  -2 246.159 286.584  53
  -6  -2  -1 90371.8 3075.72  32
   6   2   1 85378.6 2724.70  11
  -6  -2  -1 89744.4 2651.84  53
   6   2   0 16444.5 2412.12  22
  -6  -2   0 19510.3 1275.70  32
  -6  -2   0 17541.1 1165.97  53
  -6  -2   1 81892.4 2687.15  53
   6   2  -1 64016.8 4430.41  22
  -6  -2   2 22085.3 1227.45  54
  -6  -2   2 25074.1 1459.24  53
  -6  -2   3 21678.2 1351.77  53
  -6  -2   3 20048.0 1237.91  54
   6   2  -4 128790. 2972.98  28
  -6  -2   4 133826. 3553.76  54
  -6  -2   4 139971. 3557.27  53
   6   2  -5 3234.34 435.683  34
  -6  -2   5 2305.10 469.323  54
   6   2  -5 2847.26 365.192  28
  -6  -2   5 1786.12 383.973  53
  -6  -2   6 69947.9 2030.30  53
   6   2  -6 66935.8 1922.58  34
   6   2  -6 65863.1 1720.55  28
  -6  -2   7 34948.6 1513.98  54
   6   2  -7 35970.2 1264.14  34
   6   2  -8 15459.7 658.163  45
  -6  -2   8 14722.8 825.664  54
   6   2  -8 12831.9 641.558  34
  -5  -2 -12 74372.1 1958.41  37
  -5  -2 -11 24381.6 1262.78  37
  -5  -2 -11 22788.3 947.914  32
  -5  -2 -10 55174.7 2169.84  37
  -5  -2  -9 55752.4 2067.01  35
  -5  -2  -9 53332.5 2295.35  37
   5   2   8-316.046 282.071  20
  -5  -2  -8 223.916 374.601  37
  -5  -2  -8 849.593 388.657  35
  -5  -2  -7 250108. 5792.72  37
   5   2   7 241854. 4538.84  13
  -5  -2  -6 30251.1 1771.69  35
   5   2   6 27031.1 1302.98  13
   5   2   6 26137.2 2217.61  10
  -5  -2  -6 25885.8 1577.12  37
  -5  -2  -5 43567.8 1625.81  40
  -5  -2  -5 41797.8 1992.36  37
  -5  -2  -5 46037.0 2192.24  35
  -5  -2  -4 120771. 3517.20  37
  -5  -2  -4 121779. 3114.85  40
  -5  -2  -4 120061. 2864.21  53
   5   2   4 129886. 3672.63  11
   5   2   4 122933. 4856.38  10
   5   2   3 11282.6 966.383  11
  -5  -2  -3 12090.6 889.337  40
  -5  -2  -3 10872.2 933.540  37
   5   2   3 8718.14 1211.74  10
  -5  -2  -3 11583.7 820.847  53
  -5  -2  -3 7934.07 1629.17   1
  -5  -2  -2 180353. 4020.13  53
  -5  -2  -2 175703. 7779.74   1
  -5  -2  -2 173389. 4179.92  37
  -5  -2  -2 179288. 4124.82  40
  -5  -2  -2 185707. 9057.78   7
   5   2   2 176186. 3557.38  12
  -5  -2  -1 22174.1 1261.73  53
  -5  -2  -1 29316.2 3553.84   7
   5   2   1 25021.4 3465.12  22
  -5  -2  -1 24524.2 1347.80  40
  -5  -2  -1 23136.4 1415.20  32
   5   2   1 25299.0 1153.25  12
  -5  -2   0 133326. 3587.55  32
   5   2   0 128550. 5862.47   4
  -5  -2   0 135691. 7949.75   7
  -5  -2   0 142941. 3615.42  40
   5   2   0 142276. 8012.63  22
   5   2   0 139326. 3230.59  12
  -5  -2   0 140785. 3613.75  53
  -5  -2   1 124747. 3337.02  40
   5   2  -1 133990. 7276.14  22
   5   2  -1 124920. 3071.04  12
  -5  -2   1 124427. 3449.75  53
   5   2  -1 118146. 5767.09   4
   5   2  -2 52256.1 4239.57  22
   5   2  -2 50912.0 1835.68  12
   5   2  -2 49963.5 3756.65   8
  -5  -2   2 52510.4 2013.68  40
  -5  -2   2 56514.3 2226.60  53
   5   2  -3 155895. 7010.73  22
  -5  -2   3 155114. 3768.53  40
  -5  -2   3 159932. 4129.27  53
  -5  -2   4 788.486 327.075  53
  -5  -2   5 101437. 3070.58  53
   5   2  -5 97513.9 2608.56  12
   5   2  -6 8518.05 708.038  28
   5   2  -6 9574.95 1515.78  21
   5   2  -6 8051.15 746.074  34
  -5  -2   6 8558.59 818.424  53
   5   2  -7 75283.8 2303.96  34
  -5  -2   7 85995.1 2935.17  54
  -5  -2   7 86967.3 2439.35  53
   5   2  -7 72575.4 2147.04  28
   5   2  -8 95346.0 2432.92  28
  -5  -2   8 98168.0 3035.92  54
   5   2  -8 96439.5 2573.97  34
   5   2  -9 24061.5 1091.90  34
  -5  -2   9 23458.1 1231.52  54
   5   2  -9 23760.8 976.214  45
   5   2 -10 83907.0 1921.46  27
  -5  -2  10 85095.5 2168.10  54
   5   2 -10 93665.8 2010.89  45
   5   2 -10 95667.8 2199.82  34
   4   2  14 373.523 142.660  50
   4   2  14 373.323 131.199  39
  -4  -2 -13 77788.0 2311.47  37
   4   2  13 71440.5 1946.11  50
  -4  -2 -12 20641.1 923.914  35
  -4  -2 -12 20288.3 1289.83  37
  -4  -2 -11 45586.1 2133.37  37
   4   2  11 44585.7 2857.39  20
  -4  -2 -11 44826.9 1649.85  35
  -4  -2 -10 75732.9 2422.76  35
  -4  -2 -10 80673.3 3056.68  37
   4   2  10 74035.7 3871.38  20
  -4  -2  -9 24896.1 1662.89  37
  -4  -2  -9 23308.4 1339.94  35
   4   2   9 23056.2 2109.46  10
   4   2   9 22041.2 2101.37  20
  -4  -2  -8 121101. 3773.18  37
   4   2   8 118389. 4928.14  20
   4   2   8 120954. 2695.31  13
   4   2   8 118297. 5024.59  10
  -4  -2  -8 115534. 3321.88  35
  -4  -2  -7 23982.7 2617.91   1
   4   2   7 24723.3 2218.07  10
   4   2   7 25197.2 1175.94  13
   4   2   7 22402.8 2011.58  20
   4   2   7 25554.5 2321.77   3
  -4  -2  -7 23294.5 1392.52  35
  -4  -2  -7 22023.3 1445.71  37
  -4  -2  -6 99487.5 5458.84   1
   4   2   6 96977.0 4429.19  10
   4   2   6 96028.3 4741.72   3
   4   2   6 98589.7 2816.12  13
   4   2   6 101325. 4236.93  20
  -4  -2  -6 96566.1 3064.98  37
  -4  -2  -6 99967.7 3055.87  35
  -4  -2  -5 73707.5 2524.13  37
   4   2   5 85985.6 3634.12  20
  -4  -2  -5 78871.6 2602.73  35
   4   2   5 76104.0 4304.63   3
  -4  -2  -5 77848.5 4736.22   1
  -4  -2  -5 72328.0 2067.20  40
   4   2   5 83425.4 2727.00  11
   4   2   5 79235.3 3856.32  10
  -4  -2  -4 17794.9 1099.01  37
  -4  -2  -4 19262.5 1186.85  35
   4   2   4 17004.1 1653.72  10
   4   2   4 18923.5 1534.30  20
  -4  -2  -4 14656.3 1968.76   1
  -4  -2  -4 15873.9 2375.40   7
   4   2   4 20364.4 1195.47  11
  -4  -2  -3 157241. 6526.90   1
   4   2   3 169595. 5421.01  10
  -4  -2  -3 161678. 7512.87   7
   4   2   3 170201. 3178.82  12
  -4  -2  -2 36042.2 3434.58   7
   4   2   2 35665.9 1232.59  12
  -4  -2  -2 35562.9 2878.71   1
   4   2   2 33386.8 2525.91   4
   4   2   2 36652.5 2223.07  10
  -4  -2  -1 274268. 8410.26   1
  -4  -2  -1 272829. 9967.44   7
   4   2   1 272608. 4804.83  12
   4   2   1 276572. 8034.75   4
   4   2   0 182122. 6519.97   4
  -4  -2   0 185879. 6555.74   1
   4   2   0 200007. 3805.25  12
   4   2  -1 149078. 3220.19  12
  -4  -2   1 137119. 7449.56   7
   4   2  -1 141866. 5856.95   4
   4   2  -2 279336. 8844.70   4
   4   2  -2 294274. 9916.00  22
   4   2  -2 286637. 5152.28  12
   4   2  -3 28924.4 2834.61  22
  -4  -2   3 28050.0 1443.28  31
  -4  -2   3 22785.2 3361.63   7
   4   2  -3 28704.3 1235.37  12
   4   2  -3 26345.8 2600.91   4
  -4  -2   3 27515.8 1243.46  40
   4   2  -4 265786. 8049.66   8
   4   2  -4 261179. 5114.22  36
  -4  -2   4 302507. 11667.2  17
  -4  -2   4 247693. 12383.8   7
   4   2  -4 279392. 5105.90  12
  -4  -2   4 285484. 5949.66  31
   4   2  -4 279890. 9122.34  22
   4   2  -4 289133. 9452.14   4
  -4  -2   4 295423. 6499.77  41
   4   2  -5 5091.62 523.826  12
  -4  -2   5 4331.74 1523.13   7
   4   2  -5 5106.99 1211.47   4
   4   2  -5 4284.43 494.759  36
  -4  -2   5 4838.56 673.399  31
  -4  -2   5 3966.18 753.553  41
  -4  -2   6 152524. 4171.27  31
   4   2  -6 139894. 3391.21  28
   4   2  -6 147985. 3262.91  12
   4   2  -6 140460. 3381.56  36
  -4  -2   6 159254. 5405.41  41
  -4  -2   6 162341. 10319.3  17
  -4  -2   6 152004. 3663.47  53
   4   2  -7 114443. 5373.02  21
   4   2  -7 111648. 2903.69  28
   4   2  -7 111605. 3017.01  34
  -4  -2   7 118347. 9141.31  17
  -4  -2   7 120009. 3654.10  31
  -4  -2   7 117467. 4770.33  41
  -4  -2   7 112652. 2998.42  53
   4   2  -7 112071. 2944.21  36
   4   2  -8 16032.8 1032.35  34
   4   2  -8 17008.4 966.425  45
   4   2  -8 15019.1 951.343  28
   4   2  -8 14230.9 1820.67  21
  -4  -2   8 17167.5 1751.62  41
  -4  -2   8 17132.3 1297.00  31
   4   2  -9 94039.7 4662.53  21
   4   2  -9 93713.2 2658.94  34
   4   2  -9 102787. 2486.75  45
  -4  -2   9 91801.3 3926.97  41
   4   2  -9 92456.2 2566.54  28
  -4  -2   9 91321.3 2931.46  54
   4   2 -10 2232.86 387.661  34
  -4  -2  10 1714.43 537.448  41
   4   2 -10 2188.57 336.373  45
  -4  -2  10 2054.40 395.518  54
  -4  -2  11 73745.7 1970.77  54
   4   2 -11 77713.4 1957.98  45
  -4  -2  11 74088.1 2824.55  41
   4   2 -11 77680.6 2106.61  27
   4   2 -12 22941.8 941.662  34
   4   2 -12 21008.4 853.537  27
   4   2 -12 20152.3 792.202  45
   3   2  15 5036.24 466.980  39
   3   2  15 4634.74 459.543  50
   3   2  14 67249.7 2043.22  50
   3   2  14 62455.9 1810.51  46
  -3  -2 -14 61840.8 2140.83  37
  -3  -2 -13 1472.46 421.067  37
   3   2  13 1258.46 286.969  46
  -3  -2 -13 1507.73 522.076  45
   3   2  12 80201.1 4074.58  20
  -3  -2 -12 82196.8 3041.08  37
  -3  -2 -12 83641.9 4134.87  45
   3   2  12 83679.9 2387.31  46
  -3  -2 -11 102708. 2735.22  35
   3   2  11 107301. 2765.31  46
   3   2  11 106073. 4890.26  23
  -3  -2 -11 103886. 3597.56  37
  -3  -2 -11 98963.5 5381.53  45
   3   2  11 110063. 4918.22  20
   3   2  10 37238.2 2802.80  20
  -3  -2 -10 36170.0 2012.69  37
   3   2  10 31945.0 2551.53  23
  -3  -2 -10 34835.7 1513.63  35
   3   2  10 34480.2 2556.64  10
   3   2   9 106614. 4504.74   3
   3   2   9 104750. 4456.11  23
  -3  -2  -9 104472. 3468.57  37
   3   2   9 111810. 4804.82  20
  -3  -2  -9 97392.6 5032.45   1
  -3  -2  -9 99912.5 2785.19  35
   3   2   8 25529.0 1992.26  23
   3   2   8 26714.0 2194.78  20
  -3  -2  -8 21933.0 3127.63  45
  -3  -2  -8 21718.5 1184.10  35
   3   2   8 26101.2 1042.55  13
  -3  -2  -8 25487.6 1504.46  37
   3   2   8 24566.1 2088.89   3
  -3  -2  -8 23499.8 2388.18   1
   3   2   7 230628. 7044.77   3
   3   2   7 242821. 6276.01  23
  -3  -2  -7 224900. 7699.03   1
   3   2   7 238468. 4337.65  13
   3   2   6 43182.0 2163.09  23
   3   2   6 40153.4 2733.65   3
   3   2   6 42714.1 1565.57  13
  -3  -2  -6 40708.9 2978.98   1
   3   2   6 38642.2 1718.08  11
   3   2   5 162689. 5860.47   3
  -3  -2  -5 154980. 5857.65   1
   3   2   5 160340. 3694.28  11
  -3  -2  -4 222747. 7896.73   7
   3   2   4 230764. 6663.72   4
  -3  -2  -4 216266. 6898.76   1
   3   2   4 233166. 4471.68  11
   3   2   4 240510. 6163.25  10
   3   2   3 6679.04 742.428  20
   3   2   3 6096.49 952.660   4
   3   2   3 6126.26 823.635  10
   3   2   3 5886.60 376.103  12
  -3  -2  -3 5987.55 1013.83   1
  -3  -2  -3 5776.07 1129.71   7
   3   2   2 304694. 5799.71  20
  -3  -2  -2 292878. 8578.77   7
   3   2   2 296282. 7278.04   4
   3   2   2 294728. 4686.24  12
   3   2   2 313996. 6647.16  10
  -3  -2  -2 291966. 7634.38   1
   3   2   1 4761.70 817.801   4
  -3  -2  -1 5052.51 994.233   7
  -3  -2  -1 5204.46 869.340   1
   3   2   1 5186.86 687.011  10
   3   2   1 4636.03 376.692  12
   3   2   0 184697. 3287.93  12
  -3  -2   0 178001. 6694.29   7
  -3  -2   0 178355. 5298.76   1
   3   2   0 188010. 5713.96   4
   3   2  -1 111526. 4416.02   4
  -3  -2   1 103892. 5306.27   7
  -3  -2   1 109903. 4248.53  17
  -3  -2   1 113338. 3822.53   1
   3   2  -1 110981. 2308.42  12
   3   2  -2 254196. 7214.78   4
  -3  -2   2 252633. 7420.28  17
   3   2  -2 241932. 4186.95  12
   3   2  -2 266227. 8205.66  22
   3   2  -3 443391. 10973.6  22
   3   2  -3 415382. 6517.60  12
   3   2  -3 424478. 10207.8   4
  -3  -2   3 434868. 11183.5  17
   3   2  -4 60089.9 1642.76  12
   3   2  -4 60931.9 3492.91   4
  -3  -2   4 61455.0 4228.42  17
   3   2  -4 66400.5 3753.02  22
   3   2  -5 281672. 4825.92  12
   3   2  -5 271596. 8170.67   4
   3   2  -6 29767.4 1301.11  36
  -3  -2   6 32823.1 3814.45  17
  -3  -2   6 30580.4 1526.47  31
   3   2  -6 31422.7 1319.66  28
   3   2  -6 33256.0 1205.00  12
   3   2  -6 28854.7 2507.98   4
   3   2  -7 189696. 6945.32  21
   3   2  -7 181236. 4004.96  36
   3   2  -7 176508. 3935.77  34
  -3  -2   7 195089. 9914.19  17
  -3  -2   7 202187. 9557.47   2
   3   2  -7 178499. 3887.49  28
  -3  -2   7 184820. 4440.02  31
   3   2  -7 173889. 6502.93   4
   3   2  -8 84278.9 2586.27  36
   3   2  -8 80091.8 2448.03  34
  -3  -2   8 81587.3 3474.19  38
  -3  -2   8 84234.3 2823.16  31
  -3  -2   8 90171.3 6955.44  17
   3   2  -8 92833.6 2361.75  45
   3   2  -8 85060.7 4636.81  21
   3   2  -8 79463.4 2435.20  28
  -3  -2   8 92615.7 3671.88  41
   3   2  -9 31563.2 2826.72  21
   3   2  -9 32163.2 1495.42  28
  -3  -2   9 37068.0 4503.64  17
  -3  -2   9 36158.8 2313.67  41
   3   2  -9 35437.1 1547.87  34
  -3  -2   9 32936.8 2180.96  38
  -3  -2   9 35182.0 1746.41  31
   3   2  -9 35883.3 1386.91  45
   3   2 -10 134804. 6063.97  21
   3   2 -10 130311. 3328.69  34
  -3  -2  10 138015. 4662.70  41
  -3  -2  10 141457. 8571.30  17
   3   2 -10 137512. 3111.30  45
  -3  -2  10 132782. 3446.49  54
  -3  -2  10 135773. 3578.13  31
  -3  -2  10 121080. 4347.24  38
   3   2 -11 2282.67 459.049  34
   3   2 -11 2133.86 386.117  45
  -3  -2  11 953.492 412.310  38
   3   2 -11 1927.16 422.258  27
  -3  -2  11 1258.31 529.246  41
   3   2 -12 124844. 2948.72  34
   3   2 -12 120024. 2975.78  27
   3   2 -12 114160. 2670.63  45
  -3  -2  12 124423. 3699.79  41
  -3  -2  12 125803. 3491.40  38
   3   2 -13 51992.9 1514.38  34
  -3  -2  13 52028.8 1839.94  41
   3   2 -13 50782.2 1562.85  27
  -3  -2  13 50184.5 1547.32  38
   2   2  16 45189.6 1447.78  50
   2   2  16 43666.8 1349.15  39
  -2  -2 -15 161457. 4061.67  45
   2   2  15 167710. 3604.55  46
  -2  -2 -15 162975. 3660.66  37
   2   2  15 171272. 3746.43  50
  -2  -2 -14 2830.36 541.734  37
   2   2  14 2842.38 505.445  50
   2   2  14 2835.34 462.963  46
  -2  -2 -14 3045.37 700.311  45
   2   2  13 90897.9 2737.65  46
  -2  -2 -13 91907.6 4068.89  45
   2   2  13 84444.2 4142.81  20
  -2  -2 -13 92215.8 3220.04  37
  -2  -2 -12 42635.4 2201.51  37
   2   2  12 40021.5 2870.62  20
   2   2  12 42696.2 1780.90  46
  -2  -2 -12 39370.4 2802.47  45
   2   2  11 106863. 4790.23  20
  -2  -2 -11 97960.9 4596.28  45
  -2  -2 -11 106352. 3585.33  37
   2   2  11 104545. 5059.85  23
   2   2  10 256772. 7572.22  20
  -2  -2 -10 243395. 5699.90  37
  -2  -2 -10 235461. 4563.74  35
   2   2  10 245397. 7658.88  23
  -2  -2 -10 225526. 7329.13  45
   2   2  10 240134. 7007.26   3
  -2  -2  -9 15085.2 1720.66   1
  -2  -2  -9 16257.8 894.459  35
  -2  -2  -9 17376.5 1842.84  45
  -2  -2  -9 17506.5 1231.55  37
   2   2   9 15854.5 1674.38  23
  -2  -2  -9 18123.6 1083.23  47
   2   2   9 17090.3 1651.15   3
   2   2   9 17486.1 1759.25  20
   2   2   8 541915. 11295.8   3
   2   2   8 562303. 8257.59  13
  -2  -2  -8 556719. 12341.8   1
   2   2   8 571662. 11479.1  23
   2   2   7 1454.82 378.601  26
  -2  -2  -7 1834.76 626.148   1
   2   2   7 1772.65 291.131  13
   2   2   7 2077.28 595.646   3
   2   2   7 1568.06 477.131  23
   2   2   6 114886. 2469.77  13
  -2  -2  -6 118185. 4453.21   1
   2   2   6 114862. 4181.13   3
   2   2   6 117463. 3638.29  23
   2   2   6 113435. 3233.93  26
  -2  -2  -5 231117. 6183.92   1
   2   2   5 228765. 6118.36   3
   2   2   5 232080. 4898.93  23
   2   2   4 342468. 5705.61  11
  -2  -2  -4 324395. 8521.84   7
   2   2   4 314919. 7651.47   4
   2   2   4 348571. 4801.67  12
  -2  -2  -4 347307. 7041.86  24
   2   2   4 343879. 6142.86  23
  -2  -2  -4 347174. 7860.25   1
   2   2   3 515511. 7040.95  12
   2   2   3 517664. 9848.20   4
   2   2   3 509392. 7324.47   9
  -2  -2  -3 524339. 10670.2   7
  -2  -2  -3 518428. 9961.23   1
  -2  -2  -3 521133. 9553.44  24
   2   2   2 34508.1 1330.66  20
   2   2   2 31992.7 817.742  12
  -2  -2  -2 31984.5 1989.08   7
   2   2   2 33940.6 1535.75  10
  -2  -2  -2 32856.5 1812.12   1
  -2  -2  -2 31986.7 1816.68  24
   2   2   2 32919.5 1768.99   4
  -2  -2  -1 304455. 7182.70   7
   2   2   1 313762. 4636.06  12
  -2  -2  -1 311091. 6497.46   1
  -2  -2  -1 325159. 6986.71  24
   2   2   1 316637. 5924.61  10
   2   2   1 328999. 6748.59   4
  -2  -2   0 72108.6 2363.43  17
   2   2   0 76832.6 2899.32   4
   2   2   0 77700.1 1528.76  12
  -2  -2   0 69719.8 2460.11   1
  -2  -2   0 72064.0 3223.55   7
  -2  -2   0 75265.5 2969.78  24
   2   2  -1 336290. 7295.99   4
  -2  -2   1 327248. 7276.63  24
  -2  -2   1 311647. 8202.54   7
  -2  -2   1 314641. 6069.21   1
   2   2  -1 336911. 4919.23  12
   2   2  -2 548851. 10622.8   4
   2   2  -2 543735. 7879.90  12
  -2  -2   2 567088. 8685.65   1
  -2  -2   2 553757. 10636.0  24
   2   2  -2 574270. 11663.3  22
   2   2  -3 2765.19 264.862  12
   2   2  -3 3322.42 705.832  22
  -2  -2   3 2534.51 864.857   2
   2   2  -3 2869.01 620.789   4
   2   2  -4 250221. 4023.55  12
   2   2  -4 244680. 6821.65  22
   2   2  -5 4449.96 791.969   4
   2   2  -5 6377.90 423.679  12
  -2  -2   5 5046.09 1197.70   2
  -2  -2   6 331181. 10469.7   2
   2   2  -6 310642. 7938.73   4
   2   2  -6 322987. 8641.41  21
   2   2  -7 133618. 5473.79  21
   2   2  -7 126187. 2973.63  28
  -2  -2   7 133726. 6590.12   2
   2   2  -7 131787. 4867.17   4
   2   2  -8 83430.1 2411.71  34
  -2  -2   8 88102.1 5488.83   2
   2   2  -8 96010.2 2295.18  45
   2   2  -8 90127.5 4702.38  21
   2   2  -8 83056.9 2452.56  28
  -2  -2   8 94923.0 3189.71  38
  -2  -2   8 85933.7 2594.44  31
  -2  -2   9 115618. 3832.16  38
   2   2  -9 112447. 2967.38  34
   2   2  -9 119347. 2773.66  45
  -2  -2   9 109708. 3067.40  31
   2   2  -9 107980. 3015.78  28
   2   2  -9 113248. 5569.49  21
  -2  -2   9 113816. 6385.67   2
   2   2 -10 36092.3 1462.89  45
   2   2 -10 40456.8 3394.50  21
   2   2 -10 37380.4 1629.62  34
  -2  -2  10 36230.7 2115.71  38
   2   2 -11 131012. 3172.48  45
   2   2 -11 136685. 3464.10  34
   2   2 -11 133696. 3621.94  27
   2   2 -11 131423. 6348.23  21
  -2  -2  11 130514. 7715.94  17
  -2  -2  11 129302. 4219.43  38
   2   2 -12 7772.88 716.226  34
  -2  -2  12 6857.11 882.753  41
   2   2 -12 7715.32 808.431  27
   2   2 -12 7114.51 626.523  45
  -2  -2  12 7104.36 899.714  38
   2   2 -13 36477.9 1546.31  27
  -2  -2  13 35669.5 1685.82  41
   2   2 -13 35702.9 1389.85  34
   2   2 -13 33896.6 1238.79  45
  -2  -2  13 36053.4 1722.11  38
  -2  -2  14 45363.0 1528.35  41
  -2  -2  14 48430.2 1594.76  38
  -1  -2 -16 64619.7 2041.17  45
   1   2  16 70375.7 2036.77  50
   1   2  16 67153.4 1776.44  39
  -1  -2 -16 61250.1 1701.69  37
  -1  -2 -15 1235.19 347.917  37
  -1  -2 -15 1782.44 458.576  45
   1   2  15 1480.42 389.684  46
   1   2  15 1886.77 414.789  50
   1   2  14 65033.1 2350.27  50
   1   2  14 66475.4 2367.62  46
  -1  -2 -14 68784.4 2572.48  37
  -1  -2 -14 67175.0 3139.06  45
   1   2  14 65223.5 2043.46  38
  -1  -2 -13 7542.64 910.818  37
   1   2  13 7792.56 693.028  38
  -1  -2 -13 7430.25 1132.13  45
   1   2  13 6814.27 747.383  46
  -1  -2 -12 147278. 4324.15  37
   1   2  12 130639. 5221.70  20
   1   2  12 141277. 3673.91  46
  -1  -2 -12 145348. 5156.51  45
   1   2  12 141839. 3398.31  38
   1   2  11 116435. 5032.73   3
   1   2  11 104503. 5137.11  23
   1   2  11 101983. 4411.00  20
  -1  -2 -11 101210. 2793.84  47
   1   2  11 108016. 2961.53  46
  -1  -2 -11 107332. 4200.16  45
   1   2  11 104294. 2709.88  38
  -1  -2 -10 104859. 2710.85  47
  -1  -2 -10 104059. 5847.50  21
   1   2  10 103145. 4263.78  20
   1   2  10 106654. 4524.11   3
   1   2  10 102689. 4803.23  23
  -1  -2 -10 108833. 3951.91  45
   1   2   9 285035. 7291.20  20
  -1  -2  -9 283837. 7404.90   1
  -1  -2  -9 288180. 9361.84  21
   1   2   9 283340. 7382.11   3
   1   2   9 277083. 7768.39  23
   1   2   8 1496.94 457.861  23
   1   2   8 1486.99 496.517  20
  -1  -2  -8 1123.01 439.439   1
  -1  -2  -8 1081.27 530.547  21
   1   2   8 1382.12 479.070   3
  -1  -2  -7 311784. 7302.55   1
   1   2   7 323584. 7133.40  20
  -1  -2  -7 319022. 8515.38  21
   1   2   7 321432. 7211.99   3
   1   2   7 309059. 7123.69  23
   1   2   6 10906.1 548.101  13
  -1  -2  -6 9733.15 1199.73  21
   1   2   6 10287.4 1056.73   3
   1   2   6 10895.2 1006.12  23
  -1  -2  -6 10501.1 1053.66   1
   1   2   5 479917. 7094.04  13
   1   2   5 478777. 9095.35   3
  -1  -2  -5 497852. 9096.15   1
   1   2   4 59275.7 1473.77  13
   1   2   4 64125.3 2077.18  20
  -1  -2  -4 58322.1 2246.23   1
  -1  -2  -4 54907.8 1933.40   6
   1   2   4 59467.5 2396.55   3
  -1  -2  -3 661508. 10190.8   1
   1   2   3 639450. 10999.7   4
  -1  -2  -3 649505. 9373.78   6
  -1  -2  -2 661527. 9923.39   6
  -1  -2  -2 662765. 10706.2   1
   1   2   2 663667. 11613.3   4
  -1  -2  -1 559081. 8968.24   7
  -1  -2  -1 576824. 8616.80   6
  -1  -2  -1 575942. 9069.19   1
   1   2   1 578268. 8736.48   5
   1   2   0 319876. 6031.06   4
   1   2   0 320460. 4449.99  12
   1   2  -1 15293.3 1054.43   4
  -1  -2   1 15216.8 666.935   1
   1   2  -1 15814.8 489.837  12
  -1  -2   1 15678.7 1366.45   2
   1   2  -2 13777.9 1033.17   4
  -1  -2   2 15381.8 1379.92   2
   1   2  -2 13428.8 1133.05  22
   1   2  -2 13920.4 477.964  12
   1   2  -3 504241. 9147.97   4
   1   2  -3 511000. 7058.96  12
   1   2  -3 483392. 9446.51  22
  -1  -2   3 515728. 10324.8   2
  -1  -2   4 10156.3 1226.85   2
   1   2  -4 10324.6 985.643   4
  -1  -2   5 372804. 9133.31   2
  -1  -2   5 384295. 8153.66  23
   1   2  -5 383266. 7810.09   4
   1   2  -5 356318. 8418.37  21
  -1  -2   6 88896.3 3902.13  23
   1   2  -6 93628.1 3372.99   4
   1   2  -6 86673.4 3898.27  21
  -1  -2   6 87561.4 4213.99   2
   1   2  -7 146995. 5679.10  21
  -1  -2   7 145632. 5933.22   2
  -1  -2   7 144806. 5765.71  23
   1   2  -8 104778. 5133.18  21
   1   2  -8 94596.8 2524.05  34
  -1  -2   8 101259. 5224.46   2
   1   2  -8 98368.2 2716.24  28
  -1  -2   8 99403.7 5180.63  23
  -1  -2   8 108955. 3129.26  38
  -1  -2   8 114399. 3305.61  43
   1   2  -9 43660.3 1732.79  34
  -1  -2   9 42832.1 3541.86   2
   1   2  -9 47078.7 1630.21  45
   1   2  -9 44143.0 3587.70  21
   1   2  -9 46317.9 1872.10  47
  -1  -2   9 48712.8 2173.07  38
  -1  -2   9 48706.9 2242.31  43
   1   2 -10 193566. 4421.42  34
   1   2 -10 189511. 4638.98  27
   1   2 -10 200215. 4555.00  47
   1   2 -10 198140. 8258.85  21
   1   2 -10 192804. 4145.96  45
  -1  -2  10 197496. 5086.38  38
   1   2 -11 18920.1 2542.75  21
  -1  -2  11 17925.0 1267.00  46
   1   2 -11 20191.8 1232.59  34
   1   2 -11 20621.1 1396.20  27
   1   2 -11 17357.8 1160.45  47
   1   2 -11 18118.4 1071.69  45
  -1  -2  11 18922.6 1452.03  38
   1   2 -12 91981.1 5415.80  21
  -1  -2  12 88563.2 2855.55  46
   1   2 -12 88129.7 2515.52  45
   1   2 -12 89205.1 2654.87  47
   1   2 -12 93682.4 3064.69  27
   1   2 -12 91747.6 2707.57  34
  -1  -2  12 89713.5 3215.98  38
   1   2 -13 22203.9 1125.85  34
  -1  -2  13 20994.4 1312.98  41
  -1  -2  13 22767.5 1444.02  38
   1   2 -13 22567.4 1342.89  27
  -1  -2  14 31630.0 1329.04  41
   1   2 -14 32929.0 1290.86  37
  -1  -2  14 34581.6 1510.82  38
   0  -2 -16 40498.3 1682.81  45
   0  -2 -16 35916.9 1272.05  37
   0   2  16 37893.5 1275.05  38
   0   2  16 40472.3 1475.78  50
   0  -2 -15 73609.6 2871.44  45
   0   2  15 71372.3 2379.14  46
   0  -2 -15 67415.3 2272.10  37
   0   2  15 69557.0 2047.29  39
   0   2  15 69115.2 2392.66  50
   0   2  15 66585.7 2110.34  38
   0   2  14 3081.44 559.933  50
   0   2  14 3878.52 593.901  46
   0  -2 -14 3912.56 814.093  45
   0  -2 -14 4175.52 661.884  37
   0   2  14 3281.17 503.232  38
   0   2  13 206271. 4830.08  46
   0  -2 -13 219207. 6052.73  45
   0   2  13 208195. 4888.09  50
   0   2  13 203370. 4609.57  38
   0   2  12 62414.1 2296.23  50
   0   2  12 59934.8 2262.53  46
   0  -2 -12 63344.2 2948.88  45
   0  -2 -12 55613.9 4360.99  21
   0   2  12 59172.9 2163.38  38
   0  -2 -11 138722. 6619.91  21
   0  -2 -11 143132. 3883.75  34
   0   2  11 133890. 3468.93  46
   0   2  11 135339. 3401.79  38
   0  -2 -11 140818. 4319.62  45
   0  -2 -10 91928.6 2732.78  34
   0   2  10 82466.4 3566.88  20
   0   2  10 91522.4 2534.49  46
   0  -2 -10 86541.7 2473.80  27
   0   2  10 90446.5 2469.92  38
   0  -2 -10 87922.7 4827.49  21
   0  -2 -10 92327.3 3053.29  45
   0   2   9 10155.8 1109.63  20
   0   2   9 12522.3 1535.27   3
   0  -2  -9 10199.6 1470.85  21
   0   2   8 273067. 7226.43  23
   0   2   8 266615. 6276.95  20
   0  -2  -8 279333. 6311.24   1
   0  -2  -8 273170. 7540.28  21
   0  -2  -7 12038.9 1268.20  21
   0   2   7 10326.5 1140.24  23
   0  -2  -7 11463.1 1011.51   1
   0   2   7 13082.9 1270.27   3
   0   2   7 10503.0 972.640  20
   0  -2  -6 618425. 11331.8  21
   0   2   6 646842. 10588.1  20
   0  -2  -6 645119. 11442.4   6
   0   2   6 625430. 11264.1  23
   0   2   6 646659. 11265.3   3
   0   2   5 48966.7 1806.79  20
   0  -2  -5 50733.0 2076.05  21
   0   2   5 54334.5 2138.12   3
   0  -2  -5 47821.1 2079.76   6
   0   2   5 49106.5 2037.03  23
   0  -2  -4 159974. 3884.82   6
   0  -2  -4 165686. 2591.96  15
   0  -2  -3 291862. 5511.54   6
   0   2   3 299124. 4711.05  10
   0   2   3 293490. 5270.43   3
   0   2   2 728.965 198.222   5
   0   2   2 429.196 145.303   3
   0  -2  -2 324.061 175.396   6
   0  -2  -1 494263. 8345.55   6
   0   2   1 481982. 8037.99   5
   0  -2   0 5966.03 489.715   2
   0   2   0 5184.95 652.115   5
   0   2   0 7187.72 845.651   4
   0  -2   1 801257. 11430.5   2
   0  -2   1 799294. 11843.0   9
   0   2  -2 602469. 10217.7   4
   0  -2   2 596820. 10124.5   9
   0  -2   3 4561.87 659.319  16
   0   2  -3 3688.24 510.798   4
   0  -2   3 3331.25 486.501   2
   0   2  -3 3555.30 559.432  21
   0  -2   4 822550. 12999.2   2
   0   2  -4 758833. 12300.5   4
   0   2  -4 705132. 13373.7  21
   0  -2   4 874510. 13846.7  26
   0  -2   5 84470.4 3553.93  26
   0  -2   5 87902.3 3204.39   2
   0  -2   6 388883. 8441.13   2
   0  -2   6 377441. 8583.80  23
   0  -2   6 373516. 9220.63  26
   0   2  -7 285232. 8989.57  21
   0  -2   7 319899. 8148.34   2
   0  -2   7 303241. 8913.65  26
   0  -2   7 307762. 8275.58  23
   0   2  -8 108279. 5736.09  21
   0  -2   8 111639. 5090.68  23
   0  -2   8 118521. 4984.64   2
   0  -2   9 207098. 7440.57   2
   0   2  -9 219239. 4725.42  34
   0   2  -9 205053. 5004.63  27
   0   2  -9 220408. 4697.15  48
   0  -2   9 223930. 4999.33  43
   0   2  -9 229827. 5056.57  47
   0   2  -9 214782. 8865.13  21
   0  -2   9 205253. 7719.45  23
   0   2 -10 34794.8 1648.29  34
   0   2 -10 34408.5 1873.57  27
   0  -2  10 33110.3 1746.20  43
   0   2 -10 33784.4 1740.92  47
   0   2 -10 32653.5 3553.53  21
   0  -2  10 31528.0 3070.06  23
   0  -2  10 34004.4 1797.94  38
   0  -2  11 241310. 5624.13  43
   0   2 -11 250024. 5941.71  27
   0  -2  11 243994. 5740.21  38
   0   2 -11 247232. 5593.68  47
   0   2 -11 248340. 10037.5  21
   0  -2  11 230681. 8814.24  23
   0   2 -11 248352. 5272.89  34
   0   2 -12 70153.0 2581.53  47
   0   2 -12 80303.3 2955.92  27
   0  -2  12 75442.7 2825.56  38
   0   2 -12 75110.0 5084.26  21
   0   2 -13 53641.8 2038.20  37
   0  -2  13 51135.7 2006.25  46
   0   2 -13 54988.2 2037.04  47
   0  -2  13 52581.3 2183.76  38
   0   2 -14 63473.9 1942.25  37
   0   2 -14 56685.9 1704.07  47
   0  -2  14 61556.1 1894.56  46
   0  -2  14 61271.6 2088.19  38
   0  -2  14 62018.6 1825.34  41
   0   2 -15 8269.02 500.155  37
   0  -2  15 8498.14 565.892  38
   1  -2 -16 56093.6 1911.72  45
  -1   2  16 53245.8 1642.62  38
   1  -2 -15 19866.2 1117.37  37
   1  -2 -15 20729.4 1404.19  45
  -1   2  15 19736.3 1133.84  38
   1  -2 -14 96294.8 3442.44  45
  -1   2  14 101543. 3308.18  50
  -1   2  14 92387.7 2867.79  38
   1  -2 -13 27639.7 1637.24  34
  -1   2  13 26048.4 1532.78  46
  -1   2  13 27169.3 1506.90  38
   1  -2 -13 28448.1 1818.43  45
  -1   2  13 29576.9 1755.43  50
   1  -2 -13 24453.6 2707.39  21
   1  -2 -12 224671. 5070.82  34
  -1   2  12 202567. 4873.95  46
  -1   2  12 210966. 7396.30  17
   1  -2 -12 209280. 4575.26  27
   1  -2 -12 220270. 5466.91  45
  -1   2  12 225243. 5309.48  50
   1  -2 -12 211979. 8180.66  21
  -1   2  12 208754. 4844.77  38
  -1   2  11 38633.4 4002.92   2
  -1   2  11 31674.8 2729.84  17
   1  -2 -11 35566.7 1807.17  45
  -1   2  11 33628.1 1629.61  46
   1  -2 -11 34299.4 1618.86  34
   1  -2 -11 34198.6 2968.92  21
  -1   2  11 35823.5 1756.31  50
   1  -2 -11 33331.9 1448.44  27
  -1   2  11 33457.5 1608.80  38
  -1   2  10 15257.7 2401.25   2
   1  -2 -10 15152.3 1039.15  45
  -1   2  10 14153.9 994.286  50
   1  -2 -10 14645.5 850.952  27
  -1   2  10 14651.6 975.267  46
   1  -2 -10 14837.4 940.892  34
  -1   2  10 12801.4 1669.38  17
   1  -2 -10 14385.2 1783.57  21
  -1   2  10 14065.3 962.798  38
  -1   2   9 244135. 9503.86   2
  -1   2   9 222894. 7093.06  17
   1  -2  -9 225026. 6824.21  21
   1  -2  -8 14929.5 1427.58  21
  -1   2   8 14238.1 1535.35  17
  -1   2   8 17329.3 2261.14   2
  -1   2   7 559722. 14102.5   2
   1  -2  -7 528686. 10250.1  21
   1  -2  -7 564475. 9452.24  19
  -1   2   7 553312. 11258.7  17
   1  -2  -6 498721. 8876.12  21
   1  -2  -6 489641. 8057.79  19
  -1   2   6 521305. 10003.2  17
   1  -2  -6 514821. 9796.88   6
   1  -2  -6 482871. 7820.29  25
   1  -2  -5 101863. 1988.32  15
   1  -2  -5 105691. 3376.75   6
  -1   2   5 104402. 3201.63  18
  -1   2   5 105055. 3435.53  17
   1  -2  -5 100110. 2481.83  19
   1  -2  -5 108886. 2808.22  21
  -1   2   5 96506.4 5204.07   2
   1  -2  -4 579824. 7785.75  15
   1  -2  -4 601670. 9772.52   6
  -1   2   3 16857.4 1300.44   2
  -1   2   3 16076.0 1077.12  17
   1  -2  -3 15444.8 576.001  15
   1  -2  -3 16772.2 1081.93   6
  -1   2   2 264801. 5096.54   7
   1  -2  -2 266773. 5316.85   6
  -1   2   2 256691. 4442.85   2
   1  -2  -1 41897.7 1349.05   8
   1  -2  -1 42705.1 1903.66   6
  -1   2   1 40330.4 1559.19   7
  -1   2   1 43038.6 1697.92   5
  -1   2   0 342639. 6909.15   5
  -1   2   0 346794. 6292.62   7
   1  -2   0 346411. 4699.63   3
   1  -2   0 337158. 7373.42   6
   1  -2   1 512000. 7537.95   8
  -1   2  -1 503293. 9275.36   7
   1  -2   1 519839. 7284.04   3
  -1   2  -1 499989. 10002.2   5
  -1   2  -2 12067.7 908.536   1
   1  -2   2 13058.3 671.560   3
   1  -2   2 13798.8 1181.61   9
   1  -2   3 202564. 5170.16   9
   1  -2   3 211680. 5449.81  16
   1  -2   3 208294. 4014.25   3
   1  -2   4 894.852 360.255   9
  -1   2  -4 490.120 535.599  21
   1  -2   4 982.203 410.525  16
   1  -2   4 1103.67 292.774   3
  -1   2  -4 940.782 297.534   1
  -1   2  -5 246210. 5404.68   1
   1  -2   5 230084. 6247.01  16
   1  -2   6 62787.6 3314.29  26
   1  -2   6 65098.5 2667.72   3
  -1   2  -7 108426. 6497.71  21
   1  -2   7 129388. 5324.73  26
   1  -2   8 189602. 5954.42   2
  -1   2  -8 180511. 3864.69  48
  -1   2  -8 195206. 4490.83  47
  -1   2  -8 172537. 8652.17  21
   1  -2   8 182467. 6998.31  26
   1  -2   8 181187. 6679.87  23
  -1   2  -9 41197.6 2225.15  27
   1  -2   9 49245.5 3758.06  26
  -1   2  -9 46452.7 1809.81  48
   1  -2   9 48129.2 3076.02   2
   1  -2   9 44968.2 1838.92  43
   1  -2   9 45122.4 3401.39  23
  -1   2  -9 51329.2 4701.74  21
  -1   2  -9 51127.0 2237.10  47
   1  -2  10 179807. 4365.29  43
   1  -2  10 174380. 7253.54  23
  -1   2 -10 183200. 4220.25  48
  -1   2 -10 191577. 4940.32  47
  -1   2 -10 185491. 9100.74  21
  -1   2 -11 12391.6 1148.83  47
   1  -2  11 12591.2 1002.59  43
   1  -2  11 11121.7 1826.07  23
  -1   2 -11 14361.5 1218.61  37
  -1   2 -11 9687.10 2009.07  21
   1  -2  11 12461.0 1083.05  38
  -1   2 -12 99617.2 3160.15  37
   1  -2  12 87484.9 4929.52  23
  -1   2 -12 96087.0 3238.21  47
   1  -2  12 95756.2 3091.33  38
  -1   2 -13 51476.1 2012.98  37
  -1   2 -13 48301.2 2013.36  47
   1  -2  13 49955.3 2011.80  38
  -1   2 -14 48520.9 1714.33  47
   1  -2  14 54440.4 1798.76  46
  -1   2 -14 53349.1 1750.17  37
   1  -2  14 51160.4 1772.05  38
   2  -2 -16 23572.1 1035.93  45
  -2   2  16 23101.0 982.151  38
  -2   2  15 62470.0 2091.85  38
   2  -2 -15 63363.5 2250.62  45
   2  -2 -14 28024.7 1597.33  45
   2  -2 -14 29293.8 1503.12  34
  -2   2  14 27916.5 1509.93  38
  -2   2  14 25949.1 1136.89  41
   2  -2 -13 140244. 3700.72  34
   2  -2 -13 141045. 3971.67  45
  -2   2  13 139064. 3838.27  38
  -2   2  13 130285. 3274.66  41
   2  -2 -13 138189. 3307.28  29
   2  -2 -12 52562.2 2055.36  34
  -2   2  12 45360.1 3489.01  17
   2  -2 -12 48592.2 1741.44  27
   2  -2 -12 51656.1 2201.91  45
  -2   2  12 48681.7 1916.42  41
   2  -2 -12 52582.4 1825.97  29
   2  -2 -12 47847.3 3465.70  21
  -2   2  12 49438.2 2170.44  38
   2  -2 -11 74569.9 4223.33  21
   2  -2 -11 77728.2 2412.04  34
   2  -2 -11 74590.7 2156.44  27
  -2   2  11 72280.6 2421.29  41
   2  -2 -11 77491.0 2543.24  45
  -2   2  11 71387.4 4502.42  17
  -2   2  11 75281.6 2668.16  38
  -2   2  10 83604.4 2216.30  54
   2  -2 -10 82347.5 4129.05  21
   2  -2 -10 85440.3 2485.67  45
  -2   2  10 71114.7 6751.32   2
  -2   2  10 84313.8 2752.87  46
  -2   2  10 81623.2 4738.05  17
   2  -2 -10 83666.4 2378.74  34
  -2   2  10 82407.9 2537.46  41
  -2   2  10 84318.9 2745.50  38
   2  -2  -9 17287.1 904.882  45
  -2   2   9 16527.9 873.289  54
   2  -2  -9 15805.5 1608.10  21
  -2   2   9 15941.3 2012.73  17
  -2   2   9 16402.5 1057.99  46
  -2   2   9 14025.7 3174.63   2
   2  -2  -9 16608.1 874.557  34
  -2   2   9 15644.7 978.402  41
  -2   2   9 17004.5 1087.01  38
   2  -2  -8 267886. 6762.76  21
   2  -2  -8 267638. 5823.67  19
  -2   2   8 283549. 8505.59  17
   2  -2  -7 1197.03 366.728  21
  -2   2   7 1069.21 551.572  17
   2  -2  -7 1245.23 316.722  19
  -2   2   7 1761.66 982.244   2
  -2   2   6 194595. 8944.07   2
   2  -2  -6 197387. 5591.44   6
   2  -2  -6 214545. 3712.90  15
  -2   2   6 214569. 6598.45  17
   2  -2  -6 210886. 4899.28  21
   2  -2  -5 368604. 6575.62  21
   2  -2  -5 361087. 7564.01   6
   2  -2  -5 341812. 5503.37  15
  -2   2   5 368246. 8608.54  17
  -2   2   5 342335. 9811.70   2
  -2   2   4 437034. 9261.32  17
   2  -2  -4 418870. 6427.63  15
   2  -2  -4 425787. 7878.18   8
   2  -2  -4 428691. 8242.70   6
   2  -2  -3 765144. 12457.4   6
   2  -2  -3 759447. 12184.5   8
   2  -2  -3 759296. 10759.7  15
  -2   2   3 776602. 13655.3   7
   2  -2  -2 2602.96 466.021   8
   2  -2  -2 2804.78 490.320   6
   2  -2  -2 3334.86 275.117  14
  -2   2   2 3418.01 656.595   7
  -2   2   1 633212. 11499.8   7
   2  -2  -1 619754. 8899.10  14
   2  -2  -1 617788. 10779.8   6
   2  -2  -1 640269. 10241.6   8
  -2   2   0 11419.3 964.180   5
  -2   2   0 11212.4 1088.15   1
   2  -2   0 11537.0 882.630   8
  -2   2   0 10114.0 1087.35   7
   2  -2   0 11235.5 1158.24   6
   2  -2   1 182443. 3646.23   3
   2  -2   1 183099. 4037.90   8
  -2   2  -1 188043. 5355.94   7
  -2   2  -1 183225. 4927.02   1
   2  -2   1 183485. 5833.43   6
  -2   2  -1 186001. 5110.36   5
   2  -2   2 513171. 8367.19   8
  -2   2  -2 527312. 11025.0   7
  -2   2  -2 526786. 9970.52   1
   2  -2   2 529323. 8230.83   3
   2  -2   3 174611. 5333.65   9
  -2   2  -3 151414. 5617.59   7
   2  -2   3 162705. 3619.97   3
   2  -2   3 160888. 3381.88   8
  -2   2  -3 154281. 4634.75   1
  -2   2  -3 169947. 6010.26   5
   2  -2   4 321391. 7772.24  16
   2  -2   4 297676. 7432.51   9
   2  -2   4 305078. 5882.51   3
  -2   2  -4 328439. 9132.88   5
  -2   2  -4 283787. 6960.80   1
   2  -2   5 3368.54 725.404   9
   2  -2   5 2096.64 588.690  16
  -2   2  -5 1550.20 475.760   1
  -2   2  -5 2589.59 743.834   5
   2  -2   5 2450.73 446.924   3
   2  -2   6 268632. 7427.89  16
   2  -2   6 298296. 6381.74   3
  -2   2  -6 269245. 6983.04   1
  -2   2  -6 303183. 9173.68   5
   2  -2   7 181755. 5121.05   3
   2  -2   7 184540. 6710.29  26
  -2   2  -7 188750. 7306.65   5
  -2   2  -8 44568.7 1736.17  48
  -2   2  -8 49200.9 2238.48  47
   2  -2   8 47525.3 3457.66  26
  -2   2  -9 196381. 5154.33  47
  -2   2  -9 180475. 4163.30  48
   2  -2   9 187009. 7522.93  26
   2  -2   9 181979. 7338.90  23
   2  -2   9 183229. 5947.33   2
  -2   2 -10 4405.18 762.971  37
  -2   2 -10 3400.62 512.133  48
   2  -2  10 2396.44 882.490  23
   2  -2  10 1853.53 872.448  26
  -2   2 -10 2959.34 665.476  47
   2  -2  10 3881.75 520.932  43
  -2   2 -11 119260. 3920.10  47
  -2   2 -11 109747. 3041.71  48
   2  -2  11 113064. 3022.00  43
  -2   2 -11 122086. 3803.79  37
   2  -2  11 101543. 5445.35  23
   2  -2  11 111352. 3264.70  38
  -2   2 -12 8578.35 906.573  37
  -2   2 -12 8114.44 939.340  47
   2  -2  12 8336.64 799.555  38
   2  -2  12 7471.75 1386.66  23
  -2   2 -13 63555.0 2165.82  37
   2  -2  13 58602.9 1974.86  38
  -2   2 -13 60101.4 2268.13  47
  -2   2 -14 49826.0 1566.65  37
   2  -2  14 51827.3 1636.99  46
   2  -2  14 49027.4 1374.95  50
   3  -2 -15 16310.3 894.176  45
  -3   2  15 17947.2 967.570  38
  -3   2  14 114711. 3163.05  38
   3  -2 -14 109043. 2942.21  45
   3  -2 -14 104314. 2501.40  29
   3  -2 -14 106095. 2717.36  34
   3  -2 -13 3178.46 480.005  34
   3  -2 -13 3725.09 582.837  45
   3  -2 -13 3675.16 468.754  29
  -3   2  13 3581.71 623.576  38
   3  -2 -12 75406.3 2373.23  34
   3  -2 -12 78719.3 2558.47  45
  -3   2  12 79953.1 2222.17  54
  -3   2  12 75030.4 2494.46  41
  -3   2  12 78578.2 2891.44  38
  -3   2  11 82716.0 2371.62  54
  -3   2  11 83894.1 3003.20  38
   3  -2 -11 79722.9 4012.93  21
   3  -2 -11 81860.2 2499.69  45
   3  -2 -11 83686.9 2446.89  34
  -3   2  11 80042.0 2680.05  41
   3  -2 -10 70249.8 2101.24  34
  -3   2  10 65976.5 2112.16  54
   3  -2 -10 67233.5 3560.87  21
   3  -2 -10 69012.8 2110.24  45
  -3   2  10 66804.1 2602.71  38
  -3   2  10 64018.8 2391.58  41
  -3   2  10 63111.1 4450.68  17
   3  -2  -9 198281. 3923.84  34
   3  -2  -9 204564. 3972.87  45
   3  -2  -9 204766. 6192.03  21
  -3   2   9 200377. 8959.00   7
  -3   2   9 194748. 8007.81  17
  -3   2   9 201725. 4230.64  54
  -3   2   9 194925. 4605.93  41
  -3   2   9 192400. 4764.21  38
   3  -2  -8 3262.18 663.835  21
   3  -2  -8 3419.25 645.938  19
   3  -2  -8 3105.67 351.264  34
  -3   2   8 2504.47 872.568  17
   3  -2  -8 4093.97 411.807  45
  -3   2   8 4197.88 486.283  54
  -3   2   8 3283.26 1035.97   7
  -3   2   8 3089.23 490.282  41
  -3   2   8 3099.44 492.789  38
   3  -2  -7 267520. 6364.83  21
  -3   2   7 251041. 8677.58  17
  -3   2   7 259790. 5177.69  41
  -3   2   7 288658. 10284.5   2
  -3   2   7 264103. 4891.52  54
   3  -2  -7 262029. 4365.64  45
  -3   2   7 235127. 8900.52   7
   3  -2  -7 232517. 5835.97  19
  -3   2   7 248491. 5191.25  38
   3  -2  -6 48362.6 2209.07  21
  -3   2   6 41000.9 3295.55   7
   3  -2  -6 43499.1 1415.30  15
   3  -2  -5 153414. 3101.35  15
   3  -2  -5 161623. 4759.79   8
  -3   2   5 160307. 6332.38   7
   3  -2  -5 165634. 4755.78   6
   3  -2  -4 472187. 7422.16  15
  -3   2   4 487897. 11728.6   7
   3  -2  -4 480376. 9542.26   8
   3  -2  -4 503957. 9307.52   6
  -3   2   3 58722.9 3420.30   7
   3  -2  -3 53476.4 1605.39  15
   3  -2  -3 60559.5 2373.34   6
   3  -2  -3 58225.7 2638.70   8
   3  -2  -2 438383. 8025.95   6
  -3   2   2 427189. 10324.5   7
   3  -2  -2 427830. 8701.02   8
   3  -2  -2 423570. 6881.56  15
   3  -2  -1 22645.3 1567.47   8
  -3   2   1 23257.7 2052.06   7
   3  -2  -1 22061.5 915.671  14
   3  -2  -1 22878.3 1381.96   6
   3  -2   0 431445. 8572.38   8
   3  -2   0 436576. 8428.79   6
  -3   2   0 422845. 10313.5   7
  -3   2  -1 251028. 7605.12   7
   3  -2   1 252997. 5892.34   8
  -3   2  -1 248889. 6992.01   1
   3  -2   1 260774. 6739.20   6
   3  -2   1 256880. 5406.05   3
  -3   2  -2 115733. 4569.65   1
   3  -2   2 113950. 3495.24   8
   3  -2   2 107609. 4839.99   6
   3  -2   2 120463. 3282.38   3
  -3   2  -2 117196. 5151.99   7
  -3   2  -2 122105. 3898.35   5
  -3   2  -3 160407. 5563.51   1
   3  -2   3 167676. 4082.33   3
  -3   2  -3 165251. 6583.32   7
  -3   2  -4 3648.54 845.947   1
   3  -2   4 4528.84 621.523   3
   3  -2   4 3904.41 938.064   9
   3  -2   5 184928. 6160.92   9
   3  -2   5 191971. 6213.58  16
   3  -2   5 193216. 4746.04   3
  -3   2  -5 172087. 6103.80   1
  -3   2  -6 49642.3 2706.07  37
   3  -2   6 42303.4 2793.85  16
  -3   2  -6 44841.3 1712.49  48
  -3   2  -6 41753.1 2869.22   1
  -3   2  -6 49543.5 2176.89  47
   3  -2   6 43374.3 2135.07   3
   3  -2   6 41757.4 2838.68   9
  -3   2  -7 151024. 4392.78  47
  -3   2  -7 141596. 3489.38  48
   3  -2   7 153119. 6275.70  26
  -3   2  -7 138216. 5417.74   1
   3  -2   7 140951. 5414.48  16
  -3   2  -8 90213.8 3869.80  37
  -3   2  -8 85876.2 3308.85  47
   3  -2   8 75452.2 4506.14  26
  -3   2  -8 75601.6 2426.87  48
  -3   2  -9 12542.8 1357.76  37
  -3   2  -9 11168.6 1248.64  47
   3  -2   9 11460.6 1759.05  26
  -3   2  -9 10668.0 859.113  48
   3  -2   9 10484.7 1735.51  23
  -3   2 -10 219629. 4684.05  48
  -3   2 -10 228569. 6072.27  47
   3  -2  10 213932. 8044.94  26
   3  -2  10 223743. 8239.63  23
  -3   2 -11 29977.7 1772.50  37
   3  -2  11 24923.4 1255.44  38
  -3   2 -11 24615.9 1739.12  47
  -3   2 -11 25463.0 1263.88  48
   3  -2  11 25482.9 2513.43  23
  -3   2 -12 90019.5 2833.10  37
   3  -2  13 29755.2 1243.61  46
  -3   2 -13 31274.6 1301.32  37
   4  -2 -14 950.229 202.843  45
   4  -2 -13 95357.2 2293.04  29
   4  -2 -13 89514.3 2238.73  34
  -4   2  13 97894.0 2167.95  54
   4  -2 -13 95276.9 2477.19  45
  -4   2  13 103183. 3065.41  38
   4  -2 -12 6696.04 575.224  34
   4  -2 -12 6583.76 577.290  29
   4  -2 -12 7316.87 671.887  45
  -4   2  12 6685.00 573.702  54
  -4   2  12 7031.92 854.978  38
   4  -2 -11 44832.6 1590.94  34
  -4   2  11 43883.8 1609.35  54
  -4   2  11 47256.2 2318.92  38
   4  -2 -11 46680.1 1682.69  45
   4  -2 -10 120134. 2858.15  34
  -4   2  10 124456. 3109.05  54
   4  -2 -10 126415. 2946.96  45
  -4   2  10 126312. 4043.16  38
   4  -2  -9 62267.7 2818.24  19
   4  -2  -9 58607.1 1773.67  34
  -4   2   9 54211.2 1961.97  54
   4  -2  -9 59697.0 1804.57  45
  -4   2   9 59796.5 2673.40  38
   4  -2  -8 223269. 6049.36  19
  -4   2   8 239770. 4890.70  54
   4  -2  -8 243419. 4391.22  45
   4  -2  -8 237701. 4617.04  12
  -4   2   8 232292. 5747.23  38
   4  -2  -8 243248. 4335.66  34
  -4   2   7 106461. 3457.89  38
   4  -2  -7 110798. 2473.15  45
   4  -2  -7 109745. 2388.21  34
  -4   2   7 111612. 2940.99  54
  -4   2   6 36525.5 3526.67   7
  -4   2   6 38502.0 1569.58  54
   4  -2  -6 40022.4 1403.11  15
  -4   2   6 37372.9 1879.55  38
  -4   2   5 12322.2 2005.80   7
  -4   2   5 14190.7 884.746  54
  -4   2   5 12564.1 1039.07  38
  -4   2   5 13544.8 745.034  53
   4  -2  -5 12155.9 748.017  15
   4  -2  -4 88330.5 3821.09   8
  -4   2   4 89577.7 2343.08  54
   4  -2  -4 88368.0 2251.52  15
  -4   2   4 90265.7 5278.00   7
  -4   2   4 84003.9 2134.94  53
   4  -2  -3 181058. 5685.34   8
  -4   2   3 173503. 7267.44   7
   4  -2  -3 182311. 3695.50  15
  -4   2   2 5326.51 1220.05   7
   4  -2  -2 5448.70 938.541   8
   4  -2  -2 5839.63 563.922  15
  -4   2   1 232526. 8363.36   7
   4  -2  -1 239113. 4815.67  15
   4  -2  -1 243514. 6678.79   8
  -4   2   0 11747.6 1804.22   7
   4  -2   0 12855.7 1374.19   8
  -4   2  -1 168746. 7158.83   7
   4  -2   1 171331. 5324.38   8
  -4   2  -2 39636.7 2106.54  37
  -4   2  -2 37015.0 1372.12  32
  -4   2  -2 41355.2 1281.69  53
  -4   2  -2 38206.7 3382.45   7
   4  -2   2 39606.1 2306.78   8
  -4   2  -3 36645.6 2172.70  37
  -4   2  -3 36642.3 1388.29  32
  -4   2  -3 41874.1 3687.12   7
  -4   2  -3 37994.2 1650.51  48
  -4   2  -3 40600.6 1241.35  53
   4  -2   3 41178.7 2240.05   8
   4  -2   3 45617.4 3325.68   9
  -4   2  -3 42268.2 3214.76   1
  -4   2  -4 133748. 3101.59  32
  -4   2  -4 134172. 3449.50  48
  -4   2  -4 151672. 2828.31  53
   4  -2   4 146752. 5919.60   9
  -4   2  -4 143607. 6185.48   1
  -4   2  -4 140615. 4792.25  37
   4  -2   5 12673.2 1607.27   9
  -4   2  -5 14928.1 1539.64  37
  -4   2  -5 17129.9 782.104  53
  -4   2  -5 11751.2 776.436  32
  -4   2  -5 13760.6 963.964  48
   4  -2   5 14232.1 1675.90  16
  -4   2  -5 14315.4 1896.11   1
  -4   2  -6 146989. 3634.59  48
  -4   2  -6 149861. 3247.84  32
  -4   2  -7 20154.1 1919.61  37
  -4   2  -7 17230.9 1082.60  48
   4  -2   7 19445.3 2154.51  26
  -4   2  -8 41854.2 1688.85  48
   4  -2   8 43425.8 3213.13  26
   4  -2   8 45543.2 3432.70  23
   4  -2   9 116321. 5311.73  26
  -4   2  -9 122125. 3072.31  48
   4  -2   9 119843. 5607.82  23
  -4   2 -10 567.526 243.467  48
  -4   2 -10 311.451 383.276  37
  -4   2 -11 98246.4 2958.88  37
  -4   2 -12 8525.69 655.295  37
   4  -2  12 6540.11 484.732  46
  -5   2  12 125515. 2500.97  54
   5  -2 -12 125164. 2562.53  29
  -5   2  11 30636.9 1178.78  54
   5  -2 -11 29480.3 1131.92  45
   5  -2 -11 31744.5 1174.20  29
  -5   2  10 71094.4 3049.80  38
   5  -2 -10 66293.4 1832.56  45
  -5   2  10 65155.5 1951.11  54
  -5   2   9 122990. 3004.48  54
   5  -2  -9 123361. 2716.82  45
   5  -2  -8 9543.42 1099.31  19
   5  -2  -8 9904.19 629.908  45
  -5   2   8 7204.25 690.187  54
  -5   2   8 8804.40 1190.05  38
   5  -2  -8 8703.72 1023.90  25
   5  -2  -7 115956. 4174.55  19
   5  -2  -7 120792. 3084.96  12
  -5   2   7 122906. 3125.05  54
   5  -2  -6 33243.5 2175.74  19
  -5   2   6 37254.3 1539.69  54
  -5   2   6 35422.9 1245.60  53
  -5   2   5 246837. 4854.89  54
  -5   2   5 240773. 4489.49  53
  -5   2   4 101666. 2623.29  54
  -5   2   4 96893.7 2462.99  53
   5  -2  -3 3097.20 819.885   8
  -5   2   3 2704.80 368.056  54
  -5   2   3 2704.27 372.830  53
   5  -2  -2 270309. 7659.14   8
  -5   2   2 252526. 5198.54  32
  -5   2   2 264008. 4852.80  53
  -5   2   1 20602.6 1173.93  32
   5  -2  -1 19154.1 1866.70   8
   5  -2   0 159948. 5550.91   8
  -5   2   0 148814. 3232.62  53
  -5   2   0 150002. 3494.55  32
  -5   2  -1 66417.5 2973.57  37
   5  -2   1 68643.8 3461.75   8
  -5   2  -1 67836.9 2157.90  32
  -5   2  -1 69292.8 1942.39  53
  -5   2  -2 59346.6 1996.15  32
  -5   2  -2 59001.3 1745.03  53
  -5   2  -2 56667.9 2844.08  37
   5  -2   3 116322. 5261.20   9
  -5   2  -3 121745. 3198.76  48
  -5   2  -3 114234. 4343.51  37
  -5   2  -3 119211. 2635.38  53
  -5   2  -3 112564. 2953.42  32
  -5   2  -4 6474.98 515.484  53
  -5   2  -4 5687.87 594.264  32
  -5   2  -4 4361.31 539.665  48
  -5   2  -4 5320.65 955.862  37
  -5   2  -5 182790. 4131.63  48
   5  -2   5 189158. 4509.97  14
  -5   2  -5 184401. 4010.99  32
  -5   2  -6 72000.6 2084.74  32
   5  -2   6 72432.4 2503.62  14
  -5   2  -6 70294.0 2186.25  48
  -5   2  -7 33104.5 1359.19  48
  -5   2  -7 34143.6 1248.63  32
   5  -2   7 30670.8 2463.59  23
  -5   2  -8 45159.8 2411.02  37
  -5   2  -8 37017.9 1360.96  48
  -5   2  -9 27434.3 1576.62  37
  -5   2  -9 20934.1 905.633  48
  -5   2 -10 112164. 2892.81  37
  -5   2 -11 2060.79 269.880  37
  -6   2  10 31969.0 1043.12  54
   6  -2  -9 4359.66 387.786  29
  -6   2   9 4137.20 411.548  54
   6  -2  -9 3689.06 297.481  45
   6  -2  -8 52403.7 1315.89  45
  -6   2   8 54043.0 1600.40  54
  -6   2   7 467.536 210.483  54
   6  -2  -7 681.509 159.050  45
  -6   2   6 99718.9 2114.00  53
  -6   2   6 96367.9 2416.82  54
  -6   2   5 51381.0 1621.02  54
  -6   2   5 46840.9 1393.58  53
   6  -2  -4 24089.2 1751.72  19
  -6   2   4 22979.8 1005.11  54
  -6   2   4 23452.3 1005.31  53
   6  -2  -3 63903.2 2954.47  19
  -6   2   3 67737.6 1883.14  53
   6  -2  -2 403.801 261.411  19
  -6   2   2 951.919 286.413  53
   6  -2  -1 118614. 4018.04  19
  -6   2   1 125699. 2796.76  53
   6  -2   0 13196.2 1213.36  19
  -6   2   0 17084.1 886.838  53
  -6   2  -1 95330.9 2325.57  53
  -6   2  -1 107772. 2990.66  32
  -6   2  -2 129006. 3195.42  32
  -6   2  -2 124992. 2722.07  53
  -6   2  -3 28494.6 1984.52  37
  -6   2  -3 23281.5 974.551  53
  -6   2  -3 28617.5 1345.56  32
  -6   2  -4 124617. 4156.87  37
  -6   2  -4 115865. 2836.10  32
  -6   2  -4 121851. 2637.26  53
  -6   2  -5 2181.73 639.174  37
  -6   2  -5 5797.52 640.928  32
  -6   2  -6 77941.3 1915.20  32
  -6   2  -6 87912.8 3096.54  37
  -6   2  -7 51782.9 2040.34  37
  -6   2  -8 26940.2 1177.18  37
  -7   2   4 80047.9 1670.86  53
  -7   2   3 13904.5 624.836  53
  -7   2   2 62750.5 1533.18  53
  -7   2   1 689.569 178.607  53
  -7   2   0 89840.8 1947.66  53
  -7   2  -1 48393.3 1322.29  53
  -7  -3  -5 5974.78 735.535  32
  -7  -3  -4 86189.4 2369.45  32
  -7  -3  -2 20148.1 944.248  53
  -7  -3  -1 64829.8 2013.63  53
  -7  -3   0 670.243 303.449  53
   7   3   0-32.3355 134.877  28
  -7  -3   1 77223.9 2622.68  53
  -7  -3   2 4116.63 577.584  53
  -7  -3   3 14863.0 887.806  53
  -6  -3 -10 45767.9 1416.90  32
  -6  -3  -9 34583.7 1101.90  37
  -6  -3  -9 32795.3 1436.60  32
  -6  -3  -8 11913.5 777.913  37
  -6  -3  -8 6591.52 757.336  32
  -6  -3  -7 92098.9 2426.94  37
  -6  -3  -7 97624.7 3483.26  32
  -6  -3  -6 14237.7 1058.81  37
  -6  -3  -6 792.826 708.908  32
  -6  -3  -5 76121.6 3280.59  32
  -6  -3  -4 11435.4 1220.20  32
  -6  -3  -4 14657.6 850.446  53
  -6  -3  -3 37443.0 2101.98  32
  -6  -3  -3 42932.9 1671.43  53
   6   3   3 43874.4 4396.23  22
  -6  -3  -2 71067.8 2742.08  32
  -6  -3  -2 72542.7 2415.47  53
   6   3   2 78300.7 5726.03  22
  -6  -3  -1 4997.01 627.683  32
  -6  -3  -1 7636.37 854.750  53
   6   3   1 5064.37 1449.34  22
   6   3   0 52819.2 4217.86  22
  -6  -3   0 52524.3 2260.37  53
  -6  -3   1 23491.1 1558.95  53
   6   3  -1 18784.1 2325.22  22
  -6  -3   2 143158. 4174.54  53
  -6  -3   2 128861. 3692.49  54
  -6  -3   3 70318.7 2725.42  53
   6   3  -3 73476.6 2212.38  28
  -6  -3   4 11252.4 1030.68  53
   6   3  -4 9074.18 692.152  28
  -6  -3   4 9765.87 942.430  54
  -6  -3   5 49985.6 1955.53  53
  -6  -3   5 48194.3 2081.23  54
   6   3  -5 54144.5 1606.34  28
   6   3  -5 49260.4 1678.06  34
   6   3  -6 2179.52 330.734  34
  -6  -3   6 2301.31 454.828  54
   6   3  -6 1756.76 260.171  28
   6   3  -6 2508.29 319.571  45
  -6  -3   6 2117.23 340.845  53
   6   3  -7 57821.3 1533.63  34
   6   3  -7 58786.7 1348.47  45
  -5  -3 -12 2308.09 269.932  32
  -5  -3 -11 86975.1 2192.02  37
  -5  -3 -10 2123.54 368.467  37
  -5  -3 -10 2481.69 490.616  35
  -5  -3  -9 44768.1 2057.76  35
  -5  -3  -9 39555.2 1683.16  37
  -5  -3  -8 71619.7 2438.59  37
  -5  -3  -8 84142.8 3101.95  35
  -5  -3  -7 79698.4 2594.43  37
   5   3   7 74300.5 2203.65  13
  -5  -3  -6 213262. 4777.15  37
  -5  -3  -6 251331. 6256.06  35
  -5  -3  -6 230599. 4501.46  40
   5   3   6 195740. 4575.17  13
  -5  -3  -5 18816.1 1171.61  37
  -5  -3  -5 22314.3 1729.92  35
  -5  -3  -5 20426.2 1162.05  40
   5   3   5 19454.9 1397.59  11
   5   3   5 20560.7 1985.49  10
  -5  -3  -4 110636. 3066.74  37
  -5  -3  -4 120243. 4072.44  35
   5   3   4 110300. 3424.18  11
  -5  -3  -4 112668. 3147.19  40
  -5  -3  -4 117632. 2925.75  53
  -5  -3  -3 57794.7 2065.29  37
  -5  -3  -3 62257.0 2769.52  35
  -5  -3  -3 57333.1 2062.97  53
  -5  -3  -3 59850.8 2233.42  40
   5   3   3 57966.0 2280.52  11
  -5  -3  -2 113142. 2989.88  37
   5   3   2 107759. 3165.68  11
  -5  -3  -2 110772. 3135.16  53
  -5  -3  -2 113227. 3301.75  40
   5   3   2 106683. 2563.34  12
  -5  -3  -1 165286. 4168.90  53
  -5  -3  -1 155427. 4100.11  32
  -5  -3  -1 168858. 4293.41  40
   5   3   1 164378. 3496.15  12
  -5  -3   0 421.886 308.306  40
  -5  -3   0 257.015 281.054  53
   5   3   0 965.136 277.588  12
   5   3   0 566.034 792.277  22
  -5  -3   1 190249. 4796.63  53
  -5  -3   1 194350. 4687.78  40
   5   3  -1 181116. 3945.83  12
   5   3  -1 198786. 8656.88  22
  -5  -3   2 34153.2 1894.30  53
  -5  -3   2 34842.6 1756.00  40
   5   3  -2 37630.3 1519.50  12
   5   3  -2 35867.3 3400.72  22
   5   3  -3 69125.7 2350.81  36
  -5  -3   3 79797.8 2984.78  53
  -5  -3   3 76220.0 2593.24  40
   5   3  -3 72421.4 4575.31  22
   5   3  -4 72446.9 2333.04  36
  -5  -3   4 78739.0 2946.33  53
   5   3  -5 3739.25 493.217  36
   5   3  -5 4231.62 532.667  28
   5   3  -6 110298. 4951.33  21
   5   3  -6 100740. 2736.71  36
   5   3  -6 108841. 2939.23  34
   5   3  -6 112793. 2793.16  28
  -5  -3   6 114008. 3337.76  53
  -5  -3   7 8509.15 751.816  53
   5   3  -7 9903.56 767.832  34
   5   3  -7 10361.1 666.726  45
   5   3  -7 11188.4 759.795  28
   5   3  -8 89310.5 2302.19  34
   5   3  -8 87924.4 2211.81  28
  -5  -3   8 84731.3 2719.61  54
   5   3  -8 87133.8 1988.64  45
  -5  -3   9 42177.3 1562.65  54
   5   3  -9 45204.0 1228.21  45
   5   3 -10 34985.1 1045.96  34
   4   3  14 60892.8 1573.18  39
   4   3  13 7859.60 586.421  39
   4   3  13 7795.53 559.233  50
  -4  -3 -13 7689.16 568.365  37
  -4  -3 -12 85519.0 2448.38  37
  -4  -3 -12 83968.2 2313.60  35
   4   3  12 80265.4 2148.93  50
   4   3  11 8320.58 1230.10  20
  -4  -3 -11 8974.82 803.210  35
  -4  -3 -11 8807.40 799.213  37
  -4  -3 -10 74196.2 2575.72  37
   4   3  10 75356.8 3855.75  20
  -4  -3 -10 78404.3 2659.70  35
  -4  -3  -9 22448.2 1361.29  37
   4   3   9 20300.4 1991.95  20
  -4  -3  -9 24530.8 1500.95  35
   4   3   9 26831.9 1137.91  13
   4   3   9 23197.4 2110.98  10
  -4  -3  -8 47060.0 1975.04  37
   4   3   8 44838.9 2919.19  20
  -4  -3  -8 51361.8 2286.31  35
   4   3   8 49473.3 1690.80  13
   4   3   8 51409.8 3258.83  10
   4   3   7 131767. 5120.89  20
  -4  -3  -7 142840. 4107.10  35
   4   3   7 133396. 5909.27   3
   4   3   7 125246. 3183.36  13
  -4  -3  -7 127467. 3425.25  37
  -4  -3  -7 136938. 6823.52   1
   4   3   7 140124. 5491.76  10
  -4  -3  -6 9564.30 801.217  37
  -4  -3  -6 11114.1 1082.25  35
  -4  -3  -6 10142.7 1828.80   1
   4   3   6 12065.5 1792.96   3
   4   3   6 9877.96 837.253  13
   4   3   6 10621.1 1314.21  20
  -4  -3  -6 10074.4 707.691  40
   4   3   6 13545.8 1169.45  11
   4   3   6 11449.0 1502.87  10
  -4  -3  -5 69559.0 2250.77  37
   4   3   5 79910.5 3438.36  20
  -4  -3  -5 82718.2 2963.13  35
   4   3   5 73274.2 3779.60  10
   4   3   5 68971.9 4551.77   3
  -4  -3  -5 73748.9 2188.94  40
  -4  -3  -5 73702.1 4940.81   1
   4   3   5 77905.4 2697.35  11
  -4  -3  -4 27862.5 1285.17  37
  -4  -3  -4 31391.5 1716.53  35
  -4  -3  -4 31993.3 2996.57   7
   4   3   4 31318.4 2346.11  10
  -4  -3  -4 32037.3 3129.53   1
  -4  -3  -4 28463.0 1317.74  40
   4   3   4 34155.7 1605.67  11
  -4  -3  -3 228573. 5192.07  35
  -4  -3  -3 234766. 8407.26   7
   4   3   3 226484. 3984.53  12
  -4  -3  -3 219640. 4578.51  40
   4   3   3 236282. 4837.87  11
  -4  -3  -3 213636. 8352.35   1
   4   3   3 218438. 6512.14  10
   4   3   3 221543. 7606.91   4
  -4  -3  -2 104116. 5466.58   1
  -4  -3  -2 113017. 5691.19   7
   4   3   2 107422. 5003.48   4
  -4  -3  -2 104025. 2842.15  40
   4   3   2 105378. 2386.05  12
  -4  -3  -1 10348.3 1591.64   1
   4   3   1 8474.37 1382.88   4
   4   3   1 9923.09 653.990  12
  -4  -3  -1 9425.54 1620.86   7
  -4  -3  -1 13142.1 920.960  40
  -4  -3   0 315370. 5961.00  40
   4   3   0 302618. 9151.96   4
  -4  -3   0 315626. 10520.9   7
   4   3   0 308335. 5354.46  12
  -4  -3   1 23375.5 2785.88   7
  -4  -3   1 20965.1 1206.05  31
   4   3  -1 22410.8 2335.68   4
   4   3  -1 23861.3 1071.72  12
  -4  -3   1 22262.3 1231.56  40
   4   3  -1 24022.0 2780.44  22
   4   3  -2 121550. 5747.31   4
  -4  -3   2 122181. 3434.99  31
   4   3  -2 118160. 2797.91  12
  -4  -3   2 122064. 6853.86   7
  -4  -3   2 122828. 3200.45  40
   4   3  -2 119820. 6055.03  22
   4   3  -3 69112.0 4416.31   4
  -4  -3   3 72962.4 5506.65   7
   4   3  -3 69256.3 2014.96  12
  -4  -3   3 68709.1 2648.90  31
  -4  -3   3 66390.7 2220.92  40
   4   3  -3 70927.1 4427.46  22
   4   3  -4 105734. 2989.18  36
   4   3  -4 113896. 5723.48   4
  -4  -3   4 118954. 7271.29   7
  -4  -3   4 120596. 3817.23  31
  -4  -3   4 98200.4 7709.03  17
   4   3  -4 116557. 2782.64  12
  -4  -3   4 105699. 4214.44  41
   4   3  -4 120236. 5640.44  22
   4   3  -5 96534.4 2812.39  36
  -4  -3   5 98894.8 4850.59  41
  -4  -3   5 89480.5 9043.89  17
   4   3  -6 1450.63 365.264  36
   4   3  -6 1363.97 352.774  28
  -4  -3   6-17.3049 1382.12  17
  -4  -3   6 227.008 655.930  41
  -4  -3   6 1427.07 524.226  31
  -4  -3   7 142249. 12564.2  17
   4   3  -7 247843. 4997.35  34
   4   3  -7 255657. 8149.30  21
  -4  -3   7 170645. 7306.88  41
  -4  -3   7 263613. 6286.90  31
   4   3  -7 251882. 4879.67  28
  -4  -3   7 255871. 5288.97  53
   4   3  -7 227553. 4968.70  36
   4   3  -8 106750. 2457.82  45
   4   3  -8 109858. 2868.18  34
  -4  -3   8 74012.5 4083.25  41
   4   3  -8 107905. 4939.81  21
  -4  -3   8 108615. 3670.44  31
   4   3  -8 111131. 2831.49  28
  -4  -3   8 74069.5 7593.31  17
   4   3  -9 30147.7 1309.72  34
  -4  -3   9 27370.6 1480.36  54
   4   3  -9 28186.9 1274.63  28
   4   3  -9 28389.3 1070.68  45
  -4  -3   9 24885.4 1964.33  41
   4   3 -10 62515.9 1798.35  34
   4   3 -10 53929.9 1486.18  45
  -4  -3  10 52459.9 1795.29  54
   4   3 -10 61409.9 1840.53  27
  -4  -3  10 57464.5 2517.74  41
   4   3 -11 18237.6 816.104  34
   4   3 -11 15791.4 658.224  45
  -4  -3  11 19229.0 1107.03  41
   4   3 -11 18368.7 848.772  27
   3   3  15 36559.8 1317.99  50
   3   3  15 38453.5 1337.93  39
  -3  -3 -14 40953.0 1454.58  37
  -3  -3 -14 39145.3 2163.09  45
   3   3  14 39182.2 1327.83  46
   3   3  14 42145.8 1552.54  50
  -3  -3 -13 46275.6 1813.29  37
   3   3  13 47091.9 1739.40  50
   3   3  13 45756.7 1575.41  46
  -3  -3 -13 42365.3 2695.38  45
   3   3  12 757.844 553.504  20
  -3  -3 -12 348.229 206.151  35
   3   3  12 600.119 197.576  46
  -3  -3 -12 926.674 335.954  37
  -3  -3 -12 303.831 539.127  45
  -3  -3 -11 145199. 3877.70  37
   3   3  11 147094. 5745.39  20
  -3  -3 -11 145316. 3657.53  35
  -3  -3 -11 159395. 6208.31  45
   3   3  10 12970.5 1656.65  20
  -3  -3 -10 11583.8 946.351  35
  -3  -3 -10 12317.4 1723.76  45
  -3  -3 -10 12524.9 1010.25  37
   3   3  10 12259.4 1539.15  23
   3   3  10 13435.4 1562.04  10
  -3  -3  -9 120743. 3373.67  37
   3   3   9 129688. 5188.74  20
  -3  -3  -9 123426. 3439.70  35
  -3  -3  -9 117959. 5812.21   1
   3   3   9 135427. 2894.49  13
   3   3   9 123903. 5178.48   3
   3   3   9 124440. 4793.12  23
   3   3   9 122995. 4971.22  10
   3   3   8 91604.1 4158.22  20
  -3  -3  -8 93217.8 2877.01  35
  -3  -3  -8 88054.0 4923.26   1
   3   3   8 90676.8 4465.92   3
   3   3   8 93402.8 3819.29  23
   3   3   8 96293.9 2394.95  13
  -3  -3  -8 85394.1 2608.83  37
   3   3   8 90861.6 4130.74  10
  -3  -3  -7 5485.39 1215.26   1
   3   3   7 5103.50 959.547  20
  -3  -3  -7 6254.93 676.369  35
   3   3   7 5004.16 960.169  10
  -3  -3  -7 7688.08 1127.03  45
   3   3   7 5197.54 550.870  13
   3   3   7 3742.87 910.808   3
   3   3   6 162125. 5153.43  20
  -3  -3  -6 163180. 6571.25   1
   3   3   6 170006. 6400.30   3
   3   3   6 152665. 3610.89  13
   3   3   6 180319. 4226.62  11
   3   3   6 179884. 5589.00  10
  -3  -3  -5 22544.4 2294.74   1
   3   3   5 21711.1 1610.91  20
   3   3   5 23066.2 1261.83  11
  -3  -3  -5 21725.9 1880.66  24
   3   3   5 25474.1 1883.22  10
   3   3   4 112862. 3614.55  20
  -3  -3  -4 121674. 5093.47   7
   3   3   4 112354. 4909.00   4
  -3  -3  -4 110762. 4636.79  24
   3   3   4 122421. 2942.41  11
  -3  -3  -4 116967. 5178.19   1
   3   3   4 119787. 4157.21  10
   3   3   3 186170. 4614.71  20
   3   3   3 196702. 6302.06   4
  -3  -3  -3 202063. 6508.74   7
  -3  -3  -3 192403. 6564.21   1
   3   3   3 195199. 5368.94  10
   3   3   3 188303. 3250.56  12
   3   3   3 201929. 3923.77  11
  -3  -3  -3 183200. 6386.79  24
  -3  -3  -2 176395. 6261.69  24
  -3  -3  -2 183661. 6150.58   7
   3   3   2 182942. 5869.70   4
  -3  -3  -2 174627. 6014.43   1
   3   3   2 169644. 3081.85  12
   3   3   2 182770. 4964.68  10
   3   3   1 280088. 4571.77  12
   3   3   1 292727. 7737.47   4
  -3  -3  -1 288705. 7776.78   1
  -3  -3  -1 275112. 8275.05  24
  -3  -3  -1 284861. 8139.39   7
  -3  -3   0 338.873 473.417  24
   3   3   0 350.289 153.710  12
  -3  -3   0 616.420 377.762   7
  -3  -3   0 130.575 175.352   1
   3   3   0 455.999 448.654   4
   3   3  -1 293697. 8019.13   4
  -3  -3   1 284273. 7923.10  17
   3   3  -1 280746. 4681.09  12
   3   3  -1 289959. 8763.50  22
  -3  -3   1 280843. 8983.98   7
   3   3  -2 76486.5 3875.32   4
  -3  -3   2 78666.4 4379.25  17
  -3  -3   2 79488.2 4861.22   7
   3   3  -2 72581.3 1838.32  12
   3   3  -2 81230.8 4263.46  22
   3   3  -3 204388. 6765.65   4
  -3  -3   3 205974. 8629.29   7
   3   3  -3 197407. 3682.82  12
  -3  -3   3 213065. 8621.82  17
   3   3  -3 220822. 7267.39  22
   3   3  -4 45514.6 3076.64   4
  -3  -3   4 49118.8 4636.34  17
  -3  -3   4 47994.7 4350.77   7
   3   3  -4 48494.3 1496.69  12
   3   3  -4 49069.9 3281.97  22
   3   3  -5 100405. 2739.58  36
  -3  -3   5 111506. 3359.31  31
  -3  -3   5 110177. 8288.18  17
   3   3  -5 95131.4 4671.93   4
   3   3  -6 153909. 6110.03   4
  -3  -3   6 172576. 4530.30  31
   3   3  -6 165197. 3626.27  28
   3   3  -6 154014. 3720.51  36
  -3  -3   6 162306. 10521.7  17
   3   3  -7 1165.85 680.076  21
   3   3  -7 799.727 286.936  36
   3   3  -7 704.200 295.337  34
  -3  -3   7 529.172 322.595  31
   3   3  -7 666.514 290.460  28
  -3  -3   7 1115.75 1007.45  17
   3   3  -8 140332. 5927.02  21
   3   3  -8 130427. 3535.01  36
   3   3  -8 141094. 3376.39  34
  -3  -3   8 143213. 4184.58  31
   3   3  -8 139869. 2949.83  45
  -3  -3   8 127630. 4949.17  41
   3   3  -8 141698. 3398.26  28
   3   3  -9 13000.5 1756.75  21
  -3  -3   9 13334.7 1142.87  31
   3   3  -9 14276.6 939.294  34
   3   3  -9 13728.6 963.266  28
   3   3  -9 13286.7 761.874  45
  -3  -3   9 16144.7 3148.13  17
  -3  -3   9 10753.6 1353.04  41
  -3  -3   9 12456.5 1301.10  38
   3   3 -10 64308.2 3817.50  21
   3   3 -10 65292.0 2026.23  34
   3   3 -10 59989.7 1740.37  45
  -3  -3  10 62169.5 2357.28  31
  -3  -3  10 66790.6 2666.27  38
  -3  -3  10 63584.9 2109.42  54
  -3  -3  10 62772.4 3061.36  41
   3   3 -11 193974. 3819.63  34
   3   3 -11 202359. 4115.30  27
  -3  -3  11 193720. 5116.64  41
  -3  -3  11 200676. 4353.90  38
   3   3 -12 8843.09 640.734  27
   3   3 -12 8358.06 561.723  34
  -3  -3  12 9775.61 856.965  41
  -3  -3  13 90076.4 2088.52  41
   2   3  16 29454.0 1132.67  39
   2   3  16 27950.3 1163.74  50
  -2  -3 -15 44419.1 1474.96  37
   2   3  15 49708.1 1714.86  39
  -2  -3 -15 48971.8 2279.95  45
   2   3  15 46091.6 1630.88  46
   2   3  15 49103.6 1782.44  50
  -2  -3 -14 56311.2 1993.14  37
   2   3  14 57449.8 1990.42  46
  -2  -3 -14 60249.2 3004.02  45
   2   3  14 59620.7 2114.89  50
  -2  -3 -13 34758.6 1678.38  37
   2   3  13 31849.0 2541.95  20
   2   3  13 37150.4 1664.46  50
   2   3  13 34851.3 1575.95  46
  -2  -3 -13 38647.5 2617.80  45
  -2  -3 -12 175283. 4322.52  37
   2   3  12 167628. 6228.50  20
  -2  -3 -12 170889. 3767.24  35
   2   3  12 174564. 4040.42  46
  -2  -3 -12 181975. 6067.82  45
  -2  -3 -11 8603.80 826.436  37
   2   3  11 9140.77 771.912  46
  -2  -3 -11 8610.65 730.426  35
   2   3  11 9260.09 1370.79  20
  -2  -3 -11 9049.36 1256.25  45
   2   3  11 7603.99 1081.53  10
   2   3  10 209729. 6763.26  20
  -2  -3 -10 194936. 4284.92  35
  -2  -3 -10 212832. 6320.02  45
  -2  -3 -10 194668. 7021.05   1
   2   3  10 205049. 6640.32   3
   2   3  10 214124. 4268.27  46
  -2  -3 -10 204130. 4564.82  37
   2   3  10 201495. 6842.85  23
   2   3  10 200774. 6113.62  10
  -2  -3  -9 201303. 4229.20  35
   2   3   9 207470. 6477.24  20
  -2  -3  -9 186839. 6805.41   1
   2   3   9 199613. 3922.92  46
   2   3   9 201254. 6430.27   3
   2   3   9 206605. 6453.28  23
  -2  -3  -9 205342. 5921.66  45
   2   3   9 200895. 5946.18  10
   2   3   8 164005. 5368.74  20
  -2  -3  -8 150273. 5815.32   1
   2   3   8 154565. 5106.05  23
   2   3   8 152223. 5358.78   3
   2   3   8 168144. 3230.43  13
   2   3   8 152175. 4948.02  10
  -2  -3  -7 267290. 7830.25   1
   2   3   7 270859. 4672.41  13
   2   3   7 267762. 7410.90   3
   2   3   7 271669. 6528.83  23
   2   3   7 272810. 6688.53  10
   2   3   7 285013. 6954.01  20
  -2  -3  -6 33450.1 2428.00   1
   2   3   6 31313.4 1897.37  20
   2   3   6 30016.3 1688.43  23
   2   3   6 31218.5 2279.06   3
   2   3   6 29979.7 1149.28  13
   2   3   6 30793.3 1857.03  10
  -2  -3  -5 293435. 7690.68   1
   2   3   5 262134. 6120.25  20
  -2  -3  -5 273917. 6792.77  24
   2   3   5 280430. 7693.74   3
   2   3   5 275366. 5608.45  23
   2   3   5 300836. 5451.57  11
   2   3   5 289804. 6369.23  10
  -2  -3  -4 135864. 4589.79  24
   2   3   4 129948. 3626.08  20
   2   3   4 135743. 3012.10  11
   2   3   4 133409. 3816.35  10
  -2  -3  -4 142610. 4926.47   1
   2   3   3 286583. 5755.55  20
   2   3   3 286532. 7386.53   4
  -2  -3  -3 314874. 6910.19   7
  -2  -3  -3 302654. 7567.21  24
   2   3   3 297890. 4987.89  11
   2   3   3 302876. 6220.96  10
  -2  -3  -3 303518. 7479.93   1
   2   3   2 518527. 8752.74  20
   2   3   2 535214. 10605.5   4
  -2  -3  -2 547820. 10042.7   7
   2   3   2 534990. 7478.17  12
  -2  -3  -2 548401. 11240.4  24
   2   3   2 527408. 9327.07  10
  -2  -3  -2 525546. 10487.5   1
   2   3   1 31945.0 2008.33   4
  -2  -3  -1 30280.1 1850.48   7
   2   3   1 30543.9 1470.41  18
  -2  -3  -1 33106.8 2266.67  24
  -2  -3  -1 32082.7 1899.53   1
   2   3   1 30599.6 875.324  12
   2   3   1 29762.6 1244.93   5
  -2  -3   0 536948. 9689.88   1
   2   3   0 557895. 10651.0   4
   2   3   0 537374. 7536.88  12
  -2  -3   0 509477. 10538.4   7
  -2  -3   0 551153. 11331.8  24
  -2  -3   0 488550. 8592.06   6
   2   3  -1 4651.21 820.889   4
  -2  -3   1 3730.30 508.549   1
  -2  -3   1 3500.39 770.061  24
  -2  -3   1 3774.71 810.931   7
   2   3  -1 3953.42 318.348  12
   2   3  -1 3126.84 686.037  22
   2   3  -2 492111. 10323.6   4
  -2  -3   2 486459. 10775.4  24
   2   3  -2 500064. 7256.48  12
   2   3  -2 504221. 10793.8  22
   2   3  -3 168042. 5329.85   4
  -2  -3   3 160234. 5424.04  24
   2   3  -3 170858. 3055.51  12
   2   3  -3 164065. 5437.43  22
   2   3  -4 71632.5 3405.05   4
  -2  -3   4 74740.3 4306.66   2
   2   3  -4 77892.8 3594.44  22
   2   3  -5 319505. 8294.58   4
  -2  -3   5 347328. 10198.5   2
   2   3  -6 11469.7 1511.55  21
  -2  -3   6 8898.92 1581.99   2
   2   3  -6 8489.92 1227.88   4
  -2  -3   7 158344. 4450.82  38
   2   3  -7 167898. 6235.20  21
   2   3  -7 153021. 3737.60  36
   2   3  -7 161154. 3077.52  45
   2   3  -7 157221. 3482.70  34
  -2  -3   7 163364. 4152.81  31
   2   3  -7 165787. 3605.43  28
  -2  -3   7 150622. 7085.66   2
   2   3  -8 10251.0 784.065  34
   2   3  -8 9766.74 862.436  36
  -2  -3   8 13942.8 2112.42   2
  -2  -3   8 10912.1 980.177  31
   2   3  -8 12044.9 673.535  45
   2   3  -8 9960.85 1562.20  21
   2   3  -8 10726.4 836.703  28
  -2  -3   8 10810.7 1117.94  38
   2   3  -9 32148.1 1209.14  45
   2   3  -9 32804.8 1436.30  34
   2   3  -9 31111.4 2798.82  21
   2   3  -9 33048.8 1582.95  47
  -2  -3   9 29970.0 1623.50  31
   2   3  -9 31937.4 1514.95  28
  -2  -3   9 29834.5 1959.18  38
   2   3 -10 135793. 6029.70  21
   2   3 -10 132425. 3197.40  34
   2   3 -10 131328. 3442.43  47
  -2  -3  10 132734. 3537.39  31
   2   3 -10 139608. 3571.77  27
   2   3 -10 128867. 2890.46  45
  -2  -3  10 121429. 4141.99  38
   2   3 -11 8299.17 1440.03  21
   2   3 -11 9114.59 722.215  34
   2   3 -11 9272.84 859.371  27
  -2  -3  11 9770.02 1053.18  38
   2   3 -12 84725.2 2225.52  34
   2   3 -12 94699.8 2633.72  27
  -2  -3  12 91252.4 3070.34  41
  -2  -3  12 93500.8 2913.66  38
   2   3 -13 1260.50 197.515  34
   2   3 -13 1013.26 248.413  27
  -2  -3  13 1147.24 326.712  41
  -2  -3  13 1074.46 270.134  38
   1   3  16 63500.0 1847.73  39
   1   3  16 68990.2 2100.70  50
  -1  -3 -16 64011.0 2311.61  45
  -1  -3 -15 61769.8 1926.23  37
   1   3  15 61870.2 2200.19  50
  -1  -3 -15 65256.6 2811.87  45
   1   3  15 61923.0 2013.10  39
   1   3  15 62220.0 2130.52  46
  -1  -3 -14 10717.7 879.667  37
  -1  -3 -14 12241.6 1342.98  45
   1   3  14 10453.3 903.912  46
   1   3  14 10514.6 922.620  50
  -1  -3 -13 85439.2 2780.35  37
   1   3  13 82288.4 2684.69  50
   1   3  13 81583.8 2679.83  46
  -1  -3 -13 84657.8 3759.87  45
  -1  -3 -12 6726.56 742.358  37
   1   3  12 6449.96 1127.15  20
  -1  -3 -12 7085.19 1081.75  45
   1   3  12 7934.88 780.595  46
  -1  -3 -11 179096. 4230.18  37
   1   3  11 167098. 5950.92  20
  -1  -3 -11 169916. 3666.95  35
   1   3  11 184580. 4132.07  46
  -1  -3 -11 193293. 5479.08  45
   1   3  11 186117. 6653.65   3
  -1  -3 -10 45936.5 1802.24  37
   1   3  10 45299.6 2780.21  20
  -1  -3 -10 45861.1 2903.71   1
  -1  -3 -10 46036.9 2316.37  45
   1   3  10 48501.7 1752.29  46
   1   3  10 50058.9 3081.06   3
  -1  -3  -9 136608. 5100.25   1
   1   3   9 135166. 4761.31  20
   1   3   9 139088. 5198.21  23
   1   3   9 143710. 5082.65   3
   1   3   9 144535. 4325.76  10
   1   3   8 144540. 4684.07  20
   1   3   8 146357. 4887.09   3
   1   3   8 143546. 4900.44  23
  -1  -3  -8 139039. 4950.00   1
   1   3   8 144564. 4160.58  10
   1   3   7 47178.5 2366.15  20
   1   3   7 52534.9 1428.34  13
   1   3   7 48559.8 2572.69   3
  -1  -3  -7 47556.6 2629.46   1
   1   3   7 48352.9 2466.00  23
   1   3   7 46261.5 2076.22  10
   1   3   6 185514. 4400.37  10
   1   3   6 186607. 4855.31  20
   1   3   6 196755. 5370.59   3
  -1  -3  -6 177069. 4819.58   6
   1   3   6 182555. 3315.11  13
  -1  -3  -6 201363. 5499.47   1
   1   3   6 188611. 4875.82  23
   1   3   5 121692. 3455.03  20
  -1  -3  -5 125803. 4040.63   1
   1   3   5 123579. 4015.68   3
   1   3   5 109024. 2288.88  13
   1   3   5 121781. 3331.13  23
   1   3   5 116129. 3133.52  10
  -1  -3  -5 115127. 3413.20   6
   1   3   4 999999. 13831.1  20
  -1  -3  -4 878033. 13619.1   6
   1   3   4 943938. 13442.6  10
   1   3   3 261904. 5233.58  20
  -1  -3  -3 247567. 5172.11   6
   1   3   3 253165. 5097.49  10
   1   3   2 243858. 6326.94   4
  -1  -3  -2 220916. 4846.48   6
   1   3   2 223669. 3963.80  11
   1   3   2 243322. 4644.44   5
  -1  -3  -1 806475. 11416.5   7
   1   3   1 754947. 13422.5   4
  -1  -3  -1 761015. 12682.7   6
   1   3   1 797815. 12566.1   5
   1   3   1 776686. 10788.8  11
   1   3   0 573554. 10608.5   4
   1   3   0 586462. 8153.90  11
  -1  -3   0 589166. 10662.7   6
   1   3  -1 210279. 5323.64   4
  -1  -3   1 228267. 5854.08   2
   1   3  -1 220233. 5307.44  22
   1   3  -2 4309.24 705.306   4
  -1  -3   2 4838.49 839.564   2
  -1  -3   2 4059.70 332.113   1
  -1  -3   2 4663.43 700.525  24
   1   3  -2 4395.52 668.383  22
   1   3  -3 357362. 7821.53   4
  -1  -3   3 349581. 8374.56   2
  -1  -3   3 380302. 5485.11  14
  -1  -3   3 322211. 7894.54  26
  -1  -3   3 340241. 7468.30  24
  -1  -3   4 253266. 7193.37   2
  -1  -3   4 244119. 7232.94  26
   1   3  -5 64896.8 3167.99  21
   1   3  -5 64208.0 2966.77   4
  -1  -3   5 57961.9 3352.95   2
  -1  -3   6 277163. 8603.67   2
   1   3  -6 308304. 8097.03  21
   1   3  -7 7132.77 1242.60  21
   1   3  -7 6416.17 628.108  36
   1   3  -7 7024.07 611.795  28
  -1  -3   7 7473.40 838.617  43
  -1  -3   7 6170.19 1264.58   2
  -1  -3   8 79791.4 4860.54   2
   1   3  -8 86491.4 2329.39  34
   1   3  -8 81861.9 2673.77  47
  -1  -3   8 82544.4 2606.98  31
  -1  -3   8 86818.5 3200.62  43
   1   3  -8 88255.2 4645.17  21
   1   3  -8 86907.8 2571.58  28
   1   3  -9 30155.9 2840.85  21
  -1  -3   9 28501.3 1846.78  43
   1   3  -9 30159.2 1535.88  27
   1   3  -9 30515.3 1339.85  34
   1   3  -9 30142.9 1613.03  47
  -1  -3   9 27049.8 1725.10  38
   1   3 -10 57611.2 4037.81  21
   1   3 -10 59086.7 1973.72  34
   1   3 -10 58560.2 2352.79  47
   1   3 -10 60410.3 2324.66  27
  -1  -3  10 60105.4 2674.87  38
   1   3 -11 107658. 5550.01  21
   1   3 -11 107686. 3268.79  47
   1   3 -11 111629. 2835.83  34
   1   3 -11 115953. 3349.09  27
  -1  -3  11 115194. 3743.11  38
   1   3 -12 519.015 196.586  34
   1   3 -12 713.904 255.728  47
   1   3 -12 395.611 301.750  27
  -1  -3  12 25.3467 351.656  38
  -1  -3  13 104837. 2900.09  41
  -1  -3  13 108926. 2970.81  38
  -1  -3  14 21025.0 890.855  41
   1   3 -14 19061.5 775.876  37
  -1  -3  14 21242.5 925.402  38
   0  -3 -16 11611.0 965.953  45
   0   3  16 12219.4 877.875  50
   0   3  16 10630.2 613.580  38
   0  -3 -15 76211.8 2202.73  37
   0   3  15 74120.0 2229.85  39
   0  -3 -15 81678.6 3117.23  45
   0   3  15 76226.1 2583.22  50
   0   3  15 74014.1 2169.77  38
   0  -3 -14 93072.5 2777.55  37
   0   3  14 87495.8 2601.76  38
   0  -3 -14 99331.1 3734.61  45
   0   3  14 92356.2 2975.81  50
   0   3  14 88035.5 2608.62  39
   0   3  14 90645.1 2899.87  46
   0  -3 -13 17477.4 1558.48  45
   0   3  13 14592.5 1128.59  50
   0   3  13 15339.4 1147.47  46
   0   3  13 14857.5 1021.47  38
   0   3  12 461895. 8060.32  38
   0   3  12 448597. 8259.78  50
   0  -3 -12 479661. 9486.38  45
   0   3  12 464667. 8313.16  46
   0  -3 -11 10590.9 937.460  34
   0   3  11 10575.7 865.853  46
   0   3  11 11306.3 894.993  50
   0  -3 -11 12111.7 1111.06  45
   0   3  11 12557.6 1913.24   2
   0   3  11 11327.9 841.756  38
   0  -3 -11 10760.4 1765.59  21
   0   3  10 98760.8 2665.54  50
   0  -3 -10 94863.8 2776.65  34
   0  -3 -10 98211.4 3050.80  45
   0   3  10 99855.8 2713.99  46
   0   3  10 95736.3 2551.75  38
   0  -3 -10 93628.5 4809.36  21
   0   3   9 78241.3 3434.03  20
   0  -3  -9 84410.7 3474.57   1
   0  -3  -9 85737.4 4193.48  21
   0   3   8 144428. 4531.84  20
   0  -3  -8 144327. 4579.97   1
   0  -3  -8 155143. 5335.21  21
   0   3   7 427608. 8740.51  20
   0   3   7 444842. 8241.38  17
   0  -3  -7 431573. 9395.29   6
   0   3   7 462356. 9558.89   3
   0   3   7 449246. 7606.37  10
   0  -3  -7 457812. 9650.55  21
   0   3   6 116930. 3540.06  20
   0  -3  -6 115579. 3890.72   6
   0   3   6 123176. 3952.72   3
   0   3   6 115835. 3132.36  17
   0   3   6 116685. 2875.44  10
   0  -3  -6 122469. 3908.76  21
   0   3   5 229315. 5137.86  20
   0   3   5 228493. 5409.55   3
   0  -3  -5 229338. 5528.93   6
   0   3   5 234441. 4623.36  17
   0  -3  -5 234513. 3706.25  15
   0   3   5 229530. 4411.42  10
   0   3   4 5127.48 475.278  10
   0  -3  -4 6822.75 351.053  15
   0  -3  -4 4732.72 651.191   6
   0   3   4 5548.01 650.041   3
   0   3   3 326275. 6222.95  18
   0  -3  -3 316125. 6265.04   6
   0   3   3 298175. 5556.62   3
   0  -3  -3 304608. 4275.78  15
   0  -3  -2 145437. 4027.76   6
   0   3   2 146022. 3740.65   5
   0   3   1 28823.0 1629.11   5
   0  -3  -1 29528.1 1811.09   6
   0  -3   0 193200. 4134.45   9
   0  -3   0 180871. 3207.25  14
   0  -3   1 62077.0 2320.68   9
   0   3  -1 53878.1 2522.24  18
   0  -3   1 66696.0 2604.60  16
   0  -3   1 59530.8 1480.01  14
   0  -3   1 56667.8 2041.37   2
   0   3  -2 652870. 11579.0  18
   0  -3   2 610922. 11455.4  16
   0  -3   2 632528. 9027.02  14
   0  -3   2 604578. 10403.5   2
   0  -3   2 576929. 10908.5   9
   0  -3   3 250225. 4221.38  14
   0  -3   3 250568. 5639.83   2
   0  -3   3 216918. 6261.98  16
   0   3  -3 258152. 6024.70  21
   0   3  -3 289418. 6364.96   4
   0   3  -4 340573. 7920.67  21
   0  -3   4 346407. 7484.21   2
   0   3  -4 352360. 7168.99   4
   0  -3   4 335291. 8145.27  26
   0   3  -5 213217. 6308.68  21
   0  -3   5 206301. 5874.60   2
   0   3  -6 7796.02 1233.91  21
   0  -3   6 7966.62 1177.45   2
   0  -3   6 5239.26 1060.46  26
   0   3  -7 401293. 10653.6  21
   0  -3   7 384157. 9867.69   2
   0  -3   7 373552. 9905.22  23
   0  -3   7 357875. 10629.4  26
   0   3  -8 6717.36 1346.10  21
   0   3  -8 7899.51 791.926  27
   0  -3   8 7562.34 1362.69   2
   0   3  -8 9556.98 931.170  47
   0  -3   8 8002.70 838.770  43
   0   3  -8 7449.50 678.453  42
   0  -3   8 7376.48 1344.50  23
   0   3  -8 7208.59 687.094  48
   0   3  -9 287324. 9779.12  21
   0  -3   9 271750. 6179.54  43
   0  -3   9 277642. 9144.79   2
   0   3  -9 280327. 6242.99  47
   0   3  -9 275574. 5671.65  48
   0   3  -9 290295. 6064.74  27
   0  -3   9 273996. 9154.52  23
   0   3 -10 250160. 9174.17  21
   0   3 -10 235526. 5754.16  47
   0   3 -10 261328. 5763.04  27
   0  -3  10 245889. 5840.30  43
   0  -3  10 244191. 8633.67  23
   0  -3  10 245094. 5813.76  38
   0  -3  11 2431.17 563.517  38
   0   3 -11 2329.31 827.362  21
   0   3 -11 2518.87 504.790  27
   0  -3  11 2131.77 482.691  43
   0   3 -11 3237.63 602.180  47
   0   3 -12 85869.3 2866.00  47
   0   3 -12 87360.5 2616.74  37
   0  -3  12 88570.4 3008.12  38
   0   3 -13 6776.03 610.020  37
   0  -3  13 6364.02 585.882  46
   0   3 -13 6039.19 623.506  47
   0  -3  13 7370.07 744.949  38
   0   3 -14 80541.7 1907.64  37
   0  -3  14 77322.5 1877.36  41
   1  -3 -16 52578.0 1963.84  45
  -1   3  16 48760.6 1555.95  38
  -1   3  15 24349.9 1430.42  50
   1  -3 -15 20728.7 1022.33  37
   1  -3 -15 22211.2 1471.45  45
  -1   3  15 20038.8 1120.56  38
  -1   3  14 49092.0 2254.31  50
   1  -3 -14 48139.4 2337.58  45
  -1   3  14 44050.2 1843.98  38
   1  -3 -13 225510. 5569.18  45
  -1   3  13 223941. 5417.36  50
  -1   3  13 209877. 4834.67  38
   1  -3 -12 2557.59 876.259  21
   1  -3 -12 2466.73 468.961  34
  -1   3  12 2617.50 496.966  46
  -1   3  12 2339.14 499.986  50
   1  -3 -12 3555.27 506.713  29
   1  -3 -12 2169.14 480.991  45
  -1   3  12 2787.17 482.970  38
   1  -3 -11 183320. 4429.38  45
  -1   3  11 191868. 8963.08   2
   1  -3 -11 178163. 3869.81  29
  -1   3  11 171783. 4358.41  50
   1  -3 -11 175236. 4119.36  34
  -1   3  11 173736. 4232.61  46
   1  -3 -11 174099. 6726.67  21
  -1   3  11 177598. 4219.18  38
  -1   3  10 31075.9 3421.76   2
   1  -3 -10 33095.1 1287.83  29
  -1   3  10 31817.3 1534.53  50
  -1   3  10 30310.9 2451.55  17
  -1   3  10 33290.1 1526.77  46
   1  -3 -10 32519.8 1408.69  34
   1  -3 -10 36012.9 1566.98  45
  -1   3  10 33564.5 1514.56  38
   1  -3 -10 30306.5 2455.15  21
   1  -3  -9 207694. 6416.99  21
  -1   3   9 210437. 8707.39   2
  -1   3   9 222123. 6761.84  17
   1  -3  -8 235621. 6288.96  21
  -1   3   8 235950. 6854.50  18
  -1   3   8 240211. 6688.05  17
   1  -3  -8 224369. 6748.58   6
   1  -3  -7 107401. 3567.87  19
  -1   3   7 109399. 4056.98  17
   1  -3  -7 115989. 3738.99  21
  -1   3   7 113602. 4255.75  18
   1  -3  -7 109701. 4207.98   6
  -1   3   7 101101. 5411.69   2
   1  -3  -7 123978. 3756.67  25
   1  -3  -6 379238. 7154.56  19
  -1   3   6 382773. 8089.98  17
  -1   3   6 378112. 8482.65  18
   1  -3  -6 373180. 5880.47  15
   1  -3  -6 376897. 8337.01   6
   1  -3  -6 398839. 7126.53  25
   1  -3  -6 396642. 7366.50  21
   1  -3  -5 82247.3 2429.03  21
   1  -3  -5 78571.2 1789.52  15
  -1   3   5 80399.2 3342.14  18
   1  -3  -5 80016.6 3117.37   6
  -1   3   5 77836.8 2909.85  17
   1  -3  -5 84949.8 2390.08  25
   1  -3  -5 83394.3 2443.67  19
  -1   3   4 292791. 7295.89  18
   1  -3  -4 289130. 4677.21  15
   1  -3  -4 300563. 6672.47   6
   1  -3  -4 298456. 5348.74  25
   1  -3  -4 302347. 5433.42  19
  -1   3   3 11650.1 658.662   2
   1  -3  -3 11637.1 735.734  19
  -1   3   3 10802.4 1254.91  18
   1  -3  -3 10587.8 1038.78   6
   1  -3  -3 10793.5 695.912  25
   1  -3  -3 11430.9 580.571  15
  -1   3   3 10283.6 817.403   7
   1  -3  -2 168208. 3324.50  19
  -1   3   2 154485. 3585.33   7
  -1   3   2 165740. 5413.98  18
   1  -3  -2 156825. 4601.43   6
  -1   3   2 158110. 4228.48   5
   1  -3  -1 177076. 3148.80  14
   1  -3  -1 180036. 3404.59  19
  -1   3   1 162670. 3754.73   7
   1  -3  -1 164595. 5017.04   6
  -1   3   1 168954. 5435.42  18
  -1   3   1 164378. 4710.12   5
  -1   3   0 231510. 4999.17   7
  -1   3   0 215391. 6109.54  18
   1  -3   0 219936. 3814.92  14
   1  -3   0 236201. 6408.02   6
  -1   3   0 220656. 5929.99   5
  -1   3  -1 865010. 15632.8  18
   1  -3   1 871989. 12158.5   2
   1  -3   2 573385. 10371.0   9
  -1   3  -2 550212. 11429.2   5
   1  -3   2 539957. 8467.80   2
   1  -3   3 22688.9 1638.96   9
   1  -3   3 23010.2 1708.04  16
   1  -3   4 104487. 4083.05  16
   1  -3   4 107720. 3181.76   2
   1  -3   4 103816. 3975.73   9
  -1   3  -5 93279.1 5105.22  21
   1  -3   5 94852.9 4157.93  16
  -1   3  -6 269099. 9167.66  21
   1  -3   6 260754. 8012.49  26
   1  -3   6 273453. 6838.30   2
   1  -3   7 17068.5 1643.55   2
   1  -3   7 16582.9 2009.76  26
  -1   3  -7 15619.5 1179.06  47
  -1   3  -7 16606.8 2225.06  21
   1  -3   8 176367. 6123.52   2
  -1   3  -8 188591. 7954.43  21
   1  -3   8 166933. 7118.62  26
  -1   3  -8 185310. 4866.13  47
  -1   3  -8 186053. 4770.33  27
  -1   3  -8 179778. 4316.18  42
   1  -3   8 178464. 6932.97  23
  -1   3  -8 171138. 4004.39  48
  -1   3  -9 67894.2 2465.79  37
   1  -3   9 64594.0 3742.31   2
  -1   3  -9 65302.4 2247.24  48
  -1   3  -9 66317.0 2821.42  47
  -1   3  -9 70685.4 2765.58  27
  -1   3  -9 68738.5 2481.15  42
   1  -3   9 64934.1 4494.37  26
   1  -3   9 63481.8 2399.48  43
   1  -3   9 64065.0 4180.72  23
  -1   3  -9 69500.7 4804.05  21
  -1   3 -10 97942.0 3078.93  37
  -1   3 -10 100273. 2902.97  48
   1  -3  10 93704.9 5157.67  23
  -1   3 -10 99103.7 3561.64  47
   1  -3  10 95903.0 3099.52  43
  -1   3 -10 100739. 5698.07  21
  -1   3 -11 71743.9 2500.36  37
  -1   3 -11 72146.7 2925.74  47
   1  -3  11 72577.6 2584.58  43
   1  -3  11 64828.8 4130.66  23
   1  -3  11 71682.8 2698.70  38
   1  -3  12 1617.97 465.386  38
  -1   3 -12 962.005 325.111  37
  -1   3 -12 737.508 412.709  47
  -1   3 -13 79404.6 2239.94  37
  -1   3 -13 82180.9 2528.05  47
   1  -3  13 87160.4 2418.94  46
   1  -3  13 84501.1 2515.95  38
   1  -3  14 6634.45 460.251  46
  -1   3 -14 6356.15 449.339  37
   1  -3  14 6462.14 516.733  38
   2  -3 -16 10096.9 710.201  45
  -2   3  16 10327.9 659.617  38
   2  -3 -15 69243.4 2359.44  45
  -2   3  15 66844.6 2147.30  38
  -2   3  14 40015.8 1788.40  38
   2  -3 -14 42024.3 1694.06  29
   2  -3 -14 42568.7 1956.37  45
   2  -3 -13 16709.5 1119.80  34
  -2   3  13 18883.6 1530.34  50
   2  -3 -13 16723.7 1062.59  29
  -2   3  13 15916.6 1164.62  38
   2  -3 -13 16927.6 1232.22  45
  -2   3  12 104716. 2857.38  41
   2  -3 -12 108457. 2883.22  29
   2  -3 -12 109950. 3253.22  45
   2  -3 -12 106965. 3039.03  34
  -2   3  12 107030. 3292.26  38
   2  -3 -12 104404. 4885.84  21
   2  -3 -11 3429.77 881.704  21
   2  -3 -11 4032.68 519.789  34
  -2   3  11 4881.58 491.795  54
   2  -3 -11 4711.42 592.064  45
  -2   3  11 3073.77 908.942  17
  -2   3  11 5638.65 827.580  50
  -2   3  11 4736.56 548.811  41
  -2   3  11 4327.83 627.459  38
   2  -3 -10 168310. 5847.79  21
   2  -3 -10 166445. 3631.13  34
  -2   3  10 176749. 4785.30  50
   2  -3 -10 164919. 3680.82  45
  -2   3  10 166251. 3785.49  41
  -2   3  10 159303. 3426.10  54
  -2   3  10 167114. 6723.89  17
  -2   3  10 165235. 4135.72  38
   2  -3  -9 36470.4 2349.62  21
   2  -3  -9 35149.7 2177.36  19
  -2   3   9 36766.3 1352.30  54
   2  -3  -9 35305.0 1299.12  34
  -2   3   9 35138.8 2878.38  17
  -2   3   9 38735.7 1956.53  50
   2  -3  -9 34765.6 1300.48  45
  -2   3   9 36937.2 1497.38  41
  -2   3   9 35672.6 1634.39  38
   2  -3  -8 204542. 5546.30  21
   2  -3  -8 203896. 5217.40  19
  -2   3   8 197801. 8718.53   2
  -2   3   8 201124. 7011.98  17
   2  -3  -8 211556. 5077.90  25
   2  -3  -7 174284. 4538.59  21
   2  -3  -7 169862. 4298.64  19
   2  -3  -7 171796. 3401.69  15
  -2   3   7 179839. 7033.03   2
  -2   3   7 173244. 6078.12  17
   2  -3  -7 162300. 5409.21   6
   2  -3  -7 159967. 4097.25  25
   2  -3  -6 962.313 312.567  19
   2  -3  -6 1074.35 245.073  15
   2  -3  -6 657.690 328.985   6
   2  -3  -5 353551. 6799.11  19
  -2   3   5 329939. 11402.2  18
  -2   3   5 369440. 8593.03   7
  -2   3   5 400218. 8078.17   2
   2  -3  -5 366196. 5911.89  15
   2  -3  -5 370182. 8187.65   6
   2  -3  -4 8715.11 763.496  19
  -2   3   4 6825.70 1310.26  18
   2  -3  -4 9009.91 603.519  15
   2  -3  -4 8126.40 977.244   6
  -2   3   4 8599.29 1068.58   7
   2  -3  -3 175847. 3433.31  15
  -2   3   3 176840. 5050.04   7
   2  -3  -3 169348. 4943.34   6
  -2   3   2 88288.3 3987.71  18
  -2   3   2 90305.3 3369.51   7
   2  -3  -2 84878.0 3452.78   6
   2  -3  -2 93789.2 2025.06  14
   2  -3  -1 561111. 8948.04   8
   2  -3  -1 506729. 8292.19  19
  -2   3   1 520383. 11235.0  18
  -2   3   1 526582. 10065.7   7
   2  -3  -1 521046. 10969.9   6
   2  -3  -1 483822. 7758.73  14
  -2   3   1 542770. 10214.1   5
   2  -3   0 324887. 6062.26   8
   2  -3   0 312284. 5526.12  19
  -2   3   0 330571. 7426.37   7
   2  -3   0 314731. 8407.85   6
   2  -3   0 311548. 5252.37  14
  -2   3   0 328511. 7917.83   5
   2  -3   1 113931. 2920.54   8
  -2   3  -1 116720. 4223.67   7
   2  -3   1 114247. 2593.72  19
  -2   3  -1 105748. 4470.20   5
   2  -3   1 124903. 5103.90   6
   2  -3   2 561493. 8231.68   3
   2  -3   2 543707. 8408.63  25
  -2   3  -2 527368. 12166.5   5
   2  -3   3 229088. 6362.13   9
   2  -3   3 224182. 4382.47   3
  -2   3  -3 238374. 7596.67   5
   2  -3   4 242383. 6826.39   9
   2  -3   4 255508. 7013.92  16
   2  -3   4 247029. 5085.69   3
  -2   3  -4 262289. 8218.61   5
   2  -3   5 468472. 10743.7  16
  -2   3  -5 475139. 12174.8   5
   2  -3   5 478117. 8712.70   3
   2  -3   5 471948. 10637.7   9
   2  -3   6 10812.8 1422.80  16
  -2   3  -6 11721.2 1718.21   5
  -2   3  -7 292813. 6185.00  37
   2  -3   7 273400. 8988.45  26
  -2   3  -7 261947. 5409.67  48
  -2   3  -7 290219. 6044.17  42
  -2   3  -7 282877. 9287.68   5
  -2   3  -7 275765. 6476.19  47
  -2   3  -8 81497.6 2899.20  37
  -2   3  -8 80702.4 3241.67  47
   2  -3   8 80515.6 4787.71  26
  -2   3  -8 84666.5 2946.35  42
  -2   3  -8 77325.8 2489.23  48
  -2   3  -9 114441. 3543.10  37
  -2   3  -9 114182. 3121.14  48
  -2   3  -9 114716. 4054.57  47
   2  -3   9 115902. 5944.61  26
   2  -3   9 114167. 5758.00  23
  -2   3 -10 51013.3 2191.38  37
  -2   3 -10 49438.4 2595.67  47
   2  -3  10 50415.5 3898.58  26
   2  -3  10 50312.2 1998.85  14
  -2   3 -10 50540.4 1932.40  48
   2  -3  10 49707.6 1998.20  43
   2  -3  10 48556.1 3678.76  23
  -2   3 -11 34293.6 1672.82  37
  -2   3 -11 33447.5 1997.83  47
  -2   3 -11 37247.7 1584.02  48
   2  -3  11 34160.0 2923.58  23
   2  -3  11 33605.9 1559.04  43
  -2   3 -12 111131. 2961.87  37
  -2   3 -12 113857. 3476.31  47
   2  -3  12 113383. 2797.36  43
   2  -3  12 112819. 3078.88  38
  -2   3 -13 561.531 197.373  37
  -2   3 -13 864.437 303.265  47
   2  -3  13 751.103 219.107  38
   3  -3 -15 31837.6 1277.75  45
  -3   3  15 34369.6 1375.99  38
   3  -3 -14 32085.3 1328.03  29
   3  -3 -14 30645.5 1419.33  45
  -3   3  14 32969.0 1556.27  38
   3  -3 -13 94246.6 2559.50  29
   3  -3 -13 89148.7 2549.39  34
   3  -3 -13 93863.4 2787.79  45
  -3   3  13 95872.1 3031.50  38
  -3   3  12 2127.19 483.079  38
   3  -3 -12 1874.86 362.626  34
   3  -3 -12 3186.83 515.196  45
   3  -3 -12 3754.02 493.212  29
  -3   3  12 2208.25 378.277  54
   3  -3 -12 2442.11 424.580  33
   3  -3 -11 85983.0 2445.64  34
   3  -3 -11 86529.8 2531.55  45
  -3   3  11 87692.4 2434.58  54
  -3   3  11 87509.2 3027.49  38
   3  -3 -10 22525.4 1113.01  34
  -3   3  10 22427.4 1453.47  38
  -3   3  10 22875.9 1332.59  41
  -3   3  10 23954.8 1203.36  54
   3  -3 -10 23185.9 1128.76  45
   3  -3  -9 200762. 5531.07  19
   3  -3  -9 187994. 3701.75  34
   3  -3  -9 184550. 3662.96  45
  -3   3   9 182892. 4330.70  41
  -3   3   9 179354. 7591.12   7
   3  -3  -9 203619. 5371.85  25
  -3   3   9 180969. 3965.63  54
  -3   3   9 183259. 4582.80  38
  -3   3   8 213766. 4254.95  54
   3  -3  -8 199561. 5359.06  19
   3  -3  -8 205185. 3761.93  34
  -3   3   8 211441. 4615.88  41
  -3   3   8 199401. 7772.81   7
   3  -3  -8 207317. 3745.61  45
   3  -3  -8 197403. 5208.61  25
  -3   3   8 206990. 4782.56  38
   3  -3  -7 34630.5 1952.17  19
   3  -3  -7 36886.8 1400.32  15
  -3   3   7 35289.2 3008.47   7
  -3   3   7 35629.0 1389.69  54
   3  -3  -7 36275.5 1105.79  45
  -3   3   7 35298.3 1546.32  41
  -3   3   7 35410.0 1633.64  38
   3  -3  -6 239970. 5754.13  19
  -3   3   6 232833. 7903.23   7
   3  -3  -6 248212. 4584.54  15
   3  -3  -6 237533. 6663.04   6
  -3   3   5 16440.2 1872.36   7
   3  -3  -5 16950.0 910.968  15
   3  -3  -5 15770.3 1478.40   6
  -3   3   4 355863. 9384.14   7
   3  -3  -4 359479. 6159.69  15
   3  -3  -4 351893. 7995.96   6
   3  -3  -3 237701. 5886.49   8
  -3   3   3 231666. 7135.83   7
   3  -3  -3 233653. 4573.78  15
   3  -3  -3 230365. 6057.29   6
   3  -3  -2 191224. 5110.44   8
  -3   3   2 175188. 6098.71   7
   3  -3  -2 184391. 5415.55   6
   3  -3  -2 188682. 4125.42  15
   3  -3  -2 200330. 3560.41  14
   3  -3  -1 230133. 5560.79   8
  -3   3   1 228365. 6996.65   7
   3  -3  -1 233116. 6532.64   6
   3  -3  -1 229477. 4307.84  14
   3  -3   0 10576.7 1001.77   8
  -3   3   0 11245.1 1474.74   7
   3  -3   0 9946.28 1337.92   6
   3  -3   0 10048.1 697.360  14
   3  -3   1 284736. 6073.64   8
  -3   3  -1 296269. 8425.27   7
   3  -3   1 266953. 5372.99  19
   3  -3   1 291131. 8814.51   6
   3  -3   2 83186.1 2736.38   8
  -3   3  -2 84126.6 4441.98   7
   3  -3   2 95214.3 5002.41   6
  -3   3  -2 85693.5 4381.61   5
   3  -3   3 234314. 7140.11   9
   3  -3   3 245375. 8556.34   6
   3  -3   4 139294. 5368.66   9
   3  -3   4 147233. 6641.69   6
  -3   3  -5 5720.29 767.571  37
   3  -3   5 4828.55 998.575   9
  -3   3  -5 6029.34 645.568  48
  -3   3  -5 6030.72 829.333  47
   3  -3   5 5321.45 1094.42  16
  -3   3  -5 6684.24 727.861  42
   3  -3   5 6514.53 1366.76   6
  -3   3  -6 405387. 8090.72  37
   3  -3   6 373807. 10002.0  16
  -3   3  -6 366920. 8338.72  47
  -3   3  -6 391423. 7594.58  42
  -3   3  -6 354163. 6879.89  48
  -3   3  -7 9861.21 1067.23  37
  -3   3  -7 8086.20 779.507  48
   3  -3   7 8086.38 1305.96  16
  -3   3  -7 6379.26 968.476  47
   3  -3   7 11481.4 1779.49  26
  -3   3  -8 115822. 3763.63  37
  -3   3  -8 100324. 4042.75  47
   3  -3   8 112922. 5724.28  26
  -3   3  -8 107517. 3053.93  48
  -3   3  -9 79832.9 2924.31  37
   3  -3   9 76026.8 4682.05  23
  -3   3  -9 73936.9 2399.26  48
  -3   3  -9 65539.1 3167.49  47
   3  -3   9 75051.1 4622.39  26
  -3   3 -10 43057.6 1963.18  37
  -3   3 -10 41854.0 1675.30  48
  -3   3 -10 36889.7 2224.84  47
   3  -3  10 37509.9 3157.60  26
   3  -3  10 40080.6 1591.20  43
   3  -3  10 40902.3 3219.35  23
  -3   3 -11 92252.1 2736.95  37
  -3   3 -11 90270.9 3235.46  47
   3  -3  11 85569.4 2506.78  38
  -3   3 -12 9798.66 696.678  37
   3  -3  12 9302.97 617.039  38
   3  -3  13 84885.6 1949.92  46
  -4   3  14 62996.2 1942.83  38
  -4   3  13 22367.5 962.356  54
   4  -3 -13 23207.5 1048.12  29
  -4   3  13 23964.7 1358.44  38
   4  -3 -13 20383.8 998.039  45
  -4   3  12 77975.3 2136.66  54
   4  -3 -12 74936.9 1997.05  34
   4  -3 -12 83366.7 2311.39  33
  -4   3  12 80293.1 2829.01  38
   4  -3 -12 74709.5 2172.38  45
   4  -3 -12 79138.8 2171.61  29
   4  -3 -11 4266.86 452.658  34
  -4   3  11 4804.21 543.592  54
   4  -3 -11 5344.69 558.560  45
  -4   3  11 4966.42 755.644  38
   4  -3 -10 172517. 3445.09  34
   4  -3 -10 165424. 3512.89  45
  -4   3  10 163189. 3714.25  54
  -4   3  10 171294. 4700.49  38
   4  -3  -9 122967. 4293.32  19
  -4   3   9 125107. 3135.31  54
   4  -3  -9 127479. 4248.75  25
  -4   3   9 125794. 3921.63  38
   4  -3  -9 123600. 2782.10  45
   4  -3  -8 18705.1 1588.43  19
  -4   3   8 18490.6 1081.37  54
   4  -3  -8 18286.5 861.220  45
   4  -3  -8 17574.1 1480.67  25
  -4   3   8 18021.2 1365.09  38
   4  -3  -7 128212. 4375.74  19
  -4   3   7 141741. 3363.77  54
   4  -3  -7 133166. 3144.71  15
   4  -3  -7 140223. 2755.73  45
  -4   3   7 135630. 3950.65  38
   4  -3  -6 5822.22 903.283  19
  -4   3   6 4025.74 485.742  54
   4  -3  -6 4977.51 392.702  45
  -4   3   6 4518.85 661.179  38
   4  -3  -6 5310.25 549.163  15
   4  -3  -5 226455. 6050.00  19
  -4   3   5 218855. 8265.64   7
   4  -3  -5 225645. 4502.50  15
  -4   3   5 224149. 4387.64  54
  -4   3   5 219162. 3920.00  53
  -4   3   5 222068. 5246.29  38
  -4   3   4 9867.93 671.152  54
  -4   3   4 9152.72 578.070  53
  -4   3   4 7260.60 1458.45   7
   4  -3  -4 9015.77 739.375  15
  -4   3   4 9570.00 914.051  38
   4  -3  -3 169548. 5453.87   8
  -4   3   3 162639. 3160.06  53
  -4   3   3 162273. 6800.67   7
  -4   3   3 160120. 3225.15  54
   4  -3  -3 170421. 3910.50  15
  -4   3   3 161890. 4265.35  38
   4  -3  -2 233052. 6439.67   8
  -4   3   2 216772. 3951.18  53
  -4   3   2 221953. 8025.35   7
  -4   3   2 222898. 4295.25  32
   4  -3  -2 233241. 5021.77  15
  -4   3   2 232560. 5579.40  48
   4  -3  -1 14459.0 1436.56   8
  -4   3   1 16210.1 2061.78   7
  -4   3   1 15303.7 865.199  32
  -4   3   1 13679.2 705.436  53
   4  -3  -1 14437.4 1129.67  15
   4  -3   0 233384. 6179.27   8
  -4   3   0 227847. 8216.88   7
  -4   3   0 211502. 4175.64  32
  -4   3   0 220536. 3899.69  53
  -4   3   0 236962. 5429.54  48
  -4   3  -1 2049.75 452.992  37
   4  -3   1 3309.96 654.313   8
   4  -3   1 2866.59 490.511  19
  -4   3  -1 2680.71 360.442  32
  -4   3  -1 2937.51 979.060   7
  -4   3  -1 2061.43 434.126  48
  -4   3  -1 2926.00 321.621  53
   4  -3   1 3636.44 483.543  14
  -4   3  -2 47064.8 2183.66  37
  -4   3  -2 48304.2 3785.38   7
   4  -3   2 46939.9 2316.83   8
  -4   3  -2 45559.1 1569.97  32
  -4   3  -2 48649.1 1422.68  53
  -4   3  -2 48221.5 2071.50  48
   4  -3   2 49669.7 1925.64  14
  -4   3  -3 12963.3 1162.41  37
   4  -3   3 11350.5 1655.25   9
  -4   3  -3 10611.5 719.265  32
  -4   3  -3 12269.1 1002.28  48
  -4   3  -3 12692.2 689.572  53
   4  -3   4 98022.2 4694.85   9
  -4   3  -4 100068. 3550.70  37
  -4   3  -4 102691. 2362.56  53
  -4   3  -4 89379.4 2347.94  32
   4  -3   4 108574. 4976.52  16
  -4   3  -4 85431.3 2826.32  48
   4  -3   5 236598. 7577.42   9
  -4   3  -5 242884. 6011.40  37
  -4   3  -5 222196. 4212.69  32
   4  -3   5 242835. 7534.46  16
  -4   3  -6 5310.82 823.989  37
  -4   3  -6 4475.55 601.406  48
   4  -3   6 3805.84 896.702  16
   4  -3   7 94385.4 5047.11  26
  -4   3  -7 101263. 2963.82  48
  -4   3  -8 9947.93 1022.62  37
  -4   3  -8 9799.33 819.177  48
   4  -3   8 9316.44 907.089  14
   4  -3   8 7526.87 1368.42  26
  -4   3  -9 61576.2 2358.03  37
  -4   3  -9 57966.3 1926.15  48
   4  -3   9 56007.3 3641.11  23
  -4   3 -10 68884.0 2250.76  37
  -4   3 -10 68634.2 1957.02  48
  -4   3 -11 15790.9 850.406  37
   5  -3 -12 13668.9 709.244  33
  -5   3  12 13394.6 687.412  54
   5  -3 -12 14202.2 725.710  29
  -5   3  11 110910. 2496.00  54
   5  -3 -11 110505. 2465.57  29
  -5   3  11 112830. 3349.12  38
   5  -3 -10 5593.89 516.420  29
  -5   3  10 6188.80 570.627  54
   5  -3 -10 4928.36 444.518  45
  -5   3  10 5432.22 796.165  38
  -5   3   9 100161. 2592.63  54
   5  -3  -9 99441.4 2247.73  45
   5  -3  -8 87014.4 3440.01  19
  -5   3   8 92020.9 2506.66  54
   5  -3  -8 91819.5 2084.09  45
   5  -3  -8 85922.5 3376.18  25
  -5   3   8 95892.2 3619.00  38
   5  -3  -7 11631.0 1241.90  19
   5  -3  -7 12122.1 628.711  45
  -5   3   7 10459.7 788.722  54
   5  -3  -7 10925.3 1186.03  25
  -5   3   7 11411.6 1207.57  38
   5  -3  -6 204513. 5817.41  19
  -5   3   6 202850. 3729.63  53
  -5   3   6 209868. 4307.26  54
  -5   3   6 215882. 5767.92  38
   5  -3  -5 39488.7 2379.84  19
  -5   3   5 36178.9 1282.84  53
   5  -3  -5 39244.3 1501.49  15
  -5   3   5 38771.7 2571.58  48
  -5   3   5 37246.3 1488.84  54
  -5   3   5 40837.0 2271.34  38
  -5   3   4 241477. 4544.66  54
   5  -3  -4 229251. 6339.95  19
  -5   3   4 253846. 6876.56  48
  -5   3   4 227401. 4284.67  53
   5  -3  -4 231996. 4682.27  15
  -5   3   4 248162. 6149.46  38
   5  -3  -3 144384. 4866.46  19
  -5   3   3 151140. 3189.30  53
  -5   3   3 162084. 5133.16  48
   5  -3  -3 146108. 3579.78  15
  -5   3   3 159556. 3274.57  54
  -5   3   2 82157.8 3389.72  48
   5  -3  -2 79354.9 3389.53  19
  -5   3   2 75958.2 2081.97  53
   5  -3  -2 83505.7 2627.30  15
  -5   3   1 204143. 4980.40  37
   5  -3  -1 193219. 5477.89  19
  -5   3   1 208863. 4341.08  32
  -5   3   1 195269. 3859.64  53
   5  -3  -1 196329. 4733.99  15
  -5   3   1 193442. 5324.74  48
   5  -3   0 6663.98 882.344  19
  -5   3   0 6953.85 584.226  53
   5  -3   0 8090.84 900.552  15
  -5   3   0 5460.64 763.760  48
  -5   3   0 9102.24 987.679  37
  -5   3  -1 155958. 4387.79  37
  -5   3  -1 154654. 3189.99  53
   5  -3   1 150110. 4576.96  15
  -5   3  -1 151859. 3508.15  32
  -5   3  -1 143552. 4151.66  48
  -5   3  -2 13119.2 1208.18  37
  -5   3  -2 13696.4 906.706  32
  -5   3  -2 13811.1 802.262  53
  -5   3  -2 13362.6 1095.05  48
  -5   3  -3 138631. 4260.88  37
  -5   3  -3 129374. 3169.62  32
  -5   3  -3 144102. 2987.64  53
  -5   3  -3 120832. 3555.63  48
  -5   3  -4 144801. 3340.55  32
  -5   3  -4 134993. 3706.15  48
  -5   3  -5 4477.52 755.921  37
  -5   3  -5 4157.39 496.756  32
   5  -3   5 2556.40 460.489  14
  -5   3  -5 2791.09 444.962  48
  -5   3  -6 78308.3 2894.91  37
  -5   3  -6 71564.4 1877.31  32
  -5   3  -6 65115.2 2175.88  48
   5  -3   6 57132.2 3495.15  26
  -5   3  -7 7461.32 832.618  37
  -5   3  -7 6873.01 620.100  48
  -5   3  -8 105989. 2905.42  37
  -5   3  -8 90171.9 2324.05  48
  -5   3  -9 17843.1 948.252  37
  -5   3  -9 16190.8 757.415  48
  -5   3 -10 36464.5 1107.23  37
  -6   3   9 27442.3 1007.31  54
   6  -3  -9 22860.0 860.427  29
   6  -3  -8 31564.6 1037.94  29
  -6   3   8 29140.7 1107.14  54
  -6   3   7 79859.0 2063.54  54
   6  -3  -7 83924.3 1895.92  29
  -6   3   6 995.763 250.810  54
  -6   3   6 741.442 166.235  53
  -6   3   5 98561.9 2326.88  54
  -6   3   5 94644.6 2082.59  53
  -6   3   4 25399.0 993.613  53
   6  -3  -4 23082.2 1651.98  25
  -6   3   3 35630.8 1248.78  53
   6  -3  -3 34911.2 2046.56  25
   6  -3  -2 27412.2 1764.13  19
  -6   3   2 31331.5 1183.62  53
   6  -3  -2 28624.3 1827.49  25
  -6   3   1 48871.5 1524.23  53
   6  -3  -1 47012.6 2298.92  25
   6  -3   0 111595. 3548.38  25
  -6   3   0 115920. 2576.29  53
  -6   3  -1 3452.12 418.672  53
  -6   3  -2 171943. 4236.20  37
  -6   3  -2 149027. 3124.93  53
  -6   3  -3 40317.7 1878.80  37
  -6   3  -4 34210.6 1659.38  37
  -6   3  -5 77490.0 2393.22  37
  -6   3  -6 1493.51 348.118  37
  -6   3  -7 63039.1 1667.91  37
  -7   3   4 78332.0 1664.77  53
  -7   3   3 29728.8 948.905  53
  -7   3   2 33778.8 1055.98  53
  -7   3   1 71671.6 1707.19  53
  -7  -4  -2 8930.65 570.811  53
  -7  -4  -1 15754.3 940.850  53
   7   4   0 43292.5 1128.40  28
  -7  -4   0 15666.3 1238.09  53
  -7  -4   1 5317.40 909.604  53
  -7  -4   2 43205.6 1636.14  53
  -6  -4 -10-146.261 203.852  32
  -6  -4  -9 40915.6 1825.04  32
  -6  -4  -8 27966.4 1926.00  32
  -6  -4  -7 27932.8 2674.72  32
  -6  -4  -6 20455.9 2113.63  32
  -6  -4  -5 5156.28 966.601  32
  -6  -4  -4 88462.2 3225.81  32
  -6  -4  -4 76399.1 2212.12  53
  -6  -4  -3 5637.69 806.514  40
  -6  -4  -3 4344.22 613.989  32
  -6  -4  -2 62417.5 2418.89  53
  -6  -4  -2 66826.7 2826.02  40
  -6  -4  -1 25718.0 1666.86  53
  -6  -4  -1 29621.8 1885.17  40
  -6  -4   0 45256.4 2389.54  53
  -6  -4   0 45324.6 2264.69  40
   6   4  -1 81167.8 2445.93  36
  -6  -4   1 92533.5 3683.74  53
  -6  -4   2 964.989 706.222  53
  -6  -4   3 59936.9 2768.80  53
   6   4  -3 61083.8 1790.29  28
  -6  -4   4 7854.96 896.489  53
  -6  -4   4 6929.25 854.772  54
   6   4  -5 49152.3 1472.36  34
  -6  -4   5 38686.9 1838.17  54
   6   4  -5 48670.1 1349.05  28
  -6  -4   5 38760.3 1686.37  53
   6   4  -6 25631.6 905.782  34
  -6  -4   6 21721.7 1161.89  54
   6   4  -6 25568.7 839.186  28
   6   4  -6 23469.7 714.676  45
  -6  -4   6 20884.1 879.971  53
   5   4  12 35401.8 1125.81  30
  -5  -4 -11 19741.0 1167.95  35
  -5  -4 -10 78269.3 2844.27  35
  -5  -4  -9 1294.93 561.630  35
  -5  -4  -8 120936. 4569.53  35
  -5  -4  -7 35665.4 1459.49  37
   5   4   7 38270.7 1472.12  13
  -5  -4  -7 37423.5 1488.39  40
  -5  -4  -6 94734.7 2596.29  37
  -5  -4  -6 90096.2 4260.31  35
   5   4   6 92184.9 2710.61  13
  -5  -4  -6 98885.4 2869.50  40
  -5  -4  -5 113300. 2868.91  37
  -5  -4  -5 116948. 3312.90  40
   5   4   5 115246. 3597.25  11
  -5  -4  -4 14889.1 1503.07  35
  -5  -4  -4 17230.1 1254.55  40
  -5  -4  -4 18718.5 1133.40  53
   5   4   4 14686.4 1175.91  11
  -5  -4  -3 210276. 5798.34  35
  -5  -4  -3 238499. 5205.74  53
  -5  -4  -3 247800. 5627.07  40
   5   4   3 222685. 5172.06  11
  -5  -4  -2 4225.32 640.761  53
  -5  -4  -2 5285.37 783.603  40
   5   4   2 5801.47 705.016  11
   5   4   2 4768.71 1338.33  22
  -5  -4  -1 99976.2 3379.61  53
  -5  -4  -1 102399. 3530.12  40
   5   4   1 91555.3 5821.13  22
  -5  -4   0 103981. 3609.75  53
  -5  -4   0 106128. 3610.58  40
   5   4   0 107473. 6051.94  22
  -5  -4   1 41698.7 2302.17  53
  -5  -4   1 38599.7 2066.95  40
   5   4  -1 34396.8 1675.16  11
   5   4  -1 38516.7 3412.99  22
  -5  -4   2 219057. 6012.55  53
  -5  -4   2 197842. 5126.32  40
   5   4  -2 206993. 4362.79  51
   5   4  -2 210937. 7903.21  22
   5   4  -3 9633.22 853.688  36
  -5  -4   3 9653.54 931.811  40
  -5  -4   3 8941.13 1098.39  53
   5   4  -3 9846.95 845.046  11
   5   4  -3 10710.4 1627.05  22
   5   4  -4 75691.7 2445.71  36
  -5  -4   4 80805.8 3290.48  53
   5   4  -4 78086.0 2294.72  28
   5   4  -5 50147.6 1870.30  36
  -5  -4   5 47383.0 2370.26  53
   5   4  -6 30433.4 1367.08  36
   5   4  -6 32550.0 1359.11  34
  -5  -4   6 32946.1 1745.20  53
   5   4  -6 30104.6 1230.76  28
   5   4  -7 97738.2 2327.79  34
  -5  -4   7 91133.0 2996.24  54
  -5  -4   7 87360.1 2520.03  53
   5   4  -7 99316.1 2280.93  28
   5   4  -7 89283.6 1935.75  45
   5   4  -8 511.652 181.926  34
   5   4  -8 350.426 150.954  28
   5   4  -8 691.550 140.388  45
  -5  -4   8 659.757 272.294  54
   5   4  -9 103126. 1998.12  34
   5   4  -9 102442. 2018.13  27
   4   4  14 64455.6 1625.48  39
   4   4  14 78243.6 1888.30  30
  -4  -4 -13 48098.9 1553.63  35
   4   4  13 47007.7 1485.35  39
  -4  -4 -12 12751.5 928.582  35
   4   4  12 11817.3 769.316  39
  -4  -4 -11 81370.1 2808.90  35
   4   4  11 80470.4 2269.38  39
   4   4  10 2700.08 752.452  20
  -4  -4 -10 3146.30 616.825  35
   4   4   9 118356. 5083.27  20
   4   4   9 122534. 2850.24  13
   4   4   8 21820.6 2103.59  20
  -4  -4  -8 24000.6 1785.80  35
   4   4   8 22982.6 1130.46  13
   4   4   8 23713.5 2188.48  10
   4   4   7 98354.1 4401.16  20
  -4  -4  -7 107239. 4186.03  35
   4   4   7 95147.7 2669.29  13
   4   4   7 103077. 4691.99  10
   4   4   6 159609. 5554.57  20
  -4  -4  -6 171128. 5378.69  35
   4   4   6 153351. 7099.67   3
  -4  -4  -6 167497. 8612.02   1
   4   4   6 166660. 3989.76  13
  -4  -4  -6 157009. 3726.73  40
   4   4   6 168330. 6154.45  10
  -4  -4  -5 3491.09 703.351  35
  -4  -4  -5 3198.33 1188.37   1
  -4  -4  -5 3096.27 482.156  40
   4   4   5 2992.89 551.032  11
   4   4   5 2979.08 806.043  10
  -4  -4  -4 107532. 3787.62  35
  -4  -4  -4 115788. 6778.80   1
  -4  -4  -4 111418. 3133.87  40
   4   4   4 113619. 3304.67  11
  -4  -4  -3 11314.0 1077.87  35
   4   4   3 11313.7 1730.00   4
  -4  -4  -3 11910.2 2100.66   1
  -4  -4  -3 12937.1 1003.23  40
   4   4   3 12316.7 968.909  11
  -4  -4  -2 185818. 4469.23  40
   4   4   2 183424. 4182.49  11
  -4  -4  -2 172009. 7735.72   1
   4   4   1 30138.5 2808.95   4
  -4  -4  -1 28566.7 1577.74  40
   4   4   0 43963.6 3425.67   4
  -4  -4   0 45919.1 1931.70  31
  -4  -4   0 46928.4 2082.07  40
   4   4   0 47654.6 3798.37  22
  -4  -4   1 114483. 3435.05  40
   4   4  -1 112875. 5720.52   4
  -4  -4   1 114472. 3555.67  31
   4   4  -1 121712. 5943.58  22
  -4  -4   2 1176.28 416.767  31
  -4  -4   2 1225.66 365.517  40
   4   4  -2 1842.52 356.708  51
   4   4  -2 788.676 537.626  22
   4   4  -3 192459. 7792.19   4
  -4  -4   3 207869. 5923.04  31
  -4  -4   3 190650. 4586.83  40
   4   4  -3 194775. 4164.13  51
   4   4  -3 200016. 7382.88  22
  -4  -4   4 11187.6 1315.80  31
   4   4  -4 9850.36 761.702  51
   4   4  -4 10302.4 868.190  36
   4   4  -5 83602.3 2618.43  36
  -4  -4   5 86283.7 3713.68  31
   4   4  -5 84566.9 2373.79  28
   4   4  -6 174174. 6303.26  21
   4   4  -6 166714. 4004.51  36
  -4  -4   6 159076. 6326.99  41
  -4  -4   6 168008. 5363.10  31
   4   4  -6 170040. 3686.35  28
   4   4  -7 8742.31 1310.05  21
   4   4  -7 9011.53 808.089  36
   4   4  -7 8637.90 716.418  34
  -4  -4   7 8549.58 1121.91  31
  -4  -4   7 8510.98 1182.80  41
   4   4  -7 8775.03 580.937  45
   4   4  -7 8747.90 714.391  28
   4   4  -8 129577. 2921.66  34
  -4  -4   8 121913. 4001.95  31
   4   4  -8 130683. 2961.55  28
   4   4  -8 121067. 2483.99  45
  -4  -4   8 131247. 4189.54  41
   4   4  -9 5717.24 488.064  34
  -4  -4   9 4237.82 535.864  54
   4   4  -9 4670.68 366.784  45
  -4  -4   9 5207.53 684.565  41
   4   4 -10 96940.7 2076.57  34
   4   4 -10 100168. 2225.05  27
  -4  -4  10 98175.5 2559.08  41
   4   4 -11 30051.9 918.656  27
   3   4  15 93691.7 2216.21  30
   3   4  15 88426.6 2197.68  39
   3   4  14 2281.50 382.775  39
  -3  -4 -14 2981.73 679.217  45
   3   4  14 2204.45 371.711  50
  -3  -4 -13 45163.3 1691.59  35
   3   4  13 46593.6 1709.06  50
  -3  -4 -12 46210.5 1920.75  35
   3   4  12 45962.0 1751.93  50
   3   4  11 28590.0 2490.41  20
  -3  -4 -11 35618.4 2522.31  45
  -3  -4 -11 31668.4 1712.16  35
   3   4  10 136779. 5634.86  20
  -3  -4 -10 144898. 4118.65  35
   3   4  10 135612. 5201.60  10
   3   4   9 343.941 411.272  20
  -3  -4  -9 490.914 288.544  35
  -3  -4  -9 82.0826 323.213   1
   3   4   9 770.113 302.637  13
  -3  -4  -9 949.066 488.201  45
   3   4   9 134.627 261.455   3
   3   4   9 496.618 386.315  10
   3   4   8 142935. 5347.88  20
  -3  -4  -8 157019. 4450.63  35
  -3  -4  -8 144950. 7007.13   1
  -3  -4  -8 158433. 5124.53  45
   3   4   8 143727. 6023.80   3
   3   4   8 145756. 3227.87  13
   3   4   8 151931. 5420.05  10
   3   4   7 24589.4 2026.81  20
  -3  -4  -7 29220.6 1802.36  35
  -3  -4  -7 27197.0 2902.23   1
  -3  -4  -7 30875.0 2000.73  45
   3   4   7 26614.6 2547.74   3
   3   4   7 30122.6 1297.17  13
   3   4   7 27568.8 2163.10  10
   3   4   6 40089.6 2445.84  20
   3   4   6 39474.8 3202.66   3
  -3  -4  -6 44862.7 3726.15   1
   3   4   6 42931.7 1662.49  13
  -3  -4  -6 43691.4 3034.20  24
   3   4   6 43185.6 2648.65  10
   3   4   5 229591. 6194.59  20
  -3  -4  -5 254828. 9272.45   1
  -3  -4  -5 247695. 8192.34  24
   3   4   5 223190. 5048.91  11
   3   4   5 252731. 6785.96  10
   3   4   4 12039.5 1165.04  20
  -3  -4  -4 12592.9 1942.38   1
  -3  -4  -4 12753.5 1864.69  24
   3   4   4 13201.7 1727.60   4
   3   4   4 11990.4 891.662  11
   3   4   4 11951.7 1319.99  10
  -3  -4  -3 292177. 9434.06   1
  -3  -4  -3 299472. 9860.37  24
   3   4   3 287478. 5359.64  11
   3   4   2 29564.3 2492.90   4
  -3  -4  -2 29687.1 2957.45  24
   3   4   2 31670.4 1348.94  11
  -3  -4  -2 29567.6 2684.05   1
   3   4   1 240236. 7612.75   4
  -3  -4  -1 237249. 7588.69   1
  -3  -4  -1 246077. 9017.14  24
   3   4   0 195799. 6862.81   4
  -3  -4   0 201229. 6477.09   7
  -3  -4   0 209353. 8305.20  24
  -3  -4   1 4745.88 1045.59   7
   3   4  -1 3690.87 893.068   4
  -3  -4   1 4613.83 1242.94  24
   3   4  -1 3213.19 871.903  22
   3   4  -2 77432.9 4201.94   4
  -3  -4   2 89337.4 4685.06   7
   3   4  -2 85934.5 4328.16  22
  -3  -4   3 852.178 809.067  17
   3   4  -3 1238.95 545.529   4
  -3  -4   3 1703.03 700.495   7
   3   4  -3 1445.17 632.429  22
   3   4  -4 214064. 4480.29  36
   3   4  -4 206425. 4220.42  51
  -3  -4   4 213261. 8260.27   7
  -3  -4   4 222510. 5677.12  31
   3   4  -5 80132.4 2485.47  36
   3   4  -5 77090.4 4346.20   4
   3   4  -5 79614.1 2225.13  28
  -3  -4   5 78770.2 3278.41  31
   3   4  -5 76094.6 2296.19  51
  -3  -4   5 78132.1 5005.01   7
   3   4  -6 78211.9 4098.49  21
   3   4  -6 76359.5 2483.40  36
   3   4  -6 68478.5 4106.17   4
  -3  -4   6 78571.8 3295.91  31
   3   4  -6 76561.4 2203.16  28
   3   4  -7 229416. 7333.91  21
   3   4  -7 223557. 4929.03  36
   3   4  -7 229674. 4521.73  34
   3   4  -7 225430. 4501.80  28
   3   4  -7 224618. 3966.99  45
  -3  -4   7 224422. 5989.45  31
   3   4  -8 2277.54 375.687  34
  -3  -4   8 1731.00 1138.20  17
   3   4  -8 3014.69 439.235  28
  -3  -4   8 2724.70 783.200  41
  -3  -4   8 1848.79 498.488  31
   3   4  -8 2064.21 682.068  21
   3   4  -8 2845.42 321.308  45
   3   4  -9 45182.5 2961.59  21
   3   4  -9 47649.1 1583.54  34
  -3  -4   9 45419.1 2196.30  31
   3   4  -9 47359.5 1706.92  28
   3   4  -9 43155.8 1303.22  45
  -3  -4   9 51119.7 2658.04  41
   3   4 -10 11220.9 689.079  34
  -3  -4  10 9903.86 874.351  31
   3   4 -10 12354.2 828.729  27
  -3  -4  10 10828.4 1083.72  41
   3   4 -11 179910. 3495.28  27
  -3  -4  11 188222. 4164.31  41
   3   4 -12 35628.2 1097.80  27
  -3  -4  12 35209.4 1228.07  41
   2   4  16 73286.2 2012.32  50
  -2  -4 -16 75534.9 2321.76  45
   2   4  16 73091.0 1964.41  39
  -2  -4 -15 1054.29 468.822  45
   2   4  15 1333.98 294.979  30
   2   4  15 949.908 304.861  50
   2   4  15 1300.57 324.155  39
   2   4  14 139900. 3367.64  46
   2   4  14 144046. 3547.96  50
  -2  -4 -14 152622. 4813.53  45
   2   4  14 151025. 3581.04  39
  -2  -4 -13 21936.1 1160.79  35
   2   4  13 24183.7 1334.19  50
   2   4  13 21725.5 1221.27  46
  -2  -4 -13 25867.3 1991.14  45
  -2  -4 -12 64318.2 2290.86  35
   2   4  12 70774.6 2304.48  46
   2   4  12 72083.2 2362.91  50
  -2  -4 -12 73753.4 3426.76  45
   2   4  11 157989. 6111.46  20
  -2  -4 -11 155390. 3978.90  35
  -2  -4 -11 167318. 5256.98  45
   2   4  11 165676. 3745.92  46
   2   4  11 152555. 5129.71  10
   2   4  10 1552.23 695.414  20
  -2  -4 -10 887.183 290.938  35
   2   4  10 1379.60 291.999  46
  -2  -4 -10 1562.01 478.011  45
   2   4  10 1447.52 519.112   3
   2   4  10 957.643 441.412  10
  -2  -4 -10 2078.51 692.760   1
   2   4   9 163025. 5835.83  20
  -2  -4  -9 164075. 6767.12   1
  -2  -4  -9 173648. 4941.78  45
   2   4   9 161969. 5923.98   3
   2   4   9 170202. 5307.27  10
  -2  -4  -8 32038.3 2839.39   1
   2   4   8 32578.0 2304.23  20
   2   4   8 31719.5 2463.92   3
   2   4   8 35004.8 1256.58  13
   2   4   8 31703.1 2080.89  10
  -2  -4  -7 119830. 5472.81   1
   2   4   7 116309. 4234.40  20
   2   4   7 119808. 2608.46  13
   2   4   7 117685. 4884.62   3
   2   4   7 113344. 3983.60  10
   2   4   6 140607. 4506.15  20
   2   4   6 151354. 3110.25  13
   2   4   6 143606. 5485.12   3
  -2  -4  -6 151088. 5591.17  24
   2   4   6 147721. 4443.70  10
   2   4   5 93129.8 3385.48  20
   2   4   5 96658.6 3452.94  10
  -2  -4  -5 102128. 4855.25  24
  -2  -4  -5 107902. 5013.52   1
   2   4   4 540149. 10032.0  20
   2   4   4 676942. 12397.9   4
   2   4   4 571001. 10297.3  10
  -2  -4  -4 607507. 14108.4  24
  -2  -4  -4 605843. 13340.0   1
   2   4   3 132810. 5123.21   4
   2   4   3 132852. 2971.18  11
  -2  -4  -3 138732. 6195.52  24
   2   4   2 379494. 7896.48  18
  -2  -4  -2 377574. 10867.7  24
   2   4   2 372164. 6054.79  11
  -2  -4  -2 395558. 9718.95   1
  -2  -4  -1 480317. 8703.81   7
   2   4   1 471536. 10611.0   4
   2   4   1 435385. 9144.40  18
  -2  -4  -1 463229. 12241.3  24
   2   4   1 470274. 7203.74  11
  -2  -4  -1 469554. 10411.3   1
  -2  -4   0 307762. 7356.22   1
   2   4   0 305750. 8124.79   4
  -2  -4   0 311917. 7061.96   7
   2   4   0 311129. 6882.40   5
  -2  -4   0 290973. 9250.38  24
   2   4  -1 304697. 8092.18   4
  -2  -4   1 313004. 7692.46   7
  -2  -4   1 290200. 9023.38  24
  -2  -4   1 296934. 7010.06   6
   2   4  -1 291288. 7633.68  22
   2   4  -2 8361.38 1245.97   4
  -2  -4   2 8369.29 1369.86  24
   2   4  -2 7865.06 1090.91  22
   2   4  -3 335194. 8837.05   4
  -2  -4   3 332888. 9418.50  24
   2   4  -3 337030. 8264.00  22
   2   4  -4 118866. 5001.05   4
  -2  -4   4 128916. 5679.30   2
   2   4  -5 156192. 3525.72  36
   2   4  -5 150051. 5807.76   4
   2   4  -5 150185. 3155.91  28
  -2  -4   5 165194. 4460.72  31
  -2  -4   5 153706. 6546.25   2
   2   4  -6 178110. 6020.38  21
   2   4  -6 169068. 3921.70  36
  -2  -4   6 172598. 4755.49  31
  -2  -4   6 172044. 7259.24   2
   2   4  -6 173130. 3556.27  28
   2   4  -7 36936.3 2705.09  21
   2   4  -7 35827.3 1644.99  36
   2   4  -7 35550.0 1374.91  34
  -2  -4   7 35215.7 1993.31  31
  -2  -4   7 37814.1 3370.64   2
   2   4  -7 35857.0 1446.74  28
  -2  -4   7 30927.5 1940.64  38
   2   4  -8 168826. 6252.22  21
   2   4  -8 168350. 3558.98  34
  -2  -4   8 164921. 4660.47  31
   2   4  -8 173303. 3787.99  28
  -2  -4   8 166677. 4954.73  38
   2   4  -9 17756.3 1955.41  21
   2   4  -9 18032.6 943.281  34
   2   4  -9 17780.3 1210.34  47
  -2  -4   9 16673.0 1267.53  31
  -2  -4   9 17882.8 1418.22  38
   2   4 -10 99590.4 4664.68  21
   2   4 -10 103914. 2506.10  34
  -2  -4  10 101760. 3089.23  31
   2   4 -10 106926. 2868.03  27
   2   4 -10 109222. 3084.21  47
  -2  -4  10 111885. 3463.99  38
   2   4 -11 52048.6 1530.69  34
   2   4 -11 57456.6 1891.51  27
   2   4 -11 52826.2 1824.40  47
  -2  -4  11 54148.6 2038.08  38
   2   4 -12 43558.9 1457.27  27
  -2  -4  12 41175.4 1428.20  38
  -2  -4  13 54449.6 1484.65  41
  -1  -4 -16 814.988 344.659  45
   1   4  16 733.684 289.825  50
   1   4  16 725.329 231.458  39
   1   4  15 71966.0 2225.71  39
   1   4  15 72022.7 2402.97  50
  -1  -4 -15 77069.0 3018.87  45
   1   4  14 39486.5 1792.15  50
   1   4  14 37993.3 1717.32  46
  -1  -4 -14 40248.5 2342.96  45
   1   4  14 38092.5 1656.24  39
   1   4  13 57663.8 3767.00  18
   1   4  13 56699.8 2211.52  50
   1   4  13 59107.1 2224.82  46
  -1  -4 -13 60314.6 2921.12  45
  -1  -4 -12 49524.5 1855.11  35
  -1  -4 -12 53864.1 2712.95  45
   1   4  12 54382.5 2099.66  46
   1   4  12 55252.9 2105.72  50
   1   4  11 32095.9 1525.21  50
  -1  -4 -11 32870.9 1983.78  45
   1   4  11 31991.1 1524.03  46
   1   4  11 29382.0 2499.10   3
  -1  -4 -10 114580. 5144.98   1
   1   4  10 111285. 4786.03  20
   1   4  10 128597. 3142.00  50
  -1  -4 -10 120609. 3787.80  45
   1   4  10 125244. 3101.77  46
   1   4  10 116867. 4945.82   3
   1   4   9 13882.2 1559.45  20
   1   4   9 13769.4 1539.95   3
  -1  -4  -9 13051.1 1608.43   1
   1   4   9 13649.4 1226.66  10
   1   4   8 140890. 4872.78  20
   1   4   8 135152. 4879.12   3
  -1  -4  -8 143548. 5486.83   1
   1   4   8 137908. 4091.13  10
   1   4   7 99010.9 3742.04  20
   1   4   7 98324.6 2157.98  13
   1   4   7 94438.6 3814.73   3
  -1  -4  -7 101767. 4420.31   1
   1   4   7 94933.7 3158.21  10
  -1  -4  -7 88806.7 3668.37   6
   1   4   6 86816.5 3295.74  20
   1   4   6 81938.8 3470.18   3
  -1  -4  -6 81096.7 3242.04   6
  -1  -4  -6 91285.1 4121.81   1
   1   4   6 90514.2 1933.24  13
   1   4   6 83812.9 2869.96  10
   1   4   5 267239. 6872.84   3
  -1  -4  -5 261426. 6311.20   6
   1   4   5 290390. 4559.80  13
   1   4   5 295176. 6041.76  10
  -1  -4  -4 10806.9 1036.98   6
   1   4   4 12348.2 603.842  13
   1   4   4 10912.8 930.898  10
  -1  -4  -3 247571. 6177.31   6
   1   4   3 264502. 6416.64  18
   1   4   2 151795. 4573.60  18
  -1  -4  -2 144114. 4478.43   6
   1   4   2 141754. 4019.32   5
   1   4   1 514123. 10469.9   4
  -1  -4  -1 529565. 9873.05   6
   1   4   1 540360. 9415.90   5
   1   4   1 438333. 9336.75  18
   1   4   0 255081. 6258.36  18
   1   4   0 232263. 6505.61   4
   1   4   0 264518. 6365.76   5
  -1  -4   0 225929. 7198.86  24
  -1  -4   0 264883. 6620.70   6
   1   4   0 228816. 3978.97  11
   1   4   0 263218. 5800.66  22
   1   4  -1 283207. 6692.64  18
   1   4  -1 269818. 7084.11   4
  -1  -4   1 261613. 7530.06  24
   1   4  -1 267891. 4307.69  11
   1   4  -1 280163. 6172.06  22
   1   4  -2 442334. 9310.46  18
   1   4  -2 467876. 10230.4   4
   1   4  -2 480697. 9096.55  22
  -1  -4   2 473340. 10510.5  24
   1   4  -2 464279. 6786.08  11
  -1  -4   3 6287.17 1039.71   2
   1   4  -3 7890.89 1120.50   4
  -1  -4   3 5918.39 1052.11  26
  -1  -4   3 7335.82 1027.86  24
   1   4  -4 192516. 6019.39   4
  -1  -4   4 201925. 6461.60   2
   1   4  -5 48039.6 2642.05  21
   1   4  -5 42013.8 2675.90   4
  -1  -4   5 47981.6 3193.46   2
   1   4  -6 45536.3 2739.62  21
   1   4  -6 45754.3 1733.95  36
  -1  -4   6 42366.3 3222.62   2
  -1  -4   6 43322.4 2122.91  43
   1   4  -7 61165.5 3452.23  21
   1   4  -7 66617.6 2304.04  36
  -1  -4   7 61482.5 2475.75  31
  -1  -4   7 65434.1 4269.97   2
   1   4  -7 64181.4 1986.55  28
  -1  -4   7 65654.9 2794.71  43
   1   4  -8 33042.8 2653.60  21
  -1  -4   8 30906.4 1698.00  31
   1   4  -8 30438.1 1651.32  47
  -1  -4   8 32430.2 1988.88  43
  -1  -4   8 34659.5 3180.92   2
   1   4  -9 213104. 7470.06  21
  -1  -4   9 216866. 5053.17  31
   1   4  -9 217454. 5243.34  47
  -1  -4   9 231432. 5972.89  43
   1   4  -9 227988. 4780.80  27
  -1  -4   9 221630. 5594.14  38
   1   4 -10 20438.6 2159.42  21
   1   4 -10 19848.1 1370.35  47
   1   4 -10 22302.4 1253.90  27
  -1  -4  10 22370.8 1550.96  38
   1   4 -11 50140.2 2056.23  47
   1   4 -11 49415.2 1868.05  27
  -1  -4  11 50536.0 2176.02  38
   1   4 -12 70102.9 1990.18  37
   1   4 -12 74757.9 2244.42  47
   1   4 -12 76950.1 2182.81  27
  -1  -4  12 77085.5 2376.44  38
  -1  -4  13 14687.3 822.176  41
  -1  -4  13 13494.8 738.364  38
   0   4  16 112946. 2993.33  50
   0  -4 -16 114522. 3252.77  45
   0   4  15 2054.99 461.782  50
   0  -4 -15 1747.37 533.678  45
   0   4  15 2545.01 417.387  39
   0   4  15 2015.31 336.434  38
   0   4  14 78565.9 2741.36  50
   0   4  14 76067.4 2437.52  39
   0   4  14 77006.4 2326.89  38
   0  -4 -13 109112. 3749.83  45
   0   4  13 99826.9 3157.84  50
   0   4  13 100945. 3120.18  46
   0   4  13 99546.7 2889.91  39
   0   4  13 101395. 2843.84  38
   0   4  12 227129. 7920.22  18
   0   4  12 227239. 5121.06  50
   0   4  12 229484. 5119.72  46
   0  -4 -12 231492. 5698.77  45
   0   4  12 228017. 4840.54  39
   0   4  12 229963. 4790.67  38
   0  -4 -11 139556. 3818.58  29
   0   4  11 151848. 3756.17  46
   0   4  11 150464. 6134.65  18
   0  -4 -11 145809. 4092.63  45
   0   4  11 147645. 3736.89  50
   0   4  11 141505. 3406.94  38
   0   4  11 152952. 6512.37   2
   0  -4 -10 2877.95 678.148   1
   0  -4 -10 3023.99 465.748  29
   0   4  10 3561.92 908.649  18
   0   4  10 3305.03 473.049  50
   0  -4 -10 3303.74 508.212  45
   0   4  10 5233.09 579.571  46
   0   4  10 3549.26 423.922  38
   0  -4  -9 375799. 9273.10   1
   0   4   9 394657. 9746.95   3
   0  -4  -8 69110.5 3497.02   6
   0   4   8 70282.8 3377.07   3
   0  -4  -8 75197.6 3652.98  21
   0  -4  -7 171459. 5428.06   6
   0   4   7 163069. 4995.25   3
   0   4   6 376981. 8299.05  18
   0  -4  -6 355601. 8049.14   6
   0   4   5 97182.6 3648.30  18
   0  -4  -5 89461.0 3482.32   6
   0  -4  -5 89092.1 1898.02  15
   0  -4  -4 400988. 5935.72  15
   0  -4  -4 421318. 8750.75   6
   0   4   4 420110. 8766.14  18
   0   4   3 53304.9 2754.97  18
   0  -4  -3 55735.4 2763.73   6
   0  -4  -3 56632.8 1372.28  15
   0   4   3 49045.2 1869.25   3
   0   4   3 62467.9 1165.07  13
   0   4   3 57648.5 2479.26   5
   0  -4  -2 250831. 6532.13   6
   0   4   2 252585. 6055.21   5
   0   4   1 174779. 5392.90  18
   0  -4  -1 178031. 5435.87   6
   0   4   1 172633. 5038.70   5
   0  -4   0 325231. 6195.63   9
   0   4   0 301833. 7754.46  18
   0  -4   0 347021. 6721.88  16
   0  -4   0 298821. 7786.88   6
   0  -4   0 327766. 5176.65  14
   0   4   0 307920. 7522.74   5
   0  -4   1 289588. 6097.92   9
   0   4  -1 278046. 7433.07  18
   0  -4   1 271358. 5847.53   2
   0  -4   1 287239. 4745.99  14
   0   4  -1 280436. 7285.99   5
   0   4  -2 65836.4 2291.60  21
   0   4  -2 57573.5 3114.92  18
   0  -4   2 59223.9 1650.87  14
   0  -4   2 57291.2 2418.15   2
   0  -4   2 61023.1 2897.31  16
   0  -4   3 635393. 11905.2   2
   0  -4   3 662583. 13141.5  16
   0  -4   3 644005. 9848.71  14
   0   4  -4 3944.09 675.263  21
   0  -4   4 2879.71 657.147   2
   0  -4   4 3161.75 397.370  14
   0  -4   4 3833.30 857.829  26
   0   4  -5 94284.6 3785.53  21
   0  -4   5 83303.7 3866.37   2
   0  -4   5 82187.3 2306.48  14
   0  -4   5 86302.1 4311.04  26
   0   4  -6 113675. 4586.78  21
   0  -4   6 108395. 4805.21   2
   0  -4   6 102641. 2733.22  14
   0  -4   6 110175. 5276.51  26
   0   4  -7 54727.5 3355.28  21
   0  -4   7 51068.0 3440.85   2
   0   4  -7 54165.1 2267.43  47
   0  -4   7 56837.0 2278.10  43
   0   4  -7 54556.2 1892.16  27
   0   4  -7 59020.1 1956.54  48
   0  -4   7 47591.9 1937.87  31
   0  -4   7 53516.6 3872.26  26
   0   4  -7 51397.0 2033.04  42
   0  -4   7 52633.8 3416.38  23
   0  -4   8 186278. 6821.82  23
   0  -4   8 163801. 6736.81   2
   0   4  -8 180957. 6742.61  21
   0   4  -8 189830. 4202.84  27
   0   4  -8 174721. 4739.44  47
   0   4  -8 171324. 4244.44  42
   0  -4   8 172062. 4211.79  31
   0   4  -8 197031. 4143.24  48
   0  -4   8 181608. 4694.56  43
   0   4  -9 2051.87 734.803  21
   0   4  -9 871.737 289.823  42
   0   4  -9 1160.76 436.489  47
   0  -4   9 1482.94 474.770  43
   0   4  -9 1593.37 377.558  27
   0   4 -10 159829. 4487.96  47
   0   4 -10 161142. 3968.98  27
   0  -4  10 168551. 4552.77  43
   0  -4  10 161488. 4434.08  38
   0   4 -11 45399.0 1755.39  37
   0   4 -11 46809.2 2134.10  47
   0   4 -11 45025.4 1828.40  27
   0  -4  11 50586.3 2192.08  43
   0  -4  11 50016.0 2178.16  38
   0   4 -12 18368.1 969.123  37
   0   4 -12 20268.3 1209.03  47
   0  -4  12 20672.2 1001.07  46
   0  -4  12 21263.8 1245.21  38
   0   4 -13 100183. 2397.73  47
   0  -4  13 105341. 2509.57  38
  -1   4  16 2355.30 383.119  50
   1  -4 -16 2306.19 436.745  45
  -1   4  16 2291.78 312.455  38
  -1   4  15 141163. 3771.39  50
   1  -4 -15 136522. 3778.02  45
   1  -4 -14 31646.1 1774.10  45
  -1   4  14 30749.7 1756.12  50
  -1   4  14 27945.6 1422.86  38
  -1   4  13 90821.7 3187.65  50
   1  -4 -13 93555.5 2995.32  29
   1  -4 -13 91593.2 3167.62  45
  -1   4  13 92628.7 2851.51  38
  -1   4  12 171555. 4011.96  39
  -1   4  12 168364. 4481.56  50
   1  -4 -12 173251. 4182.38  29
   1  -4 -12 167517. 4374.70  45
  -1   4  12 169040. 4148.77  38
   1  -4 -12 163371. 6482.51  21
   1  -4 -11 35917.7 1641.08  34
  -1   4  11 35127.1 1788.03  50
   1  -4 -11 35952.1 1580.30  29
   1  -4 -11 37197.1 1732.52  45
  -1   4  11 38024.5 1615.38  39
  -1   4  11 38166.9 1723.44  38
   1  -4 -11 39093.2 2922.55  21
   1  -4 -10 133070. 3259.94  34
   1  -4 -10 137111. 3472.07  33
  -1   4  10 133942. 3608.35  50
   1  -4 -10 133936. 3163.96  29
   1  -4 -10 134791. 3363.63  45
  -1   4  10 137946. 3580.92  46
  -1   4  10 129761. 3207.13  39
  -1   4  10 138054. 3444.47  38
   1  -4 -10 136617. 5310.89  21
   1  -4  -9 3958.62 806.264  21
  -1   4   9 3025.83 855.993  18
  -1   4   9 3438.01 475.649  46
   1  -4  -9 4589.73 981.613   6
  -1   4   8 461140. 11399.7  18
   1  -4  -8 421573. 10413.9   6
   1  -4  -8 432246. 9829.06  25
   1  -4  -8 458980. 9647.76  21
   1  -4  -7 44984.1 1444.16  15
  -1   4   7 44432.6 2986.46  18
   1  -4  -7 39501.3 2503.71  25
   1  -4  -7 41221.8 2652.68   6
  -1   4   6 97688.1 4379.16  18
   1  -4  -6 99149.5 2306.16  15
   1  -4  -6 100473. 4062.81   6
   1  -4  -6 100638. 3681.51  25
   1  -4  -5 484736. 9429.92  19
  -1   4   5 470176. 11263.3  18
  -1   4   5 563969. 9400.58   7
   1  -4  -5 547372. 11008.8   6
   1  -4  -5 515472. 7878.38  15
   1  -4  -5 542224. 9818.14  25
   1  -4  -4 5808.85 705.002  19
  -1   4   4 3911.23 872.563  18
   1  -4  -4 4097.93 396.944  15
  -1   4   4 3652.83 488.093   7
   1  -4  -4 6206.22 737.247  25
   1  -4  -4 4085.04 754.457   6
   1  -4  -3 564225. 9762.81  19
  -1   4   3 576616. 9207.06   7
  -1   4   3 552341. 12215.2  18
   1  -4  -3 560560. 8542.60  15
   1  -4  -3 581124. 11854.6   6
   1  -4  -2 106045. 3149.27  19
  -1   4   2 110929. 2853.08   7
  -1   4   2 115668. 4740.46  18
   1  -4  -2 102978. 4284.48   6
   1  -4  -2 121706. 3432.44  25
  -1   4   2 106368. 4013.22   5
  -1   4   1 96387.2 2791.56   7
  -1   4   1 92146.6 4269.86  18
   1  -4  -1 88466.8 4036.78   6
   1  -4  -1 99846.0 2196.41  14
   1  -4  -1 95393.0 3132.66  25
  -1   4   1 84899.6 3704.65   5
  -1   4   0 360924. 9256.31  18
   1  -4   0 375719. 9099.33   6
   1  -4   0 349225. 5592.94  14
  -1   4   0 366470. 8631.20   5
   1  -4   1 4477.06 931.469   6
  -1   4  -1 4322.86 978.793  18
   1  -4   1 4598.60 594.849  25
   1  -4   1 3998.53 431.766  14
  -1   4  -1 6822.02 1055.86   5
   1  -4   2 424919. 7096.48  14
  -1   4  -2 449367. 10465.5   5
   1  -4   3 9735.76 1087.94   9
   1  -4   3 9761.62 875.917   2
   1  -4   3 10153.9 1193.05  16
   1  -4   3 10361.0 728.271  14
  -1   4  -3 9610.07 1389.69   5
   1  -4   4 193026. 4988.76   2
   1  -4   4 187350. 3984.61  14
   1  -4   4 193492. 5982.22  16
  -1   4  -4 181379. 6619.21   5
   1  -4   5 62275.2 2886.62   2
   1  -4   5 63112.1 2079.65  14
  -1   4  -5 53642.3 3631.34   5
   1  -4   5 58087.0 3334.11  16
  -1   4  -6 47111.3 2183.32  47
   1  -4   6 49318.5 1871.63  14
  -1   4  -6 48268.8 2029.52  42
   1  -4   6 50301.9 3411.85  26
  -1   4  -6 40285.5 3346.77   5
  -1   4  -7 152052. 3647.54  37
  -1   4  -7 168057. 3779.63  48
   1  -4   7 159890. 3890.00  14
  -1   4  -7 161026. 3872.58  27
  -1   4  -7 155991. 4172.74  42
   1  -4   7 159131. 6662.95  26
  -1   4  -7 149155. 4479.95  47
  -1   4  -7 141617. 6680.65   5
  -1   4  -8 2262.00 398.294  37
  -1   4  -8 2539.94 431.057  48
   1  -4   8 2645.76 449.747  14
   1  -4   8 3487.49 1023.49  23
  -1   4  -8 2830.51 455.880  27
   1  -4   8 2866.12 1034.50  26
  -1   4  -8 2330.81 493.579  42
  -1   4  -8 1468.95 480.750  47
  -1   4  -8 2222.98 814.164   5
  -1   4  -9 109918. 3156.72  37
   1  -4   9 119559. 3510.86  43
  -1   4  -9 128115. 3181.09  48
  -1   4  -9 119924. 4043.24  47
   1  -4   9 114073. 5878.46  26
   1  -4   9 110620. 5388.02  23
  -1   4  -9 115234. 3545.82  42
  -1   4 -10 13889.3 1001.39  37
  -1   4 -10 15993.6 994.908  48
  -1   4 -10 16224.5 1382.31  47
   1  -4  10 14814.9 1152.82  43
   1  -4  10 13937.0 1750.90  23
  -1   4 -11 41994.4 1672.78  37
  -1   4 -11 47870.2 2227.08  47
   1  -4  11 48196.1 1989.34  43
   1  -4  11 48347.6 2079.15  38
  -1   4 -12 41493.5 1808.12  47
   1  -4  12 41400.3 1714.66  38
  -1   4 -13 15724.0 704.195  37
  -1   4 -13 17780.1 916.502  47
   1  -4  13 17097.1 761.241  46
   1  -4  13 18405.4 913.094  38
   2  -4 -16 88117.6 2264.53  45
  -2   4  16 88353.2 2102.45  38
   2  -4 -15 361.764 272.320  45
  -2   4  15 458.847 260.019  38
  -2   4  14 102467. 3363.00  50
   2  -4 -14 95573.8 2812.32  29
   2  -4 -14 93142.3 2903.10  45
  -2   4  14 92901.5 2793.00  38
   2  -4 -13 30131.9 1481.91  29
  -2   4  13 34960.2 2045.37  50
   2  -4 -13 30885.6 1597.04  45
  -2   4  13 30270.5 1602.35  38
   2  -4 -12 41327.3 1764.37  34
  -2   4  12 48030.0 2451.11  50
   2  -4 -12 43209.0 1887.68  33
  -2   4  12 46637.9 1671.09  54
   2  -4 -12 44632.5 1792.67  29
   2  -4 -12 41702.6 1848.90  45
  -2   4  12 44636.6 2012.92  38
   2  -4 -11 197073. 4354.48  34
   2  -4 -11 210216. 4612.01  33
   2  -4 -11 195793. 4428.39  45
  -2   4  11 207593. 4183.81  54
   2  -4 -11 202890. 4288.15  29
  -2   4  11 207809. 5515.22  50
  -2   4  11 208822. 4875.86  38
   2  -4 -10 9762.14 734.897  34
  -2   4  10 8530.33 673.752  54
  -2   4  10 9323.19 1016.95  50
   2  -4 -10 9212.97 716.258  29
   2  -4 -10 8272.04 685.325  45
  -2   4  10 7986.36 804.866  38
   2  -4  -9 164142. 3415.00  34
  -2   4   9 171479. 3525.67  54
   2  -4  -9 161402. 3397.51  45
   2  -4  -9 166867. 5772.09  25
  -2   4   9 163255. 3581.03  41
  -2   4   9 172710. 4554.57  50
  -2   4   9 172924. 4112.51  38
   2  -4  -8 3308.69 651.525  19
  -2   4   8 3828.31 865.645   7
   2  -4  -8 3694.53 728.866  25
   2  -4  -8 3978.38 495.976  15
   2  -4  -8 3796.27 883.018   6
  -2   4   8 3980.36 518.929  38
   2  -4  -7 203176. 5220.32  19
  -2   4   7 196383. 6224.45   7
   2  -4  -7 204075. 5170.54  25
   2  -4  -7 195155. 3950.23  15
   2  -4  -6 108732. 3396.41  19
   2  -4  -6 101686. 2556.84  15
   2  -4  -6 99508.5 4235.49   6
   2  -4  -6 112118. 3366.56  25
  -2   4   6 104302. 4170.60   7
   2  -4  -5 4703.66 888.060   6
   2  -4  -5 6218.10 740.083  19
   2  -4  -5 4062.76 463.344  15
  -2   4   5 4808.06 1215.18  18
  -2   4   5 3660.77 723.811   7
   2  -4  -5 4721.74 633.313  25
   2  -4  -4 89798.6 2848.74  19
   2  -4  -4 86959.8 2353.70  15
  -2   4   4 95338.6 5295.61  18
  -2   4   4 89174.8 3486.05   7
   2  -4  -4 87588.3 3896.66   6
   2  -4  -4 87035.4 2765.31  25
   2  -4  -3 81530.6 2611.76  19
  -2   4   3 76759.3 4733.09  18
  -2   4   3 76496.8 3110.32   7
   2  -4  -3 82585.6 3891.21   6
   2  -4  -3 78731.0 2545.53  25
   2  -4  -3 76060.7 2206.63  15
   2  -4  -2 467515. 11084.8   6
   2  -4  -2 463152. 8225.09  19
  -2   4   2 470366. 9406.21   7
   2  -4  -2 484413. 7306.54  14
   2  -4  -2 475686. 8186.47  25
   2  -4  -1 91322.6 2660.96  19
  -2   4   1 90201.0 3452.13   7
  -2   4   1 77105.1 4435.59  18
   2  -4  -1 82450.6 4198.53   6
   2  -4  -1 88636.0 2240.71  14
   2  -4  -1 93693.8 2696.05  25
  -2   4   1 85589.3 4060.33   5
   2  -4   0 78500.7 2371.62  19
  -2   4   0 76639.3 3297.80   7
   2  -4   0 75451.5 4059.58   6
   2  -4   0 66674.8 1979.72  14
   2  -4   0 80908.7 2498.84  25
  -2   4   0 68540.2 3715.85   5
   2  -4   1 434651. 11069.3   6
  -2   4  -1 398921. 9370.17   7
   2  -4   1 431295. 7477.67  19
   2  -4   1 398111. 6937.61  14
   2  -4   1 443360. 7832.82  25
  -2   4  -1 420754. 10690.5   5
   2  -4   2 6012.50 956.472   9
   2  -4   2 6443.81 1269.92   6
   2  -4   2 6784.57 645.026  14
  -2   4  -2 5833.51 1122.07   5
   2  -4   3 222637. 6241.76   9
  -2   4  -3 213391. 7358.39   5
   2  -4   4 2805.93 683.494   9
  -2   4  -4 3196.82 881.432   5
  -2   4  -5 460874. 8527.36  42
  -2   4  -5 456827. 7813.02  48
   2  -4   5 456561. 10697.4  16
  -2   4  -5 448232. 8113.81  30
  -2   4  -5 461178. 12028.0   5
   2  -4   5 446299. 10304.9   9
  -2   4  -6 169207. 4001.12  37
   2  -4   6 164338. 6125.65  16
  -2   4  -6 173141. 3958.46  48
  -2   4  -6 172890. 4570.42  42
  -2   4  -6 166823. 6805.42   5
  -2   4  -7 52307.9 2077.98  37
  -2   4  -7 52838.3 1978.97  48
  -2   4  -7 46210.0 2540.35  47
   2  -4   7 52489.6 2099.44  14
  -2   4  -7 53578.5 2418.35  42
   2  -4   7 57823.5 3935.51  26
  -2   4  -7 51961.6 3676.79   5
  -2   4  -8 208469. 4805.70  37
  -2   4  -8 215690. 5456.28  42
  -2   4  -8 223008. 4705.71  48
  -2   4  -8 198459. 5805.78  47
   2  -4   8 208929. 4833.80  14
   2  -4   8 227811. 8336.56  26
  -2   4  -9 4137.62 579.197  37
  -2   4  -9 5792.46 921.400  47
  -2   4  -9 5182.66 623.382  48
   2  -4   9 5191.61 643.379  14
   2  -4   9 6001.14 684.520  43
   2  -4   9 5055.37 1227.82  26
   2  -4   9 4611.29 1154.47  23
  -2   4 -10 106324. 3028.97  37
   2  -4  10 114552. 5221.38  23
  -2   4 -10 120907. 2994.94  48
  -2   4 -10 117503. 3980.45  47
   2  -4  10 117557. 3202.31  43
  -2   4 -11 42363.5 1619.38  37
  -2   4 -11 47793.8 2194.58  47
   2  -4  11 46745.2 1776.71  43
   2  -4  11 46511.1 1889.56  38
  -2   4 -12 50763.8 1902.39  47
   2  -4  12 52868.8 1747.06  38
   2  -4  13 78355.9 1774.40  46
   3  -4 -15 69944.4 1897.81  45
  -3   4  15 76428.8 2093.00  38
   3  -4 -14 10464.3 763.383  29
   3  -4 -14 9759.37 739.572  45
  -3   4  14 10750.0 870.702  38
   3  -4 -13 95228.2 2607.21  33
   3  -4 -13 90503.4 2616.78  45
   3  -4 -13 95017.8 2633.82  29
  -3   4  13 94136.5 2943.87  38
   3  -4 -12 59163.9 1948.34  34
   3  -4 -12 60679.0 2160.44  33
  -3   4  12 66799.2 2052.35  54
   3  -4 -12 61919.9 2056.05  29
   3  -4 -12 60297.2 2074.93  45
  -3   4  12 60185.7 2416.02  38
   3  -4 -11 15570.4 928.574  34
  -3   4  11 14790.5 951.320  54
   3  -4 -11 18534.7 1060.68  29
   3  -4 -11 15059.7 967.252  45
  -3   4  11 14896.7 1208.14  38
   3  -4 -10 343219. 5917.30  34
   3  -4 -10 321502. 5894.12  45
  -3   4  10 342567. 6176.17  54
  -3   4  10 333745. 6979.56  38
   3  -4  -9 12419.6 1415.23  19
  -3   4   9 14421.6 924.553  54
  -3   4   9 15524.5 1518.59  50
   3  -4  -9 12550.7 753.739  45
   3  -4  -9 15770.1 1543.23  25
  -3   4   9 13284.4 1109.13  38
   3  -4  -8 115475. 4139.91  19
  -3   4   8 117486. 2882.63  54
   3  -4  -8 110884. 2932.50  15
   3  -4  -8 113775. 2433.07  45
   3  -4  -8 99094.2 4672.34   6
  -3   4   8 110028. 5265.55   7
  -3   4   8 125326. 4298.48  50
   3  -4  -8 119166. 4086.11  25
  -3   4   8 115244. 3419.42  38
   3  -4  -7 89485.1 3408.48  19
  -3   4   7 95275.1 3535.94  50
  -3   4   7 90625.7 2377.30  54
   3  -4  -7 77976.0 3973.83   6
  -3   4   7 85797.8 4527.83   7
   3  -4  -7 88819.6 3314.60  25
   3  -4  -7 86468.7 2497.72  15
  -3   4   7 87123.9 2825.60  38
   3  -4  -6 118832. 3873.56  19
  -3   4   6 118188. 5161.40   7
  -3   4   6 111826. 2628.92  54
   3  -4  -6 113559. 2950.27  15
   3  -4  -6 109077. 4625.73   6
   3  -4  -6 115590. 3721.12  25
  -3   4   6 116001. 3214.58  38
   3  -4  -5 148194. 4267.50  19
   3  -4  -5 137917. 3382.59  15
  -3   4   5 134383. 5442.71   7
   3  -4  -5 130109. 5043.36   6
   3  -4  -4 619.910 387.318  19
  -3   4   4 458.883 360.293   7
   3  -4  -4 579.062 279.165  15
   3  -4  -4 471.155 322.707   6
   3  -4  -3 259736. 5771.64  19
  -3   4   3 256922. 7562.75   7
   3  -4  -3 258263. 7639.49   6
   3  -4  -3 262006. 5345.60  15
   3  -4  -2 78437.9 2717.03  19
  -3   4   2 76240.6 3809.10   7
   3  -4  -2 78760.6 4143.62   6
   3  -4  -2 87450.8 2144.48  14
  -3   4   1 181602. 6171.07   7
   3  -4  -1 189086. 3822.56  14
   3  -4  -1 184796. 7054.84   6
  -3   4   0 205867. 6731.80   7
   3  -4   0 198743. 4437.15  19
   3  -4   0 181125. 4016.29  14
   3  -4   0 194751. 4485.68  25
   3  -4   0 201136. 7629.60   6
  -3   4  -1 17183.2 1938.88   7
   3  -4   1 18080.9 1126.90  19
   3  -4   1 20226.0 2348.95   6
   3  -4   1 17178.3 1055.24  14
   3  -4   1 18874.6 1194.48  25
  -3   4  -1 17101.5 2153.22   5
   3  -4   2 395745. 11401.3   6
   3  -4   2 367747. 6708.81  14
  -3   4  -3 7821.80 1516.82   5
   3  -4   3 8892.63 1312.96   9
  -3   4  -3 8243.49 770.704  48
   3  -4   3 10072.8 1700.74   6
   3  -4   3 9754.81 876.779  14
  -3   4  -3 7862.30 794.399  30
   3  -4   4 126138. 4999.27   9
  -3   4  -4 122515. 3349.73  37
   3  -4   4 122027. 6053.64   6
  -3   4  -4 129530. 3418.23  48
   3  -4   4 132016. 5250.03  16
   3  -4   4 130958. 3578.04  14
  -3   4  -4 126793. 3742.06  42
  -3   4  -5 96434.8 3008.15  37
   3  -4   5 101018. 4543.60  16
   3  -4   5 99002.7 5458.96   6
  -3   4  -5 104630. 3013.57  48
  -3   4  -5 100702. 3441.27  42
   3  -4   5 99245.6 4436.25   9
  -3   4  -6 213784. 4945.60  37
   3  -4   6 211032. 7091.89  16
  -3   4  -6 219564. 4761.93  48
   3  -4   6 226168. 5140.31  14
  -3   4  -6 221433. 5591.11  42
  -3   4  -7 107826. 3281.89  37
   3  -4   7 119202. 5785.48  26
  -3   4  -7 116129. 3163.53  48
  -3   4  -8 1053.47 344.129  37
  -3   4  -8 1122.17 388.706  48
  -3   4  -8 484.901 411.826  47
   3  -4   8 1239.01 350.057  14
   3  -4   8 971.355 714.401  26
  -3   4  -9 84743.0 2666.79  37
  -3   4  -9 94239.9 2629.99  48
   3  -4   9 87850.0 4770.61  26
   3  -4   9 95898.3 4944.87  23
  -3   4  -9 88706.1 3576.05  47
  -3   4 -10 3045.11 434.271  37
  -3   4 -10 2726.21 597.144  47
   3  -4  10 2910.24 410.249  43
  -3   4 -10 3580.96 471.232  48
  -3   4 -11 105031. 2945.36  47
   3  -4  11 102477. 2529.59  38
   4  -4 -14 66899.0 1747.94  29
  -4   4  14 74062.6 2047.55  38
   4  -4 -13 28106.0 1117.02  33
  -4   4  13 30038.7 1460.87  38
   4  -4 -13 27444.4 1159.77  29
   4  -4 -13 25511.7 1040.08  45
   4  -4 -12 33637.8 1431.48  33
  -4   4  12 33898.5 1327.76  54
   4  -4 -12 34964.2 1392.24  29
   4  -4 -12 30711.3 1243.28  45
  -4   4  12 35197.3 1742.29  38
  -4   4  11 91854.6 2473.08  54
   4  -4 -11 90010.2 2442.54  29
   4  -4 -11 83673.5 2262.89  45
  -4   4  11 88271.4 3057.92  38
   4  -4 -10 1057.22 259.547  45
  -4   4  10 1064.68 337.297  54
  -4   4  10 1049.61 395.624  38
   4  -4  -9 166658. 5453.33  19
  -4   4   9 175755. 3878.28  54
   4  -4  -9 169147. 3381.23  45
   4  -4  -9 175737. 5537.44  25
  -4   4   9 169958. 4670.39  38
   4  -4  -8 27344.0 2004.36  19
  -4   4   8 31524.7 1415.06  54
   4  -4  -8 28093.6 1992.70  25
  -4   4   8 28852.3 1744.89  38
   4  -4  -7 113109. 4097.37  19
  -4   4   7 106168. 2808.04  54
   4  -4  -7 105558. 2873.62  15
   4  -4  -7 110807. 3984.73  25
  -4   4   7 100052. 3395.13  38
   4  -4  -6 196373. 5582.89  19
  -4   4   6 183796. 7226.34   7
  -4   4   6 187410. 3956.40  54
   4  -4  -6 189115. 4249.12  15
   4  -4  -6 189387. 5430.53  25
  -4   4   6 186440. 4865.04  38
   4  -4  -5 72141.5 3145.17  19
  -4   4   5 65726.7 4135.51   7
  -4   4   5 66080.1 1968.64  54
  -4   4   5 63338.2 1641.40  53
   4  -4  -5 68739.4 2329.32  15
  -4   4   5 64183.7 2603.35  38
   4  -4  -4 117399. 4028.56  19
  -4   4   4 111404. 5438.01   7
  -4   4   4 114524. 2647.04  54
  -4   4   4 108553. 2367.47  53
   4  -4  -4 116352. 3288.46  15
  -4   4   4 110276. 3486.86  38
   4  -4  -3 23909.7 1673.05  19
  -4   4   3 21437.9 2330.77   7
  -4   4   3 24463.0 1027.50  54
  -4   4   3 23140.3 934.159  53
  -4   4   3 25530.5 1635.39  48
   4  -4  -3 23748.9 1461.53  15
  -4   4   3 22964.2 1472.26  38
   4  -4  -2 135088. 4101.40  19
  -4   4   2 136926. 6058.15   7
  -4   4   2 130369. 2688.66  53
   4  -4  -2 134930. 3887.49  15
  -4   4   2 136445. 4002.76  48
   4  -4  -1 52873.8 2359.67  19
  -4   4   1 53953.1 3724.19   7
  -4   4   1 53511.4 1514.10  53
   4  -4  -1 54766.3 2433.19  15
  -4   4   1 61772.0 2496.10  48
  -4   4   0 77096.0 2437.12  37
  -4   4   0 87511.7 4891.43   7
   4  -4   0 84858.6 2939.43  19
  -4   4   0 88960.1 2340.91  32
  -4   4   0 86684.6 2984.45  48
   4  -4   0 83640.8 2994.37  25
   4  -4   0 96070.7 2604.11  14
  -4   4   0 82876.4 2012.19  53
  -4   4  -1 86836.3 2673.19  37
  -4   4  -1 90897.3 5114.97   7
  -4   4  -1 88931.9 2347.23  32
  -4   4  -1 87745.1 2827.88  30
  -4   4  -1 94315.2 2182.51  53
   4  -4   1 88202.5 2704.64  14
   4  -4   1 95824.8 3140.65  25
  -4   4  -1 93566.2 3069.79  48
  -4   4  -2 31556.8 1577.19  37
   4  -4   2 38589.1 2954.60   9
  -4   4  -2 33483.6 1325.65  32
  -4   4  -2 31904.8 1696.46  48
   4  -4   2 30589.5 1587.32  14
  -4   4  -2 37655.4 1318.75  53
  -4   4  -3 226692. 5130.13  37
   4  -4   3 253049. 7768.38   9
  -4   4  -3 216147. 4241.68  32
  -4   4  -3 250013. 4596.38  53
  -4   4  -3 230016. 5230.10  48
   4  -4   3 224733. 5209.27  14
   4  -4   4 62527.2 3579.24   9
  -4   4  -4 61662.3 2388.90  37
  -4   4  -4 61682.2 1763.05  32
   4  -4   4 67834.5 3770.22  16
   4  -4   4 62103.0 2468.88  14
  -4   4  -4 64066.0 2410.70  48
  -4   4  -5 87341.2 2938.59  37
   4  -4   5 87455.7 4298.06  16
   4  -4   5 87185.8 3046.01  14
  -4   4  -5 93907.7 2928.99  48
  -4   4  -6 70955.6 2564.62  37
   4  -4   6 64901.3 3574.10  16
  -4   4  -6 69549.2 2403.78  48
   4  -4   6 68782.9 2641.96  14
  -4   4  -7 41603.9 1869.97  37
   4  -4   7 44796.5 3321.35  26
   4  -4   7 44290.8 2025.20  14
  -4   4  -7 44088.6 1795.34  48
  -4   4  -8 70673.7 2321.62  37
  -4   4  -8 75693.5 2265.74  48
   4  -4   8 74587.5 4217.24  23
   4  -4   8 74140.6 4085.20  26
  -4   4  -9 291.435 194.322  37
  -4   4  -9 215.714 209.561  48
  -4   4 -10 77947.5 1971.51  37
  -4   4 -10 90411.1 2035.56  48
   5  -4 -12 32558.7 1122.80  33
   5  -4 -12 32655.8 1133.70  29
   5  -4 -11 26597.6 1129.76  33
  -5   4  11 24728.8 1044.26  54
  -5   4  11 25747.2 1444.87  48
   5  -4 -11 25647.6 1048.24  29
  -5   4  11 24735.1 1386.04  38
  -5   4  10 69579.5 2877.35  48
  -5   4  10 64663.4 2528.93  38
   5  -4 -10 65940.6 1871.09  29
  -5   4  10 67952.6 1946.58  54
  -5   4   9 534.142 249.667  54
  -5   4   9 581.995 414.225  48
   5  -4  -9 464.393 245.432  29
  -5   4   9 94.3654 291.758  38
  -5   4   8 152962. 4884.44  48
   5  -4  -8 143937. 3119.60  29
   5  -4  -8 149602. 4760.89  25
  -5   4   8 137116. 3259.14  54
  -5   4   8 131513. 4125.84  38
   5  -4  -7 63372.5 2979.91  19
  -5   4   7 58746.7 1959.93  54
  -5   4   7 64796.8 3070.19  48
   5  -4  -7 63167.6 2974.58  25
  -5   4   7 54376.9 2532.99  38
   5  -4  -6 130212. 4460.00  19
  -5   4   6 123738. 3026.19  54
  -5   4   6 125225. 2526.50  53
  -5   4   6 130050. 4481.72  48
   5  -4  -6 119640. 3083.68  15
   5  -4  -6 127222. 4400.68  25
  -5   4   6 117970. 3903.77  38
   5  -4  -5 107459. 4003.72  19
  -5   4   5 102529. 2644.03  54
  -5   4   5 109041. 4005.16  48
   5  -4  -5 96972.7 2831.31  15
   5  -4  -5 104564. 3965.82  25
  -5   4   5 97362.1 2255.45  53
  -5   4   5 103152. 3573.90  38
  -5   4   4 50268.2 1556.08  53
   5  -4  -4 54926.1 2796.46  19
  -5   4   4 51202.0 1700.00  54
   5  -4  -4 50995.5 2054.76  15
  -5   4   4 52590.7 2646.20  48
   5  -4  -4 52998.3 2746.22  25
   5  -4  -3 240473. 6381.46  19
  -5   4   3 242819. 4389.14  53
   5  -4  -3 230621. 5375.28  15
   5  -4  -3 249986. 6438.37  25
  -5   4   3 253616. 6295.83  48
   5  -4  -2 28903.8 1924.08  19
  -5   4   2 29282.4 1161.38  53
  -5   4   2 32852.0 1947.38  48
   5  -4  -2 28113.7 1698.10  15
   5  -4  -2 29887.5 1981.66  25
   5  -4  -1 152768. 4503.68  19
  -5   4   1 144335. 4312.16  48
   5  -4  -1 146510. 4540.72  25
  -5   4   1 145623. 3063.10  53
  -5   4   0 79791.5 2550.89  37
  -5   4   0 78710.7 2072.92  53
   5  -4   0 80885.9 3157.77  25
  -5   4   0 79491.8 2989.33  48
  -5   4  -1 44894.0 1892.56  37
  -5   4  -1 44674.7 2139.27  48
  -5   4  -1 50683.5 1609.21  53
   5  -4   1 44731.3 2356.98  15
  -5   4  -2 173635. 4287.49  37
  -5   4  -2 173575. 4529.28  48
  -5   4  -3 513.018 223.911  37
  -5   4  -3 1069.50 370.583  48
   5  -4   3 1454.16 636.079  16
  -5   4  -4 162351. 4011.15  37
  -5   4  -4 162844. 4036.74  48
  -5   4  -5 51766.4 1994.09  37
  -5   4  -5 56125.4 2041.97  48
  -5   4  -6 21596.0 1177.30  37
  -5   4  -6 22179.2 1159.00  48
  -5   4  -7 91982.7 2422.72  37
  -5   4  -7 98879.6 2441.30  48
  -5   4  -8 7045.61 510.183  37
  -5   4  -8 7111.07 516.207  48
  -5   4  -9 78991.5 1655.42  48
   6  -4  -9 72289.7 1808.53  33
  -6   4   7 41908.2 1366.08  54
  -6   4   6 57504.2 1403.68  53
  -6   4   6 53634.4 1599.44  54
  -6   4   5 18795.7 788.259  53
  -6   4   5 16476.6 1441.63  48
  -6   4   4 128845. 2622.43  53
  -6   4   4 124054. 4006.44  48
  -6   4   3-426.373 392.263  48
  -6   4   3 565.581 228.925  53
  -6   4   2 74903.0 1940.89  53
  -6   4   2 68410.8 2684.27  48
  -6   4   1 19713.2 941.882  53
  -6   4   1 17922.9 1265.57  48
  -6   4   0 38966.5 1372.58  53
  -6   4   0 31566.7 1633.75  48
  -6   4  -1 90504.3 2294.83  53
  -6   4  -1 73485.8 2473.35  48
  -6   4  -2 3842.46 499.532  48
  -6   4  -3 69082.3 2077.06  48
  -6   4  -4 14589.5 803.143  37
  -6   4  -4 3713.88 424.894  48
  -6   4  -5 64300.1 1609.12  37
  -6  -5  -9 2680.06 420.573  32
  -6  -5  -8 94714.2 2943.20  32
  -6  -5  -7 706.379 417.627  32
   6   5   7 260.247 156.931  42
  -6  -5  -6 54943.3 2191.58  32
  -6  -5  -5 35956.4 1584.83  32
  -6  -5  -4 27746.1 1233.83  32
  -6  -5  -4 27259.9 1739.80  40
  -6  -5  -3 59562.2 2275.50  53
  -6  -5  -3 77286.0 3318.16  40
  -6  -5  -2 700.700 478.046  53
  -6  -5  -2 836.912 713.745  40
  -6  -5  -1 69589.7 3132.15  53
  -6  -5  -1 71593.5 3386.41  40
   6   5   0 29916.9 1318.05  36
  -6  -5   0 21214.9 1644.20  40
  -6  -5   0 18795.3 1876.15  53
   6   5   0 26549.1 1091.44  51
   6   5  -1 46518.7 1593.35  36
  -6  -5   1 26197.3 2760.95  53
   6   5  -2 40914.6 1415.02  36
   6   5  -2 44563.6 1382.74  28
   6   5  -3 19243.9 870.995  36
   6   5  -3 18875.2 816.330  28
   6   5  -4 71367.3 1720.73  36
   6   5  -4 84131.1 1887.27  34
  -6  -5   4 70795.2 2518.83  54
  -6  -5   4 72645.8 2496.51  53
   6   5  -4 83313.9 1774.73  28
   6   5  -5 351.437 136.239  34
  -6  -5   5-87.9090 168.758  54
   6   5  -5 316.152 88.8916  45
   6   5  -5 203.802 103.561  28
  -6  -5   5 67.6101 138.636  53
  -5  -5 -11 23105.7 1375.09  35
   5   5  11 21432.6 899.246  30
  -5  -5 -10 32198.4 1990.38  35
   5   5  10 34964.7 1251.80  30
  -5  -5  -9 50300.8 3069.84  35
  -5  -5  -8-799.196 1208.01  35
  -5  -5  -7 27060.8 3557.06  35
  -5  -5  -7 81587.2 2478.38  40
   5   5   6 1703.43 331.681  13
  -5  -5  -6 2083.42 438.256  40
  -5  -5  -5 160373. 4441.07  40
   5   5   5 167333. 4034.67  11
  -5  -5  -4 131189. 4222.05  35
  -5  -5  -4 116170. 3348.56  53
  -5  -5  -4 125881. 4077.20  40
   5   5   4 113336. 3499.38  11
  -5  -5  -3 51658.6 2290.65  53
  -5  -5  -3 58780.2 2864.19  40
   5   5   3 38674.1 1925.16  11
   5   5   3 45574.0 3940.97  22
  -5  -5  -2 106085. 3720.54  53
  -5  -5  -2 119754. 4468.33  40
   5   5   2 106431. 5965.92  22
  -5  -5  -1 1854.07 535.513  53
   5   5   1 975.699 554.404  22
  -5  -5   0 134244. 4901.04  53
  -5  -5   0 135614. 4624.01  40
   5   5   0 126248. 3528.99  11
   5   5   0 132485. 6160.23  22
   5   5  -1 40353.1 1644.97  51
  -5  -5   1 38672.3 2294.14  40
   5   5  -1 45054.5 1914.52  11
   5   5  -1 44760.1 3341.00  22
   5   5  -2 89761.5 2674.60  36
   5   5  -2 89383.4 2455.02  51
  -5  -5   2 81185.2 3148.64  40
   5   5  -2 82418.4 2608.92  11
   5   5  -2 89412.9 4481.77  22
   5   5  -3 141787. 3381.17  36
   5   5  -3 136023. 3079.62  51
   5   5  -4 10303.0 794.493  36
  -5  -5   4 8301.70 1087.35  53
   5   5  -4 10424.6 722.815  28
   5   5  -5 118127. 2859.35  36
   5   5  -5 121492. 2644.31  28
   5   5  -6 15523.6 849.473  36
   5   5  -6 15501.6 775.608  34
   5   5  -6 15837.8 774.287  28
  -5  -5   6 13771.2 1048.76  53
   5   5  -6 12948.2 569.929  45
   5   5  -7 54301.1 1377.03  34
  -5  -5   7 57728.0 1939.02  54
   5   5  -7 55873.9 1418.14  28
  -5  -5   7 54607.1 1541.12  53
   5   5  -8 40393.7 1013.64  34
  -5  -5   8 37767.0 1170.34  54
   4   5  14 1572.95 264.146  30
   4   5  13 66084.2 1854.78  30
  -4  -5 -13 62925.5 1973.34  35
  -4  -5 -12 33512.7 1675.55  35
   4   5  12 31703.9 1261.25  39
  -4  -5 -11 84999.2 3176.09  35
   4   5  11 83467.6 2311.08  39
  -4  -5 -10 107616. 4078.76  35
   4   5  10 114051. 5274.96  18
  -4  -5  -9 10083.6 1318.83  35
   4   5   9 13968.8 805.984  13
  -4  -5  -8 137070. 5886.94  35
  -4  -5  -7 5402.93 1121.81  35
  -4  -5  -7 6247.21 663.134  40
   4   5   6 142208. 3395.24  13
  -4  -5  -6 137585. 3698.04  40
  -4  -5  -5 74230.1 6794.86   1
  -4  -5  -5 74751.7 2730.80  40
   4   5   5 85463.3 2889.92  11
  -4  -5  -4 28051.1 1970.00  35
  -4  -5  -4 29801.6 3977.96   1
  -4  -5  -4 36540.8 1934.78  40
   4   5   4 29074.7 1638.58  11
  -4  -5  -3 95038.4 3328.36  35
   4   5   3 89459.2 5137.22   4
  -4  -5  -3 102987. 3562.27  40
   4   5   3 94797.5 3020.01  11
   4   5   2 21322.5 2541.62   4
   4   5   2 24082.5 1402.36  11
   4   5   1 104852. 5794.82   4
  -4  -5  -1 118863. 4037.98  40
   4   5   1 112802. 3184.25  11
   4   5   1 114989. 5923.08  22
   4   5   0 30870.2 3090.07   4
  -4  -5   0 26804.7 1747.94  31
  -4  -5   0 27029.4 1834.47  40
   4   5   0 29157.3 1466.40  11
   4   5   0 27270.8 2761.18  22
   4   5  -1 44360.7 3751.74   4
  -4  -5   1 47740.0 2737.63  31
  -4  -5   1 51473.5 2476.54  40
   4   5  -1 45431.8 1836.42  11
   4   5  -1 46599.0 3468.32  22
  -4  -5   2 71699.3 4017.87  31
  -4  -5   2 75805.9 2974.67  40
   4   5  -2 76057.5 2373.11  11
   4   5  -2 76826.6 2365.51  51
   4   5  -2 80203.5 4375.81  22
   4   5  -3 33713.2 1544.83  36
  -4  -5   3 29167.9 2733.40  31
  -4  -5   3 32073.9 1736.13  40
   4   5  -3 29094.9 1342.46  11
   4   5  -3 34061.1 1465.10  51
   4   5  -3 31426.2 2593.86  22
   4   5  -4 94026.9 2706.12  36
   4   5  -4 91701.6 2445.53  28
   4   5  -4 89255.2 2509.96  51
   4   5  -5 1099.39 343.502  36
   4   5  -5 1544.71 344.372  28
  -4  -5   5 346.656 548.746  31
   4   5  -6 103927. 4366.05  21
   4   5  -6 107077. 2878.10  36
   4   5  -6 109769. 2633.38  34
  -4  -5   6 93608.8 4055.64  31
   4   5  -6 110164. 2618.37  28
   4   5  -6 98365.1 2161.87  45
  -4  -5   6 109869. 3377.52  41
   4   5  -7 19392.5 1078.06  36
   4   5  -7 19578.7 922.165  34
  -4  -5   7 16856.1 1524.88  31
   4   5  -7 19109.1 942.232  28
   4   5  -7 17623.8 708.773  45
  -4  -5   7 19037.4 1201.36  41
   4   5  -8 73800.5 1826.22  34
   4   5  -8 76751.4 1952.81  28
  -4  -5   8 78468.6 2295.35  41
   4   5  -9 81261.9 1761.24  34
  -4  -5   9 79344.7 1936.50  54
  -4  -5   9 81295.8 2026.22  41
   4   5 -10 405.214 120.978  27
   3   5  15 31490.7 1172.77  30
   3   5  15 28844.1 1123.05  39
  -3  -5 -14 74512.2 2079.70  35
   3   5  14 84700.1 2286.28  30
   3   5  14 73659.2 2075.14  50
  -3  -5 -14 87531.8 3064.67  45
   3   5  14 78656.3 2209.19  39
  -3  -5 -13 498.671 233.391  35
   3   5  13 715.749 262.719  50
  -3  -5 -13 458.300 429.850  45
   3   5  13 688.955 290.939  39
  -3  -5 -12 72720.2 2722.56  35
   3   5  12 79777.4 4489.68  18
   3   5  12 70001.4 2192.46  50
  -3  -5 -12 78369.1 3363.97  45
   3   5  12 73156.5 2347.33  39
  -3  -5 -11 32019.2 1924.78  35
   3   5  11 31646.4 1399.65  50
  -3  -5 -11 33065.4 2205.98  45
   3   5  11 33040.7 1526.23  39
  -3  -5 -10 63190.6 2925.46  35
  -3  -5 -10 68606.3 3201.47  45
   3   5  10 64583.5 2026.82  50
   3   5  10 65943.9 2237.09  39
   3   5  10 59750.1 3323.45  10
  -3  -5  -9 168385. 5340.79  35
  -3  -5  -9 164225. 5094.45  45
   3   5   9 177882. 3539.06  13
   3   5   9 169838. 3894.64  39
   3   5   9 160437. 5765.24  10
  -3  -5  -8 45312.8 2823.40  35
  -3  -5  -8 48547.9 4464.53   1
   3   5   8 41010.2 3125.84   3
  -3  -5  -8 45085.0 2391.78  45
   3   5   8 46460.9 1566.13  13
   3   5   8 49152.2 1758.17  39
   3   5   8 40919.8 2750.27  10
  -3  -5  -7 144302. 5872.47  35
  -3  -5  -7 153794. 8337.83   1
  -3  -5  -7 156189. 4549.02  45
   3   5   7 129891. 5942.08   3
   3   5   7 159747. 3355.98  13
  -3  -5  -7 163356. 6901.30  24
   3   5   7 141927. 5256.21  10
  -3  -5  -6 28804.8 2547.03  35
  -3  -5  -6 40166.5 4267.47   1
  -3  -5  -6 36667.1 1957.90  45
   3   5   6 33809.9 2959.62   3
   3   5   6 39110.9 1497.19  13
  -3  -5  -6 39923.1 3648.99  24
  -3  -5  -6 35831.9 1562.58  40
   3   5   6 36725.7 2500.87  10
  -3  -5  -5 169234. 9311.30   1
   3   5   5 170079. 5864.45  18
  -3  -5  -5 170521. 8550.40  24
   3   5   5 177914. 4189.19  11
  -3  -5  -4 47965.8 4697.56   1
   3   5   4 52970.1 3033.42  18
   3   5   4 53873.2 3456.70   4
  -3  -5  -4 53445.8 5014.06  24
   3   5   4 43916.2 1866.97  11
  -3  -5  -3 98318.0 6233.22   1
   3   5   3 97759.3 5056.20   4
   3   5   3 97260.5 2836.45  11
  -3  -5  -2 237552. 9111.08   1
  -3  -5  -2 248804. 11233.7  24
   3   5   2 242620. 4892.52  11
   3   5   1 1867.54 754.581   4
  -3  -5  -1 3077.26 1341.09  24
   3   5   1 2455.53 414.088  11
   3   5   0 128262. 5963.17   4
  -3  -5   0 137480. 7863.04  24
   3   5   0 127662. 3108.00  11
   3   5   0 132494. 5583.19  22
   3   5  -1 60674.1 4049.59   4
  -3  -5   1 62232.5 5108.74  24
   3   5  -1 60231.1 1918.60  11
   3   5  -1 58206.2 3570.33  22
   3   5  -2 49849.8 3679.44   4
  -3  -5   2 52241.4 3136.10  31
   3   5  -2 57037.1 1898.24  51
  -3  -5   2 53118.4 2206.43  40
   3   5  -2 51807.2 1727.04  11
   3   5  -2 53764.6 3326.62  22
   3   5  -3 120093. 5831.83   4
  -3  -5   3 114951. 4764.30  31
   3   5  -3 128506. 2894.25  11
   3   5  -3 125337. 3070.32  51
   3   5  -3 132793. 5210.62  22
   3   5  -4 575.224 252.027  36
  -3  -5   4 185.189 455.958  31
   3   5  -4 399.587 399.237   4
   3   5  -4 783.046 279.964  51
   3   5  -5 167678. 3863.17  36
   3   5  -5 173014. 3542.73  28
   3   5  -6 36532.4 2602.07  21
   3   5  -6 35207.1 1576.08  36
  -3  -5   6 30495.6 2196.86  31
   3   5  -6 34902.5 1378.42  28
  -3  -5   6 39497.6 4382.78  17
   3   5  -7 96391.1 4275.72  21
   3   5  -7 102376. 2876.33  36
   3   5  -7 98011.4 2412.27  34
  -3  -5   7 98597.7 6454.98  17
   3   5  -7 100593. 2530.01  28
  -3  -5   7 89173.1 3680.15  31
   3   5  -8 33566.8 2363.48  21
   3   5  -8 32292.0 1208.47  34
  -3  -5   8 33811.9 1990.21  31
   3   5  -8 33603.4 1494.14  47
   3   5  -8 34244.3 1349.63  28
  -3  -5   8 36434.5 1974.10  41
   3   5  -9 6239.19 469.958  34
  -3  -5   9 6763.10 789.622  31
   3   5  -9 7319.52 627.978  47
   3   5 -10 83163.5 1814.81  34
  -3  -5  10 87348.7 2411.10  31
   3   5 -10 88599.3 2119.43  27
  -3  -5  10 92521.7 2517.91  41
   3   5 -11 13308.0 620.740  27
  -3  -5  11 14806.1 721.081  41
   2   5  16 49553.3 1549.22  50
   2   5  16 50635.3 1563.25  39
  -2  -5 -16 53537.4 1852.87  45
   2   5  15 78424.4 2302.96  50
   2   5  15 82763.8 2271.04  30
   2   5  15 82755.1 2334.96  39
  -2  -5 -14 12897.3 845.547  35
   2   5  14 14396.2 995.623  39
   2   5  14 12007.8 909.204  50
  -2  -5 -14 14502.9 1328.25  45
   2   5  14 12926.5 902.699  30
  -2  -5 -13 98791.9 2963.02  35
   2   5  13 105395. 5293.30  18
   2   5  13 104379. 2966.90  50
  -2  -5 -13 107901. 3886.36  45
   2   5  13 106495. 3024.12  39
  -2  -5 -12 11193.4 1018.06  35
   2   5  12 11927.6 1846.56  18
  -2  -5 -12 11151.3 1230.05  45
   2   5  12 12244.7 944.098  50
   2   5  12 13083.8 1009.78  39
  -2  -5 -11 97318.5 3350.70  35
   2   5  11 102614. 2894.54  50
   2   5  11 104178. 2807.73  46
  -2  -5 -11 102837. 3763.17  45
  -2  -5 -10 94789.6 3359.22  35
  -2  -5 -10 93134.7 5502.52   1
   2   5  10 94857.5 2641.59  50
  -2  -5 -10 90617.5 3449.56  45
   2   5  10 87309.4 4164.95   3
   2   5  10 93966.3 3911.87  10
  -2  -5  -9 26539.5 2945.22   1
   2   5   9 23099.6 1131.81  50
  -2  -5  -9 23355.1 1594.83  45
   2   5   9 20981.8 1990.14   3
   2   5   9 22293.6 1834.11  10
  -2  -5  -8 143189. 7040.94   1
   2   5   8 155070. 3042.25  13
  -2  -5  -8 139490. 4004.55  45
   2   5   8 123854. 5118.58   3
   2   5   8 131567. 4628.34  10
  -2  -5  -7 6871.13 1490.93   1
   2   5   7 6258.81 518.761  13
  -2  -5  -7 5598.66 1220.81  24
   2   5   7 4652.23 966.803   3
   2   5   7 5537.88 872.035  10
   2   5   6 526375. 7851.31  13
  -2  -5  -6 526486. 15228.1  24
  -2  -5  -6 547406. 15035.6   1
   2   5   6 498457. 10252.1  10
   2   5   5 260998. 7107.82  18
   2   5   5 254049. 4478.93  13
  -2  -5  -5 269849. 10380.3   1
  -2  -5  -5 245636. 11355.1  24
   2   5   4 55836.5 3006.86  18
   2   5   4 64795.9 3292.81   4
  -2  -5  -4 55805.4 4808.22   1
  -2  -5  -4 52155.4 5808.46  24
   2   5   4 64389.3 1998.76  11
   2   5   3 54668.2 3006.71  18
   2   5   3 63194.4 3422.43   4
  -2  -5  -3 52037.3 4713.36   1
  -2  -5  -3 43039.4 4721.99  24
   2   5   3 51220.9 1801.58  11
  -2  -5  -2 641.481 469.775   1
   2   5   2 711.316 314.778  18
  -2  -5  -2-228.376 818.062  24
   2   5   2 605.617 217.200  11
   2   5   1 510770. 10683.6  18
   2   5   1 502572. 12056.0   4
  -2  -5  -1 481572. 14765.0  24
   2   5   1 497478. 7954.35  11
  -2  -5  -1 500199. 12395.6   1
   2   5   0 3616.88 934.780   4
  -2  -5   0 2742.06 1002.14  24
   2   5   0 4111.75 439.906  11
   2   5   0 4243.21 823.060  22
   2   5   0 4159.51 729.353   5
   2   5  -1 109566. 5080.45   4
   2   5  -1 110824. 4310.20   5
  -2  -5   1 109167. 6019.06  24
   2   5  -1 108191. 2526.36  11
   2   5  -1 109393. 4239.63  22
   2   5  -2 206851. 7266.99   4
   2   5  -2 191431. 6359.49   5
  -2  -5   2 203378. 8177.65  24
   2   5  -2 203938. 3819.47  11
   2   5  -2 202988. 5950.54  22
   2   5  -3 46318.3 3317.91   4
  -2  -5   3 48446.7 3642.93  24
   2   5  -4 395618. 6622.39  36
   2   5  -4 344744. 10172.1   4
  -2  -5   4 334978. 8198.53  31
   2   5  -4 395950. 6643.74  51
   2   5  -4 388950. 6183.84  28
  -2  -5   4 369276. 8534.53  43
   2   5  -5 27357.2 2090.38  21
   2   5  -5 23733.9 1197.51  36
   2   5  -5 20999.3 2215.32   4
  -2  -5   5 22379.0 1728.82  43
   2   5  -5 23974.7 1040.30  28
  -2  -5   5 21833.6 1720.59  31
   2   5  -6 205370. 6361.11  21
   2   5  -6 208927. 4473.81  36
   2   5  -6 206518. 3907.04  34
  -2  -5   6 200540. 5689.41  31
   2   5  -6 209022. 4046.94  28
  -2  -5   6 224134. 5951.37  43
   2   5  -7 87133.4 4040.75  21
   2   5  -7 90727.9 2697.20  36
   2   5  -7 90959.9 2209.81  34
  -2  -5   7 86065.4 3438.65  31
   2   5  -7 88549.4 2364.92  28
   2   5  -8 50580.6 3067.08  21
   2   5  -8 55392.5 1608.85  34
  -2  -5   8 55316.2 2541.54  31
   2   5  -8 53026.1 1793.66  28
   2   5  -8 58948.8 2218.16  47
  -2  -5   8 59285.3 2313.31  38
   2   5  -9 103432. 4412.23  21
   2   5  -9 110420. 2433.67  34
  -2  -5   9 113596. 3495.53  31
   2   5  -9 114676. 2829.07  27
   2   5  -9 119117. 3267.89  47
  -2  -5   9 121397. 3232.56  38
  -2  -5  10 9373.05 802.421  31
   2   5 -10 10000.1 797.155  47
   2   5 -10 9039.99 681.253  27
  -2  -5  10 10732.3 769.920  38
   2   5 -11 150529. 3095.60  47
   2   5 -11 147195. 3025.45  27
  -2  -5  11 154347. 3489.07  41
  -2  -5  12 15581.3 737.248  41
   1   5  16 51022.2 1772.51  50
  -1  -5 -16 51461.2 1960.04  45
   1   5  16 48469.2 1634.34  39
   1   5  15 12772.7 896.122  39
   1   5  15 12286.0 945.434  50
   1   5  15 12587.8 817.765  30
  -1  -5 -15 11853.0 1091.52  45
  -1  -5 -14 105021. 2685.06  35
   1   5  14 108223. 3163.12  50
   1   5  14 107439. 2920.40  30
  -1  -5 -14 110320. 3718.88  45
   1   5  14 109095. 3051.57  39
  -1  -5 -13 17046.1 1095.30  35
   1   5  13 16103.2 2076.05  18
   1   5  13 18387.2 1236.17  50
  -1  -5 -13 17495.4 1434.88  45
   1   5  13 18247.4 1189.41  39
   1   5  12 82489.7 4793.19  18
   1   5  12 88902.3 2836.26  50
   1   5  12 85439.9 2747.00  46
  -1  -5 -12 84223.0 3260.08  45
   1   5  12 90723.3 2805.00  39
   1   5  11 8435.85 1567.31  18
   1   5  11 7594.94 772.104  50
  -1  -5 -11 4614.57 1122.86   1
   1   5  11 8044.91 764.700  46
  -1  -5 -11 7482.87 910.354  45
   1   5  11 8739.41 798.691  39
   1   5  11 8149.56 1215.67   3
   1   5  10 19279.9 1143.81  50
   1   5  10 21251.6 2319.37  18
   1   5  10 18673.5 1093.58  46
  -1  -5 -10 19501.4 1275.77  29
  -1  -5 -10 18659.2 1354.76  45
   1   5  10 19056.7 1803.42   3
  -1  -5 -10 18433.1 2192.38   1
  -1  -5  -9 128694. 3506.44  29
   1   5   9 127938. 3048.37  46
  -1  -5  -9 129066. 3664.02  45
   1   5   9 134146. 3184.12  50
   1   5   9 125757. 4696.82   3
  -1  -5  -9 126839. 5957.47   1
   1   5   8 13883.9 1420.68   3
  -1  -5  -8 12811.8 1540.07   6
  -1  -5  -8 14894.2 1960.74   1
   1   5   7 203530. 5866.40   3
  -1  -5  -7 206212. 6320.75   6
  -1  -5  -7 213527. 7755.67   1
   1   5   6 15612.4 1665.54  18
   1   5   6 13882.5 1349.04   3
  -1  -5  -6 14417.7 1474.60   6
   1   5   6 17054.6 705.972  13
   1   5   5 101304. 4189.96  18
  -1  -5  -5 93478.4 3826.09   6
   1   5   5 105509. 2019.24  13
   1   5   5 89888.9 3611.26   3
   1   5   4 122577. 4668.35  18
  -1  -5  -4 123043. 4494.86   6
   1   5   4 122893. 2255.39  13
   1   5   3 58543.6 3223.55  18
  -1  -5  -3 54487.0 2945.33   6
   1   5   3 58921.3 1336.79  13
   1   5   3 59117.8 2646.85   5
  -1  -5  -2 357871. 8670.72   6
   1   5   2 348833. 7880.91   5
   1   5   1 2037.46 603.508  18
   1   5   1 2341.48 644.346   4
  -1  -5  -1 796.024 313.784   6
   1   5   1 1626.10 261.823  11
   1   5   1 1219.06 433.184   5
   1   5   0 280448. 7496.21  18
  -1  -5   0 289873. 7739.99   6
   1   5   0 291034. 7818.69   4
   1   5   0 290207. 7404.32   5
  -1  -5   0 280811. 9040.48  24
   1   5   0 315201. 4880.82  11
   1   5   0 297527. 6444.91  22
   1   5  -1 29984.5 2148.03  18
   1   5  -1 35090.5 2548.14   4
  -1  -5   1 30648.6 2336.10   6
   1   5  -1 30532.2 2260.10   5
  -1  -5   1 30181.1 2663.73  24
   1   5  -1 36086.2 1059.24  11
   1   5  -1 31930.5 1760.44  22
   1   5  -2 122750. 4626.31  18
   1   5  -2 132487. 5149.23   4
   1   5  -2 121642. 4975.29   5
  -1  -5   2 119974. 5273.23  24
   1   5  -3 267663. 7735.55   4
  -1  -5   3 256525. 7307.59   2
   1   5  -4 11561.9 1163.46  21
   1   5  -4 13168.7 1484.59   4
  -1  -5   4 11181.5 1489.06   2
   1   5  -5 106424. 3951.45  21
   1   5  -5 107107. 2691.34  36
  -1  -5   5 106138. 3480.74  31
  -1  -5   5 104701. 4957.23   2
   1   5  -5 101502. 2332.73  28
  -1  -5   5 113792. 3371.05  43
   1   5  -6 3894.83 496.159  36
   1   5  -6 3126.33 704.667  21
  -1  -5   6 3427.55 622.456  31
   1   5  -6 3596.26 409.369  28
  -1  -5   6 3136.45 888.464   2
  -1  -5   6 3674.37 618.550  43
   1   5  -7 282883. 7873.52  21
  -1  -5   7 294667. 6656.35  31
  -1  -5   7 313742. 6805.27  43
  -1  -5   7 302610. 9609.63   2
   1   5  -8 169657. 5985.34  21
  -1  -5   8 175672. 4695.97  31
  -1  -5   8 186186. 4948.57  43
   1   5  -8 174254. 3814.12  27
   1   5  -8 180761. 4534.42  47
  -1  -5   8 182519. 4709.75  38
   1   5  -9 12085.0 1473.98  21
  -1  -5   9 13649.7 1090.00  31
   1   5  -9 16058.3 1210.59  47
  -1  -5   9 15051.4 1245.80  43
   1   5  -9 12942.6 876.367  27
  -1  -5   9 15390.1 1176.99  38
  -1  -5  10 64984.3 2167.71  31
   1   5 -10 63357.9 2016.84  27
   1   5 -10 71839.6 2476.47  47
  -1  -5  10 67817.0 2367.98  38
   1   5 -11 645.109 187.296  37
   1   5 -11 1278.82 342.840  47
   1   5 -11 566.297 200.656  27
  -1  -5  11 700.167 236.013  38
   1   5 -12 69970.2 1799.19  47
  -1  -5  12 65903.1 1715.73  38
   0   5  16 58443.2 1986.41  50
   0  -5 -16 57354.9 2057.00  45
   0   5  15 67470.8 2391.84  50
   0  -5 -15 64274.3 2474.11  45
   0   5  15 63812.4 2128.45  39
   0   5  14 711.614 360.111  50
   0  -5 -14 537.239 415.246  45
   0   5  14 1127.10 363.894  39
   0  -5 -13 169795. 4670.50  45
   0   5  13 170925. 4408.88  50
   0   5  13 175499. 4077.87  30
   0   5  13 172572. 4166.60  39
   0   5  12 9149.34 1575.93  18
   0   5  12 9184.54 908.761  50
   0  -5 -12 11395.9 1009.33  29
   0  -5 -12 9511.20 1012.22  45
   0   5  12 10236.7 848.802  30
   0   5  12 9337.40 853.595  39
   0   5  11 184697. 7340.54  18
   0  -5 -11 175445. 4532.12  45
   0   5  11 189785. 4470.47  50
   0  -5 -11 170207. 4390.23  29
   0   5  11 175816. 4060.07  30
   0   5  11 183558. 4238.46  39
   0  -5 -10 255447. 5138.26  33
   0   5  10 235253. 8163.60  18
   0   5  10 238651. 5075.94  50
   0   5  10 233980. 4752.59  30
   0  -5 -10 207222. 4933.48  29
   0  -5 -10 224186. 5083.93  45
   0  -5 -10 220707. 7508.84   1
   0   5  10 239607. 4907.53  39
   0   5   9 22052.9 2267.56  18
   0   5   9 19704.2 1148.42  50
   0  -5  -9 19264.5 1160.87  29
   0  -5  -9 20609.3 2136.40   1
   0  -5  -9 18235.4 1984.59   6
   0   5   9 21379.2 1141.09  39
   0   5   8 241540. 7699.51  18
   0  -5  -8 212957. 7010.21   6
   0   5   7 23142.4 2149.23  18
   0  -5  -7 20781.4 1931.17   6
   0   5   7 25361.1 1589.65   3
   0   5   6 234723. 7165.86  18
   0  -5  -6 218915. 3991.41  15
   0  -5  -6 217360. 6639.68   6
   0   5   5 148437. 5513.39  18
   0  -5  -5 150324. 5343.06   6
   0  -5  -5 144360. 2867.04  15
   0  -5  -4 446968. 10263.9   6
   0   5   4 433281. 10261.8  18
   0  -5  -3 599265. 8613.46  15
   0  -5  -3 607148. 12710.4   6
   0   5   3 596526. 11733.9   5
   0   5   2 29857.0 2302.55  18
   0  -5  -2 29856.5 2292.41   6
   0   5   2 27545.6 2012.17   5
   0  -5  -1 554960. 8900.68   9
   0   5   1 508656. 11564.2  18
   0  -5  -1 527668. 11755.7   6
   0  -5  -1 567985. 9482.00  16
   0   5   1 512153. 11014.7   5
   0  -5   0 76553.2 2469.45   9
   0   5   0 69041.2 3582.77  18
   0  -5   0 75107.8 2788.46  16
   0  -5   0 74940.2 3722.61   6
   0   5   0 74742.7 3511.09   5
   0   5  -1 284404. 8068.83  18
   0  -5   1 284029. 8231.70   6
   0  -5   1 280482. 6640.61  16
   0  -5   1 294415. 4892.36  14
   0   5  -1 283391. 7770.14   5
   0  -5   1 280961. 6024.10   9
   0  -5   2 42298.4 2406.56  16
   0  -5   2 41685.5 2114.68   2
   0  -5   2 39763.3 1352.24  14
   0   5  -2 41666.0 2879.50   5
   0  -5   3 140203. 4507.01   2
   0  -5   3 137547. 4953.18  16
   0  -5   3 134820. 2989.62  14
   0   5  -3 138129. 5704.14   5
   0  -5   4 230294. 6549.27   2
   0  -5   4 230397. 4463.57  14
   0  -5   4 240987. 6940.75  26
   0  -5   5 347.553 201.724  31
   0  -5   5 373.996 212.440  14
   0  -5   5 22.4518 284.791  26
   0   5  -5 130.290 341.017   5
   0  -5   6 137511. 3641.05  31
   0  -5   6 146402. 3316.26  14
   0   5  -6 138152. 3037.76  27
   0  -5   6 148755. 5927.10  26
   0   5  -6 134096. 3732.97  42
   0   5  -6 130807. 6449.77   5
   0   5  -7 56802.2 1798.97  48
   0  -5   7 53347.3 2182.23  31
   0   5  -7 55305.5 2363.66  47
   0  -5   7 57749.6 2268.79  43
   0   5  -7 53384.6 1800.66  27
   0  -5   7 54918.4 3671.62  26
   0   5  -7 51934.8 2215.27  42
   0   5  -7 54934.6 4161.80   5
   0  -5   8 91369.8 2965.40  31
   0   5  -8 101704. 2536.81  48
   0   5  -8 101253. 3378.11  47
   0   5  -8 90237.1 2561.51  27
   0   5  -8 87920.5 2955.07  42
   0  -5   8 97408.1 3141.90  43
   0   5  -9 150553. 3535.47  37
   0  -5   9 160390. 3889.04  31
   0   5  -9 168782. 4480.03  47
   0   5  -9 151456. 3569.92  27
   0  -5   9 164599. 4277.37  43
   0   5  -9 145954. 3834.67  42
   0   5 -10 13160.5 851.584  37
   0   5 -10 13910.3 1139.61  47
   0   5 -10 13531.9 881.603  27
   0  -5  10 14612.1 1107.83  43
   0  -5  10 15641.2 1132.98  38
   0   5 -11 92608.2 2727.37  47
   0  -5  11 88925.4 2562.64  38
   0   5 -12 16526.4 908.767  47
   0  -5  12 17499.1 888.892  38
  -1   5  16 72511.8 2129.99  50
   1  -5 -16 71672.2 2134.43  45
  -1   5  15 10827.1 942.622  50
   1  -5 -15 10203.7 883.240  45
  -1   5  15 11130.0 768.537  38
   1  -5 -14 77431.5 2522.91  29
   1  -5 -14 72075.2 2619.47  45
  -1   5  14 76115.5 2785.52  50
  -1   5  14 71531.4 2334.94  38
  -1   5  13 1523.06 489.435  50
   1  -5 -13 1834.51 477.252  45
   1  -5 -13 1328.34 366.231  29
  -1   5  13 1693.24 368.235  39
  -1   5  13 1734.80 415.394  38
  -1   5  12 151781. 4293.88  50
   1  -5 -12 146765. 3990.72  29
   1  -5 -12 147698. 3983.66  45
  -1   5  12 150985. 3892.05  39
  -1   5  12 153230. 3895.20  38
   1  -5 -11 62483.6 2304.05  33
  -1   5  11 60045.4 2471.09  50
   1  -5 -11 59375.8 2221.67  29
   1  -5 -11 59942.9 2239.48  45
  -1   5  11 60784.6 2243.75  39
  -1   5  11 62723.3 2241.22  38
   1  -5 -10 69434.2 2401.60  33
  -1   5  10 73248.6 4689.97  18
  -1   5  10 75003.3 2720.73  50
   1  -5 -10 72037.9 2355.95  29
   1  -5 -10 72922.4 2348.97  45
  -1   5  10 73435.1 2433.31  39
  -1   5  10 73031.4 2382.10  38
   1  -5  -9 152961. 3711.67  33
  -1   5   9 150645. 6718.56  18
  -1   5   9 160519. 3425.36  54
  -1   5   9 158620. 3744.28  39
  -1   5   9 163951. 4081.70  50
   1  -5  -9 161619. 3620.01  29
   1  -5  -9 153629. 3482.43  45
   1  -5  -9 151349. 6178.43   6
  -1   5   9 155173. 3601.94  38
  -1   5   8 48316.5 3595.47  18
   1  -5  -8 48964.6 3272.33   6
   1  -5  -8 56497.2 2988.70  25
  -1   5   7 212574. 7591.25  18
   1  -5  -7 225659. 4322.65  15
   1  -5  -7 225639. 7253.35   6
   1  -5  -7 217328. 6352.10  25
  -1   5   6 103691. 4990.80  18
   1  -5  -6 111816. 2626.51  15
   1  -5  -6 114456. 4855.50   6
  -1   5   5 277210. 8375.39  18
   1  -5  -5 280597. 4909.22  15
   1  -5  -5 296850. 8288.79   6
  -1   5   4 153525. 5837.12  18
   1  -5  -4 142934. 3038.59  15
   1  -5  -4 152309. 5796.96   6
  -1   5   3 181227. 6434.06  18
   1  -5  -3 172419. 6190.07   6
   1  -5  -3 170662. 3428.29  15
  -1   5   3 178062. 5852.21   5
  -1   5   2 702209. 14432.0  18
   1  -5  -2 722053. 14304.0   6
  -1   5   1 21666.4 2140.25  18
   1  -5  -1 20992.4 2080.81   6
   1  -5  -1 22868.8 968.268  14
   1  -5  -1 18615.0 1440.98  25
  -1   5   1 19620.5 1878.82   5
  -1   5   0 250558. 8110.11  18
   1  -5   0 261452. 7876.20   6
   1  -5   0 257826. 4605.16  14
   1  -5   0 238085. 5727.05  25
  -1   5   0 264401. 7526.27   5
   1  -5   1 158045. 4431.58   9
  -1   5  -1 161492. 6505.97  18
   1  -5   1 150438. 3309.24  14
   1  -5   1 154303. 6067.90   6
  -1   5  -1 162443. 5737.46   5
   1  -5   2 325497. 7181.01   9
   1  -5   2 347424. 7740.93  16
   1  -5   2 318554. 5845.19  14
  -1   5  -2 339110. 9068.99   5
   1  -5   2 336251. 9820.39   6
   1  -5   3 348227. 8172.72  16
   1  -5   3 325610. 6088.88  14
  -1   5  -3 326677. 9326.47   5
   1  -5   3 326047. 7543.75   9
   1  -5   4 8181.05 1204.82  16
   1  -5   4 8225.39 750.708  14
  -1   5  -4 7530.79 1371.28   5
   1  -5   5 93671.5 4390.23  16
  -1   5  -5 109418. 3423.11  47
   1  -5   5 93779.7 2852.17  14
  -1   5  -5 98265.8 3215.28  42
   1  -5   5 108496. 4725.87  26
  -1   5  -5 99848.2 5309.44   5
  -1   5  -5 92797.7 2814.60  30
  -1   5  -5 100078. 2568.89  48
   1  -5   6 33290.6 1435.46  31
  -1   5  -6 42187.8 2159.65  47
  -1   5  -6 37531.5 1494.10  48
   1  -5   6 33363.6 1626.56  14
  -1   5  -6 36846.9 1939.45  42
   1  -5   6 38896.4 2937.39  26
  -1   5  -6 38660.5 3358.25   5
   1  -5   7 36121.9 1565.99  31
  -1   5  -7 41967.7 1598.83  48
  -1   5  -7 40889.7 2184.72  47
   1  -5   7 36252.3 1693.18  14
  -1   5  -7 36427.5 1970.71  42
   1  -5   7 39527.0 3060.25  26
  -1   5  -8 80245.6 2416.19  37
  -1   5  -8 89990.3 2463.89  48
  -1   5  -8 89885.5 3329.51  47
   1  -5   8 84012.0 2576.60  14
   1  -5   8 85668.7 2743.51  43
  -1   5  -8 80425.6 2986.56  42
   1  -5   8 78474.1 4453.11  26
   1  -5   8 85542.9 4315.38  23
  -1   5  -9 24373.2 1230.67  37
   1  -5   9 27956.0 1498.74  43
  -1   5  -9 27063.6 1205.63  48
  -1   5  -9 29118.7 1786.64  47
   1  -5   9 24263.5 2101.06  23
  -1   5  -9 25149.5 1519.88  42
  -1   5 -10 120946. 3613.10  47
   1  -5  10 117277. 3190.39  43
  -1   5 -11 3900.50 402.438  37
  -1   5 -11 4027.63 580.608  47
   1  -5  11 3577.86 486.880  43
   1  -5  11 4130.51 552.805  38
  -1   5 -12 66340.4 1912.69  47
   1  -5  12 61240.0 1550.94  46
   1  -5  12 66773.6 1842.41  38
   2  -5 -15 82785.7 2175.49  29
   2  -5 -15 79841.1 2303.76  45
  -2   5  15 87749.9 2523.25  50
  -2   5  15 82000.9 2275.83  38
   2  -5 -14 4045.26 557.736  45
   2  -5 -14 3366.45 505.646  29
  -2   5  14 3319.11 580.298  50
  -2   5  14 3543.59 517.949  38
   2  -5 -13 110155. 2925.88  33
  -2   5  13 103939. 3534.67  50
   2  -5 -13 100287. 2999.62  29
   2  -5 -13 94679.4 2880.79  45
  -2   5  13 101844. 3064.63  38
   2  -5 -12 12035.8 964.533  33
   2  -5 -12 12896.3 968.428  45
  -2   5  12 13440.3 1247.55  50
   2  -5 -12 12530.6 965.356  29
  -2   5  12 14501.7 1121.43  38
   2  -5 -11 139240. 3749.80  33
   2  -5 -11 144532. 3593.87  29
   2  -5 -11 137310. 3487.93  45
  -2   5  11 146715. 3470.83  54
  -2   5  11 140334. 4335.46  50
  -2   5  11 147439. 3948.40  38
   2  -5 -10 74835.9 2213.74  34
   2  -5 -10 76669.3 2492.79  33
  -2   5  10 80948.7 2348.48  54
  -2   5  10 70561.9 2910.36  50
   2  -5 -10 77973.1 2368.42  29
   2  -5 -10 71771.3 2225.57  45
  -2   5  10 76484.5 2674.53  38
  -2   5   9 69319.5 2138.96  54
  -2   5   9 62592.7 2630.86  50
   2  -5  -9 57476.0 3496.73  25
   2  -5  -9 72898.2 2185.15  29
   2  -5  -9 66466.3 1959.68  45
   2  -5  -9 68341.4 4118.21   6
  -2   5   9 70503.0 2500.79  38
  -2   5   8 216975. 4249.49  54
  -2   5   8 191541. 4926.05  50
   2  -5  -8 212840. 4460.40  15
   2  -5  -8 222053. 4218.56  29
   2  -5  -8 199557. 7227.22   6
   2  -5  -8 187866. 6526.50  25
  -2   5   8 209207. 4682.77  38
  -2   5   7 17825.4 2365.77  18
   2  -5  -7 15985.6 998.598  15
   2  -5  -7 13943.7 1734.31   6
   2  -5  -7 14033.0 1518.76  25
   2  -5  -6 149111. 4742.07  19
  -2   5   6 169101. 7334.53  18
   2  -5  -6 137222. 3364.03  15
   2  -5  -6 136796. 5669.55   6
   2  -5  -6 159304. 4930.36  25
   2  -5  -5 96101.8 3536.57  19
  -2   5   5 105362. 5628.19  18
   2  -5  -5 84423.6 2480.92  15
   2  -5  -5 81849.6 4326.93   6
   2  -5  -5 102941. 3697.21  25
   2  -5  -4 134799. 4112.67  19
  -2   5   4 127889. 6185.19  18
   2  -5  -4 115432. 5310.91   6
   2  -5  -4 112836. 2987.96  15
   2  -5  -4 144056. 4318.01  25
   2  -5  -3 167778. 4584.37  19
  -2   5   3 154138. 6854.03  18
   2  -5  -3 145078. 3516.90  15
   2  -5  -3 144886. 6123.68   6
   2  -5  -3 172571. 4818.82  25
   2  -5  -2 80093.2 3003.65  19
  -2   5   2 77315.0 3106.64   7
  -2   5   2 73708.8 4722.90  18
   2  -5  -2 73551.2 4293.02   6
   2  -5  -2 83636.9 3222.83  25
  -2   5   2 68669.8 3956.60   5
  -2   5   1 187868. 5441.50   7
  -2   5   1 189391. 7897.33  18
   2  -5  -1 179866. 6865.61   6
   2  -5  -1 179635. 3694.83  14
   2  -5  -1 201796. 5463.03  25
  -2   5   1 176345. 6596.38   5
   2  -5   0 10620.7 1624.14   6
   2  -5   0 9523.35 732.564  14
   2  -5   0 7463.46 1001.19  25
  -2   5   0 9186.16 1440.35   5
   2  -5   1 301569. 9151.92   6
   2  -5   1 282376. 5441.37  14
  -2   5  -1 310162. 8987.16   5
   2  -5   2 99011.4 3895.50   9
   2  -5   2 93546.5 2783.91  14
   2  -5   2 97130.0 5056.66   6
  -2   5  -2 102647. 4942.30   5
   2  -5   3 93989.4 3819.55   9
   2  -5   3 102181. 4190.45  16
   2  -5   3 91755.4 5105.24   6
   2  -5   3 91916.0 2836.42  14
  -2   5  -3 94467.8 4807.55   5
  -2   5  -4 107673. 4169.22  47
  -2   5  -4 108093. 3336.93  30
   2  -5   4 118228. 6106.51   6
   2  -5   4 109776. 3235.34  14
  -2   5  -4 112762. 3656.37  42
  -2   5  -4 121752. 3026.91  48
  -2   5  -4 112796. 5387.77   5
   2  -5   4 117180. 4685.35  16
   2  -5   4 114782. 4399.78   9
   2  -5   5 4606.30 1208.56   6
  -2   5  -5 3645.94 604.197  30
   2  -5   5 3437.93 868.113  16
  -2   5  -5 2782.32 644.786  47
   2  -5   5 4272.93 616.214  14
  -2   5  -5 3387.51 637.961  42
  -2   5  -5 3409.66 476.233  48
  -2   5  -5 3227.01 850.202   5
  -2   5  -6 319619. 7668.13  47
  -2   5  -6 329287. 6004.84  48
   2  -5   6 306867. 8812.21  16
   2  -5   6 291794. 6265.58  14
  -2   5  -6 303117. 7079.96  42
  -2   5  -6 320042. 9696.62   5
  -2   5  -7 44639.7 1750.55  37
  -2   5  -7 48439.0 1805.76  48
  -2   5  -7 50016.8 2602.09  47
   2  -5   7 41225.3 1887.68  14
  -2   5  -7 45535.7 2332.25  42
   2  -5   7 47644.1 3418.62  26
  -2   5  -8 20615.1 1146.87  37
  -2   5  -8 23204.8 1189.14  48
  -2   5  -8 25735.3 1790.58  47
   2  -5   8 21197.2 1268.96  14
  -2   5  -8 21663.1 1563.36  42
   2  -5   8 20946.6 2221.97  26
   2  -5   8 21390.3 2239.68  23
  -2   5  -9 92992.4 2620.25  37
  -2   5  -9 107319. 2645.05  48
  -2   5  -9 108275. 3566.84  47
   2  -5   9 104763. 2889.54  43
   2  -5   9 99576.4 4832.86  26
   2  -5   9 100517. 4542.43  23
  -2   5 -10 5538.87 519.516  37
  -2   5 -10 6077.75 523.943  48
  -2   5 -10 6283.10 768.535  47
   2  -5  10 6618.13 648.728  43
  -2   5 -11 143181. 3404.01  47
   2  -5  11 138468. 3037.88  43
   2  -5  11 144916. 3219.57  38
  -2   5 -12 7887.50 536.589  47
   2  -5  12 7907.37 510.835  38
  -3   5  15 22207.1 997.974  38
   3  -5 -14 120775. 2931.62  29
   3  -5 -14 116300. 2725.66  45
   3  -5 -13 7470.38 658.233  33
   3  -5 -13 7589.84 707.080  29
   3  -5 -13 6013.93 572.233  45
  -3   5  13 7319.07 763.948  38
   3  -5 -12 165178. 3839.13  29
   3  -5 -12 150429. 3793.57  33
   3  -5 -12 153101. 3579.59  45
  -3   5  12 162652. 4235.76  38
  -3   5  11 164856. 4893.72  50
   3  -5 -11 152923. 3806.93  33
  -3   5  11 159419. 3645.24  54
   3  -5 -11 153699. 3664.46  29
   3  -5 -11 145687. 3426.62  45
  -3   5  11 147976. 4168.97  38
  -3   5  10 63214.1 2104.68  54
  -3   5  10 65263.5 3002.40  50
   3  -5 -10 63819.6 2108.84  29
   3  -5 -10 60845.4 1904.46  45
  -3   5  10 61447.4 2532.53  38
  -3   5   9 61732.1 2886.31  50
  -3   5   9 61533.4 2062.03  54
   3  -5  -9 59440.2 1969.29  29
   3  -5  -9 52460.4 3364.38  25
  -3   5   9 59132.7 2451.96  38
   3  -5  -8 53662.8 3060.89  19
  -3   5   8 48042.0 1799.11  54
  -3   5   8 48764.9 2484.54  50
   3  -5  -8 53648.8 2017.94  15
   3  -5  -8 55172.8 1821.21  29
   3  -5  -8 49029.4 3410.94   6
   3  -5  -8 59127.0 3249.79  25
  -3   5   8 50257.3 2241.57  38
   3  -5  -7 344801. 8172.10  19
  -3   5   7 322977. 5807.12  54
  -3   5   7 318722. 7167.49  50
   3  -5  -7 316379. 6213.02  15
   3  -5  -7 326730. 5641.70  29
   3  -5  -7 287659. 9054.75   6
   3  -5  -7 357968. 8253.22  25
  -3   5   7 312896. 6658.31  38
   3  -5  -6 18863.8 1612.00  19
  -3   5   6 20302.1 1021.98  54
   3  -5  -6 18330.9 887.597  29
   3  -5  -6 16032.2 1887.31   6
  -3   5   6 21595.9 1504.52  50
   3  -5  -6 21606.2 1745.68  25
   3  -5  -6 15625.6 1083.54  15
  -3   5   6 18167.5 1267.99  38
   3  -5  -5 188251. 5215.55  19
  -3   5   5 162986. 3402.54  54
  -3   5   5 169045. 4558.57  50
   3  -5  -5 160942. 4013.94  15
   3  -5  -5 152070. 6295.18   6
   3  -5  -5 187708. 5221.67  25
  -3   5   5 167573. 4287.63  38
   3  -5  -4 181093. 4977.75  19
   3  -5  -4 161317. 4053.32  15
   3  -5  -4 160550. 6605.87   6
   3  -5  -4 181926. 5013.00  25
   3  -5  -3 22401.3 1564.04  19
  -3   5   3 20497.2 1875.48   7
   3  -5  -3 20292.5 1292.73  15
   3  -5  -3 19762.1 2324.08   6
   3  -5  -3 21500.7 1556.03  25
   3  -5  -2 369052. 7598.11  19
  -3   5   2 356098. 9067.79   7
   3  -5  -2 376622. 7727.30  25
   3  -5  -1 63104.0 2578.02  19
  -3   5   1 60846.1 3413.40   7
   3  -5  -1 58654.4 1882.48  14
   3  -5  -1 59646.7 4268.95   6
   3  -5  -1 66040.4 2747.18  25
  -3   5   0 212487. 7016.08   7
   3  -5   0 218099. 5369.86  19
   3  -5   0 213748. 8341.14   6
   3  -5   0 210281. 4473.81  14
   3  -5   0 226691. 5765.71  25
  -3   5  -1 42289.5 2031.66  30
   3  -5   1 46711.3 3739.99   6
  -3   5  -1 47084.9 1900.55  48
   3  -5   1 43423.4 1815.09  14
   3  -5   1 45894.2 2587.47  25
  -3   5  -1 42955.1 3594.52   5
   3  -5   2 66943.8 3555.81   9
  -3   5  -2 67117.9 2305.64  48
   3  -5   2 65228.7 4370.66   6
   3  -5   2 61629.2 2315.51  14
  -3   5  -2 59737.9 2608.89  42
  -3   5  -2 56195.8 2450.85  30
  -3   5  -2 67730.7 4520.25   5
   3  -5   3 185704. 6091.90   9
  -3   5  -3 185396. 4251.94  48
   3  -5   3 180963. 7491.67   6
   3  -5   3 176550. 4453.11  14
  -3   5  -3 164242. 4880.02  42
  -3   5  -3 164711. 4647.62  30
   3  -5   3 204605. 6595.84  16
  -3   5  -3 194701. 7738.83   5
   3  -5   4 947.211 467.157   9
   3  -5   4 808.868 350.455  14
  -3   5  -4 1069.16 323.409  48
   3  -5   4 320.546 332.192   6
  -3   5  -4 754.952 308.422  42
   3  -5   4 1705.41 741.979  16
   3  -5   5 251950. 7662.18  16
  -3   5  -5 265816. 5323.07  48
  -3   5  -5 252521. 7410.96  47
   3  -5   5 251238. 5687.06  14
  -3   5  -6 10367.7 814.878  37
  -3   5  -6 11107.0 888.424  48
   3  -5   6 10109.5 1435.19  16
  -3   5  -6 12133.0 1354.19  47
  -3   5  -6 9512.26 1116.69  42
  -3   5  -7 57438.0 2020.43  37
  -3   5  -7 61718.2 2082.61  48
   3  -5   7 66797.0 3999.95  26
  -3   5  -7 62146.2 2883.84  47
   3  -5   7 56344.5 2247.53  14
  -3   5  -8 53855.9 1866.39  37
  -3   5  -8 58482.1 2569.50  47
  -3   5  -8 59341.0 1933.26  48
   3  -5   8 57319.5 3596.70  26
   3  -5   8 61042.2 3704.64  23
  -3   5  -9 11194.7 730.390  37
   3  -5   9 12581.3 823.223  43
  -3   5  -9 12302.5 779.050  48
  -3   5  -9 12938.5 1040.51  47
  -3   5 -10 87851.8 2022.13  48
  -3   5 -10 83621.0 2429.73  47
   3  -5  10 82528.8 2105.58  43
   3  -5  11 448.916 147.199  38
   4  -5 -13 95377.3 2248.59  33
   4  -5 -13 95103.0 2400.85  29
  -4   5  13 97344.5 2671.49  38
   4  -5 -12 4577.07 523.348  33
   4  -5 -12 5438.74 556.481  29
  -4   5  12 6032.05 710.242  38
   4  -5 -11 94234.6 2647.60  33
   4  -5 -11 92292.5 2533.22  29
  -4   5  11 89301.2 2495.08  54
  -4   5  11 87970.6 2997.72  38
  -4   5  10 67167.5 2166.40  54
   4  -5 -10 64366.9 2080.18  29
  -4   5  10 61053.2 2572.41  38
  -4   5   9 43560.7 1738.59  54
   4  -5  -9 47952.5 1731.97  29
   4  -5  -9 43716.2 2954.68  25
  -4   5   9 41791.8 2142.47  38
   4  -5  -8 103923. 4361.47  19
  -4   5   8 107710. 2894.09  54
   4  -5  -8 107599. 2753.11  29
   4  -5  -8 100482. 2934.53  15
   4  -5  -8 112334. 4542.20  25
  -4   5   8 103181. 3526.36  38
   4  -5  -7 4975.66 932.485  19
  -4   5   7 5546.60 600.768  54
  -4   5   7 6203.68 986.298  50
   4  -5  -7 5551.58 661.961  15
   4  -5  -7 5573.79 562.647  29
   4  -5  -7 5885.84 1040.74  25
  -4   5   7 5538.44 789.087  38
   4  -5  -6 304081. 7463.21  19
  -4   5   6 260667. 5133.40  54
   4  -5  -6 258329. 5617.35  15
   4  -5  -6 279219. 4940.51  29
   4  -5  -6 301936. 7475.06  25
  -4   5   6 250693. 6071.73  38
   4  -5  -5 12982.9 1397.65  19
  -4   5   5 16806.1 955.753  54
  -4   5   5 15084.3 736.498  53
   4  -5  -5 12903.2 1051.88  15
   4  -5  -5 15898.3 1528.03  25
  -4   5   5 13606.3 1186.53  38
   4  -5  -4 16741.0 1502.14  19
  -4   5   4 14121.7 857.258  54
   4  -5  -4 14116.5 1145.09  15
  -4   5   4 13467.9 1180.34  48
   4  -5  -4 17898.5 1602.26  25
  -4   5   4 14906.1 742.631  53
  -4   5   4 13719.9 1168.24  38
   4  -5  -3 186634. 5226.07  19
  -4   5   3 182114. 3691.17  54
  -4   5   3 177983. 3396.53  53
  -4   5   3 173915. 4673.10  48
   4  -5  -3 173202. 4598.87  15
   4  -5  -3 189244. 5365.10  25
   4  -5  -2 2676.40 632.689  19
  -4   5   2 2537.92 328.628  53
  -4   5   2 3082.06 872.691   7
  -4   5   2 2785.37 524.053  48
   4  -5  -2 2265.64 503.058  15
   4  -5  -2 2997.18 710.961  25
   4  -5  -1 177083. 4861.34  19
  -4   5   1 166819. 3342.90  53
  -4   5   1 166843. 4410.44  48
   4  -5  -1 174290. 4690.16  15
   4  -5  -1 175843. 5059.74  25
   4  -5   0 14776.1 1284.74  19
  -4   5   0 14209.3 817.320  53
  -4   5   0 10290.4 1650.89   7
  -4   5   0 12206.8 1130.16  30
   4  -5   0 14116.8 910.900  14
   4  -5   0 15317.8 1402.88  25
  -4   5   0 14470.8 1120.13  48
  -4   5  -1 196939. 4001.61  53
  -4   5  -1 189358. 4621.91  48
   4  -5   1 192662. 4264.19  14
   4  -5   2 185590. 4459.19  14
  -4   5  -2 182624. 4481.15  48
   4  -5   3 6908.87 1200.10  16
   4  -5   3 6368.12 750.030  14
  -4   5  -3 6098.76 721.072  48
   4  -5   4 79524.6 3983.68  16
  -4   5  -4 78960.0 2585.98  48
   4  -5   4 73143.6 2710.93  14
  -4   5  -5 4202.95 506.287  37
  -4   5  -5 5151.24 646.617  48
   4  -5   5 4962.39 676.454  14
   4  -5   5 5786.80 1091.50  16
  -4   5  -6 147432. 3482.67  48
   4  -5   6 151932. 6004.20  26
  -4   5  -7 25305.4 1148.91  37
  -4   5  -7 27431.8 1254.61  48
   4  -5   7 27940.0 2349.70  26
  -4   5  -8 56753.8 1627.07  37
  -4   5  -8 61509.6 1768.58  48
  -4   5  -9 60034.7 1539.55  48
   4  -5   9 54331.9 1432.24  43
   5  -5 -12 67325.9 1587.99  33
   5  -5 -12 60567.8 1572.93  29
   5  -5 -11 6494.85 537.860  33
  -5   5  11 7433.10 702.890  48
   5  -5 -11 6533.78 514.802  29
  -5   5  11 6943.73 664.227  38
   5  -5 -10 63511.4 1912.84  33
  -5   5  10 60852.7 2354.99  48
   5  -5 -10 60107.8 1775.52  29
  -5   5  10 57917.0 2188.77  38
  -5   5   9 120701. 2892.90  54
  -5   5   9 126031. 3781.20  48
   5  -5  -9 119558. 2774.91  29
  -5   5   8 4953.34 554.146  54
  -5   5   8 4353.84 716.894  48
   5  -5  -8 4937.88 507.729  29
  -5   5   8 4394.67 678.759  38
   5  -5  -7 123906. 4564.05  19
  -5   5   7 119895. 2987.93  54
  -5   5   7 120366. 3861.42  48
   5  -5  -7 121673. 2816.30  29
   5  -5  -7 130561. 4771.50  25
   5  -5  -6 9411.71 1185.81  19
  -5   5   6 10202.0 772.533  54
  -5   5   6 9377.54 593.790  53
  -5   5   6 9572.58 1039.77  48
   5  -5  -6 11318.4 1331.43  25
  -5   5   5 89549.6 2480.62  54
  -5   5   5 89086.1 2158.45  53
  -5   5   5 89195.0 3252.20  48
   5  -5  -5 81831.4 2762.47  15
   5  -5  -4 26042.0 1938.63  19
  -5   5   4 26007.8 1670.17  48
   5  -5  -4 20294.0 1339.82  15
   5  -5  -4 25826.9 2020.28  25
  -5   5   4 25598.2 1073.38  53
   5  -5  -3 87051.8 3563.40  19
  -5   5   3 84994.4 2159.10  53
  -5   5   3 78436.0 2983.87  48
   5  -5  -3 86832.4 3708.11  25
   5  -5  -2 226465. 6020.99  19
  -5   5   2 224821. 4191.87  53
  -5   5   2 217549. 5324.44  48
   5  -5  -2 230245. 6319.81  25
   5  -5  -1-198.538 385.115  19
  -5   5   1 579.085 274.055  53
   5  -5  -1-16.5102 301.119  15
  -5   5   1 546.555 328.491  48
   5  -5  -1 474.882 310.370  25
   5  -5   0 144559. 4298.99  15
  -5   5   0 149621. 4065.54  48
  -5   5  -1 59819.7 2320.64  48
   5  -5   1 61073.3 2573.94  15
   5  -5   2 113739. 3538.34  15
   5  -5   2 114117. 4710.44  16
  -5   5  -2 107051. 3143.97  48
  -5   5  -3 111009. 3067.99  48
  -5   5  -4 8683.14 754.738  48
  -5   5  -5 119653. 2897.17  48
  -5   5  -6 7209.86 570.476  48
  -5   5  -7 69312.3 1726.41  48
  -5   5  -8 45370.0 1124.80  48
   6  -5  -9 21289.3 811.080  33
   6  -5  -8 114418. 2457.95  33
   6  -5  -7 7829.70 562.187  33
  -6   5   7 9673.79 818.148  48
   6  -5  -6 59890.9 1676.92  33
  -6   5   6 61967.3 2224.50  48
   6  -5  -5 45479.3 1394.82  33
  -6   5   5 45561.4 1925.44  48
  -6   5   4 67361.7 2393.96  48
  -6   5   3 89408.7 2791.67  48
  -6   5   2 2479.90 447.009  48
  -6   5   1 49408.9 1899.33  48
  -6   5   0 4940.44 571.744  48
  -6   5  -1 45984.8 1665.27  48
  -6   5  -2 35373.5 1346.40  48
  -6   5  -3 33617.2 1200.10  48
  -6   5  -4 86377.1 1910.49  48
  -6  -6  -8 17634.6 791.645  32
  -6  -6  -7 28541.1 1060.67  32
  -6  -6  -6 4882.50 405.993  32
  -6  -6  -5 55602.6 2453.14  40
  -6  -6  -4 11855.6 1390.67  40
  -6  -6  -3 32840.3 1397.23  53
   6   6   3 39807.7 1385.47  51
  -6  -6  -2 23143.5 1351.33  53
   6   6   2 27825.8 1101.44  51
   6   6   1 10497.1 687.906  36
   6   6   1 10323.6 625.870  51
  -6  -6  -1 7192.90 868.173  53
  -6  -6  -1 7625.99 1103.14  40
   6   6   0 95964.5 2233.36  36
  -6  -6   0 93954.3 3074.32  40
   6   6   0 87325.8 1985.73  51
   6   6  -1 1594.95 264.199  36
  -6  -6   1 1138.97 492.498  53
   6   6  -1 1897.15 272.582  28
   6   6  -2 54933.8 1457.33  36
  -6  -6   2 59718.8 2293.43  53
   6   6  -2 56925.1 1401.13  28
   6   6  -3 13552.7 587.082  36
   6   6  -3 15224.0 635.727  34
  -6  -6   3 13058.2 832.270  54
  -6  -6   3 14959.8 904.582  53
   6   6  -3 15707.5 606.763  28
   6   6  -4 26814.1 754.526  34
   6   6  -4 26508.1 736.646  28
  -5  -6 -11 65205.5 2158.99  35
  -5  -6 -10 5166.69 715.038  35
  -5  -6  -9 40843.9 2228.39  35
  -5  -6  -8 32613.5 2208.53  35
  -5  -6  -7 15794.6 1493.91  35
  -5  -6  -7 13316.5 1048.60  40
  -5  -6  -6 59723.4 2614.62  35
  -5  -6  -6 51435.0 2404.13  40
  -5  -6  -5 477.599 327.076  35
  -5  -6  -5 584.212 395.634  40
  -5  -6  -4 128960. 3736.63  53
   5   6   4 134568. 3459.90  42
  -5  -6  -4 140956. 5245.58  40
   5   6   4 138517. 6470.89  22
  -5  -6  -3 24020.0 1682.82  53
  -5  -6  -3 27236.8 2626.94  40
   5   6   3 31484.3 1586.41  11
   5   6   3 27617.4 2741.56  22
  -5  -6  -2 34922.9 2273.77  53
  -5  -6  -2 35321.1 3077.48  40
   5   6   2 40199.0 1851.13  11
   5   6   2 40722.2 3216.85  22
  -5  -6  -1 62376.2 3581.94  53
  -5  -6  -1 62865.5 3683.51  40
   5   6   1 78730.8 2629.58  11
   5   6   1 85936.7 4539.65  22
   5   6   0 16537.6 1006.99  51
   5   6   0 13936.1 1718.26  22
  -5  -6   1 130798. 4437.04  40
   5   6  -1 144434. 3272.53  51
   5   6  -1 142439. 5376.54  22
   5   6  -2 5071.90 580.693  36
   5   6  -2 4440.97 492.937  51
  -5  -6   2 4249.73 673.312  40
   5   6  -3 169101. 3529.80  36
   5   6  -3 160166. 3312.84  51
   5   6  -3 166646. 3288.77  28
   5   6  -4 69806.4 1950.99  36
  -5  -6   4 66810.9 2858.81  53
   5   6  -4 70925.8 1792.12  28
   5   6  -5 7493.82 556.912  36
   5   6  -5 7068.17 478.324  34
   5   6  -5 6864.76 475.894  28
   5   6  -5 6400.93 338.215  45
   5   6  -6 50761.0 1253.21  34
  -5  -6   6 52216.8 1584.76  53
   5   6  -6 53557.3 1319.11  28
  -5  -6   7 2743.54 283.598  54
  -4  -6 -13 8149.88 689.514  35
   4   6  13 8414.28 613.805  30
  -4  -6 -12 104039. 3267.29  35
   4   6  12 117616. 2813.65  30
  -4  -6 -11 3423.95 684.462  35
   4   6  11 5985.92 620.660  30
  -4  -6 -10 71517.6 3510.15  35
   4   6  10 103070. 2789.36  30
   4   6   9 38077.9 3104.84  18
   4   6   9 40897.7 1713.92  30
   4   6   9 43714.3 1369.05  13
   4   6   8 54498.4 3762.49  18
   4   6   8 51782.2 1926.79  30
   4   6   8 50282.7 1547.53  13
  -4  -6  -7 101032. 5239.38  35
   4   6   7 110544. 2950.28  30
   4   6   7 111742. 2601.11  13
  -4  -6  -7 102434. 3298.46  40
  -4  -6  -6 3731.61 836.211  35
   4   6   6 3151.89 405.885  13
  -4  -6  -6 4030.42 693.624  40
   4   6   5 175114. 3834.66  13
  -4  -6  -5 186917. 5455.42  40
  -4  -6  -4 73048.6 2751.78  35
   4   6   4 78318.7 2680.22  11
  -4  -6  -3 78164.0 4122.65  40
   4   6   3 70427.2 2624.71  11
   4   6   2 85874.7 2629.93  42
  -4  -6  -2 81161.2 4359.27  40
   4   6   2 82821.9 2844.54  11
  -4  -6  -1 8184.50 1292.16  40
   4   6   1 6604.79 752.233  11
   4   6   1 6640.49 1354.92  22
  -4  -6   0 77268.5 3665.41  40
   4   6   0 81259.0 2647.69  11
  -4  -6   1-510.943 763.390  31
   4   6  -1 433.719 237.857  51
  -4  -6   1 183.594 322.153  40
   4   6  -1 562.974 236.078  11
   4   6  -1 776.749 570.274  22
   4   6  -2 157843. 3524.74  51
  -4  -6   2 149527. 4470.71  40
   4   6  -2 159585. 5838.20  22
   4   6  -3 26542.8 1318.11  36
  -4  -6   3 22201.8 2545.61  31
   4   6  -3 25929.2 1249.91  51
  -4  -6   3 25885.8 1534.09  40
   4   6  -4 52859.5 1854.90  36
  -4  -6   4 48880.7 3131.21  31
   4   6  -4 52064.4 1775.13  51
   4   6  -4 50924.2 1632.48  28
   4   6  -5 62891.6 3128.46  21
   4   6  -5 63614.0 2037.22  36
  -4  -6   5 67373.0 3209.88  31
   4   6  -5 64540.7 1826.57  28
   4   6  -6 5469.72 559.091  36
   4   6  -6 5322.44 448.699  34
  -4  -6   6 6022.30 869.815  31
   4   6  -6 4969.42 454.634  28
   4   6  -7 67490.0 1612.88  34
  -4  -6   7 72670.4 2120.33  53
   4   6  -7 70566.4 1839.50  47
   4   6  -7 71040.8 1760.86  28
   4   6  -8 871.552 144.405  34
  -4  -6   8 949.770 279.656  31
  -4  -6   8 534.567 165.530  54
   4   6  -9 29245.1 828.901  27
   3   6  15 17507.9 819.001  30
   3   6  15 16377.8 780.219  39
  -3  -6 -14 30936.9 1331.52  35
   3   6  14 30507.9 1137.11  50
   3   6  14 34261.6 1374.61  30
   3   6  14 32879.7 1320.81  39
  -3  -6 -13 65847.6 2431.41  35
   3   6  13 72975.5 2254.65  30
   3   6  13 64865.2 1940.95  50
   3   6  13 67211.0 2143.27  39
  -3  -6 -12 315.079 396.462  35
   3   6  12 677.016 228.504  50
  -3  -6 -12 561.976 410.977  45
   3   6  12 896.528 316.678  39
  -3  -6 -11 75350.1 3346.13  35
   3   6  11 84420.3 4865.57  18
  -3  -6 -11 87488.9 3340.40  45
   3   6  11 85698.2 2656.01  39
  -3  -6 -10 7903.13 1156.06  35
   3   6  10 11102.9 1755.00  18
  -3  -6 -10 10330.1 1147.47  45
   3   6  10 12281.4 958.812  39
   3   6   9 139697. 6318.18  18
  -3  -6  -9 141686. 4363.00  45
   3   6   9 150793. 3008.70  13
   3   6   9 147855. 3637.88  39
   3   6   8 30587.6 2786.05  18
  -3  -6  -8 30315.3 1839.34  45
   3   6   8 32857.3 1207.93  13
   3   6   8 32016.6 1495.30  39
  -3  -6  -7 86754.6 7761.74   1
   3   6   7 102956. 5138.60  18
   3   6   7 90550.9 4642.43   3
   3   6   7 101758. 2368.25  13
  -3  -6  -7 97599.5 6684.94  24
  -3  -6  -7 98026.8 3051.55  40
  -3  -6  -6 212524. 6999.28  35
   3   6   6 224618. 7700.76  18
   3   6   6 216210. 4056.59  13
   3   6   6 200674. 7417.78   3
   3   6   6 208374. 4335.30  30
  -3  -6  -6 216406. 11619.0  24
  -3  -6  -6 215793. 5288.44  40
  -3  -6  -5 673.288 399.735  35
   3   6   5-54.3887 431.063  18
   3   6   5-148.220 284.530  13
  -3  -6  -5 659.556 346.967  40
  -3  -6  -5 645.912 1056.17  24
  -3  -6  -4 164245. 4384.61  35
   3   6   4 160374. 6334.42  18
   3   6   4 170485. 6107.70   4
  -3  -6  -4 155085. 5229.91  40
   3   6   4 172245. 3947.52  11
   3   6   3 18218.4 2049.37   4
  -3  -6  -3 13263.1 1653.39  40
  -3  -6  -3 12873.3 2610.00   1
  -3  -6  -3 9690.15 2913.88  24
   3   6   3 14645.4 1089.41  11
   3   6   2 130475. 3361.14  42
  -3  -6  -2 125101. 5483.00  40
   3   6   2 129714. 3466.04  11
   3   6   1 198694. 7881.91   4
   3   6   1 191096. 4099.22  42
  -3  -6  -1 168457. 10475.4  24
  -3  -6  -1 165577. 5850.57  40
   3   6   1 178303. 4203.08  11
   3   6   1 195085. 6960.29  22
   3   6   0 9817.47 1722.03   4
  -3  -6   0 8761.28 1377.92  31
   3   6   0 13328.8 866.375  42
  -3  -6   0 10837.0 1243.11  40
  -3  -6   0 9927.33 2445.21  24
   3   6   0 11317.3 865.207  11
   3   6   0 11058.1 1561.44  22
   3   6  -1 149849. 6909.49   4
   3   6  -1 171701. 3711.90  51
  -3  -6   1 155243. 8819.90  24
  -3  -6   1 140641. 4540.25  40
   3   6  -1 144979. 3448.97  11
   3   6  -1 175496. 6058.05  22
   3   6  -2 27419.5 2840.41   4
   3   6  -2 28309.5 1334.35  51
  -3  -6   2 25596.3 1654.52  40
   3   6  -2 26748.0 1248.44  11
   3   6  -2 28602.5 2289.13  22
   3   6  -3 80355.9 2377.78  36
   3   6  -3 78835.7 2345.96  51
   3   6  -4 88321.5 2536.43  36
  -3  -6   4 87163.6 4096.74  31
   3   6  -4 88074.0 2533.48  51
   3   6  -4 90039.2 2280.19  28
   3   6  -5 40945.9 2591.66  21
   3   6  -5 43086.1 1677.48  36
  -3  -6   5 41273.5 2577.76  31
   3   6  -5 42713.9 1467.98  28
   3   6  -6 131365. 3195.19  36
   3   6  -6 125208. 2700.40  34
  -3  -6   6 134541. 4500.17  31
   3   6  -6 127274. 2840.63  28
   3   6  -7 299.384 254.625  36
   3   6  -7 415.600 165.169  34
  -3  -6   7 419.688 451.999  31
   3   6  -7 464.668 210.560  28
  -3  -6   7 977.865 351.178  41
   3   6  -8 44468.9 1228.70  34
  -3  -6   8 48971.6 2067.26  31
   3   6  -8 47520.1 1641.22  47
  -3  -6   8 46813.7 1740.61  41
  -3  -6   9 32842.4 1383.27  31
   3   6  -9 31258.4 1134.57  47
   3   6  -9 32585.3 1092.01  27
  -3  -6   9 30031.8 1190.08  41
   3   6 -10 23452.5 783.280  27
  -3  -6  10 22132.2 781.487  41
   2   6  16 2235.89 305.147  39
  -2  -6 -15 59654.3 1664.35  35
   2   6  15 63009.3 1937.89  50
   2   6  15 62966.0 1910.25  30
  -2  -6 -15 65692.0 2281.92  45
   2   6  15 66638.9 2032.83  39
  -2  -6 -14 62623.6 2154.77  35
   2   6  14 61623.0 2105.62  50
   2   6  14 68972.0 2207.57  30
  -2  -6 -14 66543.0 2571.73  45
   2   6  14 68822.5 2252.92  39
  -2  -6 -13 24527.4 1501.19  35
   2   6  13 23726.2 1314.20  50
   2   6  13 26951.6 1403.94  30
  -2  -6 -13 25098.9 1669.51  45
   2   6  13 27437.4 1456.37  39
  -2  -6 -12 106287. 3610.38  35
   2   6  12 111665. 5813.56  18
   2   6  12 107364. 3074.22  50
  -2  -6 -12 106258. 3650.60  45
   2   6  12 113327. 3226.87  39
  -2  -6 -11-149.521 431.266  35
   2   6  11 517.283 584.566  18
   2   6  11 320.401 242.545  50
  -2  -6 -11 589.398 427.608  45
   2   6  11 250.265 291.858  39
   2   6  10 172610. 3961.29  50
  -2  -6 -10 174502. 4643.29  29
  -2  -6 -10 168721. 4787.88  45
   2   6  10 177811. 4211.12  39
  -2  -6  -9 41949.5 4191.17   1
   2   6   9 44612.7 3489.58  18
   2   6   9 40586.8 1582.10  50
  -2  -6  -9 44897.8 2128.03  29
  -2  -6  -9 39031.9 2044.10  45
   2   6   9 39699.0 2567.88   3
   2   6   9 42359.2 1754.65  39
   2   6   8 159668. 6519.55  18
  -2  -6  -8 164390. 4433.86  29
  -2  -6  -8 153258. 4210.40  45
   2   6   8 147309. 5310.75   3
   2   6   8 162274. 3081.40  13
  -2  -6  -8 145451. 7601.76  24
   2   6   8 151987. 3624.03  39
  -2  -6  -8 149878. 8380.41   1
   2   6   7 266033. 8373.39  18
  -2  -6  -7 269581. 5840.49  29
   2   6   7 246291. 7263.00   3
  -2  -6  -7 239535. 5489.31  45
   2   6   7 274074. 4407.09  13
  -2  -6  -7 210689. 10832.5  24
   2   6   7 250275. 4975.24  39
  -2  -6  -7 222077. 10817.8   1
   2   6   6 8486.36 1374.78  18
  -2  -6  -6 5373.09 1769.88   1
   2   6   6 7477.00 1162.10   3
   2   6   6 8505.90 540.495  13
   2   6   5 169369. 6361.84  18
   2   6   5 166964. 3063.65  13
  -2  -6  -5 108284. 9314.53   1
  -2  -6  -5 87297.9 9305.51  24
   2   6   4 21731.2 2193.44  18
   2   6   4 21275.8 864.240  13
  -2  -6  -4 18117.8 3988.15  24
   2   6   3 60072.9 3680.47  18
  -2  -6  -3 67553.0 6497.02  24
   2   6   2 253437. 7751.00  18
   2   6   2 288784. 8238.02   4
  -2  -6  -2 237730. 10326.6   1
  -2  -6  -2 268072. 12124.7  24
   2   6   2 287506. 5142.57  11
   2   6   1 162881. 6306.86   4
  -2  -6  -1 159286. 8692.43  24
   2   6   1 168870. 3619.95  11
   2   6   1 158058. 5387.70  22
  -2  -6   0 211826. 9636.83  24
   2   6   0 213812. 7719.49   4
   2   6   0 209730. 4205.15  11
   2   6   0 199042. 5973.36  22
   2   6  -1 29049.0 2740.73   4
  -2  -6   1 26652.6 3198.48  24
   2   6  -1 36240.3 1367.58  11
   2   6  -1 28167.9 2019.41  22
   2   6  -2 119169. 5729.79   4
   2   6  -2 123558. 2896.30  51
  -2  -6   2 120597. 4377.12  31
   2   6  -2 114590. 2828.13  42
   2   6  -2 113934. 4864.57   5
  -2  -6   2 120644. 6605.24  24
   2   6  -2 115401. 4188.67  22
   2   6  -3 102607. 2623.17  36
  -2  -6   3 107962. 4042.95  31
   2   6  -3 110632. 5456.90   4
   2   6  -3 99332.2 2655.48  51
   2   6  -3 104358. 2322.83  28
   2   6  -3 96786.9 2607.59  42
   2   6  -3 106922. 5019.05   5
  -2  -6   3 110210. 5840.95  24
   2   6  -4 70810.1 3264.39  21
   2   6  -4 72762.9 2147.22  36
  -2  -6   4 78693.8 3365.20  31
   2   6  -4 70589.7 3995.98   4
   2   6  -4 68294.4 1857.64  28
  -2  -6   4 79411.6 2785.90  43
   2   6  -4 62469.4 3990.66   5
   2   6  -4 76660.3 2285.46  51
   2   6  -5 141077. 4794.32  21
   2   6  -5 135651. 3257.12  36
  -2  -6   5 146468. 4667.16  31
   2   6  -5 134252. 2911.94  28
  -2  -6   5 141817. 4017.75  43
   2   6  -6 23148.8 1867.66  21
   2   6  -6 26378.3 1281.42  36
  -2  -6   6 25661.5 1794.14  31
   2   6  -6 23319.8 1046.02  28
   2   6  -7 206810. 6144.96  21
   2   6  -7 214540. 4125.58  28
  -2  -6   8 21649.8 1424.00  31
   2   6  -8 20393.4 1198.51  47
  -2  -6   9 83767.9 2569.86  31
   2   6  -9 84376.8 2404.50  47
   2   6  -9 78389.1 2052.91  27
  -2  -6  10 45815.8 1465.16  31
   2   6 -10 44487.4 1483.95  47
   2   6 -10 46176.7 1348.38  27
  -2  -6  10 46938.0 1582.91  41
  -2  -6  11 15262.5 681.907  41
   1   6  16 75615.2 2138.87  50
  -1  -6 -16 77050.0 2234.69  45
   1   6  16 77462.6 2069.47  39
   1   6  15 26059.7 1347.17  50
   1   6  15 23034.3 1108.37  30
  -1  -6 -15 24287.3 1383.03  45
   1   6  15 25567.5 1279.82  39
  -1  -6 -14 16636.9 1051.59  35
   1   6  14 17645.8 1198.76  50
   1   6  14 17205.0 1079.10  30
  -1  -6 -14 17144.7 1268.11  45
   1   6  14 18884.0 1190.96  39
  -1  -6 -13 124685. 3560.57  35
   1   6  13 127369. 6177.52  18
   1   6  13 131651. 3651.96  50
  -1  -6 -13 123874. 3848.10  45
   1   6  13 128980. 3477.68  30
   1   6  13 139577. 3670.07  39
   1   6  12 28601.9 2972.19  18
   1   6  12 28568.1 1573.06  50
   1   6  12 28365.1 1518.19  30
  -1  -6 -12 29879.4 1574.86  29
  -1  -6 -12 26795.5 1686.60  45
   1   6  12 29380.5 1581.17  39
   1   6  11 108105. 5803.76  18
   1   6  11 102646. 3091.54  50
   1   6  11 103451. 3054.08  30
  -1  -6 -11 102582. 3187.37  29
  -1  -6 -11 95402.9 3330.06  45
   1   6  11 102873. 3099.08  39
   1   6  10 39763.5 3433.30  18
   1   6  10 36144.1 1673.63  50
  -1  -6 -10 37919.3 1813.57  29
  -1  -6 -10 34444.9 1854.18  45
  -1  -6 -10 34777.1 3419.00   1
   1   6  10 39344.3 1753.24  39
   1   6   9 82596.3 4861.75  18
   1   6   9 76306.3 2388.18  50
  -1  -6  -9 76407.5 2608.96  29
  -1  -6  -9 75774.8 2695.93  45
  -1  -6  -9 67382.8 4065.10   6
  -1  -6  -9 71361.2 5019.50   1
   1   6   9 77614.6 2459.38  39
   1   6   8 142616. 6256.28  18
   1   6   8 128479. 3138.21  50
   1   6   8 142451. 3366.37  30
  -1  -6  -8 134044. 3537.87  29
  -1  -6  -8 124140. 3464.33  45
  -1  -6  -8 126008. 5450.98   6
  -1  -6  -8 121697. 6690.11   1
   1   6   8 137729. 3321.74  39
   1   6   7 60129.3 3876.72  18
  -1  -6  -7 53094.0 3350.77   6
  -1  -6  -7 49361.5 4059.03   1
   1   6   6 206462. 7362.31  18
   1   6   6 209336. 3408.72  13
   1   6   5 7696.01 1404.39  18
  -1  -6  -5 7324.00 1193.51   6
   1   6   5 10091.0 466.030  13
   1   6   4 69329.1 4000.60  18
  -1  -6  -4 62923.1 3600.91   6
   1   6   4 71780.4 1447.39  13
   1   6   3 19536.2 2083.68  18
  -1  -6  -3 19118.0 1924.26   6
   1   6   3 19221.9 1671.56   5
   1   6   2 88591.6 4339.27  18
  -1  -6  -2 86370.1 4150.18   6
   1   6   2 88885.5 3738.55   5
   1   6   1 188570. 6354.31  18
  -1  -6  -1 185176. 6289.14   6
  -1  -6  -1 207488. 7395.35  24
   1   6   1 192505. 5888.20   5
   1   6   0 1116.68 475.368  18
  -1  -6   0 1431.61 552.939   6
  -1  -6   0 1458.38 695.056  24
   1   6   0 1225.04 511.452   5
   1   6  -1 148216. 5402.69  18
   1   6  -1 159182. 5321.19   4
  -1  -6   1 135356. 5488.76   6
   1   6  -1 140242. 5380.34   5
  -1  -6   1 150711. 6365.71  24
   1   6  -2 76939.9 3582.96   4
   1   6  -2 66786.5 3816.30   5
  -1  -6   2 68536.3 4116.65  24
  -1  -6   2 61726.2 3792.19   6
   1   6  -3 154730. 3382.46  51
  -1  -6   3 162148. 4087.01  31
  -1  -6   3 142154. 6280.58   6
  -1  -6   3 164514. 4357.76  44
   1   6  -3 150299. 3543.83  42
   1   6  -3 145882. 6234.42   5
   1   6  -4 65811.3 1923.40  36
  -1  -6   4 72945.5 2679.96  31
   1   6  -4 64944.6 1643.70  28
  -1  -6   4 68159.9 2313.33  43
   1   6  -4 69055.4 2280.57  42
   1   6  -4 65524.6 4256.33   5
  -1  -6   4 61409.1 4200.99   6
   1   6  -5 18294.3 995.195  36
  -1  -6   5 18679.5 1354.45  31
   1   6  -5 16616.0 801.085  28
  -1  -6   5 18880.7 1231.25  43
   1   6  -5 18945.3 1185.69  42
   1   6  -5 15583.9 2119.10   5
   1   6  -6 234337. 4691.31  36
  -1  -6   6 247622. 5756.20  31
  -1  -6   6 242113. 5363.37  43
   1   6  -6 242367. 5196.01  42
   1   6  -7 157.033 278.396  47
  -1  -6   7 109.312 284.003  43
  -1  -6   7 430.643 329.682  31
  -1  -6   8 111624. 3342.80  31
   1   6  -8 116868. 3287.46  47
  -1  -6   8 114370. 3354.47  43
  -1  -6   8 110627. 3083.90  38
  -1  -6   9 10231.4 846.054  31
   1   6  -9 11210.6 913.831  47
   1   6  -9 10122.5 695.709  27
  -1  -6   9 10731.3 812.520  38
  -1  -6  10 65153.7 1838.07  31
   1   6 -10 62059.6 1706.03  27
  -1  -6  10 61064.3 1820.25  38
   1   6 -10 66560.3 2074.66  47
   1   6 -11 34348.1 1207.79  47
  -1  -6  11 30137.4 980.173  38
   0   6  16 1555.50 342.643  50
   0  -6 -16 1592.08 325.899  45
   0   6  16 1306.89 246.486  39
   0   6  15 55384.2 2088.51  50
   0  -6 -15 54043.1 2048.52  45
   0   6  15 53701.2 1885.51  39
   0   6  14 50200.2 2152.02  50
   0  -6 -14 45574.6 2033.51  45
   0   6  14 46338.1 1920.88  39
   0   6  13 40685.1 2003.17  50
   0   6  13 36871.8 1680.82  30
   0  -6 -13 42471.8 1883.21  29
   0  -6 -13 38350.3 1919.05  45
   0   6  13 40639.6 1866.07  39
   0   6  12 69253.6 4676.25  18
   0   6  12 76125.7 2797.57  50
   0   6  12 70172.9 2476.63  30
   0  -6 -12 73413.4 2638.80  29
   0  -6 -12 70867.6 2712.32  45
   0   6  12 73533.3 2609.80  39
   0  -6 -11 19645.1 1228.77  33
   0   6  11 15689.4 2282.81  18
   0  -6 -11 16509.2 1206.53  29
   0   6  11 17740.3 1278.01  50
   0   6  11 17596.0 1197.15  30
   0  -6 -11 17446.1 1256.70  45
   0   6  11 17570.9 1227.42  39
   0  -6 -10 236639. 5001.54  33
   0   6  10 233001. 8927.15  18
   0   6  10 222396. 4990.53  30
   0   6  10 235678. 5289.99  50
   0  -6 -10 209309. 5039.53  29
   0  -6 -10 226872. 5129.55  45
   0  -6 -10 208770. 8092.24   1
   0  -6 -10 209270. 7923.54   6
   0   6  10 233589. 5132.59  39
   0  -6  -9 114753. 3096.93  33
   0   6   9 121305. 6204.18  18
   0  -6  -9 109084. 5366.12   6
   0   6   9 118387. 3323.50  50
   0   6   9 117164. 3227.48  30
   0  -6  -9 107384. 3216.39  29
   0  -6  -9 114616. 3194.07  45
   0   6   9 116970. 3246.69  39
   0  -6  -8 121422. 3104.68  33
   0   6   8 128122. 6208.38  18
   0   6   8 123438. 3270.71  50
   0   6   8 123069. 3222.64  30
   0  -6  -8 120691. 3305.51  29
   0  -6  -8 111572. 5323.95   6
   0   6   8 123343. 3239.74  39
   0   6   7 164196. 6845.56  18
   0  -6  -7 145211. 5990.44   6
   0   6   6 7673.26 1409.68  18
   0  -6  -6 7567.05 556.410  15
   0  -6  -6 8094.85 1353.49   6
   0   6   5 489057. 12540.9  18
   0  -6  -5 495587. 7637.49  15
   0   6   4 35187.3 2876.79  18
   0  -6  -4 35710.5 2829.89   6
   0  -6  -4 37883.9 1214.39  15
   0   6   3 303626. 8916.10  18
   0  -6  -3 301656. 4951.06  15
   0  -6  -3 313998. 8961.20   6
   0   6   3 304508. 8033.64   5
   0   6   2 207239. 7018.45  18
   0  -6  -2 211267. 4706.09  16
   0  -6  -2 206605. 3701.43  15
   0  -6  -2 205255. 6969.42   6
   0   6   2 215159. 6485.80   5
   0   6   1 13009.8 1619.64  18
   0  -6  -1 13246.9 1662.58   6
   0  -6  -1 13596.6 1081.91  16
   0   6   1 13076.0 1497.80   5
   0   6   0 218936. 7155.86  18
   0  -6   0 213048. 7125.52   6
   0  -6   0 214934. 5319.61  16
   0   6   0 209839. 6576.39   5
   0  -6   0 205791. 4654.25   9
   0   6  -1 8432.51 1367.42  18
   0  -6   1 7465.58 943.177  16
   0  -6   1 7537.24 1311.72   6
   0   6  -1 8045.62 1262.86   5
   0  -6   2 319126. 9694.14   6
   0  -6   2 298316. 7561.61  16
   0   6  -2 321286. 9194.86   5
   0  -6   2 324451. 8054.52  24
   0  -6   3 93360.3 5225.18   6
   0  -6   3 104923. 3970.44  26
   0   6  -3 95028.3 4911.21   5
   0  -6   4 128624. 3237.40  31
   0  -6   4 133812. 3527.14  44
   0  -6   4 134816. 3052.51  14
   0   6  -4 132313. 3578.77  42
   0  -6   4 134948. 4849.52  26
   0   6  -4 125550. 6050.03   5
   0  -6   5 161931. 3907.69  31
   0  -6   5 161454. 4147.25  44
   0  -6   5 166980. 5724.09  26
   0   6  -5 161145. 4232.34  42
   0   6  -5 167685. 7251.46   5
   0   6  -6 9204.36 872.869  47
   0  -6   6 8479.70 796.635  43
   0   6  -6 8563.91 886.830  42
   0  -6   6 6398.94 1089.41  26
   0  -6   6 7193.00 741.544  31
   0  -6   7 190524. 4585.33  31
   0   6  -7 203284. 4834.23  47
   0  -6   7 199295. 4580.71  43
   0   6  -7 201584. 4907.52  42
   0  -6   8 16121.8 1104.30  31
   0   6  -8 15419.7 1187.77  47
   0   6  -8 14655.0 845.127  27
   0  -6   8 13946.0 1081.40  43
   0   6  -8 14969.9 1115.58  42
   0  -6   9 113265. 2940.04  31
   0   6  -9 116446. 3311.78  47
   0   6  -9 108516. 2573.04  27
   0  -6   9 114653. 3160.55  43
   0   6  -9 112182. 2992.44  42
   0  -6   9 113899. 3053.16  38
   0   6 -10 20037.2 1162.24  47
   0  -6  10 18509.9 1079.74  43
   0  -6  10 19372.0 1036.76  38
   0   6 -11 36328.5 1339.86  47
   0  -6  11 33959.9 1207.99  38
  -1   6  16 72256.4 2017.02  50
   1  -6 -16 66273.9 1822.24  45
   1  -6 -15 19499.2 1104.80  45
  -1   6  15 20345.4 1221.33  50
  -1   6  15 20605.7 953.067  38
   1  -6 -14 35612.0 1589.87  29
  -1   6  14 32870.1 1744.03  50
   1  -6 -14 30508.6 1547.98  45
  -1   6  14 32510.3 1484.54  39
  -1   6  14 34991.3 1474.06  38
   1  -6 -13 72729.7 2296.77  33
  -1   6  13 66833.9 2669.85  50
   1  -6 -13 67176.9 2451.23  29
   1  -6 -13 66952.3 2443.19  45
  -1   6  13 63711.9 2352.35  39
  -1   6  13 70233.7 2339.07  38
   1  -6 -12 1217.86 328.753  33
  -1   6  12 1505.79 490.950  50
   1  -6 -12 1107.59 353.879  29
   1  -6 -12 1099.64 344.897  45
  -1   6  12 686.729 311.143  39
  -1   6  12 1043.37 334.706  38
   1  -6 -11 169430. 4116.99  33
  -1   6  11 170947. 4650.75  50
   1  -6 -11 158251. 4217.39  29
   1  -6 -11 165127. 4068.85  45
  -1   6  11 166962. 4278.07  39
  -1   6  11 166803. 4050.31  38
   1  -6 -10 38474.4 1745.58  33
  -1   6  10 40423.9 3563.20  18
  -1   6  10 42179.8 2091.81  50
  -1   6  10 39673.5 1777.34  30
   1  -6 -10 39128.7 1843.29  29
   1  -6 -10 41630.6 1730.51  45
   1  -6 -10 40861.2 3373.94   6
  -1   6  10 39627.5 1879.46  39
  -1   6  10 40000.8 1719.16  38
   1  -6  -9 61130.9 2213.28  33
  -1   6   9 62967.8 4457.24  18
  -1   6   9 69089.7 2634.19  50
  -1   6   9 59232.1 2201.07  30
   1  -6  -9 66235.4 2379.77  29
   1  -6  -9 62455.6 4137.16   6
  -1   6   9 61666.1 2343.60  39
  -1   6   9 61894.0 2116.53  38
   1  -6  -8 76446.4 2466.56  33
  -1   6   8 80065.0 4897.34  18
  -1   6   8 85589.0 2853.03  50
  -1   6   8 74844.8 2461.83  30
   1  -6  -8 87033.1 2644.30  29
   1  -6  -8 82930.1 2381.76  15
   1  -6  -8 81553.4 4650.78   6
  -1   6   8 82641.1 2661.85  39
  -1   6   8 80619.1 2383.35  38
   1  -6  -7 5968.84 565.219  15
  -1   6   7 6357.63 1371.70  18
   1  -6  -7 6124.26 984.967  25
   1  -6  -7 6097.25 1242.20   6
  -1   6   6 180075. 7157.02  18
   1  -6  -6 176852. 3748.76  15
   1  -6  -6 184564. 7168.98   6
   1  -6  -6 184245. 5772.90  25
   1  -6  -5 9143.03 687.785  15
  -1   6   5 8787.90 1486.81  18
   1  -6  -5 10050.1 1596.76   6
   1  -6  -4 489723. 12655.3   6
  -1   6   4 507234. 12569.9  18
   1  -6  -4 504151. 8026.96  15
   1  -6  -4 491636. 10594.9  25
  -1   6   3 207112. 7321.61  18
   1  -6  -3 199771. 7322.15   6
   1  -6  -3 199732. 3968.60  15
   1  -6  -3 196176. 5817.78  25
  -1   6   3 195991. 6747.28   5
  -1   6   2 241113. 7965.29  18
   1  -6  -2 219159. 6084.45  25
   1  -6  -2 236339. 7908.44   6
  -1   6   2 227573. 7265.52   5
  -1   6   1 141339. 6062.17  18
   1  -6  -1 142731. 5956.56   6
  -1   6   1 140475. 5527.03   5
  -1   6   0 1234.00 579.930   5
   1  -6   0 2002.76 464.509   9
  -1   6   0 1240.21 688.572  18
   1  -6   0 1916.87 375.707  14
   1  -6   0 1906.36 754.020   6
   1  -6   1 255414. 6173.64   9
   1  -6   1 267269. 8708.48   6
   1  -6   1 275011. 6742.44  16
   1  -6   1 280383. 5096.44  14
  -1   6  -1 269067. 8125.59   5
   1  -6   2 1611.56 460.565   9
   1  -6   2 1938.24 390.758  14
   1  -6   2 1400.91 599.557   6
   1  -6   2 1615.87 506.376  16
  -1   6  -2 1863.39 700.369   5
  -1   6  -3 268227. 5523.26  30
   1  -6   3 259228. 7148.09  16
   1  -6   3 273812. 5339.33  14
   1  -6   3 261739. 4976.88  44
  -1   6  -3 283194. 5965.87  42
   1  -6   3 274036. 9566.13   6
  -1   6  -3 265281. 8519.24   5
  -1   6  -4 185460. 4480.59  30
  -1   6  -4 203168. 4646.03  47
   1  -6   4 181126. 6088.69  16
  -1   6  -4 189164. 3820.47  48
   1  -6   4 210106. 4465.51  14
   1  -6   4 188552. 4080.42  44
  -1   6  -4 200124. 4997.45  42
  -1   6  -4 192141. 7403.56   5
   1  -6   4 192455. 8273.02   6
   1  -6   5 20325.8 1096.10  31
  -1   6  -5 21841.5 1334.01  30
  -1   6  -5 22506.5 1072.63  48
  -1   6  -5 23633.8 1465.38  47
   1  -6   5 21369.7 1200.76  44
   1  -6   5 24085.5 1321.11  14
  -1   6  -5 21852.7 1527.51  42
   1  -6   5 23340.8 2092.69  26
  -1   6  -5 23612.6 2524.03   5
   1  -6   5 21767.4 2748.83   6
  -1   6  -6 106435. 2625.01  48
  -1   6  -6 109175. 3449.73  47
   1  -6   6 105979. 2996.14  44
   1  -6   6 97303.3 2753.68  31
   1  -6   6 106183. 2932.36  14
  -1   6  -6 111970. 3658.00  42
   1  -6   6 100162. 4611.12  26
   1  -6   7 1197.27 305.554  31
  -1   6  -7 1295.74 280.202  48
  -1   6  -7 1444.70 404.503  47
   1  -6   7 1595.81 325.217  14
   1  -6   7 1359.21 595.247  26
  -1   6  -7 1539.63 482.621  42
   1  -6   8 151950. 3544.82  31
  -1   6  -8 151015. 3153.26  48
  -1   6  -8 157523. 4187.37  47
   1  -6   8 146586. 3661.75  43
  -1   6  -8 155993. 4169.15  42
   1  -6   9 36383.2 1589.21  43
  -1   6  -9 35608.6 1667.13  42
   1  -6  10 36390.7 1451.78  43
  -1   6 -10 37115.0 1585.40  47
   1  -6  10 37368.6 1475.75  38
  -1   6 -11 71710.9 1960.69  47
   1  -6  11 72392.6 1874.32  38
  -2   6  15 70560.0 2096.27  50
   2  -6 -15 67974.9 1842.49  29
  -2   6  15 65526.3 1875.80  38
  -2   6  14 33481.7 1671.05  50
   2  -6 -14 34264.4 1268.24  33
   2  -6 -14 31950.8 1450.51  29
   2  -6 -14 29915.8 1331.30  45
  -2   6  14 32105.2 1456.31  38
   2  -6 -13 53627.2 1884.80  33
   2  -6 -13 47241.7 1961.53  29
   2  -6 -13 47628.9 1831.40  45
  -2   6  13 47822.1 2212.19  50
  -2   6  13 49919.4 2007.27  38
   2  -6 -12 141658. 3603.83  33
  -2   6  12 134969. 4122.98  50
   2  -6 -12 142740. 3814.78  29
   2  -6 -12 137564. 3464.99  45
  -2   6  12 146492. 3890.95  38
   2  -6 -11 15366.7 1111.61  33
   2  -6 -11 15683.8 1128.92  29
   2  -6 -11 16378.9 1021.95  45
  -2   6  11 14716.2 1300.02  50
  -2   6  11 16440.9 1220.51  38
   2  -6 -10 100273. 3116.81  33
  -2   6  10 103354. 3609.20  50
   2  -6 -10 114230. 3191.40  29
  -2   6  10 116152. 3426.23  38
   2  -6  -9 32907.8 1621.04  33
  -2   6   9 30474.1 1824.30  50
   2  -6  -9 31715.1 1523.95  29
   2  -6  -9 30736.3 2941.74   6
   2  -6  -9 31822.6 2438.91  25
  -2   6   9 33190.5 1662.38  39
  -2   6   9 32629.8 1692.14  38
  -2   6   8 92191.2 5461.41  18
   2  -6  -8 80475.5 2566.31  33
  -2   6   8 83537.7 2494.55  54
  -2   6   8 70365.4 2795.79  50
   2  -6  -8 80584.5 2451.68  29
   2  -6  -8 73262.3 2392.45  15
   2  -6  -8 76436.0 4646.84   6
   2  -6  -8 66022.0 3782.91  25
  -2   6   8 72642.9 2517.48  39
  -2   6   8 77899.7 2667.59  38
  -2   6   7 169441. 7424.71  18
   2  -6  -7 173002. 3798.23  33
  -2   6   7 166972. 3707.41  54
   2  -6  -7 148984. 3646.01  15
   2  -6  -7 161860. 3597.90  29
   2  -6  -7 146365. 6588.49   6
   2  -6  -7 119100. 5423.86  25
  -2   6   7 141831. 4079.02  50
  -2   6   7 143080. 3743.95  39
  -2   6   7 153800. 3930.76  38
   2  -6  -6 2247.42 363.793  33
  -2   6   6 2526.10 937.254  18
  -2   6   6 2050.47 424.140  50
   2  -6  -6 1622.83 373.220  15
   2  -6  -6 2015.04 326.624  29
   2  -6  -6 1530.56 550.973   6
  -2   6   6 2133.51 423.861  38
   2  -6  -5 212072. 4498.52  15
   2  -6  -5 200806. 7923.34   6
   2  -6  -5 201254. 7160.02  25
  -2   6   4 43702.1 3582.85  18
   2  -6  -4 40729.9 1669.43  15
   2  -6  -4 36297.8 2795.25  25
   2  -6  -4 41898.7 3435.98   6
   2  -6  -3 235213. 4835.66  15
   2  -6  -3 232930. 8525.03   6
   2  -6  -3 216636. 7384.49  25
   2  -6  -2 49472.6 3686.34   6
  -2   6   2 51154.5 3960.32  18
   2  -6  -2 39584.4 2782.39  25
  -2   6   2 46620.8 3421.82   5
  -2   6   1 137842. 6842.33  18
   2  -6  -1 139863. 6206.16   6
   2  -6  -1 121296. 4779.61  25
  -2   6   1 132654. 5883.95   5
   2  -6   0 134692. 6109.84   6
   2  -6   0 135244. 3203.99  14
   2  -6   0 127989. 4514.23  25
  -2   6   0 133776. 5875.02   5
  -2   6  -1 3265.97 897.264   5
   2  -6   1 2363.25 613.959   9
  -2   6  -1 3011.97 498.295  30
   2  -6   1 3243.79 493.091  14
   2  -6   1 2920.86 898.301   6
   2  -6   2 166100. 5290.31   9
  -2   6  -2 178553. 4504.63  30
   2  -6   2 171563. 7197.61   6
   2  -6   2 183774. 5865.75  16
  -2   6  -2 173819. 3829.62  48
   2  -6   2 183028. 4213.85  14
  -2   6  -2 178995. 4944.63  42
  -2   6  -2 166029. 6604.01   5
   2  -6   3 4194.22 816.188   9
  -2   6  -3 5332.39 701.924  30
   2  -6   3 5256.63 1010.17  16
  -2   6  -3 5375.66 573.679  48
   2  -6   3 5044.44 651.875  14
   2  -6   3 4210.02 1152.26   6
  -2   6  -3 5193.40 779.588  42
  -2   6  -3 3776.50 953.587   5
   2  -6   4 38956.5 3517.25   6
  -2   6  -4 41188.1 2025.07  30
   2  -6   4 38968.4 2697.02  16
  -2   6  -4 38632.7 1561.95  48
  -2   6  -4 44079.2 2152.56  47
   2  -6   4 38274.8 1813.26  14
   2  -6   4 38403.2 1481.75  44
  -2   6  -4 41096.7 2255.71  42
  -2   6  -4 38036.9 3064.94   5
   2  -6   5 134047. 5318.12  16
  -2   6  -5 147634. 3416.01  48
  -2   6  -5 156400. 4407.95  47
   2  -6   5 142459. 3798.12  14
  -2   6  -5 149807. 4619.08  42
  -2   6  -6 67869.0 2750.85  47
  -2   6  -6 64527.0 2032.95  48
   2  -6   6 61919.1 1942.73  31
   2  -6   6 62810.5 2262.31  14
  -2   6  -6 65224.1 2889.26  42
   2  -6   6 65974.0 3742.65  26
   2  -6   7 77541.0 2215.21  31
  -2   6  -7 87269.0 3027.31  47
  -2   6  -7 81927.4 2250.04  48
   2  -6   7 76077.8 2428.22  14
  -2   6  -7 90624.6 3259.13  42
   2  -6   7 75768.1 4038.90  26
  -2   6  -8 4896.67 492.377  48
  -2   6  -8 5336.10 711.060  47
   2  -6   8 4087.40 902.419  26
  -2   6  -8 5261.08 735.561  42
   2  -6   8 4229.83 812.760  23
  -2   6  -9 113870. 2461.89  48
  -2   6  -9 114408. 3136.44  47
   2  -6   9 114821. 2833.94  43
  -2   6 -10 73833.5 2134.90  47
   2  -6  10 77881.5 2026.56  43
  -2   6 -11 24109.8 893.340  47
   2  -6  11 23998.2 886.546  38
   3  -6 -14 70276.5 1722.90  33
   3  -6 -14 67051.5 1973.65  29
  -3   6  14 69083.2 2075.65  38
   3  -6 -13 75056.5 2160.08  33
   3  -6 -13 71288.0 2302.81  29
  -3   6  13 75867.7 2471.60  38
   3  -6 -12 5314.86 617.479  33
   3  -6 -12 5515.48 661.292  29
  -3   6  12 6174.59 804.137  50
  -3   6  12 5676.75 727.419  38
  -3   6  11 136264. 4120.41  50
   3  -6 -11 134992. 3504.63  29
  -3   6  11 134358. 3873.92  38
  -3   6  10 5443.83 826.442  50
   3  -6 -10 4611.31 642.104  33
   3  -6 -10 5091.61 636.833  29
   3  -6 -10 2797.59 734.467  25
  -3   6  10 4926.88 752.876  38
   3  -6  -9 152874. 3781.20  33
  -3   6   9 147122. 3635.61  54
  -3   6   9 136823. 4314.65  50
   3  -6  -9 148357. 3609.67  29
  -3   6   9 146864. 4236.71  38
  -3   6   8 86737.4 2586.72  54
  -3   6   8 86179.2 3206.34  50
   3  -6  -8 79567.6 2613.84  15
   3  -6  -8 83198.5 2467.16  29
  -3   6   8 86311.0 3099.19  38
  -3   6   7 56724.4 2018.32  54
   3  -6  -7 55541.2 2148.04  15
   3  -6  -7 56860.7 1927.17  29
   3  -6  -7 54096.6 3936.94   6
  -3   6   7 57810.7 2541.41  50
   3  -6  -7 57241.2 3660.12  25
  -3   6   7 57173.6 2486.05  38
  -3   6   6 305035. 5682.16  54
  -3   6   6 303015. 6700.79  50
   3  -6  -6 300639. 6076.51  15
   3  -6  -6 295425. 5425.90  29
   3  -6  -6 287979. 9911.25   6
  -3   6   6 303860. 6651.75  38
   3  -6  -5 2372.07 640.699  19
  -3   6   5 4673.71 518.019  54
  -3   6   5 4513.10 1541.41  18
  -3   6   5 5099.89 712.797  50
   3  -6  -5 3678.08 418.099  29
   3  -6  -5 3426.30 564.981  15
   3  -6  -5 2805.39 942.119   6
   3  -6  -5 4826.23 1070.84  25
  -3   6   5 3758.91 605.120  38
   3  -6  -4 115239. 4520.28  19
  -3   6   4 124681. 7849.09  18
  -3   6   4 114732. 3790.24  30
   3  -6  -4 116489. 3330.67  15
   3  -6  -4 102281. 5845.11   6
   3  -6  -4 132117. 5059.52  25
  -3   6   4 116698. 3565.97  50
  -3   6   4 108541. 3460.14  38
   3  -6  -3 59621.8 2293.94  15
  -3   6   3 55969.9 2528.36  30
  -3   6   3 59298.0 2334.55  48
   3  -6  -3 53036.7 4188.37   6
   3  -6  -3 64232.9 3399.47  25
  -3   6   3 61042.3 2372.23  39
   3  -6  -2 138242. 3730.92  15
  -3   6   2 131515. 4070.21  30
  -3   6   2 129977. 3611.42  48
   3  -6  -2 134195. 6759.19   6
   3  -6  -2 137394. 5221.16  25
  -3   6   1 208914. 5381.62  30
   3  -6  -1 220995. 8727.98   6
  -3   6   1 210912. 4769.90  48
  -3   6   0 91392.7 3338.51  30
   3  -6   0 97881.9 5535.29   6
  -3   6   0 88864.7 2779.44  48
   3  -6   0 93536.1 2626.25  14
   3  -6   1 287876. 7862.80   9
  -3   6  -1 272241. 6360.51  30
  -3   6  -1 262965. 5440.05  48
   3  -6   1 276035. 9524.08   6
   3  -6   1 286673. 5500.44  14
  -3   6  -1 278234. 9570.04   5
   3  -6   2 50601.9 2996.95   9
   3  -6   2 51577.6 3864.77   6
   3  -6   2 58170.5 3403.47  16
  -3   6  -2 52839.1 2009.81  48
   3  -6   2 53355.1 2137.27  14
  -3   6  -2 52482.6 2477.60  30
  -3   6  -2 56273.9 3952.98   5
   3  -6   3 51306.1 2969.11   9
   3  -6   3 54929.4 3271.81  16
  -3   6  -3 54219.0 2005.30  48
   3  -6   3 54516.7 2190.13  14
  -3   6  -3 45547.3 2627.93  42
  -3   6  -3 52110.7 2459.29  30
   3  -6   4 98074.5 4424.60  16
  -3   6  -4 97975.7 3894.62  42
  -3   6  -4 104154. 2883.25  48
   3  -6   5 29760.8 2360.11  16
  -3   6  -5 31053.3 1421.79  48
  -3   6  -5 29905.2 2007.05  42
   3  -6   6 122553. 2787.76  31
  -3   6  -6 130617. 3702.85  47
   3  -6   6 123580. 3363.65  14
  -3   6  -6 129256. 4200.22  42
   3  -6   6 135576. 5486.43  26
  -3   6  -6 127228. 3086.81  48
  -3   6  -7 3293.54 512.814  47
   3  -6   7 3364.30 836.400  26
  -3   6  -7 3563.20 459.198  48
  -3   6  -8 53344.0 1907.58  47
  -3   6  -8 56357.8 1638.19  48
  -3   6  -9 34983.2 1099.57  48
  -3   6  -9 32559.3 1248.68  47
   3  -6   9 33774.5 1214.32  43
   3  -6  10 39863.8 1102.71  43
   3  -6  10 41949.3 1200.39  38
   4  -6 -13 22402.7 886.043  33
   4  -6 -13 21260.2 968.341  29
  -4   6  13 21168.9 1043.36  38
   4  -6 -12 69678.5 2008.78  33
   4  -6 -12 69925.2 2087.90  29
  -4   6  12 69257.8 2282.51  38
   4  -6 -11 1663.61 364.813  33
   4  -6 -11 1731.73 366.970  29
  -4   6  11 1329.16 434.104  38
   4  -6 -10 65126.5 2259.35  33
   4  -6 -10 65231.8 2146.70  29
  -4   6  10 65304.1 2566.72  38
   4  -6  -9 8875.56 823.611  33
   4  -6  -9 8298.09 731.409  29
  -4   6   9 8034.14 930.438  38
  -4   6   8 64972.2 2211.34  54
   4  -6  -8 64870.1 2116.45  29
   4  -6  -8 61308.2 2191.41  15
  -4   6   8 61239.5 2614.05  38
  -4   6   7 164877. 3821.70  54
   4  -6  -7 153258. 3938.11  15
   4  -6  -7 159893. 3621.86  29
   4  -6  -7 159112. 6114.94  25
  -4   6   7 155229. 4465.25  38
   4  -6  -6 26490.5 2245.33  19
  -4   6   6 24497.2 1278.72  54
  -4   6   6 21320.7 1512.51  48
   4  -6  -6 26286.8 1484.16  15
   4  -6  -6 28776.8 1274.94  29
   4  -6  -6 31537.2 2543.10  25
  -4   6   6 23997.9 1617.56  38
   4  -6  -5 89282.8 4095.04  19
  -4   6   5 82575.0 3054.88  48
   4  -6  -5 85436.2 2882.59  15
  -4   6   5 83001.0 3069.90  38
   4  -6  -4 18282.4 1779.18  19
  -4   6   4 19711.4 1403.01  48
  -4   6   4 21843.9 1092.10  53
   4  -6  -4 21462.3 1395.57  15
   4  -6  -4 23161.2 2099.07  25
   4  -6  -3 84954.9 3786.77  19
  -4   6   3 84373.8 2968.79  48
  -4   6   3 83865.9 2356.06  53
   4  -6  -3 88277.4 2998.89  15
   4  -6  -3 92510.7 4213.78  25
   4  -6  -2 92164.7 3107.69  15
  -4   6   2 91106.6 3031.64  48
   4  -6  -2 86126.2 4086.21  25
   4  -6  -1 65532.2 2542.42  15
  -4   6   1 59555.9 2344.57  48
   4  -6  -1 56663.2 3355.13  25
  -4   6   0 118792. 4337.28  30
  -4   6   0 154403. 3913.98  48
  -4   6  -1-52.4482 283.282  30
  -4   6  -1 76.3237 263.608  48
   4  -6   1 722.165 257.513  14
  -4   6  -2 126857. 3419.50  48
   4  -6   2 126107. 3287.83  14
  -4   6  -3 29008.0 1450.67  48
   4  -6   3 29222.5 2318.16  16
   4  -6   3 27503.1 1427.99  14
  -4   6  -4 63845.2 2149.94  48
   4  -6   4 67044.0 3438.14  16
   4  -6   4 68626.0 2306.57  14
  -4   6  -5 55330.9 1888.20  48
  -4   6  -6 4327.12 489.285  48
  -4   6  -7 144883. 2940.73  48
  -4   6  -8 6864.11 451.173  48
   4  -6   8 6941.57 463.532  43
  -4   6  -9 42710.6 1010.88  48
   5  -6 -11 61807.5 1638.67  33
   5  -6 -11 60176.2 1581.46  29
   5  -6 -10 3413.16 425.108  33
  -5   6  10 4266.88 531.262  48
   5  -6 -10 3918.05 410.216  29
   5  -6  -9 60815.9 1949.78  33
  -5   6   9 60532.5 2206.53  48
   5  -6  -9 58791.7 1794.99  29
   5  -6  -8 35850.5 1479.64  33
  -5   6   8 34638.0 1705.24  48
   5  -6  -8 34982.3 1351.89  29
   5  -6  -7 24856.4 1234.16  33
  -5   6   7 21233.4 1362.31  48
   5  -6  -6 85425.6 2410.56  33
  -5   6   6 77866.6 2761.43  48
   5  -6  -6 76131.0 4056.14  25
   5  -6  -5 3521.32 471.467  33
  -5   6   5 1980.71 471.317  48
   5  -6  -5 3737.27 942.488  25
  -5   6   4 121362. 3569.34  48
   5  -6  -4 135545. 5348.05  25
  -5   6   3 22553.1 1404.92  48
   5  -6  -3 20801.7 2069.09  25
  -5   6   2 90637.7 2903.54  48
   5  -6  -2 85107.0 4206.17  25
  -5   6   1 110048. 3185.59  48
  -5   6   0 2317.07 438.667  48
  -5   6  -1 162511. 3842.28  48
  -5   6  -2 1066.50 336.981  48
  -5   6  -3 96541.3 2542.99  48
  -5   6  -4 40599.2 1430.78  48
  -5   6  -5 45659.0 1391.19  48
  -5   6  -6 91951.7 1946.12  48
  -5   6  -7 2512.33 223.821  48
  -6   6   7 61779.3 1739.58  48
  -6   6   6 881.306 245.151  48
  -6   6   5 93645.4 2435.07  48
  -6   6   4 4687.75 502.792  48
  -6   6   3 88225.9 2360.71  48
  -6   6   2 83362.1 2250.60  48
  -6   6   1 4396.73 460.029  48
  -6   6   0 61072.9 1755.44  48
  -6   6  -1 524.867 183.281  48
  -6   6  -2 65751.8 1603.09  48
  -6   6  -3 17944.9 665.593  48
   6   7   5 10064.4 583.938  51
  -6  -7  -5 9027.82 737.274  40
   6   7   4 61829.4 1596.09  51
  -6  -7  -4 65966.7 2306.76  40
   6   7   3 141.407 137.263  51
  -6  -7  -3-427.756 398.156  40
  -6  -7  -2 32803.3 1176.96  53
   6   7   2 31951.2 1031.48  51
   6   7   1 13794.2 649.248  36
  -6  -7  -1 12733.8 768.525  53
   6   7   1 11680.2 557.603  51
  -6  -7  -1 15090.4 912.077  40
   6   7   0 24622.0 839.349  36
  -6  -7   0 27676.6 1149.05  53
   6   7   0 26219.8 811.670  28
  -6  -7   1 36519.8 1273.32  53
   6   7  -1 38935.8 956.294  28
  -6  -7   2 4606.22 372.541  53
   6   7  -2 4065.39 254.916  28
  -5  -7 -11 19201.0 878.752  35
   5   7  11 16873.3 776.265  42
  -5  -7 -10 54519.3 1756.61  35
   5   7  10 46236.4 1552.33  42
  -5  -7  -9 726.846 258.849  35
   5   7   8 33575.4 1480.58  42
  -5  -7  -8 30868.4 1334.28  40
  -5  -7  -7 11305.8 853.685  35
   5   7   7 10070.8 841.566  42
  -5  -7  -6 27612.2 1249.51  35
   5   7   6 25322.3 1309.75  42
   5   7   5 57541.3 1975.36  42
  -5  -7  -5 32535.7 2393.84  40
   5   7   4 9387.98 731.480  42
  -5  -7  -4 2015.87 1058.62  40
  -5  -7  -3 80763.1 2847.42  53
  -5  -7  -3 56444.6 4596.00  40
   5   7   2 3526.48 507.873  51
  -5  -7  -2 2609.14 612.817  53
  -5  -7  -2 1818.29 1079.57  40
   5   7   1 64958.9 2022.76  51
  -5  -7  -1 65331.0 3229.03  40
   5   7   0 36456.7 1405.72  51
  -5  -7   0 39144.4 2140.29  40
   5   7  -1 27760.8 1193.62  36
   5   7  -1 25433.6 1099.97  51
  -5  -7   1 27984.5 1524.78  40
   5   7  -2 96815.1 2326.17  36
  -5  -7   2 103181. 3466.81  53
   5   7  -2 97682.9 2150.00  28
  -5  -7   2 99962.7 2550.28  40
   5   7  -3 2656.37 346.711  36
   5   7  -3 2348.86 289.816  28
   5   7  -4 59349.4 1528.00  36
  -5  -7   4 60705.1 1964.53  53
   5   7  -4 57356.5 1371.90  28
   5   7  -5 12452.1 475.882  34
  -5  -7   5 12913.2 677.389  53
   4   7  13 11904.4 652.941  30
  -4  -7 -13 13995.1 798.865  35
   4   7  13 12537.8 670.158  42
  -4  -7 -12 36144.2 1584.76  35
   4   7  12 30839.4 1256.00  30
  -4  -7 -11 73371.6 2638.02  35
   4   7  11 65903.3 2078.22  30
  -4  -7 -10 6477.12 918.593  35
   4   7  10 4512.31 566.233  30
  -4  -7  -9 115993. 3883.28  35
   4   7   9 109987. 3038.85  30
   4   7   8 8763.56 773.050  30
  -4  -7  -8 6534.08 767.188  40
   4   7   7 41349.0 1300.25  13
  -4  -7  -7 37909.6 2145.25  40
  -4  -7  -6 91194.2 3042.90  35
   4   7   6 82167.0 2031.65  13
   4   7   5 27849.8 1120.99  13
  -4  -7  -5 22636.7 2206.48  40
   4   7   4 195217. 3802.07  13
   4   7   4 205952. 4760.25  42
   4   7   3 31865.7 1582.59  42
   4   7   3 33773.8 2974.63  22
   4   7   2 78150.7 2443.60  42
   4   7   2 83555.5 2533.76  11
   4   7   2 76743.8 4330.69  22
   4   7   1 24852.5 1210.81  42
  -4  -7  -1 21622.0 2150.40  40
   4   7   1 26829.1 1337.49  11
   4   7   1 23805.6 2285.11  22
  -4  -7   0 65182.8 2800.77  31
   4   7   0 75554.0 2348.28  51
  -4  -7   0 70860.7 3389.63  40
   4   7   0 71079.9 2184.14  11
   4   7   0 67997.9 3699.54  22
  -4  -7   1 117978. 4205.53  31
   4   7  -1 123840. 3074.97  51
  -4  -7   1 122997. 4092.20  40
   4   7  -1 119363. 4745.59  22
   4   7  -2 5882.45 603.051  36
   4   7  -2 6427.37 640.934  51
  -4  -7   2 6666.00 974.618  31
  -4  -7   2 6756.57 791.851  40
   4   7  -3 105274. 2691.70  36
   4   7  -3 104628. 2420.53  28
   4   7  -3 104412. 2642.17  51
   4   7  -4 13000.5 819.917  36
  -4  -7   4 13982.1 1200.11  31
   4   7  -4 12979.9 708.972  28
   4   7  -5 32024.1 1235.77  36
   4   7  -5 30490.6 996.535  34
   4   7  -5 31308.2 1070.40  28
  -4  -7   6 20282.3 1143.79  31
   4   7  -6 19361.9 761.026  28
  -4  -7   7 35441.0 1272.88  31
   4   7  -7 28822.0 891.983  47
  -3  -7 -14 3632.01 451.540  35
   3   7  14 3888.21 357.488  42
   3   7  14 3500.87 423.461  30
   3   7  14 3248.36 388.989  39
  -3  -7 -13 37396.5 1698.21  35
   3   7  13 38451.9 1571.05  30
   3   7  13 36667.7 1492.10  39
  -3  -7 -12 44390.5 2129.75  35
   3   7  12 50040.1 1932.12  30
   3   7  12 45670.3 1818.02  39
  -3  -7 -11 9521.17 1069.68  35
   3   7  11 9243.35 1571.43  18
   3   7  11 9648.77 874.482  30
   3   7  11 9869.87 881.545  39
  -3  -7 -10 50297.7 2567.24  35
   3   7  10 51925.2 3987.54  18
   3   7  10 50626.0 2047.36  30
   3   7  10 51096.3 2086.92  39
  -3  -7  -9 13709.8 1372.24  35
   3   7   9 11917.7 1920.29  18
   3   7   9 13258.6 1019.20  30
   3   7   9 14017.6 1041.81  39
  -3  -7  -8 163372. 4932.41  35
   3   7   8 150016. 6879.98  18
   3   7   8 145708. 3767.65  30
   3   7   8 148893. 2918.20  13
  -3  -7  -8 127871. 8048.94  24
  -3  -7  -8 139699. 3965.58  40
   3   7   8 156968. 3887.85  39
  -3  -7  -7 63620.3 2867.80  35
   3   7   7 59477.8 4225.21  18
   3   7   7 53805.1 2078.25  30
   3   7   7 57748.0 1566.44  13
   3   7   6 42341.5 3538.61  18
   3   7   6 44714.2 1818.12  30
   3   7   6 44344.4 1351.81  13
  -3  -7  -6 39273.1 2473.40  40
  -3  -7  -5 61526.4 6557.78   1
  -3  -7  -5 75261.6 2592.44  35
   3   7   5 59779.7 4081.86  18
   3   7   5 63183.6 3697.72   3
   3   7   5 65637.3 1745.16  13
  -3  -7  -5 50961.1 7676.31  24
  -3  -7  -5 43123.8 2989.43  40
   3   7   4 10702.6 655.886  13
  -3  -7  -4 11817.8 2390.45   1
  -3  -7  -4 5146.27 1150.47  40
  -3  -7  -4 9091.71 3205.49  24
   3   7   3 99290.7 2988.47  42
   3   7   3 101359. 4942.89  22
   3   7   2 5819.78 1173.79   4
   3   7   2 4991.99 638.814  42
  -3  -7  -2 3421.11 931.009  40
  -3  -7  -2 7397.37 2400.99  24
   3   7   2 5873.02 1143.88  22
   3   7   1 354906. 10186.8   4
   3   7   1 314070. 6163.52  42
  -3  -7  -1 358548. 14812.1  24
  -3  -7  -1 314505. 8516.63  40
   3   7   1 359498. 6185.39  11
   3   7   1 313179. 8858.35  22
  -3  -7   0 52800.8 2813.25  31
   3   7   0 62074.5 2112.50  51
   3   7   0 57968.2 1989.23  42
  -3  -7   0 61752.1 5610.88  24
  -3  -7   0 61705.5 3026.22  40
   3   7   0 61563.8 3379.75  22
  -3  -7   1 70641.6 3489.82  31
   3   7  -1 68760.3 2206.42  51
   3   7  -1 67698.7 2092.80  42
  -3  -7   1 69727.7 5560.07  24
  -3  -7   1 70901.2 2972.29  40
   3   7  -1 65214.2 3344.26  22
   3   7  -2 145248. 3434.42  36
  -3  -7   2 153941. 5056.87  31
   3   7  -2 151845. 3520.65  51
  -3  -7   2 150795. 4193.08  40
   3   7  -3 1248.74 332.785  36
   3   7  -3 947.492 317.755  51
   3   7  -3 944.082 244.531  28
  -3  -7   3 250.933 436.589  31
   3   7  -4 127586. 4472.74  21
   3   7  -4 131789. 3144.95  36
   3   7  -4 133969. 2840.66  28
   3   7  -5 24185.2 1156.93  36
   3   7  -5 23014.7 886.986  34
  -3  -7   5 26782.5 1727.38  31
   3   7  -5 24107.3 1000.93  28
   3   7  -6 52458.4 1703.88  36
  -3  -7   6 55633.8 2324.00  31
  -3  -7   7 39241.4 1701.09  31
   3   7  -7 34373.6 1309.02  47
  -3  -7   8 4306.39 472.385  31
   3   7  -8 4001.92 391.211  47
   3   7  -8 3372.88 310.094  27
  -3  -7   9 63303.8 1478.86  31
  -2  -7 -15 1104.27 217.089  35
   2   7  15 738.221 206.601  50
   2   7  15 1227.45 263.570  30
   2   7  15 1121.73 261.984  39
  -2  -7 -14 83507.1 2501.39  35
   2   7  14 83643.9 2372.73  50
   2   7  14 82769.1 2435.01  30
  -2  -7 -14 85015.0 2626.26  45
   2   7  14 90513.3 2594.92  39
  -2  -7 -13 36360.3 1816.33  35
   2   7  13 35475.4 1599.98  50
   2   7  13 39157.9 1737.77  30
  -2  -7 -13 35400.8 1790.42  45
   2   7  13 37548.1 1743.97  39
  -2  -7 -12 69024.8 2767.31  35
   2   7  12 69014.2 4678.18  18
   2   7  12 70483.0 2369.07  50
   2   7  12 73469.3 2587.81  30
  -2  -7 -12 68897.3 2693.77  45
   2   7  12 74146.2 2581.05  39
  -2  -7 -11 78141.1 3068.06  35
   2   7  11 82046.3 5190.29  18
   2   7  11 75341.2 2476.33  50
   2   7  11 84809.5 2778.36  30
  -2  -7 -11 76726.9 2692.74  29
  -2  -7 -11 74065.6 2875.91  45
   2   7  11 77952.0 2695.00  39
   2   7  10 8854.97 1725.22  18
   2   7  10 10692.9 846.482  50
   2   7  10 10178.0 937.614  30
  -2  -7 -10 10064.2 940.359  29
  -2  -7 -10 9850.41 1023.95  45
   2   7  10 11291.5 971.230  39
   2   7   9 211967. 8416.77  18
   2   7   9 202378. 4649.71  30
  -2  -7  -9 194104. 4879.94  29
  -2  -7  -9 199946. 5083.66  45
   2   7   9 200075. 4671.26  39
   2   7   8 15685.8 2214.30  18
   2   7   8 13479.5 1007.25  30
  -2  -7  -8 10963.2 2293.78   1
  -2  -7  -8 13912.4 1125.26  29
  -2  -7  -8 14957.5 1175.72  45
  -2  -7  -8 12055.8 2322.60  24
   2   7   8 13281.0 1021.40  39
   2   7   7 151940. 6854.40  18
   2   7   7 137439. 3584.32  30
  -2  -7  -7 137481. 3852.99  29
  -2  -7  -7 143580. 3808.16  45
   2   7   7 149693. 2703.06  13
  -2  -7  -7 114856. 3819.69  40
  -2  -7  -7 129910. 8017.21  24
   2   7   7 140143. 3645.72  39
  -2  -7  -7 115114. 7515.40   1
   2   7   6 66065.6 4408.15  18
  -2  -7  -6 66259.7 2473.15  29
   2   7   6 69979.5 1575.78  13
  -2  -7  -6 69464.9 5882.26  24
  -2  -7  -6 58211.9 5202.70   1
   2   7   6 63111.4 2207.29  30
   2   7   6 64053.3 2249.44  39
   2   7   5 58940.7 4137.10  18
   2   7   5 58180.1 2098.49  30
  -2  -7  -5 64780.1 2416.22  29
   2   7   5 68876.5 1554.66  13
  -2  -7  -5 63139.9 5333.56   1
  -2  -7  -5 57451.5 2754.43  40
   2   7   5 64424.1 2198.74  39
   2   7   4 118177. 5779.05  18
   2   7   4 108961. 2963.59  30
   2   7   4 121666. 2286.49  13
   2   7   4 115261. 3207.13  42
  -2  -7  -4 127616. 7409.99   1
  -2  -7  -4 118596. 4181.84  40
  -2  -7  -3 2537.44 948.043   1
   2   7   3 1364.00 606.663  18
   2   7   3 689.754 266.106  42
  -2  -7  -3 784.341 424.281  40
  -2  -7  -3 2682.84 1303.50  24
   2   7   2 288726. 8514.80  18
   2   7   2 282150. 5650.62  42
  -2  -7  -2 320047. 12032.3  24
  -2  -7  -2 307736. 7097.01  40
   2   7   2 288326. 7570.58  22
  -2  -7  -1 67558.9 2646.82  31
   2   7   1 65550.1 2168.89  42
  -2  -7  -1 74675.9 5483.33  24
  -2  -7  -1 71341.9 2876.28  40
  -2  -7   0 110550. 3647.16  31
   2   7   0 107389. 2735.96  51
   2   7   0 114291. 5088.30   4
   2   7   0 103466. 2808.65  42
  -2  -7   0 112429. 6587.35  24
  -2  -7   0 114817. 3594.74  40
  -2  -7   1 109090. 3648.59  31
   2   7  -1 105877. 2729.70  51
   2   7  -1 101465. 2767.36  42
  -2  -7   1 111265. 6411.68  24
   2   7  -1 117069. 5095.69   4
  -2  -7   1 113659. 3463.71  40
   2   7  -2 8641.66 667.586  36
  -2  -7   2 9542.95 1050.65  31
   2   7  -2 8750.15 711.968  51
   2   7  -2 8182.30 1290.73   4
   2   7  -2 7256.35 503.788  28
   2   7  -2 7648.47 687.085  42
  -2  -7   2 8398.54 831.356  40
  -2  -7   2 6723.01 1507.62  24
   2   7  -3 102151. 2591.86  36
   2   7  -3 100137. 2712.19  51
   2   7  -3 100546. 2251.84  28
   2   7  -3 100560. 2757.13  42
   2   7  -4 15015.4 902.111  36
  -2  -7   4 17143.7 1388.85  31
   2   7  -4 14336.4 746.139  28
   2   7  -4 14765.0 968.059  42
   2   7  -5 197516. 4068.49  36
   2   7  -5 194461. 3695.35  28
   2   7  -6 121656. 2940.83  36
   2   7  -6 122474. 2657.20  28
  -2  -7   7 11149.2 980.058  31
   2   7  -7 11349.6 852.295  47
  -2  -7   8 71261.8 2220.17  31
   2   7  -8 69669.1 2066.19  47
   2   7  -8 65510.8 1698.23  27
  -2  -7   9 221.084 164.945  31
   2   7  -9-39.3919 161.579  47
   2   7  -9-57.9028 100.821  27
  -2  -7   9-0.38265 122.329  41
   1   7  16 5450.88 465.992  50
  -1  -7 -16 5159.87 432.850  45
   1   7  16 5619.81 464.865  39
  -1  -7 -15 56608.1 1710.33  35
   1   7  15 63447.4 2039.58  50
   1   7  15 60488.7 1770.70  30
  -1  -7 -15 60241.6 1977.43  45
   1   7  15 63621.5 2016.84  39
  -1  -7 -14 27778.4 1373.12  35
   1   7  14 28912.7 1478.75  50
   1   7  14 25535.5 1298.17  30
  -1  -7 -14 27026.0 1448.91  45
   1   7  14 29986.6 1514.07  39
  -1  -7 -13 151492. 3958.61  35
   1   7  13 153063. 3977.16  50
   1   7  13 140016. 3721.56  30
  -1  -7 -13 153891. 3665.61  29
  -1  -7 -13 137465. 3891.05  45
   1   7  13 160333. 4096.19  39
   1   7  12 60371.8 4516.67  18
   1   7  12 59766.3 2364.62  50
   1   7  12 60591.3 2351.25  30
  -1  -7 -12 59673.3 2247.06  29
  -1  -7 -12 57944.2 2422.20  45
   1   7  12 61677.9 2429.03  39
   1   7  11 13917.8 1102.06  50
   1   7  11 12053.1 2079.08  18
   1   7  11 13478.0 1105.95  30
  -1  -7 -11 11847.2 992.927  29
  -1  -7 -11 13398.6 1142.78  45
   1   7  11 14200.9 1149.94  39
   1   7  10 143335. 3847.86  50
   1   7  10 160755. 4128.26  30
  -1  -7 -10 147869. 3934.35  29
  -1  -7 -10 149924. 4140.75  45
   1   7  10 150122. 4027.26  39
  -1  -7  -9 1245.80 890.611   1
   1   7   9-78.3082 708.466  18
   1   7   9 58.9733 161.156  50
   1   7   9 197.165 246.946  30
  -1  -7  -9-109.801 217.609  29
  -1  -7  -9 495.773 286.686  45
  -1  -7  -9-49.5142 217.097   6
  -1  -7  -9 286.251 422.974  24
   1   7   9 143.209 238.124  39
   1   7   8 132893. 6659.22  18
   1   7   8 117043. 3168.84  50
   1   7   8 125293. 3471.05  30
  -1  -7  -8 120594. 3407.39  29
  -1  -7  -8 114102. 5601.96   6
  -1  -7  -8 118876. 6611.07   1
  -1  -7  -8 130905. 6393.62  24
   1   7   8 124437. 3452.85  39
   1   7   7 25616.9 2868.92  18
   1   7   7 27051.3 1446.78  30
  -1  -7  -7 26204.6 1408.90  29
  -1  -7  -7 24107.1 2428.16   6
  -1  -7  -7 25484.9 2867.69   1
   1   7   7 24727.8 1391.06  39
   1   7   6 133453. 6464.96  18
   1   7   6 123655. 3325.25  30
  -1  -7  -6 129338. 3353.86  29
  -1  -7  -6 125554. 5692.94   6
   1   7   6 126743. 3378.14  39
   1   7   5 89321.8 5180.16  18
  -1  -7  -5 88065.1 4644.16   6
   1   7   4 15030.8 2012.44  18
  -1  -7  -4 13055.6 1729.27   6
   1   7   3 126862. 5849.90  18
  -1  -7  -3 127940. 5500.39   6
   1   7   3 129321. 4827.18   5
   1   7   2 22286.1 2281.11  18
  -1  -7  -2 23110.0 2221.01   6
  -1  -7  -2 24334.4 2463.51  24
   1   7   2 23710.7 1974.70   5
   1   7   1 96679.9 4669.29  18
  -1  -7  -1 93898.8 4511.19   6
  -1  -7  -1 96734.1 4989.41  24
   1   7   1 92828.7 4117.74   5
   1   7   0 119848. 5114.97  18
  -1  -7   0 109236. 4962.39   6
  -1  -7   0 118910. 3190.64  44
  -1  -7   0 120651. 3228.02  52
   1   7   0 117398. 2927.98  42
  -1  -7   0 119222. 5629.08  24
   1   7   0 107011. 4646.01   5
   1   7  -1 17721.5 1908.10  18
  -1  -7   1 16993.1 1060.64  31
  -1  -7   1 20018.2 1232.32  52
   1   7  -1 18808.8 934.913  51
  -1  -7   1 14227.6 1778.57   6
  -1  -7   1 18590.1 1215.43  44
   1   7  -1 17609.4 1033.25  42
  -1  -7   1 15994.3 1995.35  24
   1   7  -1 15651.3 1773.41   5
   1   7  -2 157151. 3187.59  36
   1   7  -2 158094. 3467.97  51
  -1  -7   2 151330. 6275.43   6
  -1  -7   2 169246. 4034.93  31
  -1  -7   2 174053. 4370.84  44
  -1  -7   2 173883. 4212.98  52
   1   7  -2 159102. 3732.81  42
  -1  -7   2 171937. 6657.30  24
   1   7  -2 158868. 6256.79   5
   1   7  -3 3770.64 400.676  36
  -1  -7   3 3982.07 630.693  44
  -1  -7   3 3133.45 421.990  43
  -1  -7   3 3509.69 920.284   6
   1   7  -3 3588.51 493.995  42
  -1  -7   3 3793.71 571.381  31
   1   7  -3 3708.17 995.674   5
   1   7  -4 118375. 2762.91  36
  -1  -7   4 124772. 3558.60  31
  -1  -7   4 111726. 5572.86   6
  -1  -7   4 119233. 3089.86  43
   1   7  -4 120219. 3273.05  42
   1   7  -5 44519.2 1563.48  36
  -1  -7   5 48330.8 2125.25  31
  -1  -7   5 43677.8 1794.52  43
   1   7  -5 44453.5 1885.89  42
  -1  -7   6 54896.7 2265.68  31
  -1  -7   6 51692.6 1986.81  43
   1   7  -6 52890.7 2027.65  42
  -1  -7   7 78706.3 2610.23  31
   1   7  -7 78490.9 2489.69  47
  -1  -7   7 75954.0 2432.02  43
   1   7  -7 73202.8 1919.07  27
   1   7  -7 77080.4 2340.85  42
  -1  -7   7 74661.6 2176.18  38
  -1  -7   8 4745.44 586.023  31
   1   7  -8 5613.76 633.307  47
   1   7  -8 4202.77 389.593  27
  -1  -7   8 4891.74 473.829  38
  -1  -7   9 71505.8 1994.94  31
   1   7  -9 75843.3 2145.41  47
   1   7 -10 973.721 230.636  47
   0   7  16 43435.1 1477.08  50
   0  -7 -15 1854.82 287.734  35
   0   7  15 1761.26 391.477  50
   0  -7 -15 1655.57 332.817  45
   0   7  15 1447.64 306.406  39
   0   7  14 65844.4 2413.75  50
   0   7  14 62663.5 1960.37  30
   0  -7 -14 65402.8 2055.00  29
   0  -7 -14 59017.9 2141.90  45
   0   7  14 60105.9 2178.87  39
   0   7  13 16626.3 1265.18  50
   0   7  13 15267.5 1048.70  30
   0  -7 -13 16626.7 1099.92  29
   0  -7 -13 16497.1 1160.10  45
   0   7  13 16551.2 1184.01  39
   0   7  12 80049.1 5089.49  18
   0   7  12 96139.9 3242.46  50
   0   7  12 83357.2 2779.99  30
   0  -7 -12 91609.9 2913.04  29
   0  -7 -12 86780.0 2898.43  45
   0   7  12 91831.5 3089.70  39
   0   7  11 46408.3 4000.27  18
   0   7  11 48882.6 2127.87  30
   0   7  11 56003.6 2434.37  50
   0  -7 -11 53933.9 2212.02  29
   0  -7 -11 54191.3 2195.10  45
   0   7  11 55994.5 2356.71  39
   0  -7 -10 49071.2 1957.11  33
   0   7  10 39913.0 3735.99  18
   0   7  10 48500.5 2209.17  50
   0   7  10 42152.7 1985.46  30
   0  -7 -10 45164.8 2034.54  29
   0   7  10 49499.8 2205.35  39
   0  -7  -9 283664. 5654.27  33
   0   7   9 268979. 10168.2  18
   0   7   9 280321. 6057.74  50
   0   7   9 255274. 5788.62  30
   0  -7  -9 285666. 5984.39  29
   0  -7  -9 262231. 9349.12   6
   0   7   9 284398. 6097.14  39
   0  -7  -8 892.665 286.899  33
   0   7   8 1701.95 773.560  18
   0   7   8 907.378 303.190  50
   0  -7  -8 1253.09 276.154  49
   0  -7  -8 1051.37 355.361  29
   0   7   8 2044.33 428.810  30
   0  -7  -8 1393.82 672.483   6
   0   7   8 1284.40 377.481  39
   0  -7  -7 128500. 3213.20  33
   0   7   7 117998. 6344.37  18
   0  -7  -7 121113. 2850.03  49
   0   7   7 118061. 3325.51  50
   0   7   7 115504. 3316.89  30
   0  -7  -7 126599. 3428.43  29
   0  -7  -7 112577. 5745.19   6
   0   7   7 121624. 3450.28  39
   0  -7  -6 81153.7 2390.73  33
   0   7   6 81338.1 5073.57  18
   0   7   6 77085.1 2511.90  30
   0  -7  -6 82894.0 2566.38  29
   0  -7  -6 75859.7 4571.90   6
   0   7   6 72612.3 2534.76  39
   0   7   5 135922. 6428.17  18
   0  -7  -5 129097. 5991.52   6
   0   7   4 241121. 8545.50  18
   0  -7  -4 236889. 8241.73   6
   0   7   3 18541.6 2177.62  18
   0  -7  -3 17276.9 2028.81   6
   0   7   3 17481.6 1829.95   5
   0   7   2 236067. 7982.40  18
   0  -7  -2 221143. 7667.66   6
   0   7   2 226739. 7092.12   5
   0   7   1 64944.7 3951.76  18
   0  -7  -1 65307.2 3885.26   6
   0   7   1 59173.5 3421.16   5
   0   7   0 86270.7 4598.51  18
   0  -7   0 77952.8 3092.49  16
   0  -7   0 81405.3 4457.87   6
   0   7   0 84643.7 4203.56   5
   0   7  -1 349957. 10076.8  18
   0  -7   1 321928. 5717.65  52
   0  -7   1 332996. 9907.68   6
   0  -7   1 306788. 7473.18  16
   0  -7   1 308490. 5777.04  49
   0  -7   1 331713. 5940.78  44
   0   7  -1 335331. 6092.64  42
   0  -7   1 340876. 8671.01  24
   0   7  -1 337854. 9361.45   5
   0  -7   2 9376.10 713.576  52
   0  -7   2 8336.15 668.822  31
   0   7  -2 7982.49 681.792  30
   0  -7   2 11049.8 851.091  44
   0   7  -2 10091.1 839.790  42
   0  -7   2 7718.70 1456.47   6
   0   7  -2 7766.70 1363.79   5
   0  -7   3 241966. 4794.00  52
   0  -7   3 239531. 4856.80  31
   0   7  -3 234983. 4825.89  30
   0  -7   3 248576. 5190.30  44
   0   7  -3 247108. 5260.90  42
   0  -7   3 250307. 9003.49   6
   0   7  -3 245200. 8404.94   5
   0  -7   4 20317.4 2488.23   6
   0  -7   4 22085.4 1227.66  31
   0  -7   4 21001.6 1313.91  44
   0   7  -4 22122.5 1365.05  42
   0   7  -4 23130.4 2472.85   5
   0  -7   5 101159. 2948.01  31
   0   7  -5 104244. 2969.63  47
   0  -7   5 101136. 2779.10  43
   0   7  -5 108697. 3279.97  42
   0  -7   6 50009.6 1979.71  31
   0   7  -6 50615.0 2028.08  47
   0  -7   6 47908.1 1857.22  43
   0   7  -6 50788.7 2137.37  42
   0  -7   7 48498.9 1910.34  31
   0   7  -7 50578.1 2023.17  47
   0  -7   7 49546.6 1886.48  43
   0   7  -7 52128.8 2064.52  42
   0  -7   8 129167. 3148.49  31
   0   7  -8 130118. 3337.19  47
   0  -7   8 124592. 3152.59  43
   0   7  -8 129986. 3235.89  42
   0  -7   9 3044.28 364.686  31
   0   7  -9 3338.93 473.924  47
   0  -7   9 3287.22 437.141  43
   0  -7   9 3321.64 402.061  38
   0   7 -10 78641.4 1986.61  47
   0  -7  10 72829.5 1731.71  38
  -1   7  16 3614.18 376.064  50
  -1   7  15 66038.6 2128.51  50
   1  -7 -15 67239.6 1792.57  29
   1  -7 -15 62072.7 1770.52  45
  -1   7  14 7732.93 805.918  50
   1  -7 -14 7217.98 664.263  29
   1  -7 -14 7332.52 657.797  45
  -1   7  14 7344.94 653.449  39
   1  -7 -13 39875.1 1575.16  33
  -1   7  13 35322.3 1872.00  50
   1  -7 -13 36018.0 1672.62  29
   1  -7 -13 34204.3 1554.29  45
  -1   7  13 34278.9 1638.34  39
  -1   7  13 37416.2 1566.69  38
   1  -7 -12 72759.1 2354.44  33
  -1   7  12 68066.3 2772.42  50
   1  -7 -12 67468.1 2499.71  29
   1  -7 -12 67283.3 2307.38  45
  -1   7  12 72425.6 2367.66  38
  -1   7  11 37871.9 2072.23  50
   1  -7 -11 39919.8 1764.49  33
  -1   7  11 38709.7 3368.62  18
  -1   7  11 41608.3 1794.79  30
   1  -7 -11 40214.1 1939.43  29
  -1   7  11 34516.9 1825.29  39
  -1   7  11 39091.4 1728.99  38
   1  -7 -10 213860. 4759.57  33
  -1   7  10 214335. 8592.52  18
  -1   7  10 215682. 5431.45  50
  -1   7  10 212967. 4823.54  30
   1  -7 -10 207133. 5025.94  29
  -1   7  10 195571. 4968.25  39
  -1   7  10 209497. 4652.12  38
   1  -7  -9 14608.8 1040.04  33
  -1   7   9 15107.8 2247.47  18
  -1   7   9 15516.8 1271.50  50
  -1   7   9 14024.8 1057.79  30
   1  -7  -9 14115.4 1124.91  29
   1  -7  -9 15794.0 2232.51   6
  -1   7   9 14529.7 1167.85  39
  -1   7   9 13891.4 986.210  38
   1  -7  -8 78463.6 2576.42  33
  -1   7   8 81780.6 5150.40  18
  -1   7   8 77207.1 2906.85  50
  -1   7   8 78315.5 2608.26  30
   1  -7  -8 81504.2 2803.96  29
   1  -7  -8 83452.6 2364.00  15
   1  -7  -8 74778.5 4841.69   6
  -1   7   8 76760.1 2761.17  39
  -1   7   8 79140.2 2500.84  38
   1  -7  -7 13301.5 971.382  33
  -1   7   7 12850.8 1958.94  18
  -1   7   7 13368.8 1103.56  50
  -1   7   7 11843.1 927.133  30
   1  -7  -7 13267.2 1043.65  29
   1  -7  -7 13684.0 861.642  15
   1  -7  -7 12089.8 1913.64   6
  -1   7   7 12521.5 1023.32  39
  -1   7   7 12014.3 904.157  38
   1  -7  -6 111529. 2990.86  33
  -1   7   6 112486. 5809.71  18
  -1   7   6 103433. 3203.03  50
  -1   7   6 103320. 2949.91  30
   1  -7  -6 113110. 2755.26  15
   1  -7  -6 109465. 3108.24  29
   1  -7  -6 102461. 5613.12   6
  -1   7   6 106063. 3149.42  39
  -1   7   5 262678. 9096.26  18
   1  -7  -5 263273. 4891.96  15
   1  -7  -5 254051. 9095.48   6
  -1   7   4 18125.8 2216.70  18
   1  -7  -4 18396.7 974.257  15
   1  -7  -4 19127.7 2302.35   6
  -1   7   3 231526. 8304.21  18
   1  -7  -3 235322. 8415.73   6
   1  -7  -3 228645. 4402.89  15
  -1   7   3 230802. 7719.95   5
  -1   7   2 3757.83 911.517   5
  -1   7   2 3995.51 1097.79  18
   1  -7  -2 3968.56 449.080  15
   1  -7  -2 4108.73 1066.07   6
   1  -7  -1 91370.3 3179.35   9
  -1   7   1 95722.8 5174.97  18
   1  -7  -1 86614.5 4781.85   6
   1  -7  -1 94336.8 3584.21  16
  -1   7   1 87893.7 4444.36   5
   1  -7   0 91141.5 3200.66   9
  -1   7   0 87372.6 5060.79  18
   1  -7   0 92916.5 2252.10  52
  -1   7   0 87430.6 2618.22  30
   1  -7   0 89263.1 4901.03   6
   1  -7   0 90948.1 3584.10  16
  -1   7   0 93427.7 2698.18  42
  -1   7   0 93868.8 2745.28  39
  -1   7   0 90042.3 4530.41   5
   1  -7   1 87158.9 2184.38  52
   1  -7   1 87400.3 3640.62  16
   1  -7   1 86429.8 4949.84   6
  -1   7  -1 89396.3 2681.13  30
   1  -7   1 82420.5 2188.51  49
  -1   7  -1 94334.5 2822.77  42
  -1   7  -1 86936.6 4540.44   5
   1  -7   1 84343.2 3155.48   9
   1  -7   2 214850. 4100.42  52
   1  -7   2 224108. 8521.39   6
  -1   7  -2 218121. 4830.88  30
   1  -7   2 213068. 6245.26  16
   1  -7   2 219709. 4440.00  44
  -1   7  -2 236304. 5175.88  42
  -1   7  -2 220483. 7710.51   5
   1  -7   3 121.937 351.940  16
  -1   7  -3 337.874 212.746  30
  -1   7  -3 513.273 257.873  47
   1  -7   3 1573.78 333.938  44
   1  -7   3 651.129 497.826   6
  -1   7  -3 230.732 287.105  42
  -1   7  -3 262.913 417.626   5
   1  -7   4 258933. 4999.18  31
  -1   7  -4 263651. 5556.09  30
  -1   7  -4 271937. 5531.95  47
   1  -7   4 254576. 5230.45  44
  -1   7  -4 277970. 6062.44  42
   1  -7   4 266571. 7331.06  26
   1  -7   5 93065.9 2597.06  31
  -1   7  -5 95420.8 2884.07  30
  -1   7  -5 96250.1 2303.36  48
  -1   7  -5 92940.9 2930.50  47
   1  -7   5 93533.5 2770.21  44
  -1   7  -5 99988.9 3271.38  42
   1  -7   5 95664.5 4140.86  26
   1  -7   6 49842.4 1838.38  31
  -1   7  -6 55858.6 2177.18  47
  -1   7  -6 58628.0 2402.04  42
   1  -7   6 50789.8 2951.07  26
  -1   7  -6 55581.1 1604.74  48
   1  -7   7 56729.8 1932.85  31
  -1   7  -7 58746.7 1573.68  48
  -1   7  -7 59560.8 2195.40  47
   1  -7   7 57345.6 1976.11  43
  -1   7  -7 61452.9 2356.48  42
   1  -7   7 52228.7 2892.61  26
   1  -7   8 13765.8 833.217  31
  -1   7  -8 14361.3 996.995  47
   1  -7   8 13598.6 893.679  43
  -1   7  -8 13523.6 965.489  42
  -1   7  -9 89347.4 2417.71  47
   1  -7   9 92704.7 2343.49  43
  -1   7 -10 4464.02 414.531  47
   1  -7  10 4005.68 384.435  43
   1  -7  10 4759.11 397.799  38
  -2   7  15 6124.04 519.943  50
   2  -7 -15 6528.24 474.832  29
  -2   7  14 113547. 3048.63  50
   2  -7 -14 116708. 2847.79  29
  -2   7  14 113768. 2806.10  38
   2  -7 -13 25401.2 1207.07  33
  -2   7  13 24506.4 1452.20  50
   2  -7 -13 24195.4 1338.56  29
  -2   7  13 24804.1 1337.42  38
   2  -7 -12 11914.2 913.360  33
   2  -7 -12 12299.6 1022.94  29
  -2   7  12 13111.2 1146.41  50
  -2   7  12 13694.3 1061.93  38
   2  -7 -11 93952.7 2860.98  33
  -2   7  11 92798.2 3315.91  50
   2  -7 -11 92026.9 3038.34  29
  -2   7  11 97682.2 2917.70  39
  -2   7  11 97542.0 3103.08  38
   2  -7 -10 27956.9 1513.97  33
  -2   7  10 26060.9 1719.40  50
   2  -7 -10 28333.8 1602.86  29
  -2   7  10 29188.4 1551.83  39
  -2   7  10 28266.9 1611.07  38
   2  -7  -9 145469. 3857.50  33
  -2   7   9 146881. 4378.38  50
   2  -7  -9 155360. 4037.88  29
  -2   7   9 151608. 3964.61  39
  -2   7   9 156435. 4153.43  38
  -2   7   8 17576.3 2325.19  18
   2  -7  -8 16779.5 1160.98  33
  -2   7   8 15961.9 1284.04  50
  -2   7   8 16574.1 1114.69  30
   2  -7  -8 15136.9 1121.73  29
   2  -7  -8 17330.6 1078.08  15
   2  -7  -8 15904.0 1771.68  25
  -2   7   8 15642.1 1136.86  39
  -2   7   8 15633.0 1180.76  38
  -2   7   7 251161. 9174.91  18
   2  -7  -7 223568. 5023.83  33
  -2   7   7 225942. 5548.32  50
   2  -7  -7 243415. 4919.90  15
   2  -7  -7 230407. 5076.09  29
   2  -7  -7 233238. 9099.87   6
  -2   7   7 238247. 5080.47  30
   2  -7  -7 244469. 7571.69  25
  -2   7   7 229712. 5134.63  39
  -2   7   7 229455. 5293.82  38
  -2   7   6 108652. 5841.91  18
   2  -7  -6 101350. 2973.59  33
  -2   7   6 106921. 3379.16  50
  -2   7   6 104675. 3015.60  30
   2  -7  -6 112435. 2961.78  15
   2  -7  -6 100074. 2909.97  29
   2  -7  -6 104106. 5858.71   6
   2  -7  -6 107880. 4957.18  25
  -2   7   6 106536. 3109.22  39
  -2   7   6 102275. 3199.91  38
  -2   7   5 49379.1 1941.88  30
  -2   7   5 52507.7 4002.16  18
   2  -7  -5 46631.1 1811.53  33
  -2   7   5 48961.0 2129.72  50
   2  -7  -5 49907.2 1866.52  15
   2  -7  -5 48095.2 3912.01   6
   2  -7  -5 45877.5 1771.12  29
   2  -7  -5 47056.2 3238.53  25
  -2   7   5 49256.6 1972.44  39
  -2   7   5 48103.0 2068.73  38
  -2   7   4 272849. 9613.92  18
   2  -7  -4 249368. 4968.60  33
  -2   7   4 261372. 5622.15  50
  -2   7   4 252611. 5332.41  30
  -2   7   4 253321. 5414.79  48
   2  -7  -4 270925. 5247.92  15
   2  -7  -4 265732. 9646.93   6
   2  -7  -4 266717. 8084.88  25
  -2   7   4 254045. 5358.08  39
  -2   7   4 264890. 5624.14  38
  -2   7   3 7989.20 1622.50  18
  -2   7   3 7082.33 729.232  30
   2  -7  -3 7365.31 687.124  15
  -2   7   3 6276.80 667.206  48
   2  -7  -3 5903.94 1359.07   6
   2  -7  -3 7868.07 1278.07  25
  -2   7   3 6904.35 740.388  50
  -2   7   3 6100.29 658.241  39
  -2   7   2 152050. 7142.05  18
  -2   7   2 141707. 3705.41  30
  -2   7   2 138225. 3490.29  48
   2  -7  -2 149940. 3565.91  15
   2  -7  -2 151613. 6888.86   6
   2  -7  -2 149023. 5399.09  25
  -2   7   2 142408. 3692.77  39
   2  -7  -1 17408.9 1605.08   9
  -2   7   1 17409.8 1172.43  30
   2  -7  -1 19934.5 1023.64  49
   2  -7  -1 16581.1 2159.42   6
  -2   7   1 17173.7 1041.75  48
  -2   7   1 18528.4 1255.72  42
  -2   7   1 16667.1 1139.32  39
  -2   7   1 17792.1 2111.34   5
   2  -7   0 74668.3 3321.41   9
  -2   7   0 75159.9 2639.35  30
   2  -7   0 75099.6 4639.90   6
  -2   7   0 73314.0 2274.08  48
   2  -7   0 75323.2 2075.57  49
  -2   7   0 79739.2 2844.89  42
  -2   7   0 76485.7 4415.83   5
   2  -7   1 59476.8 2939.83   9
  -2   7  -1 64870.8 2456.89  30
   2  -7   1 62455.4 4267.85   6
   2  -7   1 62394.0 3285.35  16
  -2   7  -1 64818.8 2074.58  48
  -2   7  -1 70004.2 2742.48  42
  -2   7  -1 65373.0 4032.81   5
   2  -7   2 35196.1 1264.52  52
  -2   7  -2 37764.2 1866.31  30
   2  -7   2 35956.5 3237.91   6
   2  -7   2 34693.9 2423.36  16
  -2   7  -2 33881.8 1440.77  48
   2  -7   2 37918.3 1643.21  14
  -2   7  -2 37714.5 2012.16  42
  -2   7  -2 34593.5 2906.96   5
   2  -7   2 33227.5 2163.24   9
  -2   7  -3 132041. 3792.49  30
   2  -7   3 125243. 4929.86  16
  -2   7  -3 131493. 3150.75  48
   2  -7   3 130643. 3157.75  44
   2  -7   3 134329. 3415.52  14
  -2   7  -3 143601. 4223.77  42
   2  -7   4 35444.0 2534.25  16
  -2   7  -4 36689.7 1457.76  48
  -2   7  -4 37754.3 1869.20  30
  -2   7  -4 38454.3 1753.01  47
   2  -7   4 36284.5 1494.95  44
   2  -7   4 37041.5 1623.44  14
  -2   7  -4 39745.7 2117.31  42
   2  -7   5 101464. 2606.28  31
  -2   7  -5 106514. 3090.25  47
   2  -7   5 103911. 2724.41  44
   2  -7   5 97198.9 2747.91  14
  -2   7  -5 103047. 2569.18  48
  -2   7  -5 108522. 3575.03  42
   2  -7   5 100421. 4431.33  26
  -2   7  -6 9184.84 643.075  48
  -2   7  -6 9595.69 853.277  47
  -2   7  -6 10227.9 1012.67  42
   2  -7   6 8136.15 1186.71  26
   2  -7   6 8693.39 674.443  31
   2  -7   7 58006.3 1766.14  31
  -2   7  -7 59710.4 1643.76  48
  -2   7  -7 57880.8 2060.34  47
  -2   7  -7 61007.3 2340.88  42
   2  -7   7 57290.2 3041.80  26
  -2   7  -8 89505.0 1958.34  48
  -2   7  -8 84277.1 2374.57  47
   2  -7   8 89971.3 2316.36  43
  -2   7  -9 789.608 212.605  47
   2  -7   9 587.860 208.392  43
   2  -7  10 68898.6 1550.15  43
   2  -7  10 71079.3 1589.06  38
   3  -7 -14 3658.08 316.898  33
   3  -7 -14 3478.38 381.073  29
  -3   7  14 3245.01 381.239  38
   3  -7 -13 73522.9 2004.55  33
  -3   7  13 77094.0 2298.19  50
   3  -7 -13 74448.2 2211.36  29
  -3   7  13 74169.3 2270.28  38
   3  -7 -12 42724.8 1645.63  33
  -3   7  12 44634.5 1915.49  50
   3  -7 -12 43615.8 1790.52  29
  -3   7  12 43382.0 1869.74  38
  -3   7  11 29522.8 1656.58  50
   3  -7 -11 27052.3 1406.63  33
   3  -7 -11 27034.1 1461.23  29
  -3   7  11 30201.4 1669.64  38
   3  -7 -10 139084. 3701.26  33
  -3   7  10 144686. 4158.26  50
   3  -7 -10 147560. 3836.29  29
  -3   7  10 147689. 4156.90  38
   3  -7  -9 94.7056 315.201  33
  -3   7   9 417.187 340.736  50
   3  -7  -9-145.233 330.331  29
   3  -7  -9 197.138 375.718  25
  -3   7   9 353.200 322.323  38
   3  -7  -8 159891. 4071.68  33
  -3   7   8 161160. 4494.57  50
   3  -7  -8 158361. 3955.23  29
   3  -7  -8 167741. 3944.62  15
  -3   7   8 168788. 4600.08  38
  -3   7   7 84461.7 3058.19  50
   3  -7  -7 82629.2 2706.96  33
   3  -7  -7 87271.6 2688.26  15
   3  -7  -7 81157.5 2567.43  29
  -3   7   7 87910.4 3142.05  38
   3  -7  -6 190527. 4395.51  33
   3  -7  -6 205581. 4551.79  15
   3  -7  -6 190847. 4253.82  29
  -3   7   6 197057. 4969.41  50
  -3   7   6 201788. 5096.15  38
  -3   7   5 98768.4 6348.44  18
   3  -7  -5 79068.8 2493.32  33
  -3   7   5 90439.4 3082.62  50
  -3   7   5 102127. 3273.09  30
  -3   7   5 90063.2 3099.21  48
   3  -7  -5 91115.5 2817.89  15
   3  -7  -5 80845.2 5300.28   6
   3  -7  -5 68976.9 4323.08  25
  -3   7   5 94838.4 2936.98  39
  -3   7   5 89884.3 3146.34  38
   3  -7  -4 7263.69 638.599  33
  -3   7   4 8585.94 908.933  30
  -3   7   4 8163.16 843.373  48
   3  -7  -4 7845.44 774.905  15
   3  -7  -4 6738.90 1511.49   6
   3  -7  -4 4563.37 1046.42  25
  -3   7   4 7685.73 790.345  39
  -3   7   3 222404. 5374.64  30
  -3   7   3 212133. 4983.50  48
   3  -7  -3 220464. 4883.13  15
   3  -7  -3 218672. 8889.02   6
  -3   7   2 1678.11 437.898  30
  -3   7   2 2040.47 418.321  48
   3  -7  -2 2384.88 439.826  15
   3  -7  -2 944.206 582.587   6
   3  -7  -2 1777.24 683.465  25
  -3   7   1 322563. 6944.33  30
  -3   7   1 309525. 6248.67  48
   3  -7  -1 331349. 10799.8   6
   3  -7  -1 311545. 8282.59  25
   3  -7   0 194184. 6195.45   9
  -3   7   0 190857. 4981.36  30
  -3   7   0 180758. 4269.10  48
   3  -7   1 11014.7 1327.85   9
   3  -7   1 12270.4 1547.44  16
  -3   7  -1 11034.8 1078.10  30
  -3   7  -1 14155.6 1362.38  42
  -3   7  -1 10937.3 884.855  48
  -3   7  -2 73251.2 2868.85  30
   3  -7   2 73727.3 3741.53  16
  -3   7  -2 73310.2 2359.02  48
   3  -7   2 74142.9 2401.72  14
  -3   7  -2 80543.9 3282.86  42
   3  -7   3 451.375 478.907  16
  -3   7  -3 134.396 354.360  30
  -3   7  -3 820.505 286.789  48
   3  -7   3 305.603 257.670  14
  -3   7  -3 535.426 412.208  42
  -3   7  -4 118620. 2929.36  48
   3  -7   4 116309. 3086.42  14
  -3   7  -4 122396. 3894.83  42
   3  -7   5 35062.0 1311.85  31
  -3   7  -5 33829.5 1362.70  48
  -3   7  -5 37246.6 1949.90  42
   3  -7   5 34814.8 2540.24  26
  -3   7  -6 71345.3 1930.37  48
   3  -7   6 69685.8 1859.97  31
  -3   7  -6 76113.7 2655.86  42
  -3   7  -7 91003.4 2073.11  48
  -3   7  -8 1379.38 209.520  48
   3  -7   8 1279.38 244.010  43
   3  -7   9 73472.5 1581.34  43
   4  -7 -13 9586.52 494.278  33
  -4   7  13 9775.65 586.485  48
   4  -7 -13 9212.38 533.479  29
  -4   7  12 61705.7 1952.46  48
   4  -7 -12 66128.1 1868.22  29
  -4   7  12 64258.2 1993.06  38
   4  -7 -11 55981.4 1816.58  33
  -4   7  11 55581.0 2022.55  48
   4  -7 -11 55192.4 1847.62  29
  -4   7  11 58332.3 2086.26  38
   4  -7 -10 1437.28 344.357  33
  -4   7  10 890.566 345.497  48
   4  -7 -10 1251.88 300.149  29
  -4   7  10 1661.72 451.140  38
   4  -7  -9 76611.2 2467.18  33
  -4   7   9 79700.2 2784.89  48
   4  -7  -9 80118.8 2485.55  29
   4  -7  -9 79610.3 3691.55  25
  -4   7   9 82453.5 2886.63  38
  -4   7   8 10566.0 1007.92  48
   4  -7  -8 9805.58 856.526  33
   4  -7  -8 9455.69 785.795  29
  -4   7   8 9608.78 998.587  38
   4  -7  -7 101539. 2956.72  33
  -4   7   7 102059. 3330.01  48
   4  -7  -7 102075. 2809.37  29
   4  -7  -7 109688. 2972.95  15
  -4   7   7 105374. 3432.82  38
   4  -7  -6 52096.7 1976.48  33
  -4   7   6 57749.1 2396.23  48
   4  -7  -6 59119.4 2142.25  15
   4  -7  -5 38411.6 1591.22  33
  -4   7   5 38907.2 1934.29  48
  -4   7   4 82609.5 2845.96  48
   4  -7  -4 58782.9 3839.34  25
  -4   7   3 700.112 339.596  30
  -4   7   3 323.303 295.034  48
  -4   7   2 147692. 4628.04  30
  -4   7   2 138169. 3733.85  48
  -4   7   1 18199.2 1493.42  30
  -4   7   1 19053.0 1231.30  48
   4  -7  -1 15783.6 1585.45  25
  -4   7   0 62821.4 2751.39  30
  -4   7   0 55273.9 2119.34  48
  -4   7  -1 73773.4 2923.00  30
   4  -7   1 76169.1 3847.27  16
  -4   7  -1 72405.6 2371.90  48
   4  -7   2 7501.38 1122.65  16
  -4   7  -2 7171.03 696.937  48
  -4   7  -3 76991.7 2265.59  48
  -4   7  -4 1013.19 291.477  48
   4  -7   5 57780.7 1501.67  31
  -4   7  -5 58953.1 1689.84  48
  -4   7  -6 50594.3 1387.72  48
  -4   7  -7 23359.2 778.822  48
   4  -7   7 22661.5 819.009  43
   5  -7 -10 67841.6 1713.51  33
  -5   7  10 70338.0 1902.67  48
   5  -7  -9 400.864 189.651  33
  -5   7   9 310.333 214.035  48
   5  -7  -8 74016.7 2074.98  33
  -5   7   8 77263.8 2315.07  48
   5  -7  -7 18778.6 986.118  33
  -5   7   7 21995.4 1211.48  48
   5  -7  -6 37115.2 1388.83  33
  -5   7   6 37693.2 1648.78  48
  -5   7   5 96577.4 2814.69  48
  -5   7   4 8555.42 790.901  48
  -5   7   3 71365.7 2331.29  48
  -5   7   2 992.181 327.434  48
  -5   7   1 75638.7 2300.52  48
  -5   7   0 34510.7 1430.90  48
  -5   7  -1 54241.5 1763.06  48
  -5   7  -2 106903. 2513.49  48
  -5   7  -3 183.303 157.502  48
  -5   7  -4 73103.7 1707.19  48
  -5   7  -5 10593.5 488.952  48
  -6   7   6 43895.7 1211.95  48
   6  -7  -5 10898.9 492.808  49
  -6   7   5 11093.5 593.161  48
  -6   7   4 96726.8 2118.77  48
  -6   7   3 1096.69 210.163  48
  -6   7   2 85806.3 1929.36  48
  -6   7   1 56229.4 1421.44  48
  -6   7   0 13291.8 583.933  48
  -6   7  -1 25330.5 764.818  48
   6   8   4 33123.8 890.274  36
  -6  -8  -4 36453.8 1121.51  40
   6   8   3 21617.7 683.024  36
  -6  -8  -3 23197.4 877.396  40
   5   8  10 30709.7 1016.96  42
  -5  -8  -9 38423.9 1147.88  35
   5   8   9 41435.7 1330.49  42
  -5  -8  -8 3894.92 348.447  35
   5   8   8 3271.55 395.329  42
   5   8   7 55468.3 1733.44  42
  -5  -8  -7 49887.8 1843.40  40
   5   8   6 2344.46 367.076  42
  -5  -8  -6 2324.16 483.413  40
   5   8   5 57530.8 1751.97  42
  -5  -8  -5 55555.3 2391.14  40
   5   8   4 36993.1 1461.79  51
   5   8   4 31708.3 1186.08  42
  -5  -8  -4 34006.4 1937.31  40
  -5  -8  -3 22603.8 1165.19  53
   5   8   3 24713.5 1143.86  51
  -5  -8  -3 23887.4 1624.60  40
  -5  -8  -2 34626.5 1562.43  53
   5   8   2 39643.7 1414.00  51
  -5  -8  -2 39532.9 1935.28  40
   5   8   1 3034.16 391.955  36
  -5  -8  -1 3773.08 568.118  53
   5   8   1 3135.89 404.053  51
  -5  -8  -1 3540.94 562.422  40
   5   8   0 56447.4 1604.12  36
  -5  -8   0 55610.2 2062.50  53
   5   8   0 53846.9 1563.14  51
   5   8   0 56511.6 1437.75  28
  -5  -8   0 57038.3 1906.13  40
   5   8  -1 16665.9 776.285  36
  -5  -8   1 15293.6 1002.91  53
   5   8  -1 14750.5 721.615  51
   5   8  -1 17926.9 693.304  28
  -5  -8   1 15462.4 791.338  40
   5   8  -2 33844.2 1068.69  36
  -5  -8   2 35951.6 1376.98  53
   5   8  -2 33673.4 941.167  28
   5   8  -3 29650.0 910.589  36
  -5  -8   3 28951.6 1074.09  53
   5   8  -3 30614.5 807.674  28
  -4  -8 -12 1178.74 266.650  35
   4   8  12 1171.73 211.362  30
   4   8  12 969.999 220.223  42
  -4  -8 -11 49655.4 1708.71  35
   4   8  11 46185.3 1600.09  42
  -4  -8 -10 38094.9 1585.92  35
   4   8  10 33836.2 1372.25  30
   4   8  10 35591.5 1548.95  42
  -4  -8  -9 36017.7 1602.96  35
   4   8   9 34509.8 1420.82  30
   4   8   9 34303.1 1632.54  42
  -4  -8  -8 65552.8 2194.94  35
   4   8   8 60834.8 2271.40  42
  -4  -8  -7 1264.23 322.006  35
   4   8   7 880.227 350.106  42
  -4  -8  -7 848.282 401.718  40
   4   8   6 115741. 3264.19  42
   4   8   6 111684. 5090.97  22
   4   8   5 30321.4 1555.20  42
  -4  -8  -5 26895.1 2025.40  40
   4   8   5 26837.3 2413.14  22
   4   8   4 72064.2 2411.20  42
  -4  -8  -4 67906.3 3422.61  40
   4   8   3 124893. 3249.67  42
   4   8   3 119822. 4945.45  22
   4   8   2 2133.31 473.922  51
   4   8   2 1868.70 367.285  42
  -4  -8  -2 2966.40 806.618  40
   4   8   1 109164. 2842.22  51
   4   8   1 97744.9 2538.60  42
  -4  -8  -1 113444. 3774.93  40
   4   8   1 94845.9 3954.67  22
   4   8   0 10467.8 795.538  51
  -4  -8   0 10771.6 1024.78  40
   4   8  -1 57250.1 1830.58  36
  -4  -8   1 56466.8 2124.34  31
   4   8  -1 56260.0 1573.74  28
  -4  -8   1 60414.3 2230.15  40
   4   8  -1 58347.4 1859.97  51
   4   8  -2 48704.6 1593.68  36
  -4  -8   2 47117.1 1911.72  31
   4   8  -2 47085.2 1592.60  51
   4   8  -2 49466.1 1384.41  28
  -4  -8   2 48594.6 1693.96  40
   4   8  -3 9611.70 644.322  36
  -4  -8   3 9377.01 782.494  31
   4   8  -3 8543.56 515.559  28
   4   8  -4 73559.3 1811.03  36
  -4  -8   4 70532.9 2099.87  31
   4   8  -4 70016.5 1576.90  28
  -4  -8   5 3209.74 387.151  31
   4   8  -5 3202.61 269.107  28
  -4  -8   6 51893.0 1372.66  31
  -3  -8 -14 42924.4 1310.97  35
   3   8  14 38414.0 1236.11  30
  -3  -8 -13 341.100 244.822  35
   3   8  13 102.333 194.931  30
   3   8  13 106.711 152.719  42
   3   8  13 73.5948 141.360  39
   3   8  12 40073.8 1644.89  30
   3   8  12 42953.0 1590.61  42
   3   8  12 41033.1 1599.33  39
  -3  -8 -11 11328.8 991.879  35
   3   8  11 9452.99 826.082  30
   3   8  11 9383.44 809.895  39
  -3  -8 -10 44652.3 2017.65  35
   3   8  10 38869.9 1764.00  30
   3   8  10 39844.1 1752.34  39
   3   8   9 55772.3 4118.12  18
   3   8   9 57705.5 2212.38  30
   3   8   9 60600.4 2232.68  39
  -3  -8  -8 2159.88 486.828  35
   3   8   8 1168.60 702.917  18
   3   8   8 2287.57 435.778  30
  -3  -8  -8 1175.76 348.189  40
  -3  -8  -8 283.954 804.558  24
   3   8   7 49011.1 3856.72  18
   3   8   7 49333.3 2009.03  30
   3   8   7 52024.6 1333.34  13
  -3  -8  -7 50879.5 5084.02  24
  -3  -8  -7 43691.3 2320.47  40
  -3  -8  -6 892.468 271.069  35
   3   8   6 84.8143 366.896  18
   3   8   6 928.911 275.105  30
   3   8   6 749.547 316.550  42
  -3  -8  -6 380.172 398.789  40
  -3  -8  -6-23.0743 637.581  24
   3   8   5 119293. 3417.07  42
  -3  -8  -5 119171. 4334.77  40
   3   8   4 39532.3 1812.77  42
  -3  -8  -4 46909.9 5069.55  24
  -3  -8  -4 41949.6 2559.19  40
   3   8   3 13022.0 1009.94  42
  -3  -8  -3 13217.2 1394.36  40
  -3  -8  -3 15627.8 2880.00  24
   3   8   2 178261. 4038.44  51
   3   8   2 168764. 4057.62  42
  -3  -8  -2 183274. 9478.50  24
  -3  -8  -2 183895. 5325.15  40
   3   8   1 36244.3 1571.73  51
   3   8   1 34954.4 1556.39  42
  -3  -8  -1 36545.9 3995.65  24
  -3  -8  -1 39249.9 2164.02  40
  -3  -8   0 137814. 3923.70  31
   3   8   0 137856. 3326.11  51
   3   8   0 132845. 3287.06  42
  -3  -8   0 136006. 7421.11  24
  -3  -8   0 143802. 4173.29  40
   3   8  -1 28418.7 1288.97  36
  -3  -8   1 29043.8 1694.93  31
   3   8  -1 27773.8 1331.96  51
   3   8  -1 30715.5 1101.90  28
   3   8  -1 26497.1 1249.96  42
  -3  -8   1 30511.6 1661.75  40
   3   8  -2 59136.1 1870.30  36
  -3  -8   2 59691.9 2437.51  31
   3   8  -2 60311.0 1984.08  51
   3   8  -2 59619.5 1595.86  28
  -3  -8   2 60485.3 2157.77  40
   3   8  -3 53942.2 1733.45  36
  -3  -8   3 54343.6 2257.39  31
   3   8  -3 55007.7 1496.55  28
   3   8  -4 21330.6 1010.83  36
  -3  -8   4 22847.1 1372.74  31
   3   8  -4 19858.9 822.462  28
   3   8  -5 93369.1 2236.03  36
  -3  -8   5 94284.9 2757.00  31
   3   8  -5 90783.6 1966.09  28
  -3  -8   6 1549.34 348.072  31
   3   8  -6 1282.11 283.439  47
  -3  -8   7 65100.5 1736.17  31
   3   8  -7 59614.0 1552.35  47
  -2  -8 -15 30354.3 1003.28  35
   2   8  15 30133.1 1021.98  30
   2   8  15 28106.6 1060.70  39
  -2  -8 -14 7340.55 626.657  35
   2   8  14 5534.11 470.061  50
   2   8  14 6760.28 604.302  30
   2   8  14 6226.86 597.104  39
   2   8  13 126310. 3043.10  50
   2   8  13 133656. 3391.50  30
   2   8  13 135294. 3425.84  39
  -2  -8 -12 2276.74 544.992  35
   2   8  12 966.968 377.404  30
  -2  -8 -12 1256.40 401.076  45
   2   8  12 1413.59 373.779  42
   2   8  12 1342.64 373.472  39
  -2  -8 -11 55346.2 2297.39  35
   2   8  11 45883.7 3843.97  18
   2   8  11 47344.0 2054.40  30
  -2  -8 -11 47904.4 2100.35  45
   2   8  11 48688.6 2082.00  39
   2   8  10 41499.3 3766.51  18
   2   8  10 41887.8 1961.50  30
  -2  -8 -10 43600.0 1946.43  29
  -2  -8 -10 47684.4 2116.10  45
   2   8  10 42571.0 1965.77  39
   2   8   9 34437.1 3393.73  18
   2   8   9 33327.0 1711.64  30
  -2  -8  -9 35387.0 1773.31  29
  -2  -8  -9 35894.7 3605.68  24
   2   8   9 36014.1 1789.15  39
   2   8   8 174546. 7790.17  18
   2   8   8 173596. 4368.79  30
  -2  -8  -8 195497. 4643.01  29
  -2  -8  -8 198310. 9041.27  24
  -2  -8  -8 185829. 4689.24  40
   2   8   8 173376. 4436.82  39
   2   8   7 534.466 536.442  18
   2   8   7 1071.66 343.275  30
  -2  -8  -7 1236.69 366.099  29
   2   8   7 1319.53 438.740  42
  -2  -8  -7 888.396 384.028  40
  -2  -8  -7 671.745 726.762  24
   2   8   7 866.351 304.560  39
   2   8   6 118880. 6188.23  18
   2   8   6 113990. 3303.92  30
   2   8   6 121243. 3388.43  42
  -2  -8  -6 139572. 7629.36  24
  -2  -8  -6 127273. 3918.23  40
   2   8   6 125558. 3442.71  39
  -2  -8  -6 130158. 6825.51   1
   2   8   5 42445.6 3567.39  18
   2   8   5 42407.6 1811.87  30
   2   8   5 42631.7 1864.85  42
  -2  -8  -5 46262.3 4356.40  24
  -2  -8  -5 45791.0 2234.16  40
  -2  -8  -5 40084.1 3597.71   1
   2   8   5 43161.3 1804.41  39
   2   8   4 78135.5 4690.12  18
   2   8   4 72749.4 2361.71  30
   2   8   4 77799.2 2575.33  42
  -2  -8  -4 86109.1 5824.27  24
  -2  -8  -4 81029.0 3025.96  40
  -2  -8  -4 72601.1 4514.34   1
   2   8   3 169879. 6727.40  18
   2   8   3 168353. 4093.40  42
  -2  -8  -3 180660. 8464.79  24
  -2  -8  -3 178980. 4746.98  40
   2   8   2 22344.2 1148.96  51
   2   8   2 23550.3 1311.78  42
  -2  -8  -2 21133.9 2812.46  24
  -2  -8  -2 23255.0 1499.11  40
  -2  -8  -1 214700. 4873.05  31
   2   8   1 209227. 4335.15  51
   2   8   1 209913. 4607.32  42
  -2  -8  -1 232126. 9384.38  24
  -2  -8  -1 227216. 5208.13  40
  -2  -8   0 9090.75 891.662  31
   2   8   0 8361.51 695.458  51
   2   8   0 8325.83 746.540  42
  -2  -8   0 8927.49 874.525  40
  -2  -8   0 9509.54 1868.57  24
   2   8  -1 73531.6 2085.41  36
  -2  -8   1 74928.5 2677.40  31
   2   8  -1 74474.1 2233.93  51
   2   8  -1 74211.0 2338.98  42
  -2  -8   1 76679.6 4904.44  24
  -2  -8   1 78464.8 2624.93  40
   2   8  -2 33446.2 1309.41  36
  -2  -8   2 34713.6 1786.72  31
   2   8  -2 32015.3 1414.33  51
   2   8  -2 30266.3 1433.00  42
  -2  -8   2 32751.2 1528.97  40
   2   8  -3 82619.1 2216.18  36
  -2  -8   3 85603.1 2909.95  31
   2   8  -3 84361.6 2495.11  42
   2   8  -4 82759.2 2183.59  36
  -2  -8   4 84185.7 2846.42  31
   2   8  -4 78813.9 2342.86  42
   2   8  -5 1975.89 319.897  36
  -2  -8   5 2205.16 493.817  31
  -2  -8   6 56689.9 2055.70  31
   2   8  -6 56822.6 1858.91  47
  -2  -8   7 7746.08 661.556  31
   2   8  -7 7106.16 591.115  47
  -2  -8   8 40341.4 1278.22  31
   2   8  -8 42035.7 1295.09  47
  -1  -8 -15 12209.9 685.236  35
   1   8  15 11795.0 736.822  50
   1   8  15 11901.2 640.124  30
   1   8  15 13037.3 789.352  39
   1   8  14 117295. 3070.52  50
   1   8  14 127802. 3011.55  30
  -1  -8 -14 118410. 2919.64  45
   1   8  14 122220. 3191.55  39
  -1  -8 -13 1712.49 477.894  35
   1   8  13 1022.54 329.729  50
   1   8  13 821.547 311.764  30
  -1  -8 -13 880.877 263.870  29
  -1  -8 -13 876.870 306.203  45
   1   8  13 962.261 358.722  39
   1   8  12 84274.5 5219.11  18
   1   8  12 84722.2 2789.20  50
   1   8  12 85844.4 2842.82  30
  -1  -8 -12 86688.2 2649.42  29
  -1  -8 -12 85552.5 2742.50  45
   1   8  12 90780.9 3003.99  39
   1   8  11 28769.2 3231.07  18
   1   8  11 30347.0 1610.78  50
   1   8  11 31488.1 1707.35  30
  -1  -8 -11 30901.0 1578.57  29
  -1  -8 -11 33017.0 1645.10  45
   1   8  11 31916.2 1735.04  39
   1   8  10 59334.8 4655.94  18
   1   8  10 60224.4 2302.39  50
   1   8  10 60595.0 2455.05  30
  -1  -8 -10 63392.0 2358.71  29
   1   8  10 64273.8 2150.31  42
   1   8  10 60914.3 2460.71  39
   1   8   9 78476.4 5403.09  18
   1   8   9 79403.5 2629.77  50
   1   8   9 80134.9 2843.66  30
  -1  -8  -9 88341.7 2871.22  29
   1   8   9 86433.8 2633.21  42
  -1  -8  -9 90025.2 5199.45  24
   1   8   9 79148.0 2826.63  39
   1   8   8 17332.8 2508.71  18
   1   8   8 19013.4 1301.69  30
  -1  -8  -8 19932.4 1286.39  29
   1   8   8 20308.3 1220.16  42
  -1  -8  -8 19243.1 2356.36  24
   1   8   8 18309.7 1286.66  39
   1   8   7 133224. 6890.56  18
  -1  -8  -7 128163. 3282.51  49
   1   8   7 130385. 3645.15  30
  -1  -8  -7 131395. 3593.16  29
  -1  -8  -7 139941. 6560.31   1
   1   8   7 133108. 3466.78  42
  -1  -8  -7 137707. 6415.84  24
   1   8   7 121252. 3588.82  39
   1   8   6 35289.5 3403.76  18
  -1  -8  -6 31001.6 1441.89  52
  -1  -8  -6 27586.5 1395.14  49
   1   8   6 31176.2 1605.26  30
  -1  -8  -6 30206.2 1562.86  29
   1   8   6 31109.3 1512.84  42
   1   8   6 28978.1 1583.27  39
  -1  -8  -5 147395. 3541.26  52
   1   8   5 150502. 7027.87  18
  -1  -8  -5 139101. 3498.71  49
   1   8   5 141406. 3708.60  30
  -1  -8  -5 134643. 3586.68  29
  -1  -8  -5 141615. 6111.97   6
   1   8   5 144543. 3614.20  42
   1   8   5 142369. 3761.67  39
   1   8   4 107159. 5707.74  18
  -1  -8  -4 100555. 2848.53  52
  -1  -8  -4 97189.6 2827.17  49
   1   8   4 100119. 2896.64  30
  -1  -8  -4 92824.6 2824.90  29
  -1  -8  -4 99199.0 4973.66   6
   1   8   4 104281. 2915.44  42
  -1  -8  -4 100437. 5318.71  24
   1   8   4 101148. 2964.89  39
   1   8   3 16482.7 2181.69  18
  -1  -8  -3 18034.2 1107.08  52
   1   8   3 17088.6 854.269  51
  -1  -8  -3 17167.7 1103.48  49
   1   8   3 15627.8 1018.06  30
  -1  -8  -3 13202.0 1742.75   6
  -1  -8  -3 16399.6 969.681  44
   1   8   3 17794.1 1099.68  42
  -1  -8  -3 15282.2 2031.92  24
   1   8   3 18371.4 1109.42  39
   1   8   2 73375.8 4339.09  18
  -1  -8  -2 73171.6 2382.69  52
   1   8   2 71752.5 1931.72  51
   1   8   2 68009.3 2158.29  30
  -1  -8  -2 69209.0 3986.15   6
  -1  -8  -2 69208.7 2218.04  44
   1   8   2 72208.4 2317.12  42
  -1  -8  -2 71899.5 4404.79  24
   1   8   2 68899.1 2204.04  39
   1   8   1 2362.38 650.426   5
   1   8   1 2212.77 712.746  18
   1   8   1 3169.57 388.437  51
  -1  -8  -1 2707.04 408.957  31
   1   8   1 2682.55 394.901  30
  -1  -8  -1 3214.68 513.724  52
  -1  -8  -1 2656.35 448.559  44
  -1  -8  -1 1834.83 636.444   6
   1   8   1 2846.29 455.242  42
  -1  -8  -1 2871.04 960.959  24
   1   8   1 2061.53 354.371  39
   1   8   0 199283. 6993.09  18
  -1  -8   0 195133. 4486.43  52
  -1  -8   0 187210. 4142.16  31
   1   8   0 189680. 3817.09  51
  -1  -8   0 183797. 6686.69   6
  -1  -8   0 193335. 4444.00  44
   1   8   0 187586. 4216.53  42
  -1  -8   0 199994. 7468.59  24
   1   8   0 189386. 6388.08   5
  -1  -8   1 26945.2 1479.28  52
  -1  -8   1 28480.4 1406.22  31
   1   8  -1 25755.5 1185.68  51
  -1  -8   1 26731.6 2430.44   6
  -1  -8   1 26897.2 1501.97  44
   1   8  -1 26933.7 1379.04  42
  -1  -8   1 31842.4 2780.57  24
   1   8  -1 28742.5 2405.16   5
  -1  -8   2 60997.6 2218.06  31
  -1  -8   2 66470.5 2499.73  44
   1   8  -2 62097.6 2178.76  42
   1   8  -3 56276.2 1652.49  36
  -1  -8   3 59471.1 2225.43  31
   1   8  -3 57519.5 2114.77  42
   1   8  -4 18981.0 908.952  36
  -1  -8   4 19697.2 1271.31  31
  -1  -8   4 18385.0 1025.93  43
   1   8  -4 18975.3 1169.54  42
  -1  -8   5 97997.6 2944.73  31
  -1  -8   5 93270.0 2544.12  43
   1   8  -5 95932.4 2767.93  42
  -1  -8   6 18436.1 1152.50  31
   1   8  -6 18315.4 1074.30  47
  -1  -8   6 16837.7 964.066  43
   1   8  -6 17487.6 1015.04  42
  -1  -8   7 27988.3 1286.97  31
   1   8  -7 28570.1 1284.01  47
  -1  -8   8 25786.4 1059.35  31
   1   8  -8 25732.1 1102.84  47
   1   8  -9 21236.2 828.708  47
   0  -8 -15 42082.9 1300.50  35
   0   8  15 41286.9 1542.44  50
   0   8  15 41816.0 1426.40  39
   0   8  14 5755.19 661.438  50
   0   8  14 5584.07 505.692  30
   0  -8 -14 5234.59 515.497  29
   0   8  14 6120.86 633.627  39
   0   8  13 88925.0 2928.41  50
   0   8  13 91304.4 2583.09  30
   0  -8 -13 89913.5 2585.20  29
   0   8  13 85962.9 2803.55  39
   0   8  12 1228.88 657.761  18
   0   8  12 2494.00 553.383  50
   0   8  12 2419.97 434.382  30
   0  -8 -12 2709.40 492.307  29
   0   8  12 2297.94 507.148  39
   0   8  11 107495. 6031.39  18
   0   8  11 109774. 3482.15  50
   0   8  11 111253. 3302.50  30
   0  -8 -11 111182. 3275.20  29
   0   8  11 103627. 3432.24  39
   0   8  10 30402.3 3313.79  18
   0   8  10 29608.1 1710.42  50
   0   8  10 29496.6 1656.02  30
   0  -8 -10 31780.1 1679.82  29
   0   8  10 28432.2 1694.47  39
   0   8   9 92324.5 5792.86  18
   0   8   9 81053.8 2919.11  50
   0  -8  -9 86113.2 2372.70  49
   0   8   9 90182.3 2996.27  30
   0  -8  -9 92565.4 3026.35  29
   0   8   9 86068.5 3043.58  39
   0   8   8 59831.3 4645.63  18
   0   8   8 54264.3 2259.65  50
   0  -8  -8 56443.7 1878.04  49
   0   8   8 56950.3 2318.20  30
   0  -8  -8 61454.2 2378.35  29
   0  -8  -8 53058.1 3966.55   6
   0   8   8 56967.3 2391.08  39
   0   8   7 20715.7 2713.87  18
   0  -8  -7 18406.4 941.082  52
   0   8   7 17051.4 1197.12  50
   0  -8  -7 18026.2 1034.08  49
   0   8   7 18933.1 1274.68  30
   0  -8  -7 18718.6 1260.54  29
   0  -8  -7 14794.4 2096.43   6
   0   8   7 19336.7 1048.61  42
   0   8   7 18478.4 1320.83  39
   0   8   6 233568. 9110.19  18
   0  -8  -6 204089. 4058.14  52
   0   8   6 200780. 4677.51  50
   0  -8  -6 212584. 4367.82  49
   0   8   6 219684. 4944.29  30
   0  -8  -6 217659. 4862.25  29
   0  -8  -6 215508. 8245.53   6
   0   8   6 213084. 4348.39  42
   0   8   6 217229. 5087.46  39
   0   8   5 21973.6 2641.62  18
   0  -8  -5 19063.0 983.686  52
   0   8   5 21137.7 1207.35  50
   0  -8  -5 19807.9 1093.49  49
   0   8   5 21225.6 1279.16  30
   0  -8  -5 19960.9 1203.43  29
   0  -8  -5 20076.5 2377.43   6
   0   8   5 19511.9 1071.44  42
   0   8   5 21432.4 1340.93  39
   0   8   4 85326.6 5078.98  18
   0  -8  -4 77116.0 2172.31  52
   0  -8  -4 81313.4 2365.57  49
   0   8   4 81572.5 2570.47  30
   0  -8  -4 76167.6 2403.35  29
   0  -8  -4 79855.9 4715.19   6
   0   8   4 80982.9 2337.60  42
   0   8   4 83840.6 2716.48  39
   0   8   3 134910. 6258.73  18
   0  -8  -3 123116. 2906.58  52
   0  -8  -3 124668. 3081.22  49
   0   8   3 126448. 3260.39  30
   0  -8  -3 123252. 5815.14   6
   0  -8  -3 114985. 2984.03  29
   0   8   3 123325. 3046.04  42
   0   8   3 125836. 3366.03  39
   0   8   3 133037. 5435.42   5
   0   8   2 56866.7 3918.07  18
   0  -8  -2 51463.5 1752.46  52
   0  -8  -2 53829.6 1865.90  49
   0   8   2 53784.8 1942.82  30
   0  -8  -2 53033.4 3669.53   6
   0  -8  -2 47920.4 1710.61  29
   0   8   2 52475.5 1857.21  42
   0   8   2 53617.3 2011.22  39
   0   8   2 55544.9 3406.14   5
   0   8   1 138515. 6258.20  18
   0  -8  -1 140475. 3245.02  52
   0  -8  -1 131108. 2958.83  31
   0   8   1 132694. 3326.41  30
   0  -8  -1 141010. 3333.68  49
   0  -8  -1 134186. 6002.76   6
   0  -8  -1 139689. 3270.28  44
   0   8   1 137051. 3353.12  42
   0   8   1 140090. 3509.23  39
   0   8   1 137986. 5582.26   5
   0   8   0 28335.8 2755.29  18
   0  -8   0 28272.1 1232.01  31
   0   8   0 27709.0 1348.68  30
   0  -8   0 26731.1 1314.58  49
   0  -8   0 27520.6 1287.83  52
   0  -8   0 27857.1 1345.14  44
   0   8   0 27516.2 1378.10  42
   0  -8   0 30328.5 2476.80  24
   0  -8   0 29189.9 2728.78   6
   0   8   0 29410.3 2500.24   5
   0  -8   1 158089. 3526.93  31
   0  -8   1 158159. 3618.41  52
   0   8  -1 152021. 3629.60  30
   0  -8   1 153619. 6623.49   6
   0  -8   1 163871. 3798.97  44
   0   8  -1 159524. 3847.55  42
   0   8  -1 157071. 6194.03   5
   0  -8   2 56344.5 1988.39  52
   0  -8   2 62536.5 2051.69  31
   0   8  -2 58982.1 2018.55  30
   0  -8   2 59105.0 2175.66  44
   0   8  -2 62419.8 2260.35  42
   0  -8   3 45857.9 1782.37  31
   0  -8   3 45813.2 1932.27  44
   0   8  -3 48957.6 2009.14  42
   0  -8   3 45997.6 1745.75  52
   0  -8   4 106405. 2934.81  31
   0   8  -4 99590.9 2770.60  47
   0  -8   4 103677. 3093.29  44
   0  -8   4 101931. 2673.92  43
   0   8  -4 110084. 3196.31  42
   0  -8   5 4866.71 581.435  31
   0   8  -5 5365.73 606.333  47
   0  -8   5 5244.36 561.420  43
   0   8  -5 5167.84 659.672  42
   0  -8   6 110735. 2928.20  31
   0   8  -6 110673. 2924.27  47
   0  -8   6 103305. 2708.43  43
   0   8  -6 110598. 3042.90  42
   0  -8   7 30381.6 1304.42  31
   0   8  -7 29159.8 1318.55  47
   0  -8   7 28229.8 1224.28  43
   0   8  -7 28953.5 1308.81  42
   0  -8   8 53438.1 1571.51  31
   0   8  -8 54955.2 1703.24  47
   0  -8   8 55893.4 1635.15  43
   0   8  -8 53813.9 1556.98  42
   0  -8   8 50292.6 1426.01  38
   0   8  -9 59118.6 1560.28  47
  -1   8  15 26240.5 1146.37  50
   1  -8 -15 26372.3 939.153  29
  -1   8  14 103646. 2881.27  50
   1  -8 -14 104039. 2563.71  29
  -1   8  14 100364. 2482.70  39
  -1   8  13 3291.72 587.409  50
   1  -8 -13 3460.77 504.981  29
  -1   8  13 4046.91 535.864  39
   1  -8 -12 97033.1 2702.77  33
  -1   8  12 93032.2 3208.77  50
  -1   8  12 99842.7 2666.61  30
   1  -8 -12 99290.6 2986.85  29
  -1   8  12 96601.2 2969.00  39
   1  -8 -11 29984.0 1487.07  33
  -1   8  11 32081.0 2926.96  18
  -1   8  11 27925.3 1746.24  50
  -1   8  11 29127.8 1451.94  30
   1  -8 -11 30770.6 1650.90  29
  -1   8  11 28732.6 1622.61  39
   1  -8 -10 93541.3 2844.27  33
  -1   8  10 88416.9 5232.39  18
  -1   8  10 88644.3 3241.52  50
   1  -8 -10 91775.7 2410.35  49
  -1   8  10 88630.8 2808.67  30
   1  -8 -10 92374.9 3061.62  29
  -1   8  10 89824.0 3069.40  39
   1  -8  -9 154628. 3857.02  33
  -1   8   9 146177. 6995.06  18
  -1   8   9 142894. 4238.24  50
   1  -8  -9 149199. 3419.27  49
  -1   8   9 146246. 3845.63  30
   1  -8  -9 150431. 4080.45  29
  -1   8   9 149557. 4147.23  39
   1  -8  -8 5008.13 646.318  33
  -1   8   8 4346.72 1155.94  18
   1  -8  -8 4211.09 424.854  52
  -1   8   8 3837.29 651.245  50
   1  -8  -8 4387.54 540.193  49
  -1   8   8 4565.61 621.032  30
   1  -8  -8 5142.57 680.812  29
  -1   8   8 3870.17 627.146  39
   1  -8  -7 53952.9 2078.69  33
  -1   8   7 50041.8 3993.44  18
   1  -8  -7 51819.4 1622.11  52
  -1   8   7 50991.7 2275.98  50
   1  -8  -7 53085.9 1944.82  49
  -1   8   7 49310.9 2040.27  30
   1  -8  -7 49073.8 2120.84  29
   1  -8  -7 53795.1 1708.31  15
   1  -8  -7 47702.0 3878.72   6
  -1   8   7 50766.3 2207.65  39
   1  -8  -6 5341.23 633.784  33
  -1   8   6 6365.77 1434.81  18
  -1   8   6 4554.37 648.489  50
   1  -8  -6 5630.97 625.549  49
  -1   8   6 5459.07 656.416  30
   1  -8  -6 4614.14 598.693  29
   1  -8  -6 5750.15 517.324  15
   1  -8  -6 4106.01 1115.19   6
  -1   8   6 4294.50 619.535  39
   1  -8  -5 75485.1 2386.34  33
  -1   8   5 74127.2 4768.17  18
  -1   8   5 75135.3 2616.11  50
   1  -8  -5 79296.2 2411.71  49
  -1   8   5 68820.2 2410.54  30
   1  -8  -5 70267.1 2356.20  29
   1  -8  -5 74888.5 2053.79  15
   1  -8  -5 71163.0 4708.41   6
  -1   8   5 76038.0 2632.65  39
   1  -8  -4 66261.3 2102.82  33
  -1   8   4 68365.7 4524.97  18
  -1   8   4 65317.9 2347.84  50
  -1   8   4 64432.3 2262.60  30
   1  -8  -4 74376.9 2285.79  49
   1  -8  -4 70165.9 1964.11  15
   1  -8  -4 68472.8 4518.07   6
   1  -8  -4 63105.8 2089.49  29
  -1   8   4 63475.6 1974.64  42
  -1   8   4 69255.0 2442.85  39
  -1   8   3 38971.3 3395.58  18
   1  -8  -3 44730.2 1565.25  52
  -1   8   3 39288.9 1706.07  30
   1  -8  -3 42614.1 1645.69  49
   1  -8  -3 39684.6 3377.98   6
   1  -8  -3 39087.2 1427.95  15
  -1   8   3 38596.9 1537.32  42
  -1   8   3 38681.8 1767.80  39
  -1   8   2 114484. 5910.39  18
   1  -8  -2 118633. 2809.96  52
  -1   8   2 107897. 3046.86  30
   1  -8  -2 116525. 2918.04  49
   1  -8  -2 110878. 5689.95   6
   1  -8  -2 112096. 2680.03  15
  -1   8   2 109661. 2920.45  42
  -1   8   2 110081. 3169.31  39
  -1   8   2 109611. 5187.24   5
  -1   8   1 11791.4 1930.55  18
   1  -8  -1 12361.5 802.390  52
  -1   8   1 11399.3 909.001  30
   1  -8  -1 11352.7 799.553  49
   1  -8  -1 11524.2 1222.88  16
   1  -8  -1 11090.2 1730.87   6
   1  -8  -1 11944.7 771.251  15
  -1   8   1 10916.2 852.702  42
  -1   8   1 10284.6 894.132  39
  -1   8   1 12486.0 1687.65   5
   1  -8   0 126103. 2936.50  52
  -1   8   0 120011. 3300.55  30
   1  -8   0 119303. 2944.83  49
   1  -8   0 118990. 4300.80  16
   1  -8   0 123221. 5995.47   6
  -1   8   0 123103. 3323.78  42
  -1   8   0 124013. 5512.25   5
   1  -8   1 30356.5 1304.53  52
  -1   8  -1 31845.3 1561.17  30
   1  -8   1 31311.0 2167.40  16
   1  -8   1 30420.9 1313.19  49
   1  -8   1 32581.7 3038.49   6
   1  -8   1 31666.2 1447.48  44
  -1   8  -1 33009.2 1644.98  42
  -1   8  -1 30996.8 2694.33   5
   1  -8   2 125787. 2990.01  52
  -1   8  -2 133803. 3532.65  30
   1  -8   2 133529. 3283.63  44
  -1   8  -2 138645. 3711.19  42
   1  -8   3 97755.6 2514.72  52
   1  -8   3 100789. 2664.03  31
  -1   8  -3 101603. 2972.37  30
  -1   8  -3 99730.5 2718.56  47
   1  -8   3 96653.1 2802.13  44
  -1   8  -3 107576. 3243.10  42
   1  -8   4 3466.94 494.819  31
  -1   8  -4 3474.01 511.045  30
  -1   8  -4 3816.36 501.475  47
   1  -8   4 3539.41 502.225  44
  -1   8  -4 4047.85 640.740  42
   1  -8   5 157617. 3570.76  31
  -1   8  -5 152596. 3660.29  47
   1  -8   6 2944.82 425.488  31
  -1   8  -6 2531.64 414.596  47
   1  -8   6 2689.14 426.350  43
  -1   8  -6 2802.43 534.822  42
   1  -8   7 75182.4 2046.36  31
  -1   8  -7 72103.3 2111.41  47
   1  -8   7 75426.8 2079.87  43
  -1   8  -7 75396.6 2286.17  42
   1  -8   8 46827.5 1324.81  31
  -1   8  -8 45218.9 1452.48  47
   1  -8   8 47733.0 1465.46  43
  -1   8  -9 15851.7 675.366  47
   1  -8   9 16094.1 639.153  38
  -2   8  14 9995.80 723.535  50
   2  -8 -14 11106.6 694.813  29
  -2   8  14 9064.62 550.464  38
   2  -8 -13 32349.7 1274.26  33
  -2   8  13 34660.9 1580.03  50
   2  -8 -13 33078.0 1428.15  29
  -2   8  13 32763.7 1355.88  38
   2  -8 -12 1108.62 331.335  33
  -2   8  12 860.169 381.762  50
   2  -8 -12 590.378 309.090  29
  -2   8  12 795.539 287.654  38
  -2   8  11 137129. 3973.17  50
   2  -8 -11 141975. 3511.48  33
   2  -8 -11 138790. 3012.28  49
   2  -8 -11 140713. 3748.50  29
  -2   8  11 136633. 3422.91  39
  -2   8  11 130639. 3581.11  38
   2  -8 -10 50272.7 2018.55  33
  -2   8  10 50944.3 2350.30  50
   2  -8 -10 53962.6 1808.71  49
   2  -8 -10 49488.7 2128.83  29
  -2   8  10 48876.0 2003.69  39
  -2   8  10 49029.6 2081.84  38
  -2   8   9 36953.2 3178.44  18
   2  -8  -9 37467.7 1743.42  33
  -2   8   9 36540.4 1971.77  50
  -2   8   9 38468.5 1666.37  30
   2  -8  -9 33715.2 1735.99  29
  -2   8   9 35648.4 1713.49  39
  -2   8   9 33390.3 1724.85  38
  -2   8   8 109299. 5770.26  18
   2  -8  -8 112047. 3190.73  33
  -2   8   8 111594. 3605.43  50
  -2   8   8 108197. 3079.03  30
   2  -8  -8 104252. 3172.52  29
   2  -8  -8 110243. 2834.12  15
  -2   8   8 107667. 3205.68  39
  -2   8   8 100098. 3204.55  38
   2  -8  -7 2483.87 463.199  33
  -2   8   7 2189.66 962.723  18
  -2   8   7 1660.02 476.552  50
  -2   8   7 2254.61 428.625  30
   2  -8  -7 2507.06 454.023  29
   2  -8  -7 1962.41 353.400  15
  -2   8   7 2004.11 413.676  39
  -2   8   7 2008.58 424.339  38
  -2   8   6 149810. 6957.33  18
   2  -8  -6 145185. 3641.32  33
  -2   8   6 150443. 4139.44  50
  -2   8   6 140640. 3672.64  30
  -2   8   6 143325. 3827.12  48
   2  -8  -6 147605. 3427.64  15
   2  -8  -6 137040. 3559.23  29
  -2   8   6 147289. 3833.42  39
  -2   8   6 145465. 3906.49  38
  -2   8   5 20756.1 2571.60  18
   2  -8  -5 21069.9 1168.39  33
  -2   8   5 21922.8 1424.01  50
  -2   8   5 19999.2 1240.34  30
  -2   8   5 21232.6 1289.58  48
   2  -8  -5 20706.0 1132.80  15
   2  -8  -5 20067.6 1131.16  29
   2  -8  -5 20431.0 2567.60   6
  -2   8   5 20994.8 1288.58  39
  -2   8   4 46453.4 3822.99  18
   2  -8  -4 45578.2 1668.38  33
  -2   8   4 42501.3 1849.25  30
  -2   8   4 44161.6 1850.31  48
   2  -8  -4 43783.3 1699.20  15
   2  -8  -4 47314.7 3854.68   6
  -2   8   4 44862.2 1918.76  39
  -2   8   3 83855.5 5248.24  18
  -2   8   3 80663.7 2679.61  30
   2  -8  -3 92106.8 2627.36  49
  -2   8   3 84575.1 2585.44  48
   2  -8  -3 80112.1 2409.30  15
   2  -8  -3 87291.6 5221.43   6
  -2   8   3 80031.0 2675.61  39
  -2   8   2 11980.0 974.467  30
   2  -8  -2 12279.0 875.605  49
   2  -8  -2 11702.1 848.113  15
  -2   8   2 11838.1 876.944  48
   2  -8  -2 11663.7 1863.09   6
  -2   8   2 12098.3 950.715  42
  -2   8   2 12276.1 1008.46  39
  -2   8   1 227572. 5131.63  30
   2  -8  -1 227384. 4565.66  49
   2  -8  -1 248607. 6887.69  16
   2  -8  -1 231847. 4791.40  15
   2  -8  -1 237916. 8703.17   6
  -2   8   1 229687. 4692.20  48
  -2   8   1 238632. 5211.39  42
   2  -8   0 9397.42 703.888  52
  -2   8   0 8802.44 861.101  30
   2  -8   0 8916.53 671.856  49
   2  -8   0 8948.56 1204.88  16
  -2   8   0 8395.81 696.582  48
  -2   8   0 9125.67 880.212  42
   2  -8   1 89511.2 2334.51  52
  -2   8  -1 91360.4 2945.29  30
   2  -8   1 86257.7 3902.32  16
  -2   8  -1 89357.7 2439.70  48
  -2   8  -1 93992.1 3088.17  42
   2  -8   2 62839.3 1841.90  52
  -2   8  -2 63138.4 2394.86  30
   2  -8   2 61078.1 3241.09  16
  -2   8  -2 62444.7 1925.13  48
   2  -8   2 61590.3 2053.32  44
  -2   8  -2 68151.9 2587.34  42
  -2   8  -3 28466.4 1527.71  30
   2  -8   3 24182.8 2006.45  16
  -2   8  -3 27527.9 1179.76  48
   2  -8   3 26932.9 1290.96  44
  -2   8  -3 29023.1 1644.78  42
   2  -8   4 150970. 3324.85  31
  -2   8  -4 154679. 3834.23  30
  -2   8  -4 146859. 3101.76  48
   2  -8   4 144915. 3391.09  44
  -2   8  -4 158683. 4134.06  42
   2  -8   4 148424. 5053.38  26
   2  -8   5 2483.79 388.300  31
  -2   8  -5 2999.10 343.953  48
   2  -8   5 2712.24 394.476  44
   2  -8   5 2042.41 554.244  26
  -2   8  -5 3218.21 572.475  42
   2  -8   6 53352.7 1643.17  31
  -2   8  -6 53510.7 1404.11  48
  -2   8  -6 49471.0 1612.03  47
  -2   8  -6 55705.0 2033.26  42
   2  -8   7 2154.42 285.760  31
  -2   8  -7 2104.19 222.333  48
  -2   8  -7 2184.23 291.284  47
   2  -8   7 2719.63 359.680  43
  -2   8  -7 1825.01 348.059  42
   2  -8   8 54062.1 1462.56  43
   3  -8 -13 421.594 172.840  33
  -3   8  13 307.086 172.274  50
  -3   8  13 71.3750 166.606  48
   3  -8 -13 181.292 174.134  29
  -3   8  13 192.231 153.784  38
   3  -8 -12 66768.0 1927.29  33
  -3   8  12 62807.1 2068.72  50
   3  -8 -12 66427.0 2063.45  29
  -3   8  12 63372.2 2090.07  38
  -3   8  11 11321.0 927.518  50
   3  -8 -11 11321.2 838.268  33
   3  -8 -11 11228.7 696.451  49
   3  -8 -11 10367.3 840.928  29
  -3   8  11 11293.2 934.737  38
   3  -8 -10 75963.4 2395.55  33
   3  -8 -10 71549.5 2410.52  29
  -3   8  10 75501.2 2643.32  50
  -3   8  10 71639.9 2584.76  38
   3  -8  -9 77152.0 2488.77  33
  -3   8   9 79089.9 2789.45  50
   3  -8  -9 73752.7 2481.73  29
  -3   8   9 78307.5 2789.55  38
   3  -8  -8 3145.79 518.918  33
  -3   8   8 4124.72 687.741  50
  -3   8   8 2274.49 488.906  48
   3  -8  -8 3051.15 430.524  15
   3  -8  -8 2652.89 439.130  29
  -3   8   8 3430.58 618.914  38
   3  -8  -7 203733. 4559.14  33
  -3   8   7 212754. 5144.54  50
  -3   8   7 216747. 5155.50  48
   3  -8  -7 202847. 4523.07  29
   3  -8  -7 221962. 4541.94  15
   3  -8  -7 222874. 7127.23  25
  -3   8   7 220156. 4713.86  39
   3  -8  -6 5069.64 579.758  33
  -3   8   6 5709.17 681.296  30
  -3   8   6 4768.18 656.320  48
   3  -8  -6 5261.35 585.072  15
   3  -8  -6 4699.35 1046.91  25
  -3   8   6 5435.97 632.573  39
   3  -8  -5 74525.0 2275.83  33
  -3   8   5 85272.8 2825.53  30
  -3   8   5 82599.9 2811.24  48
   3  -8  -5 79813.1 2475.83  15
   3  -8  -5 78007.1 4074.85  25
  -3   8   5 81181.4 2645.97  39
  -3   8   4 70868.1 2600.68  30
  -3   8   4 70949.2 2531.02  48
   3  -8  -4 68576.4 2288.84  15
   3  -8  -4 66822.8 3664.03  25
  -3   8   3 80427.7 2799.37  30
  -3   8   3 79135.8 2632.52  48
   3  -8  -3 76846.8 2465.68  15
  -3   8   2 163409. 4278.30  30
   3  -8  -2 163235. 3650.45  49
  -3   8   2 160971. 3952.35  48
   3  -8  -2 156308. 3813.40  15
   3  -8  -1 1873.58 327.957  49
  -3   8   1 2187.52 491.038  30
  -3   8   1 1656.81 369.747  48
   3  -8  -1 1439.76 333.689  15
  -3   8   0 139771. 3928.24  30
   3  -8   0 146791. 5272.59  16
   3  -8   0 134784. 3527.17  15
  -3   8   0 138277. 3440.64  48
  -3   8  -1 23308.0 1455.14  30
   3  -8   1 24190.1 2026.19  16
  -3   8  -1 22725.3 1184.66  48
  -3   8  -1 25501.9 1539.95  42
   3  -8   1 23253.1 1053.02  52
   3  -8   2 101552. 2361.71  52
  -3   8  -2 110551. 3288.83  30
   3  -8   2 104621. 4297.55  16
  -3   8  -2 101345. 2657.31  48
   3  -8   2 105488. 2668.16  44
  -3   8  -2 108896. 3350.54  42
  -3   8  -3 114283. 2729.07  48
   3  -8   3 111236. 2692.46  44
  -3   8  -3 119302. 3414.06  42
   3  -8   4 15580.0 838.762  31
  -3   8  -4 15013.1 815.926  48
  -3   8  -4 15049.5 1080.51  42
   3  -8   4 16297.4 1560.12  26
   3  -8   5 119050. 2565.89  31
  -3   8  -5 120366. 2495.54  48
  -3   8  -5 118812. 3108.35  42
   3  -8   6 8233.68 496.637  31
  -3   8  -6 7811.06 466.749  48
  -3   8  -7 75780.0 1495.00  48
   3  -8   7 79152.3 1795.35  43
   4  -8 -12 4229.92 351.784  33
  -4   8  12 4219.77 388.075  48
   4  -8 -12 3935.65 339.646  29
   4  -8 -11 34268.7 1208.68  33
   4  -8 -11 32875.3 1036.11  49
  -4   8  11 32414.9 1288.28  48
   4  -8 -11 31946.5 1174.81  29
   4  -8 -10 44739.9 1534.30  33
  -4   8  10 44065.8 1680.95  48
   4  -8 -10 43320.1 1504.92  29
   4  -8  -9 16023.2 945.675  33
  -4   8   9 15710.5 1047.72  48
   4  -8  -9 16514.8 927.341  29
   4  -8  -8 59085.3 1965.22  33
  -4   8   8 62141.8 2253.14  48
   4  -8  -8 62985.7 1908.00  29
   4  -8  -7 4994.51 555.379  33
  -4   8   7 4912.89 662.834  48
   4  -8  -7 5848.84 977.006  25
   4  -8  -6 148448. 3320.87  33
  -4   8   6 154323. 3918.15  48
   4  -8  -6 153728. 5501.89  25
  -4   8   5 24034.1 1395.82  48
   4  -8  -5 21862.8 1978.94  25
  -4   8   4 59755.3 2210.32  48
   4  -8  -4 51089.0 3007.53  25
  -4   8   3 71098.8 2628.43  30
  -4   8   3 65919.6 2326.72  48
  -4   8   2 18280.5 1279.41  30
   4  -8  -2 17048.5 933.191  49
  -4   8   2 15468.9 1050.76  48
  -4   8   1 85889.4 2885.48  30
  -4   8   1 85703.1 2548.42  48
  -4   8   0 10467.6 933.372  30
  -4   8   0 9702.90 774.477  48
   4  -8   1 66849.3 1710.10  52
  -4   8  -1 64029.6 1991.20  48
  -4   8  -2 15420.5 866.798  48
   4  -8   2 14433.3 745.316  44
  -4   8  -3 32598.3 1189.59  48
   4  -8   4 70724.8 1676.89  31
  -4   8  -4 74725.1 1770.18  48
   4  -8   5 215.252 90.7369  31
  -4   8  -5 420.801 142.168  48
  -4   8  -6 52414.2 1111.70  48
   4  -8   6 54352.7 1250.71  43
   5  -8  -9 36836.9 1031.94  33
  -5   8   9 38308.1 1213.06  48
   5  -8  -8 14354.8 639.067  33
  -5   8   8 13513.7 755.726  48
   5  -8  -7 85847.3 1847.26  33
  -5   8   7 83023.9 2191.01  48
  -5   8   6 7138.71 605.763  48
  -5   8   5 97597.5 2496.98  48
   5  -8  -4 27290.7 1066.25  49
  -5   8   4 24952.6 1149.16  48
   5  -8  -3 31402.1 1073.31  49
  -5   8   3 28951.3 1230.62  48
  -5   8   2 59595.7 1794.98  48
  -5   8   1 5238.76 484.669  48
   5  -8   0 81109.2 1691.10  52
  -5   8   0 80485.2 1987.41  48
  -5   8  -1 21860.6 878.029  48
  -5   8  -2 37939.3 1105.17  48
  -5   8  -3 45143.0 1105.70  48
   5   9   8 21624.7 742.993  51
   5   9   8 20820.9 764.200  42
   5   9   7 18816.8 753.695  51
   5   9   7 16849.0 715.522  42
  -5  -9  -7 17027.4 769.035  40
   5   9   6 54052.3 1440.46  51
  -5  -9  -6 52277.8 1621.20  40
   5   9   5 434.624 190.923  51
   5   9   5 455.428 144.569  42
  -5  -9  -5 422.283 229.879  40
   5   9   4 45896.4 1358.37  51
  -5  -9  -4 45799.7 1634.52  40
   5   9   3 3071.56 335.746  36
   5   9   3 2489.14 318.454  51
  -5  -9  -3 3301.51 436.200  40
   5   9   2 36585.6 1114.91  36
   5   9   2 36004.5 1118.03  51
   5   9   2 34478.8 893.188  28
  -5  -9  -2 35266.9 1287.98  40
   5   9   1 28364.7 921.301  36
   5   9   1 25749.6 897.126  51
   5   9   1 26574.0 727.290  28
  -5  -9  -1 26396.7 992.308  40
   5   9   0 4601.58 338.111  36
   5   9   0 3756.12 235.197  28
  -5  -9   0 4150.78 316.350  40
   5   9  -1 57436.9 1257.48  36
  -5  -9   1 51671.2 1335.08  53
  -4  -9 -11 1874.68 249.261  35
   4   9  11 1968.05 274.627  42
  -4  -9 -10 84606.0 2032.43  35
   4   9  10 95241.6 2286.01  42
  -4  -9  -9 14577.0 757.130  35
   4   9   9 15969.2 932.267  42
  -4  -9  -8 27752.4 1054.45  35
   4   9   8 31049.3 1370.31  42
  -4  -9  -8 28258.3 1314.81  40
   4   9   7 41786.5 1658.78  42
  -4  -9  -7 37626.9 1708.87  40
   4   9   6 21339.6 1174.33  42
  -4  -9  -6 19676.3 1305.06  40
   4   9   5 84155.0 2325.71  51
   4   9   5 83477.7 2443.41  42
  -4  -9  -5 81065.5 2860.23  40
   4   9   4 384.247 270.951  51
   4   9   4 709.776 276.295  42
  -4  -9  -4 614.529 446.807  40
   4   9   3 75861.6 2158.58  51
   4   9   3 72077.4 2144.44  42
  -4  -9  -3 77004.9 2728.85  40
   4   9   2 57290.9 1803.87  51
   4   9   2 54280.9 1715.56  42
  -4  -9  -2 58927.5 2234.18  40
   4   9   1 19476.3 954.407  36
   4   9   1 20509.8 1003.21  51
   4   9   1 18793.2 733.444  28
   4   9   1 18664.7 877.184  42
  -4  -9  -1 19718.2 1173.79  40
   4   9   0 52870.2 1563.21  36
   4   9   0 51993.2 1607.55  51
   4   9   0 50293.7 1255.78  28
  -4  -9   0 49094.8 1759.46  40
   4   9  -1 757.571 222.314  36
   4   9  -1 677.576 137.417  28
  -4  -9   1 522.249 190.949  40
  -4  -9   2 56562.6 1596.28  31
   4   9  -2 59407.1 1282.69  28
   4   9  -3 31459.1 970.464  36
  -4  -9   3 27372.0 983.348  31
  -4  -9   4 19729.1 718.076  31
  -3  -9 -13 33072.7 1103.32  35
   3   9  13 29611.1 1048.41  30
  -3  -9 -12 6507.90 552.876  35
   3   9  12 5894.87 536.517  30
   3   9  12 6233.13 491.869  42
   3   9  12 5744.28 461.664  39
  -3  -9 -11 59693.7 1891.36  35
   3   9  11 54429.9 1845.89  30
   3   9  11 56414.3 1797.54  42
   3   9  11 55936.2 1728.06  39
  -3  -9 -10 9345.17 758.078  35
   3   9  10 10318.4 814.243  30
   3   9  10 9202.11 762.510  42
   3   9  10 9742.02 724.284  39
  -3  -9  -9 27404.6 1293.65  35
   3   9   9 25351.7 1310.32  30
   3   9   9 25700.0 1340.48  42
  -3  -9  -9 25781.1 1287.96  40
  -3  -9  -8 20491.8 1109.33  35
   3   9   8 20387.9 1180.44  30
   3   9   8 19222.6 1197.65  42
  -3  -9  -8 18296.9 2462.72  24
  -3  -9  -8 20983.7 1320.98  40
  -3  -9  -7 26288.9 1214.03  35
   3   9   7 27708.7 1348.37  30
   3   9   7 27875.0 1458.55  42
  -3  -9  -7 27495.1 3178.03  24
  -3  -9  -7 29661.1 1683.80  40
   3   9   6 70789.0 2431.67  42
  -3  -9  -6 74655.0 5401.34  24
  -3  -9  -6 70191.2 2764.91  40
   3   9   5 10815.8 911.880  42
  -3  -9  -5 9208.61 1008.37  40
  -3  -9  -5 8712.35 1928.97  24
   3   9   4 57085.6 1914.16  51
   3   9   4 60595.3 2177.48  42
  -3  -9  -4 61457.6 4865.72  24
  -3  -9  -4 59950.7 2572.98  40
   3   9   3 43161.1 1623.42  51
   3   9   3 46690.9 1841.91  42
  -3  -9  -3 47225.6 4158.04  24
  -3  -9  -3 45930.1 2191.89  40
   3   9   2 47927.6 1707.44  51
   3   9   2 50212.4 1866.24  42
  -3  -9  -2 43390.2 3911.62  24
  -3  -9  -2 50281.5 2215.38  40
   3   9   1 19663.9 1057.60  51
   3   9   1 18925.1 1085.65  42
  -3  -9  -1 18515.8 2457.09  24
  -3  -9  -1 19048.1 1267.33  40
   3   9   0 15298.2 851.064  36
  -3  -9   0 15148.0 990.787  31
   3   9   0 16547.5 958.866  51
   3   9   0 15446.3 932.642  42
  -3  -9   0 16593.2 1113.57  40
   3   9  -1 57526.4 1691.85  36
  -3  -9   1 54523.9 1977.18  31
   3   9  -1 59022.7 1852.69  51
   3   9  -1 53848.3 1749.08  42
  -3  -9   1 55310.0 1930.98  40
   3   9  -2 476.585 198.243  36
  -3  -9   2 573.764 283.921  31
   3   9  -3 119003. 2504.93  36
  -3  -9   3 112728. 2879.79  31
   3   9  -4 53760.0 1434.90  36
  -3  -9   4 52898.5 1720.11  31
  -3  -9   5 15728.4 802.666  31
   3   9  -5 15775.7 743.842  47
  -3  -9   6 53358.8 1356.99  31
   3   9  -6 53970.9 1305.23  47
  -2  -9 -14 39792.6 1259.77  35
   2   9  14 38070.4 1239.88  30
  -2  -9 -13 44489.8 1548.95  35
   2   9  13 43567.4 1558.79  30
   2   9  13 41080.4 1545.20  39
  -2  -9 -12 41873.2 1635.15  35
   2   9  12 38911.0 1633.83  30
   2   9  12 38354.7 1326.59  42
   2   9  12 36770.0 1590.01  39
  -2  -9 -11 412.462 307.536  35
   2   9  11-73.9390 286.428  30
   2   9  11 164.821 192.798  42
   2   9  11 56.4025 238.699  39
  -2  -9 -10 70909.6 2288.40  35
   2   9  10 60955.7 4215.74  18
   2   9  10 63526.3 2316.79  30
   2   9  10 64782.1 2156.78  42
   2   9  10 61812.7 2303.95  39
  -2  -9  -9 21084.8 1195.59  35
   2   9   9 17697.2 2318.12  18
   2   9   9 18556.3 1216.66  30
   2   9   9 18068.7 1137.16  42
  -2  -9  -9 17352.8 2290.28  24
  -2  -9  -9 20011.5 1203.44  40
   2   9   9 18638.0 1231.72  39
  -2  -9  -8 74670.9 2348.41  35
   2   9   8 67770.8 4556.41  18
   2   9   8 67694.2 2416.64  30
   2   9   8 69742.9 2396.73  42
  -2  -9  -8 72226.2 4939.77  24
  -2  -9  -8 75814.5 2667.04  40
   2   9   8 73640.8 2549.48  39
  -2  -9  -7 103308. 2713.03  35
   2   9   7 92221.7 5302.81  18
   2   9   7 95798.4 2916.66  30
   2   9   7 93702.1 2872.96  42
  -2  -9  -7 99959.9 5921.56  24
  -2  -9  -7 103312. 3243.30  40
   2   9   7 99153.9 2993.39  39
   2   9   6 13369.2 1998.04  18
   2   9   6 13045.6 984.197  30
   2   9   6 14863.4 1075.64  42
  -2  -9  -6 17149.2 2494.49  24
  -2  -9  -6 15248.3 1197.68  40
   2   9   6 15595.6 1070.01  39
   2   9   5 176278. 7233.55  18
   2   9   5 179139. 3714.77  51
   2   9   5 172100. 4059.28  30
   2   9   5 180047. 4249.27  42
  -2  -9  -5 176214. 8062.01  24
  -2  -9  -5 185487. 4616.10  40
   2   9   4 18767.0 2177.72  18
   2   9   4 14726.0 888.431  51
   2   9   4 16534.5 1016.58  30
   2   9   4 16470.1 1119.72  42
  -2  -9  -4 16005.7 2377.86  24
  -2  -9  -4 17459.7 1269.22  40
   2   9   3 110999. 2755.02  51
   2   9   3 117475. 3188.95  42
  -2  -9  -3 111352. 6183.81  24
  -2  -9  -3 116341. 3436.75  40
   2   9   2 60016.1 1906.82  51
   2   9   2 63532.4 2206.73  42
  -2  -9  -2 65053.7 4592.43  24
  -2  -9  -2 62835.4 2370.31  40
   2   9   1 56751.5 1702.98  36
  -2  -9  -1 52850.6 1963.71  31
   2   9   1 54731.2 1809.01  51
   2   9   1 56683.0 2045.81  42
  -2  -9  -1 55297.6 4142.34  24
  -2  -9  -1 55779.7 2171.03  40
   2   9   0 117446. 2628.47  36
  -2  -9   0 114218. 3172.89  31
   2   9   0 118661. 2879.43  51
   2   9   0 113427. 3058.73  42
  -2  -9   0 113486. 5785.96  24
  -2  -9   0 117882. 3222.44  40
   2   9  -1 641.747 182.109  36
  -2  -9   1 712.157 270.256  31
   2   9  -1 666.579 263.348  42
  -2  -9   1 229.319 196.327  40
   2   9  -2 110265. 2480.64  36
  -2  -9   2 110636. 3064.03  31
   2   9  -2 106681. 2838.16  42
   2   9  -3 13143.1 711.481  36
  -2  -9   3 12432.8 941.770  31
   2   9  -3 12131.4 822.156  42
  -2  -9   4 27981.9 1349.49  31
   2   9  -4 28323.2 1163.11  42
  -2  -9   5 47524.8 1680.38  31
   2   9  -5 48494.4 1571.95  47
  -2  -9   6 13245.1 748.533  31
   2   9  -6 13051.1 715.802  47
  -2  -9   7 60091.1 1473.15  31
   2   9  -7 61666.6 1477.55  47
   1   9  15 6182.23 446.289  39
  -1  -9 -14 51991.9 1572.99  35
   1   9  14 49386.9 1506.65  30
   1   9  14 50288.3 1673.19  39
  -1  -9 -13 59580.7 1882.08  35
   1   9  13 47744.1 1718.53  50
   1   9  13 55407.8 1849.46  30
  -1  -9 -13 47202.5 1617.63  29
   1   9  13 51879.7 1927.57  39
   1   9  12 5585.14 614.409  50
   1   9  12 6545.72 709.125  30
  -1  -9 -12 5604.79 593.005  29
   1   9  12 5719.40 695.234  39
   1   9  11 64223.7 4422.42  18
   1   9  11 56413.0 2073.41  50
   1   9  11 64350.8 2344.95  30
  -1  -9 -11 60692.8 2164.10  29
   1   9  11 61065.3 2370.11  39
   1   9  10 8023.97 1658.31  18
   1   9  10 6956.32 703.010  50
   1   9  10 7760.09 854.046  30
  -1  -9 -10 7543.09 785.006  29
   1   9  10 8060.53 675.297  42
   1   9  10 7404.43 827.270  39
   1   9   9 90839.4 5628.91  18
   1   9   9 98242.7 3115.54  30
  -1  -9  -9 97533.8 3052.58  29
   1   9   9 102646. 2808.60  42
  -1  -9  -9 104682. 2892.44  40
  -1  -9  -9 96334.9 5205.44  24
   1   9   9 91845.4 3048.51  39
   1   9   8 50641.6 4138.75  18
   1   9   8 50134.2 2130.58  30
  -1  -9  -8 50673.5 2133.74  29
   1   9   8 50173.4 1941.43  42
  -1  -9  -8 54056.6 2066.89  40
  -1  -9  -8 51257.9 3795.06  24
   1   9   8 47576.1 2097.05  39
   1   9   7 13053.6 2081.18  18
  -1  -9  -7 14795.4 981.642  52
   1   9   7 13299.9 1062.04  30
  -1  -9  -7 12640.9 1037.86  29
   1   9   7 13325.1 970.175  42
  -1  -9  -7 13014.3 1922.11  24
   1   9   7 12373.0 1046.93  39
   1   9   6 155529. 7220.49  18
  -1  -9  -6 152615. 3707.39  52
   1   9   6 152554. 3936.11  30
  -1  -9  -6 148801. 3934.21  29
   1   9   6 155820. 3796.69  42
  -1  -9  -6 155035. 6811.13  24
   1   9   6 152575. 3987.25  39
   1   9   5 294.356 470.221  18
  -1  -9  -5 477.358 279.934  52
   1   9   5 88.9132 193.026  30
  -1  -9  -5 340.208 256.959  29
   1   9   5 448.753 271.652  42
  -1  -9  -5 528.083 617.218  24
   1   9   5 551.061 287.570  39
   1   9   4 168420. 7132.53  18
  -1  -9  -4 153900. 3806.90  52
   1   9   4 155452. 3815.90  30
  -1  -9  -4 149611. 3475.86  44
   1   9   4 162299. 3836.37  42
  -1  -9  -4 155941. 6810.17  24
   1   9   4 152730. 3856.97  39
   1   9   3 8846.06 1537.13  18
  -1  -9  -3 8258.99 795.427  52
   1   9   3 9648.12 798.890  30
  -1  -9  -3 9150.07 754.513  44
   1   9   3 8630.43 790.353  42
   1   9   3 8042.05 751.439  39
  -1  -9  -3 9450.36 1638.97  24
   1   9   2 117373. 5578.81  18
  -1  -9  -2 113092. 3168.70  52
  -1  -9  -2 112696. 2812.87  31
   1   9   2 110513. 2572.88  51
   1   9   2 110416. 2916.17  30
  -1  -9  -2 108240. 2995.92  44
   1   9   2 116850. 3120.60  42
  -1  -9  -2 112325. 5613.32  24
   1   9   2 112428. 2982.86  39
   1   9   1 127902. 5599.66  18
  -1  -9  -1 121740. 3347.99  52
  -1  -9  -1 118202. 3011.19  31
   1   9   1 115334. 2724.66  51
   1   9   1 118744. 2949.26  30
  -1  -9  -1 117169. 3224.62  44
   1   9   1 120400. 3205.60  42
  -1  -9  -1 122724. 5797.52  24
  -1  -9   0 19056.3 1112.88  31
  -1  -9   0 20732.7 1258.78  44
   1   9   0 21262.6 1229.16  42
  -1  -9   0 20291.5 2216.35  24
  -1  -9   1 115792. 3102.09  31
   1   9  -1 118422. 3175.27  42
  -1  -9   1 116000. 2935.09  40
  -1  -9   2 1976.87 427.324  31
   1   9  -2 2183.01 456.429  42
  -1  -9   3 64618.2 2221.01  31
   1   9  -3 60735.1 2120.50  42
  -1  -9   4 20616.9 1191.31  31
   1   9  -4 19778.5 1115.15  42
  -1  -9   5 23077.8 1182.44  31
   1   9  -5 22351.2 1093.89  47
   1   9  -5 20765.9 1063.56  42
  -1  -9   6 59917.8 1813.08  31
   1   9  -6 59206.0 1755.22  47
   1   9  -6 57083.6 1600.51  42
  -1  -9   7 329.166 153.071  31
   1   9  -7 206.631 146.572  47
   0   9  15 44407.7 1310.93  50
   0   9  15 45651.7 1248.38  39
   0  -9 -14 22736.2 979.787  35
   0   9  14 20796.6 1057.53  50
   0   9  14 19326.0 813.563  30
   0  -9 -14 18918.6 872.480  29
   0   9  14 20519.3 1019.91  39
   0   9  13 18266.3 1119.75  50
   0   9  13 19268.3 992.774  30
   0  -9 -13 18722.8 1002.57  29
   0   9  13 19150.5 1135.89  39
   0   9  12 76844.7 2601.24  50
   0   9  12 83105.5 2479.70  30
   0  -9 -12 82268.7 2483.34  29
   0   9  12 84420.0 2735.29  39
   0   9  11 989.378 597.028  18
   0   9  11 1073.98 376.500  50
   0   9  11 997.977 362.667  30
   0  -9 -11 1129.94 390.349  29
   0   9  11 1248.78 497.416  39
   0   9  10 71240.0 4837.55  18
   0   9  10 62848.6 2420.64  50
   0   9  10 72024.6 2540.47  30
   0  -9 -10 71361.2 2538.70  29
   0  -9 -10 64459.7 3775.92  24
   0   9  10 70474.5 2657.95  39
   0   9   9 2855.51 1036.03  18
   0   9   9 2433.83 492.866  50
   0  -9  -9 2238.76 361.897  49
   0   9   9 2296.65 494.479  30
   0  -9  -9 2676.20 541.675  29
   0   9   9 2695.03 569.587  39
   0   9   8 123833. 6573.69  18
   0   9   8 103198. 3158.98  50
   0  -9  -8 104287. 2810.10  49
   0   9   8 118079. 3424.18  30
   0  -9  -8 118376. 3434.64  29
   0   9   8 113262. 3491.19  39
   0   9   7 127853. 6657.53  18
   0  -9  -7 104903. 2705.28  52
   0   9   7 105790. 3125.55  50
   0  -9  -7 104378. 2896.44  49
   0   9   7 119982. 3412.18  30
   0  -9  -7 120308. 3397.56  29
   0   9   7 111529. 2814.95  42
   0   9   7 111967. 3439.41  39
   0   9   6 15827.1 2297.08  18
   0  -9  -6 14158.6 893.984  52
   0   9   6 14790.0 1023.84  50
   0  -9  -6 14231.3 977.162  49
   0   9   6 14526.7 1101.57  30
   0  -9  -6 14722.7 1080.12  29
   0   9   6 14654.7 938.158  42
   0   9   6 16929.5 1233.98  39
   0   9   5 160003. 7290.28  18
   0  -9  -5 142774. 3404.16  52
   0  -9  -5 147167. 3643.72  49
   0   9   5 154492. 3893.66  30
   0  -9  -5 146033. 3759.00  29
   0  -9  -5 147199. 3251.81  44
   0   9   5 151453. 3519.29  42
   0   9   5 158761. 4065.24  39
   0   9   4 1847.89 845.012  18
   0  -9  -4 1508.46 341.062  52
   0  -9  -4 1568.71 385.511  49
   0   9   4 2425.64 459.176  30
   0  -9  -4 1417.69 339.754  29
   0  -9  -4 1870.86 346.793  44
   0  -9  -4 1094.89 585.961   6
   0   9   4 1780.47 370.206  42
   0   9   4 1555.86 410.911  39
   0   9   3 164055. 7126.47  18
   0  -9  -3 149933. 3169.26  31
   0  -9  -3 154027. 3588.21  52
   0  -9  -3 156309. 3777.46  49
   0   9   3 155569. 3814.17  30
   0  -9  -3 155919. 3545.39  44
   0   9   3 152106. 3625.78  42
   0   9   3 156348. 3926.10  39
   0   9   2 14026.4 2021.30  18
   0  -9  -2 13747.3 949.797  52
   0  -9  -2 13843.3 819.227  31
   0   9   2 13581.3 976.659  30
   0  -9  -2 12357.2 936.154  49
   0  -9  -2 13029.5 919.868  44
   0   9   2 14164.9 969.244  42
   0   9   2 13040.9 1000.15  39
   0   9   1 92721.0 5133.53  18
   0  -9  -1 87980.8 2390.27  31
   0  -9  -1 91885.5 2635.97  52
   0   9   1 89407.3 2677.72  30
   0  -9  -1 92163.6 2668.42  44
   0   9   1 92637.6 2730.87  42
   0  -9  -1 86850.3 4496.58  24
   0  -9   0 172616. 3979.43  52
   0  -9   0 172273. 3770.05  31
   0   9   0 172175. 3971.86  30
   0  -9   0 177139. 4069.15  44
   0   9   0 177080. 4111.54  42
   0  -9   0 173332. 6272.47  24
   0  -9   1 5749.64 632.311  52
   0  -9   1 6099.23 631.888  31
   0   9  -1 6343.79 633.915  30
   0  -9   1 6241.05 697.110  44
   0   9  -1 6724.87 733.834  42
   0  -9   2 99461.6 2802.89  52
   0  -9   2 105806. 2847.88  31
   0   9  -2 103602. 2729.65  30
   0  -9   2 106030. 3055.83  44
   0   9  -2 106839. 3071.59  42
   0  -9   3 11897.5 890.091  31
   0   9  -3 10048.2 742.748  47
   0  -9   3 11503.6 934.603  44
   0  -9   3 10381.0 695.659  43
   0   9  -3 11033.4 919.935  42
   0  -9   4 57563.4 1984.58  31
   0   9  -4 51834.3 1782.05  47
   0  -9   4 53021.9 1683.94  43
   0   9  -4 56601.7 2055.17  42
   0  -9   5 47102.8 1705.02  31
   0   9  -5 43778.6 1574.45  47
   0  -9   5 45545.4 1500.06  43
   0   9  -5 47709.9 1760.15  42
   0  -9   6 5365.65 519.642  31
   0   9  -6 4866.33 481.625  47
   0  -9   6 4484.99 423.325  43
   0   9  -6 5582.88 535.924  42
   0  -9   7 59732.0 1575.88  31
   0   9  -7 58502.0 1586.70  47
   0   9  -7 56676.8 1515.71  42
  -1   9  14 38793.8 1421.39  50
   1  -9 -14 36568.4 1237.38  29
  -1   9  14 35212.4 1143.09  39
  -1   9  13 45842.0 1788.65  50
   1  -9 -13 45019.4 1605.96  29
  -1   9  13 43345.5 1553.52  39
  -1   9  12 11145.9 966.311  50
  -1   9  12 10622.9 722.859  30
   1  -9 -12 11509.6 884.177  29
  -1   9  12 11183.1 863.985  39
  -1   9  11 142909. 3970.24  50
  -1   9  11 144869. 3446.34  30
   1  -9 -11 152146. 3805.47  29
  -1   9  11 148143. 3801.58  39
  -1   9  10 1011.69 436.309  50
   1  -9 -10 965.819 251.096  49
  -1   9  10 715.421 287.055  30
   1  -9 -10 511.112 322.750  29
  -1   9  10 467.570 312.201  39
   1  -9  -9 130141. 3444.81  33
  -1   9   9 122954. 6156.81  18
  -1   9   9 124064. 3718.08  50
   1  -9  -9 124579. 3052.25  49
  -1   9   9 126304. 3407.22  30
   1  -9  -9 134557. 3656.02  29
  -1   9   9 130238. 3717.88  39
   1  -9  -8 101081. 2959.39  33
  -1   9   8 100491. 5660.54  18
   1  -9  -8 93843.8 2352.20  52
  -1   9   8 97112.1 3177.20  50
   1  -9  -8 97196.3 2680.13  49
  -1   9   8 98380.9 2973.59  30
   1  -9  -8 98457.7 3042.73  29
  -1   9   8 99331.5 3196.73  39
   1  -9  -7 21421.4 1271.53  33
  -1   9   7 21699.4 2610.71  18
   1  -9  -7 20945.7 1023.78  52
  -1   9   7 20602.0 1367.91  50
   1  -9  -7 22014.8 1212.00  49
  -1   9   7 22442.9 1326.76  30
   1  -9  -7 21229.5 1301.30  29
  -1   9   7 21610.7 1409.25  39
  -1   9   6 102642. 5741.16  18
   1  -9  -6 97111.9 2538.28  52
  -1   9   6 99127.9 3119.21  50
   1  -9  -6 104800. 2887.29  49
  -1   9   6 96463.6 2955.97  30
   1  -9  -6 96211.7 2892.37  29
  -1   9   6 102790. 3196.55  39
  -1   9   5 3118.41 1068.99  18
   1  -9  -5 3809.55 485.337  52
  -1   9   5 3641.17 559.292  50
  -1   9   5 4074.36 578.870  30
   1  -9  -5 4466.44 591.909  49
   1  -9  -5 3382.46 481.786  29
  -1   9   5 4124.22 610.683  39
  -1   9   4 142384. 6779.95  18
   1  -9  -4 142770. 3274.89  52
  -1   9   4 139107. 3606.15  30
   1  -9  -4 146455. 3528.45  49
   1  -9  -4 128947. 3229.98  29
  -1   9   4 132235. 3205.09  42
  -1   9   4 137576. 3717.36  39
  -1   9   3 33271.7 3191.14  18
   1  -9  -3 33218.6 1422.42  52
  -1   9   3 31426.3 1559.23  30
   1  -9  -3 32778.2 1508.35  49
  -1   9   3 29194.0 1375.03  42
  -1   9   3 30876.0 1594.36  39
  -1   9   2 53779.0 4077.05  18
   1  -9  -2 58986.7 1960.92  52
  -1   9   2 54942.8 2102.29  30
   1  -9  -2 56202.1 1996.61  49
  -1   9   2 53438.2 1971.72  42
  -1   9   2 57846.4 2217.77  39
   1  -9  -1 66697.5 2099.78  52
  -1   9   1 62485.6 2267.94  30
   1  -9  -1 64316.9 2127.28  49
   1  -9  -1 67634.6 2205.78  44
  -1   9   1 64221.2 2236.29  42
   1  -9   0 13384.7 890.836  52
  -1   9   0 10863.2 911.184  30
   1  -9   0 11818.5 842.177  49
   1  -9   0 12638.9 918.170  44
  -1   9   0 11561.6 932.368  42
   1  -9   1 120283. 2991.55  52
   1  -9   1 126168. 3044.84  31
  -1   9  -1 122518. 3291.99  30
   1  -9   1 123933. 3195.94  44
  -1   9  -1 124908. 3391.01  42
   1  -9   2 1394.13 310.826  52
   1  -9   2 814.500 303.170  31
  -1   9  -2 666.093 246.535  30
   1  -9   2 965.951 342.231  44
  -1   9  -2 818.378 359.592  42
   1  -9   3 36064.8 1360.62  52
   1  -9   3 36580.9 1504.49  31
  -1   9  -3 36546.7 1561.14  30
   1  -9   3 36559.0 1568.66  44
  -1   9  -3 38355.0 1740.49  42
   1  -9   4 43234.6 1593.96  31
  -1   9  -4 40207.3 1445.92  47
   1  -9   4 40546.6 1623.93  44
   1  -9   4 41867.0 1455.23  43
  -1   9  -4 43516.7 1818.94  42
   1  -9   5 70869.8 2020.77  31
  -1   9  -5 64517.7 1858.30  47
   1  -9   5 68593.6 1890.83  43
  -1   9  -5 70129.7 2216.27  42
   1  -9   6 57294.7 1650.49  31
  -1   9  -6 52720.1 1534.35  47
   1  -9   6 55262.0 1575.20  43
  -1   9  -6 57967.1 1799.84  42
   1  -9   7 1681.19 235.349  31
  -1   9  -7 1345.58 207.480  47
   1  -9   7 1745.85 238.898  43
  -1   9  -7 1586.72 263.915  42
  -2   9  14 10094.1 587.339  50
   2  -9 -14 10420.5 563.072  29
  -2   9  13 31962.1 1307.44  50
   2  -9 -13 33191.7 1245.05  29
  -2   9  12 59778.9 2074.41  50
  -2   9  12 53442.3 1727.87  48
   2  -9 -12 63145.9 1995.08  29
  -2   9  12 55665.9 1631.74  39
   2  -9 -11 9019.93 747.591  33
  -2   9  11 8680.14 859.056  50
   2  -9 -11 8243.98 575.143  49
   2  -9 -11 8558.17 773.131  29
  -2   9  11 7647.90 652.680  39
   2  -9 -10 128116. 3207.26  33
  -2   9  10 122771. 3563.10  50
  -2   9  10 120439. 2896.61  30
   2  -9 -10 119954. 2790.82  49
  -2   9  10 110633. 3027.00  48
   2  -9 -10 124268. 3281.01  29
  -2   9  10 114313. 3073.02  39
  -2   9   9 12675.7 1704.31  18
   2  -9  -9 14081.9 990.613  33
   2  -9  -9 12706.4 696.281  52
  -2   9   9 14316.7 1169.28  50
  -2   9   9 12979.1 895.966  30
   2  -9  -9 14847.6 929.205  49
  -2   9   9 12625.2 931.957  48
   2  -9  -9 12704.9 968.851  29
  -2   9   9 13039.7 970.972  39
  -2   9   8 37495.4 3158.07  18
   2  -9  -8 39856.9 1697.43  33
   2  -9  -8 36433.5 1308.72  52
  -2   9   8 37871.9 1913.88  50
  -2   9   8 35497.8 1594.73  30
   2  -9  -8 39933.4 1622.85  49
  -2   9   8 34132.1 1579.26  48
   2  -9  -8 36041.7 1622.44  29
  -2   9   8 36189.3 1696.39  39
  -2   9   7 41627.5 3449.01  18
   2  -9  -7 45633.4 1801.45  33
   2  -9  -7 47244.8 1592.86  52
  -2   9   7 47281.7 2124.53  50
  -2   9   7 43607.6 1810.42  30
   2  -9  -7 49510.8 1875.47  49
  -2   9   7 43752.9 1792.75  48
   2  -9  -7 41114.0 1733.12  29
  -2   9   7 44935.9 1930.58  39
  -2   9   6 54807.1 4039.50  18
   2  -9  -6 54264.6 1937.30  33
  -2   9   6 55281.2 2280.31  50
  -2   9   6 54672.2 2069.06  30
   2  -9  -6 59020.0 2075.05  49
  -2   9   6 52216.6 1957.08  48
   2  -9  -6 54184.3 1922.60  29
   2  -9  -6 53029.3 1710.69  15
  -2   9   6 51690.8 2094.25  39
  -2   9   5 87860.5 5214.97  18
   2  -9  -5 89902.9 2488.58  33
  -2   9   5 89312.8 2764.14  30
   2  -9  -5 96807.9 2731.92  49
  -2   9   5 90305.6 2622.41  48
   2  -9  -5 85561.4 2315.20  15
  -2   9   5 87799.5 2809.46  39
  -2   9   4 3194.08 1062.31  18
   2  -9  -4 3308.59 489.081  49
  -2   9   4 3232.50 454.892  48
  -2   9   4 2499.72 471.186  30
   2  -9  -4 1968.59 328.024  15
  -2   9   4 2467.07 469.966  39
  -2   9   3 168635. 4159.11  30
   2  -9  -3 176852. 3935.78  49
  -2   9   3 174204. 3824.35  48
   2  -9  -3 169722. 3672.85  15
  -2   9   3 168913. 4219.24  39
  -2   9   2 160999. 4012.36  30
   2  -9  -2 159007. 3616.52  49
  -2   9   2 159991. 3536.66  48
   2  -9  -2 156220. 3483.54  15
   2  -9  -2 168664. 3602.49  52
  -2   9   2 159022. 3801.51  42
   2  -9  -1 15172.1 914.393  52
  -2   9   1 13190.0 1031.34  30
   2  -9  -1 14186.6 905.065  49
   2  -9  -1 12644.0 1329.67  16
  -2   9   1 13966.3 845.586  48
  -2   9   1 14200.0 1016.69  42
   2  -9   0 62099.3 1916.86  52
  -2   9   0 64029.7 2318.72  30
   2  -9   0 60434.3 1891.18  49
   2  -9   0 58051.5 2952.45  16
  -2   9   0 63281.4 1851.85  48
  -2   9   0 62029.5 2253.14  42
   2  -9   1 3603.50 428.791  52
   2  -9   1 3152.27 709.103  16
  -2   9  -1 3629.89 400.336  48
  -2   9  -1 3640.16 552.762  30
   2  -9   1 3855.94 522.498  44
  -2   9  -1 3428.46 518.908  42
   2  -9   2 86430.9 2224.00  52
   2  -9   2 95475.3 2459.92  31
  -2   9  -2 91063.2 2748.46  30
   2  -9   2 88089.3 2480.83  44
  -2   9  -2 89274.7 2765.99  42
   2  -9   3 24248.9 1123.57  31
  -2   9  -3 22956.6 1222.21  30
   2  -9   3 21105.0 1108.26  44
  -2   9  -3 21635.9 1268.48  42
   2  -9   4 67190.6 1906.61  31
   2  -9   4 64513.5 1908.67  44
  -2   9  -4 66534.8 2185.62  42
   2  -9   5 53346.6 1559.49  31
   2  -9   5 51098.3 1522.67  43
  -2   9  -5 53161.1 1775.96  42
   2  -9   6 8453.98 513.047  31
   2  -9   6 8500.18 529.626  43
  -2   9  -6 8021.56 590.930  42
   2  -9   7 38787.5 1054.89  43
   3  -9 -13 59930.7 1453.77  29
  -3   9  12 11417.0 660.252  48
   3  -9 -12 12438.5 698.356  29
   3  -9 -11 86231.3 2184.07  33
   3  -9 -11 79538.1 1873.95  49
  -3   9  11 78481.4 2191.63  48
   3  -9 -11 83846.2 2220.28  29
   3  -9 -10 3371.31 464.721  33
   3  -9 -10 3617.47 413.525  49
  -3   9  10 2570.12 422.191  48
   3  -9 -10 2775.95 408.836  29
   3  -9  -9 62582.7 1985.03  33
   3  -9  -9 58575.2 1540.50  52
   3  -9  -9 63211.0 1920.03  49
  -3   9   9 60105.8 2088.84  48
   3  -9  -9 56841.4 1905.31  29
   3  -9  -8 50756.2 1792.95  33
   3  -9  -8 55408.7 1865.44  49
  -3   9   8 49884.6 1943.66  48
   3  -9  -8 49975.2 1749.76  29
  -3   9   8 51005.9 1761.58  39
   3  -9  -7 55942.0 1872.36  33
  -3   9   7 59020.2 2026.91  30
   3  -9  -7 63017.7 2046.06  49
  -3   9   7 54603.3 2071.04  48
   3  -9  -7 55990.0 1808.43  29
  -3   9   7 56721.6 1966.47  39
   3  -9  -6 55910.7 1824.02  33
  -3   9   6 59077.6 2099.26  30
   3  -9  -6 62823.0 2053.67  49
  -3   9   6 58767.7 2136.10  48
   3  -9  -5 1369.19 344.089  49
  -3   9   5 1514.98 360.518  30
  -3   9   5 1382.77 352.352  48
   3  -9  -5 1632.93 302.304  15
  -3   9   4 92884.0 2815.34  30
   3  -9  -4 95806.8 2569.93  49
  -3   9   4 94718.2 2728.01  48
   3  -9  -4 91200.3 2464.72  15
  -3   9   3 32155.7 1582.41  30
   3  -9  -3 33009.0 1371.18  49
   3  -9  -3 33243.9 2159.70  16
  -3   9   3 31926.0 1446.61  48
   3  -9  -3 32035.7 1357.33  15
  -3   9   2 74342.1 2516.89  30
   3  -9  -2 73366.7 2119.91  49
   3  -9  -2 72975.1 3259.21  16
  -3   9   2 75872.6 2268.70  48
   3  -9  -2 72238.9 2168.05  15
   3  -9  -1 65258.5 1890.21  52
  -3   9   1 66710.0 2345.12  30
   3  -9  -1 63758.7 1875.21  49
  -3   9   1 65019.0 2024.20  48
   3  -9   0 21303.7 984.185  52
  -3   9   0 22081.5 1303.51  30
  -3   9   0 21569.5 1053.03  48
  -3   9   0 21944.1 1181.24  42
   3  -9   1 120112. 2642.56  52
  -3   9  -1 128347. 3335.65  30
  -3   9  -1 126145. 2789.43  48
   3  -9   1 122502. 2905.20  44
  -3   9  -1 125413. 3148.81  42
  -3   9  -2 531.546 181.461  48
   3  -9   2 662.676 244.825  44
  -3   9  -2 629.493 258.520  42
   3  -9   3 126902. 2668.97  31
  -3   9  -3 120239. 2469.35  48
   3  -9   3 122572. 2627.14  44
  -3   9  -3 117660. 2875.67  42
   3  -9   4 33524.5 1120.06  31
  -3   9  -4 32409.7 962.536  48
  -3   9  -4 30189.9 1208.43  42
   3  -9   5 18363.0 712.689  31
  -3   9  -5 18293.9 580.496  48
   3  -9   6 63214.1 1394.49  43
  -4   9  11 286.413 120.892  48
   4  -9 -10 68685.9 1689.16  33
   4  -9 -10 69199.7 1615.66  49
  -4   9  10 67734.8 1781.22  48
   4  -9  -9 17126.6 819.662  33
   4  -9  -9 16440.6 629.358  52
   4  -9  -9 17765.3 827.390  49
  -4   9   9 16903.2 891.360  48
   4  -9  -8 47657.5 1471.08  33
   4  -9  -8 51275.5 1582.41  49
  -4   9   8 47315.0 1647.39  48
   4  -9  -7 57671.5 1619.96  33
   4  -9  -7 62070.6 1824.37  49
  -4   9   7 57038.1 1890.36  48
   4  -9  -6 7424.99 610.994  49
  -4   9   6 6688.28 644.365  48
   4  -9  -5 85986.4 2234.72  49
  -4   9   5 83857.0 2399.45  48
  -4   9   4 4240.81 495.966  30
   4  -9  -4 4102.70 457.186  49
  -4   9   4 3675.35 463.381  48
  -4   9   3 45895.8 1716.60  30
   4  -9  -3 43074.3 1425.32  49
  -4   9   3 43826.3 1595.01  48
   4  -9  -2 16018.4 795.053  52
  -4   9   2 14273.2 931.669  30
   4  -9  -2 15543.9 762.064  49
  -4   9   2 15493.5 889.215  48
   4  -9  -1 27083.9 1022.75  52
  -4   9   1 27223.3 1286.14  30
  -4   9   1 26834.4 1133.48  48
   4  -9   0 102722. 2180.35  52
  -4   9   0 105696. 2398.89  48
  -4   9  -1 451.102 174.110  48
   4  -9   1 583.981 179.479  44
   4  -9   2 63377.2 1547.49  31
  -4   9  -2 58621.2 1477.78  48
   4  -9   3 8983.04 475.348  31
  -4   9  -3 8756.14 447.467  48
   5  -9  -7 35364.4 904.763  52
   5  -9  -7 35403.3 987.684  49
  -5   9   7 33873.5 1026.43  48
   5  -9  -6 81769.2 1751.84  49
  -5   9   6 80668.6 1853.94  48
   5  -9  -5 1411.25 203.892  49
  -5   9   5 973.759 200.890  48
   5  -9  -4 63876.3 1422.34  49
  -5   9   4 69793.0 1698.41  48
   5  -9  -3 7400.20 433.160  52
  -5   9   3 7164.65 470.331  48
   5  -9  -2 28226.7 834.761  52
  -5   9   2 26983.3 923.353  48
  -5   9   1 27144.1 871.009  48
  -5   9   0 14175.1 557.878  48
   4  10  10 4624.97 343.070  42
   4  10   9 39694.1 1213.89  42
   4  10   8 69.1382 97.0140  51
   4  10   8 91.6496 158.442  42
  -4 -10  -8 48.9478 115.984  40
   4  10   7 51711.4 1345.62  51
  -4 -10  -7 54021.1 1661.60  40
   4  10   6 11870.3 620.758  51
   4  10   6 14249.1 787.110  42
  -4 -10  -6 13058.6 832.822  40
   4  10   5 32696.3 1100.10  51
   4  10   5 36766.6 1300.32  42
  -4 -10  -5 36367.9 1448.42  40
   4  10   4 35488.6 1163.58  51
   4  10   4 35260.4 1247.70  42
  -4 -10  -4 37472.6 1485.02  40
   4  10   3 346.780 149.965  36
   4  10   3 293.090 175.597  51
   4  10   3 345.375 170.898  42
  -4 -10  -3 552.894 245.343  40
   4  10   2 87345.8 1900.42  36
   4  10   2 88856.2 2009.16  51
   4  10   2 84241.6 1923.69  42
  -4 -10  -2 86505.5 2224.72  40
   4  10   1 8932.75 499.606  36
  -4 -10  -1 8461.02 568.589  40
   4  10   0 21668.4 741.837  36
  -4 -10   0 18867.3 737.762  40
   4  10  -1 33118.2 889.456  36
  -3 -10 -12 14234.9 588.250  35
  -3 -10 -11 13213.4 647.630  35
   3  10  11 13630.4 697.386  30
   3  10  11 14023.9 681.000  42
  -3 -10 -10 58568.0 1591.74  35
   3  10  10 62938.8 1747.57  30
   3  10  10 61756.8 1740.10  42
  -3 -10  -9 324.282 157.624  35
   3  10   9 235.979 165.580  30
   3  10   9 130.271 197.200  42
  -3 -10  -9-3.22869 140.612  40
   3  10   8 55890.6 1700.70  30
   3  10   8 54004.6 1800.76  42
  -3 -10  -8 53800.0 1855.63  40
   3  10   7 4520.30 398.716  51
   3  10   7 4767.63 560.711  42
  -3 -10  -7 5203.95 611.294  40
   3  10   6 42764.2 1348.34  51
   3  10   6 45485.5 1698.50  42
  -3 -10  -6 47816.9 1893.42  40
   3  10   5 20313.0 920.230  51
   3  10   5 23262.0 1193.42  42
  -3 -10  -5 22757.1 2517.40  24
  -3 -10  -5 22944.3 1336.11  40
   3  10   4 3286.03 384.944  51
   3  10   4 3649.21 503.537  42
  -3 -10  -4 3334.05 523.131  40
  -3 -10  -4 2903.11 945.350  24
   3  10   3 54176.8 1638.57  51
   3  10   3 61969.7 1960.92  42
  -3 -10  -3 58022.0 3918.91  24
  -3 -10  -3 61953.8 2168.17  40
   3  10   2 4423.53 401.448  36
   3  10   2 3362.95 408.824  51
   3  10   2 3934.67 479.704  42
  -3 -10  -2 4589.61 577.264  40
   3  10   1 17886.2 780.807  36
   3  10   1 17445.8 870.233  51
   3  10   1 18256.5 951.984  42
  -3 -10  -1 17585.1 1016.35  40
   3  10   0 3670.50 344.227  36
   3  10   0 3664.65 420.047  42
  -3 -10   0 4158.32 459.772  40
   3  10  -1 36729.1 1080.95  36
  -3 -10   1 35688.2 1232.35  31
   3  10  -1 37376.5 1217.58  42
  -3 -10   1 34834.4 1148.70  40
   3  10  -2 87258.2 1755.32  36
  -3 -10   2 80700.5 1987.07  31
  -3 -10   3 674.813 171.889  31
   3  10  -4 28403.6 879.118  47
  -2 -10 -13 1785.03 249.043  35
   2  10  13 1988.49 272.943  30
   2  10  13 1764.25 249.067  39
  -2 -10 -12 30552.2 1126.17  35
   2  10  12 31265.4 1219.12  30
   2  10  12 30039.2 1176.88  39
  -2 -10 -11 39543.7 1383.07  35
   2  10  11 40810.8 1526.07  30
   2  10  11 38275.9 1274.33  42
   2  10  11 38921.0 1480.94  39
  -2 -10 -10 13447.2 811.997  35
   2  10  10 13976.3 922.154  30
   2  10  10 14616.5 842.042  42
   2  10  10 14747.7 936.681  39
  -2 -10  -9 80704.0 2199.84  35
   2  10   9 80569.8 2412.16  30
   2  10   9 80723.0 2304.50  42
  -2 -10  -9 83931.4 2357.69  40
   2  10   9 81873.7 2440.28  39
  -2 -10  -8 236.848 186.804  35
   2  10   8 122.411 211.189  30
   2  10   8 303.549 258.347  42
  -2 -10  -8-22.9694 226.835  40
  -2 -10  -8-166.394 456.460  24
   2  10   8 220.676 214.716  39
   2  10   7 102451. 5034.14  18
   2  10   7 100280. 2796.37  30
   2  10   7 107005. 2858.77  42
  -2 -10  -7 102584. 5444.26  24
  -2 -10  -7 110270. 3054.79  40
   2  10   7 106800. 2854.68  39
   2  10   6 43462.4 3179.62  18
   2  10   6 47343.6 1761.71  30
   2  10   6 47325.6 1813.42  42
  -2 -10  -6 46417.9 3708.25  24
  -2 -10  -6 48993.8 1977.55  40
   2  10   6 46848.4 1734.21  39
   2  10   5 32231.2 1387.50  30
   2  10   5 32412.3 1492.86  42
  -2 -10  -5 30995.8 3053.05  24
  -2 -10  -5 31010.4 1580.16  40
   2  10   4 60681.8 1724.77  51
   2  10   4 67639.9 2216.81  42
  -2 -10  -4 66370.2 4424.67  24
  -2 -10  -4 68818.2 2383.60  40
   2  10   3 1632.08 285.066  51
   2  10   3 1204.44 365.019  42
  -2 -10  -3 1656.28 435.900  40
  -2 -10  -3 2377.92 888.245  24
   2  10   2 74825.4 2010.95  51
   2  10   2 78632.4 2402.16  42
  -2 -10  -2 75958.5 4570.84  24
  -2 -10  -2 80645.5 2509.06  40
   2  10   1 18492.7 1088.48  42
  -2 -10  -1 16398.1 1977.44  24
  -2 -10  -1 17641.4 1077.58  40
  -2 -10   0 51285.2 1754.18  31
   2  10   0 53927.0 1862.53  42
  -2 -10   0 53423.7 1818.48  40
  -2 -10   1 85689.9 2360.18  31
   2  10  -1 87193.5 2367.46  42
  -2 -10   1 83021.2 2173.56  40
  -2 -10   2 5224.35 528.640  31
   2  10  -2 5868.13 540.647  42
  -2 -10   3 71194.5 2003.18  31
   2  10  -3 73176.3 1870.54  42
  -2 -10   4 8838.12 594.152  31
   2  10  -4 7732.09 531.106  47
  -2 -10   5 38794.3 1156.78  31
   2  10  -5 39096.7 1116.93  47
  -1 -10 -14 537.194 139.834  35
   1  10  14 578.971 168.858  39
  -1 -10 -13 52308.0 1493.72  35
   1  10  13 50901.6 1537.36  30
   1  10  13 50486.4 1624.42  39
  -1 -10 -12 31455.3 1217.17  35
   1  10  12 30871.0 1306.37  30
   1  10  12 30372.7 1352.74  39
   1  10  11 8699.73 749.712  30
  -1 -10 -11 7733.35 689.179  29
   1  10  11 8068.84 748.644  39
   1  10  10 55702.9 2021.78  30
  -1 -10 -10 51887.3 1977.64  29
   1  10  10 52333.7 1597.92  42
   1  10  10 52200.8 1997.25  39
   1  10   9 3875.90 1052.01  18
   1  10   9 4222.80 586.680  30
  -1 -10  -9 4505.17 613.964  29
   1  10   9 4599.43 507.953  42
  -1 -10  -9 4354.34 517.894  40
  -1 -10  -9 3197.03 877.752  24
   1  10   9 4041.61 602.574  39
   1  10   8 84908.7 4908.50  18
   1  10   8 85902.2 2667.22  30
  -1 -10  -8 88110.9 2801.36  29
   1  10   8 85898.9 2436.63  42
  -1 -10  -8 87056.4 2536.88  40
  -1 -10  -8 82395.1 4615.12  24
   1  10   8 82621.5 2659.24  39
   1  10   7 37381.4 3262.39  18
   1  10   7 37424.4 1691.93  30
   1  10   7 38221.4 1576.31  42
  -1 -10  -7 38280.7 1637.37  40
  -1 -10  -7 38984.8 3197.40  24
   1  10   7 36756.1 1701.36  39
   1  10   6 46379.4 3609.30  18
  -1 -10  -6 49655.4 1881.15  52
   1  10   6 48680.2 1914.63  30
   1  10   6 49968.1 1856.03  42
  -1 -10  -6 50269.6 1902.80  40
  -1 -10  -6 46890.5 3582.62  24
   1  10   6 48298.6 1951.02  39
   1  10   5 55849.7 3909.85  18
  -1 -10  -5 55427.1 2058.65  52
   1  10   5 56830.6 2040.73  30
   1  10   5 57312.6 2033.97  42
  -1 -10  -5 56374.1 3962.80  24
   1  10   5 55229.7 2082.45  39
   1  10   4 20671.0 2303.90  18
  -1 -10  -4 19251.0 1202.71  52
   1  10   4 20857.8 1178.63  30
  -1 -10  -4 20026.9 1072.10  44
   1  10   4 20296.9 1181.09  42
  -1 -10  -4 20497.3 2359.94  24
   1  10   4 20480.5 1197.40  39
   1  10   3 91689.8 4806.99  18
  -1 -10  -3 96314.6 2881.59  52
   1  10   3 89849.1 2582.53  30
  -1 -10  -3 88225.9 2586.09  44
   1  10   3 95085.0 2739.19  42
  -1 -10  -3 91041.9 4996.32  24
   1  10   3 91321.6 2643.74  39
  -1 -10  -2 1067.55 257.259  31
   1  10   2 858.865 240.201  30
  -1 -10  -2 718.702 271.756  44
   1  10   2 1485.19 383.981  42
  -1 -10  -2 1006.34 356.011  40
  -1 -10  -2 1297.15 683.984  24
  -1 -10  -1 54849.8 1859.03  31
   1  10   1 56637.1 2053.30  42
  -1 -10  -1 56497.0 1968.03  40
  -1 -10   0 46421.8 1730.43  31
   1  10   0 49072.9 1882.03  42
  -1 -10   0 46944.6 1694.26  40
  -1 -10   1 29149.5 1348.01  31
   1  10  -1 31424.4 1443.87  42
  -1 -10   1 27705.8 1185.44  40
  -1 -10   2 53442.8 1856.52  31
   1  10  -2 54006.6 1881.65  42
  -1 -10   3 6250.25 603.457  31
   1  10  -3 5847.97 518.483  47
   1  10  -3 6376.03 592.961  42
  -1 -10   4 91400.6 2302.55  31
   1  10  -4 83676.7 2080.53  47
   1  10  -4 87136.0 2175.26  42
  -1 -10   5 8730.53 579.564  31
   1  10  -5 7507.71 498.210  47
   1  10  -5 7124.75 457.638  42
  -1 -10   6 41819.0 1132.23  31
   0 -10 -14 47065.0 1224.53  35
   0  10  14 43986.3 1266.49  39
   0  10  13 14091.5 779.219  50
   0  10  13 15666.0 751.334  30
   0 -10 -13 15115.7 788.943  29
   0  10  13 16272.2 877.939  39
   0  10  12 22976.8 1117.01  50
   0  10  12 23764.6 1098.36  30
   0 -10 -12 22685.1 1115.25  29
   0  10  12 25456.7 1250.55  39
   0  10  11 35934.7 1514.09  50
   0  10  11 40571.8 1609.63  30
   0 -10 -11 39125.7 1616.69  29
   0  10  11 41182.3 1730.79  39
   0  10  10 9641.97 786.063  50
   0  10  10 11967.8 916.756  30
   0 -10 -10 10373.4 885.759  29
   0  10  10 11075.5 959.728  39
   0  10   9 83096.2 4896.49  18
   0  10   9 69321.0 2243.75  50
   0 -10  -9 66746.2 2067.58  49
   0  10   9 80899.8 2580.59  30
   0 -10  -9 78259.4 2567.24  29
   0 -10  -9 72866.6 3965.85  24
   0  10   9 77170.8 2618.60  39
   0  10   8 1444.19 719.697  18
   0 -10  -8 929.292 236.898  52
   0  10   8 622.021 259.603  50
   0 -10  -8 543.283 253.270  49
   0  10   8 1299.18 368.555  30
   0 -10  -8 1256.46 385.533  29
   0 -10  -8 1109.59 546.720  24
   0  10   8 890.111 379.265  39
   0  10   7 73229.7 4719.11  18
   0 -10  -7 65788.7 2042.86  52
   0 -10  -7 67075.5 2229.17  49
   0  10   7 70002.9 2432.21  30
   0 -10  -7 69756.1 2418.42  29
   0  10   7 67633.2 2030.74  42
   0  10   7 71593.7 2515.73  39
   0  10   6 41549.4 3515.22  18
   0 -10  -6 37300.1 1536.53  52
   0 -10  -6 39110.4 1684.12  49
   0  10   6 39758.9 1785.61  30
   0 -10  -6 38177.9 1722.02  29
   0  10   6 37841.6 1519.69  42
   0  10   6 39371.5 1828.35  39
   0  10   5 61313.0 4272.09  18
   0 -10  -5 63130.2 2107.22  52
   0 -10  -5 65349.1 2271.40  49
   0  10   5 63749.5 2274.75  30
   0 -10  -5 60281.2 2172.10  29
   0 -10  -5 64501.4 1964.17  44
   0  10   5 62135.6 2053.77  42
   0  10   5 64853.1 2350.14  39
   0  10   4 105660. 5602.45  18
   0 -10  -4 103238. 2863.08  52
   0 -10  -4 103561. 2994.14  49
   0  10   4 106910. 3006.21  30
   0 -10  -4 101130. 2713.81  44
   0  10   4 100563. 2779.33  42
   0 -10  -4 106236. 5247.26  24
   0  10   4 103632. 3038.92  39
   0  10   3 21890.4 2447.28  18
   0 -10  -3 21563.0 1212.82  52
   0 -10  -3 21361.1 998.955  31
   0  10   3 20516.5 1208.31  30
   0 -10  -3 21953.4 1175.79  44
   0  10   3 21957.0 1209.35  42
   0 -10  -3 20917.6 2268.27  24
   0  10   3 22551.8 1296.28  39
   0  10   2 87689.7 4913.65  18
   0 -10  -2 88762.8 2654.68  52
   0 -10  -2 85031.1 2306.98  31
   0  10   2 83867.0 2560.54  30
   0 -10  -2 85412.3 2556.24  44
   0  10   2 86354.7 2589.79  42
   0 -10  -2 82953.3 4453.25  24
   0 -10  -1 4140.54 488.313  31
   0 -10  -1 4271.98 585.414  52
   0  10   1 3667.56 493.565  30
   0 -10  -1 4333.26 584.562  44
   0  10   1 4001.30 565.910  42
   0 -10  -1 4581.98 968.441  24
   0 -10   0 104931. 2872.81  52
   0 -10   0 100578. 2656.95  31
   0  10   0 97562.2 2681.26  30
   0 -10   0 102524. 2922.97  44
   0  10   0 101309. 2901.59  42
   0 -10   1 64224.6 2058.34  31
   0  10  -1 61909.6 1923.60  30
   0 -10   1 61845.1 2192.47  44
   0  10  -1 64382.3 2221.24  42
   0 -10   2 8429.62 707.604  31
   0  10  -2 8100.20 588.354  47
   0  10  -2 9004.14 788.098  42
   0 -10   3 45186.5 1624.54  31
   0  10  -3 41503.3 1381.32  47
   0  10  -3 45312.3 1699.06  42
   0 -10   4 546.316 243.845  31
   0  10  -4 240.897 139.498  47
   0  10  -4 653.660 259.816  42
   0 -10   5 90888.8 2114.54  31
   0  10  -5 87074.5 2086.41  42
   0 -10   6 19810.2 751.251  31
  -1  10  13 54512.1 1649.28  50
   1 -10 -13 55823.7 1590.62  29
  -1  10  13 53591.0 1484.48  39
  -1  10  12 49394.0 1734.97  50
  -1  10  12 49041.4 1443.12  30
   1 -10 -12 53747.5 1716.95  29
  -1  10  12 50822.8 1651.20  39
  -1  10  11 40437.3 1669.65  50
  -1  10  11 40140.8 1451.72  30
   1 -10 -11 41849.2 1617.46  29
  -1  10  11 42430.4 1649.67  39
  -1  10  10 72162.2 2368.72  50
   1 -10 -10 66718.3 1892.87  49
  -1  10  10 73330.7 2207.89  30
   1 -10 -10 74787.2 2337.50  29
  -1  10  10 76609.4 2443.15  39
  -1  10   9 556.414 313.906  50
   1 -10  -9 545.901 249.633  49
  -1  10   9 1086.77 336.661  30
   1 -10  -9 689.601 306.018  29
  -1  10   9 636.763 329.169  39
  -1  10   8 148893. 6524.62  18
   1 -10  -8 136467. 3015.12  52
  -1  10   8 140850. 3618.06  50
   1 -10  -8 147107. 3395.52  49
  -1  10   8 150201. 3654.03  30
   1 -10  -8 141549. 3524.84  29
  -1  10   8 153151. 3874.98  39
  -1  10   7 45770.3 3640.70  18
   1 -10  -7 42859.8 1540.96  52
  -1  10   7 42708.2 1814.45  50
  -1  10   7 45073.1 1868.78  30
   1 -10  -7 46393.8 1777.43  49
   1 -10  -7 43353.5 1748.64  29
  -1  10   7 48907.4 2028.28  39
  -1  10   6 37699.1 3317.82  18
   1 -10  -6 34881.9 1417.22  52
  -1  10   6 36349.4 1670.63  30
   1 -10  -6 36633.9 1606.65  49
   1 -10  -6 34078.4 1507.57  29
  -1  10   6 36013.4 1741.54  39
  -1  10   5 59239.6 4209.79  18
   1 -10  -5 54042.2 1866.24  52
  -1  10   5 55024.9 2107.08  30
   1 -10  -5 59286.3 2081.28  49
   1 -10  -5 52610.2 1847.10  29
  -1  10   5 53507.7 1767.61  42
  -1  10   5 56091.5 2214.03  39
  -1  10   4 22474.3 2596.24  18
   1 -10  -4 23617.9 1216.79  52
   1 -10  -4 23806.6 1002.53  31
  -1  10   4 23332.9 1337.30  30
   1 -10  -4 23964.2 1294.87  49
  -1  10   4 22143.5 1131.65  42
  -1  10   4 23079.1 1385.12  39
  -1  10   3 138286. 6501.47  18
   1 -10  -3 139898. 3334.54  52
   1 -10  -3 132891. 2945.16  31
  -1  10   3 134954. 3508.57  30
   1 -10  -3 130541. 3355.60  49
   1 -10  -3 137002. 3300.65  44
  -1  10   3 127157. 3210.75  42
  -1  10   3 132764. 3588.01  39
   1 -10  -2 541.657 297.825  52
   1 -10  -2 991.910 265.100  31
   1 -10  -2 155.465 242.654  49
  -1  10   2 857.274 291.792  30
   1 -10  -2 887.152 337.478  44
  -1  10   2 1140.16 333.340  42
   1 -10  -1 102478. 2735.77  52
   1 -10  -1 101062. 2557.11  31
  -1  10   1 97666.7 2846.26  30
   1 -10  -1 99304.2 2781.70  44
  -1  10   1 96290.5 2755.12  42
   1 -10   0 36030.5 1486.24  52
   1 -10   0 37304.1 1460.59  31
  -1  10   0 36257.0 1579.17  30
   1 -10   0 36684.1 1589.16  44
  -1  10   0 36090.3 1587.60  42
   1 -10   1 17897.9 989.743  52
   1 -10   1 19513.9 1036.99  31
  -1  10  -1 17541.3 1043.30  30
   1 -10   1 18819.9 1112.37  44
  -1  10  -1 18728.0 1121.37  42
   1 -10   2 33905.4 1368.94  31
  -1  10  -2 31844.1 1335.13  30
   1 -10   2 32198.6 1419.47  44
   1 -10   2 31984.7 1122.16  43
  -1  10  -2 33306.3 1481.09  42
   1 -10   3 584.140 239.385  31
   1 -10   3 686.633 180.879  43
  -1  10  -3 867.308 308.033  42
   1 -10   4 79438.2 2026.11  31
   1 -10   4 73204.3 1744.23  43
  -1  10  -4 79866.8 2154.25  42
   1 -10   5 4168.79 382.610  31
   1 -10   5 3507.62 296.241  43
  -1  10  -5 4042.92 401.428  42
   2 -10 -13 1338.54 215.561  29
   2 -10 -12 41422.0 1341.63  29
  -2  10  11 26069.9 1234.38  50
   2 -10 -11 23238.9 869.951  49
   2 -10 -11 25931.3 1122.89  29
  -2  10  11 23360.0 981.773  39
  -2  10  10 20365.0 1160.86  50
  -2  10  10 20960.1 943.366  30
   2 -10 -10 19125.2 897.283  49
   2 -10 -10 19872.0 1037.32  29
  -2  10  10 19232.7 995.516  39
   2 -10  -9 46737.7 1347.70  52
  -2  10   9 49087.8 1658.40  30
   2 -10  -9 50075.5 1630.45  49
   2 -10  -9 47196.0 1678.41  29
  -2  10   9 49223.6 1765.20  39
   2 -10  -8 3714.74 394.805  52
  -2  10   8 4030.17 504.221  30
   2 -10  -8 4301.29 509.818  49
   2 -10  -8 3467.69 448.762  29
  -2  10   8 3404.94 496.464  39
  -2  10   7 82502.9 4513.97  18
   2 -10  -7 82519.2 2131.55  52
  -2  10   7 80864.2 2423.89  30
   2 -10  -7 86830.0 2431.01  49
   2 -10  -7 77044.1 2206.89  29
  -2  10   7 81327.6 2518.83  39
  -2  10   6 3034.22 871.531  18
   2 -10  -6 4373.64 490.859  52
  -2  10   6 4539.21 573.934  30
   2 -10  -6 4857.65 594.805  49
  -2  10   6 4731.55 615.300  39
   2 -10  -5 60365.6 1867.99  52
  -2  10   5 58879.8 2096.81  30
   2 -10  -5 57028.6 1944.81  49
  -2  10   5 56250.5 2112.58  39
   2 -10  -4 149466. 3327.34  52
  -2  10   4 148449. 3665.21  30
   2 -10  -4 147592. 3434.64  49
   2 -10  -3 523.717 301.962  52
   2 -10  -3 507.566 257.867  49
  -2  10   3 358.791 293.902  30
   2 -10  -2 82160.4 2270.73  52
  -2  10   2 82045.2 2561.55  30
   2 -10  -2 78074.8 2237.25  49
  -2  10   2 80456.5 2303.66  42
   2 -10  -1 3232.57 439.390  52
   2 -10  -1 2771.87 390.575  49
  -2  10   1 3187.23 499.482  30
   2 -10  -1 3504.27 499.001  44
  -2  10   1 3103.82 450.211  42
   2 -10   0 80803.1 2160.91  52
   2 -10   0 88024.4 2223.24  31
  -2  10   0 85471.5 2523.12  30
   2 -10   0 81177.6 2328.77  44
  -2  10   0 77074.2 2322.96  42
   2 -10   1 40446.8 1388.43  52
   2 -10   1 44871.0 1493.71  31
  -2  10  -1 44718.2 1681.53  30
   2 -10   1 43184.9 1570.01  44
  -2  10  -1 41433.4 1599.29  42
   2 -10   2 13951.2 786.851  31
  -2  10  -2 14299.1 863.716  30
   2 -10   2 13216.0 808.784  44
  -2  10  -2 13449.3 853.087  42
   2 -10   3 84662.4 2042.60  31
   2 -10   3 78936.5 2032.22  44
  -2  10  -3 79154.2 2139.86  42
   2 -10   4 4905.77 406.014  31
   2 -10   4 4087.26 331.799  43
  -2  10  -4 4033.92 410.113  42
   2 -10   5 46350.3 1175.48  31
   3 -10 -11 17574.2 634.741  49
   3 -10 -11 19391.7 743.977  29
   3 -10 -10 40766.3 1214.67  49
  -3  10  10 39873.0 1201.27  48
   3 -10 -10 39813.3 1217.49  29
   3 -10  -9 2371.10 250.155  52
   3 -10  -9 2766.25 347.700  49
  -3  10   9 2612.49 335.473  48
   3 -10  -9 2544.93 307.900  29
   3 -10  -8 73417.3 1770.60  52
   3 -10  -8 78961.1 2039.19  49
  -3  10   8 74321.6 1973.81  48
   3 -10  -7 8984.04 587.155  52
  -3  10   7 9170.07 659.655  30
   3 -10  -7 8829.28 656.714  49
  -3  10   7 9028.73 641.936  48
   3 -10  -6 60335.1 1681.29  52
  -3  10   6 58538.4 1862.26  30
   3 -10  -6 58161.7 1782.82  49
  -3  10   6 55473.8 1717.66  48
   3 -10  -5 51332.2 1556.14  52
  -3  10   5 47442.5 1716.43  30
   3 -10  -5 48170.3 1592.12  49
  -3  10   5 48074.7 1563.36  48
   3 -10  -4 5217.59 490.772  52
  -3  10   4 4932.83 547.749  30
   3 -10  -4 4680.41 499.475  49
  -3  10   4 4726.25 454.583  48
   3 -10  -3 90082.2 2205.99  52
  -3  10   3 91627.2 2542.58  30
   3 -10  -3 89438.4 2248.13  49
  -3  10   3 91320.2 2204.96  48
   3 -10  -2 2502.48 354.287  52
   3 -10  -2 1920.05 293.648  49
  -3  10   2 2658.19 427.669  30
  -3  10   2 2258.01 301.587  48
   3 -10  -1 50376.0 1501.99  52
  -3  10   1 53177.6 1824.03  30
  -3  10   1 51306.8 1435.53  48
   3 -10  -1 54257.6 1677.06  44
   3 -10   0 13745.5 704.522  52
  -3  10   0 15273.6 911.557  30
  -3  10   0 13807.5 639.198  48
   3 -10   0 15452.0 825.958  44
   3 -10   1 60194.8 1464.50  52
   3 -10   1 64849.2 1644.17  31
  -3  10  -1 59148.8 1367.90  48
   3 -10   1 59950.9 1665.54  44
  -3  10  -1 54763.3 1536.39  42
   3 -10   2 72915.0 1692.72  31
   3 -10   2 68332.8 1663.64  44
   3 -10   3 3363.87 306.695  31
   4 -10  -9 51747.2 1242.56  49
   4 -10  -8 1694.16 195.239  52
   4 -10  -8 1478.10 228.274  49
  -4  10   8 1500.66 208.487  48
   4 -10  -7 34745.5 1010.11  52
   4 -10  -7 34175.5 1114.54  49
  -4  10   7 34666.7 1096.73  48
   4 -10  -6 30541.5 981.868  52
   4 -10  -6 30378.2 1037.98  49
  -4  10   6 27749.4 1005.64  48
   4 -10  -5 29187.5 974.506  52
   4 -10  -5 26861.1 978.096  49
  -4  10   5 27300.7 1001.83  48
   4 -10  -4 56690.4 1448.12  52
   4 -10  -4 53196.2 1422.83  49
  -4  10   4 55472.0 1484.92  48
   4 -10  -3 831.024 195.377  52
   4 -10  -3 790.899 161.627  49
  -4  10   3 604.717 168.506  48
   4 -10  -2 72258.5 1649.22  52
  -4  10   2 73084.8 1669.06  48
   4 -10  -1 18751.8 696.478  52
  -4  10   1 18679.6 697.653  48
   4 -10  -1 20338.5 791.339  44
  -4  10   0 31429.0 865.764  48
   4 -10   0 32018.4 949.308  44
   4 -10   1 48154.3 1160.72  31
   4  11   6 40406.9 1066.24  42
  -4 -11  -6 38938.8 1084.40  40
   4  11   5 2103.73 229.288  42
  -4 -11  -5 2211.78 257.938  40
  -4 -11  -4 20696.0 785.554  40
  -4 -11  -3 42017.6 1127.07  40
   3  11  10 28926.2 869.857  42
   3  11   9 29711.6 990.286  42
   3  11   8 11531.2 643.155  42
  -3 -11  -8 10750.7 604.666  40
   3  11   7 47596.9 1433.76  42
  -3 -11  -7 45383.3 1462.16  40
   3  11   6 256.944 201.520  42
  -3 -11  -6 302.503 211.528  40
   3  11   5 33430.0 1208.64  42
  -3 -11  -5 33187.4 1296.19  40
   3  11   4 18110.9 871.961  42
  -3 -11  -4 18277.8 946.087  40
   3  11   3 16161.0 811.884  42
  -3 -11  -3 16152.3 867.546  40
   3  11   2 38529.5 1251.70  42
  -3 -11  -2 36605.2 1271.02  40
   3  11   1 854.132 192.357  42
  -3 -11  -1 928.382 202.545  40
   3  11   0 30380.0 923.511  42
  -2 -11 -11 51729.8 1251.84  35
   2  11  11 54473.3 1443.55  30
  -2 -11 -10 16185.2 674.111  35
   2  11  10 17413.1 824.702  30
   2  11  10 15647.6 700.166  42
   2  11  10 15882.1 747.345  39
   2  11   9 36538.0 1287.44  30
   2  11   9 37140.7 1237.48  42
  -2 -11  -9 36704.1 1218.03  40
   2  11   9 37209.4 1252.21  39
   2  11   8 28801.8 1155.80  30
   2  11   8 29338.9 1153.69  42
  -2 -11  -8 27987.4 1176.65  40
   2  11   8 29546.3 1120.75  39
   2  11   7 4168.77 438.736  30
   2  11   7 4858.45 492.726  42
  -2 -11  -7 4491.44 497.236  40
   2  11   6 69969.5 1899.38  30
   2  11   6 70396.3 2019.41  42
  -2 -11  -6 72060.1 2165.57  40
   2  11   5 1354.11 329.430  42
  -2 -11  -5 1329.62 349.378  40
   2  11   4 66175.5 1983.86  42
  -2 -11  -4 67214.1 2117.93  40
   2  11   3 48371.7 1658.92  42
  -2 -11  -3 50591.0 1757.58  40
   2  11   2 4506.94 498.512  42
  -2 -11  -2 4138.57 484.358  40
   2  11   1 66781.1 1911.33  42
  -2 -11  -1 63356.5 1830.85  40
   2  11   0 1301.14 285.533  42
  -2 -11   0 1053.85 212.304  40
  -2 -11   1 70760.2 1724.12  31
   2  11  -1 73772.1 1840.04  42
  -2 -11   2 37914.4 1109.02  31
   2  11  -2 34770.1 1016.23  47
   2  11  -2 37719.2 1087.94  42
  -1 -11 -12 44089.3 1192.55  35
   1  11  12 45289.7 1320.64  30
   1  11  12 43146.7 1316.96  39
  -1 -11 -11 4297.64 375.725  35
   1  11  11 4421.31 437.708  30
   1  11  11 4121.27 441.901  39
  -1 -11 -10 50622.7 1441.48  35
   1  11  10 50905.4 1653.43  30
   1  11  10 48630.7 1627.18  39
  -1 -11  -9 36299.1 1192.27  35
   1  11   9 34562.3 1376.68  30
   1  11   9 32457.5 1143.27  42
  -1 -11  -9 32831.2 1223.45  40
   1  11   9 32953.8 1359.29  39
   1  11   8 7051.03 627.978  30
   1  11   8 7644.75 576.927  42
  -1 -11  -8 7739.82 627.615  40
   1  11   8 7301.62 644.250  39
   1  11   7 64535.1 2008.46  30
   1  11   7 65569.1 1918.10  42
  -1 -11  -7 65568.2 2017.94  40
   1  11   7 62939.7 2016.63  39
   1  11   6 2268.13 390.544  30
   1  11   6 2002.78 364.529  42
  -1 -11  -6 2318.16 424.903  40
  -1 -11  -6 2125.70 703.762  24
   1  11   6 2351.10 401.666  39
   1  11   5 35336.2 1441.17  30
   1  11   5 37805.6 1485.29  42
  -1 -11  -5 40221.3 3078.41  24
  -1 -11  -5 39515.2 1587.57  40
   1  11   5 36417.9 1476.75  39
   1  11   4 19099.0 1007.87  30
   1  11   4 19591.9 1070.11  42
  -1 -11  -4 20220.6 2195.52  24
  -1 -11  -4 21397.8 1159.26  40
   1  11   3 32059.8 1275.62  30
   1  11   3 30632.6 1370.36  42
  -1 -11  -3 31132.4 2641.97  24
  -1 -11  -3 32933.3 1428.17  40
   1  11   2 44773.4 1666.39  42
  -1 -11  -2 44545.3 1627.19  40
  -1 -11  -1 837.680 208.214  31
   1  11   1 818.968 325.756  42
  -1 -11  -1 836.692 254.918  40
  -1 -11   0 70963.0 1954.52  31
   1  11   0 74949.5 2146.73  42
  -1 -11   0 70710.6 1885.92  40
  -1 -11   1 10388.9 668.477  31
   1  11  -1 8705.61 514.758  47
   1  11  -1 9707.55 690.640  42
  -1 -11   2 39793.3 1295.37  31
   1  11  -2 39158.1 1316.06  42
  -1 -11   3 39219.4 1182.53  31
   1  11  -3 36890.9 1124.09  42
  -1 -11   4 11970.7 537.609  31
   0 -11 -12 3348.68 315.175  35
   0  11  12 3526.44 344.286  30
   0  11  12 3505.78 380.624  39
   0  11  11 47438.2 1496.18  30
   0 -11 -11 45741.4 1523.07  29
   0  11  11 47207.7 1572.85  39
   0  11  10 21618.8 1057.95  30
   0 -11 -10 20025.1 1053.77  29
   0  11  10 20439.4 1071.85  39
   0  11   9 32010.3 1365.48  30
   0 -11  -9 31144.0 1374.93  29
   0 -11  -9 30181.3 1141.58  40
   0  11   9 32616.0 1417.21  39
   0 -11  -8 51962.3 1584.92  52
   0  11   8 56325.1 1923.36  30
   0 -11  -8 52915.9 1665.92  40
   0  11   8 54797.8 1931.30  39
   0 -11  -7 2281.94 356.860  52
   0  11   7 2159.40 417.202  30
   0  11   7 2808.01 365.944  42
   0 -11  -7 1685.84 589.625  24
   0  11   7 2676.02 459.154  39
   0 -11  -6 71063.9 2120.04  52
   0  11   6 71030.7 2240.42  30
   0  11   6 67946.8 1969.39  42
   0 -11  -6 75702.0 4140.76  24
   0  11   6 66786.8 2213.66  39
   0 -11  -5 11929.7 865.377  52
   0  11   5 12714.5 899.906  30
   0 -11  -5 11367.0 725.362  44
   0  11   5 11505.0 789.430  42
   0 -11  -5 12981.9 1727.82  24
   0  11   5 11817.9 887.274  39
   0 -11  -4 64433.3 2108.26  52
   0  11   4 60548.7 2015.56  30
   0 -11  -4 60712.9 1909.40  44
   0  11   4 59535.2 1939.31  42
   0 -11  -4 60926.6 3719.65  24
   0 -11  -3 30285.2 1440.03  52
   0  11   3 28358.2 1313.96  30
   0 -11  -3 30330.1 1334.54  44
   0  11   3 27971.3 1296.91  42
   0 -11  -3 28759.4 2440.24  24
   0 -11  -2 14683.7 801.844  31
   0 -11  -2 15553.7 1012.19  52
   0  11   2 14202.6 889.914  30
   0 -11  -2 14956.7 947.566  44
   0  11   2 15004.0 946.984  42
   0 -11  -1 82129.0 2181.27  31
   0  11   1 79439.7 2203.89  30
   0 -11  -1 85943.9 2440.43  44
   0  11   1 82765.9 2377.84  42
   0 -11  -1 84462.1 2219.36  40
   0 -11   0 1751.55 316.977  31
   0  11   0 2174.24 318.460  30
   0  11   0 2008.20 391.023  42
   0 -11   0 1666.19 279.000  40
   0 -11   1 64059.6 1847.57  31
   0  11  -1 64656.5 1955.64  42
   0 -11   2 9612.17 641.299  31
   0  11  -2 9466.47 662.662  42
   0 -11   3 27171.7 1021.30  31
   0  11  -3 27350.7 1040.32  42
   0 -11   4 76765.0 1662.53  31
   0  11  -4 71748.5 1617.38  42
   1 -11 -12 64407.3 1608.56  29
  -1  11  12 64400.9 1564.37  39
  -1  11  11 11663.0 627.631  30
   1 -11 -11 12771.4 712.364  29
  -1  11  11 11995.5 706.903  39
  -1  11  10 42779.0 1425.15  30
   1 -11 -10 40526.0 1420.57  29
  -1  11  10 44415.7 1543.48  39
  -1  11   9 50919.9 1678.55  30
   1 -11  -9 47351.2 1513.78  49
   1 -11  -9 46634.5 1586.62  29
  -1  11   9 52165.4 1784.46  39
   1 -11  -8 14228.8 749.189  52
  -1  11   8 15888.4 952.421  30
   1 -11  -8 15413.3 879.180  49
   1 -11  -8 13657.0 826.557  29
  -1  11   8 15516.7 998.364  39
   1 -11  -7 121389. 2789.07  52
  -1  11   7 137577. 3225.37  30
   1 -11  -7 128768. 3051.81  49
   1 -11  -7 119566. 2837.85  29
  -1  11   7 133001. 3268.55  39
   1 -11  -6-66.8798 222.531  52
   1 -11  -6 19.3067 252.821  49
  -1  11   6 238.063 271.429  30
   1 -11  -6 325.727 191.865  44
  -1  11   6 288.577 308.360  39
   1 -11  -5 102832. 2620.05  52
  -1  11   5 104375. 2821.30  30
   1 -11  -5 101480. 2726.15  49
   1 -11  -5 100119. 2467.38  44
  -1  11   5 103055. 2862.73  39
   1 -11  -4 64301.5 2022.77  52
  -1  11   4 66389.0 2160.33  30
   1 -11  -4 64001.3 2075.61  49
   1 -11  -4 65033.9 1946.85  44
  -1  11   4 60790.5 1838.97  42
   1 -11  -4 63393.4 3474.32  24
   1 -11  -3 17249.6 1002.84  52
   1 -11  -3 15990.9 790.493  31
  -1  11   3 16428.3 1018.65  30
   1 -11  -3 17381.1 971.297  44
  -1  11   3 15746.6 908.904  42
   1 -11  -2 65361.7 2016.36  52
   1 -11  -2 63924.3 1785.84  31
  -1  11   2 67032.1 2096.56  30
   1 -11  -2 65640.7 2016.17  44
  -1  11   2 61409.5 1926.99  42
   1 -11  -1 5218.19 546.983  52
   1 -11  -1 5043.78 472.368  31
  -1  11   1 5285.79 551.339  30
   1 -11  -1 5350.20 569.175  44
  -1  11   1 5354.50 548.927  42
   1 -11   0 64752.6 1888.39  52
   1 -11   0 69306.8 1871.40  31
  -1  11   0 66066.8 1930.24  30
   1 -11   0 70507.5 2055.58  44
  -1  11   0 65654.0 1977.66  42
   1 -11   1 9322.68 624.080  31
  -1  11  -1 8855.41 599.050  30
   1 -11   1 8738.64 664.315  44
  -1  11  -1 8922.78 661.393  42
   1 -11   2 21781.0 918.754  31
  -1  11  -2 22147.8 985.908  42
   1 -11   3 35762.3 1113.17  31
  -1  11  -3 32976.8 1116.75  42
   2 -11 -11 27446.7 896.948  29
   2 -11 -10 10189.4 548.222  49
   2 -11 -10 10499.0 579.564  29
  -2  11   9 13563.1 701.607  30
   2 -11  -9 13305.5 706.315  49
   2 -11  -9 12370.5 651.715  29
  -2  11   9 13646.7 763.451  39
   2 -11  -8 77920.5 1845.92  52
  -2  11   8 85163.4 2141.59  30
   2 -11  -8 83502.2 2080.13  49
   2 -11  -8 79455.5 1876.40  29
   2 -11  -7 10493.7 633.819  52
  -2  11   7 11038.6 742.893  30
   2 -11  -7 10486.7 709.099  49
   2 -11  -7 10933.5 598.010  44
   2 -11  -6 39828.7 1349.63  52
  -2  11   6 41373.7 1525.40  30
   2 -11  -6 39797.3 1433.15  49
   2 -11  -6 39814.5 1295.84  44
   2 -11  -5 2122.78 341.772  52
   2 -11  -5 1840.72 325.476  49
  -2  11   5 1938.37 373.514  30
   2 -11  -5 2452.47 344.340  44
   2 -11  -4 69832.7 1917.23  52
   2 -11  -4 67825.1 1631.49  31
  -2  11   4 72950.9 2158.66  30
   2 -11  -4 66855.0 1931.87  49
   2 -11  -4 68926.4 1896.60  44
   2 -11  -3 30560.8 1191.36  52
   2 -11  -3 29297.2 1033.23  31
  -2  11   3 33154.9 1381.64  30
   2 -11  -3 28487.6 1161.35  49
   2 -11  -3 30317.9 1205.34  44
   2 -11  -2 31759.1 1197.88  52
   2 -11  -2 31055.8 1076.17  31
  -2  11   2 33113.9 1362.81  30
   2 -11  -2 31775.5 1240.85  44
   2 -11  -1 52113.8 1536.83  52
   2 -11  -1 51748.4 1461.43  31
   2 -11  -1 54662.1 1655.50  44
  -2  11   1 50609.5 1511.48  42
   2 -11   0 219.441 145.311  52
   2 -11   0 362.260 172.821  31
  -2  11   0 193.547 190.377  30
   2 -11   0 271.376 201.879  44
  -2  11   0 95.2864 129.790  42
   2 -11   1 53492.5 1423.03  31
   2 -11   1 54192.5 1522.11  44
   2 -11   2 17637.1 718.710  31
  -2  11  -2 15887.4 694.399  42
   2 -11   3 20344.8 697.747  31
   3 -11  -9 47387.0 1216.00  49
   3 -11  -8 5072.92 336.581  52
   3 -11  -8 4961.76 398.081  49
   3 -11  -7 56413.0 1403.89  52
  -3  11   7 55621.0 1405.21  30
   3 -11  -7 59191.1 1528.45  49
   3 -11  -7 56029.6 1355.90  44
   3 -11  -6 465.688 164.543  52
   3 -11  -6 443.942 183.342  49
  -3  11   6 488.568 158.197  30
   3 -11  -6 535.293 169.561  44
   3 -11  -5 57791.9 1498.66  52
  -3  11   5 59534.9 1628.66  30
   3 -11  -5 55896.5 1512.72  49
   3 -11  -5 58607.5 1512.80  44
   3 -11  -4 18047.6 775.622  52
   3 -11  -4 16856.0 644.768  31
  -3  11   4 18105.9 862.697  30
   3 -11  -4 16855.2 755.190  49
   3 -11  -4 18361.1 793.250  44
   3 -11  -3 27396.7 965.333  52
   3 -11  -3 26537.7 857.878  31
  -3  11   3 29913.2 1127.34  30
   3 -11  -3 29525.6 1026.23  44
   3 -11  -2 30497.5 996.036  52
   3 -11  -2 29755.5 925.291  31
  -3  11   2 32886.8 1165.81  30
   3 -11  -2 32423.4 1072.99  44
   3 -11  -1 1800.69 233.307  52
   3 -11  -1 1628.51 212.747  31
  -3  11   1 2023.94 288.310  30
   3 -11  -1 1764.74 248.504  44
   3 -11   0 55053.0 1309.51  31
   3 -11   0 54936.6 1372.03  44
   3 -11   1 2224.46 221.771  31
   3  12   6 29333.5 860.316  42
  -3 -12  -6 28125.1 858.595  40
   3  12   5 1500.12 196.565  42
  -3 -12  -5 1650.27 210.325  40
  -3 -12  -4 44142.6 1144.12  40
   2  12   8 20557.9 747.649  42
  -2 -12  -8 20710.5 751.246  40
   2  12   7 15479.6 684.599  42
  -2 -12  -7 15564.4 719.233  40
   2  12   6 20733.9 832.539  42
  -2 -12  -6 21734.2 906.489  40
   2  12   5 54626.4 1493.76  42
  -2 -12  -5 58395.7 1611.46  40
   2  12   4 116.006 131.408  42
  -2 -12  -4 92.1638 146.039  40
   2  12   3 48869.1 1380.55  42
  -2 -12  -3 49980.8 1423.85  40
   2  12   2 13727.1 657.624  42
  -2 -12  -2 13887.2 640.596  40
   2  12   1 19791.9 757.489  42
   1  12  10 134.076 104.060  30
   1  12  10 231.079 118.174  39
  -1 -12  -9 23334.5 781.564  40
   1  12   9 25192.8 913.644  39
   1  12   8 7098.16 502.932  30
   1  12   8 6903.13 432.727  42
  -1 -12  -8 6806.67 470.915  40
   1  12   8 6831.54 486.320  39
   1  12   7 17790.2 813.422  30
   1  12   7 18823.3 797.070  42
  -1 -12  -7 18870.5 867.590  40
   1  12   6 33001.0 1140.94  30
   1  12   6 33375.2 1150.17  42
   1  12   5 524.542 163.168  30
   1  12   5 742.538 205.695  42
  -1 -12  -5 545.959 223.562  40
   1  12   4 42696.9 1241.58  30
   1  12   4 42920.5 1381.23  42
   1  12   3 3016.38 371.613  42
  -1 -12  -3 2784.18 357.562  40
   1  12   2 20789.6 911.230  42
  -1 -12  -2 20610.6 876.062  40
   1  12   1 33247.6 1135.73  42
  -1 -12  -1 30378.7 971.790  40
   1  12   0 7721.81 490.358  42
   1  12  -1 31726.5 943.017  42
   0  12  11 4077.99 308.275  30
   0  12  11 3685.90 307.709  39
   0  12  10 39516.6 1177.44  30
   0  12  10 37981.8 1179.44  39
   0  12   9 2946.52 337.692  30
   0 -12  -9 2329.79 239.458  40
   0  12   9 2661.83 336.613  39
   0  12   8 34346.8 1201.39  30
   0 -12  -8 32059.2 1074.81  40
   0  12   8 31773.4 1173.15  39
   0  12   7 14321.1 776.368  30
   0 -12  -7 14316.5 747.810  40
   0  12   7 13402.7 761.448  39
   0  12   6 10229.3 666.481  30
   0  12   6 9471.16 563.995  42
   0 -12  -6 11478.8 693.984  40
   0  12   5 40088.0 1373.68  30
   0  12   5 40059.1 1298.06  42
   0 -12  -5 44025.3 1449.90  40
   0  12   4 175.064 149.103  30
   0  12   4 235.484 168.046  42
   0 -12  -4 353.176 203.442  40
   0  12   3 51776.7 1517.08  30
   0  12   3 54126.1 1583.22  42
   0 -12  -3 56072.8 1626.75  40
   0  12   2 24255.2 911.847  30
   0  12   2 24229.1 1008.17  42
   0 -12  -2 24525.7 965.426  40
   0  12   1 13938.3 590.020  30
   0  12   1 15317.9 765.891  42
   0 -12  -1 13868.6 631.569  40
   0 -12   0 39553.6 1085.95  31
   0  12   0 41626.6 1257.92  42
   0  12  -1 7800.23 471.767  42
  -1  12  10 934.970 168.603  30
  -1  12   9 44986.8 1301.63  30
  -1  12   8 13423.5 714.921  30
   1 -12  -8 11886.1 586.020  40
   1 -12  -7 67488.2 1698.21  52
  -1  12   7 76040.7 1929.00  30
   1 -12  -6 62054.1 1712.16  52
  -1  12   6 70505.3 1881.22  30
   1 -12  -5 2209.51 343.750  52
  -1  12   5 2636.07 361.984  30
   1 -12  -5 2181.94 272.344  44
   1 -12  -4 41531.7 1367.14  52
  -1  12   4 40892.8 1372.79  30
   1 -12  -4 37298.2 1221.65  44
   1 -12  -3 3419.23 386.774  52
  -1  12   3 4050.00 412.530  30
   1 -12  -3 3231.17 357.047  44
  -1  12   3 3159.65 318.602  42
  -1  12   2 51364.8 1459.19  30
   1 -12  -2 48637.6 1431.21  44
  -1  12   2 46366.6 1339.04  42
   1 -12  -2 47241.8 1297.58  40
   1 -12  -1 34944.1 1002.70  31
  -1  12   1 37725.9 1116.23  30
  -1  12   1 35093.4 1106.68  42
   1 -12   0 11246.6 517.408  31
  -1  12   0 11729.6 580.452  42
  -2  12   8 47736.1 1210.57  30
   2 -12  -7 20659.0 746.484  52
  -2  12   7 22956.8 853.772  30
   2 -12  -6 7649.67 474.191  52
   2 -12  -6 6860.35 392.864  44
   2 -12  -5 23295.1 871.273  52
   2 -12  -5 22296.7 795.866  44
   2 -12  -4 345.923 153.887  52
  -2  12   4 332.513 159.641  30
   2 -12  -4 391.749 145.161  44
   2 -12  -3 46704.9 1276.57  52
   2 -12  -3 46689.9 1273.66  44
   2 -12  -2 4177.93 333.749  52
   2 -12  -2 4050.48 271.343  31
  -2  12   2 5009.11 397.019  30
   2 -12  -2 4609.94 356.224  44
  -2  12   1 30970.0 936.486  30
   2 -12  -1 27965.4 886.099  44
   0 -13  -6 12130.7 525.965  40
   0 -13  -5 9878.22 479.170  40
   0   0   0    0.00    0.00   0
;
_shelx_hkl_checksum              15342
loop_
_space_group_symop_operation_xyz
'x, y, z'
'-x, -y, -z'
loop_
_atom_site_label
_atom_site_type_symbol
_atom_site_fract_x
_atom_site_fract_y
_atom_site_fract_z
_atom_site_U_iso_or_equiv
_atom_site_adp_type
_atom_site_occupancy
_atom_site_site_symmetry_order
_atom_site_calc_flag
_atom_site_refinement_flags_posn
_atom_site_refinement_flags_adp
_atom_site_refinement_flags_occupancy
Nd1 Nd 0.25094(3) 0.66019(2) 0.70838(2) 0.01700(9) Uani 1 1 d . . .
N1 N 0.0784(6) 0.8864(4) 0.5754(3) 0.0259(8) Uani 1 1 d . . .
N2 N 0.4337(6) 0.5568(4) 0.8979(3) 0.0256(8) Uani 1 1 d . . .
N3 N 0.0902(6) 0.5726(4) 0.5591(3) 0.0219(7) Uani 1 1 d . . .
O1 O 0.4541(5) 0.7703(3) 0.5470(2) 0.0306(7) Uani 1 1 d . . .
O3 O 0.0636(6) 0.6995(4) 0.8553(2) 0.0346(8) Uani 1 1 d . . .
O5 O -0.1518(5) 0.6413(3) 0.6993(2) 0.0250(6) Uani 1 1 d . . .
O2 O 0.5039(6) 0.9123(4) 0.3897(3) 0.0407(9) Uani 1 1 d . . .
O4 O -0.0012(7) 0.6805(4) 1.0201(3) 0.0468(10) Uani 1 1 d . . .
O6 O -0.4402(5) 0.5242(3) 0.6758(2) 0.0246(6) Uani 1 1 d . . .
O1W O 0.1557(6) 0.4185(3) 0.7820(3) 0.0329(7) Uani 1 1 d . . .
O2W O 0.4394(7) 0.8440(4) 0.7466(3) 0.0398(8) Uani 1 1 d . . .
O3W O 0.6223(12) 0.8392(7) 0.9300(6) 0.097(2) Uani 1 1 d . . .
O4W O 0.185(3) 0.2244(9) 0.6916(12) 0.265(10) Uani 1 1 d . . .
O5W O 0.013(4) 0.0130(19) 0.8367(18) 0.160(9) Uani 0.5 1 d . . P
O6W O -0.364(5) 0.156(4) 0.877(4) 0.33(3) Uani 0.5 1 d . . P
C1 C 0.3997(7) 0.8690(4) 0.4723(3) 0.0250(9) Uani 1 1 d . . .
C2 C 0.1871(7) 0.9393(4) 0.4862(3) 0.0256(9) Uani 1 1 d . . .
C3 C -0.1084(8) 0.9472(5) 0.5893(4) 0.0292(10) Uani 1 1 d . . .
H3 H -0.1881 0.9133 0.6506 0.035 Uiso 1 1 calc R U .
C4 C 0.1098(8) 0.6580(5) 0.9498(3) 0.0272(9) Uani 1 1 d . . .
C5 C 0.3167(7) 0.5742(4) 0.9770(3) 0.0242(8) Uani 1 1 d . . .
C6 C 0.6170(8) 0.4818(5) 0.9213(3) 0.0274(9) Uani 1 1 d . . .
H6 H 0.7019 0.4668 0.8682 0.033 Uiso 1 1 calc R U .
C7 C -0.2460(6) 0.5681(4) 0.6571(3) 0.0191(8) Uani 1 1 d . . .
C8 C -0.1159(7) 0.5290(4) 0.5744(3) 0.0203(8) Uani 1 1 d . . .
C9 C -0.2065(7) 0.4561(5) 0.5156(3) 0.0239(8) Uani 1 1 d . . .
H9 H -0.3508 0.4269 0.5286 0.029 Uiso 1 1 calc R U .
loop_
_atom_site_aniso_label
_atom_site_aniso_U_11
_atom_site_aniso_U_22
_atom_site_aniso_U_33
_atom_site_aniso_U_23
_atom_site_aniso_U_13
_atom_site_aniso_U_12
Nd1 0.01521(13) 0.02221(13) 0.01184(12) -0.00287(8) 0.00148(8) 0.00209(8)
N1 0.026(2) 0.0268(18) 0.0221(18) -0.0029(14) 0.0031(15) 0.0000(15)
N2 0.030(2) 0.0296(18) 0.0154(16) -0.0038(14) 0.0025(14) -0.0015(15)
N3 0.0145(17) 0.0336(18) 0.0181(16) -0.0090(14) 0.0014(13) 0.0022(14)
O1 0.0260(17) 0.0338(17) 0.0241(15) 0.0022(13) 0.0035(12) 0.0032(13)
O3 0.0314(18) 0.053(2) 0.0196(15) -0.0117(14) 0.0000(13) 0.0110(15)
O5 0.0180(15) 0.0355(16) 0.0246(15) -0.0142(13) 0.0033(12) 0.0011(12)
O2 0.040(2) 0.0392(19) 0.0315(18) 0.0041(15) 0.0163(15) 0.0089(16)
O4 0.049(2) 0.064(3) 0.0223(17) -0.0084(16) 0.0085(16) 0.020(2)
O6 0.0195(15) 0.0298(15) 0.0239(15) -0.0081(12) 0.0061(12) 0.0015(12)
O1W 0.041(2) 0.0292(16) 0.0261(16) -0.0046(13) 0.0097(14) -0.0057(14)
O2W 0.053(2) 0.0331(18) 0.0305(18) -0.0046(14) -0.0008(16) -0.0103(16)
O3W 0.108(5) 0.087(4) 0.110(5) -0.049(4) -0.058(4) 0.038(4)
O4W 0.370(19) 0.097(6) 0.362(19) -0.133(9) 0.293(17) -0.085(9)
O5W 0.155(17) 0.104(13) 0.19(2) 0.001(13) 0.081(15) -0.035(12)
O6W 0.19(3) 0.32(4) 0.63(8) -0.39(5) 0.08(4) -0.07(3)
C1 0.023(2) 0.026(2) 0.024(2) -0.0047(17) 0.0016(17) 0.0001(17)
C2 0.025(2) 0.028(2) 0.022(2) -0.0053(17) 0.0022(17) 0.0005(17)
C3 0.027(2) 0.031(2) 0.023(2) 0.0003(18) 0.0063(17) 0.0032(18)
C4 0.028(2) 0.033(2) 0.020(2) -0.0066(17) 0.0051(17) -0.0013(18)
C5 0.026(2) 0.027(2) 0.0184(19) -0.0055(16) 0.0024(16) -0.0045(17)
C6 0.030(2) 0.035(2) 0.0146(19) -0.0046(17) 0.0033(16) 0.0035(19)
C7 0.0139(19) 0.0256(19) 0.0149(17) -0.0024(15) 0.0027(14) 0.0046(15)
C8 0.017(2) 0.029(2) 0.0143(17) -0.0056(15) 0.0011(15) 0.0037(16)
C9 0.017(2) 0.036(2) 0.0195(19) -0.0093(17) 0.0035(16) 0.0006(17)
loop_
_atom_type_symbol
_atom_type_description
_atom_type_scat_dispersion_real
_atom_type_scat_dispersion_imag
_atom_type_scat_source
C C 0.0181 0.0091 'International Tables Vol C Tables 4.2.6.8 and 6.1.1.4'
H H 0.0000 0.0000 'International Tables Vol C Tables 4.2.6.8 and 6.1.1.4'
N N 0.0311 0.0180 'International Tables Vol C Tables 4.2.6.8 and 6.1.1.4'
Nd Nd -3.1807 10.9079 'International Tables Vol C Tables 4.2.6.8 and 6.1.1.4'
O O 0.0492 0.0322 'International Tables Vol C Tables 4.2.6.8 and 6.1.1.4'
loop_
_geom_angle_atom_site_label_1
_geom_angle_atom_site_label_2
_geom_angle_atom_site_label_3
_geom_angle
_geom_angle_site_symmetry_1
_geom_angle_site_symmetry_3
O3 Nd1 O2W 72.62(13) . .
O3 Nd1 O6 138.14(11) . 1_655
O2W Nd1 O6 102.28(12) . 1_655
O3 Nd1 O1 143.64(12) . .
O2W Nd1 O1 76.36(12) . .
O6 Nd1 O1 66.94(10) 1_655 .
O3 Nd1 O5 68.11(11) . .
O2W Nd1 O5 124.93(12) . .
O6 Nd1 O5 132.71(10) 1_655 .
O1 Nd1 O5 118.01(10) . .
O3 Nd1 O1W 88.23(12) . .
O2W Nd1 O1W 143.18(12) . .
O6 Nd1 O1W 71.29(11) 1_655 .
O1 Nd1 O1W 128.12(11) . .
O5 Nd1 O1W 72.05(11) . .
O3 Nd1 N3 129.47(11) . .
O2W Nd1 N3 145.26(11) . .
O6 Nd1 N3 78.36(10) 1_655 .
O1 Nd1 N3 72.04(11) . .
O5 Nd1 N3 61.87(10) . .
O1W Nd1 N3 70.58(11) . .
O3 Nd1 N1 92.29(11) . .
O2W Nd1 N1 75.01(12) . .
O6 Nd1 N1 127.35(11) 1_655 .
O1 Nd1 N1 61.32(11) . .
O5 Nd1 N1 69.71(11) . .
O1W Nd1 N1 138.41(12) . .
N3 Nd1 N1 77.41(11) . .
O3 Nd1 N2 61.83(11) . .
O2W Nd1 N2 73.07(12) . .
O6 Nd1 N2 76.77(11) 1_655 .
O1 Nd1 N2 125.37(11) . .
O5 Nd1 N2 116.62(11) . .
O1W Nd1 N2 70.17(11) . .
N3 Nd1 N2 138.47(11) . .
N1 Nd1 N2 143.64(11) . .
C3 N1 C2 117.0(4) . .
C3 N1 Nd1 126.0(3) . .
C2 N1 Nd1 117.0(3) . .
C5 N2 C6 116.9(4) . .
C5 N2 Nd1 115.7(3) . .
C6 N2 Nd1 127.2(3) . .
C8 N3 C9 117.2(4) . 2_566
C8 N3 Nd1 115.2(3) . .
C9 N3 Nd1 126.2(3) 2_566 .
C1 O1 Nd1 129.6(3) . .
C4 O3 Nd1 129.9(3) . .
C7 O5 Nd1 124.8(2) . .
C7 O6 Nd1 122.9(3) . 1_455
O2 C1 O1 125.7(4) . .
O2 C1 C2 118.5(4) . .
O1 C1 C2 115.8(4) . .
N1 C2 C3 121.6(4) . 2_576
N1 C2 C1 116.1(4) . .
C3 C2 C1 122.3(4) 2_576 .
N1 C3 C2 121.4(4) . 2_576
O4 C4 O3 125.1(5) . .
O4 C4 C5 119.0(4) . .
O3 C4 C5 115.9(4) . .
N2 C5 C6 121.7(4) . 2_667
N2 C5 C4 116.4(4) . .
C6 C5 C4 121.9(4) 2_667 .
N2 C6 C5 121.5(4) . 2_667
O5 C7 O6 126.3(4) . .
O5 C7 C8 116.5(4) . .
O6 C7 C8 117.2(4) . .
N3 C8 C9 121.7(4) . .
N3 C8 C7 115.7(4) . .
C9 C8 C7 122.6(4) . .
N3 C9 C8 121.1(4) 2_566 .
loop_
_geom_bond_atom_site_label_1
_geom_bond_atom_site_label_2
_geom_bond_distance
_geom_bond_site_symmetry_2
Nd1 O3 2.420(3) .
Nd1 O2W 2.451(4) .
Nd1 O6 2.452(3) 1_655
Nd1 O1 2.462(3) .
Nd1 O5 2.466(3) .
Nd1 O1W 2.498(3) .
Nd1 N3 2.674(4) .
Nd1 N1 2.709(4) .
Nd1 N2 2.716(4) .
N1 C3 1.331(6) .
N1 C2 1.336(6) .
N2 C5 1.334(6) .
N2 C6 1.337(6) .
N3 C8 1.331(5) .
N3 C9 1.332(5) 2_566
O1 C1 1.251(5) .
O3 C4 1.258(6) .
O5 C7 1.242(5) .
O2 C1 1.240(6) .
O4 C4 1.237(6) .
O6 C7 1.267(5) .
O6 Nd1 2.452(3) 1_455
C1 C2 1.513(6) .
C2 C3 1.395(6) 2_576
C3 C2 1.395(6) 2_576
C4 C5 1.506(7) .
C5 C6 1.389(6) 2_667
C6 C5 1.389(6) 2_667
C7 C8 1.514(5) .
C8 C9 1.389(6) .
C9 N3 1.332(5) 2_566
