#------------------------------------------------------------------------------
#$Date: 2017-04-04 06:02:19 +0300 (Tue, 04 Apr 2017) $
#$Revision: 194700 $
#$URL: file:///home/coder/svn-repositories/cod/cif/4/34/55/4345570.cif $
#------------------------------------------------------------------------------
#
# This file is available in the Crystallography Open Database (COD),
# http://www.crystallography.net/
#
# All data on this site have been placed in the public domain by the
# contributors.
#
data_4345570
loop_
_publ_author_name
'Gong, Pifu'
'Luo, Siyang'
'Xiao, Ke'
'Huang, Qian'
'Yang, Yi'
'Huang, Hongwei'
'Wu, Yicheng'
'Chen, Chuangtian'
'Lin, Zheshuai'
_publ_section_title
;
 Structure and Characterization of a Zero-Dimensional Alkali Tin Dihalides
 Compound Cs3Sn3F2Cl7 with the [Sn2F2Cl4](2-) Clusters.
;
_journal_issue                   5
_journal_name_full               'Inorganic chemistry'
_journal_page_first              3081
_journal_page_last               3086
_journal_paper_doi               10.1021/acs.inorgchem.7b00036
_journal_volume                  56
_journal_year                    2017
_chemical_formula_sum            'Cl7 Cs3 F2 Sn3'
_chemical_formula_weight         1040.98
_space_group_crystal_system      monoclinic
_space_group_IT_number           14
_space_group_name_Hall           '-P 2ybc'
_space_group_name_H-M_alt        'P 1 21/c 1'
_symmetry_space_group_name_Hall  '-P 2ybc'
_symmetry_space_group_name_H-M   'P 1 21/c 1'
_audit_creation_method           SHELXL-2014/7
_cell_angle_alpha                90
_cell_angle_beta                 93.2450(10)
_cell_angle_gamma                90
_cell_formula_units_Z            4
_cell_length_a                   9.5645(4)
_cell_length_b                   14.2057(7)
_cell_length_c                   13.5828(6)
_cell_measurement_reflns_used    5457
_cell_measurement_temperature    293(2)
_cell_measurement_theta_max      25.35
_cell_measurement_theta_min      2.57
_cell_volume                     1842.54(14)
_computing_structure_refinement  'SHELXL-2014/7 (Sheldrick, 2014)'
_diffrn_ambient_temperature      293(2)
_diffrn_measured_fraction_theta_full 0.999
_diffrn_measured_fraction_theta_max 0.994
_diffrn_measurement_device_type  CCD
_diffrn_radiation_type           MoK\a
_diffrn_radiation_wavelength     0.71073
_diffrn_reflns_av_R_equivalents  0.0199
_diffrn_reflns_av_unetI/netI     0.0188
_diffrn_reflns_Laue_measured_fraction_full 0.999
_diffrn_reflns_Laue_measured_fraction_max 0.994
_diffrn_reflns_limit_h_max       11
_diffrn_reflns_limit_h_min       -10
_diffrn_reflns_limit_k_max       16
_diffrn_reflns_limit_k_min       -16
_diffrn_reflns_limit_l_max       16
_diffrn_reflns_limit_l_min       -16
_diffrn_reflns_number            11450
_diffrn_reflns_point_group_measured_fraction_full 0.999
_diffrn_reflns_point_group_measured_fraction_max 0.994
_diffrn_reflns_theta_full        25.242
_diffrn_reflns_theta_max         25.353
_diffrn_reflns_theta_min         2.076
_exptl_absorpt_coefficient_mu    10.880
_exptl_absorpt_correction_type   multi-scan
_exptl_absorpt_process_details   sadabs
_exptl_crystal_colour            colorless
_exptl_crystal_density_diffrn    3.753
_exptl_crystal_description       block
_exptl_crystal_F_000             1808
_exptl_crystal_size_max          0.120
_exptl_crystal_size_mid          0.100
_exptl_crystal_size_min          0.080
_exptl_transmission_factor_max   0.864
_exptl_transmission_factor_min   0.864
_refine_diff_density_max         0.661
_refine_diff_density_min         -0.572
_refine_diff_density_rms         0.102
_refine_ls_extinction_method     none
_refine_ls_goodness_of_fit_ref   1.048
_refine_ls_hydrogen_treatment    undef
_refine_ls_matrix_type           full
_refine_ls_number_parameters     136
_refine_ls_number_reflns         3357
_refine_ls_number_restraints     0
_refine_ls_restrained_S_all      1.048
_refine_ls_R_factor_all          0.0211
_refine_ls_R_factor_gt           0.0173
_refine_ls_shift/su_max          0.001
_refine_ls_shift/su_mean         0.000
_refine_ls_structure_factor_coef Fsqd
_refine_ls_weighting_details
'w=1/[\s^2^(Fo^2^)+(0.0111P)^2^+1.2649P] where P=(Fo^2^+2Fc^2^)/3'
_refine_ls_weighting_scheme      calc
_refine_ls_wR_factor_gt          0.0327
_refine_ls_wR_factor_ref         0.0337
_reflns_Friedel_coverage         0.000
_reflns_number_gt                3047
_reflns_number_total             3357
_reflns_threshold_expression     'I > 2\s(I)'
_cod_data_source_file            ic7b00036_si_001.cif
_cod_data_source_block           b
_cod_database_code               4345570
_shelx_shelxl_version_number     2014/7
_shelx_space_group_comment
;
The symmetry employed for this shelxl refinement is uniquely defined
by the following loop, which should always be used as a source of
symmetry information in preference to the above space-group names.
They are only intended as comments.
;
_shelx_estimated_absorpt_t_min   0.355
_shelx_estimated_absorpt_t_max   0.476
_shelx_res_file
;

    b.res created by SHELXL-2014/7

TITL b in P2(1)/c                New: P21/c
CELL  0.71073   9.5645  14.2057  13.5828   90.000   93.245   90.000
ZERR     4.00   0.0004   0.0007   0.0006    0.000    0.001    0.000
LATT 1
SYMM  - X, 1/2 + Y, 1/2 - Z
SFAC
SFAC Cl 11.4604  0.0104  7.1964  1.1662  6.2556 18.5194  1.6455 47.7785  =
       -9.5574  0.1480  0.1590 678.0000 0.990 35.45000
SFAC
SFAC Cs 20.3892  3.5690 19.1062  0.3107 10.6620 24.3879  1.4953 213.9042  =
        3.3352 -0.3680  2.1190 8980.0000 1.670 132.90000
SFAC
SFAC F   3.5392 10.2825  2.6412  4.2944  1.5170  0.2615  1.0243 26.1476  =
        0.2776  0.0170  0.0100 51.5000 0.640 19.00000
SFAC
SFAC Sn 19.1889  5.8303 19.1005  0.5031  4.4585 26.8909  2.4663 83.9572  =
        4.7821 -0.6540  1.4250 6110.0000 1.650 118.71000
UNIT 28 12 8 12
MERG 2
L.S. 15
ACTA
BOND   $H
FMAP 2
PLAN 20
CONF
SIZE 0.12 0.1 0.08
WGHT    0.011100    1.264900
FVAR       0.02998
SN1   4    0.617819    0.094521    0.551348    11.00000    0.02460    0.02090 =
         0.01944    0.00005    0.00051    0.00225
CL1   1    0.471633    0.104660    0.703854    11.00000    0.04711    0.04056 =
         0.03143    0.00053    0.01396    0.00384
CL4   1    0.846563    0.028212    0.659377    11.00000    0.03930    0.04090 =
         0.04002   -0.00390   -0.01078    0.01097
F1    3    0.590445   -0.053919    0.544466    11.00000    0.03580    0.01946 =
         0.04145   -0.00179   -0.01011    0.00224
SN6   4    0.343235    0.446484    0.428733    11.00000    0.03344    0.02418 =
         0.02336    0.00256    0.00364    0.00633
CL2   1    0.448736    0.290680    0.467134    11.00000    0.03956    0.02489 =
         0.04411    0.00211   -0.00012    0.00790
CL5   1    0.122237    0.392289    0.523205    11.00000    0.04290    0.05229 =
         0.05442   -0.00038    0.02094   -0.00027
F2    3    0.409443    0.497265    0.568015    11.00000    0.04832    0.03516 =
         0.02920   -0.00806    0.00409   -0.00169
SN2   4    0.952469    0.408640    0.711987    11.00000    0.02468    0.02805 =
         0.02365   -0.00114    0.00026   -0.00429
CL3   1    1.096951    0.270608    0.774577    11.00000    0.03370    0.03987 =
         0.04120    0.00369    0.00144    0.00257
CL6   1    0.773351    0.294244    0.629726    11.00000    0.04709    0.04819 =
         0.04355   -0.00557   -0.01191   -0.01820
CL7   1    0.812090    0.401729    0.869188    11.00000    0.05095    0.04602 =
         0.04122   -0.00645    0.02158   -0.00371
CS1   2    0.864098    0.643762    0.960931    11.00000    0.04397    0.03299 =
         0.04161    0.00280    0.00310   -0.00063
CS2   2    0.437623    0.358758    0.743714    11.00000    0.04406    0.03189 =
         0.03380    0.00142    0.00469   -0.00156
CS3   2    0.798047    0.152133    0.871229    11.00000    0.04138    0.03811 =
         0.03533   -0.00242    0.00619   -0.00909
HKLF    4  1.0 -1.00  0.00  0.00  0.00  1.00  0.00  0.00  0.00 -1.00

REM  b in P2(1)/c                New: P21/c
REM R1 =  0.0173 for    3047 Fo > 4sig(Fo)  and  0.0211 for all    3357 data
REM    136 parameters refined using      0 restraints

END

WGHT      0.0111      1.2648

REM Highest difference peak  0.661,  deepest hole -0.572,  1-sigma level  0.102
Q1    1   0.2808  0.4051  0.3901  11.00000  0.05    0.66
Q2    1   0.9552  0.6492  0.9544  11.00000  0.05    0.56
Q3    1   0.4065  0.6066  0.5400  11.00000  0.05    0.38
Q4    1   0.8464  0.6262  0.9045  11.00000  0.05    0.37
Q5    1   0.4594  0.5433  0.6028  11.00000  0.05    0.36
Q6    1   0.7056  0.2609  0.7412  11.00000  0.05    0.35
Q7    1   0.2150  0.3414  0.4775  11.00000  0.05    0.35
Q8    1   0.5407 -0.0012  0.6976  11.00000  0.05    0.34
Q9    1   1.0287  0.4350  0.6544  11.00000  0.05    0.32
Q10   1   0.3711  0.5244  0.3344  11.00000  0.05    0.32
Q11   1   1.1816  0.3012  0.8782  11.00000  0.05    0.31
Q12   1   0.1586  0.4070  0.4272  11.00000  0.05    0.31
Q13   1   0.2336  0.0711  0.7192  11.00000  0.05    0.31
Q14   1   1.2396  0.3386  0.7792  11.00000  0.05    0.31
Q15   1   0.3512  0.3983  0.8040  11.00000  0.05    0.30
Q16   1   0.8966  0.4178  0.8013  11.00000  0.05    0.30
Q17   1   0.8857  0.3564  0.8176  11.00000  0.05    0.30
Q18   1   0.1878  0.3721  0.5548  11.00000  0.05    0.30
Q19   1   0.8657  0.3198  0.5828  11.00000  0.05    0.30
Q20   1   0.3812  0.4733  0.6326  11.00000  0.05    0.30
;
_shelx_res_checksum              68019
_shelx_hkl_file
;
  -1   0   0    4.31    0.08
   1   0   0    4.30    0.08
  -2   0   0    5.27    0.12
  -2   0   0    5.67    0.12
  -3   0   0   41.26    0.58
  -4   0   0   95.11    1.24
  -5   0   0   44.11    0.68
  -5   0   0   44.65    0.71
  -6   0   0    0.22    0.07
  -7   0   0    2.48    0.15
  -7   0   0    2.73    0.18
  -8   0   0    2.16    0.17
  -8   0   0    2.04    0.18
  -9   0   0    1.31    0.18
  -9   0   0    1.56    0.16
 -10   0   0    6.81    0.35
 -10   0   0    6.50    0.28
 -11   0   0    0.90    0.18
   0  -1   0    0.02    0.01
   0  -1   0    0.01    0.01
   0   1   0    0.00    0.01
   0   1   0    0.01    0.01
  -1  -1   0    1.13    0.04
  -1  -1   0    1.05    0.04
   1  -1   0    1.15    0.04
   1   1   0    1.06    0.04
  -1   1   0    1.13    0.04
   2  -1   0    4.16    0.11
  -2  -1   0    3.98    0.10
   2   1   0    3.91    0.11
  -3  -1   0  100.95    1.28
   3  -1   0  103.63    1.29
  -4  -1   0    1.33    0.09
   4  -1   0    1.38    0.09
  -4  -1   0    1.25    0.09
   5  -1   0    2.04    0.11
  -5  -1   0    1.62    0.11
  -5  -1   0    1.83    0.11
  -6  -1   0  157.60    2.10
  -6  -1   0  155.22    2.01
  -6   1   0  157.92    2.09
  -6   1   0  153.31    2.03
  -7  -1   0    0.32    0.09
  -7  -1   0    0.40    0.08
  -7   1   0    0.20    0.07
  -7   1   0    0.34    0.08
  -8  -1   0    0.46    0.11
  -8  -1   0    0.73    0.10
  -8   1   0    0.60    0.11
  -8   1   0    0.66    0.11
  -9  -1   0    2.57    0.18
  -9  -1   0    1.94    0.21
  -9   1   0    2.71    0.20
  -9   1   0    2.20    0.21
 -10  -1   0    4.04    0.29
 -10  -1   0    4.05    0.24
 -10   1   0    4.44    0.25
 -10   1   0    3.98    0.28
 -11  -1   0    5.73    0.36
 -11   1   0    5.18    0.34
   0  -2   0   16.44    0.23
   0  -2   0   16.81    0.26
   0   2   0   17.18    0.26
   0   2   0   15.69    0.27
   0   2   0   16.59    0.23
   1  -2   0    7.63    0.15
  -1  -2   0    7.75    0.14
  -1  -2   0    7.63    0.14
  -1   2   0    7.52    0.16
  -1   2   0    7.82    0.12
  -2  -2   0    1.15    0.06
  -2  -2   0    1.25    0.06
   2  -2   0    1.14    0.06
  -3  -2   0   62.87    0.88
  -3  -2   0   63.08    0.83
   3  -2   0   63.43    0.86
  -4  -2   0   21.33    0.37
   4  -2   0   21.74    0.39
  -4  -2   0   21.35    0.40
   5  -2   0    0.82    0.09
  -5  -2   0    0.98    0.09
  -5  -2   0    0.91    0.10
  -6  -2   0    9.79    0.30
  -6  -2   0    9.11    0.26
   6  -2   0    9.92    0.28
  -7  -2   0    2.93    0.15
  -7  -2   0    2.75    0.19
  -7   2   0    2.78    0.18
  -7   2   0    3.06    0.18
  -8  -2   0    0.45    0.11
  -8  -2   0    0.77    0.10
  -8   2   0    0.37    0.10
  -8   2   0    0.40    0.09
  -9  -2   0    6.48    0.25
  -9  -2   0    5.97    0.31
  -9   2   0    6.28    0.28
  -9   2   0    5.80    0.30
 -10  -2   0    2.40    0.25
 -10   2   0    2.41    0.21
 -10   2   0    2.12    0.22
 -11  -2   0    0.34    0.14
 -11   2   0    0.38    0.14
   0  -3   0    0.01    0.02
   0  -3   0    0.01    0.01
   0   3   0    0.00    0.01
   0   3   0    0.04    0.02
  -1  -3   0    0.28    0.04
   1  -3   0    0.31    0.04
  -1  -3   0    0.30    0.04
  -1   3   0    0.30    0.04
  -2  -3   0   16.36    0.28
  -2  -3   0   17.05    0.30
   2  -3   0   17.25    0.30
  -2   3   0   16.94    0.32
  -3  -3   0    8.54    0.21
  -3  -3   0    8.95    0.20
   3  -3   0    8.50    0.21
  -4  -3   0    3.28    0.14
  -4  -3   0    3.39    0.13
   4  -3   0    3.38    0.14
  -5  -3   0   12.61    0.32
   5  -3   0   13.08    0.31
  -5  -3   0   12.56    0.28
  -6  -3   0   66.34    0.95
   6  -3   0   66.51    1.00
  -6  -3   0   65.74    1.04
  -7  -3   0    0.17    0.06
   7  -3   0    0.14    0.05
  -7  -3   0    0.03    0.05
  -7   3   0    0.11    0.06
  -8  -3   0   12.18    0.33
  -8  -3   0   12.48    0.41
  -8   3   0   12.80    0.38
  -8   3   0   12.73    0.38
  -9  -3   0    0.69    0.13
  -9  -3   0    1.02    0.13
  -9   3   0    0.79    0.13
  -9   3   0    0.62    0.12
 -10  -3   0    9.31    0.42
 -10   3   0   10.37    0.41
 -10   3   0   10.31    0.38
 -11  -3   0    5.22    0.34
 -11   3   0    5.14    0.33
   0  -4   0  342.01    4.28
   0  -4   0  347.89    4.43
   0   4   0  330.06    4.45
   0   4   0  346.56    4.24
  -1  -4   0    0.73    0.06
  -1  -4   0    0.83    0.06
   1  -4   0    0.82    0.07
  -1   4   0    0.78    0.08
   2  -4   0    7.15    0.19
  -2  -4   0    6.90    0.18
  -2  -4   0    7.53    0.18
  -2   4   0    7.18    0.20
  -3  -4   0   33.17    0.54
  -3  -4   0   34.89    0.52
   3  -4   0   32.73    0.54
  -3   4   0   33.24    0.57
  -4  -4   0    6.26    0.20
  -4  -4   0    6.23    0.18
   4  -4   0    6.25    0.20
  -5  -4   0   17.98    0.41
   5  -4   0   18.14    0.40
  -5  -4   0   18.18    0.36
   6  -4   0    0.18    0.06
  -6  -4   0    0.14    0.05
  -6  -4   0    0.22    0.07
  -7  -4   0    1.07    0.11
   7  -4   0    0.89    0.12
  -7  -4   0    0.89    0.12
  -7   4   0    0.66    0.10
  -8  -4   0    0.49    0.11
   8  -4   0    0.58    0.11
  -8  -4   0    0.67    0.10
  -8   4   0    0.59    0.11
  -9  -4   0    0.55    0.13
  -9  -4   0    0.87    0.12
  -9   4   0    0.56    0.12
  -9   4   0    0.96    0.15
 -10  -4   0    0.45    0.14
 -10   4   0    0.63    0.14
 -10   4   0    0.35    0.11
 -11  -4   0    1.04    0.20
 -11   4   0    1.17    0.18
   0  -5   0   -0.01    0.02
   0  -5   0    0.13    0.03
   0   5   0    0.00    0.03
  -1  -5   0    3.67    0.13
   1  -5   0    3.53    0.13
  -1  -5   0    3.64    0.11
  -1   5   0    3.46    0.14
  -2  -5   0   17.19    0.33
   2  -5   0   16.58    0.34
  -2  -5   0   16.35    0.31
  -2   5   0   16.50    0.35
  -3  -5   0   60.84    0.86
   3  -5   0   59.41    0.88
  -3  -5   0   59.80    0.87
  -3   5   0   59.73    0.92
   4  -5   0   11.51    0.30
  -4  -5   0   11.08    0.26
  -4  -5   0   11.25    0.29
  -4   5   0   11.24    0.32
  -5  -5   0    6.02    0.20
   5  -5   0    5.66    0.22
  -5  -5   0    5.88    0.23
  -5   5   0    6.22    0.26
  -6  -5   0   44.05    0.72
  -6  -5   0   45.25    0.80
   6  -5   0   45.00    0.78
  -7  -5   0    1.95    0.19
   7  -5   0    1.78    0.17
  -7  -5   0    2.16    0.14
  -7   5   0    1.88    0.15
   8  -5   0   25.66    0.58
  -8  -5   0   24.54    0.61
  -8  -5   0   25.52    0.52
  -8   5   0   26.24    0.57
   9  -5   0    5.02    0.27
  -9  -5   0    5.62    0.32
  -9  -5   0    5.33    0.23
  -9   5   0    5.91    0.28
 -10  -5   0    0.29    0.13
 -10   5   0    0.67    0.15
 -10   5   0    0.60    0.13
   0  -6   0    8.68    0.23
   0  -6   0    8.78    0.19
   0   6   0    7.98    0.24
  -1  -6   0    0.04    0.03
   1  -6   0    0.06    0.03
  -1  -6   0    0.27    0.04
  -1   6   0    0.01    0.03
  -2  -6   0   25.49    0.45
   2  -6   0   23.83    0.45
  -2  -6   0   24.51    0.42
  -2   6   0   23.87    0.48
   3  -6   0   98.27    1.38
  -3  -6   0  102.77    1.36
  -3  -6   0  100.07    1.37
  -3   6   0   99.61    1.43
   4  -6   0    4.42    0.19
  -4  -6   0    4.67    0.18
  -4  -6   0    4.67    0.19
  -4   6   0    4.37    0.21
  -5  -6   0    0.90    0.11
  -5  -6   0    0.93    0.10
   5  -6   0    1.02    0.12
  -5   6   0    0.98    0.13
  -6  -6   0    0.23    0.06
  -6  -6   0    0.16    0.07
   6  -6   0    0.23    0.07
  -6   6   0    0.45    0.11
  -7  -6   0   16.20    0.39
   7  -6   0   16.54    0.45
  -7  -6   0   16.50    0.47
  -7   6   0   17.09    0.52
  -7   6   0   17.44    0.40
  -8  -6   0    1.70    0.15
   8  -6   0    1.22    0.16
  -8  -6   0    1.05    0.16
  -8   6   0    1.48    0.16
   9  -6   0   11.77    0.41
  -9  -6   0   10.82    0.43
  -9  -6   0   11.67    0.35
  -9   6   0   12.18    0.39
 -10  -6   0    0.43    0.13
  10  -6   0    0.38    0.11
 -10   6   0    0.30    0.11
   0  -7   0    0.08    0.03
   0  -7   0    0.07    0.04
   0   7   0    0.03    0.04
  -1  -7   0    7.25    0.19
  -1  -7   0    7.19    0.22
   1  -7   0    7.04    0.23
  -1   7   0    7.25    0.25
   2  -7   0   43.35    0.72
  -2  -7   0   43.33    0.70
  -2  -7   0   42.85    0.66
  -2   7   0   42.75    0.75
  -3  -7   0   21.74    0.43
  -3  -7   0   20.71    0.42
   3  -7   0   21.26    0.45
  -3   7   0   21.32    0.47
   4  -7   0   17.33    0.41
  -4  -7   0   16.56    0.38
  -4  -7   0   16.64    0.38
  -4   7   0   16.24    0.42
  -5  -7   0    1.96    0.17
  -5  -7   0    1.90    0.14
   5  -7   0    2.33    0.17
  -5   7   0    2.44    0.19
   6  -7   0   30.62    0.65
  -6  -7   0   31.56    0.59
  -6  -7   0   31.79    0.65
  -6   7   0   31.53    0.70
  -7  -7   0    0.80    0.14
   7  -7   0    0.76    0.13
  -7  -7   0    0.85    0.12
  -7   7   0    0.87    0.15
  -7   7   0    0.75    0.11
   8  -7   0    2.62    0.23
  -8  -7   0    2.41    0.17
  -8  -7   0    1.95    0.20
  -8   7   0    1.96    0.23
  -8   7   0    1.99    0.18
   9  -7   0    1.89    0.21
  -9  -7   0    1.90    0.18
  -9  -7   0    1.89    0.22
  -9   7   0    2.43    0.21
  -9   7   0    1.97    0.25
  10  -7   0    1.36    0.19
 -10  -7   0    0.95    0.18
 -10   7   0    1.29    0.22
 -10   7   0    1.25    0.17
   0  -8   0    9.33    0.28
   0  -8   0    8.92    0.22
   0   8   0    8.86    0.30
  -1  -8   0    2.43    0.13
  -1  -8   0    2.17    0.14
   1  -8   0    2.08    0.14
  -1   8   0    2.56    0.17
   2  -8   0    5.54    0.22
  -2  -8   0    5.63    0.21
  -2  -8   0    6.00    0.20
  -2   8   0    5.24    0.23
  -3  -8   0   43.55    0.72
  -3  -8   0   44.89    0.74
   3  -8   0   44.27    0.77
  -3   8   0   44.34    0.80
  -4  -8   0    1.32    0.13
   4  -8   0    1.06    0.13
  -4  -8   0    1.04    0.12
  -4   8   0    1.14    0.14
  -5  -8   0    0.22    0.07
  -5  -8   0    0.22    0.07
   5  -8   0    0.23    0.08
  -5   8   0    0.29    0.09
  -6  -8   0    2.48    0.19
  -6  -8   0    1.99    0.16
   6  -8   0    1.86    0.18
  -6   8   0    2.16    0.21
  -7  -8   0   12.53    0.36
   7  -8   0   12.80    0.42
  -7  -8   0   13.09    0.42
  -7   8   0   13.20    0.47
  -7   8   0   13.02    0.34
   8  -8   0    0.06    0.07
  -8  -8   0    0.08    0.06
  -8  -8   0   -0.04    0.07
  -8   8   0   -0.04    0.05
  -8   8   0    0.10    0.09
  -9  -8   0    0.10    0.07
   9  -8   0    0.11    0.08
  -9  -8   0   -0.01    0.09
  -9   8   0    0.17    0.10
  -9   8   0    0.09    0.07
  10  -8   0    0.59    0.14
 -10  -8   0    0.74    0.17
 -10   8   0    0.63    0.17
 -10   8   0    0.57    0.13
   0  -9   0    0.80    0.10
  -1  -9   0   22.60    0.42
   1  -9   0   21.84    0.49
  -1  -9   0   21.72    0.48
  -1   9   0   21.48    0.51
   2  -9   0    3.10    0.18
  -2  -9   0    3.06    0.17
  -2  -9   0    3.09    0.16
  -2   9   0    3.52    0.21
  -3  -9   0   73.04    1.09
   3  -9   0   74.06    1.16
  -3  -9   0   72.85    1.12
  -3   9   0   72.56    1.20
  -4  -9   0    0.74    0.11
   4  -9   0    0.79    0.12
  -4   9   0    0.97    0.14
  -5  -9   0    1.98    0.16
  -5  -9   0    1.85    0.17
   5  -9   0    1.95    0.18
  -5   9   0    1.79    0.19
  -6  -9   0    0.48    0.11
  -6  -9   0    0.47    0.10
   6  -9   0    0.39    0.10
  -6   9   0    0.42    0.11
   7  -9   0    2.03    0.21
  -7  -9   0    2.45    0.18
  -7  -9   0    2.25    0.22
  -7   9   0    2.17    0.24
  -7   9   0    1.88    0.15
  -8  -9   0    5.05    0.25
   8  -9   0    4.96    0.29
  -8  -9   0    4.28    0.28
  -8   9   0    4.31    0.31
  -8   9   0    5.21    0.23
  -9  -9   0    4.47    0.31
  -9  -9   0    4.41    0.24
   9  -9   0    4.78    0.31
  -9   9   0    4.49    0.34
   0 -10   0    8.41    0.29
  -1 -10   0    0.57    0.08
  -1 -10   0    0.47    0.09
   1 -10   0    0.57    0.10
  -1  10   0    0.48    0.10
   2 -10   0   16.72    0.44
  -2 -10   0   17.26    0.38
  -2 -10   0   16.75    0.43
  -2  10   0   17.45    0.48
   3 -10   0   13.48    0.40
  -3 -10   0   14.26    0.39
  -3 -10   0   13.72    0.36
  -3  10   0   13.54    0.42
  -4 -10   0    5.21    0.23
  -4 -10   0    5.22    0.23
   4 -10   0    5.23    0.26
  -4  10   0    5.52    0.29
   5 -10   0    0.67    0.13
  -5 -10   0    0.65    0.12
  -5 -10   0    0.67    0.11
  -5  10   0    0.60    0.13
  -6 -10   0    6.07    0.29
   6 -10   0    6.06    0.31
  -6 -10   0    6.66    0.28
  -6  10   0    6.09    0.33
  -7 -10   0    2.27    0.22
   7 -10   0    2.66    0.25
  -7 -10   0    2.47    0.19
  -7  10   0    2.59    0.27
  -8 -10   0    1.87    0.21
  -8 -10   0    2.36    0.21
   8 -10   0    2.01    0.23
  -8  10   0    1.78    0.23
   9 -10   0   17.45    0.57
  -9 -10   0   16.87    0.57
  -9 -10   0   17.36    0.49
  -9  10   0   16.39    0.61
   0 -11   0    0.02    0.05
  -1 -11   0    2.91    0.17
  -1 -11   0    2.82    0.19
   1 -11   0    2.09    0.17
  -1  11   0    2.83    0.22
  -2 -11   0    2.24    0.16
  -2 -11   0    2.23    0.17
   2 -11   0    2.45    0.19
  -2  11   0    2.24    0.22
  -3 -11   0    3.76    0.21
   3 -11   0    4.05    0.24
  -3 -11   0    4.51    0.22
  -3  11   0    3.79    0.25
   4 -11   0    2.47    0.23
  -4 -11   0    2.52    0.18
  -4 -11   0    2.39    0.19
  -4  11   0    2.31    0.23
   5 -11   0    5.52    0.29
  -5 -11   0    6.24    0.28
  -5 -11   0    5.98    0.29
  -5  11   0    5.81    0.33
   6 -11   0    0.32    0.10
  -6 -11   0    0.52    0.12
  -6 -11   0    0.30    0.09
  -6  11   0    0.40    0.12
  -7 -11   0    0.04    0.08
   7 -11   0    0.23    0.10
  -7 -11   0    0.38    0.10
  -7  11   0    0.17    0.11
  -8 -11   0    0.94    0.16
  -8 -11   0    1.18    0.16
   8 -11   0    1.05    0.19
  -8  11   0    1.44    0.23
   0 -12   0    0.48    0.10
  -1 -12   0    6.45    0.25
  -1 -12   0    5.46    0.27
   1 -12   0    6.01    0.29
  -1  12   0    6.96    0.33
  -2 -12   0    0.53    0.10
   2 -12   0    0.33    0.10
  -2 -12   0    0.20    0.09
  -2  12   0    0.49    0.12
  -3 -12   0    1.52    0.16
   3 -12   0    1.48    0.18
  -3 -12   0    1.81    0.16
  -3  12   0    1.40    0.19
  -4 -12   0    0.73    0.13
   4 -12   0    0.51    0.12
  -4 -12   0    0.53    0.11
  -4  12   0    0.54    0.13
   5 -12   0    3.54    0.26
  -5 -12   0    3.71    0.24
  -5 -12   0    3.75    0.24
  -5  12   0    3.65    0.28
  -6 -12   0    1.57    0.18
  -6 -12   0    1.30    0.17
   6 -12   0    1.37    0.19
  -6  12   0    1.66    0.23
  -7 -12   0    2.97    0.25
   7 -12   0    3.05    0.29
  -7 -12   0    3.38    0.23
  -7  12   0    3.26    0.31
  -8 -12   0    0.02    0.09
   8 -12   0    0.05    0.09
  -8 -12   0    0.08    0.09
  -8  12   0   -0.07    0.09
   0 -13   0   -0.01    0.06
  -1 -13   0   34.10    0.65
   1 -13   0   33.17    0.74
  -1 -13   0   33.38    0.73
  -1  13   0   32.91    0.78
  -2 -13   0    9.36    0.36
   2 -13   0    9.25    0.38
  -2 -13   0    9.91    0.33
  -2  13   0    9.62    0.41
  -3 -13   0   35.74    0.78
  -3 -13   0   39.40    0.74
   3 -13   0   37.63    0.83
  -3  13   0   39.53    0.87
   4 -13   0    0.06    0.08
  -4 -13   0    0.11    0.08
  -4 -13   0    0.04    0.07
  -4  13   0    0.19    0.10
  -5 -13   0    0.35    0.11
  -5 -13   0    0.50    0.12
   5 -13   0    0.71    0.15
  -5  13   0    0.35    0.13
   6 -13   0    1.91    0.23
  -6 -13   0    2.07    0.21
  -6 -13   0    2.10    0.22
  -6  13   0    2.15    0.26
   7 -13   0    0.64    0.15
  -7 -13   0    0.58    0.14
  -7 -13   0    0.58    0.13
  -7  13   0    0.85    0.18
   0 -14   0   11.61    0.42
   1 -14   0    0.17    0.08
  -1 -14   0    0.03    0.08
  -2 -14   0    0.07    0.08
   2 -14   0    0.13    0.08
  -2 -14   0    0.00    0.06
  -2  14   0    0.07    0.09
   3 -14   0    9.49    0.40
  -3 -14   0    9.49    0.38
  -3 -14   0   10.40    0.36
  -3  14   0    9.91    0.44
  -4 -14   0   -0.03    0.07
   4 -14   0    0.09    0.08
  -4 -14   0    0.02    0.07
  -4  14   0   -0.03    0.08
  -5 -14   0    0.14    0.09
  -5 -14   0    0.11    0.09
   5 -14   0    0.24    0.11
  -5  14   0    0.16    0.11
  -6 -14   0    0.30    0.11
   6 -14   0    0.43    0.14
  -6 -14   0    0.45    0.12
  -6  14   0    0.50    0.16
   0 -15   0   -0.06    0.08
   1 -15   0    6.00    0.33
  -1 -15   0    6.34    0.33
  -2 -15   0    1.14    0.17
   2 -15   0    1.07    0.18
  -2  15   0    1.30    0.21
   3 -15   0    0.35    0.12
  -3 -15   0    0.59    0.13
  -3  15   0    0.48    0.14
   4 -15   0    3.01    0.29
  -4 -15   0    2.66    0.23
  -4 -15   0    2.36    0.24
  -4  15   0    3.07    0.32
  -5 -15   0    0.84    0.16
   5 -15   0    0.70    0.16
  -5 -15   0    0.70    0.14
  -5  15   0    1.33    0.22
   0 -16   0   20.70    0.62
  -1 -16   0    1.71    0.22
   1 -16   0    1.73    0.22
  -2 -16   0    0.47    0.13
   2 -16   0    0.26    0.12
   3 -16   0    1.22    0.20
  -3 -16   0    1.64    0.21
  -3  16   0    1.24    0.21
 -11   0   1   -0.11    0.08
 -10   0   1   -0.02    0.07
 -10   0   1    0.08    0.09
  -9   0   1    0.10    0.07
  -9   0   1   -0.15    0.06
  -8   0   1    0.04    0.07
  -8   0   1    0.16    0.07
  -7   0   1   -0.04    0.05
  -6   0   1    0.08    0.05
  -5   0   1    0.00    0.03
  -4   0   1   -0.03    0.03
  -3   0   1    0.14    0.04
  -1   0   1    0.03    0.01
  -1   0   1    0.09    0.02
   0   0   1    0.00    0.00
   0   0   1    0.01    0.01
   0   0   1    0.00    0.01
   0   0  -1    0.01    0.01
   0   0  -1    0.05    0.01
  -1   0  -1   -0.27    0.02
  -2   0  -1    0.03    0.02
  -2   0  -1    0.05    0.01
  -3   0  -1    0.06    0.02
  -3   0  -1    0.01    0.02
  -3   0  -1   -0.03    0.02
  -4   0  -1    0.00    0.03
  -4   0  -1   -0.09    0.02
  -5   0  -1    0.03    0.03
  -5   0  -1    0.03    0.03
  -6   0  -1   -0.02    0.03
  -6   0  -1   -0.10    0.04
  -7   0  -1    0.02    0.04
  -7   0  -1   -0.02    0.05
  -8   0  -1    0.12    0.06
  -8   0  -1   -0.03    0.06
  -9   0  -1    0.00    0.07
  -9   0  -1   -0.01    0.06
 -10   0  -1   -0.01    0.08
 -11   0  -1    0.02    0.10
 -11  -1   1    0.31    0.13
 -11   1   1    0.43    0.14
 -10  -1   1    0.99    0.17
 -10  -1   1    1.17    0.16
 -10   1   1    1.25    0.19
 -10   1   1    1.06    0.15
  -9  -1   1    0.86    0.14
  -9  -1   1    1.05    0.14
  -9   1   1    1.11    0.16
  -9   1   1    1.24    0.15
  -8  -1   1   11.14    0.37
  -8  -1   1   10.82    0.33
  -8   1   1   10.75    0.35
  -8   1   1   10.82    0.36
  -7  -1   1   35.71    0.69
  -7  -1   1   34.84    0.65
  -7   1   1   35.61    0.67
  -6  -1   1    0.32    0.07
  -6   1   1    0.48    0.09
  -5  -1   1    5.08    0.18
  -5   1   1    5.04    0.19
   4  -1  -1   20.30    0.38
  -4  -1   1   19.33    0.37
  -3  -1   1   14.44    0.28
   3  -1  -1   14.44    0.28
   2  -1  -1   23.54    0.37
  -2  -1   1   23.16    0.37
   1  -1  -1    1.34    0.06
   1  -1  -1    1.30    0.05
  -1  -1   1    1.36    0.05
   1   1  -1    1.29    0.05
  -1   1   1    1.44    0.06
  -1   1   1    1.36    0.05
   0  -1   1    0.09    0.02
   0  -1   1    0.06    0.01
   0  -1  -1    0.02    0.01
   0  -1  -1    0.06    0.01
   0  -1   1    0.04    0.01
   0   1  -1    0.02    0.01
   0   1   1    0.04    0.01
   0   1   1    0.04    0.01
   0   1  -1    0.04    0.01
   0   1  -1    0.04    0.01
   1  -1   1    1.75    0.05
  -1  -1  -1    1.82    0.06
   1  -1   1    1.79    0.05
  -1  -1  -1    1.74    0.04
  -1   1  -1    1.74    0.05
  -1   1  -1    1.77    0.05
   1   1   1    1.94    0.04
   2  -1   1    1.21    0.05
  -2  -1  -1    1.25    0.07
  -2  -1  -1    1.27    0.04
  -2   1  -1    1.22    0.06
  -2   1  -1    1.29    0.05
   2   1   1    1.29    0.05
  -3  -1  -1   14.64    0.28
   3  -1   1   14.57    0.24
  -3  -1  -1   14.40    0.23
   3   1   1   13.88    0.24
  -3   1  -1   14.28    0.26
  -4  -1  -1  151.83    1.97
   4  -1   1  151.38    1.94
  -4  -1  -1  153.26    1.86
  -4   1  -1  154.32    1.95
   5  -1   1    0.53    0.06
  -5  -1  -1    0.39    0.07
  -5  -1  -1    0.43    0.05
  -5   1  -1    0.50    0.07
  -6  -1  -1   13.40    0.36
  -6  -1  -1   14.23    0.30
  -6   1  -1   14.05    0.35
  -6   1  -1   14.18    0.32
  -7  -1  -1    0.35    0.06
  -7  -1  -1    0.44    0.09
  -7   1  -1    0.44    0.08
  -7   1  -1    0.23    0.08
  -8  -1  -1   12.26    0.39
  -8  -1  -1   11.59    0.30
  -8   1  -1   10.69    0.31
  -8   1  -1   11.40    0.37
  -9  -1  -1   29.93    0.56
  -9  -1  -1   29.75    0.69
  -9   1  -1   29.04    0.67
  -9   1  -1   28.46    0.58
 -10  -1  -1    1.02    0.17
 -10   1  -1    0.78    0.16
 -11  -1  -1   -0.04    0.10
 -11   1  -1    0.18    0.11
 -11  -2   1    0.66    0.17
 -11   2   1    0.95    0.18
 -10  -2   1    0.36    0.13
 -10  -2   1    0.48    0.11
 -10   2   1    0.39    0.12
 -10   2   1    0.42    0.12
  -9  -2   1    0.69    0.14
  -9  -2   1    0.78    0.12
  -9   2   1    0.53    0.13
  -9   2   1    0.72    0.13
  -8  -2   1    7.79    0.32
  -8  -2   1    8.02    0.28
  -8   2   1    8.26    0.31
  -7  -2   1   19.67    0.47
  -7  -2   1   18.36    0.42
  -7   2   1   18.82    0.46
   6  -2  -1   48.53    0.80
  -6  -2   1   49.51    0.82
  -6  -2   1   47.81    0.77
  -5  -2   1    5.57    0.19
   5  -2  -1    5.70    0.20
  -4  -2   1    0.17    0.04
   4  -2  -1    0.28    0.05
   3  -2  -1    0.95    0.08
  -3  -2   1    0.86    0.07
  -2  -2   1  412.69    5.31
   2  -2  -1  427.14    5.37
   1  -2  -1    4.73    0.12
  -1  -2   1    4.95    0.12
   1  -2  -1    4.65    0.11
  -1   2   1    4.81    0.10
  -1   2   1    4.64    0.11
   0  -2  -1    6.72    0.14
   0  -2  -1    6.96    0.13
   0  -2   1    6.95    0.14
   0   2  -1    6.94    0.16
   0   2   1    6.76    0.14
  -1  -2  -1    0.92    0.06
   1  -2   1    0.89    0.05
  -1  -2  -1    0.78    0.05
  -1   2  -1    0.87    0.07
   1   2   1    0.88    0.05
  -2  -2  -1   14.98    0.23
  -2  -2  -1   14.76    0.27
   2  -2   1   14.85    0.24
  -2   2  -1   14.31    0.23
   2   2   1   14.24    0.23
  -3  -2  -1   37.49    0.57
  -3  -2  -1   36.42    0.50
   3  -2   1   36.88    0.53
  -3   2  -1   37.28    0.53
  -4  -2  -1   32.16    0.47
   4  -2   1   32.73    0.51
  -4  -2  -1   32.28    0.55
  -4   2  -1   33.37    0.52
   5  -2   1    6.61    0.19
  -5  -2  -1    6.18    0.21
  -5  -2  -1    6.48    0.17
  -5   2  -1    6.47    0.20
   6  -2   1    5.84    0.20
  -6  -2  -1    5.36    0.17
  -6  -2  -1    5.45    0.23
  -6   2  -1    5.55    0.21
  -7  -2  -1    0.82    0.09
  -7  -2  -1    0.58    0.10
  -7   2  -1    0.75    0.10
  -7   2  -1    0.64    0.10
  -8  -2  -1   20.00    0.41
  -8  -2  -1   19.55    0.52
  -8   2  -1   20.48    0.50
  -8   2  -1   19.48    0.45
  -9  -2  -1   -0.01    0.06
  -9  -2  -1    0.18    0.10
  -9   2  -1    0.05    0.07
  -9   2  -1    0.04    0.07
 -10  -2  -1   20.07    0.60
 -10   2  -1   20.22    0.58
 -11  -2  -1    0.74    0.17
 -11   2  -1    0.64    0.15
 -11  -3   1    0.20    0.12
 -11   3   1    0.23    0.12
 -10  -3   1    5.58    0.26
 -10  -3   1    5.01    0.32
 -10   3   1    4.18    0.30
 -10   3   1    5.48    0.30
  -9  -3   1    3.08    0.25
  -9  -3   1    3.42    0.21
  -9   3   1    2.99    0.23
  -9   3   1    3.18    0.23
  -8  -3   1   26.42    0.62
  -8  -3   1   27.32    0.56
  -8   3   1   27.27    0.61
  -7  -3   1    0.45    0.09
   7  -3  -1    0.59    0.10
  -7  -3   1    0.42    0.08
  -6  -3   1    1.46    0.13
  -6  -3   1    1.30    0.13
   6  -3  -1    1.45    0.14
  -5  -3   1   31.53    0.54
   5  -3  -1   31.91    0.57
  -5  -3   1   30.04    0.56
  -4  -3   1    6.79    0.20
   4  -3  -1    6.93    0.21
  -3  -3   1    2.37    0.11
   3  -3  -1    2.57    0.12
   2  -3  -1   30.75    0.49
  -2  -3   1   30.74    0.47
  -2   3   1   32.07    0.48
  -1  -3   1   13.75    0.25
   1  -3  -1   13.45    0.23
   1  -3  -1   13.92    0.25
  -1   3   1   13.54    0.24
   0  -3  -1    3.15    0.10
   0  -3  -1    3.28    0.10
   0  -3   1    3.27    0.10
   0   3  -1    3.38    0.12
  -1  -3  -1   11.36    0.22
  -1  -3  -1   10.95    0.20
   1  -3   1   11.15    0.21
  -1   3  -1   11.30    0.24
  -2  -3  -1    7.55    0.18
   2  -3   1    7.54    0.17
  -2  -3  -1    7.89    0.16
  -2   3  -1    7.73    0.21
  -2   3  -1    7.50    0.14
  -3  -3  -1   20.18    0.32
  -3  -3  -1   20.25    0.37
   3  -3   1   20.38    0.35
  -3   3  -1   20.16    0.32
   4  -3   1  111.83    1.47
  -4  -3  -1  113.32    1.42
  -4  -3  -1  113.95    1.53
  -4   3  -1  114.54    1.47
   5  -3   1    1.22    0.10
  -5  -3  -1    1.05    0.11
  -5  -3  -1    1.35    0.08
  -5   3  -1    1.14    0.10
   6  -3   1    7.15    0.23
  -6  -3  -1    6.70    0.26
  -6  -3  -1    6.96    0.20
  -6   3  -1    6.75    0.23
   7  -3   1    7.56    0.25
  -7  -3  -1    7.62    0.22
  -7  -3  -1    7.34    0.29
  -7   3  -1    7.29    0.26
  -8  -3  -1    0.42    0.11
  -8  -3  -1    0.51    0.09
  -8   3  -1    0.59    0.11
  -9  -3  -1    6.86    0.24
  -9  -3  -1    6.85    0.33
  -9   3  -1    7.06    0.31
  -9   3  -1    6.52    0.28
 -10  -3  -1    0.44    0.14
 -10   3  -1    0.91    0.16
 -11  -3  -1    0.34    0.14
 -11   3  -1    0.38    0.13
 -11  -4   1    2.82    0.31
 -11   4   1    2.89    0.29
 -10  -4   1    0.01    0.08
 -10  -4   1    0.03    0.07
 -10   4   1   -0.15    0.06
 -10   4   1    0.11    0.09
  -9  -4   1   10.11    0.40
  -9  -4   1   10.11    0.33
  -9   4   1    9.83    0.37
  -9   4   1    9.68    0.38
  -8  -4   1    0.10    0.08
  -8  -4   1    0.14    0.07
   8  -4  -1    0.08    0.07
  -7  -4   1    0.17    0.06
  -7  -4   1    0.09    0.06
   7  -4  -1    0.04    0.05
  -6  -4   1    9.83    0.28
   6  -4  -1   10.25    0.31
  -6  -4   1   10.50    0.32
  -5  -4   1   74.89    1.07
  -5  -4   1   74.82    1.11
   5  -4  -1   74.03    1.11
  -4  -4   1   10.83    0.26
   4  -4  -1   11.25    0.29
  -4  -4   1   11.11    0.27
   3  -4  -1    1.05    0.10
  -3  -4   1    0.89    0.08
  -3  -4   1    0.89    0.08
  -3   4   1    0.92    0.09
   2  -4  -1    0.63    0.07
  -2  -4   1    0.81    0.06
  -2  -4   1    0.70    0.07
  -2   4   1    0.80    0.07
   1  -4  -1   11.63    0.24
  -1  -4   1   11.42    0.20
  -1  -4   1   11.81    0.24
   1  -4  -1   10.83    0.21
  -1   4   1   11.08    0.23
   0  -4  -1    0.70    0.06
   0  -4   1    0.54    0.06
   0  -4  -1    0.61    0.06
   0   4   1    0.56    0.06
   0   4  -1    0.54    0.07
  -1  -4  -1  334.70    4.36
  -1  -4  -1  339.78    4.34
   1  -4   1  345.23    4.44
  -1   4  -1  336.77    4.49
  -2  -4  -1    0.21    0.04
   2  -4   1    0.22    0.04
  -2  -4  -1    0.19    0.04
  -2   4  -1    0.18    0.04
  -3  -4  -1    0.27    0.04
  -3  -4  -1    0.31    0.05
   3  -4   1    0.27    0.05
  -3   4  -1    0.28    0.06
   4  -4   1    7.93    0.22
  -4  -4  -1    7.62    0.19
  -4  -4  -1    7.75    0.23
  -4   4  -1    7.76    0.19
   5  -4   1   29.78    0.53
  -5  -4  -1   30.58    0.57
  -5  -4  -1   29.66    0.49
  -5   4  -1   30.26    0.51
  -6  -4  -1    8.78    0.29
   6  -4   1    8.44    0.26
  -6  -4  -1    8.25    0.22
  -6   4  -1    8.15    0.25
   7  -4   1    5.78    0.23
  -7  -4  -1    5.84    0.20
  -7  -4  -1    5.20    0.25
  -7   4  -1    5.55    0.23
  -8  -4  -1   12.15    0.31
   8  -4   1   12.25    0.36
  -8  -4  -1   12.92    0.42
  -8   4  -1   12.78    0.38
  -9  -4  -1    0.36    0.12
  -9  -4  -1    0.55    0.09
  -9   4  -1    0.22    0.09
  -9   4  -1    0.46    0.11
 -10  -4  -1    0.09    0.10
 -10   4  -1    0.21    0.10
 -11  -4  -1    0.51    0.15
 -11   4  -1    0.60    0.14
 -11  -5   1    0.22    0.12
 -11   5   1    0.36    0.13
 -11   5   1    0.56    0.16
 -10  -5   1    0.81    0.14
 -10  -5   1    0.56    0.14
 -10   5   1    0.78    0.16
 -10   5   1    0.57    0.13
  -9  -5   1    0.17    0.08
   9  -5  -1    0.15    0.08
  -9  -5   1    0.10    0.09
  -9   5   1    0.14    0.08
  -8  -5   1    6.96    0.26
   8  -5  -1    6.83    0.30
  -8  -5   1    6.60    0.31
   7  -5  -1    6.07    0.27
  -7  -5   1    5.50    0.27
  -7  -5   1    6.08    0.24
  -6  -5   1    0.14    0.06
   6  -5  -1    0.07    0.05
  -6  -5   1    0.06    0.06
   5  -5  -1   41.86    0.73
  -5  -5   1   43.07    0.72
  -5  -5   1   40.92    0.68
  -4  -5   1    1.64    0.12
   4  -5  -1    1.72    0.13
  -4  -5   1    1.92    0.12
  -4   5   1    1.56    0.13
  -3  -5   1    5.15    0.17
   3  -5  -1    4.94    0.18
  -3  -5   1    4.77    0.17
  -3   5   1    5.17    0.18
  -2  -5   1   29.14    0.49
   2  -5  -1   29.44    0.50
  -2  -5   1   29.68    0.46
   2  -5  -1   29.05    0.44
  -2   5   1   29.11    0.50
  -1  -5   1   22.81    0.41
   1  -5  -1   22.29    0.37
   1  -5  -1   23.08    0.41
  -1  -5   1   23.05    0.35
  -1   5   1   23.05    0.41
   0  -5  -1   40.52    0.61
   0  -5  -1   43.30    0.63
   0  -5   1   42.09    0.63
   0   5   1   41.35    0.64
   0   5  -1   41.31    0.68
  -1  -5  -1   65.27    0.89
  -1  -5  -1   63.42    0.88
   1  -5   1   64.34    0.90
  -1   5  -1   62.92    0.96
  -2  -5  -1   34.79    0.56
   2  -5   1   34.68    0.56
  -2  -5  -1   36.18    0.55
  -2   5  -1   34.34    0.61
  -3  -5  -1    5.83    0.19
  -3  -5  -1    5.96    0.17
   3  -5   1    5.87    0.19
  -3   5  -1    5.56    0.21
   4  -5   1   32.74    0.57
  -4  -5  -1   32.48    0.53
  -4  -5  -1   32.97    0.58
  -4   5  -1   32.98    0.64
  -4   5  -1   33.56    0.50
  -5  -5  -1    4.31    0.20
  -5  -5  -1    4.38    0.16
   5  -5   1    4.30    0.18
  -5   5  -1    4.56    0.23
  -5   5  -1    4.12    0.16
   6  -5   1    8.46    0.28
  -6  -5  -1    8.13    0.23
  -6  -5  -1    8.23    0.30
  -6   5  -1    8.51    0.25
  -7  -5  -1   17.93    0.48
   7  -5   1   17.96    0.44
  -7  -5  -1   17.13    0.37
  -7   5  -1   17.61    0.41
  -8  -5  -1    0.94    0.11
  -8  -5  -1    0.66    0.14
   8  -5   1    0.75    0.11
  -8   5  -1    0.67    0.12
   9  -5   1    2.36    0.21
  -9  -5  -1    2.48    0.16
  -9  -5  -1    2.38    0.24
  -9   5  -1    2.30    0.21
 -10  -5  -1    0.53    0.14
 -10   5  -1    0.78    0.14
 -10  -6   1    1.42    0.17
 -10  -6   1    1.34    0.21
  10  -6  -1    1.59    0.20
 -10   6   1    1.27    0.18
   9  -6  -1    4.38    0.27
  -9  -6   1    4.63    0.23
  -9  -6   1    4.32    0.29
  -9   6   1    4.24    0.25
   8  -6  -1   10.70    0.39
  -8  -6   1   11.30    0.34
  -8  -6   1   11.25    0.40
   7  -6  -1   26.52    0.60
  -7  -6   1   27.19    0.55
  -7  -6   1   26.91    0.61
  -6  -6   1    3.38    0.20
  -6  -6   1    3.29    0.17
   6  -6  -1    3.67    0.21
  -6   6   1    3.25    0.22
  -5  -6   1    7.56    0.24
   5  -6  -1    7.49    0.27
  -5  -6   1    7.43    0.26
  -5   6   1    7.74    0.28
  -4  -6   1    0.32    0.07
   4  -6  -1    0.33    0.07
  -4  -6   1    0.28    0.06
  -4   6   1    0.44    0.08
  -3  -6   1   10.58    0.27
  -3  -6   1   10.63    0.26
   3  -6  -1   10.42    0.28
  -3   6   1   10.08    0.28
  -2  -6   1   25.53    0.47
  -2  -6   1   25.76    0.43
   2  -6  -1   25.61    0.48
   2  -6  -1   25.10    0.40
  -2   6   1   26.60    0.48
  -1  -6   1    1.52    0.08
   1  -6  -1    1.77    0.09
   1  -6  -1    1.70    0.10
  -1  -6   1    1.67    0.11
  -1   6   1    1.69    0.11
   0  -6  -1    6.75    0.20
   0  -6   1    6.49    0.20
   0  -6  -1    6.07    0.18
   0   6  -1    6.50    0.23
  -1  -6  -1   56.22    0.81
  -1  -6  -1   57.30    0.83
   1  -6   1   57.10    0.84
  -1   6  -1   55.99    0.90
  -2  -6  -1    3.39    0.14
   2  -6   1    3.61    0.15
  -2  -6  -1    3.44    0.14
  -2   6  -1    3.61    0.18
  -3  -6  -1    1.19    0.11
   3  -6   1    1.46    0.11
  -3  -6  -1    1.71    0.11
  -3   6  -1    1.54    0.14
  -4  -6  -1    0.72    0.10
   4  -6   1    0.80    0.10
  -4  -6  -1    0.63    0.08
  -4   6  -1    0.69    0.11
  -4   6  -1    0.66    0.06
   5  -6   1   11.28    0.32
  -5  -6  -1   11.28    0.32
  -5  -6  -1   10.95    0.28
  -5   6  -1   10.70    0.25
  -5   6  -1   11.41    0.37
   6  -6   1    3.50    0.19
  -6  -6  -1    3.35    0.20
  -6  -6  -1    3.38    0.16
  -6   6  -1    3.24    0.23
  -6   6  -1    3.37    0.16
   7  -6   1    1.13    0.14
  -7  -6  -1    1.37    0.13
  -7  -6  -1    1.26    0.17
  -7   6  -1    1.30    0.18
  -7   6  -1    1.15    0.12
   8  -6   1    0.73    0.12
  -8  -6  -1    0.48    0.12
  -8  -6  -1    0.79    0.11
  -8   6  -1    0.79    0.15
  -8   6  -1    0.76    0.11
  -9  -6  -1    0.56    0.10
   9  -6   1    0.54    0.11
  -9  -6  -1    0.53    0.13
  -9   6  -1    0.38    0.10
  -9   6  -1    0.53    0.15
 -10  -6  -1   12.15    0.48
 -10   6  -1   11.18    0.52
 -10   6  -1   11.30    0.41
  10  -7  -1   19.46    0.58
 -10  -7   1   19.50    0.61
 -10  -7   1   18.92    0.51
 -10   7   1   18.08    0.53
 -10   7   1   17.65    0.64
   9  -7  -1    7.52    0.35
  -9  -7   1    8.08    0.31
  -9  -7   1    7.85    0.38
  -9   7   1    7.90    0.32
  -9   7   1    7.79    0.40
  -8  -7   1    2.31    0.22
   8  -7  -1    2.26    0.23
  -8  -7   1    2.21    0.18
  -8   7   1    1.99    0.23
  -7  -7   1    4.36    0.25
   7  -7  -1    4.19    0.25
  -7  -7   1    4.48    0.22
  -7   7   1    4.07    0.27
  -6  -7   1   -0.01    0.06
  -6  -7   1    0.11    0.06
   6  -7  -1    0.16    0.07
  -6   7   1    0.08    0.06
  -5  -7   1   92.10    1.33
   5  -7  -1   92.16    1.38
  -5  -7   1   91.89    1.35
  -5   7   1   92.47    1.40
  -4  -7   1    2.48    0.15
   4  -7  -1    2.17    0.15
  -4  -7   1    2.48    0.15
  -4   7   1    2.26    0.16
  -3  -7   1    4.91    0.19
   3  -7  -1    4.92    0.20
  -3  -7   1    4.70    0.18
  -3   7   1    4.74    0.20
  -2  -7   1    4.61    0.18
   2  -7  -1    4.85    0.14
  -2  -7   1    5.06    0.16
   2  -7  -1    4.56    0.19
  -2   7   1    4.81    0.20
  -1  -7   1    8.87    0.20
  -1  -7   1    9.10    0.26
   1  -7  -1    9.37    0.26
   1  -7  -1    8.96    0.22
  -1   7   1    8.99    0.26
   0  -7   1    8.09    0.24
   0  -7  -1    7.92    0.22
   0  -7  -1    8.04    0.24
   0   7  -1    8.25    0.28
  -1  -7  -1   62.81    0.91
   1  -7   1   63.03    0.95
  -1  -7  -1   64.80    0.94
  -1   7  -1   61.85    1.01
   2  -7   1    1.26    0.12
  -2  -7  -1    1.17    0.11
  -2  -7  -1    1.32    0.11
  -2   7  -1    1.35    0.14
   3  -7   1    2.04    0.14
  -3  -7  -1    2.09    0.13
  -3  -7  -1    2.04    0.12
  -3   7  -1    2.15    0.16
   4  -7   1   32.58    0.61
  -4  -7  -1   32.71    0.58
  -4  -7  -1   33.13    0.61
  -4   7  -1   33.10    0.67
  -5  -7  -1   -0.06    0.03
  -5  -7  -1    0.00    0.05
   5  -7   1    0.08    0.05
  -5   7  -1    0.00    0.03
  -5   7  -1    0.08    0.06
  -6  -7  -1   19.86    0.43
   6  -7   1   20.58    0.49
  -6  -7  -1   20.09    0.50
  -6   7  -1   19.60    0.39
  -6   7  -1   20.11    0.55
  -7  -7  -1   37.83    0.67
  -7  -7  -1   37.84    0.77
   7  -7   1   37.86    0.75
  -7   7  -1   37.99    0.67
  -7   7  -1   37.98    0.85
  -8  -7  -1    0.02    0.05
   8  -7   1    0.01    0.05
  -8  -7  -1    0.02    0.07
  -8   7  -1    0.02    0.08
  -8   7  -1    0.10    0.06
  -9  -7  -1    0.59    0.11
  -9  -7  -1    0.91    0.17
   9  -7   1    0.58    0.12
  -9   7  -1    0.74    0.17
  -9   7  -1    0.47    0.11
 -10  -7  -1    4.10    0.32
 -10   7  -1    3.64    0.36
 -10   7  -1    4.26    0.26
 -10  -8   1    0.10    0.09
  10  -8  -1    0.13    0.10
 -10  -8   1    0.00    0.09
 -10   8   1    0.02    0.08
 -10   8   1    0.04    0.10
  -9  -8   1    1.14    0.16
   9  -8  -1    1.01    0.17
  -9  -8   1    0.86    0.17
  -9   8   1    1.14    0.19
  -9   8   1    0.86    0.13
  -8  -8   1    4.31    0.28
  -8  -8   1    4.13    0.23
   8  -8  -1    4.23    0.27
  -8   8   1    4.32    0.30
  -7  -8   1    1.17    0.15
   7  -8  -1    1.07    0.15
  -7  -8   1    1.05    0.14
  -7   8   1    1.16    0.17
   6  -8  -1    1.19    0.15
  -6  -8   1    1.13    0.13
  -6  -8   1    1.27    0.15
  -6   8   1    1.39    0.17
   5  -8  -1   10.92    0.36
  -5  -8   1   10.43    0.32
  -5  -8   1   10.16    0.32
  -5   8   1   10.60    0.36
  -4  -8   1   29.45    0.56
  -4  -8   1   29.69    0.57
   4  -8  -1   28.78    0.60
  -4   8   1   28.32    0.60
   3  -8  -1    9.14    0.29
  -3  -8   1    9.01    0.25
  -3  -8   1    9.37    0.28
  -3   8   1    8.99    0.30
  -2  -8   1   21.72    0.46
   2  -8  -1   21.96    0.37
  -2  -8   1   21.57    0.40
   2  -8  -1   22.17    0.48
  -2   8   1   22.12    0.48
   1  -8  -1   16.26    0.33
  -1  -8   1   16.81    0.39
  -1  -8   1   16.71    0.32
   1  -8  -1   16.47    0.39
  -1   8   1   16.54    0.40
   0  -8  -1   26.72    0.52
   0  -8  -1   25.93    0.48
   0  -8   1   26.64    0.52
   0   8  -1   26.25    0.57
  -1  -8  -1  245.58    3.03
  -1  -8  -1  240.27    3.03
   1  -8   1  235.13    3.04
  -1   8  -1  240.68    3.16
  -2  -8  -1    3.78    0.17
  -2  -8  -1    3.78    0.17
   2  -8   1    4.05    0.19
  -2   8  -1    4.02    0.21
   3  -8   1    4.04    0.20
  -3  -8  -1    4.23    0.19
  -3  -8  -1    4.35    0.19
  -3   8  -1    4.27    0.23
  -4  -8  -1   16.57    0.41
   4  -8   1   17.31    0.43
  -4  -8  -1   17.98    0.40
  -4   8  -1   17.28    0.47
   5  -8   1    3.45    0.20
  -5  -8  -1    3.15    0.17
  -5  -8  -1    3.56    0.21
  -5   8  -1    3.15    0.23
   6  -8   1    5.19    0.26
  -6  -8  -1    5.33    0.26
  -6  -8  -1    4.74    0.21
  -6   8  -1    5.03    0.18
  -6   8  -1    4.79    0.29
   7  -8   1   29.00    0.65
  -7  -8  -1   27.79    0.56
  -7  -8  -1   28.80    0.66
  -7   8  -1   28.18    0.53
  -7   8  -1   27.72    0.72
  -8  -8  -1    0.11    0.09
  -8  -8  -1    0.12    0.07
   8  -8   1    0.07    0.07
  -8   8  -1    0.16    0.06
  -8   8  -1    0.00    0.08
  -9  -8  -1    0.94    0.17
   9  -8   1    1.21    0.18
  -9   8  -1    0.96    0.19
  -9   8  -1    1.04    0.14
 -10  -8  -1    0.97    0.19
 -10   8  -1    0.78    0.19
  -9  -9   1   -0.10    0.06
  -9  -9   1    0.03    0.09
   9  -9  -1    0.02    0.08
  -9   9   1   -0.01    0.09
   8  -9  -1    0.28    0.10
  -8  -9   1    0.22    0.11
  -8  -9   1    0.25    0.09
  -8   9   1    0.35    0.11
  -7  -9   1    2.83    0.20
  -7  -9   1    2.92    0.25
   7  -9  -1    3.02    0.24
  -7   9   1    3.24    0.26
   6  -9  -1   11.69    0.41
  -6  -9   1   11.10    0.37
  -6  -9   1   12.13    0.37
  -6   9   1   12.02    0.42
  -5  -9   1   26.81    0.57
   5  -9  -1   27.25    0.62
  -5  -9   1   27.75    0.58
  -5   9   1   27.41    0.63
   4  -9  -1   15.39    0.43
  -4  -9   1   15.50    0.38
  -4  -9   1   14.77    0.39
  -4   9   1   14.71    0.42
   3  -9  -1    5.37    0.24
  -3  -9   1    5.26    0.21
  -3  -9   1    5.06    0.22
  -3   9   1    4.77    0.24
  -2  -9   1    0.66    0.08
  -2  -9   1    0.42    0.09
   2  -9  -1    0.63    0.10
  -2   9   1    0.44    0.09
  -1  -9   1    4.13    0.20
   1  -9  -1    4.37    0.20
   1  -9  -1    4.06    0.16
  -1  -9   1    4.18    0.15
  -1   9   1    3.80    0.20
   0  -9   1   10.76    0.32
   0  -9  -1   11.11    0.32
   0  -9  -1   10.30    0.28
   0   9  -1   10.87    0.36
   1  -9   1   11.21    0.33
  -1  -9  -1   11.29    0.30
  -1  -9  -1   13.06    0.34
  -1   9  -1   11.20    0.37
  -2  -9  -1   25.96    0.51
   2  -9   1   26.17    0.55
  -2  -9  -1   26.24    0.53
  -2   9  -1   25.60    0.60
  -3  -9  -1   20.56    0.46
  -3  -9  -1   20.14    0.45
   3  -9   1   19.49    0.48
  -3   9  -1   20.39    0.53
   4  -9   1    1.28    0.15
  -4  -9  -1    1.20    0.13
  -4  -9  -1    1.35    0.14
  -4   9  -1    1.39    0.17
  -5  -9  -1    3.14    0.18
   5  -9   1    3.00    0.21
  -5  -9  -1    3.30    0.21
  -5   9  -1    2.82    0.23
   6  -9   1    1.13    0.15
  -6  -9  -1    0.87    0.12
  -6  -9  -1    1.02    0.14
  -6   9  -1    1.06    0.17
  -7  -9  -1   31.58    0.72
   7  -9   1   32.66    0.73
  -7  -9  -1   32.58    0.64
  -7   9  -1   31.79    0.79
  -7   9  -1   32.12    0.57
  -8  -9  -1    0.16    0.08
   8  -9   1    0.05    0.07
  -8  -9  -1    0.11    0.09
  -8   9  -1    0.16    0.10
  -9  -9  -1    0.12    0.10
   9  -9   1    0.21    0.10
  -9   9  -1    0.07    0.11
  -9 -10   1    3.58    0.29
  -9 -10   1    4.34    0.26
   9 -10  -1    4.56    0.32
  -9  10   1    4.12    0.32
  -8 -10   1    0.11    0.07
  -8 -10   1   -0.01    0.07
   8 -10  -1   -0.02    0.07
  -8  10   1    0.12    0.09
   7 -10  -1    0.10    0.08
  -7 -10   1    0.07    0.09
  -7 -10   1    0.18    0.08
  -7  10   1    0.21    0.10
  -6 -10   1    1.09    0.15
  -6 -10   1    1.09    0.14
   6 -10  -1    1.19    0.17
  -6  10   1    1.51    0.20
   5 -10  -1    1.70    0.18
  -5 -10   1    2.24    0.18
  -5 -10   1    1.79    0.17
  -5  10   1    1.89    0.20
   4 -10  -1    0.03    0.05
  -4 -10   1   -0.01    0.05
  -4 -10   1    0.09    0.06
  -4  10   1   -0.03    0.06
  -3 -10   1    0.02    0.05
   3 -10  -1    0.04    0.05
  -3 -10   1    0.13    0.06
  -3  10   1    0.04    0.06
   2 -10  -1    1.04    0.13
  -2 -10   1    0.90    0.12
  -2 -10   1    0.90    0.10
  -2  10   1    1.06    0.14
  -1 -10   1    2.49    0.17
  -1 -10   1    2.19    0.14
   1 -10  -1    2.72    0.14
   1 -10  -1    2.52    0.17
  -1  10   1    2.89    0.20
   0 -10  -1    0.57    0.08
   0 -10  -1    0.52    0.09
   0 -10   1    0.56    0.09
   0  10  -1    0.49    0.10
  -1 -10  -1   15.76    0.37
   1 -10   1   15.30    0.41
  -1 -10  -1   15.98    0.41
  -1  10  -1   15.35    0.46
   2 -10   1    0.04    0.05
  -2 -10  -1    0.10    0.06
  -2 -10  -1    0.14    0.06
  -2  10  -1    0.13    0.07
  -3 -10  -1    0.51    0.09
   3 -10   1    0.43    0.10
  -3 -10  -1    0.52    0.10
  -3  10  -1    0.59    0.11
  -4 -10  -1    0.81    0.12
   4 -10   1    0.83    0.13
  -4 -10  -1    0.80    0.12
  -4  10  -1    0.90    0.14
   5 -10   1    5.83    0.28
  -5 -10  -1    5.61    0.27
  -5 -10  -1    4.87    0.23
  -5  10  -1    5.15    0.31
   6 -10   1    1.91    0.20
  -6 -10  -1    1.89    0.19
  -6 -10  -1    2.46    0.18
  -6  10  -1    2.01    0.24
  -7 -10  -1    0.81    0.13
   7 -10   1    0.80    0.14
  -7 -10  -1    0.78    0.14
  -7  10  -1    0.85    0.17
   8 -10   1    0.06    0.08
  -8 -10  -1    0.00    0.08
  -8 -10  -1    0.05    0.07
  -8  10  -1    0.07    0.09
  -9 -10  -1    2.18    0.25
   9 -10   1    2.36    0.26
  -9  10  -1    2.74    0.31
  -8 -11   1    0.31    0.12
  -8 -11   1    0.21    0.10
   8 -11  -1    0.28    0.12
  -8  11   1    0.27    0.12
  -7 -11   1    0.43    0.11
   7 -11  -1    0.90    0.16
  -7 -11   1    0.62    0.13
  -7  11   1    0.69    0.15
  -6 -11   1    1.12    0.15
   6 -11  -1    1.09    0.17
  -6 -11   1    1.19    0.16
  -6  11   1    1.18    0.18
  -5 -11   1   63.90    1.09
  -5 -11   1   64.85    1.07
   5 -11  -1   62.44    1.14
  -5  11   1   63.69    1.16
  -4 -11   1    4.87    0.25
   4 -11  -1    4.75    0.27
  -4 -11   1    5.41    0.24
  -4  11   1    5.03    0.28
   3 -11  -1   42.55    0.83
  -3 -11   1   42.43    0.73
  -3 -11   1   41.76    0.80
  -3  11   1   42.00    0.83
  -2 -11   1    0.61    0.09
   2 -11  -1    0.54    0.11
  -2 -11   1    0.42    0.09
  -2  11   1    0.59    0.12
   1 -11  -1   11.45    0.37
  -1 -11   1   11.87    0.29
  -1 -11   1   11.13    0.36
  -1  11   1   11.14    0.38
   0 -11  -1    5.32    0.25
   0 -11  -1    5.25    0.22
   0 -11   1    5.95    0.26
   0  11  -1    4.80    0.28
  -1 -11  -1   40.21    0.76
  -1 -11  -1   41.18    0.72
   1 -11   1   39.51    0.77
  -1  11  -1   39.52    0.83
  -2 -11  -1   12.28    0.37
  -2 -11  -1   12.76    0.36
   2 -11   1   12.48    0.39
  -2  11  -1   12.65    0.43
  -3 -11  -1    0.45    0.09
  -3 -11  -1    0.27    0.08
   3 -11   1    0.46    0.11
  -3  11  -1    0.38    0.11
  -4 -11  -1    0.08    0.06
   4 -11   1    0.00    0.06
  -4 -11  -1    0.42    0.10
  -4  11  -1   -0.04    0.07
  -5 -11  -1    3.61    0.24
  -5 -11  -1    3.90    0.22
   5 -11   1    4.29    0.26
  -5  11  -1    3.97    0.29
  -6 -11  -1    0.73    0.12
   6 -11   1    0.61    0.13
  -6 -11  -1    0.51    0.12
  -6  11  -1    0.49    0.14
  -7 -11  -1   32.89    0.76
  -7 -11  -1   33.18    0.70
   7 -11   1   33.54    0.79
  -7  11  -1   32.41    0.85
  -8 -11  -1    0.56    0.12
  -8 -11  -1    0.71    0.15
   8 -11   1    0.63    0.14
  -8  11  -1    0.43    0.15
   8 -12  -1    2.73    0.29
  -8 -12   1    2.94    0.23
  -8 -12   1    2.72    0.26
  -8  12   1    2.98    0.31
  -7 -12   1   -0.09    0.06
  -7 -12   1    0.05    0.09
   7 -12  -1    0.24    0.11
  -7  12   1    0.08    0.10
   6 -12  -1    3.06    0.28
  -6 -12   1    3.20    0.24
  -6 -12   1    3.30    0.23
  -6  12   1    3.20    0.29
  -5 -12   1    7.16    0.30
   5 -12  -1    7.33    0.35
  -5 -12   1    7.34    0.32
  -5  12   1    7.36    0.36
   4 -12  -1   17.76    0.53
  -4 -12   1   16.16    0.47
  -4 -12   1   17.76    0.45
  -4  12   1   17.96    0.54
  -3 -12   1    0.28    0.09
   3 -12  -1    0.39    0.11
  -3 -12   1    0.31    0.08
  -3  12   1    0.35    0.10
  -2 -12   1   39.20    0.79
  -2 -12   1   40.56    0.69
   2 -12  -1   37.81    0.80
  -2  12   1   39.39    0.81
   1 -12  -1    0.42    0.11
  -1 -12   1    0.48    0.11
  -1 -12   1    0.46    0.08
   0 -12   1    0.34    0.10
   0 -12  -1    0.02    0.05
   0 -12  -1   -0.04    0.05
  -1 -12  -1   56.71    1.02
   1 -12   1   58.14    1.04
  -1 -12  -1   59.17    0.97
  -1  12  -1   59.54    1.12
   2 -12   1    0.35    0.10
  -2 -12  -1    0.33    0.09
  -2 -12  -1    0.38    0.10
  -2  12  -1    0.24    0.10
  -3 -12  -1    7.97    0.31
   3 -12   1    7.66    0.33
  -3 -12  -1    7.67    0.30
  -3  12  -1    7.19    0.36
  -4 -12  -1    7.02    0.30
  -4 -12  -1    7.30    0.30
   4 -12   1    7.73    0.34
  -4  12  -1    6.88    0.36
  -5 -12  -1    1.74    0.18
   5 -12   1    2.43    0.24
  -5 -12  -1    2.17    0.20
  -5  12  -1    1.82    0.23
  -6 -12  -1    4.45    0.25
   6 -12   1    4.47    0.29
  -6 -12  -1    5.05    0.28
  -6  12  -1    4.70    0.34
  -7 -12  -1   14.08    0.49
  -7 -12  -1   13.28    0.43
   7 -12   1   13.57    0.50
  -7  12  -1   13.29    0.54
  -8 -12  -1    1.15    0.18
  -8  12  -1    1.47    0.24
  -7 -13   1    0.59    0.13
  -7 -13   1    0.58    0.14
   7 -13  -1    0.59    0.15
  -7  13   1    0.79    0.17
  -6 -13   1    0.04    0.08
  -6 -13   1    0.01    0.07
   6 -13  -1    0.09    0.09
  -6  13   1    0.05    0.08
   5 -13  -1    5.74    0.32
  -5 -13   1    5.29    0.28
  -5 -13   1    5.67    0.30
  -5  13   1    5.12    0.32
   4 -13  -1    0.12    0.08
  -4 -13   1    0.04    0.07
  -4 -13   1    0.02    0.07
  -4  13   1   -0.02    0.08
  -3 -13   1    0.19    0.08
  -3 -13   1    0.28    0.10
   3 -13  -1    0.31    0.10
  -3  13   1    0.21    0.10
   2 -13  -1    2.76    0.25
  -2 -13   1    2.81    0.19
  -2 -13   1    2.98    0.22
  -2  13   1    2.49    0.23
  -1 -13   1    2.70    0.21
   1 -13  -1    2.88    0.22
   0 -13   1    0.62    0.12
   0 -13  -1    0.85    0.14
  -1 -13  -1    3.67    0.23
  -1 -13  -1    3.59    0.24
   1 -13   1    3.61    0.25
  -1  13  -1    3.72    0.29
   2 -13   1    0.21    0.09
  -2 -13  -1    0.28    0.10
  -2 -13  -1    0.32    0.09
  -2  13  -1    0.80    0.16
  -3 -13  -1    0.13    0.09
   3 -13   1    0.10    0.08
  -3 -13  -1    0.09    0.08
  -3  13  -1    0.22    0.10
  -4 -13  -1   19.76    0.52
   4 -13   1   18.97    0.56
  -4 -13  -1   18.85    0.52
  -4  13  -1   18.39    0.60
  -5 -13  -1    0.41    0.11
  -5 -13  -1    0.41    0.11
   5 -13   1    0.66    0.14
  -5  13  -1    0.51    0.15
   6 -13   1    0.20    0.11
  -6 -13  -1    0.14    0.09
  -6 -13  -1    0.01    0.08
  -6  13  -1    0.19    0.12
  -7 -13  -1    0.95    0.15
  -7 -13  -1    0.88    0.16
   7 -13   1    0.88    0.18
  -7  13  -1    0.87    0.19
  -6 -14   1    0.08    0.09
   6 -14  -1   -0.07    0.07
  -6 -14   1   -0.11    0.07
  -6  14   1    0.17    0.11
  -5 -14   1    2.94    0.23
   5 -14  -1    2.70    0.27
  -5 -14   1    2.55    0.23
  -5  14   1    3.13    0.30
  -4 -14   1    1.76    0.20
   4 -14  -1    1.15    0.18
  -4 -14   1    1.63    0.17
  -4  14   1    1.89    0.23
  -3 -14   1    1.53    0.16
   3 -14  -1    1.40    0.20
  -3 -14   1    1.28    0.17
  -3  14   1    1.31    0.19
   2 -14  -1    6.51    0.33
  -2 -14   1    6.45    0.31
  -2  14   1    6.92    0.35
   1 -14  -1    7.59    0.35
  -1 -14   1    7.20    0.33
   0 -14  -1    0.79    0.14
   0 -14   1    0.65    0.13
   1 -14   1    1.66    0.20
  -1 -14  -1    0.87    0.15
  -1  14  -1    1.04    0.18
   2 -14   1    0.90    0.16
  -2 -14  -1    0.84    0.14
  -2 -14  -1    1.12    0.15
  -2  14  -1    1.01    0.18
  -3 -14  -1    8.79    0.37
  -3 -14  -1    9.13    0.36
   3 -14   1    9.30    0.40
  -3  14  -1    9.35    0.44
  -4 -14  -1    1.93    0.20
   4 -14   1    1.82    0.22
  -4 -14  -1    1.60    0.18
  -4  14  -1    1.64    0.23
  -5 -14  -1    1.89    0.21
   5 -14   1    2.17    0.25
  -5 -14  -1    2.32    0.22
  -5  14  -1    1.97    0.26
  -6 -14  -1    0.54    0.13
  -6 -14  -1    0.44    0.12
   6 -14   1    0.42    0.13
  -6  14  -1    0.32    0.14
  -5 -15   1   11.87    0.45
   5 -15  -1   11.56    0.49
  -5 -15   1   11.44    0.42
  -5  15   1   12.72    0.50
   4 -15  -1    1.73    0.23
  -4 -15   1    1.79    0.21
  -4  15   1    1.54    0.22
   3 -15  -1    7.27    0.37
  -3 -15   1    7.67    0.36
  -3  15   1    6.83    0.37
  -2 -15   1    0.27    0.10
   2 -15  -1    0.28    0.11
  -1 -15   1    8.67    0.38
   1 -15  -1    8.66    0.39
   0 -15  -1    2.62    0.26
   0 -15   1    2.27    0.24
   1 -15   1    3.95    0.28
  -1 -15  -1    4.72    0.29
   2 -15   1    0.17    0.10
  -2 -15  -1    0.17    0.10
  -2  15  -1    0.21    0.12
   3 -15   1    0.04    0.08
  -3 -15  -1    0.07    0.07
  -3 -15  -1   -0.01    0.07
  -3  15  -1   -0.01    0.09
  -4 -15  -1    0.22    0.11
   4 -15   1    0.05    0.09
  -4 -15  -1    0.52    0.13
  -4  15  -1   -0.01    0.09
  -5 -15  -1    0.97    0.17
  -5 -15  -1    0.89    0.16
   5 -15   1    0.96    0.19
  -5  15  -1    1.02    0.21
   3 -16  -1    0.99    0.18
  -3 -16   1    0.91    0.16
  -3  16   1    0.93    0.18
   2 -16  -1    5.18    0.33
  -2 -16   1    5.87    0.33
  -1 -16   1    0.12    0.09
   1 -16  -1    0.01    0.10
   0 -16   1    2.14    0.25
   0 -16  -1    2.56    0.26
   1 -16   1   20.71    0.63
  -1 -16  -1   20.66    0.61
  -2 -16  -1    0.17    0.10
   2 -16   1    0.16    0.10
  -2  16  -1   -0.09    0.09
   3 -16   1    0.12    0.09
  -3 -16  -1    0.00    0.08
  -3  16  -1    0.03    0.10
 -11   0   2    3.38    0.26
 -11   0   2    3.62    0.33
 -10   0   2    2.79    0.25
 -10   0   2    2.44    0.24
  -9   0   2    8.41    0.36
  -9   0   2    7.79    0.33
  -8   0   2   41.57    0.80
  -7   0   2    1.67    0.17
  -6   0   2    2.56    0.17
  -5   0   2    1.82    0.13
  -4   0   2  399.26    5.09
  -3   0   2   17.07    0.34
  -2   0   2    2.71    0.11
   1   0  -2    6.43    0.16
   0   0   2    6.85    0.13
   0   0  -2    7.02    0.13
   0   0  -2    6.55    0.15
   0   0   2    6.74    0.13
   0   0  -2    6.57    0.13
  -1   0  -2    8.99    0.18
   1   0   2    9.09    0.13
  -1   0  -2    9.12    0.13
  -2   0  -2  321.84    4.16
  -3   0  -2   49.67    0.72
  -4   0  -2    6.58    0.14
  -4   0  -2    6.61    0.20
  -4   0  -2    7.15    0.14
  -5   0  -2    0.37    0.05
  -5   0  -2    0.17    0.05
  -6   0  -2   41.38    0.72
  -6   0  -2   40.94    0.60
  -7   0  -2    0.66    0.08
  -7   0  -2    0.62    0.10
  -8   0  -2   50.68    0.77
  -8   0  -2   51.52    0.93
  -9   0  -2    8.66    0.36
 -10   0  -2    0.27    0.11
 -11   0  -2    2.18    0.26
 -11  -1   2    0.90    0.16
 -11  -1   2    0.58    0.17
 -11   1   2    0.88    0.16
 -11   1   2    0.75    0.17
 -10  -1   2    9.84    0.37
 -10  -1   2    9.74    0.42
 -10   1   2    9.39    0.38
 -10   1   2   10.08    0.41
  -9  -1   2   14.50    0.43
  -9  -1   2   15.38    0.48
  -9   1   2   15.73    0.47
  -8  -1   2    2.81    0.20
  -8   1   2    2.86    0.22
  -7  -1   2    0.36    0.09
  -7   1   2    0.43    0.10
  -6  -1   2    1.92    0.14
  -6   1   2    2.02    0.16
  -5  -1   2    0.56    0.08
  -5   1   2    0.56    0.09
   4  -1  -2   32.91    0.56
  -4  -1   2   32.38    0.57
  -3  -1   2   10.41    0.25
   3  -1  -2   10.53    0.25
  -2  -1   2   17.76    0.32
   2  -1  -2   17.51    0.32
   1  -1  -2    3.23    0.10
   1  -1  -2    3.12    0.10
  -1  -1   2    3.02    0.10
   0  -1   2    0.08    0.02
   0  -1  -2    0.05    0.02
   0  -1   2    0.06    0.02
   0  -1  -2    0.04    0.01
   0   1  -2    0.03    0.01
   0   1  -2    0.00    0.01
   0   1  -2    0.03    0.01
   0   1   2    0.07    0.02
  -1  -1  -2    6.67    0.11
   1  -1   2    6.56    0.12
  -1  -1  -2    6.72    0.16
  -1   1  -2    6.69    0.16
  -1   1  -2    6.61    0.12
   1   1   2    6.57    0.11
  -1   1  -2    6.55    0.14
  -2  -1  -2  156.15    2.09
   2  -1   2  157.78    1.94
  -2   1  -2  161.22    1.93
  -2   1  -2  157.53    2.07
   3  -1   2    0.29    0.03
  -3  -1  -2    0.23    0.05
  -3   1  -2    0.16    0.04
  -3   1  -2    0.26    0.03
  -4  -1  -2    2.32    0.08
   4  -1   2    2.34    0.09
  -4  -1  -2    2.36    0.12
  -4  -1  -2    2.38    0.07
  -4   1  -2    2.25    0.12
  -5  -1  -2   22.28    0.35
  -5  -1  -2   22.58    0.46
  -5   1  -2   23.32    0.45
  -6  -1  -2    2.86    0.17
  -6  -1  -2    2.96    0.11
  -6   1  -2    2.66    0.17
  -6   1  -2    2.68    0.13
  -7  -1  -2   15.43    0.30
  -7  -1  -2   15.61    0.41
  -7   1  -2   15.67    0.40
  -7   1  -2   14.73    0.33
  -8  -1  -2   15.93    0.46
  -8  -1  -2   16.23    0.33
  -8   1  -2   15.91    0.36
  -8   1  -2   16.83    0.46
  -9  -1  -2    0.21    0.10
  -9   1  -2    0.23    0.10
 -10  -1  -2   -0.06    0.07
 -10   1  -2   -0.08    0.08
 -11  -1  -2    2.62    0.28
 -11   1  -2    2.28    0.25
 -11  -2   2    1.58    0.19
 -11  -2   2    1.77    0.24
 -11   2   2    1.79    0.24
 -11   2   2    1.49    0.20
 -10  -2   2    1.19    0.18
 -10  -2   2    1.16    0.16
 -10   2   2    1.02    0.17
 -10   2   2    1.11    0.17
  -9  -2   2    0.03    0.08
  -9  -2   2    0.34    0.10
  -9   2   2    0.10    0.09
  -8  -2   2    1.57    0.16
  -8  -2   2    1.32    0.17
  -8   2   2    1.35    0.17
  -7  -2   2    7.41    0.27
  -7   2   2    7.94    0.30
   6  -2  -2    7.96    0.27
  -6  -2   2    6.99    0.25
  -5  -2   2   19.84    0.42
   5  -2  -2   19.78    0.43
  -4  -2   2   28.87    0.52
   4  -2  -2   29.52    0.52
  -3  -2   2    3.45    0.14
   3  -2  -2    3.06    0.13
   2  -2  -2    0.17    0.04
   2  -2  -2    0.14    0.03
  -2  -2   2    0.13    0.04
   1  -2  -2   78.73    1.05
  -1  -2   2   82.20    1.04
   1  -2  -2   78.19    1.03
   0  -2  -2   10.12    0.19
   0  -2   2   10.27    0.19
   0  -2  -2    9.90    0.21
   0  -2   2   10.19    0.17
   0   2  -2   10.08    0.17
   0   2  -2   10.05    0.22
  -1  -2  -2    0.03    0.01
   1  -2   2    0.05    0.02
   1  -2   2    0.04    0.02
  -1   2  -2    0.04    0.02
  -1   2  -2    0.03    0.02
   1   2   2    0.12    0.02
  -2  -2  -2    7.51    0.19
   2  -2   2    7.55    0.15
  -2  -2  -2    7.62    0.13
   2   2   2    7.30    0.14
  -2   2  -2    7.30    0.15
  -3  -2  -2   24.42    0.33
  -3  -2  -2   23.67    0.42
   3  -2   2   24.23    0.36
  -3   2  -2   23.85    0.38
   3   2   2   23.44    0.34
  -4  -2  -2    5.36    0.12
  -4  -2  -2    5.34    0.19
   4  -2   2    5.36    0.15
  -4   2  -2    5.52    0.17
  -5  -2  -2    8.41    0.26
  -5  -2  -2    7.89    0.17
   5  -2   2    8.24    0.20
  -5   2  -2    8.18    0.23
   6  -2   2    2.13    0.12
  -6  -2  -2    1.71    0.15
  -6  -2  -2    2.08    0.10
  -6   2  -2    2.01    0.15
  -7  -2  -2   -0.02    0.05
  -7  -2  -2   -0.01    0.03
  -7   2  -2    0.07    0.05
  -7   2  -2    0.04    0.04
  -8  -2  -2    1.25    0.16
  -8  -2  -2    0.92    0.09
  -8   2  -2    1.25    0.13
  -8   2  -2    1.12    0.15
  -9  -2  -2    3.58    0.26
  -9   2  -2    3.75    0.20
  -9   2  -2    4.36    0.26
 -10  -2  -2    1.08    0.18
 -10   2  -2    1.22    0.18
 -11  -2  -2    0.26    0.12
 -11   2  -2    0.29    0.11
 -11  -3   2    0.16    0.11
 -11  -3   2    0.22    0.13
 -11   3   2    0.44    0.14
 -11   3   2    0.00    0.10
 -10  -3   2    7.13    0.36
 -10  -3   2    6.18    0.30
 -10   3   2    6.89    0.36
 -10   3   2    7.06    0.35
  -9  -3   2   13.62    0.41
  -9  -3   2   13.75    0.46
  -9   3   2   13.78    0.46
  -8  -3   2    2.47    0.22
  -8  -3   2    2.71    0.20
  -8   3   2    2.54    0.23
  -7  -3   2    0.10    0.06
   7  -3  -2    0.23    0.07
   6  -3  -2   12.25    0.35
  -6  -3   2   11.87    0.33
   5  -3  -2    0.51    0.09
  -5  -3   2    0.37    0.07
  -4  -3   2   97.71    1.34
   4  -3  -2   99.03    1.36
  -3  -3   2    0.74    0.08
   3  -3  -2    0.91    0.09
   2  -3  -2   12.56    0.25
   2  -3  -2   12.16    0.27
  -2  -3   2   12.65    0.26
  -2   3   2   12.81    0.23
   1  -3  -2    4.22    0.13
  -1  -3   2    4.28    0.13
   1  -3  -2    4.52    0.14
   1   3  -2    4.32    0.16
   0  -3  -2    2.74    0.11
   0  -3   2    3.01    0.08
   0  -3   2    2.94    0.10
   0  -3  -2    2.77    0.10
   0   3  -2    2.99    0.13
  -1  -3  -2   21.17    0.37
   1  -3   2   21.50    0.34
  -1  -3  -2   21.21    0.33
  -1   3  -2   21.22    0.40
  -2  -3  -2  306.59    3.74
   2  -3   2  306.69    3.96
  -2  -3  -2  305.09    3.97
  -2   3  -2  301.98    3.97
  -2   3  -2  303.22    3.79
  -3  -3  -2    1.16    0.09
  -3  -3  -2    0.98    0.06
   3  -3   2    0.95    0.07
  -3   3  -2    0.99    0.10
  -3   3  -2    1.12    0.07
  -4  -3  -2   37.76    0.64
  -4  -3  -2   38.81    0.54
   4  -3   2   38.30    0.58
  -4   3  -2   38.50    0.59
  -5  -3  -2    4.45    0.19
   5  -3   2    4.74    0.16
  -5  -3  -2    4.38    0.13
  -5   3  -2    4.43    0.17
   6  -3   2    3.33    0.15
  -6  -3  -2    2.94    0.18
  -6  -3  -2    2.98    0.12
  -6   3  -2    3.14    0.17
  -7  -3  -2   16.58    0.44
  -7  -3  -2   16.17    0.32
   7  -3   2   16.47    0.37
  -7   3  -2   16.87    0.41
  -8  -3  -2    4.33    0.16
  -8  -3  -2    4.15    0.25
  -8   3  -2    3.76    0.23
  -8   3  -2    3.85    0.20
  -9  -3  -2    3.37    0.25
  -9   3  -2    3.18    0.23
  -9   3  -2    3.18    0.20
 -10  -3  -2    2.26    0.24
 -10   3  -2    1.98    0.21
 -11  -3  -2    3.92    0.32
 -11   3  -2    3.59    0.29
 -11  -4   2   -0.12    0.08
 -11   4   2    0.13    0.10
 -11   4   2    0.04    0.10
 -10  -4   2    8.53    0.40
 -10  -4   2    8.47    0.34
 -10   4   2    8.18    0.37
 -10   4   2    8.07    0.38
  -9  -4   2    3.72    0.23
  -9  -4   2    3.49    0.26
  -9   4   2    3.56    0.26
  -8  -4   2   14.66    0.45
  -8  -4   2   14.77    0.41
   8  -4  -2   13.63    0.43
  -7  -4   2    5.10    0.25
   7  -4  -2    4.93    0.24
  -7  -4   2    5.66    0.24
   6  -4  -2    0.39    0.08
  -6  -4   2    0.54    0.09
   5  -4  -2   18.80    0.43
  -5  -4   2   18.87    0.41
   4  -4  -2  174.84    2.25
  -4  -4   2  173.09    2.22
  -3  -4   2   26.14    0.46
   3  -4  -2   25.98    0.48
  -3   4   2   25.20    0.44
   2  -4  -2    0.09    0.03
   2  -4  -2    0.04    0.03
  -2  -4   2    0.12    0.04
  -2   4   2    0.10    0.03
   1  -4  -2  205.71    2.47
  -1  -4   2  202.91    2.62
   1  -4  -2  198.83    2.76
  -1   4   2  201.83    2.54
   1   4  -2  196.49    2.57
   0  -4  -2    1.16    0.09
   0  -4  -2    1.23    0.07
   0  -4   2    1.41    0.08
   0   4  -2    1.36    0.11
  -1  -4  -2    0.32    0.05
   1  -4   2    0.11    0.03
  -1  -4  -2    0.12    0.03
  -1   4  -2    0.02    0.03
  -2  -4  -2  179.07    2.19
   2  -4   2  180.37    2.28
  -2  -4  -2  183.57    2.29
  -2   4  -2  176.43    2.33
   3  -4   2    0.57    0.06
  -3  -4  -2    0.71    0.08
  -3  -4  -2    0.52    0.05
  -3   4  -2    0.66    0.09
  -3   4  -2    0.64    0.05
  -4  -4  -2    4.35    0.18
   4  -4   2    4.36    0.16
  -4  -4  -2    4.41    0.13
  -4   4  -2    4.25    0.21
  -4   4  -2    4.33    0.14
   5  -4   2    0.05    0.03
  -5  -4  -2    0.07    0.03
  -5  -4  -2    0.15    0.05
  -5   4  -2    0.00    0.03
   6  -4   2   10.56    0.29
  -6  -4  -2   10.28    0.33
  -6  -4  -2   10.97    0.24
  -6   4  -2   10.35    0.29
   7  -4   2    3.11    0.17
  -7  -4  -2    3.14    0.21
  -7  -4  -2    3.53    0.14
  -7   4  -2    3.10    0.18
   8  -4   2   57.67    0.93
  -8  -4  -2   58.08    1.06
  -8  -4  -2   58.63    0.85
  -8   4  -2   58.48    0.99
  -9  -4  -2    0.08    0.08
  -9   4  -2    0.06    0.08
  -9   4  -2    0.09    0.07
 -10  -4  -2    0.98    0.17
 -10   4  -2    0.99    0.16
 -11  -4  -2    0.18    0.12
 -11   4  -2    0.08    0.09
 -10  -5   2    2.52    0.26
 -10  -5   2    2.80    0.22
 -10   5   2    3.34    0.26
 -10   5   2    2.79    0.28
  -9  -5   2    0.03    0.09
   9  -5  -2   -0.03    0.06
  -9  -5   2    0.18    0.08
   8  -5  -2    0.41    0.11
  -8  -5   2    0.41    0.10
  -8  -5   2    0.53    0.12
  -7  -5   2   29.02    0.62
  -7  -5   2   28.41    0.58
   7  -5  -2   26.78    0.62
   6  -5  -2    5.68    0.25
  -6  -5   2    5.44    0.24
  -6  -5   2    5.79    0.23
  -5  -5   2    0.07    0.05
   5  -5  -2    0.03    0.04
  -5  -5   2    0.04    0.04
   4  -5  -2   33.97    0.62
  -4  -5   2   33.88    0.59
  -4   5   2   34.25    0.60
  -3  -5   2   49.40    0.77
   3  -5  -2   49.11    0.78
  -3   5   2   50.17    0.75
  -2  -5   2   49.83    0.75
   2  -5  -2   50.99    0.77
   2  -5  -2   49.71    0.72
  -2   5   2   49.15    0.72
   1  -5  -2    5.59    0.18
  -1  -5   2    6.05    0.18
   1  -5  -2    5.98    0.18
  -1   5   2    5.54    0.16
   1   5  -2    5.54    0.21
   0  -5  -2    0.15    0.04
   0  -5  -2    0.15    0.04
   0  -5   2    0.06    0.03
   0   5  -2    0.09    0.04
  -1  -5  -2   16.55    0.31
   1  -5   2   16.62    0.33
  -1  -5  -2   15.89    0.33
  -1   5  -2   16.20    0.38
  -2  -5  -2  156.18    1.92
  -2  -5  -2  153.73    1.99
   2  -5   2  150.43    1.94
  -2   5  -2  152.65    2.05
  -3  -5  -2    3.86    0.14
   3  -5   2    4.15    0.15
  -3  -5  -2    3.75    0.16
  -3   5  -2    4.44    0.20
   4  -5   2    8.69    0.24
  -4  -5  -2    8.95    0.27
  -4  -5  -2    8.87    0.21
  -4   5  -2    8.71    0.30
  -4   5  -2    8.39    0.19
  -5  -5  -2   82.06    1.10
  -5  -5  -2   81.44    1.23
   5  -5   2   79.74    1.16
  -5   5  -2   80.94    1.30
  -5   5  -2   80.95    1.12
  -6  -5  -2    0.00    0.05
  -6  -5  -2    0.07    0.04
   6  -5   2    0.04    0.04
  -6   5  -2    0.04    0.07
  -6   5  -2   -0.02    0.04
  -7  -5  -2    3.31    0.15
   7  -5   2    3.26    0.19
  -7  -5  -2    3.45    0.22
  -7   5  -2    3.02    0.18
  -8  -5  -2    8.39    0.25
  -8  -5  -2    8.96    0.36
   8  -5   2    9.04    0.31
  -8   5  -2    8.85    0.31
  -9  -5  -2    4.68    0.30
   9  -5   2    4.73    0.24
  -9   5  -2    4.55    0.26
 -10  -5  -2    6.91    0.37
 -10   5  -2    6.77    0.33
  10  -6  -2    1.01    0.18
 -10  -6   2    0.87    0.15
 -10  -6   2    0.73    0.16
 -10   6   2    0.76    0.15
  -9  -6   2    1.79    0.22
  -9  -6   2    1.76    0.19
   8  -6  -2    1.58    0.19
  -8  -6   2    1.34    0.17
  -8  -6   2    1.62    0.17
  -7  -6   2    0.08    0.07
   7  -6  -2    0.06    0.06
  -7  -6   2    0.02    0.07
   6  -6  -2   23.58    0.55
  -6  -6   2   23.74    0.51
  -6  -6   2   23.25    0.52
  -6   6   2   24.19    0.55
  -5  -6   2   15.28    0.38
   5  -6  -2   15.06    0.40
  -5  -6   2   15.55    0.38
  -5   6   2   15.33    0.39
  -4  -6   2    5.52    0.20
  -4  -6   2    5.51    0.21
   4  -6  -2    5.32    0.22
  -4   6   2    5.26    0.20
  -3  -6   2    0.90    0.09
   3  -6  -2    1.03    0.12
  -3  -6   2    0.88    0.10
  -3   6   2    0.90    0.09
  -2  -6   2    1.26    0.10
  -2  -6   2    1.23    0.08
   2  -6  -2    1.38    0.10
   2  -6  -2    1.44    0.10
  -2   6   2    1.43    0.10
   1  -6  -2  255.14    3.16
  -1  -6   2  250.27    3.11
  -1  -6   2  251.66    3.25
   1  -6  -2  257.83    3.24
  -1   6   2  254.79    3.14
   1   6  -2  246.88    3.26
   0  -6  -2    0.01    0.03
   0  -6   2    0.06    0.03
   0  -6  -2    0.05    0.03
   0   6  -2    0.24    0.06
  -1  -6  -2    6.96    0.20
  -1  -6  -2    7.08    0.21
   1  -6   2    7.02    0.21
  -1   6  -2    7.24    0.25
  -2  -6  -2    7.53    0.21
   2  -6   2    7.94    0.23
  -2  -6  -2    7.52    0.23
  -2   6  -2    8.07    0.27
   3  -6   2   18.19    0.38
  -3  -6  -2   17.53    0.35
  -3  -6  -2   17.72    0.39
  -3   6  -2   17.91    0.44
   4  -6   2    7.59    0.24
  -4  -6  -2    7.84    0.26
  -4  -6  -2    7.89    0.22
  -4   6  -2    7.93    0.30
  -5  -6  -2    8.27    0.29
  -5  -6  -2    8.30    0.23
   5  -6   2    8.13    0.26
  -5   6  -2    7.99    0.32
  -5   6  -2    8.30    0.21
  -6  -6  -2   12.97    0.30
   6  -6   2   12.51    0.35
  -6  -6  -2   12.72    0.39
  -6   6  -2   12.43    0.43
  -6   6  -2   12.39    0.30
  -7  -6  -2    0.21    0.06
  -7  -6  -2    0.21    0.09
   7  -6   2    0.13    0.06
  -7   6  -2    0.12    0.06
  -7   6  -2    0.29    0.11
   8  -6   2    0.49    0.10
  -8  -6  -2    0.42    0.08
  -8  -6  -2    0.40    0.11
  -8   6  -2    0.23    0.08
  -8   6  -2    0.27    0.11
   9  -6   2    0.67    0.12
  -9  -6  -2    0.65    0.14
  -9   6  -2    0.89    0.18
  -9   6  -2    0.89    0.14
 -10  -6  -2    1.94    0.24
 -10   6  -2    2.32    0.22
 -10   6  -2    2.12    0.28
 -10  -7   2    2.70    0.29
 -10  -7   2    2.91    0.23
  10  -7  -2    3.22    0.30
 -10   7   2    3.17    0.33
 -10   7   2    2.71    0.25
  -9  -7   2   -0.09    0.08
   9  -7  -2    0.07    0.08
  -9  -7   2    0.06    0.08
  -9   7   2    0.10    0.09
   8  -7  -2    1.58    0.19
  -8  -7   2    1.22    0.17
  -8  -7   2    1.27    0.16
  -8   7   2    1.07    0.17
   7  -7  -2   19.33    0.53
  -7  -7   2   20.08    0.49
  -7  -7   2   19.75    0.51
  -7   7   2   20.40    0.54
   6  -7  -2    0.17    0.08
  -6  -7   2    0.59    0.11
  -6  -7   2    0.16    0.07
  -6   7   2    0.26    0.08
  -5  -7   2    3.93    0.20
  -5  -7   2    3.37    0.19
   5  -7  -2    3.48    0.21
  -5   7   2    3.52    0.20
  -4  -7   2   14.00    0.33
   4  -7  -2   13.81    0.38
  -4  -7   2   13.57    0.35
  -4   7   2   13.83    0.35
  -3  -7   2   27.46    0.53
  -3  -7   2   27.45    0.48
   3  -7  -2   27.05    0.55
  -3   7   2   26.97    0.51
   2  -7  -2   27.10    0.52
  -2  -7   2   26.05    0.51
  -2  -7   2   26.60    0.44
   2  -7  -2   26.37    0.46
  -2   7   2   26.12    0.49
   1  -7  -2    0.52    0.07
  -1  -7   2    0.40    0.07
   1  -7  -2    0.27    0.06
  -1  -7   2    0.50    0.05
  -1   7   2    0.38    0.06
   0  -7  -2   32.17    0.57
   0  -7  -2   31.47    0.56
   0  -7   2   32.36    0.58
   0   7  -2   32.65    0.65
  -1  -7  -2   34.45    0.58
   1  -7   2   33.31    0.59
  -1  -7  -2   33.49    0.59
  -1   7  -2   33.45    0.66
   2  -7   2   51.76    0.82
  -2  -7  -2   50.75    0.81
  -2  -7  -2   51.94    0.79
  -2   7  -2   50.38    0.89
  -3  -7  -2    4.56    0.18
   3  -7   2    4.11    0.18
  -3  -7  -2    4.34    0.19
  -3   7  -2    4.32    0.22
   4  -7   2    1.00    0.11
  -4  -7  -2    0.96    0.12
  -4  -7  -2    1.20    0.11
  -4   7  -2    1.11    0.14
   5  -7   2   22.59    0.50
  -5  -7  -2   22.73    0.51
  -5  -7  -2   22.54    0.44
  -5   7  -2   22.54    0.57
  -6  -7  -2    0.07    0.05
   6  -7   2    0.11    0.06
  -6  -7  -2    0.06    0.07
  -6   7  -2    0.07    0.05
  -6   7  -2    0.03    0.07
  -7  -7  -2    0.85    0.14
  -7  -7  -2    1.06    0.11
   7  -7   2    1.07    0.14
  -7   7  -2    1.02    0.17
  -7   7  -2    0.83    0.11
  -8  -7  -2    3.88    0.18
  -8  -7  -2    4.08    0.27
   8  -7   2    3.31    0.22
  -8   7  -2    3.52    0.29
  -8   7  -2    3.81    0.21
   9  -7   2    0.14    0.08
  -9  -7  -2    0.02    0.09
  -9   7  -2    0.27    0.12
  -9   7  -2    0.15    0.07
 -10  -7  -2    1.10    0.19
 -10   7  -2    1.45    0.18
 -10   7  -2    0.99    0.20
 -10  -8   2    1.67    0.20
 -10  -8   2    1.24    0.20
  10  -8  -2    1.49    0.22
 -10   8   2    1.24    0.18
 -10   8   2    1.08    0.21
  -9  -8   2    1.15    0.17
  -9  -8   2    1.08    0.19
   9  -8  -2    1.13    0.18
  -9   8   2    0.92    0.18
  -8  -8   2    1.13    0.15
  -8  -8   2    0.96    0.16
   8  -8  -2    0.99    0.16
  -8   8   2    0.91    0.16
  -7  -8   2    2.44    0.22
   7  -8  -2    2.58    0.24
  -7  -8   2    2.91    0.20
  -7   8   2    2.54    0.23
  -6  -8   2    0.26    0.08
  -6  -8   2    0.41    0.09
   6  -8  -2    0.34    0.09
  -6   8   2    0.38    0.10
  -5  -8   2    6.64    0.25
   5  -8  -2    6.42    0.28
  -5  -8   2    6.53    0.26
  -5   8   2    6.18    0.26
  -4  -8   2    0.88    0.11
   4  -8  -2    0.96    0.13
  -4  -8   2    1.30    0.12
  -4   8   2    1.11    0.13
  -3  -8   2    0.06    0.05
   3  -8  -2    0.28    0.07
  -3  -8   2    0.24    0.07
  -3   8   2    0.31    0.07
  -2  -8   2    8.40    0.27
  -2  -8   2    8.13    0.21
   2  -8  -2    8.51    0.27
   2  -8  -2    7.84    0.22
  -2   8   2    8.00    0.26
   1  -8  -2  105.68    1.47
  -1  -8   2  105.84    1.35
  -1  -8   2  103.84    1.47
   1  -8  -2  101.19    1.43
  -1   8   2  104.61    1.46
   0  -8  -2    8.80    0.27
   0  -8  -2    8.41    0.26
   0  -8   2    8.95    0.27
   0   8  -2    8.96    0.32
  -1  -8  -2    1.10    0.11
   1  -8   2    1.30    0.13
  -1  -8  -2    1.27    0.13
  -1   8  -2    1.24    0.15
   2  -8   2    0.42    0.08
  -2  -8  -2    0.38    0.07
  -2  -8  -2    0.68    0.09
  -2   8  -2    0.46    0.09
  -3  -8  -2    7.84    0.24
  -3  -8  -2    7.62    0.27
   3  -8   2    7.67    0.27
  -3   8  -2    7.88    0.31
  -4  -8  -2    0.27    0.08
   4  -8   2    0.37    0.08
  -4  -8  -2    0.28    0.07
  -4   8  -2    0.39    0.10
   5  -8   2    1.00    0.13
  -5  -8  -2    0.79    0.10
  -5  -8  -2    0.90    0.13
  -5   8  -2    0.56    0.12
  -6  -8  -2   -0.01    0.05
   6  -8   2    0.01    0.05
  -6  -8  -2    0.06    0.07
  -6   8  -2   -0.04    0.06
  -6   8  -2    0.00    0.04
  -7  -8  -2    0.28    0.08
  -7  -8  -2    0.37    0.11
   7  -8   2    0.45    0.11
  -7   8  -2    0.66    0.15
  -7   8  -2    0.16    0.07
   8  -8   2    8.26    0.34
  -8  -8  -2    8.37    0.28
  -8  -8  -2    8.59    0.37
  -8   8  -2    8.47    0.42
  -8   8  -2    8.36    0.28
  -9  -8  -2    4.48    0.31
   9  -8   2    4.57    0.28
  -9   8  -2    4.47    0.36
  -9  -9   2    0.39    0.13
   9  -9  -2    0.45    0.13
  -9  -9   2    0.74    0.14
  -9   9   2    0.67    0.16
  -8  -9   2   -0.10    0.06
  -8  -9   2   -0.08    0.06
   8  -9  -2   -0.05    0.07
  -8   9   2    0.03    0.08
  -7  -9   2   48.30    0.92
  -7  -9   2   47.01    0.89
   7  -9  -2   46.90    0.95
  -7   9   2   47.78    0.95
   6  -9  -2    0.71    0.13
  -6  -9   2    0.97    0.14
  -6  -9   2    0.97    0.14
  -6   9   2    0.72    0.13
  -5  -9   2   19.10    0.47
   5  -9  -2   18.75    0.50
  -5  -9   2   18.44    0.45
  -5   9   2   18.51    0.48
  -4  -9   2    0.89    0.12
  -4  -9   2    0.71    0.10
   4  -9  -2    0.66    0.12
  -4   9   2    1.46    0.15
  -3  -9   2    0.04    0.05
   3  -9  -2    0.00    0.04
  -3  -9   2   -0.01    0.04
  -3   9   2    0.06    0.05
   2  -9  -2    0.52    0.07
  -2  -9   2    0.29    0.08
   2  -9  -2    0.39    0.08
  -2  -9   2    0.44    0.07
  -2   9   2    0.57    0.10
  -1  -9   2    1.25    0.13
  -1  -9   2    1.39    0.10
   1  -9  -2    1.38    0.14
   1  -9  -2    1.77    0.14
  -1   9   2    1.59    0.14
   0  -9  -2    9.35    0.29
   0  -9  -2    8.82    0.28
   0  -9   2    9.46    0.30
   0   9  -2    9.82    0.35
   1  -9   2    4.23    0.20
  -1  -9  -2    4.51    0.20
  -1  -9  -2    4.40    0.20
  -1   9  -2    4.40    0.25
   2  -9   2    3.09    0.18
  -2  -9  -2    2.87    0.17
  -2  -9  -2    3.32    0.19
  -2   9  -2    3.37    0.22
   3  -9   2   15.85    0.42
  -3  -9  -2   16.15    0.41
  -3  -9  -2   15.97    0.39
  -3   9  -2   16.35    0.48
   4  -9   2    2.67    0.18
  -4  -9  -2    2.82    0.17
  -4  -9  -2    2.69    0.19
  -4   9  -2    2.78    0.22
  -5  -9  -2  104.16    1.49
   5  -9   2  104.95    1.57
  -5  -9  -2  104.38    1.58
  -5   9  -2  106.34    1.70
  -6  -9  -2    1.26    0.17
   6  -9   2    1.59    0.17
  -6  -9  -2    1.18    0.13
  -6   9  -2    1.31    0.20
  -7  -9  -2    0.04    0.06
  -7  -9  -2   -0.07    0.07
   7  -9   2    0.11    0.07
  -7   9  -2    0.09    0.09
  -8  -9  -2    0.74    0.15
   8  -9   2    0.83    0.15
  -8  -9  -2    0.95    0.12
  -8   9  -2    0.90    0.18
   9  -9   2    5.23    0.31
  -9  -9  -2    4.70    0.32
  -9   9  -2    4.68    0.36
  -9 -10   2    0.59    0.13
  -9 -10   2    0.61    0.15
   9 -10  -2    0.73    0.16
  -9  10   2    0.68    0.16
  -8 -10   2    1.22    0.19
  -8 -10   2    0.91    0.15
   8 -10  -2    0.93    0.17
  -8  10   2    0.94    0.17
  -7 -10   2    3.64    0.25
  -7 -10   2    3.49    0.23
   7 -10  -2    3.69    0.27
  -7  10   2    3.22    0.26
  -6 -10   2   32.73    0.70
   6 -10  -2   32.94    0.76
  -6 -10   2   33.12    0.69
  -6  10   2   32.71    0.73
  -5 -10   2    0.83    0.13
  -5 -10   2    0.88    0.12
   5 -10  -2    0.74    0.14
  -5  10   2    0.81    0.13
  -4 -10   2    5.79    0.23
   4 -10  -2    5.47    0.27
  -4 -10   2    6.13    0.26
  -4  10   2    5.81    0.27
  -3 -10   2    0.89    0.10
  -3 -10   2    1.05    0.13
   3 -10  -2    1.28    0.16
  -3  10   2    1.20    0.14
   2 -10  -2    4.10    0.22
   2 -10  -2    4.15    0.17
  -2 -10   2    4.25    0.17
  -2 -10   2    4.17    0.22
  -2  10   2    4.35    0.22
  -1 -10   2   78.20    1.06
  -1 -10   2   77.63    1.21
   1 -10  -2   78.73    1.22
   1 -10  -2   76.39    1.15
   0 -10   2    0.58    0.10
   0 -10  -2    0.68    0.10
   0 -10  -2    0.43    0.09
   0  10  -2    0.52    0.11
  -1 -10  -2    9.76    0.31
  -1 -10  -2    9.77    0.31
   1 -10   2    9.47    0.32
  -1  10  -2    8.87    0.36
  -2 -10  -2   18.73    0.45
   2 -10   2   18.84    0.47
  -2 -10  -2   19.16    0.45
  -2  10  -2   19.03    0.54
   3 -10   2    1.26    0.15
  -3 -10  -2    0.79    0.11
  -3 -10  -2    0.97    0.13
  -3  10  -2    0.93    0.15
   4 -10   2    9.67    0.35
  -4 -10  -2    9.88    0.34
  -4 -10  -2    9.31    0.31
  -4  10  -2    9.19    0.40
  -5 -10  -2   19.43    0.51
   5 -10   2   19.92    0.52
  -5 -10  -2   18.55    0.46
  -5  10  -2   19.18    0.58
   6 -10   2    0.70    0.13
  -6 -10  -2    0.59    0.11
  -6 -10  -2    0.38    0.11
  -6  10  -2    0.62    0.15
  -7 -10  -2    0.22    0.08
   7 -10   2    0.27    0.10
  -7 -10  -2    0.27    0.11
  -7  10  -2    0.26    0.12
  -8 -10  -2    0.90    0.17
   8 -10   2    1.07    0.17
  -8 -10  -2    0.99    0.14
  -8  10  -2    1.00    0.19
  -9 -10  -2    0.06    0.10
  -9  10  -2    0.17    0.13
  -8 -11   2    0.14    0.10
   8 -11  -2    0.21    0.11
  -8 -11   2    0.30    0.11
  -8  11   2    0.15    0.09
  -7 -11   2    5.80    0.30
   7 -11  -2    6.08    0.34
  -7 -11   2    5.23    0.28
  -7  11   2    5.40    0.32
   6 -11  -2    3.06    0.25
  -6 -11   2    2.99    0.22
  -6 -11   2    2.76    0.22
  -6  11   2    2.83    0.26
  -5 -11   2    0.14    0.07
   5 -11  -2    0.09    0.09
  -5 -11   2    0.25    0.08
  -5  11   2    0.08    0.08
   4 -11  -2    2.15    0.21
  -4 -11   2    2.16    0.20
  -4 -11   2    2.09    0.17
  -4  11   2    2.35    0.21
  -3 -11   2    0.42    0.08
   3 -11  -2    0.52    0.11
  -3 -11   2    0.55    0.11
  -3  11   2    0.52    0.11
   2 -11  -2    7.45    0.23
  -2 -11   2    6.92    0.29
  -2 -11   2    7.17    0.23
   2 -11  -2    7.27    0.30
  -2  11   2    7.00    0.29
   1 -11  -2    0.56    0.11
   1 -11  -2    0.84    0.10
  -1 -11   2    0.64    0.11
   0 -11  -2   16.82    0.42
   0 -11  -2   17.73    0.46
   0 -11   2   16.47    0.45
   0  11  -2   16.59    0.51
  -1 -11  -2    2.18    0.18
  -1 -11  -2    1.85    0.17
   1 -11   2    1.88    0.18
  -1  11  -2    2.26    0.22
   2 -11   2    5.93    0.27
  -2 -11  -2    5.93    0.27
  -2 -11  -2    6.01    0.26
  -2  11  -2    6.27    0.33
  -3 -11  -2    0.00    0.06
   3 -11   2    0.04    0.06
  -3 -11  -2    0.01    0.06
  -3  11  -2    0.07    0.09
  -4 -11  -2    0.73    0.12
  -4 -11  -2    0.64    0.11
   4 -11   2    0.61    0.12
  -4  11  -2    0.78    0.16
  -5 -11  -2   15.33    0.46
   5 -11   2   15.35    0.47
  -5 -11  -2   15.53    0.43
  -5  11  -2   16.10    0.55
  -6 -11  -2    0.06    0.07
   6 -11   2    0.07    0.07
  -6 -11  -2   -0.05    0.06
  -6  11  -2    0.04    0.08
  -7 -11  -2    2.17    0.23
   7 -11   2    2.34    0.24
  -7 -11  -2    3.01    0.20
  -7  11  -2    2.76    0.30
  -8 -11  -2    0.08    0.07
   8 -11   2    0.04    0.09
  -8 -11  -2    0.01    0.09
  -8  11  -2   -0.03    0.10
  -8 -12   2    0.40    0.13
  -8 -12   2    0.15    0.09
  -8  12   2    0.46    0.14
  -7 -12   2    2.21    0.23
  -7 -12   2    1.93    0.21
   7 -12  -2    2.12    0.25
  -7  12   2    2.10    0.24
  -6 -12   2    0.51    0.12
   6 -12  -2    0.60    0.14
  -6 -12   2    0.47    0.12
  -6  12   2    0.62    0.14
  -5 -12   2    0.39    0.11
  -5 -12   2    0.62    0.12
   5 -12  -2    0.50    0.13
  -5  12   2    0.41    0.11
  -4 -12   2    4.91    0.27
   4 -12  -2    4.97    0.29
  -4 -12   2    5.42    0.25
  -4  12   2    5.27    0.29
  -3 -12   2    6.94    0.31
  -3 -12   2    6.39    0.26
   3 -12  -2    6.55    0.31
  -3  12   2    7.30    0.32
   2 -12  -2    0.66    0.12
  -2 -12   2    0.69    0.12
  -2 -12   2    0.87    0.10
  -2  12   2    0.86    0.14
  -1 -12   2    0.31    0.09
   1 -12  -2    0.40    0.10
   1 -12  -2    0.40    0.08
   0 -12   2    2.40    0.19
   0 -12  -2    1.86    0.17
   0 -12  -2    1.78    0.19
   0  12  -2    1.68    0.21
  -1 -12  -2   18.31    0.48
   1 -12   2   18.38    0.50
  -1 -12  -2   18.42    0.49
  -1  12  -2   17.51    0.56
  -2 -12  -2    0.24    0.08
   2 -12   2    0.36    0.10
  -2 -12  -2    0.28    0.09
  -2  12  -2    0.41    0.12
  -3 -12  -2    1.35    0.16
   3 -12   2    1.18    0.16
  -3 -12  -2    1.32    0.16
  -3  12  -2    1.13    0.18
  -4 -12  -2    0.31    0.09
  -4 -12  -2    0.10    0.08
   4 -12   2    0.23    0.10
  -4  12  -2    0.15    0.10
  -5 -12  -2    2.92    0.20
   5 -12   2    3.33    0.24
  -5 -12  -2    3.51    0.25
  -5  12  -2    3.54    0.29
  -6 -12  -2    0.65    0.12
  -6 -12  -2    0.71    0.15
   6 -12   2    0.64    0.14
  -6  12  -2    0.50    0.15
   7 -12   2    0.20    0.11
  -7 -12  -2    0.22    0.09
  -7 -12  -2    0.26    0.11
  -7  12  -2    0.22    0.12
  -8 -12  -2    8.50    0.41
  -7 -13   2    9.59    0.40
   7 -13  -2    9.70    0.45
  -7 -13   2    9.75    0.40
  -7  13   2    9.63    0.44
  -6 -13   2    1.02    0.15
  -6 -13   2    0.59    0.14
   6 -13  -2    1.04    0.18
  -6  13   2    0.82    0.16
   5 -13  -2   13.43    0.49
  -5 -13   2   12.76    0.44
  -5 -13   2   14.06    0.42
  -5  13   2   13.63    0.48
  -4 -13   2    4.36    0.24
  -4 -13   2    3.80    0.25
   4 -13  -2    3.95    0.27
  -4  13   2    3.97    0.27
   3 -13  -2    8.95    0.38
  -3 -13   2    8.43    0.35
  -3 -13   2    8.35    0.29
  -3  13   2    8.59    0.36
  -2 -13   2    1.40    0.13
   2 -13  -2    1.40    0.18
  -2 -13   2    1.44    0.18
  -2  13   2    1.41    0.18
   1 -13  -2    0.11    0.06
  -1 -13   2    0.18    0.09
   1 -13  -2    0.02    0.07
   0 -13  -2   10.74    0.35
   0 -13  -2   11.69    0.41
   0 -13   2   11.29    0.40
   1 -13   2   14.92    0.47
  -1 -13  -2   15.59    0.44
  -1 -13  -2   14.85    0.46
  -1  13  -2   15.08    0.53
  -2 -13  -2   10.48    0.38
  -2 -13  -2    9.98    0.37
   2 -13   2   10.20    0.39
  -2  13  -2   10.41    0.45
  -3 -13  -2    8.50    0.34
  -3 -13  -2    8.27    0.34
   3 -13   2    7.77    0.35
  -3  13  -2    8.90    0.42
   4 -13   2    1.99    0.23
  -4 -13  -2    2.27    0.22
  -4 -13  -2    2.10    0.21
  -4  13  -2    1.87    0.25
   5 -13   2   22.27    0.63
  -5 -13  -2   24.17    0.59
  -5 -13  -2   24.19    0.62
  -5  13  -2   23.97    0.72
  -6 -13  -2    0.82    0.15
   6 -13   2    0.66    0.15
  -6 -13  -2    0.68    0.13
  -6  13  -2    0.50    0.15
  -7 -13  -2    0.21    0.10
  -7 -13  -2    0.24    0.11
   7 -13   2    0.21    0.11
  -7  13  -2    0.29    0.14
   6 -14  -2    4.71    0.33
  -6 -14   2    4.91    0.30
  -6 -14   2    4.85    0.29
  -6  14   2    4.48    0.32
   5 -14  -2    6.33    0.36
  -5 -14   2    6.85    0.34
  -5 -14   2    6.78    0.31
  -5  14   2    6.57    0.36
   4 -14  -2    0.88    0.16
  -4 -14   2    0.96    0.13
  -4 -14   2    0.61    0.13
  -4  14   2    0.78    0.16
  -3 -14   2    0.23    0.10
   3 -14  -2    0.13    0.08
  -3  14   2    0.19    0.09
   2 -14  -2    0.03    0.07
  -2 -14   2    0.01    0.08
   1 -14  -2   17.03    0.53
  -1 -14   2   18.01    0.53
   0 -14  -2    0.00    0.07
   0 -14   2    0.10    0.08
  -1 -14  -2    0.60    0.12
   1 -14   2    0.48    0.12
  -1 -14  -2    0.39    0.11
  -1  14  -2    0.35    0.13
   2 -14   2    2.03    0.21
  -2 -14  -2    2.40    0.22
  -2 -14  -2    2.20    0.22
  -2  14  -2    2.09    0.25
  -3 -14  -2    3.05    0.23
   3 -14   2    3.62    0.26
  -3 -14  -2    3.19    0.25
  -3  14  -2    2.88    0.30
  -4 -14  -2    0.88    0.15
   4 -14   2    0.99    0.17
  -4 -14  -2    0.75    0.14
  -4  14  -2    0.81    0.18
  -5 -14  -2    0.13    0.08
  -5 -14  -2    0.02    0.08
   5 -14   2    0.20    0.10
  -5  14  -2    0.03    0.10
  -6 -14  -2    0.44    0.13
   6 -14   2    0.52    0.15
  -6 -14  -2    0.74    0.14
  -6  14  -2    0.67    0.17
   5 -15  -2    1.85    0.24
  -5 -15   2    2.23    0.24
  -5  15   2    1.69    0.23
  -4 -15   2    7.13    0.35
   4 -15  -2    7.59    0.39
  -4  15   2    7.31    0.38
  -3 -15   2    7.28    0.35
   3 -15  -2    6.83    0.36
  -3  15   2    7.46    0.37
   2 -15  -2    8.07    0.38
  -2 -15   2    8.10    0.37
   1 -15  -2    0.04    0.09
  -1 -15   2    0.18    0.10
   0 -15   2    2.60    0.26
   0 -15  -2    2.92    0.27
  -1 -15  -2    1.51    0.19
   1 -15   2    1.19    0.19
  -1  15  -2    1.07    0.20
  -2 -15  -2   20.64    0.59
   2 -15   2   19.42    0.60
  -2  15  -2   20.38    0.67
  -3 -15  -2    3.20    0.26
  -3 -15  -2    3.31    0.25
   3 -15   2    3.26    0.30
  -3  15  -2    2.89    0.32
  -4 -15  -2    1.71    0.21
   4 -15   2    1.96    0.24
  -4 -15  -2    2.16    0.23
  -4  15  -2    2.27    0.29
  -5 -15  -2    0.02    0.09
   5 -15   2   -0.01    0.08
  -5 -15  -2    0.11    0.10
  -5  15  -2    0.06    0.11
   3 -16  -2    6.20    0.37
  -3 -16   2    6.10    0.34
   2 -16  -2    0.01    0.08
  -2 -16   2   -0.04    0.08
   1 -16  -2    0.38    0.13
  -1 -16   2    0.45    0.13
   0 -16   2    0.43    0.14
   0 -16  -2    0.14    0.10
  -1 -16  -2    6.26    0.34
   1 -16   2    5.85    0.34
   2 -16   2    1.30    0.20
  -2 -16  -2    1.62    0.21
  -2  16  -2    1.40    0.23
  -3 -16  -2    1.76    0.22
   3 -16   2    1.96    0.25
  -3  16  -2    1.65    0.26
 -11   0   3    0.31    0.12
 -11   0   3    0.03    0.10
 -10   0   3   -0.14    0.08
 -10   0   3   -0.13    0.07
  -9   0   3   -0.07    0.07
  -8   0   3    0.07    0.08
  -7   0   3    0.06    0.06
  -6   0   3    0.11    0.07
  -5   0   3   -0.04    0.04
  -4   0   3    0.00    0.03
  -3   0   3   -0.11    0.03
  -2   0   3    0.05    0.03
  -1   0   3    0.08    0.02
   1   0  -3    0.05    0.02
  -1   0   3    0.01    0.02
   0   0  -3   -0.06    0.02
   0   0  -3    0.00    0.02
   0   0   3    0.05    0.03
  -1   0  -3   -0.05    0.02
   1   0   3   -0.04    0.02
  -2   0  -3    0.03    0.03
  -3   0  -3   -0.15    0.03
  -4   0  -3    0.03    0.03
  -5   0  -3    0.06    0.04
  -6   0  -3    0.06    0.05
  -7   0  -3    0.12    0.06
  -8   0  -3    0.04    0.07
  -9   0  -3    0.04    0.08
 -10   0  -3    0.20    0.11
 -11   0  -3    0.12    0.10
 -11  -1   3   16.82    0.54
 -11  -1   3   17.80    0.59
 -11   1   3   17.85    0.59
 -11   1   3   17.35    0.56
 -10  -1   3    4.93    0.29
 -10  -1   3    5.30    0.33
 -10   1   3    5.55    0.32
  -9  -1   3    1.55    0.19
  -9   1   3    1.41    0.19
  -8  -1   3    8.24    0.33
  -8   1   3    8.48    0.35
  -7  -1   3    0.32    0.09
  -7   1   3    0.26    0.08
  -6  -1   3   62.16    1.02
  -6   1   3   62.98    1.03
  -5  -1   3    0.08    0.05
  -5   1   3    0.16    0.06
  -4  -1   3    0.84    0.10
   4  -1  -3    1.11    0.12
  -4   1   3    0.98    0.11
  -3  -1   3    0.69    0.09
   3  -1  -3    0.67    0.08
   2  -1  -3    2.40    0.11
   2  -1  -3    2.56    0.11
  -2  -1   3    2.48    0.12
   1  -1  -3   13.67    0.28
   1  -1  -3   14.29    0.27
  -1  -1   3   14.12    0.28
   1   1  -3   14.73    0.26
   1   1  -3   13.56    0.27
   0  -1   3   24.18    0.38
   0  -1  -3   24.19    0.37
   0  -1  -3   24.73    0.34
   0   1  -3   24.87    0.40
   0   1  -3   24.02    0.39
   1  -1   3    1.14    0.06
  -1  -1  -3    1.09    0.08
  -1  -1  -3    1.00    0.05
  -1   1  -3    1.05    0.07
  -1   1  -3    1.07    0.08
   1   1   3    1.03    0.05
  -1   1  -3    1.08    0.05
  -2  -1  -3    9.24    0.22
   2  -1   3    9.16    0.15
  -2   1  -3    9.26    0.21
  -2   1  -3    8.77    0.15
  -3  -1  -3    9.08    0.23
  -3   1  -3    8.81    0.21
  -4  -1  -3    0.12    0.05
   4  -1   3    0.04    0.02
  -4   1  -3    0.04    0.03
  -5  -1  -3   44.40    0.74
  -5   1  -3   42.63    0.71
  -6  -1  -3   15.43    0.39
  -6   1  -3   15.72    0.38
  -6   1  -3   14.74    0.28
  -7  -1  -3    7.94    0.30
  -7   1  -3    7.81    0.28
  -7   1  -3    7.91    0.20
  -8  -1  -3    7.79    0.33
  -8   1  -3    8.04    0.32
  -8   1  -3    8.22    0.22
  -9  -1  -3    4.05    0.27
  -9   1  -3    3.97    0.26
 -10  -1  -3    4.29    0.30
 -10   1  -3    4.12    0.30
 -11  -1  -3    2.78    0.29
 -11   1  -3    2.53    0.27
 -11  -2   3    1.07    0.19
 -11  -2   3    1.20    0.19
 -11   2   3    1.19    0.19
 -11   2   3    1.24    0.20
 -10  -2   3    8.96    0.41
 -10  -2   3    9.25    0.38
 -10   2   3    8.81    0.40
  -9  -2   3    0.13    0.08
  -9   2   3   -0.01    0.07
  -8  -2   3   10.62    0.37
  -8   2   3   10.14    0.38
  -7  -2   3    0.80    0.13
  -7   2   3    0.71    0.13
   6  -2  -3   30.85    0.62
  -6  -2   3   31.43    0.62
   5  -2  -3   62.06    0.98
  -5  -2   3   62.87    0.98
   4  -2  -3   21.88    0.45
  -4  -2   3   21.96    0.45
   3  -2  -3    7.30    0.22
  -3  -2   3    7.15    0.22
   2  -2  -3    0.05    0.03
  -2  -2   3    0.05    0.03
   2  -2  -3    0.02    0.02
   1  -2  -3    3.10    0.13
  -1  -2   3    3.56    0.13
   1  -2  -3    3.24    0.12
   1   2  -3    3.00    0.13
   0  -2  -3  376.35    5.18
   0  -2  -3  392.56    5.00
   0  -2   3  397.41    5.02
   0   2  -3  387.54    4.98
   0   2  -3  404.05    5.24
  -1  -2  -3   41.79    0.55
   1  -2   3   41.25    0.56
  -1   2  -3   40.41    0.59
  -1   2  -3   42.08    0.64
  -2  -2  -3   29.92    0.50
   2  -2   3   30.10    0.42
  -2  -2  -3   30.30    0.40
  -2   2  -3   29.94    0.46
   2   2   3   29.85    0.40
  -2   2  -3   30.00    0.52
  -3  -2  -3    0.26    0.06
   3  -2   3    0.24    0.04
  -3   2  -3    0.20    0.05
  -4  -2  -3   41.28    0.68
   4  -2   3   40.87    0.57
  -4   2  -3   41.38    0.64
  -5  -2  -3   -0.01    0.04
   5  -2   3    0.05    0.03
  -5   2  -3    0.03    0.04
  -6  -2  -3   44.15    0.58
  -6  -2  -3   44.69    0.79
   6  -2   3   42.90    0.64
  -6   2  -3   43.04    0.74
  -7  -2  -3    2.71    0.10
  -7  -2  -3    2.48    0.19
  -7   2  -3    2.88    0.14
  -7   2  -3    3.06    0.18
  -8  -2  -3    0.04    0.07
  -8   2  -3    0.02    0.06
  -8   2  -3    0.13    0.05
  -9  -2  -3    0.45    0.13
  -9   2  -3    0.30    0.10
 -10  -2  -3    1.30    0.21
 -10   2  -3    1.18    0.18
 -11  -2  -3    4.18    0.32
 -11   2  -3    3.64    0.30
 -11  -3   3    4.76    0.34
 -11  -3   3    4.32    0.29
 -11   3   3    5.35    0.34
 -11   3   3    4.53    0.32
 -10  -3   3    1.33    0.19
 -10  -3   3    1.11    0.17
 -10   3   3    1.25    0.20
  -9  -3   3    0.18    0.10
  -9  -3   3    0.43    0.11
  -9   3   3    0.26    0.10
  -8  -3   3    5.92    0.28
  -8   3   3    5.37    0.29
  -7  -3   3    2.88    0.19
   7  -3  -3    2.69    0.19
  -6  -3   3   21.82    0.50
   6  -3  -3   23.44    0.52
   5  -3  -3   35.09    0.65
  -5  -3   3   33.44    0.63
  -4  -3   3   44.11    0.74
   4  -3  -3   45.33    0.75
   3  -3  -3    5.33    0.19
  -3  -3   3    5.80    0.20
   2  -3  -3   20.98    0.38
  -2  -3   3   20.07    0.38
   2  -3  -3   20.51    0.39
  -1  -3   3   16.95    0.32
   1  -3  -3   16.92    0.32
   1  -3  -3   17.09    0.34
   1   3  -3   16.70    0.36
   0  -3  -3   85.71    1.10
   0  -3   3   84.15    1.10
   0  -3  -3   82.87    1.16
   0   3  -3   85.94    1.18
   0   3  -3   83.75    1.07
   1  -3   3   14.54    0.26
   1  -3   3   13.31    0.24
  -1  -3  -3   13.89    0.30
  -1  -3  -3   14.12    0.25
  -1   3  -3   13.92    0.24
  -1   3  -3   14.33    0.32
  -2  -3  -3   27.20    0.49
   2  -3   3   27.99    0.43
  -2  -3  -3   27.71    0.40
  -2   3  -3   27.14    0.51
  -2   3  -3   28.12    0.42
  -3  -3  -3  102.82    1.27
  -3  -3  -3  102.88    1.42
   3  -3   3  102.25    1.31
  -3   3  -3  104.25    1.34
  -3   3  -3  105.09    1.47
  -4  -3  -3    5.77    0.21
   4  -3   3    5.50    0.16
  -4  -3  -3    5.64    0.13
  -4   3  -3    5.44    0.17
  -5  -3  -3    0.08    0.05
   5  -3   3    0.14    0.04
  -5  -3  -3    0.14    0.03
  -5   3  -3    0.17    0.05
   6  -3   3   59.96    0.86
  -6  -3  -3   58.91    0.99
  -6  -3  -3   60.14    0.78
  -6   3  -3   59.08    0.93
   7  -3   3    1.03    0.10
  -7  -3  -3    1.19    0.08
  -7  -3  -3    0.99    0.14
  -7   3  -3    1.04    0.13
  -8  -3  -3    3.12    0.23
  -8   3  -3    3.07    0.21
  -8   3  -3    2.92    0.17
  -9  -3  -3    0.04    0.08
  -9   3  -3    0.02    0.07
 -10  -3  -3    2.40    0.25
 -10   3  -3    2.22    0.23
 -11  -3  -3   -0.08    0.09
 -11   3  -3    0.06    0.10
 -11  -4   3    0.55    0.16
 -11  -4   3    0.67    0.15
 -11   4   3    0.66    0.16
 -11   4   3    0.74    0.16
 -10  -4   3    4.23    0.27
 -10  -4   3    3.47    0.29
 -10   4   3    4.05    0.30
  -9  -4   3    0.12    0.09
  -9  -4   3    0.12    0.09
  -9   4   3    0.16    0.10
  -8  -4   3    8.90    0.36
  -8  -4   3    9.19    0.34
   8  -4  -3    8.80    0.35
  -7  -4   3   21.32    0.51
   7  -4  -3   20.53    0.52
  -6  -4   3    4.17    0.21
   6  -4  -3    4.87    0.23
  -5  -4   3    1.78    0.14
   5  -4  -3    1.80    0.14
   4  -4  -3    5.14    0.21
  -4  -4   3    5.45    0.21
  -3  -4   3  243.38    3.03
   3  -4  -3  245.50    3.14
   3  -4  -3  241.04    3.18
   2  -4  -3    4.98    0.17
  -2  -4   3    4.99    0.17
   2  -4  -3    4.95    0.17
   1  -4  -3    2.03    0.11
   1  -4  -3    2.14    0.11
  -1  -4   3    2.17    0.11
   1   4  -3    2.05    0.13
   0  -4  -3    3.75    0.13
   0  -4   3    3.93    0.14
   0  -4  -3    3.68    0.15
   0   4  -3    3.56    0.16
   1  -4   3    0.01    0.02
  -1  -4  -3    0.11    0.03
  -1  -4  -3    0.00    0.03
  -1   4  -3    0.06    0.04
   2  -4   3    1.03    0.07
  -2  -4  -3    0.89    0.09
  -2  -4  -3    0.92    0.07
  -2   4  -3    1.00    0.11
  -3  -4  -3   26.07    0.40
   3  -4   3   26.28    0.44
  -3  -4  -3   26.10    0.50
  -3   4  -3   26.28    0.41
  -3   4  -3   26.03    0.54
   4  -4   3   50.01    0.74
  -4  -4  -3   51.60    0.69
  -4  -4  -3   49.93    0.83
  -4   4  -3   49.96    0.73
  -4   4  -3   52.28    0.89
  -5  -4  -3    1.57    0.08
   5  -4   3    1.40    0.11
  -5  -4  -3    1.31    0.14
  -5   4  -3    1.28    0.15
  -5   4  -3    1.50    0.11
  -6  -4  -3    2.79    0.11
  -6  -4  -3    2.41    0.18
   6  -4   3    2.84    0.15
  -6   4  -3    2.81    0.16
  -7  -4  -3   14.01    0.27
  -7  -4  -3   13.61    0.42
   7  -4   3   13.21    0.33
  -7   4  -3   13.86    0.37
  -8  -4  -3    0.04    0.08
   8  -4   3    0.16    0.06
  -8   4  -3   -0.01    0.07
  -9  -4  -3   13.05    0.46
  -9   4  -3   13.78    0.43
 -10  -4  -3    1.55    0.21
 -10   4  -3    1.71    0.20
 -10  -5   3    0.15    0.10
 -10  -5   3    0.15    0.12
 -10   5   3    0.04    0.09
  -9  -5   3   17.65    0.54
   9  -5  -3   16.83    0.53
  -9  -5   3   17.67    0.50
  -8  -5   3    1.07    0.16
   8  -5  -3    0.85    0.14
  -8  -5   3    0.67    0.12
  -7  -5   3    0.62    0.12
  -7  -5   3    0.77    0.12
   7  -5  -3    0.68    0.12
   6  -5  -3   20.74    0.51
  -6  -5   3   21.38    0.49
  -5  -5   3    0.16    0.06
   5  -5  -3    0.11    0.06
  -4  -5   3   28.26    0.54
   4  -5  -3   27.60    0.56
  -4   5   3   27.71    0.50
   3  -5  -3    0.72    0.09
  -3  -5   3    0.79    0.09
   3  -5  -3    0.75    0.08
  -3   5   3    0.75    0.08
   2  -5  -3   19.66    0.40
  -2  -5   3   19.31    0.40
   2  -5  -3   19.97    0.39
  -2   5   3   19.40    0.33
  -1  -5   3    4.62    0.17
   1  -5  -3    4.73    0.17
   1  -5  -3    4.57    0.18
   1   5  -3    5.08    0.21
   0  -5  -3   17.31    0.34
   0  -5   3   16.80    0.34
   0  -5  -3   17.11    0.37
   0   5  -3   17.05    0.40
   1  -5   3    8.03    0.22
  -1  -5  -3    7.87    0.20
  -1  -5  -3    7.80    0.24
  -1   5  -3    7.92    0.26
   2  -5   3   10.84    0.26
  -2  -5  -3   10.73    0.24
  -2  -5  -3   11.02    0.29
  -2   5  -3   11.38    0.32
  -3  -5  -3   60.00    0.82
  -3  -5  -3   59.87    0.93
   3  -5   3   59.91    0.86
  -3   5  -3   57.82    0.98
  -4  -5  -3    0.03    0.05
  -4  -5  -3    0.23    0.05
   4  -5   3    0.02    0.03
  -4   5  -3    0.03    0.03
  -4   5  -3    0.01    0.05
  -5  -5  -3   10.11    0.23
  -5  -5  -3   10.13    0.32
   5  -5   3    9.61    0.27
  -5   5  -3    9.65    0.24
  -5   5  -3    9.56    0.35
  -6  -5  -3    8.62    0.32
   6  -5   3    8.73    0.26
  -6  -5  -3    8.83    0.22
  -6   5  -3    8.40    0.35
  -6   5  -3    8.37    0.25
   7  -5   3    0.48    0.09
  -7  -5  -3    0.36    0.11
  -7  -5  -3    0.53    0.07
  -7   5  -3    0.45    0.09
  -7   5  -3    0.28    0.11
  -8  -5  -3    0.01    0.08
   8  -5   3    0.18    0.07
  -8   5  -3    0.18    0.08
  -9  -5  -3    0.39    0.12
  -9   5  -3    0.51    0.12
 -10  -5  -3    6.44    0.37
 -10   5  -3    5.69    0.32
 -10  -6   3    0.21    0.13
  10  -6  -3    0.62    0.14
 -10  -6   3    0.29    0.11
   9  -6  -3    1.89    0.22
  -9  -6   3    1.93    0.22
  -9  -6   3    2.05    0.21
   8  -6  -3   -0.05    0.05
  -8  -6   3    0.04    0.07
  -8  -6   3    0.02    0.07
   7  -6  -3   10.38    0.38
  -7  -6   3   10.62    0.37
  -7  -6   3   10.54    0.35
  -6  -6   3    0.70    0.11
  -6  -6   3    0.73    0.11
   6  -6  -3    0.72    0.12
  -6   6   3    0.72    0.12
   5  -6  -3   17.89    0.46
  -5  -6   3   19.44    0.45
  -5   6   3   19.58    0.43
   4  -6  -3    0.08    0.05
  -4  -6   3    0.05    0.05
  -4   6   3    0.12    0.04
  -3  -6   3   18.62    0.41
   3  -6  -3   20.15    0.39
   3  -6  -3   18.64    0.42
  -3   6   3   18.35    0.36
  -2  -6   3    3.00    0.15
   2  -6  -3    2.84    0.15
   2  -6  -3    2.97    0.14
  -2   6   3    2.98    0.12
   1  -6  -3    0.00    0.03
  -1  -6   3    0.01    0.03
   1  -6  -3    0.18    0.05
   1   6  -3    0.02    0.04
   0  -6  -3   18.75    0.40
   0  -6   3   19.20    0.39
   0  -6  -3   19.05    0.38
   0   6  -3   18.88    0.45
   1  -6   3    0.39    0.07
  -1  -6  -3    0.39    0.06
  -1  -6  -3    0.57    0.08
  -1   6  -3    0.42    0.09
  -2  -6  -3    3.34    0.17
  -2  -6  -3    3.25    0.14
   2  -6   3    2.99    0.14
  -2   6  -3    3.23    0.19
  -3  -6  -3   16.44    0.33
   3  -6   3   16.34    0.36
  -3  -6  -3   16.28    0.39
  -3   6  -3   17.16    0.45
   4  -6   3    0.39    0.07
  -4  -6  -3    0.51    0.07
  -4  -6  -3    0.32    0.08
  -4   6  -3    0.31    0.09
   5  -6   3   11.31    0.31
  -5  -6  -3   12.81    0.28
  -5  -6  -3   12.25    0.36
  -5   6  -3   11.52    0.40
  -5   6  -3   11.87    0.26
   6  -6   3   29.40    0.57
  -6  -6  -3   29.49    0.50
  -6  -6  -3   29.35    0.64
  -6   6  -3   29.02    0.52
  -6   6  -3   28.62    0.70
   7  -6   3    4.72    0.23
  -7  -6  -3    4.99    0.18
  -7  -6  -3    4.80    0.27
  -7   6  -3    4.04    0.20
  -8  -6  -3    2.25    0.24
   8  -6   3    2.15    0.18
  -8   6  -3    2.20    0.18
  -8   6  -3    2.12    0.24
  -9  -6  -3    0.17    0.10
  -9   6  -3    0.01    0.09
  -9   6  -3    0.17    0.08
 -10  -6  -3    1.54    0.21
 -10   6  -3    1.50    0.24
 -10   6  -3    1.81    0.20
  10  -7  -3    0.41    0.13
 -10  -7   3    0.34    0.11
 -10  -7   3    0.21    0.12
 -10   7   3    0.33    0.13
  -9  -7   3   14.38    0.46
   9  -7  -3   14.35    0.50
  -9  -7   3   14.98    0.51
  -9   7   3   13.85    0.50
  -8  -7   3   11.62    0.39
   8  -7  -3   10.85    0.42
  -8  -7   3   11.41    0.41
  -8   7   3   10.41    0.42
   7  -7  -3    0.02    0.06
  -7  -7   3   -0.11    0.06
  -7  -7   3   -0.02    0.06
  -7   7   3    0.07    0.07
  -6  -7   3    0.65    0.10
  -6  -7   3    1.03    0.14
   6  -7  -3    0.94    0.14
  -6   7   3    0.60    0.11
  -5  -7   3    5.86    0.24
  -5  -7   3    5.50    0.23
   5  -7  -3    6.04    0.27
  -5   7   3    5.29    0.23
  -4  -7   3   10.47    0.31
   4  -7  -3   10.16    0.33
  -4  -7   3    9.59    0.28
  -4   7   3    9.74    0.28
  -3  -7   3    2.94    0.14
   3  -7  -3    3.15    0.18
  -3  -7   3    3.28    0.17
   3  -7  -3    3.40    0.16
  -3   7   3    3.11    0.15
  -2  -7   3    7.35    0.24
   2  -7  -3    7.34    0.25
   2  -7  -3    7.16    0.23
  -2   7   3    7.20    0.21
  -1  -7   3    0.07    0.03
   1  -7  -3    0.07    0.04
   1  -7  -3    0.05    0.04
  -1  -7   3    0.16    0.05
   1   7  -3    0.06    0.05
   0  -7   3   15.32    0.36
   0  -7  -3   15.52    0.37
   0  -7  -3   15.94    0.36
   0   7  -3   14.98    0.42
  -1  -7  -3    2.39    0.13
  -1  -7  -3    2.24    0.15
   1  -7   3    2.60    0.14
  -1   7  -3    2.36    0.17
  -2  -7  -3    4.66    0.20
   2  -7   3    4.69    0.19
  -2  -7  -3    4.56    0.17
  -2   7  -3    4.79    0.24
  -3  -7  -3  144.99    1.88
  -3  -7  -3  145.69    1.99
   3  -7   3  146.43    1.93
  -3   7  -3  143.50    2.08
  -4  -7  -3    0.13    0.05
   4  -7   3    0.22    0.06
  -4  -7  -3    0.14    0.07
  -4   7  -3    0.21    0.08
   5  -7   3   10.14    0.31
  -5  -7  -3   10.22    0.27
  -5  -7  -3    9.30    0.33
  -5   7  -3    9.86    0.38
   6  -7   3   16.97    0.43
  -6  -7  -3   16.57    0.47
  -6  -7  -3   16.37    0.36
  -6   7  -3   15.79    0.34
  -6   7  -3   16.57    0.52
  -7  -7  -3    4.88    0.28
   7  -7   3    5.16    0.25
  -7  -7  -3    4.57    0.18
  -7   7  -3    5.01    0.32
  -7   7  -3    4.34    0.20
  -8  -7  -3   17.23    0.53
   8  -7   3   15.92    0.45
  -8   7  -3   16.32    0.58
  -8   7  -3   17.74    0.43
  -9  -7  -3    0.74    0.16
  -9   7  -3    0.78    0.19
  -9   7  -3    0.73    0.13
 -10  -7  -3    0.09    0.12
 -10  -8   3    0.25    0.12
 -10  -8   3    0.25    0.11
 -10   8   3    0.08    0.11
  -9  -8   3    0.75    0.16
   9  -8  -3    0.63    0.15
  -9  -8   3    0.85    0.15
  -9   8   3    0.70    0.15
  -8  -8   3   13.65    0.46
   8  -8  -3   13.43    0.48
  -8  -8   3   13.80    0.43
  -8   8   3   13.56    0.47
   7  -8  -3    6.34    0.32
  -7  -8   3    6.48    0.31
  -7  -8   3    7.60    0.31
  -7   8   3    7.20    0.32
   6  -8  -3   15.63    0.47
  -6  -8   3   15.78    0.43
  -6  -8   3   15.50    0.43
  -6   8   3   15.23    0.43
   5  -8  -3    0.17    0.07
  -5  -8   3    0.08    0.06
  -5  -8   3    0.01    0.05
  -5   8   3    0.03    0.05
  -4  -8   3    0.94    0.11
  -4  -8   3    0.74    0.11
   4  -8  -3    1.03    0.13
  -4   8   3    1.11    0.12
  -3  -8   3  182.44    2.34
   3  -8  -3  181.67    2.43
  -3  -8   3  181.95    2.41
   3  -8  -3  180.57    2.36
  -3   8   3  182.49    2.37
  -2  -8   3   19.55    0.45
   2  -8  -3   19.35    0.45
   2  -8  -3   19.34    0.42
  -2  -8   3   20.12    0.37
  -2   8   3   20.57    0.41
   1  -8  -3   14.86    0.37
  -1  -8   3   15.30    0.28
  -1  -8   3   15.53    0.38
   1  -8  -3   15.08    0.37
   1   8  -3   15.00    0.44
   0  -8  -3    9.30    0.28
   0  -8   3    9.60    0.29
   0  -8  -3    8.87    0.29
   0   8  -3   10.58    0.36
  -1  -8  -3    1.17    0.12
  -1  -8  -3    1.57    0.15
   1  -8   3    1.23    0.12
  -1   8  -3    1.49    0.17
  -2  -8  -3   10.85    0.29
   2  -8   3    9.98    0.30
  -2  -8  -3   10.15    0.31
  -2   8  -3   10.20    0.37
  -3  -8  -3    0.52    0.10
  -3  -8  -3    0.54    0.08
   3  -8   3    0.56    0.09
  -3   8  -3    0.71    0.13
  -4  -8  -3    3.72    0.21
  -4  -8  -3    3.96    0.17
   4  -8   3    3.67    0.19
  -4   8  -3    3.67    0.24
  -5  -8  -3    0.09    0.05
   5  -8   3    0.09    0.05
  -5  -8  -3    0.13    0.08
  -5   8  -3    0.11    0.08
   6  -8   3    0.70    0.12
  -6  -8  -3    0.83    0.10
  -6  -8  -3    0.67    0.13
  -6   8  -3    0.94    0.16
  -7  -8  -3    0.39    0.12
  -7  -8  -3    0.46    0.09
   7  -8   3    0.47    0.10
  -7   8  -3    0.47    0.08
  -7   8  -3    0.38    0.12
   8  -8   3    0.88    0.14
  -8  -8  -3    0.92    0.16
  -8   8  -3    1.15    0.20
  -9  -8  -3   38.72    0.90
  -9   8  -3   37.16    0.98
   9  -9  -3   13.15    0.51
  -9  -9   3   13.08    0.45
  -9  -9   3   12.82    0.48
  -9   9   3   12.30    0.48
  -8  -9   3    0.43    0.11
   8  -9  -3    0.23    0.10
  -8  -9   3    0.39    0.12
  -8   9   3    0.34    0.11
  -7  -9   3    2.38    0.22
  -7  -9   3    2.45    0.23
   7  -9  -3    2.45    0.25
  -7   9   3    2.39    0.22
   6  -9  -3    1.02    0.16
  -6  -9   3    0.64    0.12
  -6  -9   3    0.47    0.11
  -6   9   3    0.49    0.11
   5  -9  -3    7.23    0.31
  -5  -9   3    6.87    0.27
  -5  -9   3    6.64    0.28
  -5   9   3    7.30    0.29
  -4  -9   3   12.48    0.33
  -4  -9   3   12.16    0.37
   4  -9  -3   12.30    0.39
  -4   9   3   12.41    0.35
   3  -9  -3    1.02    0.13
  -3  -9   3    0.95    0.10
  -3  -9   3    0.82    0.12
   3  -9  -3    1.16    0.11
  -3   9   3    1.13    0.12
   2  -9  -3   28.98    0.61
   2  -9  -3   29.14    0.55
  -2  -9   3   29.83    0.50
  -2  -9   3   28.91    0.60
  -2   9   3   29.71    0.56
   1  -9  -3    8.36    0.29
  -1  -9   3    8.44    0.29
   1  -9  -3    8.20    0.28
  -1  -9   3    8.03    0.19
   1   9  -3    8.69    0.35
   0  -9  -3    4.74    0.21
   0  -9  -3    5.01    0.22
   0  -9   3    4.56    0.21
   0   9  -3    5.28    0.28
  -1  -9  -3    3.53    0.18
   1  -9   3    3.30    0.19
  -1  -9  -3    3.11    0.19
  -1   9  -3    2.96    0.22
   2  -9   3   15.41    0.41
  -2  -9  -3   15.38    0.41
  -2  -9  -3   15.88    0.39
  -2   9  -3   16.26    0.48
  -3  -9  -3   63.19    0.98
   3  -9   3   63.17    1.04
  -3  -9  -3   63.69    1.05
  -3   9  -3   63.36    1.15
   4  -9   3    6.61    0.27
  -4  -9  -3    6.69    0.29
  -4  -9  -3    6.81    0.24
  -4   9  -3    6.81    0.33
  -5  -9  -3    5.50    0.29
  -5  -9  -3    5.20    0.22
   5  -9   3    5.30    0.26
  -5   9  -3    5.73    0.32
  -6  -9  -3    1.14    0.16
   6  -9   3    1.23    0.16
  -6  -9  -3    1.04    0.12
  -6   9  -3    1.11    0.17
  -7  -9  -3   -0.02    0.08
   7  -9   3    0.06    0.07
  -7  -9  -3    0.04    0.06
  -7   9  -3   -0.02    0.07
  -8  -9  -3    0.66    0.15
   8  -9   3    0.63    0.13
  -8   9  -3    0.73    0.17
  -9  -9  -3    1.29    0.20
  -9   9  -3    1.06    0.22
   9 -10  -3    0.26    0.12
  -9 -10   3    0.35    0.12
  -9 -10   3    0.18    0.11
  -9  10   3    0.21    0.11
  -8 -10   3    1.72    0.21
  -8 -10   3    1.21    0.17
   8 -10  -3    1.90    0.24
  -8  10   3    1.70    0.21
  -7 -10   3    4.07    0.26
  -7 -10   3    3.65    0.25
   7 -10  -3    3.88    0.28
  -7  10   3    3.91    0.26
   6 -10  -3    2.74    0.26
  -6 -10   3    2.89    0.22
  -6 -10   3    2.80    0.22
  -6  10   3    3.07    0.23
   5 -10  -3    0.00    0.06
  -5 -10   3    0.04    0.06
  -5 -10   3    0.02    0.07
  -5  10   3    0.11    0.07
   4 -10  -3    0.84    0.14
  -4 -10   3    0.76    0.10
  -4 -10   3    1.19    0.15
  -4  10   3    0.94    0.13
  -3 -10   3   11.32    0.30
   3 -10  -3   11.70    0.38
  -3 -10   3   11.75    0.37
   3 -10  -3   11.60    0.31
  -3  10   3   11.66    0.34
   2 -10  -3    0.04    0.05
  -2 -10   3    0.01    0.03
   2 -10  -3    0.05    0.05
  -2 -10   3    0.00    0.05
  -2  10   3    0.00    0.04
  -1 -10   3    4.56    0.23
   1 -10  -3    4.69    0.22
   1 -10  -3    4.76    0.23
   0 -10  -3    0.10    0.06
   0 -10  -3    0.05    0.05
   0 -10   3    0.05    0.05
   0  10  -3    0.06    0.06
   1 -10   3    0.58    0.10
  -1 -10  -3    0.70    0.11
  -1 -10  -3    0.75    0.11
  -1  10  -3    0.57    0.13
   2 -10   3    2.78    0.19
  -2 -10  -3    3.18    0.21
  -2 -10  -3    3.22    0.19
  -2  10  -3    3.05    0.25
  -3 -10  -3    3.08    0.21
  -3 -10  -3    2.88    0.18
   3 -10   3    3.22    0.20
  -3  10  -3    3.37    0.26
   4 -10   3    0.13    0.07
  -4 -10  -3    0.26    0.08
  -4 -10  -3   -0.02    0.06
  -4  10  -3   -0.03    0.08
  -5 -10  -3    1.08    0.15
  -5 -10  -3    1.27    0.14
   5 -10   3    1.22    0.15
  -5  10  -3    1.12    0.18
   6 -10   3    0.03    0.06
  -6 -10  -3    0.04    0.06
  -6 -10  -3    0.18    0.10
  -6  10  -3    0.17    0.10
  -7 -10  -3    6.20    0.33
  -7 -10  -3    6.05    0.25
   7 -10   3    5.76    0.31
  -7  10  -3    5.67    0.37
   8 -10   3    0.85    0.15
  -8 -10  -3    0.69    0.16
  -8  10  -3    0.71    0.18
   8 -11  -3    0.03    0.08
  -8 -11   3    0.26    0.11
  -8 -11   3   -0.15    0.07
  -8  11   3    0.14    0.09
  -7 -11   3    3.03    0.24
  -7 -11   3    2.71    0.24
   7 -11  -3    3.31    0.31
  -7  11   3    3.05    0.25
   6 -11  -3    2.54    0.25
  -6 -11   3    2.71    0.22
  -6 -11   3    2.81    0.22
  -6  11   3    2.58    0.23
   5 -11  -3    0.08    0.08
  -5 -11   3    0.00    0.06
  -5 -11   3    0.05    0.07
  -5  11   3    0.13    0.07
  -4 -11   3    0.93    0.14
   4 -11  -3    0.96    0.15
  -4 -11   3    0.89    0.11
  -4  11   3    0.88    0.13
  -3 -11   3    7.86    0.25
   3 -11  -3    8.04    0.33
  -3 -11   3    7.97    0.32
   3 -11  -3    7.85    0.25
  -3  11   3    8.34    0.31
  -2 -11   3   30.24    0.66
   2 -11  -3   30.17    0.58
  -2 -11   3   30.99    0.53
   2 -11  -3   29.98    0.67
  -2  11   3   30.22    0.62
   1 -11  -3   32.98    0.65
  -1 -11   3   33.29    0.70
   1 -11  -3   33.96    0.70
   0 -11  -3    0.20    0.08
   0 -11  -3    0.15    0.07
   0 -11   3    0.07    0.06
   0  11  -3    0.15    0.09
  -1 -11  -3   21.63    0.52
   1 -11   3   22.28    0.54
  -1 -11  -3   21.47    0.53
  -1  11  -3   21.87    0.62
  -2 -11  -3    2.14    0.17
   2 -11   3    2.41    0.19
  -2 -11  -3    2.61    0.21
  -2  11  -3    2.54    0.27
  -3 -11  -3  136.60    1.98
  -3 -11  -3  135.62    1.91
   3 -11   3  135.04    1.97
  -3  11  -3  136.38    2.12
  -4 -11  -3    0.65    0.11
   4 -11   3    0.78    0.13
  -4 -11  -3    0.59    0.12
  -4  11  -3    0.54    0.13
  -5 -11  -3    0.17    0.09
  -5 -11  -3    0.15    0.07
   5 -11   3    0.19    0.08
  -5  11  -3    0.19    0.10
  -6 -11  -3    0.21    0.10
   6 -11   3    0.26    0.10
  -6 -11  -3    0.33    0.09
  -6  11  -3    0.47    0.15
   7 -11   3    2.64    0.25
  -7 -11  -3    2.46    0.25
  -7 -11  -3    2.44    0.19
  -7  11  -3    2.75    0.32
   8 -11   3    0.10    0.08
  -8 -11  -3    0.16    0.11
  -8  11  -3    0.23    0.13
  -8 -12   3    7.19    0.36
  -7 -12   3    5.36    0.30
  -7 -12   3    4.77    0.29
   7 -12  -3    4.74    0.32
  -7  12   3    4.34    0.30
  -6 -12   3    5.49    0.28
  -6 -12   3    5.71    0.31
   6 -12  -3    5.26    0.32
  -6  12   3    5.62    0.31
  -5 -12   3    1.08    0.14
   5 -12  -3    1.16    0.18
  -5 -12   3    1.05    0.16
  -5  12   3    0.89    0.14
   4 -12  -3    4.10    0.27
  -4 -12   3    4.05    0.22
  -4 -12   3    3.96    0.25
  -4  12   3    4.11    0.25
   3 -12  -3   45.67    0.75
  -3 -12   3   43.48    0.88
   3 -12  -3   45.27    0.92
  -3 -12   3   46.02    0.77
  -3  12   3   46.86    0.86
  -2 -12   3    0.66    0.09
   2 -12  -3    0.47    0.11
  -2 -12   3    0.51    0.11
   2 -12  -3    0.61    0.10
  -1 -12   3    1.71    0.18
   1 -12  -3    1.57    0.17
   1 -12  -3    1.80    0.17
   0 -12  -3   28.77    0.63
   0 -12   3   29.30    0.67
   0 -12  -3   29.80    0.66
   0  12  -3   29.23    0.76
  -1 -12  -3    0.69    0.12
  -1 -12  -3    0.60    0.11
   1 -12   3    0.58    0.12
  -1  12  -3    0.50    0.13
   2 -12   3    2.01    0.21
  -2 -12  -3    2.28    0.21
  -2 -12  -3    2.34    0.19
  -2  12  -3    1.96    0.25
  -3 -12  -3    0.05    0.07
   3 -12   3    0.02    0.06
  -3 -12  -3    0.07    0.07
  -3  12  -3    0.03    0.08
  -4 -12  -3   -0.01    0.06
  -4 -12  -3    0.07    0.08
   4 -12   3    0.02    0.07
  -4  12  -3    0.08    0.09
  -5 -12  -3    0.66    0.13
  -5 -12  -3    0.60    0.11
   5 -12   3    0.76    0.14
  -5  12  -3    0.83    0.17
  -6 -12  -3    0.06    0.08
   6 -12   3   -0.05    0.07
  -6 -12  -3   -0.09    0.06
  -6  12  -3   -0.08    0.09
   7 -12   3    0.08    0.09
  -7 -12  -3    0.21    0.09
  -7 -12  -3   -0.05    0.09
  -7  12  -3    0.06    0.11
  -7 -13   3    0.58    0.13
  -7 -13   3    0.30    0.11
   7 -13  -3    0.57    0.16
   6 -13  -3    5.08    0.33
  -6 -13   3    4.89    0.29
  -6 -13   3    4.99    0.30
  -6  13   3    4.87    0.31
   5 -13  -3    0.49    0.13
  -5 -13   3    0.45    0.11
  -5 -13   3    0.58    0.13
  -5  13   3    0.77    0.15
   4 -13  -3    1.57    0.20
  -4 -13   3    1.60    0.16
  -4 -13   3    1.59    0.19
  -4  13   3    1.30    0.17
   3 -13  -3    0.29    0.11
  -3 -13   3    0.05    0.07
  -3 -13   3    0.17    0.10
  -3  13   3    0.16    0.08
   2 -13  -3    0.04    0.05
  -2 -13   3   -0.01    0.07
   2 -13  -3    0.07    0.07
   1 -13  -3    0.16    0.08
   1 -13  -3    0.10    0.06
  -1 -13   3    0.11    0.07
   0 -13  -3   14.84    0.44
   0 -13  -3   14.03    0.45
   0 -13   3   14.93    0.47
   0  13  -3   15.30    0.55
  -1 -13  -3    4.14    0.27
   1 -13   3    3.91    0.26
  -1 -13  -3    3.84    0.25
  -1  13  -3    4.39    0.32
  -2 -13  -3    1.29    0.17
   2 -13   3    1.28    0.18
  -2 -13  -3    1.42    0.17
  -2  13  -3    1.41    0.22
   3 -13   3   12.41    0.45
  -3 -13  -3   13.64    0.43
  -3 -13  -3   13.19    0.44
  -3  13  -3   12.33    0.51
  -4 -13  -3   -0.03    0.07
  -4 -13  -3    0.00    0.07
   4 -13   3    0.01    0.07
  -4  13  -3    0.07    0.10
   5 -13   3    0.29    0.11
  -5 -13  -3    0.31    0.11
  -5 -13  -3    0.34    0.10
  -5  13  -3    0.17    0.13
  -6 -13  -3   14.48    0.51
   6 -13   3   14.51    0.52
  -6 -13  -3   14.84    0.45
  -6  13  -3   14.45    0.59
  -7  13  -3    0.16    0.13
  -6 -14   3    0.03    0.09
   6 -14  -3    0.04    0.10
  -6 -14   3    0.02    0.08
   5 -14  -3    7.76    0.40
  -5 -14   3    7.00    0.35
  -5 -14   3    7.80    0.33
  -5  14   3    7.55    0.38
  -4 -14   3    0.23    0.09
  -4 -14   3    0.25    0.11
   4 -14  -3    0.46    0.13
  -4  14   3    0.45    0.12
   3 -14  -3    0.79    0.15
  -3 -14   3    0.73    0.15
  -3  14   3    0.66    0.13
  -2 -14   3    0.89    0.16
   2 -14  -3    1.14    0.18
  -1 -14   3    8.31    0.36
   1 -14  -3    7.77    0.36
   0 -14  -3    3.29    0.24
   0 -14   3    3.63    0.26
   0 -14  -3    3.51    0.25
   1 -14   3    0.68    0.14
  -1 -14  -3    0.69    0.13
  -1 -14  -3    0.75    0.13
  -1  14  -3    0.75    0.16
   2 -14   3    0.87    0.16
  -2 -14  -3    0.80    0.14
  -2 -14  -3    0.68    0.13
  -2  14  -3    0.84    0.18
  -3 -14  -3    3.17    0.26
   3 -14   3    2.47    0.24
  -3 -14  -3    3.26    0.23
  -3  14  -3    3.03    0.31
   4 -14   3    0.01    0.07
  -4 -14  -3   -0.04    0.07
  -4 -14  -3    0.09    0.08
  -4  14  -3    0.02    0.10
  -5 -14  -3    0.25    0.10
   5 -14   3    0.46    0.13
  -5 -14  -3    0.16    0.10
  -5  14  -3    0.11    0.12
  -6 -14  -3   17.32    0.57
  -6  14  -3   16.36    0.65
  -5 -15   3    0.20    0.11
  -4 -15   3    0.65    0.15
   4 -15  -3    0.71    0.16
   3 -15  -3    0.12    0.10
  -3 -15   3    0.09    0.09
  -2 -15   3    5.62    0.32
   2 -15  -3    6.69    0.35
  -1 -15   3   10.49    0.42
   1 -15  -3   11.01    0.44
   0 -15   3    0.14    0.10
   0 -15  -3   -0.01    0.08
   1 -15   3    2.37    0.25
  -1 -15  -3    2.39    0.24
  -1  15  -3    2.50    0.29
   2 -15   3    1.02    0.18
  -2 -15  -3    1.09    0.17
  -2 -15  -3    0.92    0.16
  -2  15  -3    1.18    0.22
  -3 -15  -3   18.60    0.56
  -3 -15  -3   20.59    0.60
   3 -15   3   18.72    0.60
  -3  15  -3   18.88    0.68
  -4 -15  -3    0.11    0.09
  -4 -15  -3    0.08    0.09
   4 -15   3    0.12    0.10
  -4  15  -3    0.06    0.12
  -3 -16   3   12.23    0.48
   3 -16  -3   11.98    0.50
  -2 -16   3    1.07    0.18
   2 -16  -3    1.00    0.19
   1 -16  -3    0.66    0.16
  -1 -16   3    0.47    0.13
   0 -16   3    2.93    0.29
   0 -16  -3    2.82    0.28
  -1 -16  -3    0.08    0.10
   1 -16   3    0.19    0.11
  -2 -16  -3    3.36    0.26
   2 -16   3    4.24    0.30
  -2  16  -3    3.52    0.35
  -3 -16  -3    3.46    0.27
   3 -16   3    2.76    0.28
  -3  16  -3    2.92    0.33
 -11   0   4    1.25    0.20
 -11   0   4    1.40    0.22
 -10   0   4    0.68    0.15
  -9   0   4    0.22    0.10
  -8   0   4   25.79    0.64
  -7   0   4   38.90    0.79
  -6   0   4   66.92    1.11
  -5   0   4    4.65    0.22
  -4   0   4    4.88    0.21
  -3   0   4    4.77    0.19
   2   0  -4 1000.00   12.59
  -2   0   4  981.11   12.43
   1   0  -4   27.64    0.44
   1   0  -4   29.68    0.50
  -1   0   4   30.89    0.50
   0   0  -4   41.10    0.64
   0   0   4   42.36    0.61
   0   0  -4   39.99    0.59
  -1   0  -4    2.04    0.10
  -1   0  -4    1.76    0.11
   1   0   4    1.86    0.08
  -2   0  -4   17.45    0.35
   2   0   4   17.53    0.25
  -3   0  -4    2.14    0.12
  -4   0  -4   46.50    0.75
  -5   0  -4   45.94    0.77
  -6   0  -4    1.06    0.13
  -7   0  -4   17.86    0.46
  -8   0  -4   12.71    0.41
  -9   0  -4    0.55    0.12
 -10   0  -4   20.64    0.61
 -11  -1   4    0.05    0.10
 -11  -1   4    0.06    0.10
 -11   1   4    0.13    0.11
 -10  -1   4    0.19    0.10
 -10   1   4   -0.02    0.08
  -9  -1   4    0.94    0.16
  -9   1   4    0.90    0.16
  -8  -1   4   35.93    0.77
  -8   1   4   35.09    0.79
  -7  -1   4    0.39    0.11
  -7   1   4    0.24    0.10
  -6  -1   4    4.02    0.23
  -6   1   4    4.14    0.24
  -5  -1   4    1.52    0.15
  -5   1   4    1.89    0.15
  -4  -1   4   13.19    0.35
  -4   1   4   13.42    0.35
   3  -1  -4   19.18    0.40
  -3  -1   4   18.64    0.41
   2  -1  -4   52.92    0.81
   2  -1  -4   54.98    0.81
  -2  -1   4   54.42    0.83
   1  -1  -4   51.09    0.74
  -1  -1   4   50.76    0.75
   1  -1  -4   50.63    0.77
   1   1  -4   50.29    0.74
   1   1  -4   50.38    0.74
   0  -1  -4    1.06    0.09
   0  -1  -4    1.10    0.07
   0  -1  -4    1.25    0.07
   0  -1   4    1.25    0.08
   0   1  -4    1.46    0.09
   0   1  -4    1.14    0.09
   1  -1   4  154.82    1.94
  -1  -1  -4  152.27    1.88
  -1  -1  -4  156.58    2.02
  -1   1  -4  157.76    1.99
  -1   1  -4  154.73    1.99
  -2  -1  -4    0.55    0.07
   2  -1   4    0.56    0.04
  -2   1  -4    0.63    0.04
  -2   1  -4    0.50    0.07
   2   1   4    0.57    0.03
  -2   1  -4    0.59    0.07
  -3  -1  -4    2.20    0.13
  -3   1  -4    2.15    0.12
  -4  -1  -4  196.60    2.58
  -4   1  -4  201.43    2.56
  -5  -1  -4    3.23    0.18
  -5   1  -4    3.34    0.17
  -6  -1  -4    6.21    0.25
  -6   1  -4    6.33    0.25
  -7  -1  -4    2.94    0.21
  -7   1  -4    2.96    0.20
  -8  -1  -4    1.26    0.17
  -8   1  -4    1.40    0.16
  -9  -1  -4    3.93    0.27
  -9   1  -4    3.56    0.25
 -10  -1  -4   10.32    0.43
 -10   1  -4   10.16    0.42
 -11  -2   4    0.79    0.17
 -11  -2   4    1.00    0.20
 -11   2   4    1.09    0.20
 -10  -2   4    0.79    0.15
 -10   2   4    0.77    0.16
  -9  -2   4    2.37    0.23
  -9   2   4    2.25    0.24
  -8  -2   4    4.54    0.27
  -8   2   4    5.22    0.31
  -7  -2   4    0.56    0.11
  -7   2   4    0.58    0.12
  -6  -2   4    1.90    0.18
  -6   2   4    1.92    0.19
   5  -2  -4   47.41    0.83
  -5  -2   4   47.46    0.83
  -4  -2   4    0.59    0.09
   4  -2  -4    0.87    0.11
   3  -2  -4    0.09    0.04
  -3  -2   4    0.01    0.03
   3  -2  -4    0.16    0.05
  -2  -2   4    6.13    0.20
   2  -2  -4    5.62    0.19
   2  -2  -4    5.87    0.19
   1  -2  -4    4.28    0.15
  -1  -2   4    4.63    0.16
   1  -2  -4    4.15    0.16
   1   2  -4    4.22    0.14
   1   2  -4    4.31    0.16
   0  -2   4    0.70    0.07
   0  -2  -4    0.70    0.06
   0  -2  -4    0.64    0.08
   0   2  -4    0.80    0.08
   0   2  -4    0.71    0.07
  -1  -2  -4   23.72    0.45
   1  -2   4   23.44    0.38
  -1  -2  -4   23.54    0.36
  -1   2  -4   24.06    0.45
  -1   2  -4   22.95    0.40
  -2  -2  -4   38.93    0.65
   2  -2   4   38.87    0.55
  -2  -2  -4   39.83    0.52
  -2   2  -4   39.79    0.61
  -2   2  -4   39.48    0.66
   2   2   4   39.80    0.52
  -3  -2  -4    2.28    0.13
   3  -2   4    2.37    0.08
  -3   2  -4    2.16    0.11
  -4  -2  -4   20.61    0.45
   4  -2   4   21.09    0.33
  -4   2  -4   21.27    0.41
   5  -2   4    4.40    0.12
  -5  -2  -4    4.23    0.20
  -5   2  -4    4.09    0.18
  -6  -2  -4   -0.05    0.05
   6  -2   4    0.05    0.03
  -6   2  -4    0.13    0.06
  -7  -2  -4   12.56    0.39
  -7   2  -4   12.66    0.37
  -8  -2  -4    3.80    0.26
  -8   2  -4    4.18    0.25
  -9  -2  -4    0.06    0.09
  -9   2  -4    0.13    0.09
 -10  -2  -4    0.34    0.12
 -10   2  -4    0.45    0.13
 -11  -3   4    0.53    0.15
 -11  -3   4    0.68    0.17
 -11   3   4    1.07    0.20
 -10  -3   4    4.10    0.30
 -10  -3   4    4.47    0.29
 -10   3   4    4.76    0.33
  -9  -3   4   -0.06    0.07
  -9   3   4    0.03    0.09
  -8  -3   4   15.00    0.46
  -8   3   4   15.46    0.50
  -7  -3   4    3.80    0.23
   7  -3  -4    3.65    0.23
   6  -3  -4    2.18    0.18
  -6  -3   4    2.34    0.17
  -5  -3   4   22.05    0.50
   5  -3  -4   22.10    0.50
   4  -3  -4    6.80    0.24
  -4  -3   4    7.01    0.25
   3  -3  -4    7.20    0.23
  -3  -3   4    7.12    0.23
   3  -3  -4    6.83    0.22
   2  -3  -4   19.82    0.40
  -2  -3   4   21.23    0.41
   2  -3  -4   19.64    0.40
   1  -3  -4   15.49    0.35
  -1  -3   4   16.08    0.33
   1  -3  -4   16.12    0.33
   1   3  -4   15.64    0.36
   0  -3   4    8.93    0.22
   0  -3  -4    8.59    0.25
   0  -3  -4    8.89    0.21
   0   3  -4    8.87    0.25
   0   3  -4    8.13    0.19
  -1  -3  -4    1.98    0.09
  -1  -3  -4    2.54    0.13
   1  -3   4    2.18    0.10
  -1   3  -4    2.31    0.13
  -1   3  -4    1.90    0.09
  -2  -3  -4    0.86    0.06
  -2  -3  -4    0.69    0.08
   2  -3   4    0.84    0.07
  -2   3  -4    0.75    0.09
  -2   3  -4    0.85    0.08
  -3  -3  -4   21.49    0.32
   3  -3   4   21.69    0.36
  -3  -3  -4   21.37    0.44
  -3   3  -4   21.07    0.47
  -3   3  -4   21.50    0.38
  -4  -3  -4   88.81    1.31
   4  -3   4   88.36    1.15
  -4   3  -4   89.44    1.37
  -4   3  -4   90.50    1.23
  -5  -3  -4    1.68    0.15
   5  -3   4    1.72    0.09
  -5   3  -4    1.58    0.12
  -6  -3  -4   26.98    0.59
   6  -3   4   26.45    0.44
  -6   3  -4   26.12    0.52
   7  -3   4    5.83    0.18
  -7  -3  -4    6.28    0.29
  -7   3  -4    6.26    0.25
  -8  -3  -4   14.68    0.47
  -8   3  -4   14.39    0.42
  -9  -3  -4    3.19    0.28
  -9   3  -4    3.34    0.24
 -10  -3  -4    8.66    0.41
 -10   3  -4    8.30    0.38
 -10  -4   4    0.61    0.14
 -10  -4   4    0.66    0.17
 -10   4   4    0.82    0.18
  -9  -4   4    2.10    0.22
  -9   4   4    2.57    0.27
  -8  -4   4    3.68    0.24
   8  -4  -4    3.38    0.24
  -7  -4   4   36.12    0.74
   7  -4  -4   36.54    0.76
   6  -4  -4   11.69    0.37
  -6  -4   4   11.95    0.37
   5  -4  -4    4.62    0.22
  -5  -4   4    4.85    0.22
  -4  -4   4    0.22    0.06
   4  -4  -4    0.13    0.05
  -3  -4   4    0.67    0.09
   3  -4  -4    0.75    0.09
   3  -4  -4    0.86    0.11
  -2  -4   4  168.92    2.16
   2  -4  -4  167.19    2.16
   2  -4  -4  167.80    2.20
  -1  -4   4    5.61    0.19
   1  -4  -4    5.62    0.20
   1  -4  -4    5.58    0.18
   1   4  -4    5.59    0.22
   0  -4   4   34.58    0.56
   0  -4  -4   34.45    0.55
   0  -4  -4   33.95    0.61
   0   4  -4   35.29    0.64
   0   4  -4   35.01    0.50
   1  -4   4    8.78    0.22
  -1  -4  -4    8.88    0.26
  -1  -4  -4    8.70    0.20
  -1   4  -4    8.40    0.27
  -1   4  -4    8.76    0.19
  -2  -4  -4    0.30    0.04
  -2  -4  -4    0.10    0.04
   2  -4   4    0.08    0.03
  -2   4  -4    0.05    0.04
  -2   4  -4    0.06    0.03
   3  -4   4    0.16    0.04
  -3  -4  -4    0.14    0.06
  -3  -4  -4    0.17    0.04
  -3   4  -4    0.22    0.06
  -3   4  -4    0.25    0.05
  -4  -4  -4   35.08    0.50
  -4  -4  -4   34.68    0.66
   4  -4   4   35.07    0.55
  -4   4  -4   35.18    0.70
  -4   4  -4   35.97    0.57
   5  -4   4    1.35    0.10
  -5  -4  -4    1.32    0.07
  -5  -4  -4    1.12    0.14
  -5   4  -4    1.17    0.11
  -5   4  -4    1.15    0.15
   6  -4   4    0.05    0.04
  -6  -4  -4    0.05    0.06
  -6   4  -4    0.05    0.05
   7  -4   4    2.41    0.14
  -7  -4  -4    2.38    0.22
  -7   4  -4    2.48    0.18
  -8  -4  -4    0.04    0.07
  -8   4  -4    0.07    0.07
  -9  -4  -4    1.80    0.22
  -9   4  -4    2.06    0.20
 -10   4  -4   22.76    0.61
 -10  -5   4   15.02    0.53
 -10  -5   4   14.59    0.49
 -10   5   4   14.03    0.54
  -9  -5   4    2.42    0.26
  -9  -5   4    2.85    0.23
   9  -5  -4    2.40    0.24
   8  -5  -4    1.93    0.21
  -8  -5   4    1.99    0.20
   7  -5  -4    5.10    0.27
  -7  -5   4    5.36    0.27
  -6  -5   4   10.34    0.34
   6  -5  -4   10.02    0.35
   5  -5  -4    6.14    0.26
  -5  -5   4    6.28    0.25
   4  -5  -4    1.23    0.13
  -4  -5   4    1.49    0.14
  -4   5   4    1.44    0.10
   3  -5  -4    2.13    0.14
  -3  -5   4    2.14    0.14
   3  -5  -4    2.34    0.14
   2  -5  -4    6.79    0.22
   2  -5  -4    6.61    0.22
  -2  -5   4    6.51    0.22
   1  -5  -4   29.57    0.57
  -1  -5   4   30.28    0.54
   1  -5  -4   30.40    0.53
   1   5  -4   30.62    0.61
   0  -5   4   70.22    1.02
   0  -5  -4   70.03    1.07
   0  -5  -4   71.33    1.00
   0   5  -4   72.77    1.12
  -1  -5  -4   76.97    1.16
  -1  -5  -4   78.49    1.06
   1  -5   4   77.73    1.09
  -1   5  -4   78.47    1.21
  -2  -5  -4    3.39    0.18
  -2  -5  -4    3.27    0.13
   2  -5   4    3.11    0.14
  -2   5  -4    3.52    0.19
   3  -5   4    6.20    0.19
  -3  -5  -4    6.56    0.17
  -3  -5  -4    6.42    0.24
  -3   5  -4    6.50    0.26
  -4  -5  -4   93.05    1.38
  -4  -5  -4   92.55    1.19
   4  -5   4   90.07    1.25
  -4   5  -4   90.67    1.23
  -4   5  -4   92.00    1.43
   5  -5   4   -0.01    0.03
  -5  -5  -4    0.02    0.03
  -5  -5  -4    0.05    0.06
  -5   5  -4    0.05    0.04
  -5   5  -4    0.05    0.06
  -6  -5  -4   14.01    0.42
  -6  -5  -4   13.62    0.26
   6  -5   4   13.88    0.33
  -6   5  -4   13.55    0.46
  -6   5  -4   13.43    0.33
  -7  -5  -4    4.32    0.26
   7  -5   4    4.03    0.19
  -7  -5  -4    4.07    0.13
  -7   5  -4    3.72    0.28
  -7   5  -4    3.69    0.20
  -8  -5  -4    0.10    0.09
  -8   5  -4   -0.01    0.06
  -8   5  -4    0.01    0.08
  -9  -5  -4    0.23    0.11
  -9   5  -4    0.15    0.08
  -9   5  -4    0.26    0.12
 -10  -5  -4    1.00    0.18
 -10   5  -4    0.58    0.16
 -10   5  -4    0.76    0.15
 -10  -6   4    4.30    0.32
 -10  -6   4    4.01    0.29
 -10   6   4    3.55    0.34
   9  -6  -4    6.21    0.34
  -9  -6   4    6.02    0.34
  -9  -6   4    5.58    0.30
   8  -6  -4    0.03    0.07
  -8  -6   4   -0.02    0.07
  -8  -6   4    0.02    0.07
   7  -6  -4    1.32    0.18
  -7  -6   4    1.51    0.17
   6  -6  -4    0.12    0.07
  -6  -6   4    0.05    0.06
  -6   6   4    0.10    0.06
  -5  -6   4   60.74    1.01
   5  -6  -4   60.67    1.03
  -5   6   4   59.72    0.93
   4  -6  -4   19.90    0.48
  -4  -6   4   20.64    0.47
  -4   6   4   19.22    0.38
   3  -6  -4    1.27    0.12
  -3  -6   4    1.26    0.12
   3  -6  -4    1.09    0.12
  -2  -6   4   16.78    0.39
   2  -6  -4   16.36    0.39
   2  -6  -4   16.99    0.39
   1  -6  -4    0.56    0.08
   1  -6  -4    0.53    0.09
  -1  -6   4    0.48    0.07
   1   6  -4    0.52    0.10
   0  -6   4   11.80    0.30
   0  -6  -4   11.85    0.29
   0  -6  -4   11.73    0.32
   0   6  -4   11.62    0.36
   1  -6   4   68.23    1.00
  -1  -6  -4   67.47    1.06
  -1  -6  -4   66.80    0.97
  -1   6  -4   69.09    1.12
  -2  -6  -4   42.62    0.66
   2  -6   4   41.49    0.69
  -2  -6  -4   42.37    0.75
  -2   6  -4   42.09    0.79
   3  -6   4    6.82    0.22
  -3  -6  -4    6.52    0.25
  -3  -6  -4    6.71    0.19
  -3   6  -4    6.93    0.29
   4  -6   4    2.88    0.15
  -4  -6  -4    2.75    0.13
  -4  -6  -4    2.83    0.18
  -4   6  -4    2.73    0.20
  -5  -6  -4   15.79    0.43
  -5  -6  -4   15.52    0.31
   5  -6   4   15.11    0.36
  -5   6  -4   15.03    0.32
  -5   6  -4   15.31    0.47
  -6  -6  -4    1.24    0.10
   6  -6   4    1.16    0.13
  -6  -6  -4    1.18    0.16
  -6   6  -4    1.28    0.12
  -6   6  -4    1.15    0.17
  -7  -6  -4   37.21    0.79
  -7  -6  -4   36.62    0.57
   7  -6   4   36.16    0.67
  -7   6  -4   35.92    0.86
  -7   6  -4   35.72    0.66
  -8  -6  -4    0.26    0.11
   8  -6   4    0.17    0.07
  -8   6  -4    0.26    0.08
  -8   6  -4    0.16    0.10
  -9  -6  -4    0.02    0.09
  -9   6  -4    0.26    0.13
  -9   6  -4    0.00    0.07
 -10  -6  -4    0.04    0.10
 -10   6  -4    0.03    0.09
 -10   6  -4   -0.07    0.09
  10  -7  -4    0.20    0.11
 -10  -7   4    0.28    0.11
 -10  -7   4    0.14    0.11
 -10   7   4    0.14    0.10
  -9  -7   4    1.05    0.17
  -9  -7   4    0.98    0.17
   9  -7  -4    0.79    0.16
  -9   7   4    0.91    0.17
  -8  -7   4   12.71    0.43
   8  -7  -4   12.68    0.46
  -8  -7   4   12.70    0.44
  -8   7   4   12.12    0.43
  -7  -7   4    0.25    0.10
  -7  -7   4    0.17    0.09
   7  -7  -4    0.21    0.09
  -7   7   4    0.32    0.09
   6  -7  -4   12.68    0.42
  -6  -7   4   13.34    0.40
  -6   7   4   12.71    0.37
  -5  -7   4    8.85    0.32
   5  -7  -4    8.85    0.33
  -5   7   4    9.42    0.28
  -4  -7   4   37.62    0.71
   4  -7  -4   37.88    0.73
  -4   7   4   38.01    0.63
   3  -7  -4    4.66    0.21
   3  -7  -4    4.72    0.22
  -3  -7   4    5.13    0.22
  -3   7   4    4.97    0.17
   2  -7  -4    7.35    0.25
  -2  -7   4    7.37    0.26
   2  -7  -4    6.74    0.25
  -1  -7   4    9.41    0.28
   1  -7  -4    8.41    0.28
   1  -7  -4    8.77    0.27
   1   7  -4    8.95    0.33
   0  -7  -4   16.92    0.41
   0  -7  -4   16.84    0.38
   0  -7   4   16.65    0.39
   0   7  -4   16.80    0.46
  -1  -7  -4   31.83    0.56
   1  -7   4   31.22    0.58
  -1  -7  -4   31.14    0.61
  -1   7  -4   31.07    0.67
  -2  -7  -4   10.10    0.32
  -2  -7  -4   10.01    0.27
   2  -7   4   10.31    0.29
  -2   7  -4   10.27    0.36
   3  -7   4    5.47    0.21
  -3  -7  -4    5.33    0.24
  -3  -7  -4    5.23    0.19
  -3   7  -4    5.67    0.27
  -4  -7  -4   35.62    0.59
  -4  -7  -4   34.64    0.70
   4  -7   4   35.34    0.64
  -4   7  -4   35.40    0.77
  -5  -7  -4    0.04    0.04
  -5  -7  -4    0.05    0.06
   5  -7   4    0.01    0.04
  -5   7  -4   -0.04    0.06
  -6  -7  -4    2.67    0.14
   6  -7   4    2.15    0.17
  -6  -7  -4    2.13    0.20
  -6   7  -4    2.45    0.25
  -6   7  -4    2.21    0.14
   7  -7   4    1.41    0.15
  -7  -7  -4    1.30    0.11
  -7  -7  -4    1.19    0.17
  -7   7  -4    1.58    0.22
  -7   7  -4    1.20    0.13
  -8  -7  -4    2.05    0.23
   8  -7   4    2.20    0.19
  -8   7  -4    2.23    0.26
  -8   7  -4    1.96    0.17
  -9  -7  -4    0.10    0.10
  -9   7  -4    0.46    0.15
  -9   7  -4    0.07    0.08
  -9  -8   4    6.61    0.36
   9  -8  -4    6.50    0.36
  -9  -8   4    6.15    0.32
  -9   8   4    6.17    0.34
  -8  -8   4    0.27    0.10
  -8  -8   4    0.07    0.09
   8  -8  -4    0.14    0.10
  -8   8   4    0.07    0.08
  -7  -8   4    2.74    0.21
  -7  -8   4    1.94    0.20
   7  -8  -4    2.28    0.24
  -7   8   4    2.41    0.21
   6  -8  -4    2.21    0.22
  -6  -8   4    2.71    0.21
  -6  -8   4    2.57    0.20
  -6   8   4    2.68    0.19
  -5  -8   4   20.37    0.51
  -5  -8   4   20.84    0.47
   5  -8  -4   20.12    0.53
  -5   8   4   20.44    0.45
  -4  -8   4    0.30    0.08
   4  -8  -4    0.06    0.06
  -4   8   4    0.15    0.05
   3  -8  -4    1.08    0.14
  -3  -8   4    1.15    0.13
   3  -8  -4    1.20    0.12
  -3   8   4    1.25    0.11
   2  -8  -4    0.26    0.07
   2  -8  -4    0.44    0.08
  -2  -8   4    0.28    0.08
  -2   8   4    0.26    0.05
   1  -8  -4    7.46    0.28
  -1  -8   4    6.95    0.26
   1  -8  -4    6.80    0.25
   1   8  -4    6.83    0.31
   0  -8  -4   14.01    0.39
   0  -8  -4   14.49    0.36
   0  -8   4   14.18    0.37
   0   8  -4   14.61    0.45
  -1  -8  -4   29.56    0.62
  -1  -8  -4   31.21    0.57
   1  -8   4   29.75    0.59
  -1   8  -4   30.73    0.69
   2  -8   4    4.60    0.21
  -2  -8  -4    4.34    0.19
  -2  -8  -4    4.55    0.23
  -2   8  -4    4.50    0.26
  -3  -8  -4    5.19    0.20
  -3  -8  -4    5.29    0.25
   3  -8   4    5.18    0.22
  -3   8  -4    4.86    0.27
  -4  -8  -4    3.46    0.22
  -4  -8  -4    3.97    0.18
   4  -8   4    3.62    0.20
  -4   8  -4    4.21    0.26
   5  -8   4    6.51    0.27
  -5  -8  -4    6.49    0.22
  -5  -8  -4    6.58    0.30
  -5   8  -4    6.19    0.34
  -6  -8  -4    0.18    0.06
   6  -8   4    0.24    0.08
  -6  -8  -4    0.13    0.08
  -6   8  -4    0.19    0.10
  -7  -8  -4    1.59    0.13
  -7  -8  -4    0.85    0.15
   7  -8   4    1.20    0.15
  -7   8  -4    1.17    0.19
  -7   8  -4    1.07    0.13
  -8  -8  -4    1.23    0.18
   8  -8   4    1.56    0.17
  -8   8  -4    1.36    0.22
  -9  -8  -4    0.58    0.16
  -9   8  -4    0.33    0.14
  -9  -9   4    0.58    0.15
   9  -9  -4    0.85    0.17
  -9  -9   4    0.24    0.11
  -9   9   4    0.40    0.12
  -8  -9   4    6.15    0.31
  -8  -9   4    5.89    0.32
   8  -9  -4    5.46    0.33
  -8   9   4    5.67    0.31
   7  -9  -4    0.02    0.08
  -7  -9   4    0.02    0.08
  -7   9   4    0.24    0.09
   6  -9  -4    0.03    0.07
  -6  -9   4    0.04    0.07
  -6  -9   4    0.14    0.08
  -6   9   4    0.00    0.05
  -5  -9   4   14.03    0.42
   5  -9  -4   12.87    0.43
  -5  -9   4   14.22    0.39
  -5   9   4   14.19    0.38
   4  -9  -4   18.48    0.50
  -4  -9   4   19.25    0.49
  -4  -9   4   18.40    0.42
  -4   9   4   18.80    0.42
  -3  -9   4   39.39    0.66
   3  -9  -4   40.30    0.71
   3  -9  -4   39.51    0.77
  -3  -9   4   39.98    0.76
  -3   9   4   40.35    0.67
  -2  -9   4    0.08    0.04
   2  -9  -4    0.22    0.07
   2  -9  -4    0.03    0.06
  -2  -9   4    0.18    0.07
  -1  -9   4    0.31    0.08
  -1  -9   4    0.30    0.05
   1  -9  -4    0.32    0.08
   1  -9  -4    0.57    0.10
   1   9  -4    0.43    0.12
   0  -9  -4    2.92    0.17
   0  -9  -4    2.89    0.20
   0  -9   4    2.78    0.18
   0   9  -4    2.58    0.24
  -1  -9  -4   96.86    1.39
   1  -9   4   94.40    1.41
  -1  -9  -4   95.24    1.45
  -1   9  -4   95.10    1.55
  -2  -9  -4    7.33    0.30
   2  -9   4    7.80    0.28
  -2  -9  -4    7.76    0.26
  -2   9  -4    7.80    0.35
  -3  -9  -4    4.76    0.26
  -3  -9  -4    5.16    0.21
   3  -9   4    4.99    0.23
  -3   9  -4    5.56    0.30
  -4  -9  -4    0.54    0.09
  -4  -9  -4    0.66    0.13
   4  -9   4    0.60    0.11
  -4   9  -4    0.67    0.14
  -5  -9  -4    3.03    0.17
   5  -9   4    3.19    0.21
  -5  -9  -4    3.36    0.24
  -5   9  -4    3.14    0.26
  -6  -9  -4    0.23    0.10
   6  -9   4    0.33    0.09
  -6  -9  -4    0.25    0.07
  -6   9  -4    0.17    0.10
  -7  -9  -4    4.39    0.20
  -7  -9  -4    4.68    0.30
   7  -9   4    4.91    0.27
  -7   9  -4    4.20    0.33
  -8  -9  -4    0.19    0.11
   8  -9   4    0.13    0.08
  -8   9  -4    0.26    0.12
  -9  -9  -4    0.13    0.11
  -9   9  -4    0.06    0.12
  -9 -10   4    2.21    0.25
  -9 -10   4    2.42    0.25
   8 -10  -4    1.47    0.21
  -8 -10   4    1.84    0.21
  -8 -10   4    1.83    0.21
  -8  10   4    1.76    0.21
  -7 -10   4    0.25    0.09
   7 -10  -4    0.53    0.14
  -7 -10   4    0.12    0.09
  -7  10   4    0.28    0.10
  -6 -10   4   10.87    0.40
   6 -10  -4   11.13    0.43
  -6 -10   4   11.11    0.37
  -6  10   4   11.38    0.37
  -5 -10   4    7.55    0.33
   5 -10  -4    9.02    0.37
  -5 -10   4    7.81    0.29
  -5  10   4    8.46    0.31
  -4 -10   4   21.32    0.46
  -4 -10   4   20.92    0.54
   4 -10  -4   21.21    0.55
  -4  10   4   20.95    0.47
   3 -10  -4    0.46    0.10
  -3 -10   4    0.61    0.11
  -3 -10   4    0.47    0.08
   3 -10  -4    0.46    0.08
  -3  10   4    0.51    0.09
   2 -10  -4    5.27    0.25
  -2 -10   4    5.03    0.17
   2 -10  -4    5.03    0.24
  -2 -10   4    4.54    0.24
  -1 -10   4    3.25    0.21
   1 -10  -4    2.73    0.19
   1 -10  -4    3.22    0.21
   1  10  -4    3.45    0.26
   0 -10  -4    1.21    0.15
   0 -10  -4    1.31    0.15
   0 -10   4    1.31    0.15
   0  10  -4    0.93    0.15
  -1 -10  -4    3.56    0.23
  -1 -10  -4    3.55    0.20
   1 -10   4    3.54    0.21
  -1  10  -4    3.63    0.26
   2 -10   4    0.06    0.06
  -2 -10  -4    0.01    0.05
  -2 -10  -4    0.02    0.06
  -2  10  -4   -0.03    0.07
   3 -10   4    6.59    0.28
  -3 -10  -4    6.27    0.31
  -3 -10  -4    6.64    0.26
  -3  10  -4    6.74    0.35
   4 -10   4    7.35    0.30
  -4 -10  -4    7.03    0.32
  -4 -10  -4    7.18    0.27
  -4  10  -4    6.63    0.36
  -5 -10  -4    0.15    0.07
   5 -10   4    0.23    0.08
  -5 -10  -4    0.31    0.10
  -5  10  -4    0.19    0.11
  -6 -10  -4    0.40    0.11
   6 -10   4    0.43    0.11
  -6 -10  -4    0.23    0.07
  -6  10  -4    0.40    0.14
   7 -10   4   36.56    0.79
  -7 -10  -4   36.91    0.85
  -7 -10  -4   36.60    0.69
  -7  10  -4   34.60    0.92
  -8 -10  -4    0.36    0.13
   8 -10   4    0.51    0.13
  -8  10  -4    0.51    0.16
  -8 -11   4   -0.09    0.08
  -8 -11   4   -0.12    0.08
   8 -11  -4   -0.06    0.08
  -7 -11   4    1.07    0.17
   7 -11  -4    1.34    0.20
  -7 -11   4    0.87    0.15
  -7  11   4    1.09    0.16
  -6 -11   4    1.40    0.17
   6 -11  -4    1.87    0.23
  -6 -11   4    1.20    0.17
  -6  11   4    1.50    0.17
  -5 -11   4    0.29    0.10
   5 -11  -4    0.51    0.13
  -5 -11   4    0.37    0.09
  -5  11   4    0.31    0.09
  -4 -11   4    7.21    0.32
   4 -11  -4    7.46    0.34
  -4 -11   4    7.91    0.28
  -4  11   4    7.66    0.29
   3 -11  -4    8.10    0.34
  -3 -11   4    8.33    0.26
   3 -11  -4    8.22    0.29
  -3 -11   4    8.19    0.33
  -3  11   4    8.58    0.29
   2 -11  -4    0.04    0.06
   2 -11  -4    0.04    0.05
  -2 -11   4    0.04    0.04
  -2 -11   4    0.06    0.06
   1 -11  -4    0.01    0.06
   1 -11  -4   -0.01    0.06
  -1 -11   4    0.07    0.06
   0 -11  -4   -0.08    0.05
   0 -11  -4   -0.08    0.05
   0 -11   4    0.00    0.06
   0  11  -4    0.05    0.08
  -1 -11  -4    7.23    0.29
  -1 -11  -4    6.63    0.30
   1 -11   4    7.03    0.30
  -1  11  -4    7.08    0.37
  -2 -11  -4    1.62    0.17
   2 -11   4    1.45    0.16
  -2 -11  -4    1.82    0.20
  -2  11  -4    1.17    0.18
  -3 -11  -4    9.83    0.38
   3 -11   4   10.16    0.37
  -3 -11  -4   10.05    0.34
  -3  11  -4   10.32    0.44
  -4 -11  -4    0.25    0.09
  -4 -11  -4    0.19    0.08
   4 -11   4    0.15    0.07
  -4  11  -4    0.31    0.11
  -5 -11  -4    0.11    0.08
  -5 -11  -4    0.00    0.05
   5 -11   4    0.06    0.07
  -5  11  -4    0.13    0.10
   6 -11   4    0.87    0.16
  -6 -11  -4    0.84    0.16
  -6 -11  -4    0.97    0.13
  -6  11  -4    1.13    0.21
   7 -11   4    1.91    0.22
  -7 -11  -4    1.80    0.22
  -7  11  -4    1.98    0.27
   8 -11   4    0.13    0.08
  -8 -11  -4   -0.07    0.08
  -8  11  -4   -0.04    0.09
   7 -12  -4    2.03    0.25
  -7 -12   4    1.86    0.23
  -7 -12   4    2.07    0.21
   6 -12  -4    0.45    0.13
  -6 -12   4    0.51    0.13
  -5 -12   4    0.79    0.14
  -5 -12   4    0.90    0.13
   5 -12  -4    0.90    0.16
  -5  12   4    0.76    0.13
   4 -12  -4    1.81    0.22
  -4 -12   4    1.97    0.17
  -4 -12   4    1.74    0.19
  -4  12   4    2.08    0.19
   3 -12  -4    8.20    0.29
  -3 -12   4    7.84    0.34
   3 -12  -4    8.39    0.36
  -3 -12   4    8.37    0.27
  -3  12   4    9.06    0.32
   2 -12  -4    0.19    0.08
   2 -12  -4    0.05    0.07
  -2 -12   4    0.05    0.07
  -2 -12   4    0.08    0.05
   1 -12  -4    2.52    0.23
  -1 -12   4    2.75    0.21
   1 -12  -4    2.59    0.22
   0 -12  -4    0.11    0.07
   0 -12   4    0.16    0.08
   0 -12  -4    0.08    0.08
   0  12  -4   -0.04    0.08
  -1 -12  -4    1.44    0.16
   1 -12   4    1.29    0.17
  -1 -12  -4    1.24    0.16
  -1  12  -4    1.10    0.19
   2 -12   4    0.30    0.10
  -2 -12  -4    0.37    0.10
  -2 -12  -4    0.29    0.10
  -2  12  -4    0.30    0.12
   3 -12   4    0.94    0.15
  -3 -12  -4    1.34    0.16
  -3 -12  -4    1.10    0.16
  -3  12  -4    1.23    0.19
   4 -12   4    5.15    0.29
  -4 -12  -4    5.22    0.30
  -4 -12  -4    4.95    0.25
  -4  12  -4    4.78    0.33
  -5 -12  -4    3.93    0.29
  -5 -12  -4    3.77    0.23
   5 -12   4    3.82    0.26
  -5  12  -4    4.17    0.33
  -6 -12  -4    0.07    0.08
   6 -12   4    0.03    0.08
  -6 -12  -4   -0.12    0.08
  -6  12  -4    0.10    0.12
  -7 -12  -4    9.71    0.44
   7 -12   4    9.99    0.42
  -7  12  -4    9.80    0.51
  -7 -13   4    1.22    0.17
   6 -13  -4    0.00    0.08
  -6 -13   4    0.00    0.08
  -6 -13   4   -0.02    0.07
   5 -13  -4   13.63    0.51
  -5 -13   4   12.21    0.46
  -5 -13   4   14.02    0.41
   4 -13  -4   15.07    0.52
  -4 -13   4   14.66    0.49
  -4 -13   4   15.41    0.41
  -4  13   4   14.75    0.44
   3 -13  -4   34.09    0.79
  -3 -13   4   33.93    0.78
  -3 -13   4   34.24    0.64
   2 -13  -4    3.12    0.24
   2 -13  -4    3.55    0.23
  -2 -13   4    3.34    0.24
  -1 -13   4   13.05    0.45
   1 -13  -4   12.31    0.43
   1 -13  -4   12.91    0.42
   0 -13   4    3.18    0.24
   0 -13  -4    3.25    0.25
   0 -13  -4    3.52    0.24
   0  13  -4    3.06    0.32
  -1 -13  -4   45.61    0.91
   1 -13   4   47.01    0.95
  -1 -13  -4   48.40    0.94
  -1  13  -4   46.82    1.06
   2 -13   4    0.43    0.12
  -2 -13  -4    0.34    0.10
  -2 -13  -4    0.51    0.12
  -2  13  -4    0.39    0.14
  -3 -13  -4   -0.01    0.07
  -3 -13  -4   -0.04    0.07
   3 -13   4   -0.05    0.07
  -3  13  -4    0.07    0.09
  -4 -13  -4    0.81    0.15
   4 -13   4    0.77    0.15
  -4 -13  -4    1.06    0.15
  -4  13  -4    0.97    0.20
  -5 -13  -4    0.29    0.12
  -5 -13  -4    0.12    0.08
   5 -13   4    0.05    0.07
  -5  13  -4    0.15    0.11
  -6 -13  -4    0.04    0.07
   6 -13   4    0.03    0.08
  -6 -13  -4   -0.05    0.08
  -6  13  -4    0.06    0.11
  -6 -14   4    0.59    0.13
   5 -14  -4    4.40    0.31
  -5 -14   4    4.42    0.29
  -5 -14   4    4.94    0.27
  -4 -14   4    1.49    0.20
   4 -14  -4    1.50    0.21
   3 -14  -4   -0.06    0.07
  -3 -14   4    0.12    0.09
  -2 -14   4    4.01    0.27
   2 -14  -4    4.25    0.28
  -1 -14   4    0.02    0.08
   1 -14  -4    0.11    0.08
   1 -14  -4    0.05    0.07
   0 -14  -4    1.48    0.18
   0 -14   4    1.78    0.21
   0 -14  -4    1.58    0.19
   0  14  -4    1.40    0.23
  -1 -14  -4    6.95    0.35
   1 -14   4    6.81    0.34
  -1 -14  -4    6.52    0.32
  -1  14  -4    7.01    0.41
  -2 -14  -4    2.49    0.24
  -2 -14  -4    2.81    0.25
   2 -14   4    2.54    0.26
  -2  14  -4    2.11    0.27
   3 -14   4    3.10    0.29
  -3 -14  -4    3.84    0.29
  -3 -14  -4    3.56    0.24
  -3  14  -4    3.40    0.36
   4 -14   4    0.59    0.15
  -4 -14  -4    0.56    0.14
  -4 -14  -4    0.75    0.14
  -4  14  -4    0.76    0.19
   5 -14   4    0.76    0.16
  -5 -14  -4    0.75    0.14
  -5 -14  -4    0.74    0.16
  -5  14  -4    0.77    0.19
   4 -15  -4   -0.03    0.09
  -4 -15   4    0.03    0.09
   3 -15  -4    0.76    0.16
  -3 -15   4    0.83    0.17
   2 -15  -4    2.80    0.27
  -2 -15   4    2.66    0.26
  -1 -15   4   14.37    0.51
   1 -15  -4   15.35    0.52
   0 -15  -4    5.30    0.31
   0 -15   4    5.25    0.32
  -1 -15  -4    0.51    0.12
  -1 -15  -4    0.42    0.13
   1 -15   4    0.56    0.14
  -1  15  -4    0.53    0.17
   2 -15   4    0.84    0.16
  -2 -15  -4    0.84    0.15
  -2 -15  -4    1.10    0.18
  -2  15  -4    0.89    0.20
   3 -15   4    0.24    0.11
  -3 -15  -4    0.23    0.11
  -3 -15  -4    0.32    0.11
  -3  15  -4    0.36    0.15
  -4 -15  -4   28.26    0.75
   4 -15   4   26.52    0.75
  -4 -15  -4   28.11    0.70
  -4  15  -4   28.13    0.86
   2 -16  -4   14.36    0.54
  -2 -16   4   14.40    0.53
  -1 -16   4    0.07    0.09
   1 -16  -4    0.09    0.09
   0 -16   4    0.21    0.11
   0 -16  -4    0.19    0.11
   1 -16   4    0.10    0.10
  -1 -16  -4    0.13    0.10
  -1  16  -4    0.16    0.13
  -2 -16  -4   -0.04    0.08
   2 -16   4    0.03    0.09
  -2  16  -4   -0.01    0.11
 -11   0   5    0.03    0.10
 -10   0   5    0.06    0.09
  -9   0   5    0.03    0.09
  -8   0   5    0.00    0.08
  -7   0   5    0.01    0.07
  -6   0   5    0.03    0.06
  -5   0   5   -0.04    0.04
  -4   0   5    0.00    0.04
  -3   0   5   -0.03    0.03
   2   0  -5   -0.01    0.02
  -2   0   5    0.01    0.04
   1   0  -5    0.22    0.05
  -1   0   5   -0.02    0.02
   0   0  -5    0.04    0.04
   0   0   5   -0.03    0.03
   0   0  -5   -0.02    0.03
   1   0   5   -0.01    0.02
  -1   0  -5    0.08    0.03
  -1   0  -5    0.02    0.03
  -2   0  -5   -0.06    0.04
   2   0   5    0.05    0.03
  -3   0  -5    0.07    0.04
  -4   0  -5    0.19    0.07
  -5   0  -5    0.20    0.07
  -6   0  -5    0.04    0.06
  -7   0  -5    0.08    0.08
  -8   0  -5   -0.06    0.07
  -9   0  -5    0.01    0.08
 -10   0  -5   -0.06    0.09
 -11  -1   5    0.26    0.12
 -11   1   5    0.06    0.11
 -10  -1   5    5.14    0.32
 -10   1   5    5.20    0.33
  -9  -1   5   13.59    0.49
  -9   1   5   14.46    0.51
  -8  -1   5    0.20    0.10
  -8   1   5    0.34    0.11
  -7  -1   5   10.03    0.37
  -7   1   5   10.17    0.39
  -6  -1   5    6.37    0.28
  -6   1   5    5.67    0.28
  -5  -1   5   13.93    0.40
  -5   1   5   14.24    0.41
  -4  -1   5    6.53    0.25
  -4   1   5    5.90    0.25
  -3  -1   5   30.59    0.59
   3  -1  -5   30.62    0.56
  -3   1   5   30.25    0.58
  -2  -1   5   10.60    0.29
   2  -1  -5   10.50    0.28
   2   1  -5   10.74    0.27
   1  -1  -5    6.28    0.21
  -1  -1   5    5.78    0.20
   1   1  -5    6.16    0.19
   1   1  -5    6.17    0.19
   0  -1  -5    3.44    0.12
   0  -1   5    3.72    0.14
   0  -1  -5    3.32    0.16
   0   1   5    3.82    0.14
   0   1  -5    3.74    0.15
   0   1  -5    3.81    0.15
  -1  -1  -5   48.74    0.79
   1  -1   5   49.53    0.70
  -1   1  -5   48.93    0.76
  -1   1  -5   48.62    0.76
   1   1   5   50.09    0.70
   2  -1   5  149.74    1.84
  -2  -1  -5  151.69    2.02
   2   1   5  152.87    1.84
  -2   1  -5  152.91    2.00
  -2   1  -5  149.13    1.99
  -3  -1  -5    4.77    0.20
  -3   1  -5    4.83    0.19
  -3   1  -5    4.89    0.11
  -4  -1  -5   34.62    0.64
  -4   1  -5   34.68    0.62
  -5  -1  -5   12.81    0.36
  -5   1  -5   12.63    0.34
  -6  -1  -5    9.70    0.33
  -6   1  -5    9.77    0.32
  -7  -1  -5   20.21    0.52
  -7   1  -5   19.51    0.50
  -8  -1  -5    6.54    0.32
  -8   1  -5    6.49    0.31
  -9  -1  -5    0.39    0.12
  -9   1  -5    0.23    0.10
 -10  -1  -5    0.52    0.15
 -10   1  -5    0.44    0.13
 -11  -2   5    0.59    0.15
 -11   2   5    0.36    0.15
 -10  -2   5   -0.03    0.08
 -10   2   5   -0.06    0.09
  -9  -2   5   21.17    0.60
  -9   2   5   20.08    0.62
  -8  -2   5   22.65    0.60
  -8   2   5   21.82    0.61
  -7  -2   5   10.07    0.37
  -7   2   5    9.79    0.38
  -6  -2   5    5.86    0.27
  -6   2   5    6.06    0.28
  -5  -2   5    4.61    0.23
   5  -2  -5    4.66    0.22
  -5   2   5    4.47    0.23
   4  -2  -5  167.63    2.24
   3  -2  -5    0.69    0.09
   3  -2  -5    0.81    0.10
  -3  -2   5    0.75    0.10
   2  -2  -5   10.77    0.29
  -2  -2   5   10.70    0.29
   2  -2  -5   11.25    0.29
  -1  -2   5    1.49    0.10
   1  -2  -5    1.36    0.11
   1  -2  -5    1.53    0.10
   1   2  -5    1.40    0.10
   1   2  -5    1.32    0.11
   0  -2  -5    1.88    0.13
   0  -2  -5    2.06    0.10
   0  -2  -5    1.87    0.08
   0  -2   5    1.95    0.11
   0   2  -5    1.90    0.11
   0   2  -5    1.84    0.12
  -1  -2  -5    0.00    0.03
  -1  -2  -5    0.04    0.02
   1  -2   5    0.02    0.02
  -1   2  -5    0.04    0.03
  -1   2  -5    0.02    0.03
  -2  -2  -5    8.87    0.27
   2  -2   5    8.96    0.20
  -2  -2  -5    8.76    0.18
  -2   2  -5    9.04    0.25
  -2   2  -5    8.90    0.27
  -3  -2  -5   62.14    0.98
   3  -2   5   63.47    0.82
  -3   2  -5   63.03    0.94
  -3   2  -5   63.21    1.01
   4  -2   5    2.73    0.09
  -4  -2  -5    2.71    0.17
  -4   2  -5    2.79    0.15
  -5  -2  -5    1.11    0.13
  -5   2  -5    1.34    0.13
  -6  -2  -5   15.05    0.42
  -6   2  -5   15.04    0.39
  -7  -2  -5    1.38    0.17
  -7   2  -5    1.06    0.14
  -8  -2  -5   46.41    0.93
  -8   2  -5   46.92    0.89
  -9  -2  -5    0.19    0.10
  -9   2  -5    0.14    0.10
 -10  -2  -5    0.24    0.12
 -10   2  -5    0.13    0.10
 -10  -3   5    2.64    0.26
 -10   3   5    2.53    0.29
  -9  -3   5   -0.05    0.08
  -9   3   5   -0.03    0.09
  -8  -3   5    1.12    0.17
  -8   3   5    1.28    0.19
  -7  -3   5    1.20    0.16
  -7   3   5    1.04    0.16
   6  -3  -5    0.90    0.14
  -6  -3   5    0.88    0.14
  -5  -3   5    0.79    0.12
   5  -3  -5    0.75    0.12
   4  -3  -5    0.11    0.06
  -4  -3   5    0.01    0.05
   3  -3  -5   45.32    0.77
   3  -3  -5   47.32    0.78
  -3  -3   5   46.78    0.79
   2  -3  -5   21.40    0.44
  -2  -3   5   21.49    0.45
   2  -3  -5   21.26    0.45
   1  -3  -5   16.10    0.38
   1  -3  -5   15.74    0.34
  -1  -3   5   17.40    0.36
   1   3  -5   15.40    0.32
   1   3  -5   15.56    0.38
   0  -3  -5    0.63    0.09
   0  -3  -5    0.65    0.07
   0  -3   5    0.65    0.08
   0   3  -5    0.60    0.07
   0   3  -5    0.82    0.10
  -1  -3  -5    2.86    0.11
   1  -3   5    2.80    0.12
  -1  -3  -5    2.62    0.15
  -1   3  -5    2.75    0.15
  -1   3  -5    2.63    0.13
   2  -3   5  103.56    1.35
  -2  -3  -5  106.65    1.32
  -2  -3  -5  104.24    1.49
  -2   3  -5  104.50    1.41
  -2   3  -5  105.26    1.50
   3  -3   5    1.46    0.08
  -3  -3  -5    1.27    0.13
  -3  -3  -5    1.42    0.07
  -3   3  -5    1.39    0.11
  -3   3  -5    1.69    0.16
   4  -3   5    5.14    0.15
  -4  -3  -5    5.20    0.23
  -4   3  -5    5.14    0.25
  -4   3  -5    5.25    0.20
  -5  -3  -5    5.04    0.24
   5  -3   5    5.62    0.16
  -5   3  -5    5.37    0.21
  -5   3  -5    5.58    0.27
  -6  -3  -5    0.22    0.08
   6  -3   5    0.28    0.05
  -6   3  -5    0.16    0.07
  -7  -3  -5    0.59    0.13
  -7   3  -5    0.50    0.10
  -8  -3  -5    0.03    0.08
  -8   3  -5    0.16    0.09
  -9  -3  -5    0.01    0.09
  -9   3  -5    0.11    0.09
 -10  -3  -5    1.01    0.19
 -10   3  -5    0.92    0.17
 -10  -4   5    0.65    0.15
 -10   4   5    1.01    0.20
  -9  -4   5    0.28    0.11
  -9   4   5    0.09    0.10
  -8  -4   5    0.44    0.12
  -8   4   5    0.58    0.15
  -7  -4   5   51.53    0.96
   7  -4  -5   51.06    0.98
  -6  -4   5    7.92    0.31
   6  -4  -5    8.41    0.32
  -5  -4   5    1.44    0.15
   5  -4  -5    0.97    0.13
  -4  -4   5    9.63    0.31
   4  -4  -5    9.74    0.31
   3  -4  -5    6.34    0.23
  -3  -4   5    6.79    0.25
   3  -4  -5    6.69    0.24
   2  -4  -5    0.26    0.07
  -2  -4   5    0.40    0.07
   2  -4  -5    0.24    0.06
  -1  -4   5  116.56    1.56
   1  -4  -5  113.29    1.63
   1  -4  -5  115.39    1.54
   1   4  -5  116.18    1.65
   0  -4  -5   21.79    0.48
   0  -4   5   22.90    0.43
   0  -4  -5   21.81    0.41
   0   4  -5   22.18    0.39
   0   4  -5   22.83    0.50
   1  -4   5    1.25    0.10
  -1  -4  -5    1.22    0.13
  -1  -4  -5    1.20    0.09
  -1   4  -5    1.18    0.13
  -1   4  -5    1.39    0.09
   2  -4   5   15.76    0.32
  -2  -4  -5   15.90    0.30
  -2  -4  -5   15.59    0.39
  -2   4  -5   15.51    0.32
  -2   4  -5   15.77    0.41
  -3  -4  -5   22.29    0.37
  -3  -4  -5   22.50    0.50
   3  -4   5   22.96    0.40
  -3   4  -5   23.01    0.42
  -3   4  -5   23.14    0.53
  -4  -4  -5    1.61    0.08
  -4  -4  -5    1.58    0.16
   4  -4   5    1.63    0.10
  -4   4  -5    1.59    0.12
  -4   4  -5    1.75    0.17
  -5  -4  -5   26.31    0.58
   5  -4   5   26.22    0.45
  -5   4  -5   25.36    0.62
  -5   4  -5   26.32    0.50
   6  -4   5   22.15    0.41
  -6  -4  -5   21.46    0.54
  -6   4  -5   21.50    0.47
  -6   4  -5   22.61    0.61
  -7  -4  -5   -0.04    0.07
   7  -4   5    0.20    0.05
  -7   4  -5    0.15    0.07
  -7   4  -5    0.06    0.08
  -8  -4  -5    1.30    0.18
  -8   4  -5    1.46    0.17
  -9  -4  -5    1.03    0.18
  -9   4  -5    1.00    0.15
 -10  -4  -5    2.29    0.26
 -10   4  -5    2.38    0.24
 -10  -5   5    4.55    0.33
 -10  -5   5    4.83    0.31
 -10   5   5    4.50    0.34
  -9  -5   5    1.33    0.19
  -9   5   5    1.28    0.20
  -8  -5   5    0.24    0.10
   8  -5  -5    0.31    0.11
  -7  -5   5    7.45    0.33
   7  -5  -5    7.26    0.33
   6  -5  -5    0.17    0.08
  -6  -5   5    0.24    0.09
   5  -5  -5    0.48    0.10
  -5  -5   5    0.53    0.10
  -4  -5   5   16.62    0.43
   4  -5  -5   16.48    0.43
   4  -5  -5   17.44    0.42
   3  -5  -5   18.58    0.43
  -3  -5   5   17.88    0.43
   3  -5  -5   18.59    0.44
  -2  -5   5   13.17    0.34
   2  -5  -5   12.94    0.35
   2  -5  -5   12.78    0.33
   1  -5  -5   68.11    1.01
   1  -5  -5   70.45    1.09
  -1  -5   5   69.32    1.03
   1   5  -5   68.20    1.12
   0  -5  -5   22.66    0.43
   0  -5   5   21.99    0.44
   0  -5  -5   21.62    0.49
   0   5  -5   22.12    0.37
   0   5  -5   22.89    0.52
   1  -5   5    7.50    0.23
  -1  -5  -5    7.62    0.27
  -1  -5  -5    7.68    0.21
  -1   5  -5    7.84    0.19
  -1   5  -5    7.56    0.28
  -2  -5  -5   30.03    0.61
   2  -5   5   30.58    0.53
  -2  -5  -5   30.43    0.50
  -2   5  -5   30.12    0.49
  -2   5  -5   30.33    0.64
   3  -5   5    1.68    0.11
  -3  -5  -5    1.59    0.16
  -3  -5  -5    1.69    0.10
  -3   5  -5    1.72    0.11
  -3   5  -5    1.72    0.17
  -4  -5  -5   14.63    0.41
  -4  -5  -5   14.03    0.27
   4  -5   5   14.07    0.32
  -4   5  -5   14.64    0.32
  -4   5  -5   14.00    0.43
  -5  -5  -5    8.97    0.33
  -5  -5  -5    9.32    0.20
   5  -5   5    9.33    0.25
  -5   5  -5    8.77    0.36
  -5   5  -5    9.10    0.26
   6  -5   5    5.00    0.20
  -6  -5  -5    4.84    0.27
  -6   5  -5    4.81    0.21
  -6   5  -5    4.64    0.29
   7  -5   5    0.23    0.06
  -7  -5  -5    0.13    0.09
  -7   5  -5    0.19    0.10
  -7   5  -5    0.29    0.09
  -8  -5  -5    2.08    0.22
  -8   5  -5    2.11    0.25
  -8   5  -5    2.24    0.19
  -9  -5  -5    2.01    0.25
  -9   5  -5    1.87    0.26
  -9   5  -5    1.95    0.20
 -10  -5  -5    0.69    0.17
 -10   5  -5    0.57    0.14
 -10   5  -5    0.47    0.16
 -10  -6   5    2.11    0.25
 -10  -6   5    2.26    0.26
 -10   6   5    2.72    0.31
   9  -6  -5   16.24    0.55
  -9  -6   5   16.70    0.53
  -9  -6   5   16.62    0.54
  -8  -6   5    4.50    0.27
   8  -6  -5    3.59    0.27
   7  -6  -5    0.94    0.15
  -7  -6   5    0.94    0.15
   6  -6  -5    1.06    0.15
  -6  -6   5    1.05    0.15
  -6   6   5    1.34    0.14
   5  -6  -5   12.95    0.40
  -5  -6   5   12.03    0.38
  -5   6   5   12.35    0.30
  -4  -6   5    7.13    0.28
   4  -6  -5    7.33    0.27
   4  -6  -5    7.52    0.29
   3  -6  -5    3.58    0.19
   3  -6  -5    3.38    0.19
  -3  -6   5    3.62    0.19
  -2  -6   5    6.77    0.25
   2  -6  -5    6.38    0.25
   2  -6  -5    6.32    0.24
   1  -6  -5   37.76    0.67
  -1  -6   5   39.08    0.69
   1  -6  -5   38.50    0.72
   1   6  -5   39.68    0.77
   0  -6  -5    9.65    0.31
   0  -6   5    9.79    0.28
   0  -6  -5    9.89    0.27
  -1  -6  -5   10.57    0.33
  -1  -6  -5   10.56    0.27
   1  -6   5   10.73    0.29
  -1   6  -5   10.83    0.36
  -2  -6  -5    2.04    0.12
  -2  -6  -5    2.10    0.17
   2  -6   5    2.05    0.13
  -2   6  -5    2.16    0.17
  -3  -6  -5    2.00    0.18
  -3  -6  -5    1.69    0.11
   3  -6   5    1.83    0.13
  -3   6  -5    1.74    0.18
  -4  -6  -5   17.25    0.34
   4  -6   5   16.83    0.38
  -4  -6  -5   17.56    0.46
  -4   6  -5   17.01    0.35
  -4   6  -5   17.04    0.49
  -5  -6  -5    0.43    0.10
  -5  -6  -5    0.59    0.07
   5  -6   5    0.45    0.08
  -5   6  -5    0.53    0.08
  -5   6  -5    0.48    0.12
  -6  -6  -5    0.01    0.07
  -6  -6  -5    0.02    0.04
   6  -6   5    0.08    0.05
  -6   6  -5    0.08    0.09
  -6   6  -5    0.07    0.05
   7  -6   5    3.12    0.18
  -7  -6  -5    2.37    0.23
  -7   6  -5    3.08    0.30
  -7   6  -5    2.85    0.19
  -8  -6  -5   24.22    0.65
  -8   6  -5   22.32    0.70
  -8   6  -5   23.18    0.54
  -9  -6  -5    2.98    0.29
  -9   6  -5    3.80    0.25
  -9   6  -5    2.60    0.30
 -10  -7   5    1.03    0.19
 -10  -7   5    0.87    0.17
 -10   7   5    0.88    0.17
  -9  -7   5    1.51    0.22
   9  -7  -5    1.42    0.21
  -9  -7   5    1.66    0.21
  -9   7   5    1.69    0.21
   8  -7  -5    0.00    0.07
  -8  -7   5    0.04    0.08
  -8  -7   5   -0.03    0.08
  -8   7   5    0.05    0.07
  -7  -7   5    9.51    0.37
   7  -7  -5   10.19    0.40
  -7   7   5    9.64    0.33
   6  -7  -5    4.21    0.26
  -6  -7   5    4.55    0.25
  -6   7   5    5.00    0.22
  -5  -7   5    9.01    0.33
   5  -7  -5    8.87    0.34
  -5   7   5    8.82    0.26
   4  -7  -5    0.58    0.10
  -4  -7   5    0.61    0.11
   4  -7  -5    0.75    0.12
  -3  -7   5   25.51    0.56
   3  -7  -5   25.76    0.56
   3  -7  -5   25.43    0.55
   2  -7  -5   64.78    1.05
   2  -7  -5   64.51    1.03
  -2  -7   5   64.03    1.03
  -1  -7   5   57.22    0.94
   1  -7  -5   58.43    0.93
   1  -7  -5   56.85    0.98
   1   7  -5   59.38    1.05
   0  -7   5    8.03    0.27
   0  -7  -5    7.39    0.29
   0  -7  -5    7.75    0.25
   0   7  -5    7.68    0.32
  -1  -7  -5   -0.02    0.05
  -1  -7  -5    0.02    0.04
   1  -7   5    0.03    0.04
  -1   7  -5    0.06    0.06
   2  -7   5   46.22    0.78
  -2  -7  -5   45.72    0.74
  -2  -7  -5   46.03    0.85
  -2   7  -5   47.34    0.91
  -3  -7  -5    0.23    0.06
  -3  -7  -5    0.10    0.07
   3  -7   5    0.31    0.07
  -3   7  -5    0.24    0.08
  -4  -7  -5    6.76    0.21
   4  -7   5    6.36    0.24
  -4  -7  -5    6.15    0.28
  -4   7  -5    6.00    0.31
  -5  -7  -5   36.90    0.76
  -5  -7  -5   36.23    0.59
   5  -7   5   35.44    0.66
  -5   7  -5   34.51    0.81
  -6  -7  -5    4.38    0.17
  -6  -7  -5    4.62    0.28
   6  -7   5    4.37    0.21
  -6   7  -5    4.77    0.19
  -6   7  -5    4.69    0.31
  -7  -7  -5    7.59    0.36
   7  -7   5    7.96    0.29
  -7   7  -5    7.32    0.39
  -7   7  -5    7.40    0.26
  -8  -7  -5    2.99    0.28
  -8   7  -5    2.89    0.30
  -8   7  -5    3.36    0.21
  -9  -7  -5    3.05    0.29
  -9   7  -5    2.67    0.30
   9  -8  -5    0.28    0.12
  -9  -8   5    0.18    0.11
  -9  -8   5    0.30    0.12
  -9   8   5    0.33    0.12
  -8  -8   5    3.71    0.26
  -8  -8   5    3.40    0.26
   8  -8  -5    3.98    0.29
  -8   8   5    3.83    0.25
  -7  -8   5   12.28    0.43
   7  -8  -5   11.75    0.44
  -7  -8   5   11.82    0.41
  -7   8   5   12.23    0.38
  -6  -8   5   23.63    0.59
   6  -8  -5   23.37    0.61
  -6   8   5   23.52    0.51
   5  -8  -5    7.49    0.32
  -5  -8   5    8.62    0.33
  -5   8   5    8.50    0.26
   4  -8  -5    0.68    0.10
  -4  -8   5    0.69    0.12
   4  -8  -5    0.85    0.13
   3  -8  -5    8.44    0.30
   3  -8  -5    8.19    0.31
  -3  -8   5    8.34    0.31
   2  -8  -5    9.57    0.32
  -2  -8   5   10.34    0.33
   2  -8  -5   10.22    0.34
  -1  -8   5   68.00    1.09
   1  -8  -5   67.76    1.12
   1  -8  -5   66.71    1.06
   1   8  -5   67.57    1.20
   0  -8  -5   26.50    0.59
   0  -8   5   26.60    0.56
   0  -8  -5   27.24    0.55
   0   8  -5   27.54    0.66
  -1  -8  -5   22.11    0.54
  -1  -8  -5   21.24    0.46
   1  -8   5   22.65    0.50
  -1   8  -5   22.49    0.59
  -2  -8  -5    2.46    0.20
   2  -8   5    2.56    0.17
  -2  -8  -5    2.46    0.15
  -2   8  -5    2.64    0.21
   3  -8   5    0.51    0.09
  -3  -8  -5    0.48    0.10
  -3  -8  -5    0.63    0.09
  -3   8  -5    0.36    0.10
  -4  -8  -5    0.88    0.10
  -4  -8  -5    0.55    0.12
   4  -8   5    0.80    0.12
  -4   8  -5    0.85    0.15
   5  -8   5   93.38    1.38
  -5  -8  -5   91.32    1.28
  -5  -8  -5   91.75    1.49
  -5   8  -5   91.95    1.59
  -6  -8  -5    1.03    0.16
  -6  -8  -5    1.23    0.11
   6  -8   5    1.39    0.16
  -6   8  -5    1.02    0.18
  -7  -8  -5    2.02    0.23
   7  -8   5    2.04    0.19
  -7   8  -5    1.55    0.22
  -8  -8  -5    0.27    0.12
  -8   8  -5    0.22    0.12
  -9  -8  -5    0.57    0.16
  -9   8  -5    0.83    0.20
  -9  -9   5    0.60    0.15
   9  -9  -5    0.68    0.16
  -9  -9   5    0.70    0.16
  -8  -9   5    5.70    0.32
  -8  -9   5    5.39    0.31
   8  -9  -5    5.62    0.34
  -7  -9   5    4.12    0.26
  -7  -9   5    3.75    0.26
   7  -9  -5    3.84    0.28
  -7   9   5    4.01    0.24
   6  -9  -5   14.20    0.48
  -6  -9   5   15.16    0.43
  -6  -9   5   14.37    0.46
  -6   9   5   14.99    0.40
  -5  -9   5    8.96    0.31
  -5  -9   5    8.70    0.34
   5  -9  -5    8.54    0.36
  -5   9   5    8.94    0.28
   4  -9  -5    0.98    0.13
   4  -9  -5    1.15    0.15
  -4  -9   5    1.25    0.16
   3  -9  -5    2.77    0.20
   3  -9  -5    3.13    0.20
  -3  -9   5    2.75    0.20
  -2  -9   5    3.86    0.22
   2  -9  -5    4.32    0.24
   2  -9  -5    3.93    0.22
  -1  -9   5   47.65    0.87
   1  -9  -5   46.57    0.84
   1  -9  -5   47.35    0.88
   1   9  -5   49.98    0.99
   0  -9  -5   15.07    0.44
   0  -9  -5   15.77    0.41
   0  -9   5   15.68    0.43
   0   9  -5   15.30    0.50
   1  -9   5   20.26    0.49
  -1  -9  -5   20.36    0.52
  -1  -9  -5   20.71    0.47
  -1   9  -5   21.02    0.59
   2  -9   5    0.33    0.08
  -2  -9  -5    0.76    0.13
  -2  -9  -5    0.25    0.07
  -2   9  -5    0.43    0.12
  -3  -9  -5    1.52    0.17
   3  -9   5    1.48    0.16
  -3  -9  -5    1.46    0.14
  -3   9  -5    1.63    0.20
  -4  -9  -5    0.78    0.14
  -4  -9  -5    1.01    0.12
   4  -9   5    1.08    0.14
  -4   9  -5    1.00    0.18
  -5  -9  -5   20.80    0.57
   5  -9   5   21.51    0.52
  -5  -9  -5   21.33    0.46
  -5   9  -5   21.37    0.65
   6  -9   5    1.21    0.15
  -6  -9  -5    1.14    0.17
  -6  -9  -5    1.22    0.12
  -6   9  -5    0.99    0.19
  -7  -9  -5    0.10    0.09
   7  -9   5    0.11    0.07
  -7   9  -5    0.14    0.10
  -8  -9  -5    1.18    0.20
  -8   9  -5    0.79    0.18
  -8 -10   5    0.67    0.15
   8 -10  -5    0.47    0.14
  -8 -10   5    0.89    0.17
  -7 -10   5    0.68    0.13
   7 -10  -5    0.44    0.13
  -7 -10   5    0.53    0.13
  -6 -10   5    1.20    0.17
   6 -10  -5    1.14    0.18
  -6 -10   5    1.13    0.15
  -6  10   5    1.20    0.14
  -5 -10   5    0.07    0.06
  -5 -10   5    0.11    0.08
   5 -10  -5    0.10    0.08
  -5  10   5    0.02    0.05
   4 -10  -5    4.83    0.27
  -4 -10   5    4.87    0.27
  -4 -10   5    4.70    0.21
   4 -10  -5    4.87    0.24
  -4  10   5    4.96    0.21
  -3 -10   5    0.23    0.06
  -3 -10   5    0.11    0.08
   3 -10  -5    0.14    0.07
   3 -10  -5    0.11    0.07
  -2 -10   5    0.47    0.10
   2 -10  -5    0.32    0.09
  -2 -10   5    0.63    0.08
   2 -10  -5    0.67    0.12
   1 -10  -5    7.95    0.30
   1 -10  -5    7.07    0.31
  -1 -10   5    6.86    0.29
   1  10  -5    7.20    0.36
   0 -10   5    2.92    0.20
   0 -10  -5    2.64    0.21
   0 -10  -5    2.54    0.18
   0  10  -5    2.60    0.25
  -1 -10  -5    1.85    0.17
   1 -10   5    2.04    0.19
  -1 -10  -5    1.81    0.19
  -1  10  -5    1.77    0.21
  -2 -10  -5    0.07    0.07
  -2 -10  -5    0.14    0.07
   2 -10   5    0.19    0.08
  -2  10  -5    0.29    0.10
  -3 -10  -5    1.88    0.20
   3 -10   5    2.21    0.21
  -3 -10  -5    2.15    0.17
  -3  10  -5    2.05    0.25
  -4 -10  -5    0.28    0.08
   4 -10   5    0.31    0.09
  -4 -10  -5    0.45    0.12
  -4  10  -5    0.40    0.13
   5 -10   5    1.54    0.18
  -5 -10  -5    1.19    0.18
  -5 -10  -5    1.37    0.14
  -5  10  -5    1.25    0.21
   6 -10   5    0.41    0.11
  -6 -10  -5    0.37    0.09
  -6 -10  -5    0.36    0.12
  -6  10  -5    0.36    0.13
   7 -10   5    2.94    0.24
  -7 -10  -5    2.50    0.26
  -7  10  -5    2.58    0.31
  -8 -10  -5    0.26    0.13
  -8  10  -5    0.11    0.12
  -8 -11   5    0.32    0.12
  -8 -11   5    0.63    0.15
   8 -11  -5    0.43    0.14
   7 -11  -5    9.76    0.44
  -7 -11   5    9.66    0.41
  -7 -11   5   10.56    0.40
   6 -11  -5    8.61    0.40
  -6 -11   5    7.87    0.36
  -6 -11   5    8.80    0.34
   5 -11  -5   34.53    0.80
  -5 -11   5   34.14    0.78
  -5 -11   5   35.74    0.70
   4 -11  -5    1.53    0.19
  -4 -11   5    1.20    0.16
  -4 -11   5    1.52    0.14
   4 -11  -5    1.48    0.16
  -4  11   5    1.23    0.13
  -3 -11   5    1.82    0.14
   3 -11  -5    2.22    0.22
   3 -11  -5    2.00    0.19
  -3 -11   5    1.65    0.19
   2 -11  -5    0.09    0.07
  -2 -11   5    0.15    0.05
  -2 -11   5    0.21    0.08
   2 -11  -5    0.15    0.08
  -1 -11   5   57.72    1.05
   1 -11  -5   58.12    1.05
   1 -11  -5   58.81    1.04
   1  11  -5   58.58    1.18
   0 -11  -5   20.57    0.55
   0 -11  -5   20.83    0.53
   0 -11   5   21.01    0.54
   0  11  -5   21.61    0.64
   1 -11   5    1.33    0.17
  -1 -11  -5    0.92    0.13
  -1 -11  -5    1.21    0.17
  -1  11  -5    0.94    0.17
   2 -11   5    0.48    0.11
  -2 -11  -5    0.19    0.08
  -2 -11  -5    0.16    0.10
  -2  11  -5    0.33    0.12
   3 -11   5    1.12    0.16
  -3 -11  -5    1.30    0.18
  -3 -11  -5    1.35    0.15
  -3  11  -5    1.69    0.22
  -4 -11  -5    1.18    0.17
  -4 -11  -5    1.18    0.14
   4 -11   5    1.08    0.15
  -4  11  -5    1.06    0.18
  -5 -11  -5   34.96    0.69
  -5 -11  -5   34.32    0.80
   5 -11   5   34.13    0.76
  -5  11  -5   35.13    0.91
   6 -11   5    0.79    0.14
  -6 -11  -5    0.55    0.15
  -6 -11  -5    0.74    0.12
  -6  11  -5    0.69    0.17
   7 -11   5    0.06    0.08
  -7 -11  -5    0.13    0.10
  -7  11  -5   -0.08    0.09
   7 -12  -5    5.84    0.36
  -7 -12   5    6.34    0.35
  -7 -12   5    6.31    0.32
  -6 -12   5   18.02    0.57
  -6 -12   5   19.29    0.52
   6 -12  -5   19.68    0.62
   5 -12  -5    0.88    0.16
  -5 -12   5    0.75    0.12
  -5 -12   5    0.73    0.15
   4 -12  -5    7.90    0.37
   4 -12  -5    8.31    0.32
  -4 -12   5    7.98    0.29
  -4 -12   5    8.27    0.36
  -3 -12   5    0.11    0.06
   3 -12  -5    0.19    0.09
   3 -12  -5    0.19    0.08
  -3 -12   5    0.14    0.08
   2 -12  -5    0.27    0.09
  -2 -12   5    0.38    0.07
   2 -12  -5    0.33    0.11
  -2 -12   5    0.32    0.10
   1 -12  -5   13.58    0.45
  -1 -12   5   13.45    0.45
   1 -12  -5   13.29    0.44
   0 -12  -5    2.26    0.21
   0 -12  -5    2.72    0.24
   0 -12   5    2.25    0.21
   0  12  -5    2.37    0.28
  -1 -12  -5   15.85    0.49
  -1 -12  -5   15.37    0.45
   1 -12   5   14.77    0.47
  -1  12  -5   15.21    0.56
  -2 -12  -5    2.02    0.19
  -2 -12  -5    2.04    0.22
   2 -12   5    1.86    0.21
  -2  12  -5    1.86    0.25
  -3 -12  -5    0.36    0.09
   3 -12   5    0.47    0.12
  -3 -12  -5    0.54    0.13
  -3  12  -5    0.46    0.15
  -4 -12  -5    0.14    0.08
  -4 -12  -5    0.07    0.08
   4 -12   5    0.09    0.07
  -4  12  -5   -0.13    0.07
  -5 -12  -5   35.20    0.72
   5 -12   5   34.65    0.79
  -5 -12  -5   34.93    0.84
  -5  12  -5   34.98    0.94
   6 -12   5    0.89    0.16
  -6 -12  -5    0.86    0.13
  -6 -12  -5    1.10    0.18
  -6  12  -5    0.87    0.20
   7 -12   5    0.16    0.09
  -7 -12  -5    0.10    0.11
  -7  12  -5    0.40    0.15
   6 -13  -5    0.58    0.15
  -6 -13   5    0.76    0.16
  -6 -13   5    0.47    0.12
   5 -13  -5    0.08    0.09
  -5 -13   5    0.10    0.08
  -5 -13   5   -0.02    0.08
  -4 -13   5    1.00    0.13
  -4 -13   5    0.71    0.14
   4 -13  -5    0.97    0.17
  -3 -13   5   10.99    0.43
   3 -13  -5   11.86    0.45
   3 -13  -5   11.58    0.38
   2 -13  -5    3.02    0.24
   2 -13  -5    2.98    0.24
  -2 -13   5    3.01    0.24
   1 -13  -5    4.12    0.27
  -1 -13   5    4.44    0.27
   1 -13  -5    3.75    0.28
   0 -13  -5    0.33    0.11
   0 -13  -5    0.42    0.12
   0 -13   5    0.16    0.09
   0  13  -5    0.33    0.13
  -1 -13  -5    0.01    0.07
  -1 -13  -5    0.02    0.09
   1 -13   5    0.09    0.08
  -1  13  -5    0.01    0.09
   2 -13   5   18.22    0.55
  -2 -13  -5   18.97    0.52
  -2 -13  -5   20.75    0.59
  -2  13  -5   19.73    0.66
   3 -13   5    0.07    0.08
  -3 -13  -5    0.00    0.06
  -3 -13  -5    0.05    0.08
  -3  13  -5    0.16    0.12
  -4 -13  -5   -0.06    0.06
  -4 -13  -5    0.01    0.08
   4 -13   5   -0.04    0.07
  -4  13  -5   -0.10    0.09
   5 -13   5    0.66    0.14
  -5 -13  -5    0.87    0.14
  -5 -13  -5    0.80    0.16
  -5  13  -5    0.73    0.18
   6 -13   5    0.14    0.10
  -6 -13  -5    0.17    0.09
  -6 -13  -5    0.14    0.11
  -6  13  -5    0.19    0.13
   5 -14  -5    0.81    0.17
  -5 -14   5    0.94    0.17
   4 -14  -5    5.40    0.33
  -4 -14   5    4.53    0.30
  -3 -14   5    2.31    0.25
   3 -14  -5    2.17    0.24
   2 -14  -5    0.39    0.13
  -2 -14   5    0.37    0.12
   1 -14  -5    1.33    0.18
   1 -14  -5    1.21    0.18
  -1 -14   5    1.01    0.16
   0 -14   5    1.18    0.18
   0 -14  -5    1.47    0.19
   0 -14  -5    1.78    0.21
   0  14  -5    1.70    0.27
  -1 -14  -5    5.49    0.33
  -1 -14  -5    4.71    0.28
   1 -14   5    4.58    0.29
  -1  14  -5    4.83    0.38
   2 -14   5    6.67    0.35
  -2 -14  -5    7.64    0.34
  -2 -14  -5    7.20    0.38
  -2  14  -5    6.82    0.43
   3 -14   5    1.87    0.22
  -3 -14  -5    2.77    0.27
  -3 -14  -5    2.33    0.22
  -3  14  -5    2.24    0.31
   4 -14   5    0.30    0.11
  -4 -14  -5    0.14    0.09
  -4 -14  -5    0.28    0.12
  -4  14  -5    0.22    0.13
  -5 -14  -5   10.89    0.48
  -5 -14  -5   10.96    0.41
   5 -14   5   10.62    0.46
  -5  14  -5   12.00    0.57
  -4 -15   5    0.08    0.10
   4 -15  -5    0.17    0.11
  -3 -15   5    3.15    0.30
   3 -15  -5    2.71    0.28
   2 -15  -5    0.02    0.09
  -2 -15   5    0.09    0.09
   1 -15  -5    5.46    0.33
  -1 -15   5    6.23    0.34
   0 -15  -5    0.90    0.16
   0 -15   5    1.00    0.17
  -1 -15  -5    0.00    0.08
  -1 -15  -5   -0.13    0.07
   1 -15   5    0.31    0.12
  -1  15  -5    0.03    0.11
  -2 -15  -5    0.02    0.09
  -2 -15  -5    0.11    0.09
   2 -15   5    0.17    0.10
  -2  15  -5    0.02    0.11
   3 -15   5    0.02    0.08
  -3 -15  -5    0.11    0.11
  -3 -15  -5    0.00    0.08
  -3  15  -5    0.00    0.11
  -1 -16   5    8.59    0.41
   1 -16  -5    8.49    0.42
   0 -16   5    0.91    0.18
   0 -16  -5    0.71    0.16
  -1 -16  -5    1.72    0.22
   1 -16   5    1.64    0.22
  -1  16  -5    1.52    0.25
 -10   0   6   13.30    0.52
  -9   0   6    0.39    0.14
  -8   0   6    5.71    0.32
  -7   0   6    3.42    0.25
  -6   0   6  111.25    1.71
  -5   0   6   13.71    0.42
  -4   0   6    1.10    0.14
   3   0  -6   51.49    0.85
  -3   0   6   52.87    0.89
  -2   0   6    1.02    0.12
   2   0  -6    0.88    0.10
  -1   0   6    3.38    0.16
   1   0  -6    3.45    0.14
   1   0  -6    3.51    0.17
   0   0  -6   58.26    0.93
   0   0  -6   59.05    0.86
   0   0   6   58.28    0.87
  -1   0  -6  175.10    2.25
  -1   0  -6  174.77    2.32
   1   0   6  176.17    2.19
   2   0   6   58.03    0.80
  -2   0  -6   59.86    0.91
  -2   0  -6   58.16    0.93
  -3   0  -6    9.80    0.30
  -4   0  -6   23.25    0.50
  -5   0  -6    1.34    0.14
  -6   0  -6  127.28    1.85
  -7   0  -6    9.19    0.36
  -8   0  -6    0.49    0.12
  -9   0  -6    9.00    0.40
 -10   0  -6    0.84    0.18
 -10  -1   6    0.88    0.18
 -10   1   6    0.84    0.18
  -9  -1   6    6.81    0.37
  -9   1   6    7.47    0.39
  -8  -1   6    1.34    0.19
  -8   1   6    1.22    0.18
  -7  -1   6    0.49    0.12
  -7   1   6    0.43    0.12
  -6  -1   6    0.26    0.10
  -6   1   6    0.30    0.12
  -5  -1   6   23.51    0.57
  -5   1   6   24.33    0.58
  -4  -1   6   20.60    0.50
  -4   1   6   19.98    0.49
   3  -1  -6    4.50    0.20
  -3  -1   6    4.43    0.21
  -3   1   6    4.64    0.21
   2  -1  -6    6.36    0.23
  -2  -1   6    6.16    0.23
   2   1  -6    6.19    0.22
  -2   1   6    6.69    0.24
   1  -1  -6   33.98    0.62
   1  -1  -6   31.96    0.50
  -1  -1   6   32.21    0.59
  -1   1   6   33.68    0.59
   1   1  -6   33.61    0.58
   1   1  -6   33.57    0.60
   0  -1  -6  103.15    1.36
   0  -1   6  103.93    1.40
   0  -1  -6  102.19    1.48
   0   1  -6  102.83    1.46
   0   1  -6  104.98    1.43
   0   1   6  104.47    1.40
   1  -1   6    1.30    0.10
  -1  -1  -6    1.21    0.12
  -1  -1  -6    1.23    0.10
  -1   1  -6    1.10    0.12
  -1   1  -6    1.25    0.12
   1   1   6    1.56    0.10
   2  -1   6    2.58    0.10
   2   1   6    2.30    0.10
  -2   1  -6    2.69    0.15
  -2   1  -6    2.55    0.15
   3  -1   6   18.61    0.29
  -3  -1  -6   19.23    0.45
  -3   1  -6   19.25    0.45
  -3   1  -6   18.54    0.42
  -4  -1  -6    0.43    0.09
  -4   1  -6    0.42    0.08
  -5  -1  -6    2.53    0.18
  -5   1  -6    2.50    0.17
  -6  -1  -6    5.45    0.27
  -6   1  -6    5.83    0.26
  -7  -1  -6    1.40    0.17
  -7   1  -6    1.74    0.18
  -8  -1  -6    1.47    0.19
  -8   1  -6    1.31    0.18
  -9  -1  -6    1.06    0.18
  -9   1  -6    1.11    0.17
 -10  -1  -6    0.65    0.17
 -10   1  -6    0.89    0.18
 -10  -2   6    0.20    0.11
 -10   2   6    0.62    0.16
  -9  -2   6    3.69    0.28
  -9   2   6    4.08    0.31
  -8  -2   6    1.90    0.21
  -8   2   6    2.12    0.24
  -7  -2   6    4.54    0.27
  -7   2   6    3.87    0.27
  -6  -2   6   15.51    0.47
  -6   2   6   14.77    0.47
  -5  -2   6    0.36    0.10
  -5   2   6    0.35    0.10
   4  -2  -6    1.50    0.16
  -4  -2   6    1.40    0.15
  -4   2   6    1.26    0.15
   3  -2  -6   30.65    0.60
   3  -2  -6   30.56    0.60
  -3  -2   6   31.57    0.62
  -2  -2   6    9.37    0.29
   2  -2  -6    8.87    0.29
   2  -2  -6    9.33    0.28
   2   2  -6    8.94    0.26
  -1  -2   6    0.51    0.08
   1  -2  -6    0.33    0.06
   1  -2  -6    0.39    0.07
   1   2  -6    0.51    0.07
   1   2  -6    0.51    0.08
   0  -2  -6    5.01    0.17
   0  -2  -6    5.21    0.14
   0  -2   6    5.01    0.19
   0  -2  -6    5.08    0.22
   0   2  -6    4.93    0.19
   0   2  -6    4.83    0.20
  -1  -2  -6   24.09    0.42
  -1  -2  -6   24.94    0.52
   1  -2   6   24.86    0.44
  -1   2  -6   25.54    0.50
  -1   2  -6   24.24    0.48
   2  -2   6    0.61    0.07
  -2  -2  -6    0.53    0.09
  -2   2  -6    0.45    0.08
  -2   2  -6    0.50    0.08
   3  -2   6    5.51    0.15
  -3  -2  -6    5.41    0.23
  -3   2  -6    6.00    0.25
  -3   2  -6    5.51    0.21
  -4  -2  -6    9.57    0.32
   4  -2   6   10.05    0.19
  -4   2  -6   10.06    0.34
  -4   2  -6    9.64    0.29
  -5  -2  -6    2.48    0.19
  -5   2  -6    2.30    0.17
  -6  -2  -6    1.89    0.19
  -6   2  -6    1.93    0.18
  -7  -2  -6    3.32    0.24
  -7   2  -6    3.43    0.23
  -8  -2  -6    0.54    0.13
  -8   2  -6    0.69    0.13
  -9  -2  -6    0.87    0.16
  -9   2  -6    0.63    0.14
 -10  -2  -6    0.48    0.14
 -10   2  -6    0.48    0.14
 -10  -3   6    0.59    0.16
 -10   3   6    0.68    0.18
  -9  -3   6    6.09    0.33
  -9   3   6    6.41    0.37
  -8  -3   6    1.17    0.17
  -8   3   6    1.59    0.22
  -7  -3   6    1.55    0.19
  -7   3   6    1.50    0.19
  -6  -3   6    5.87    0.29
   6  -3  -6    5.73    0.29
  -6   3   6    6.36    0.31
  -5  -3   6    2.92    0.20
   5  -3  -6    3.08    0.20
   4  -3  -6    6.62    0.26
  -4  -3   6    6.30    0.26
   4  -3  -6    6.39    0.25
   3  -3  -6    4.76    0.21
   3  -3  -6    4.69    0.21
  -3  -3   6    4.82    0.22
   2  -3  -6    0.10    0.05
   2  -3  -6    0.06    0.04
  -2  -3   6    0.02    0.04
   1  -3  -6   26.35    0.50
  -1  -3   6   26.46    0.51
   1  -3  -6   26.08    0.55
   1   3  -6   25.36    0.48
   1   3  -6   26.04    0.54
   0  -3   6  184.49    2.35
   0  -3  -6  184.87    2.33
   0  -3  -6  182.08    2.47
   0   3  -6  184.57    2.38
   0   3  -6  187.99    2.46
  -1  -3  -6    1.20    0.13
   1  -3   6    1.20    0.09
  -1  -3  -6    1.16    0.09
  -1   3  -6    1.20    0.13
  -1   3  -6    1.27    0.11
  -2  -3  -6   44.70    0.80
  -2  -3  -6   45.56    0.65
   2  -3   6   45.56    0.68
  -2   3  -6   45.85    0.81
  -2   3  -6   45.74    0.74
  -3  -3  -6    2.14    0.09
  -3  -3  -6    2.19    0.17
   3  -3   6    2.34    0.11
  -3   3  -6    2.33    0.14
  -3   3  -6    2.48    0.18
   4  -3   6    0.58    0.06
  -4  -3  -6    0.59    0.10
  -4   3  -6    0.49    0.08
  -4   3  -6    0.61    0.11
  -5  -3  -6   10.98    0.36
   5  -3   6   11.14    0.23
  -5   3  -6   10.89    0.32
  -5   3  -6   11.49    0.40
  -6  -3  -6    0.43    0.11
  -6   3  -6    0.68    0.11
  -6   3  -6    0.70    0.13
  -7  -3  -6   13.85    0.46
  -7   3  -6   14.06    0.41
  -8  -3  -6    1.57    0.19
  -8   3  -6    1.63    0.18
  -9  -3  -6    4.94    0.32
  -9   3  -6    4.99    0.30
 -10  -3  -6    2.04    0.26
 -10   3  -6    1.98    0.23
 -10  -4   6    6.93    0.37
 -10   4   6    6.92    0.41
  -9  -4   6    4.00    0.28
  -9   4   6    3.90    0.31
  -8  -4   6    0.64    0.14
  -8   4   6    0.54    0.15
   7  -4  -6   11.64    0.42
  -7  -4   6   11.03    0.41
   6  -4  -6   59.70    1.07
  -6  -4   6   59.66    1.07
  -5  -4   6   15.57    0.45
   5  -4  -6   16.28    0.45
   4  -4  -6    0.08    0.05
  -4  -4   6    0.12    0.07
   4  -4  -6    0.07    0.06
   3  -4  -6   10.54    0.32
  -3  -4   6   11.02    0.33
   3  -4  -6   10.74    0.33
   2  -4  -6    1.08    0.13
  -2  -4   6    0.96    0.12
   2  -4  -6    0.99    0.11
   1  -4  -6    1.99    0.16
   1  -4  -6    1.52    0.12
  -1  -4   6    1.69    0.13
   1   4  -6    1.65    0.11
   1   4  -6    1.64    0.17
   0  -4   6    7.02    0.23
   0  -4  -6    7.21    0.22
   0  -4  -6    7.41    0.27
   0   4  -6    7.27    0.28
   0   4  -6    7.13    0.21
   1  -4   6   33.14    0.57
  -1  -4  -6   34.09    0.55
  -1  -4  -6   32.52    0.65
  -1   4  -6   34.11    0.57
  -1   4  -6   34.14    0.67
  -2  -4  -6   17.91    0.45
   2  -4   6   18.50    0.37
  -2  -4  -6   18.91    0.35
  -2   4  -6   18.45    0.38
  -2   4  -6   18.20    0.46
   3  -4   6    2.54    0.12
  -3  -4  -6    2.43    0.18
  -3  -4  -6    2.50    0.10
  -3   4  -6    2.45    0.14
  -3   4  -6    2.36    0.18
   4  -4   6    0.10    0.04
  -4  -4  -6    0.19    0.03
  -4  -4  -6    0.20    0.08
  -4   4  -6    0.19    0.08
  -4   4  -6    0.24    0.07
  -5  -4  -6   -0.06    0.05
   5  -4   6    0.07    0.04
  -5   4  -6    0.02    0.05
  -5   4  -6    0.03    0.07
   6  -4   6   93.41    1.23
  -6  -4  -6   91.47    1.48
  -6   4  -6   91.53    1.55
  -6   4  -6   92.68    1.38
  -7  -4  -6    0.31    0.11
  -7   4  -6    0.39    0.10
  -7   4  -6    0.28    0.11
  -8  -4  -6    3.40    0.27
  -8   4  -6    3.84    0.30
  -8   4  -6    4.03    0.24
  -9  -4  -6    0.91    0.17
  -9   4  -6    1.26    0.18
  -9   4  -6    1.18    0.22
 -10  -4  -6    0.13    0.11
 -10   4  -6    0.30    0.13
 -10   4  -6    0.16    0.10
 -10  -5   6    0.37    0.13
 -10   5   6    0.14    0.13
  -9  -5   6    1.00    0.18
  -9   5   6    1.19    0.21
   8  -5  -6    1.31    0.19
  -8  -5   6    1.29    0.19
   7  -5  -6    0.21    0.09
  -7  -5   6    0.29    0.11
  -6  -5   6    0.45    0.11
   6  -5  -6    0.65    0.13
   5  -5  -6   41.31    0.81
  -5  -5   6   39.63    0.79
   4  -5  -6   65.04    1.05
   4  -5  -6   61.31    1.04
  -4  -5   6   61.61    1.05
   3  -5  -6   15.77    0.42
  -3  -5   6   16.31    0.42
   3  -5  -6   15.24    0.40
  -2  -5   6   19.24    0.45
   2  -5  -6   19.45    0.44
   2  -5  -6   18.73    0.46
   1  -5  -6    0.58    0.10
   1  -5  -6    0.47    0.08
  -1  -5   6    0.54    0.09
   1   5  -6    0.66    0.12
   0  -5   6  100.72    1.42
   0  -5  -6  100.47    1.51
   0  -5  -6  101.77    1.40
   0   5  -6  100.90    1.36
   0   5  -6  103.74    1.55
  -1  -5  -6    9.89    0.26
  -1  -5  -6   10.24    0.34
   1  -5   6   10.04    0.28
  -1   5  -6   10.14    0.35
  -1   5  -6   10.32    0.25
  -2  -5  -6    6.63    0.20
  -2  -5  -6    6.83    0.28
   2  -5   6    6.73    0.22
  -2   5  -6    6.80    0.21
  -2   5  -6    6.98    0.29
  -3  -5  -6   44.89    0.84
   3  -5   6   43.56    0.70
  -3  -5  -6   44.00    0.66
  -3   5  -6   44.69    0.86
  -3   5  -6   44.21    0.71
  -4  -5  -6    2.40    0.19
  -4  -5  -6    2.60    0.11
   4  -5   6    2.50    0.14
  -4   5  -6    2.57    0.15
  -4   5  -6    2.46    0.22
  -5  -5  -6   16.63    0.48
   5  -5   6   17.07    0.36
  -5   5  -6   17.29    0.52
  -5   5  -6   17.18    0.40
   6  -5   6    8.09    0.24
  -6  -5  -6    7.80    0.35
  -6   5  -6    7.85    0.28
  -6   5  -6    7.36    0.37
  -7  -5  -6    0.19    0.10
  -7   5  -6    0.24    0.08
  -7   5  -6    0.16    0.10
  -8  -5  -6    1.33    0.18
  -8   5  -6    1.79    0.24
  -8   5  -6    1.29    0.16
  -9  -5  -6   12.57    0.50
  -9   5  -6   11.93    0.53
  -9   5  -6   12.67    0.43
 -10  -6   6    0.27    0.13
 -10  -6   6    0.08    0.10
 -10   6   6    0.09    0.12
  -9  -6   6    1.52    0.21
   9  -6  -6    1.68    0.23
   8  -6  -6   16.15    0.54
  -8  -6   6   18.06    0.54
  -7  -6   6    9.31    0.37
   7  -6  -6    9.08    0.39
  -6  -6   6   11.58    0.40
   6  -6  -6   10.76    0.40
  -6   6   6   11.04    0.31
   5  -6  -6    0.73    0.12
  -5  -6   6    0.96    0.15
   4  -6  -6    3.00    0.19
   4  -6  -6    2.71    0.19
  -4  -6   6    3.01    0.20
  -3  -6   6   92.93    1.43
   3  -6  -6   96.34    1.45
   3  -6  -6   96.72    1.43
  -2  -6   6    9.10    0.30
   2  -6  -6    8.85    0.32
   2  -6  -6    8.70    0.29
   1  -6  -6   25.82    0.52
   1  -6  -6   25.21    0.57
  -1  -6   6   24.62    0.53
   1   6  -6   25.04    0.60
   0  -6  -6    2.18    0.18
   0  -6   6    2.32    0.15
   0  -6  -6    2.16    0.14
   1  -6   6    3.86    0.18
  -1  -6  -6    3.48    0.16
  -1  -6  -6    3.25    0.21
  -1   6  -6    3.68    0.23
  -1   6  -6    3.74    0.13
  -2  -6  -6    0.77    0.12
   2  -6   6    0.77    0.10
  -2  -6  -6    0.78    0.09
  -2   6  -6    0.85    0.14
   3  -6   6   28.57    0.54
  -3  -6  -6   29.68    0.50
  -3  -6  -6   29.39    0.65
  -3   6  -6   28.39    0.67
  -3   6  -6   29.16    0.50
   4  -6   6   25.21    0.49
  -4  -6  -6   24.89    0.43
  -4  -6  -6   24.80    0.59
  -4   6  -6   24.11    0.63
  -4   6  -6   24.71    0.47
  -5  -6  -6    0.16    0.05
   5  -6   6    0.24    0.06
  -5  -6  -6    0.22    0.09
  -5   6  -6    0.11    0.09
  -5   6  -6    0.15    0.06
  -6  -6  -6    0.02    0.07
   6  -6   6    0.06    0.05
  -6   6  -6    0.11    0.09
  -7  -6  -6    0.68    0.15
  -7   6  -6    0.75    0.16
  -7   6  -6    0.73    0.11
  -8  -6  -6    3.49    0.29
  -8   6  -6    3.30    0.22
  -8   6  -6    3.26    0.32
  -9  -6  -6    7.80    0.41
  -9   6  -6    7.72    0.34
  -9   6  -6    7.22    0.43
  -9  -7   6   11.23    0.46
   9  -7  -6   11.51    0.49
  -9  -7   6   11.72    0.46
   8  -7  -6    1.48    0.21
  -8  -7   6    1.61    0.21
  -8   7   6    1.80    0.19
  -7  -7   6    2.05    0.22
   7  -7  -6    1.93    0.22
  -7   7   6    2.11    0.18
  -6  -7   6    0.87    0.15
   6  -7  -6    0.49    0.12
  -6   7   6    0.70    0.10
   5  -7  -6   12.29    0.41
  -5  -7   6   12.23    0.41
   4  -7  -6    9.29    0.33
   4  -7  -6    9.02    0.34
  -4  -7   6    9.60    0.35
   3  -7  -6    2.50    0.20
  -3  -7   6    2.51    0.19
   3  -7  -6    2.53    0.18
  -2  -7   6   21.25    0.51
   2  -7  -6   21.20    0.49
   2  -7  -6   21.57    0.53
   1  -7  -6   19.25    0.45
  -1  -7   6   20.66    0.48
   1  -7  -6   18.60    0.50
   1   7  -6   20.76    0.56
   0  -7  -6   53.04    0.95
   0  -7   6   53.38    0.89
   0  -7  -6   51.47    0.85
   0   7  -6   52.23    1.00
  -1  -7  -6    3.28    0.17
   1  -7   6    3.25    0.18
  -1  -7  -6    2.87    0.21
  -1   7  -6    3.18    0.23
  -2  -7  -6    1.20    0.15
   2  -7   6    1.27    0.13
  -2  -7  -6    1.26    0.11
  -2   7  -6    1.32    0.17
  -3  -7  -6   18.16    0.38
   3  -7   6   17.96    0.42
  -3  -7  -6   18.68    0.51
  -3   7  -6   18.06    0.53
  -4  -7  -6    1.67    0.12
  -4  -7  -6    1.60    0.18
   4  -7   6    1.62    0.15
  -4   7  -6    1.81    0.21
   5  -7   6    1.19    0.13
  -5  -7  -6    0.89    0.15
  -5  -7  -6    1.32    0.11
  -5   7  -6    0.99    0.17
  -5   7  -6    1.02    0.11
  -6  -7  -6    1.80    0.21
   6  -7   6    1.96    0.16
  -6   7  -6    2.05    0.15
  -6   7  -6    2.03    0.24
  -7  -7  -6    0.51    0.13
  -7   7  -6    0.62    0.11
  -7   7  -6    0.79    0.17
  -8  -7  -6    0.35    0.13
  -8   7  -6    0.29    0.14
  -9  -7  -6    1.14    0.20
  -9   7  -6    0.80    0.19
   9  -8  -6    2.20    0.26
  -9  -8   6    2.20    0.26
  -9  -8   6    1.84    0.23
   8  -8  -6    0.97    0.18
  -8  -8   6    0.80    0.16
  -8  -8   6    1.00    0.18
   7  -8  -6    2.88    0.28
  -7  -8   6    3.05    0.24
  -6  -8   6    1.14    0.17
   6  -8  -6    1.16    0.17
  -6   8   6    1.12    0.12
   5  -8  -6    4.55    0.27
  -5  -8   6    4.46    0.26
   4  -8  -6    1.82    0.18
  -4  -8   6    1.58    0.18
   4  -8  -6    1.58    0.18
  -3  -8   6   31.09    0.67
   3  -8  -6   29.48    0.64
   3  -8  -6   29.96    0.65
   2  -8  -6   10.08    0.36
   2  -8  -6    9.13    0.32
  -2  -8   6   10.00    0.34
   1  -8  -6    8.02    0.29
  -1  -8   6    8.08    0.30
   1  -8  -6    7.59    0.32
   1   8  -6    8.26    0.37
   0  -8  -6    0.07    0.06
   0  -8   6    0.05    0.06
   0  -8  -6    0.08    0.07
   0   8  -6    0.03    0.07
  -1  -8  -6    0.73    0.10
   1  -8   6    0.82    0.12
  -1  -8  -6    0.90    0.14
  -1   8  -6    1.00    0.16
  -2  -8  -6    3.10    0.23
   2  -8   6    3.14    0.19
  -2  -8  -6    3.38    0.17
  -2   8  -6    3.42    0.25
  -3  -8  -6    0.37    0.10
  -3  -8  -6    0.30    0.07
   3  -8   6    0.29    0.08
  -3   8  -6    0.46    0.12
  -4  -8  -6    1.60    0.13
  -4  -8  -6    2.01    0.22
   4  -8   6    2.17    0.17
  -4   8  -6    1.65    0.21
  -5  -8  -6    0.01    0.05
  -5  -8  -6    0.14    0.09
   5  -8   6    0.04    0.05
  -5   8  -6    0.15    0.09
  -6  -8  -6   17.43    0.54
   6  -8   6   17.76    0.45
  -6   8  -6   16.79    0.59
  -7  -8  -6    4.68    0.31
   7  -8   6    5.13    0.26
  -7   8  -6    4.00    0.33
  -8  -8  -6    0.02    0.11
  -8   8  -6    0.53    0.17
  -9   8  -6    0.43    0.16
  -9  -9   6    7.97    0.39
  -9  -9   6    8.74    0.41
  -8  -9   6    0.22    0.11
  -8  -9   6    0.00    0.08
   8  -9  -6   -0.07    0.07
  -7  -9   6    7.57    0.36
  -7  -9   6    7.24    0.33
   7  -9  -6    7.23    0.36
   6  -9  -6    0.49    0.12
  -6  -9   6    0.49    0.13
   5  -9  -6    0.73    0.13
  -5  -9   6    0.50    0.12
   4  -9  -6    4.44    0.24
  -4  -9   6    4.53    0.25
   4  -9  -6    4.92    0.27
   3  -9  -6    5.09    0.27
   3  -9  -6    5.11    0.26
  -3  -9   6    5.22    0.26
   2  -9  -6   31.59    0.69
  -2  -9   6   31.82    0.68
   2  -9  -6   30.84    0.66
   1  -9  -6    8.96    0.35
   1  -9  -6    8.94    0.32
  -1  -9   6    8.97    0.33
   1   9  -6    8.57    0.39
   0  -9  -6   -0.01    0.06
   0  -9   6    0.05    0.06
   0  -9  -6    0.03    0.05
   0   9  -6    0.09    0.08
  -1  -9  -6    3.25    0.24
  -1  -9  -6    3.45    0.19
   1  -9   6    3.21    0.20
  -1   9  -6    3.61    0.27
  -2  -9  -6    1.76    0.15
   2  -9   6    1.37    0.15
  -2  -9  -6    1.54    0.18
  -2   9  -6    1.38    0.19
   3  -9   6   82.93    1.30
  -3  -9  -6   82.72    1.23
  -3  -9  -6   84.77    1.41
  -3   9  -6   84.01    1.50
   4  -9   6    7.20    0.29
  -4  -9  -6    7.36    0.26
  -4  -9  -6    7.78    0.36
  -4   9  -6    7.74    0.39
   5  -9   6    3.02    0.21
  -5  -9  -6    3.07    0.17
  -5  -9  -6    3.42    0.26
  -5   9  -6    2.62    0.27
   6  -9   6    1.94    0.19
  -6  -9  -6    2.09    0.23
  -6   9  -6    2.25    0.28
   7  -9   6    3.05    0.23
  -7  -9  -6    2.75    0.27
  -7   9  -6    2.84    0.32
  -8  -9  -6    0.30    0.14
  -8   9  -6    0.46    0.15
  -8 -10   6   22.03    0.64
  -8 -10   6   22.10    0.62
   8 -10  -6   21.27    0.67
  -7 -10   6    0.95    0.16
  -7 -10   6    1.01    0.16
   7 -10  -6    0.84    0.17
  -6 -10   6    0.24    0.09
  -6 -10   6    0.36    0.12
   6 -10  -6    0.43    0.12
   5 -10  -6    0.61    0.14
  -5 -10   6    0.69    0.12
  -5 -10   6    0.53    0.13
   4 -10  -6    3.19    0.24
  -4 -10   6    3.46    0.24
   4 -10  -6    3.30    0.23
   3 -10  -6   21.64    0.57
   3 -10  -6   23.17    0.57
  -3 -10   6   22.78    0.59
   2 -10  -6    0.00    0.06
  -2 -10   6   -0.01    0.06
   2 -10  -6    0.03    0.07
  -1 -10   6   11.17    0.38
   1 -10  -6   10.43    0.39
   1 -10  -6   10.85    0.37
   1  10  -6   10.64    0.45
   0 -10   6    9.17    0.35
   0 -10  -6    9.19    0.37
   0 -10  -6    9.33    0.33
   0  10  -6    8.90    0.41
  -1 -10  -6    5.08    0.24
   1 -10   6    5.89    0.28
  -1 -10  -6    5.75    0.30
  -1  10  -6    5.26    0.34
  -2 -10  -6    1.03    0.16
   2 -10   6    1.12    0.15
  -2 -10  -6    1.17    0.14
  -2  10  -6    0.91    0.17
  -3 -10  -6   34.13    0.66
  -3 -10  -6   34.16    0.78
   3 -10   6   34.16    0.72
  -3  10  -6   34.16    0.86
  -4 -10  -6    1.02    0.12
  -4 -10  -6    0.86    0.16
   4 -10   6    0.80    0.13
  -4  10  -6    0.93    0.18
  -5 -10  -6    0.67    0.14
   5 -10   6    0.78    0.13
  -5 -10  -6    0.61    0.10
  -5  10  -6    0.42    0.13
  -6 -10  -6    0.10    0.10
   6 -10   6    0.21    0.09
  -6  10  -6    0.08    0.10
   7 -10   6    0.21    0.09
  -7 -10  -6    0.10    0.11
  -7  10  -6    0.22    0.13
  -8 -10  -6    3.30    0.32
  -8  10  -6    3.44    0.39
  -7 -11   6    0.31    0.11
   7 -11  -6    0.45    0.13
  -7 -11   6    0.30    0.12
   6 -11  -6    0.10    0.10
  -6 -11   6    0.30    0.10
  -6 -11   6    0.20    0.11
  -5 -11   6    1.71    0.17
   5 -11  -6    1.83    0.22
  -5 -11   6    1.66    0.20
  -4 -11   6    1.00    0.12
   4 -11  -6    1.09    0.16
  -4 -11   6    0.96    0.17
   4 -11  -6    1.26    0.16
  -3 -11   6    3.17    0.18
   3 -11  -6    3.66    0.25
  -3 -11   6    3.12    0.24
   3 -11  -6    3.88    0.26
   2 -11  -6   12.64    0.43
  -2 -11   6   12.67    0.30
  -2 -11   6   13.04    0.44
   2 -11  -6   12.87    0.43
   1 -11  -6    7.22    0.32
  -1 -11   6    7.04    0.32
   1 -11  -6    6.91    0.34
   1  11  -6    7.69    0.41
   0 -11  -6    3.74    0.23
   0 -11  -6    3.74    0.27
   0 -11   6    3.80    0.25
   0  11  -6    3.77    0.31
  -1 -11  -6    0.08    0.07
  -1 -11  -6    0.11    0.09
   1 -11   6    0.03    0.07
  -1  11  -6    0.06    0.08
   2 -11   6    0.03    0.06
  -2 -11  -6    0.06    0.08
  -2 -11  -6    0.17    0.07
  -2  11  -6    0.03    0.09
  -3 -11  -6   13.93    0.49
  -3 -11  -6   13.51    0.40
   3 -11   6   13.80    0.44
  -3  11  -6   14.00    0.54
  -4 -11  -6    0.29    0.11
  -4 -11  -6    0.35    0.09
   4 -11   6    0.41    0.11
  -4  11  -6    0.34    0.13
  -5 -11  -6    0.93    0.13
  -5 -11  -6    0.75    0.16
   5 -11   6    1.01    0.16
  -5  11  -6    0.75    0.18
  -6 -11  -6    0.24    0.12
   6 -11   6    0.12    0.08
  -6  11  -6    0.05    0.10
  -7 -11  -6    0.14    0.11
   7 -11   6    0.34    0.11
  -7  11  -6    0.35    0.15
   7 -12  -6   -0.02    0.08
  -7 -12   6    0.10    0.09
  -7 -12   6   -0.06    0.09
  -6 -12   6    3.98    0.29
  -6 -12   6    3.95    0.26
   6 -12  -6    4.79    0.32
   5 -12  -6    0.82    0.16
  -5 -12   6    1.31    0.19
  -5 -12   6    1.00    0.13
  -4 -12   6    0.20    0.10
   4 -12  -6    0.18    0.08
   4 -12  -6    0.01    0.08
  -4 -12   6    0.07    0.07
   3 -12  -6    0.21    0.09
  -3 -12   6    0.19    0.10
  -3 -12   6    0.14    0.06
   3 -12  -6    0.04    0.08
  -2 -12   6    3.87    0.26
   2 -12  -6    4.00    0.26
   2 -12  -6    4.33    0.28
   1 -12  -6    9.83    0.38
   1 -12  -6    9.99    0.41
  -1 -12   6    9.83    0.39
   1  12  -6   10.23    0.48
   0 -12  -6    0.57    0.13
   0 -12   6    0.40    0.11
   0 -12  -6    0.42    0.11
   0  12  -6    0.42    0.14
   1 -12   6    1.92    0.22
  -1 -12  -6    2.13    0.23
  -1 -12  -6    1.78    0.19
  -1  12  -6    2.08    0.26
  -2 -12  -6    1.65    0.20
  -2 -12  -6    1.49    0.17
   2 -12   6    1.23    0.17
  -2  12  -6    1.35    0.23
   3 -12   6    1.63    0.19
  -3 -12  -6    2.00    0.19
  -3 -12  -6    1.56    0.20
  -3  12  -6    1.75    0.26
  -4 -12  -6   -0.08    0.08
   4 -12   6    0.00    0.06
  -4 -12  -6    0.00    0.07
  -4  12  -6    0.07    0.11
   5 -12   6    0.84    0.15
  -5 -12  -6    0.97    0.18
  -5 -12  -6    0.85    0.14
  -5  12  -6    0.62    0.17
   6 -12   6   10.52    0.42
  -6 -12  -6   11.64    0.50
  -6  12  -6   10.91    0.54
  -6 -13   6    0.91    0.15
  -6 -13   6    0.95    0.18
   6 -13  -6    0.90    0.18
  -5 -13   6    3.84    0.24
   5 -13  -6    3.42    0.31
  -5 -13   6    3.64    0.28
   4 -13  -6    0.05    0.06
  -4 -13   6    0.10    0.09
   4 -13  -6    0.08    0.09
  -3 -13   6    0.70    0.15
   3 -13  -6    1.10    0.16
   3 -13  -6    1.04    0.18
   2 -13  -6   20.86    0.60
   2 -13  -6   21.15    0.58
  -2 -13   6   20.36    0.60
  -1 -13   6   12.79    0.46
   1 -13  -6   12.38    0.45
   1 -13  -6   12.97    0.47
   0 -13  -6   16.82    0.51
   0 -13   6   15.94    0.52
   0 -13  -6   17.51    0.55
   0  13  -6   16.54    0.62
  -1 -13  -6    0.40    0.11
   1 -13   6    0.42    0.12
  -1 -13  -6    0.49    0.13
  -1  13  -6    0.34    0.14
  -2 -13  -6    2.66    0.21
  -2 -13  -6    2.63    0.26
   2 -13   6    2.52    0.25
  -2  13  -6    2.32    0.30
  -3 -13  -6   24.81    0.61
   3 -13   6   25.04    0.67
  -3 -13  -6   26.22    0.71
  -3  13  -6   25.26    0.79
  -4 -13  -6   -0.05    0.08
   4 -13   6    0.04    0.07
  -4 -13  -6   -0.02    0.07
  -4  13  -6   -0.11    0.09
  -5 -13  -6    2.16    0.21
   5 -13   6    2.40    0.26
  -5 -13  -6    2.22    0.26
  -5  13  -6    1.73    0.27
   5 -14  -6    1.00    0.19
  -5 -14   6    1.09    0.19
  -4 -14   6    0.40    0.13
   4 -14  -6    0.22    0.12
   3 -14  -6    5.17    0.32
  -3 -14   6    5.06    0.31
  -2 -14   6    0.76    0.15
   2 -14  -6    0.69    0.15
   2 -14  -6    0.84    0.15
   1 -14  -6    4.45    0.31
  -1 -14   6    4.48    0.30
   1 -14  -6    4.52    0.29
   0 -14   6    1.86    0.22
   0 -14  -6    1.82    0.22
   0 -14  -6    2.08    0.22
   0  14  -6    1.77    0.25
  -1 -14  -6    0.06    0.08
   1 -14   6    0.07    0.08
  -1 -14  -6    0.06    0.08
  -1  14  -6   -0.01    0.10
  -2 -14  -6    0.97    0.18
   2 -14   6    1.06    0.18
  -2 -14  -6    0.72    0.14
  -2  14  -6    1.08    0.22
   3 -14   6    0.28    0.11
  -3 -14  -6    0.34    0.11
  -3 -14  -6    0.32    0.12
  -3  14  -6    0.53    0.17
  -4 -14  -6    0.15    0.10
   4 -14   6    0.24    0.12
  -4 -14  -6    0.27    0.13
  -4  14  -6    0.17    0.13
   3 -15  -6   -0.02    0.09
  -3 -15   6    0.11    0.10
   2 -15  -6    0.18    0.12
  -2 -15   6    0.34    0.13
  -1 -15   6    0.08    0.09
   1 -15  -6    0.14    0.10
   0 -15   6   17.89    0.60
   0 -15  -6   20.06    0.62
   0 -15  -6   18.03    0.58
   0  15  -6   18.08    0.70
   1 -15   6    2.30    0.26
  -1 -15  -6    2.19    0.24
  -1 -15  -6    2.54    0.26
  -1  15  -6    1.83    0.27
  -2 -15  -6    2.18    0.24
  -2 -15  -6    2.55    0.27
   2 -15   6    1.87    0.24
  -2  15  -6    2.17    0.30
  -3 -15  -6    0.05    0.10
   3 -15   6    0.17    0.11
  -3  15  -6   -0.05    0.10
 -10   0   7   -0.07    0.10
  -9   0   7   -0.05    0.09
  -8   0   7    0.07    0.09
  -7   0   7   -0.10    0.08
  -6   0   7    0.00    0.07
  -5   0   7    0.01    0.06
  -4   0   7    0.00    0.06
   3   0  -7   -0.01    0.04
  -3   0   7    0.02    0.05
   2   0  -7    0.04    0.05
  -2   0   7    0.14    0.06
  -1   0   7   -0.02    0.04
   1   0  -7    0.06    0.05
   1   0  -7   -0.02    0.03
   0   0  -7    0.05    0.04
   0   0  -7    0.02    0.03
   0   0   7    0.03    0.04
  -1   0  -7    0.07    0.05
  -1   0  -7    0.42    0.07
   1   0   7   -0.01    0.03
  -2   0  -7    0.06    0.04
   2   0   7    0.04    0.03
  -2   0  -7   -0.01    0.04
  -3   0  -7   -0.02    0.04
  -3   0  -7    0.10    0.06
   3   0   7    0.09    0.03
  -4   0  -7   -0.01    0.04
  -5   0  -7    0.02    0.06
  -6   0  -7   -0.02    0.07
  -7   0  -7    0.02    0.07
  -8   0  -7    0.09    0.08
  -9   0  -7    0.14    0.10
 -10   0  -7    0.03    0.10
 -10  -1   7    2.38    0.27
 -10   1   7    2.67    0.30
  -9  -1   7    0.00    0.10
  -9   1   7   -0.03    0.09
  -8  -1   7   13.18    0.49
  -8   1   7   12.64    0.49
  -7  -1   7    3.19    0.26
  -7   1   7    2.95    0.28
  -6  -1   7    1.34    0.18
  -6   1   7    1.32    0.18
  -5  -1   7    1.20    0.16
  -5   1   7    1.05    0.15
  -4  -1   7    7.10    0.29
  -4   1   7    7.12    0.30
  -3  -1   7   29.93    0.63
   3  -1  -7   30.20    0.61
   3   1  -7   30.58    0.60
  -3   1   7   31.52    0.64
   2  -1  -7   19.29    0.46
  -2  -1   7   18.37    0.45
   2   1  -7   18.40    0.43
  -2   1   7   20.28    0.46
   1  -1  -7    6.65    0.26
   1  -1  -7    6.45    0.19
  -1  -1   7    6.59    0.24
   1   1  -7    6.47    0.22
   1   1  -7    6.45    0.24
  -1   1   7    6.64    0.24
   0  -1  -7   13.05    0.29
   0  -1   7   13.05    0.32
   0  -1  -7   13.03    0.37
   0   1  -7   12.63    0.35
   0   1  -7   12.80    0.33
   0   1   7   12.66    0.32
  -1  -1  -7    1.47    0.14
   1  -1   7    1.64    0.11
  -1  -1  -7    1.75    0.11
  -1   1  -7    1.30    0.13
   1   1   7    1.51    0.11
  -1   1  -7    1.54    0.12
   2  -1   7    0.67    0.07
  -2  -1  -7    0.43    0.09
  -2  -1  -7    0.55    0.08
   2   1   7    0.79    0.08
  -2   1  -7    0.69    0.10
  -2   1  -7    0.62    0.09
   3  -1   7   17.99    0.31
  -3  -1  -7   17.86    0.45
  -3   1  -7   18.07    0.44
  -3   1  -7   18.48    0.44
   3   1   7   17.46    0.29
  -4  -1  -7    2.50    0.19
  -4   1  -7    1.94    0.18
  -4   1  -7    2.91    0.19
  -5  -1  -7   14.01    0.42
  -5   1  -7   14.61    0.41
  -6  -1  -7   21.74    0.56
  -6   1  -7   20.96    0.53
  -7  -1  -7    7.26    0.33
  -7   1  -7    6.52    0.31
  -8  -1  -7    2.28    0.24
  -8   1  -7    2.12    0.22
  -9  -1  -7   -0.02    0.09
  -9   1  -7    0.10    0.09
 -10  -1  -7   20.13    0.65
 -10   1  -7   21.20    0.65
 -10  -2   7    2.48    0.28
 -10   2   7    2.35    0.29
  -9  -2   7    1.68    0.23
  -9   2   7    1.91    0.25
  -8  -2   7   14.60    0.51
  -8   2   7   14.58    0.53
  -7  -2   7   27.55    0.69
  -7   2   7   28.10    0.72
  -6  -2   7   12.01    0.42
  -6   2   7   11.67    0.43
  -5  -2   7   19.43    0.53
  -5   2   7   19.22    0.53
  -4  -2   7    1.14    0.15
   4  -2  -7    1.35    0.15
  -4   2   7    1.45    0.16
   3  -2  -7    0.51    0.09
  -3  -2   7    0.54    0.10
  -3   2   7    0.47    0.10
   2  -2  -7  105.59    1.57
   2  -2  -7  107.29    1.51
  -2  -2   7  107.31    1.54
   2   2  -7  106.51    1.51
   1  -2  -7   76.55    1.13
   1  -2  -7   77.30    1.22
  -1  -2   7   76.15    1.15
   1   2  -7   77.15    1.15
   1   2  -7   77.99    1.17
   0  -2  -7   71.19    1.04
   0  -2   7   73.48    1.08
   0  -2  -7   72.28    0.99
   0  -2  -7   70.59    1.15
   0   2  -7   73.96    1.11
   0   2  -7   72.89    1.12
   1  -2   7    0.47    0.07
  -1  -2  -7    0.55    0.07
  -1  -2  -7    0.34    0.08
  -1   2  -7    0.36    0.07
   1   2   7    0.43    0.07
  -1   2  -7    0.35    0.07
  -2  -2  -7    8.15    0.30
   2  -2   7    7.91    0.21
  -2   2  -7    7.80    0.28
   2   2   7    8.29    0.21
  -2   2  -7    8.32    0.27
  -3  -2  -7   18.13    0.47
   3  -2   7   17.78    0.33
   3   2   7   19.18    0.32
  -3   2  -7   18.56    0.44
  -3   2  -7   19.11    0.47
   4  -2   7   62.49    0.83
  -4  -2  -7   63.61    1.08
  -4   2  -7   63.31    1.03
  -4   2  -7   64.68    1.09
  -5  -2  -7    9.87    0.36
  -5   2  -7    9.82    0.37
  -5   2  -7    9.68    0.33
  -6  -2  -7    0.48    0.11
  -6   2  -7    0.65    0.12
  -7  -2  -7    1.93    0.22
  -7   2  -7    2.06    0.21
  -8  -2  -7    0.89    0.16
  -8   2  -7    0.96    0.15
  -9  -2  -7    1.17    0.19
  -9   2  -7    0.79    0.16
 -10  -3   7    0.74    0.17
 -10   3   7    0.96    0.20
  -9  -3   7    1.65    0.22
  -9   3   7    1.70    0.25
  -8  -3   7    0.01    0.09
  -8   3   7   -0.13    0.08
  -7  -3   7   16.52    0.52
  -7   3   7   16.28    0.54
  -6  -3   7   22.54    0.59
  -6   3   7   22.13    0.61
  -5  -3   7    0.53    0.11
   5  -3  -7    0.55    0.11
   4  -3  -7   15.88    0.44
   4  -3  -7   15.04    0.42
  -4  -3   7   16.23    0.45
   3  -3  -7   27.16    0.59
   3  -3  -7   26.42    0.57
  -3  -3   7   25.75    0.58
   2  -3  -7   37.14    0.72
  -2  -3   7   37.19    0.70
   2  -3  -7   37.46    0.68
   2   3  -7   36.58    0.66
  -1  -3   7   28.71    0.57
   1  -3  -7   28.56    0.62
   1  -3  -7   29.11    0.55
   1   3  -7   29.59    0.61
   1   3  -7   29.38    0.55
   0  -3  -7   43.95    0.81
   0  -3   7   44.03    0.74
   0  -3  -7   44.93    0.72
   0   3  -7   44.25    0.74
   0   3  -7   45.03    0.80
  -1  -3  -7   27.79    0.49
  -1  -3  -7   28.40    0.61
   1  -3   7   28.52    0.52
  -1   3  -7   28.17    0.59
  -1   3  -7   27.71    0.54
   2  -3   7    3.38    0.15
  -2  -3  -7    3.33    0.20
  -2  -3  -7    3.27    0.13
  -2   3  -7    3.31    0.18
  -2   3  -7    3.39    0.20
   3  -3   7    5.23    0.17
  -3  -3  -7    5.20    0.26
  -3   3  -7    5.76    0.23
  -3   3  -7    5.85    0.27
   4  -3   7   43.98    0.63
  -4  -3  -7   42.94    0.84
  -4   3  -7   42.80    0.77
  -4   3  -7   44.20    0.86
  -5  -3  -7    4.14    0.25
  -5   3  -7    4.25    0.26
  -5   3  -7    4.01    0.21
  -6  -3  -7    1.38    0.17
  -6   3  -7    1.59    0.16
  -6   3  -7    1.28    0.18
  -7  -3  -7    0.45    0.12
  -7   3  -7    0.50    0.13
  -7   3  -7    0.57    0.12
  -8  -3  -7    0.48    0.14
  -8   3  -7    0.56    0.16
  -8   3  -7    0.41    0.11
  -9  -3  -7    0.65    0.16
  -9   3  -7    0.71    0.17
  -9   3  -7    0.77    0.15
 -10  -4   7    3.60    0.29
 -10   4   7    2.84    0.32
  -9  -4   7    7.40    0.38
  -9   4   7    6.80    0.40
  -8  -4   7    5.06    0.31
  -8   4   7    5.03    0.33
  -7  -4   7    0.57    0.14
  -7   4   7    0.66    0.15
  -6  -4   7    4.96    0.28
   6  -4  -7    4.95    0.28
  -5  -4   7   65.41    1.14
   5  -4  -7   64.56    1.12
  -4  -4   7    7.92    0.31
   4  -4  -7    7.76    0.30
   4  -4  -7    7.78    0.30
   3  -4  -7    0.35    0.09
  -3  -4   7    0.24    0.08
   3  -4  -7    0.36    0.08
   2  -4  -7   21.13    0.48
   2  -4  -7   21.61    0.52
  -2  -4   7   21.16    0.50
   2   4  -7   22.18    0.53
   1  -4  -7    0.17    0.08
  -1  -4   7    0.17    0.06
   1  -4  -7    0.23    0.06
   0  -4  -7    1.79    0.13
   0  -4   7    1.70    0.15
   0  -4  -7    1.61    0.17
   0   4  -7    1.56    0.16
   0   4  -7    1.60    0.13
  -1  -4  -7    0.20    0.07
   1  -4   7    0.30    0.06
  -1  -4  -7    0.25    0.05
  -1   4  -7    0.14    0.07
  -1   4  -7    0.25    0.06
   2  -4   7   81.99    1.14
  -2  -4  -7   80.24    1.29
  -2  -4  -7   79.41    1.09
  -2   4  -7   79.90    1.29
  -2   4  -7   78.54    1.17
  -3  -4  -7    8.13    0.32
   3  -4   7    8.31    0.24
  -3  -4  -7    8.05    0.20
  -3   4  -7    8.73    0.33
  -3   4  -7    8.32    0.27
  -4  -4  -7    4.64    0.26
   4  -4   7    4.56    0.17
  -4   4  -7    4.76    0.21
  -4   4  -7    4.78    0.27
  -5  -4  -7   11.01    0.40
   5  -4   7   11.12    0.25
  -5   4  -7   10.85    0.34
  -5   4  -7   10.94    0.42
  -6  -4  -7    0.16    0.09
  -6   4  -7    0.13    0.08
  -6   4  -7    0.02    0.08
  -7  -4  -7   16.70    0.53
  -7   4  -7   15.80    0.55
  -7   4  -7   16.10    0.46
  -8  -4  -7    0.53    0.14
  -8   4  -7    0.64    0.13
  -8   4  -7    0.56    0.15
  -9  -4  -7    0.58    0.16
  -9   4  -7    0.50    0.15
  -9   4  -7    0.51    0.14
 -10  -5   7    0.17    0.11
 -10   5   7    0.21    0.13
  -9  -5   7   -0.04    0.08
  -9   5   7    0.10    0.11
  -8  -5   7    9.36    0.41
  -8   5   7    8.42    0.42
  -7  -5   7    0.19    0.10
   7  -5  -7    0.13    0.09
  -6  -5   7    4.15    0.26
   6  -5  -7    4.45    0.27
  -5  -5   7    1.79    0.19
   5  -5  -7    1.53    0.18
   4  -5  -7   11.68    0.38
  -4  -5   7   11.01    0.38
   4  -5  -7   10.71    0.36
  -3  -5   7    0.56    0.11
   3  -5  -7    0.42    0.10
   3  -5  -7    0.38    0.09
   2  -5  -7    7.87    0.31
   2  -5  -7    7.79    0.28
  -2  -5   7    7.28    0.28
   2   5  -7    7.52    0.32
   1  -5  -7   16.04    0.39
  -1  -5   7   16.04    0.41
   1  -5  -7   15.87    0.45
   1   5  -7   16.24    0.46
   0  -5   7    2.44    0.16
   0  -5  -7    2.63    0.15
   0  -5  -7    2.68    0.20
   0   5  -7    2.46    0.20
   0   5  -7    2.38    0.14
  -1  -5  -7   45.95    0.73
  -1  -5  -7   45.45    0.86
   1  -5   7   43.58    0.75
  -1   5  -7   44.22    0.72
  -1   5  -7   44.87    0.87
   2  -5   7    3.68    0.18
  -2  -5  -7    3.22    0.22
  -2  -5  -7    3.48    0.15
  -2   5  -7    3.41    0.17
  -2   5  -7    3.38    0.22
  -3  -5  -7    6.91    0.31
   3  -5   7    7.38    0.24
  -3  -5  -7    6.68    0.20
  -3   5  -7    6.96    0.24
  -3   5  -7    7.54    0.32
  -4  -5  -7   11.84    0.41
   4  -5   7   11.64    0.30
  -4  -5  -7   11.76    0.25
  -4   5  -7   13.09    0.43
  -4   5  -7   11.71    0.33
   5  -5   7    3.66    0.16
  -5  -5  -7    3.07    0.24
  -5   5  -7    3.05    0.27
  -5   5  -7    3.09    0.19
   6  -5   7    1.07    0.11
  -6  -5  -7    1.14    0.18
  -6   5  -7    0.79    0.15
  -6   5  -7    0.94    0.13
  -7  -5  -7    8.07    0.38
  -7   5  -7    8.16    0.41
  -7   5  -7    8.37    0.32
  -8  -5  -7    6.76    0.37
  -8   5  -7    7.29    0.32
  -8   5  -7    7.08    0.40
  -9  -5  -7    0.14    0.12
  -9   5  -7    0.14    0.10
  -9   5  -7    0.31    0.14
  -9  -6   7    2.65    0.28
  -9   6   7    3.30    0.35
  -8  -6   7    0.78    0.15
   8  -6  -7    0.47    0.13
  -7  -6   7   14.19    0.48
   7  -6  -7   13.22    0.47
  -6  -6   7    0.28    0.10
   6  -6  -7    0.25    0.09
  -5  -6   7    0.77    0.14
   5  -6  -7    0.65    0.12
  -4  -6   7    0.70    0.12
   4  -6  -7    0.86    0.13
   4  -6  -7    0.79    0.12
   3  -6  -7    0.29    0.08
  -3  -6   7    0.30    0.09
   3  -6  -7    0.19    0.07
   2  -6  -7    1.25    0.16
  -2  -6   7    0.69    0.11
   2  -6  -7    0.66    0.11
   2   6  -7    0.72    0.13
   1  -6  -7    1.82    0.15
  -1  -6   7    1.71    0.17
   1  -6  -7    1.44    0.16
   1   6  -7    2.23    0.21
   0  -6  -7   10.49    0.37
   0  -6   7   11.17    0.33
   0  -6  -7   10.55    0.31
   0   6  -7   10.49    0.38
   0   6  -7   10.28    0.26
  -1  -6  -7   13.70    0.34
   1  -6   7   13.27    0.36
  -1  -6  -7   13.88    0.43
  -1   6  -7   13.58    0.44
  -1   6  -7   13.42    0.30
   2  -6   7   11.90    0.34
  -2  -6  -7   13.24    0.32
  -2  -6  -7   13.04    0.42
  -2   6  -7   12.18    0.42
  -2   6  -7   12.86    0.30
  -3  -6  -7   -0.06    0.06
  -3  -6  -7    0.03    0.04
   3  -6   7    0.03    0.04
  -3   6  -7    0.14    0.05
  -3   6  -7    0.07    0.07
  -4  -6  -7   32.88    0.53
  -4  -6  -7   32.02    0.73
   4  -6   7   32.83    0.60
  -4   6  -7   31.91    0.76
  -4   6  -7   31.94    0.59
  -5  -6  -7    1.01    0.16
  -5  -6  -7    1.09    0.09
   5  -6   7    1.37    0.13
  -5   6  -7    1.23    0.18
  -5   6  -7    1.25    0.13
   6  -6   7    1.78    0.14
  -6  -6  -7    1.15    0.17
  -6   6  -7    1.69    0.16
  -6   6  -7    1.49    0.21
  -7  -6  -7    0.30    0.11
  -7   6  -7    0.56    0.11
  -7   6  -7    0.44    0.14
  -8  -6  -7    2.75    0.27
  -8   6  -7    3.32    0.34
  -8   6  -7    3.70    0.24
  -9  -6  -7    2.44    0.27
  -9   6  -7    2.35    0.30
  -9  -7   7    0.01    0.11
   9  -7  -7    0.04    0.10
  -8  -7   7    6.16    0.34
   8  -7  -7    6.11    0.35
  -7  -7   7    4.47    0.29
   7  -7  -7    4.64    0.30
   6  -7  -7   10.86    0.42
  -6  -7   7   11.26    0.42
   5  -7  -7    0.98    0.15
  -5  -7   7    0.90    0.14
  -4  -7   7   26.07    0.63
   4  -7  -7   26.38    0.62
   4  -7  -7   25.63    0.61
  -3  -7   7    3.50    0.22
   3  -7  -7    3.09    0.21
   3  -7  -7    2.81    0.21
  -2  -7   7    5.53    0.26
   2  -7  -7    5.03    0.27
   2  -7  -7    5.46    0.25
   1  -7  -7    5.51    0.28
  -1  -7   7    5.21    0.25
   1  -7  -7    4.99    0.23
   1   7  -7    5.12    0.29
   0  -7   7    9.26    0.32
   0  -7  -7    9.83    0.30
   0  -7  -7    9.28    0.36
   0   7  -7    9.74    0.39
  -1  -7  -7   72.51    1.23
  -1  -7  -7   72.61    1.10
   1  -7   7   73.54    1.15
  -1   7  -7   72.23    1.28
  -1   7  -7   71.59    1.00
  -2  -7  -7    1.92    0.20
  -2  -7  -7    2.09    0.14
   2  -7   7    2.11    0.16
  -2   7  -7    1.92    0.22
   3  -7   7   14.09    0.38
  -3  -7  -7   13.50    0.33
  -3  -7  -7   14.44    0.46
  -3   7  -7   14.45    0.49
   4  -7   7   11.86    0.34
  -4  -7  -7   11.73    0.29
  -4  -7  -7   11.28    0.42
  -4   7  -7   11.19    0.44
  -4   7  -7   11.57    0.30
  -5  -7  -7    0.78    0.09
   5  -7   7    0.77    0.11
  -5  -7  -7    0.55    0.13
  -5   7  -7    0.84    0.16
  -5   7  -7    0.87    0.11
   6  -7   7    5.16    0.23
  -6  -7  -7    5.06    0.32
  -6   7  -7    4.59    0.32
  -6   7  -7    4.95    0.23
  -7  -7  -7    8.06    0.40
  -7   7  -7    7.78    0.43
  -8  -7  -7    1.49    0.21
  -8   7  -7    1.09    0.22
   9  -8  -7    2.72    0.30
  -9  -8   7    2.51    0.28
  -8  -8   7    1.67    0.22
   8  -8  -7    1.53    0.23
   7  -8  -7   -0.02    0.08
  -7  -8   7    0.03    0.08
  -6  -8   7    2.57    0.24
   6  -8  -7    2.29    0.24
   5  -8  -7   35.38    0.79
  -5  -8   7   36.31    0.80
   4  -8  -7    3.05    0.23
   4  -8  -7    3.19    0.22
  -4  -8   7    3.28    0.23
   3  -8  -7    7.28    0.32
  -3  -8   7    7.59    0.32
   3  -8  -7    7.30    0.31
   2  -8  -7    1.28    0.15
   2  -8  -7    1.20    0.16
  -2  -8   7    1.08    0.14
  -1  -8   7    0.59    0.11
   1  -8  -7    0.82    0.14
   1  -8  -7    0.56    0.10
   1   8  -7    0.69    0.15
   0  -8  -7    0.17    0.06
   0  -8  -7    0.10    0.07
   0  -8   7    0.11    0.07
   0   8  -7    0.10    0.08
  -1  -8  -7   22.33    0.49
   1  -8   7   22.12    0.53
  -1  -8  -7   23.11    0.59
  -1   8  -7   22.44    0.63
  -2  -8  -7   18.10    0.43
   2  -8   7   18.13    0.47
  -2  -8  -7   19.40    0.55
  -2   8  -7   18.75    0.58
  -3  -8  -7    1.15    0.17
  -3  -8  -7    0.78    0.10
   3  -8   7    0.88    0.12
  -3   8  -7    0.85    0.15
  -4  -8  -7    0.29    0.08
   4  -8   7    0.26    0.08
  -4  -8  -7    0.14    0.10
  -4   8  -7    0.16    0.10
  -5  -8  -7    0.09    0.05
   5  -8   7    0.00    0.05
  -5  -8  -7   -0.04    0.07
  -5   8  -7    0.09    0.09
  -6  -8  -7    4.55    0.31
   6  -8   7    4.67    0.24
  -6   8  -7    4.26    0.32
  -7  -8  -7   45.12    1.00
  -7   8  -7   42.82    1.06
  -8  -8  -7    1.49    0.22
  -8   8  -7    1.72    0.26
   8  -9  -7    3.40    0.31
  -8  -9   7    3.94    0.29
  -7  -9   7    1.89    0.22
   7  -9  -7    1.79    0.22
  -6  -9   7    6.06    0.33
   6  -9  -7    6.13    0.33
   5  -9  -7   13.21    0.46
  -5  -9   7   14.27    0.47
   4  -9  -7   18.06    0.53
   4  -9  -7   19.27    0.52
  -4  -9   7   18.13    0.53
  -3  -9   7    6.12    0.30
   3  -9  -7    6.92    0.32
   3  -9  -7    5.79    0.29
   2  -9  -7    0.45    0.11
  -2  -9   7    0.53    0.12
   2  -9  -7    0.51    0.11
   1  -9  -7    0.72    0.13
  -1  -9   7    0.72    0.13
   1  -9  -7    0.63    0.11
   1   9  -7    0.48    0.13
   0  -9   7    4.26    0.24
   0  -9  -7    4.19    0.22
   0  -9  -7    4.36    0.27
   0   9  -7    4.29    0.30
   1  -9   7   32.99    0.70
  -1  -9  -7   33.34    0.66
  -1  -9  -7   34.12    0.76
  -1   9  -7   31.82    0.81
  -2  -9  -7    0.74    0.11
  -2  -9  -7    0.35    0.12
   2  -9   7    0.64    0.12
  -2   9  -7    0.33    0.11
   3  -9   7    5.19    0.26
  -3  -9  -7    5.81    0.33
  -3  -9  -7    5.41    0.23
  -3   9  -7    5.66    0.34
  -4  -9  -7    4.21    0.20
  -4  -9  -7    3.84    0.28
   4  -9   7    3.62    0.23
  -4   9  -7    4.36    0.31
  -5  -9  -7    0.15    0.10
  -5  -9  -7    0.09    0.06
   5  -9   7    0.24    0.08
  -5   9  -7    0.24    0.11
   6  -9   7    0.07    0.06
  -6  -9  -7    0.03    0.09
  -6   9  -7   -0.03    0.09
  -7  -9  -7    0.15    0.11
  -7   9  -7   -0.03    0.10
  -8  -9  -7    1.82    0.26
  -8   9  -7    1.68    0.26
  -8 -10   7    2.78    0.27
  -8 -10   7    3.03    0.31
   8 -10  -7    2.69    0.30
  -7 -10   7    0.04    0.09
  -7 -10   7   -0.04    0.08
   7 -10  -7   -0.11    0.08
   6 -10  -7    1.49    0.20
  -6 -10   7    1.50    0.21
   5 -10  -7    4.14    0.28
  -5 -10   7    4.18    0.28
   4 -10  -7    0.25    0.10
  -4 -10   7    0.27    0.10
   4 -10  -7    0.33    0.10
  -3 -10   7    3.30    0.24
   3 -10  -7    3.60    0.25
   3 -10  -7    3.41    0.24
  -2 -10   7    0.12    0.09
   2 -10  -7    0.19    0.09
   2 -10  -7    0.33    0.10
   1 -10  -7    0.95    0.14
   1 -10  -7    1.25    0.18
  -1 -10   7    0.93    0.15
   1  10  -7    0.91    0.18
   0 -10   7    6.63    0.31
   0 -10  -7    6.93    0.29
   0 -10  -7    7.13    0.34
   0  10  -7    6.27    0.37
  -1 -10  -7    1.68    0.20
   1 -10   7    1.89    0.20
  -1 -10  -7    1.57    0.16
  -1  10  -7    1.29    0.20
  -2 -10  -7    1.17    0.14
  -2 -10  -7    1.50    0.19
   2 -10   7    1.76    0.19
  -2  10  -7    1.61    0.23
  -3 -10  -7    2.39    0.18
  -3 -10  -7    1.94    0.22
   3 -10   7    2.27    0.21
  -3  10  -7    2.05    0.25
  -4 -10  -7    0.13    0.10
   4 -10   7    0.11    0.07
  -4 -10  -7    0.14    0.07
  -4  10  -7    0.19    0.12
  -5 -10  -7    2.49    0.27
   5 -10   7    2.71    0.22
  -5 -10  -7    2.93    0.19
  -5  10  -7    2.89    0.31
   6 -10   7    0.27    0.10
  -6 -10  -7    0.29    0.13
  -6  10  -7    0.49    0.16
  -7 -10  -7    4.31    0.34
  -7  10  -7    4.27    0.42
  -7 -11   7    0.78    0.15
  -7 -11   7    0.82    0.18
   7 -11  -7    0.95    0.18
   6 -11  -7    0.12    0.10
  -6 -11   7    0.06    0.09
  -6 -11   7    0.26    0.12
  -5 -11   7    0.62    0.15
   5 -11  -7    0.86    0.16
  -5 -11   7    0.97    0.14
   4 -11  -7   28.56    0.68
  -4 -11   7   27.98    0.72
  -4 -11   7   28.75    0.59
   4 -11  -7   27.43    0.71
  -3 -11   7   29.36    0.72
   3 -11  -7   29.84    0.71
   3 -11  -7   29.21    0.71
   2 -11  -7    2.73    0.25
  -2 -11   7    2.58    0.25
   2 -11  -7    2.57    0.24
   1 -11  -7    1.72    0.21
   1 -11  -7    1.57    0.18
  -1 -11   7    1.47    0.18
   1  11  -7    1.44    0.24
   0 -11  -7    0.02    0.07
   0 -11  -7   -0.02    0.08
   0 -11   7    0.04    0.07
   0  11  -7   -0.10    0.08
  -1 -11  -7   80.54    1.31
  -1 -11  -7   83.61    1.44
   1 -11   7   81.78    1.37
  -1  11  -7   82.06    1.54
   2 -11   7    0.09    0.07
  -2 -11  -7    0.32    0.10
  -2 -11  -7    0.22    0.10
  -2  11  -7    0.08    0.09
  -3 -11  -7    2.03    0.19
  -3 -11  -7    2.28    0.24
   3 -11   7    1.95    0.21
  -3  11  -7    1.96    0.25
  -4 -11  -7    0.11    0.10
  -4 -11  -7   -0.04    0.06
   4 -11   7    0.13    0.08
  -4  11  -7    0.03    0.09
  -5 -11  -7    0.71    0.17
  -5 -11  -7    0.76    0.12
   5 -11   7    0.60    0.13
  -5  11  -7    0.75    0.19
  -6 -11  -7    1.91    0.24
   6 -11   7    2.12    0.22
  -6  11  -7    1.55    0.25
  -7  11  -7    0.24    0.14
  -6 -12   7    3.16    0.24
   6 -12  -7    2.54    0.28
  -6 -12   7    2.85    0.29
  -5 -12   7    6.33    0.35
  -5 -12   7    6.07    0.28
   5 -12  -7    5.29    0.33
   4 -12  -7    0.33    0.10
  -4 -12   7    0.28    0.11
   4 -12  -7    0.40    0.13
  -4 -12   7    0.45    0.09
   3 -12  -7    1.83    0.21
  -3 -12   7    1.56    0.20
   3 -12  -7    1.94    0.23
   2 -12  -7    1.81    0.21
   2 -12  -7    1.75    0.21
  -2 -12   7    1.49    0.20
  -1 -12   7    2.70    0.26
   1 -12  -7    2.75    0.26
   1 -12  -7    2.76    0.22
   1  12  -7    2.90    0.32
   0 -12  -7    0.94    0.15
   0 -12  -7    1.28    0.19
   0 -12   7    0.91    0.16
   0  12  -7    0.84    0.18
  -1 -12  -7    9.61    0.43
   1 -12   7    9.19    0.39
  -1 -12  -7    8.89    0.36
  -1  12  -7    9.69    0.48
  -2 -12  -7    5.01    0.27
  -2 -12  -7    4.91    0.33
   2 -12   7    5.12    0.30
  -2  12  -7    4.95    0.36
  -3 -12  -7    3.21    0.30
   3 -12   7    3.50    0.25
  -3 -12  -7    3.23    0.22
  -3  12  -7    3.55    0.35
  -4 -12  -7    0.62    0.12
   4 -12   7    0.84    0.16
  -4 -12  -7    0.36    0.14
  -4  12  -7    0.85    0.19
   5 -12   7    2.28    0.24
  -5 -12  -7    2.37    0.27
  -5 -12  -7    2.40    0.21
  -5  12  -7    2.43    0.31
   6 -12   7    0.06    0.09
  -6 -12  -7    0.23    0.13
  -6  12  -7    0.18    0.13
  -5 -13   7    1.16    0.20
   5 -13  -7    1.34    0.21
  -4 -13   7    0.29    0.11
   4 -13  -7    0.39    0.13
   4 -13  -7    0.48    0.12
   3 -13  -7    2.01    0.22
  -3 -13   7    1.84    0.22
   3 -13  -7    1.74    0.22
  -2 -13   7   13.58    0.50
   2 -13  -7   14.57    0.50
   2 -13  -7   14.54    0.51
  -1 -13   7    3.45    0.27
   1 -13  -7    4.20    0.32
   1 -13  -7    3.85    0.27
   0 -13  -7    1.44    0.20
   0 -13  -7    1.06    0.16
   0 -13   7    1.28    0.18
   0  13  -7    1.14    0.21
  -1 -13  -7    5.63    0.31
   1 -13   7    6.07    0.33
  -1 -13  -7    7.06    0.38
  -1  13  -7    6.37    0.42
  -2 -13  -7   -0.03    0.07
  -2 -13  -7    0.03    0.08
   2 -13   7    0.06    0.08
  -2  13  -7   -0.08    0.08
  -3 -13  -7    0.04    0.09
   3 -13   7   -0.01    0.08
  -3 -13  -7    0.09    0.09
  -3  13  -7    0.20    0.12
  -4 -13  -7    4.75    0.27
   4 -13   7    4.70    0.31
  -4 -13  -7    4.80    0.35
  -4  13  -7    5.20    0.40
  -5 -13  -7    0.33    0.14
  -5 -13  -7    0.46    0.13
   5 -13   7    0.36    0.12
  -5  13  -7    0.21    0.14
  -4 -14   7    1.01    0.18
   4 -14  -7    1.52    0.22
   3 -14  -7    3.49    0.28
  -3 -14   7    2.91    0.29
   3 -14  -7    3.60    0.28
   2 -14  -7    0.40    0.13
  -2 -14   7    0.31    0.12
   2 -14  -7    0.51    0.14
  -1 -14   7   -0.06    0.07
   1 -14  -7    0.02    0.08
   1 -14  -7    0.15    0.10
   0 -14  -7    0.61    0.14
   0 -14   7    0.34    0.12
   0 -14  -7    0.40    0.13
   0  14  -7    0.43    0.16
  -1 -14  -7    2.26    0.25
  -1 -14  -7    2.36    0.24
   1 -14   7    1.89    0.24
  -1  14  -7    1.87    0.27
  -2 -14  -7   -0.07    0.07
   2 -14   7    0.07    0.09
  -2 -14  -7    0.06    0.10
  -2  14  -7   -0.02    0.11
   3 -14   7    0.12    0.09
  -3 -14  -7    0.05    0.10
  -3 -14  -7    0.03    0.08
  -3  14  -7   -0.08    0.10
  -4  14  -7   20.61    0.76
  -2 -15   7    1.28    0.20
   2 -15  -7    1.04    0.19
   1 -15  -7    0.34    0.13
  -1 -15   7    0.50    0.14
   0 -15  -7    0.60    0.15
   0 -15  -7    0.56    0.15
   0 -15   7    0.68    0.16
   0  15  -7    0.49    0.17
  -1 -15  -7   14.16    0.51
  -1 -15  -7   15.41    0.57
   1 -15   7   14.23    0.54
  -1  15  -7   14.38    0.64
 -10   0   8   16.11    0.60
  -9   0   8   14.72    0.56
  -8   0   8   18.20    0.60
  -7   0   8    7.35    0.37
  -6   0   8    3.43    0.26
  -5   0   8    1.65    0.20
  -4   0   8  135.93    1.99
   3   0  -8   55.70    0.96
  -3   0   8   57.17    1.00
  -2   0   8   35.87    0.71
   2   0  -8   36.38    0.71
   1   0  -8   27.81    0.52
  -1   0   8   28.09    0.58
   1   0  -8   28.40    0.60
   0   0   8    1.31    0.13
   0   0  -8    1.07    0.13
   0   0  -8    1.49    0.13
  -1   0  -8    0.98    0.12
  -1   0  -8    1.01    0.11
   1   0   8    1.05    0.11
  -2   0  -8  106.95    1.59
  -2   0  -8  106.47    1.52
   2   0   8  105.57    1.42
  -3   0  -8   84.17    1.28
  -3   0  -8   82.98    1.31
   3   0   8   81.27    1.08
  -4   0  -8    0.33    0.09
  -5   0  -8    8.87    0.35
  -6   0  -8   10.08    0.38
  -7   0  -8    0.20    0.09
  -8   0  -8   12.95    0.47
  -9   0  -8    2.46    0.26
 -10  -1   8    1.58    0.25
 -10   1   8    1.20    0.22
  -9  -1   8   -0.09    0.09
  -9   1   8    0.10    0.11
  -8  -1   8    1.81    0.24
  -8   1   8    2.34    0.27
  -7  -1   8    6.98    0.36
  -7   1   8    6.65    0.36
  -6  -1   8    7.12    0.34
  -6   1   8    6.55    0.34
  -5  -1   8   16.48    0.49
  -5   1   8   16.13    0.50
   4  -1  -8   38.59    0.77
  -4  -1   8   40.68    0.82
  -4   1   8   39.13    0.81
   3  -1  -8   42.94    0.81
  -3  -1   8   44.91    0.84
   3   1  -8   42.57    0.79
  -3   1   8   43.06    0.83
  -2  -1   8    2.64    0.18
   2  -1  -8    3.15    0.20
   2   1  -8    2.75    0.18
  -2   1   8    2.54    0.18
  -1  -1   8   25.50    0.54
   1  -1  -8   25.38    0.57
   1  -1  -8   23.48    0.45
   1   1  -8   25.17    0.55
  -1   1   8   24.55    0.53
   1   1  -8   24.13    0.50
   0  -1  -8    0.93    0.10
   0  -1   8    0.99    0.12
   0  -1  -8    0.93    0.12
   0   1  -8    0.79    0.11
   0   1   8    0.92    0.11
   0   1  -8    1.01    0.12
  -1  -1  -8    1.39    0.16
   1  -1   8    1.65    0.12
  -1  -1  -8    1.49    0.12
  -1   1  -8    1.51    0.14
  -1   1  -8    1.20    0.14
   1   1   8    1.41    0.12
   2  -1   8   49.54    0.77
  -2  -1  -8   51.44    0.84
  -2  -1  -8   52.43    0.92
  -2   1  -8   49.99    0.89
  -2   1  -8   50.76    0.88
   2   1   8   50.36    0.77
   3  -1   8   18.85    0.35
  -3  -1  -8   19.71    0.51
   3   1   8   19.07    0.34
  -3   1  -8   19.80    0.49
  -3   1  -8   19.13    0.48
  -4  -1  -8   13.39    0.42
  -4   1  -8   13.98    0.41
  -4   1  -8   13.71    0.42
  -5  -1  -8    0.08    0.08
  -5   1  -8    0.23    0.09
  -5   1  -8    0.05    0.07
  -6  -1  -8    0.26    0.10
  -6   1  -8    0.18    0.09
  -7  -1  -8    0.22    0.10
  -7   1  -8    0.41    0.11
  -8  -1  -8   22.40    0.64
  -8   1  -8   23.99    0.65
  -9  -1  -8    0.24    0.13
  -9   1  -8    0.31    0.12
 -10  -2   8    1.27    0.22
 -10   2   8    0.83    0.19
  -9  -2   8    0.38    0.15
  -9   2   8    0.17    0.12
  -8  -2   8   -0.04    0.09
  -8   2   8    0.01    0.09
  -7  -2   8   17.46    0.56
  -7   2   8   18.06    0.58
  -6  -2   8    0.35    0.12
  -6   2   8    0.55    0.14
  -5  -2   8    0.00    0.06
  -5   2   8    0.08    0.09
   4  -2  -8   10.73    0.36
  -4  -2   8   10.33    0.38
  -4   2   8    9.86    0.38
   3  -2  -8    4.98    0.25
  -3  -2   8    4.77    0.25
  -3   2   8    4.62    0.25
  -2  -2   8    1.03    0.14
   2  -2  -8    0.95    0.13
   2   2  -8    0.75    0.11
  -2   2   8    0.77    0.12
   1  -2  -8    4.05    0.23
  -1  -2   8    4.26    0.21
   1   2  -8    4.28    0.21
   1   2  -8    4.17    0.21
  -1   2   8    4.04    0.20
   0  -2  -8   50.41    0.75
   0  -2   8   50.46    0.84
   0  -2  -8   48.90    0.91
   0   2  -8   50.61    0.87
   0   2  -8   50.03    0.86
   0   2   8   50.53    0.83
  -1  -2  -8   10.04    0.26
   1  -2   8    9.71    0.28
  -1  -2  -8   10.00    0.35
  -1   2  -8    9.57    0.32
   1   2   8    9.78    0.28
  -1   2  -8    9.66    0.32
  -2  -2  -8    7.71    0.31
   2  -2   8    6.70    0.22
  -2  -2  -8    7.04    0.24
  -2   2  -8    6.93    0.27
  -2   2  -8    6.67    0.28
   2   2   8    6.97    0.22
   3  -2   8    2.73    0.13
  -3  -2  -8    2.51    0.21
   3   2   8    2.84    0.12
  -3   2  -8    2.41    0.19
  -3   2  -8    3.20    0.21
   4  -2   8    0.03    0.03
  -4  -2  -8    0.03    0.07
  -4   2  -8    0.04    0.07
  -4   2  -8    0.00    0.05
  -5  -2  -8   13.66    0.45
  -5   2  -8   13.73    0.42
  -5   2  -8   14.64    0.46
  -6  -2  -8    1.22    0.18
  -6   2  -8    1.27    0.18
  -6   2  -8    1.11    0.16
  -7  -2  -8   -0.01    0.08
  -7   2  -8    0.10    0.09
  -7   2  -8    0.02    0.08
  -8  -2  -8    0.87    0.17
  -8   2  -8    0.86    0.16
  -9  -2  -8    0.94    0.19
  -9   2  -8    0.98    0.18
 -10  -3   8    0.77    0.19
 -10   3   8    0.71    0.19
  -9  -3   8    0.45    0.15
  -9   3   8    0.51    0.16
  -8  -3   8    0.27    0.12
  -8   3   8    0.21    0.12
  -7  -3   8   16.09    0.53
  -7   3   8   15.70    0.55
  -6  -3   8    0.36    0.12
  -6   3   8    0.53    0.13
  -5  -3   8    8.28    0.35
  -5   3   8    7.77    0.35
   4  -3  -8   15.16    0.44
   4  -3  -8   15.96    0.46
  -4  -3   8   16.31    0.47
   3  -3  -8   14.67    0.42
  -3  -3   8   14.53    0.43
   3  -3  -8   14.74    0.43
  -2  -3   8    2.20    0.17
   2  -3  -8    2.09    0.16
   2  -3  -8    2.37    0.19
   2   3  -8    2.13    0.19
   2   3  -8    2.28    0.16
   1  -3  -8    6.46    0.24
  -1  -3   8    6.40    0.26
   1  -3  -8    6.39    0.29
   1   3  -8    7.13    0.29
   1   3  -8    6.19    0.24
   0  -3  -8    0.05    0.06
   0  -3   8    0.07    0.05
   0  -3  -8    0.13    0.05
   0   3  -8    0.07    0.05
   0   3  -8    0.05    0.05
  -1  -3  -8   17.69    0.48
  -1  -3  -8   17.82    0.38
  -1  -3  -8   18.66    0.37
   1  -3   8   18.06    0.41
  -1   3  -8   18.60    0.48
  -1   3  -8   17.82    0.44
   2  -3   8   26.57    0.50
  -2  -3  -8   27.20    0.62
  -2   3  -8   26.19    0.60
   2   3   8   26.25    0.48
  -2   3  -8   26.24    0.55
   3  -3   8    5.80    0.19
  -3  -3  -8    5.35    0.28
  -3   3  -8    6.02    0.28
  -3   3  -8    5.65    0.25
   3   3   8    6.20    0.18
   4  -3   8   27.86    0.46
  -4  -3  -8   27.65    0.66
  -4   3  -8   27.34    0.65
  -4   3  -8   28.05    0.60
  -5  -3  -8    8.93    0.37
  -5   3  -8    8.48    0.36
  -5   3  -8    9.00    0.33
  -6  -3  -8    9.88    0.40
  -6   3  -8    9.56    0.41
  -6   3  -8   10.05    0.36
  -7  -3  -8    0.62    0.14
  -7   3  -8    0.88    0.17
  -7   3  -8    0.84    0.14
  -8  -3  -8   21.26    0.64
  -8   3  -8   21.34    0.59
  -8   3  -8   20.46    0.67
  -9  -3  -8    1.39    0.21
  -9   3  -8    1.34    0.23
  -9   3  -8    1.20    0.18
  -9  -4   8   13.34    0.53
  -9   4   8   15.25    0.59
  -8  -4   8    3.37    0.27
  -8   4   8    2.97    0.31
  -7  -4   8    3.35    0.27
  -7   4   8    3.56    0.29
   6  -4  -8    0.54    0.12
  -6  -4   8    0.49    0.12
  -6   4   8    0.43    0.13
  -5  -4   8    2.76    0.25
   5  -4  -8    3.08    0.23
   4  -4  -8    5.63    0.27
  -4  -4   8    5.16    0.27
   4  -4  -8    5.37    0.27
   3  -4  -8    5.87    0.26
   3  -4  -8    5.96    0.28
  -3  -4   8    5.94    0.28
  -2  -4   8   26.18    0.58
   2  -4  -8   24.53    0.59
   2  -4  -8   25.12    0.55
   2   4  -8   24.35    0.59
   1  -4  -8    0.27    0.09
  -1  -4   8    0.25    0.07
   1  -4  -8    0.27    0.07
   1   4  -8    0.31    0.07
   1   4  -8    0.37    0.09
   0  -4  -8    6.12    0.29
   0  -4  -8    6.58    0.23
   0  -4   8    7.10    0.26
   0   4  -8    6.94    0.30
   0   4  -8    6.66    0.24
  -1  -4  -8   18.17    0.50
   1  -4   8   17.81    0.42
  -1  -4  -8   17.57    0.39
  -1   4  -8   17.06    0.48
  -1   4  -8   17.63    0.42
   2  -4   8   50.36    0.81
  -2  -4  -8   49.58    0.76
  -2  -4  -8   50.62    0.95
  -2   4  -8   51.52    0.86
  -2   4  -8   49.15    0.93
  -3  -4  -8   11.76    0.26
   3  -4   8   11.45    0.30
  -3  -4  -8   12.15    0.41
  -3   4  -8   11.73    0.35
  -3   4  -8   12.35    0.42
   4  -4   8    1.48    0.11
  -4  -4  -8    1.37    0.18
  -4   4  -8    1.59    0.19
  -4   4  -8    1.58    0.16
  -5  -4  -8    5.57    0.31
   5  -4   8    5.14    0.17
  -5   4  -8    5.52    0.31
  -5   4  -8    5.04    0.26
  -6  -4  -8    0.13    0.10
  -6   4  -8    0.11    0.09
  -6   4  -8    0.15    0.08
  -7  -4  -8    0.83    0.17
  -7   4  -8    0.49    0.11
  -7   4  -8    0.63    0.15
  -8  -4  -8   22.35    0.67
  -8   4  -8   22.36    0.60
  -8   4  -8   21.39    0.70
  -9  -4  -8    0.64    0.17
  -9   4  -8    0.44    0.15
  -9   4  -8    0.74    0.15
  -9  -5   8    3.82    0.31
  -9   5   8    3.69    0.36
  -8  -5   8    3.04    0.29
  -8   5   8    3.68    0.35
  -7  -5   8    0.76    0.15
   7  -5  -8    0.77    0.16
  -6  -5   8    4.76    0.28
   6  -5  -8    4.53    0.28
  -5  -5   8    1.81    0.20
   5  -5  -8    2.30    0.22
   4  -5  -8    5.41    0.27
  -4  -5   8    4.95    0.27
   4  -5  -8    4.92    0.27
  -3  -5   8   25.85    0.61
   3  -5  -8   26.13    0.62
   3  -5  -8   25.66    0.59
   2  -5  -8   62.10    1.10
  -2  -5   8   60.33    1.04
   2  -5  -8   62.08    1.02
   2   5  -8   61.00    1.11
   1  -5  -8   12.95    0.36
   1  -5  -8   13.28    0.43
  -1  -5   8   12.88    0.38
   1   5  -8   12.68    0.43
   1   5  -8   13.02    0.34
   0  -5  -8    0.09    0.07
   0  -5  -8   -0.03    0.04
   0  -5   8    0.08    0.06
   0   5  -8    0.11    0.07
   0   5  -8    0.08    0.05
  -1  -5  -8    5.79    0.29
   1  -5   8    6.05    0.24
  -1  -5  -8    6.17    0.22
  -1   5  -8    5.76    0.29
  -1   5  -8    5.93    0.23
  -2  -5  -8   36.93    0.62
  -2  -5  -8   36.67    0.78
   2  -5   8   36.25    0.67
  -2   5  -8   36.79    0.79
  -2   5  -8   37.21    0.67
   3  -5   8    2.41    0.16
  -3  -5  -8    2.50    0.13
  -3  -5  -8    2.95    0.23
  -3   5  -8    2.71    0.17
  -3   5  -8    2.46    0.24
  -4  -5  -8    0.40    0.11
   4  -5   8    0.41    0.07
  -4  -5  -8    0.47    0.06
  -4   5  -8    0.38    0.11
  -4   5  -8    0.42    0.09
  -5  -5  -8    0.11    0.09
   5  -5   8    0.14    0.05
  -5   5  -8    0.25    0.09
  -5   5  -8    0.17    0.10
  -6  -5  -8    3.97    0.29
  -6   5  -8    4.80    0.25
  -6   5  -8    4.32    0.30
  -7  -5  -8    5.35    0.33
  -7   5  -8    5.37    0.28
  -7   5  -8    5.23    0.35
  -8  -5  -8    0.37    0.14
  -8   5  -8    0.07    0.11
  -8   5  -8    0.08    0.09
  -9  -5  -8    0.10    0.12
  -9   5  -8    0.04    0.10
  -9   5  -8    0.04    0.12
  -9  -6   8    0.27    0.13
  -9   6   8    0.35    0.15
   8  -6  -8    0.93    0.18
  -8  -6   8    0.89    0.18
  -7  -6   8   22.23    0.63
   7  -6  -8   20.41    0.62
  -6  -6   8    2.74    0.26
   6  -6  -8    2.43    0.24
   5  -6  -8    0.18    0.08
  -5  -6   8    0.04    0.07
  -4  -6   8   10.70    0.39
   4  -6  -8   11.75    0.41
   4  -6  -8   11.73    0.40
   3  -6  -8    0.05    0.06
   3  -6  -8    0.10    0.08
  -3  -6   8    0.09    0.07
   2  -6  -8    1.22    0.16
  -2  -6   8    1.43    0.17
   2  -6  -8    1.23    0.14
   2   6  -8    1.25    0.17
  -1  -6   8    8.48    0.32
   1  -6  -8    8.19    0.35
   1  -6  -8    8.56    0.30
   1   6  -8    9.21    0.38
   0  -6  -8   49.70    0.83
   0  -6  -8   47.44    0.93
   0  -6   8   48.13    0.86
   0   6  -8   48.39    0.78
   0   6  -8   49.01    0.97
  -1  -6  -8   13.62    0.45
  -1  -6  -8   13.91    0.36
   1  -6   8   13.68    0.38
  -1   6  -8   13.14    0.33
  -1   6  -8   13.30    0.45
   2  -6   8    2.62    0.17
  -2  -6  -8    2.78    0.23
  -2  -6  -8    2.78    0.16
  -2   6  -8    2.36    0.24
  -2   6  -8    2.51    0.16
  -3  -6  -8    5.87    0.31
   3  -6   8    6.23    0.24
  -3  -6  -8    6.26    0.21
  -3   6  -8    6.41    0.33
  -3   6  -8    6.31    0.24
   4  -6   8    6.85    0.25
  -4  -6  -8    6.75    0.34
  -4  -6  -8    7.42    0.21
  -4   6  -8    6.76    0.35
  -4   6  -8    6.94    0.26
   5  -6   8   35.29    0.63
  -5  -6  -8   34.46    0.82
  -5   6  -8   35.70    0.68
  -6  -6  -8    0.26    0.11
  -6   6  -8    0.41    0.10
  -6   6  -8    0.42    0.13
  -7  -6  -8    0.17    0.11
  -7   6  -8    0.18    0.11
  -7   6  -8    0.00    0.07
  -8  -6  -8    0.09    0.11
  -8   6  -8    0.36    0.14
  -8   6  -8    0.37    0.11
   9  -7  -8   -0.05    0.10
  -9  -7   8    0.05    0.11
  -9   7   8   -0.04    0.12
  -8  -7   8    5.16    0.33
   8  -7  -8    4.49    0.32
  -7  -7   8    2.46    0.27
   7  -7  -8    2.68    0.28
  -6  -7   8   19.14    0.58
   6  -7  -8   20.28    0.59
   5  -7  -8    3.46    0.25
   5  -7  -8    3.38    0.26
  -5  -7   8    3.31    0.25
   4  -7  -8    9.17    0.37
   4  -7  -8    9.04    0.36
  -4  -7   8    8.83    0.37
   3  -7  -8    6.86    0.32
  -3  -7   8    6.65    0.31
   3  -7  -8    7.12    0.31
   2  -7  -8    3.19    0.24
   2  -7  -8    3.14    0.20
  -2  -7   8    3.08    0.21
   2   7  -8    2.75    0.26
  -1  -7   8   34.42    0.72
   1  -7  -8   33.78    0.77
   1  -7  -8   34.40    0.69
   1   7  -8   34.47    0.80
   0  -7   8    2.00    0.19
   0  -7  -8    1.79    0.21
   0  -7  -8    1.95    0.17
   0   7  -8    2.06    0.22
  -1  -7  -8    4.04    0.20
   1  -7   8    3.62    0.21
  -1  -7  -8    4.03    0.27
  -1   7  -8    3.39    0.27
  -1   7  -8    3.69    0.17
  -2  -7  -8   16.71    0.52
  -2  -7  -8   16.37    0.40
   2  -7   8   17.91    0.45
  -2   7  -8   16.65    0.36
  -2   7  -8   16.95    0.54
  -3  -7  -8    1.38    0.18
   3  -7   8    1.71    0.16
  -3  -7  -8    2.08    0.14
  -3   7  -8    1.73    0.21
   4  -7   8    0.37    0.09
  -4  -7  -8    0.27    0.11
  -4  -7  -8    0.48    0.08
  -4   7  -8    0.35    0.08
  -4   7  -8    0.46    0.13
  -5  -7  -8    0.19    0.10
   5  -7   8    0.34    0.08
  -5   7  -8    0.43    0.09
  -5   7  -8    0.21    0.11
  -6  -7  -8    2.27    0.25
  -6   7  -8    2.17    0.26
  -6   7  -8    2.43    0.20
  -7  -7  -8    0.50    0.15
  -7   7  -8    0.53    0.16
  -8  -7  -8    0.68    0.18
  -8   7  -8    0.45    0.16
  -8  -8   8    0.78    0.16
   8  -8  -8    0.84    0.17
  -7  -8   8    2.57    0.26
   7  -8  -8    2.64    0.28
   6  -8  -8    0.30    0.12
  -6  -8   8    0.25    0.12
   5  -8  -8    0.15    0.09
  -5  -8   8    0.13    0.09
   5  -8  -8    0.09    0.07
   4  -8  -8    3.87    0.25
   4  -8  -8    3.61    0.26
  -4  -8   8    3.66    0.25
   3  -8  -8    3.02    0.22
  -3  -8   8    3.01    0.22
   3  -8  -8    3.04    0.25
  -2  -8   8    7.98    0.34
   2  -8  -8    7.78    0.36
   2  -8  -8    8.44    0.33
   1  -8  -8    3.70    0.27
   1  -8  -8    4.01    0.22
  -1  -8   8    4.00    0.24
   1   8  -8    3.70    0.29
   0  -8  -8   11.70    0.36
   0  -8  -8   11.10    0.42
   0  -8   8   11.06    0.38
   0   8  -8   11.49    0.46
  -1  -8  -8    5.67    0.24
  -1  -8  -8    5.53    0.31
   1  -8   8    6.23    0.28
  -1   8  -8    5.93    0.34
  -2  -8  -8    4.75    0.22
   2  -8   8    4.79    0.25
  -2  -8  -8    5.19    0.31
  -2   8  -8    5.21    0.32
   3  -8   8    1.05    0.14
  -3  -8  -8    0.93    0.11
  -3  -8  -8    0.74    0.15
  -3   8  -8    0.97    0.17
   4  -8   8    0.20    0.08
  -4  -8  -8    0.14    0.09
  -4  -8  -8    0.12    0.06
  -4   8  -8   -0.03    0.07
  -5  -8  -8    0.54    0.14
   5  -8   8    0.73    0.12
  -5   8  -8    0.62    0.16
  -6  -8  -8    3.25    0.30
  -6   8  -8    3.11    0.32
  -7  -8  -8    0.48    0.15
  -7   8  -8    0.31    0.15
  -8  -8  -8    3.73    0.35
  -8   8  -8    3.69    0.38
   8  -9  -8   -0.04    0.08
  -8  -9   8    0.07    0.11
  -7  -9   8    0.04    0.09
   7  -9  -8    0.22    0.10
   6  -9  -8   17.12    0.56
  -6  -9   8   17.33    0.57
  -5  -9   8   20.25    0.60
   5  -9  -8   20.09    0.59
   5  -9  -8   19.66    0.57
   4  -9  -8    0.78    0.14
  -4  -9   8    0.74    0.15
   4  -9  -8    0.90    0.15
   3  -9  -8    2.27    0.24
   3  -9  -8    1.96    0.21
  -3  -9   8    2.32    0.24
   2  -9  -8    6.54    0.30
   2  -9  -8    6.52    0.34
  -2  -9   8    6.09    0.31
  -1  -9   8   42.79    0.87
   1  -9  -8   42.27    0.83
   1  -9  -8   42.84    0.92
   1   9  -8   42.46    0.98
   0  -9  -8    9.23    0.33
   0  -9  -8    8.54    0.39
   0  -9   8    9.98    0.37
   0   9  -8    9.35    0.44
  -1  -9  -8    6.00    0.34
   1  -9   8    5.61    0.28
  -1  -9  -8    5.10    0.24
  -1   9  -8    5.29    0.34
  -2  -9  -8    0.46    0.12
   2  -9   8    0.04    0.06
  -2  -9  -8    0.06    0.06
  -2   9  -8    0.00    0.08
  -3  -9  -8    1.96    0.22
  -3  -9  -8    2.00    0.16
   3  -9   8    2.15    0.20
  -3   9  -8    1.85    0.24
   4  -9   8    2.37    0.21
  -4  -9  -8    2.59    0.17
  -4  -9  -8    2.69    0.26
  -4   9  -8    1.89    0.25
  -5  -9  -8    0.82    0.16
   5  -9   8    0.95    0.14
  -5   9  -8    0.63    0.16
  -6  -9  -8    4.24    0.34
   6  -9   8    4.33    0.25
  -6   9  -8    4.06    0.40
  -7  -9  -8    1.08    0.20
  -7   9  -8    1.41    0.24
  -7 -10   8    1.39    0.21
   7 -10  -8    1.48    0.22
   6 -10  -8   11.40    0.46
  -6 -10   8   11.72    0.47
   5 -10  -8    0.09    0.08
  -5 -10   8    0.07    0.08
   5 -10  -8   -0.07    0.06
   4 -10  -8    0.41    0.11
   4 -10  -8    0.21    0.10
  -4 -10   8    0.23    0.10
   3 -10  -8    1.86    0.21
  -3 -10   8    2.17    0.23
   3 -10  -8    2.01    0.22
   2 -10  -8    1.02    0.17
  -2 -10   8    0.93    0.16
   2 -10  -8    0.86    0.14
   1 -10  -8    0.17    0.10
   1 -10  -8    0.16    0.08
  -1 -10   8    0.18    0.09
   1  10  -8    0.25    0.12
   0 -10  -8    9.38    0.42
   0 -10  -8    9.17    0.35
   0 -10   8    8.80    0.36
   0  10  -8    9.50    0.46
  -1 -10  -8   16.96    0.46
   1 -10   8   16.16    0.50
  -1 -10  -8   16.82    0.55
  -1  10  -8   16.11    0.59
  -2 -10  -8    9.68    0.43
  -2 -10  -8   10.69    0.35
   2 -10   8   10.30    0.38
  -2  10  -8   10.56    0.48
  -3 -10  -8    2.12    0.24
   3 -10   8    2.82    0.25
  -3 -10  -8    2.39    0.17
  -3  10  -8    2.40    0.29
  -4 -10  -8    4.71    0.23
  -4 -10  -8    4.67    0.33
   4 -10   8    4.57    0.27
  -4  10  -8    4.40    0.34
   5 -10   8   37.57    0.78
  -5 -10  -8   36.77    0.91
  -5  10  -8   35.81    0.97
  -6 -10  -8    1.02    0.19
   6 -10   8    1.24    0.17
  -6  10  -8    0.92    0.21
  -7 -10  -8    1.26    0.22
  -7  10  -8    1.38    0.25
  -7 -11   8    0.19    0.10
  -7 -11   8    0.20    0.12
  -6 -11   8    4.93    0.33
   6 -11  -8    4.90    0.33
   5 -11  -8    7.23    0.37
  -5 -11   8    7.01    0.37
  -4 -11   8    0.09    0.09
   4 -11  -8    0.07    0.08
   4 -11  -8    0.17    0.10
   3 -11  -8    0.35    0.11
   3 -11  -8    0.29    0.11
  -3 -11   8    0.34    0.11
  -2 -11   8    0.70    0.15
   2 -11  -8    0.78    0.15
   2 -11  -8    0.60    0.13
   1 -11  -8    3.18    0.23
  -1 -11   8    2.83    0.27
   1 -11  -8    2.89    0.27
   1  11  -8    2.77    0.31
   0 -11  -8    0.31    0.12
   0 -11  -8    0.31    0.11
   0 -11   8    0.67    0.14
   0  11  -8    0.33    0.12
  -1 -11  -8    6.08    0.36
   1 -11   8    5.43    0.30
  -1 -11  -8    5.76    0.29
  -1  11  -8    6.23    0.39
   2 -11   8    0.42    0.12
  -2 -11  -8    0.77    0.16
  -2 -11  -8    0.46    0.11
  -2  11  -8    0.26    0.13
   3 -11   8    0.47    0.12
  -3 -11  -8    0.41    0.13
  -3 -11  -8    0.34    0.10
  -3  11  -8    0.22    0.12
  -4 -11  -8    0.15    0.12
  -4 -11  -8    0.06    0.07
   4 -11   8    0.02    0.07
  -4  11  -8    0.10    0.13
  -5 -11  -8    0.78    0.17
   5 -11   8    0.77    0.15
  -5  11  -8    0.53    0.17
   6 -11   8    0.59    0.13
  -6 -11  -8    0.78    0.18
  -6  11  -8    0.67    0.19
   6 -12  -8    3.32    0.32
  -6 -12   8    3.00    0.30
  -6 -12   8    3.35    0.26
   5 -12  -8    2.63    0.28
  -5 -12   8    2.25    0.20
  -5 -12   8    2.55    0.27
   4 -12  -8    0.22    0.10
  -4 -12   8    0.88    0.18
   4 -12  -8    0.28    0.12
  -4 -12   8    0.17    0.07
  -3 -12   8    0.08    0.08
   3 -12  -8    0.09    0.09
   3 -12  -8    0.00    0.08
   2 -12  -8    0.17    0.09
  -2 -12   8    0.01    0.07
   2 -12  -8    0.06    0.09
   1 -12  -8    0.30    0.12
   1 -12  -8    0.54    0.13
  -1 -12   8    0.54    0.13
   1  12  -8    0.50    0.15
   0 -12  -8    0.12    0.10
   0 -12   8    0.18    0.09
   0 -12  -8    0.31    0.11
   0  12  -8    0.21    0.13
  -1 -12  -8    0.28    0.10
   1 -12   8    0.22    0.10
  -1 -12  -8    0.06    0.09
  -1  12  -8    0.15    0.12
  -2 -12  -8   10.27    0.45
  -2 -12  -8    9.01    0.36
   2 -12   8    9.53    0.40
  -2  12  -8    9.12    0.48
  -3 -12  -8    0.58    0.15
  -3 -12  -8    0.63    0.13
   3 -12   8    0.71    0.15
  -3  12  -8    0.78    0.20
   4 -12   8    0.02    0.08
  -4 -12  -8    0.07    0.10
  -4 -12  -8   -0.07    0.07
  -4  12  -8    0.16    0.13
  -5 -12  -8    8.92    0.46
   5 -12   8    9.23    0.40
  -5  12  -8    9.65    0.52
  -5 -13   8   15.01    0.56
   4 -13  -8    6.17    0.36
   4 -13  -8    6.76    0.36
  -4 -13   8    6.80    0.38
  -3 -13   8    1.10    0.18
   3 -13  -8    1.32    0.20
   3 -13  -8    1.86    0.22
   2 -13  -8    0.80    0.16
   2 -13  -8    0.59    0.14
  -2 -13   8    0.41    0.13
   1 -13  -8   26.89    0.70
   1 -13  -8   27.19    0.75
  -1 -13   8   27.46    0.74
   0 -13   8    1.36    0.20
   0 -13  -8    1.83    0.24
   0 -13  -8    1.59    0.20
   0  13  -8    1.32    0.25
  -1 -13  -8    0.02    0.10
   1 -13   8    0.06    0.08
  -1 -13  -8    0.02    0.07
  -1  13  -8    0.14    0.12
  -2 -13  -8    1.02    0.19
  -2 -13  -8    1.39    0.18
   2 -13   8    1.28    0.19
  -2  13  -8    0.83    0.21
  -3 -13  -8    0.03    0.08
   3 -13   8    0.05    0.09
  -3 -13  -8   -0.02    0.09
  -3  13  -8   -0.10    0.09
   4 -13   8    1.45    0.21
  -4 -13  -8    1.26    0.17
  -4 -13  -8    1.60    0.24
  -4  13  -8    1.43    0.25
   3 -14  -8    0.09    0.08
  -3 -14   8    0.04    0.10
   3 -14  -8   -0.06    0.08
  -2 -14   8    2.92    0.30
   2 -14  -8    2.82    0.29
   2 -14  -8    3.00    0.29
   1 -14  -8    0.63    0.16
   1 -14  -8    0.89    0.17
  -1 -14   8    0.75    0.16
   0 -14  -8    5.83    0.33
   0 -14   8    5.15    0.33
   0 -14  -8    5.62    0.38
   0  14  -8    5.52    0.42
   1 -14   8    7.53    0.39
  -1 -14  -8    8.49    0.44
  -1  14  -8    7.56    0.48
  -2 -14  -8    0.72    0.15
   2 -14   8    0.38    0.13
  -2  14  -8    0.49    0.18
  -3  14  -8    0.16    0.13
  -9   0   9   -0.01    0.11
  -8   0   9   -0.05    0.09
  -7   0   9   -0.05    0.08
  -6   0   9   -0.01    0.08
  -5   0   9   -0.05    0.07
  -4   0   9    0.00    0.07
   3   0  -9    0.04    0.05
  -3   0   9    0.04    0.07
  -2   0   9    0.02    0.06
   2   0  -9   -0.03    0.05
  -1   0   9   -0.07    0.06
   1   0  -9    0.05    0.05
   1   0  -9    0.10    0.07
   0   0  -9    0.09    0.05
   0   0  -9    0.08    0.06
   0   0   9    0.15    0.07
   1   0   9   -0.05    0.04
  -1   0  -9    0.15    0.06
  -1   0  -9    0.05    0.06
  -2   0  -9   -0.02    0.05
  -2   0  -9    0.02    0.06
   2   0   9   -0.01    0.05
  -3   0  -9    0.19    0.07
  -3   0  -9    0.75    0.13
   3   0   9    0.02    0.04
  -4   0  -9   -0.08    0.05
  -4   0  -9   -0.10    0.06
  -5   0  -9    0.03    0.08
  -5   0  -9   -0.01    0.07
  -6   0  -9    0.26    0.10
  -7   0  -9    0.03    0.08
  -8   0  -9    0.15    0.11
  -9   0  -9    0.06    0.11
  -9  -1   9    4.74    0.35
  -9   1   9    4.43    0.35
  -8  -1   9    0.84    0.17
  -8   1   9    1.23    0.20
  -7  -1   9    6.74    0.37
  -7   1   9    6.36    0.36
  -6  -1   9    0.03    0.09
  -6   1   9   -0.06    0.08
  -5  -1   9   16.72    0.52
  -5   1   9   16.60    0.53
   4  -1  -9    1.60    0.18
  -4  -1   9    1.85    0.21
  -4   1   9    1.55    0.19
   3  -1  -9    3.24    0.22
  -3  -1   9    4.04    0.24
   3   1  -9    3.83    0.22
  -3   1   9    3.83    0.24
   2  -1  -9    2.95    0.21
  -2  -1   9    2.81    0.20
   2   1  -9    2.89    0.20
  -2   1   9    3.07    0.20
   1  -1  -9   38.52    0.78
   1  -1  -9   35.64    0.63
  -1  -1   9   37.82    0.73
   1   1  -9   37.42    0.70
   1   1  -9   37.48    0.75
  -1   1   9   38.23    0.73
   0  -1  -9   36.11    0.63
   0  -1  -9   34.97    0.75
   0  -1   9   36.14    0.68
   0   1  -9   36.47    0.74
   0   1  -9   36.12    0.68
   0   1   9   35.76    0.68
  -1  -1  -9    2.20    0.15
   1  -1   9    1.97    0.15
  -1  -1  -9    1.89    0.19
  -1   1  -9    2.07    0.18
  -1   1  -9    2.17    0.20
   1   1   9    2.26    0.18
  -2  -1  -9   25.28    0.60
   2  -1   9   24.65    0.48
  -2  -1  -9   24.86    0.53
  -2   1  -9   25.19    0.56
   2   1   9   24.90    0.48
  -2   1  -9   25.38    0.59
  -3  -1  -9   12.60    0.37
   3  -1   9   11.98    0.28
  -3  -1  -9   12.48    0.41
  -3   1  -9   12.34    0.40
   3   1   9   11.84    0.27
  -3   1  -9   12.24    0.38
  -4  -1  -9    3.57    0.25
  -4   1  -9    3.96    0.24
  -4   1  -9    3.92    0.24
  -5  -1  -9    2.62    0.24
  -5   1  -9    2.71    0.24
  -5   1  -9    2.73    0.23
  -6  -1  -9   11.90    0.44
  -6   1  -9   11.17    0.45
  -6   1  -9   12.54    0.44
  -7  -1  -9    2.67    0.27
  -7   1  -9    2.32    0.24
  -7   1  -9    2.41    0.26
  -8  -1  -9    1.63    0.23
  -8   1  -9    1.67    0.21
  -9  -1  -9    6.37    0.39
  -9   1  -9    5.76    0.37
  -9  -2   9    8.14    0.43
  -9   2   9    7.59    0.44
  -8  -2   9    2.00    0.26
  -8   2   9    2.01    0.26
  -7  -2   9    4.03    0.29
  -7   2   9    4.38    0.31
  -6  -2   9   31.00    0.76
  -6   2   9   29.00    0.76
  -5  -2   9    0.44    0.13
  -5   2   9    0.76    0.16
   4  -2  -9    5.98    0.29
  -4  -2   9    5.96    0.30
  -4   2   9    5.99    0.31
   3  -2  -9    7.08    0.31
  -3  -2   9    7.62    0.32
   3   2  -9    7.59    0.30
  -3   2   9    7.22    0.31
   2  -2  -9    0.31    0.09
  -2  -2   9    0.33    0.09
  -2   2   9    0.32    0.09
   2   2  -9    0.18    0.07
   1  -2  -9    8.23    0.34
  -1  -2   9    8.48    0.31
  -1   2   9    7.82    0.30
   1   2  -9    8.06    0.31
   1   2  -9    8.38    0.31
   0  -2  -9    0.47    0.07
   0  -2  -9    0.42    0.10
   0  -2   9    0.53    0.10
   0   2  -9    0.29    0.08
   0   2  -9    0.61    0.11
   0   2   9    0.71    0.11
  -1  -2  -9   95.65    1.52
  -1  -2  -9   98.67    1.35
   1  -2   9   94.24    1.38
  -1   2  -9   97.38    1.48
  -1   2  -9   96.31    1.48
   1   2   9   95.59    1.38
   2  -2   9   18.13    0.41
  -2  -2  -9   19.33    0.43
  -2  -2  -9   17.81    0.50
  -2   2  -9   18.65    0.49
   2   2   9   18.91    0.40
  -2   2  -9   18.94    0.48
   3  -2   9    0.19    0.05
  -3  -2  -9    0.10    0.08
  -3  -2  -9    0.17    0.07
   3   2   9    0.11    0.05
  -3   2  -9    0.10    0.07
  -3   2  -9    0.10    0.07
   4  -2   9    2.54    0.12
  -4  -2  -9    2.93    0.23
  -4   2  -9    2.23    0.22
  -4   2  -9    2.56    0.20
  -5  -2  -9    2.02    0.22
  -5   2  -9    2.01    0.21
  -5   2  -9    2.11    0.20
  -6  -2  -9   38.46    0.87
  -6   2  -9   39.31    0.88
  -6   2  -9   38.85    0.83
  -7  -2  -9    0.02    0.09
  -7   2  -9    0.01    0.09
  -7   2  -9    0.00    0.08
  -8  -2  -9    0.39    0.14
  -8   2  -9    0.54    0.16
  -8   2  -9    0.39    0.13
  -9  -2  -9    1.67    0.24
  -9   2  -9    1.01    0.21
  -9   2  -9    1.27    0.20
  -9  -3   9    2.03    0.26
  -9   3   9    1.86    0.27
  -8  -3   9    0.37    0.13
  -8   3   9    0.36    0.14
  -7  -3   9    0.16    0.11
  -7   3   9    0.68    0.16
  -6  -3   9    2.49    0.25
  -6   3   9    2.72    0.28
  -5  -3   9   33.31    0.77
  -5   3   9   33.78    0.79
  -4  -3   9   25.86    0.64
   4  -3  -9   25.13    0.62
  -4   3   9   25.23    0.64
  -3  -3   9    0.11    0.07
   3  -3  -9    0.07    0.07
  -3   3   9    0.01    0.06
   2  -3  -9    5.82    0.29
  -2  -3   9    5.99    0.28
  -2   3   9    5.72    0.27
   2   3  -9    5.72    0.28
   2   3  -9    5.99    0.25
  -1  -3   9    0.02    0.05
   1  -3  -9   -0.03    0.06
  -1   3   9    0.03    0.06
   1   3  -9    0.02    0.06
   1   3  -9    0.03    0.05
   0  -3   9   29.13    0.60
   0  -3  -9   29.18    0.68
   0   3   9   29.18    0.59
   0   3  -9   27.99    0.64
   0   3  -9   28.74    0.61
  -1  -3  -9    0.64    0.09
   1  -3   9    0.43    0.09
  -1  -3  -9    0.48    0.12
  -1   3  -9    0.32    0.09
   1   3   9    0.50    0.10
  -1   3  -9    0.49    0.11
   2  -3   9    0.26    0.07
  -2  -3  -9    0.13    0.08
  -2  -3  -9    0.22    0.07
  -2   3  -9    0.42    0.09
  -2   3  -9    0.08    0.07
   2   3   9    0.19    0.06
  -3  -3  -9    0.03    0.08
   3  -3   9    0.13    0.05
  -3   3  -9    0.15    0.07
  -3   3  -9    0.13    0.07
   3   3   9    0.11    0.05
  -4  -3  -9    3.72    0.26
   4  -3   9    3.51    0.14
  -4   3  -9    3.44    0.23
  -4   3  -9    3.57    0.25
  -5  -3  -9    4.49    0.30
  -5   3  -9    4.55    0.26
  -5   3  -9    4.09    0.28
  -6  -3  -9    1.02    0.17
  -6   3  -9    1.26    0.17
  -6   3  -9    1.27    0.20
  -7  -3  -9    2.77    0.29
  -7   3  -9    2.58    0.25
  -7   3  -9    2.25    0.26
  -8  -3  -9    0.22    0.12
  -8   3  -9    0.01    0.09
  -8   3  -9    0.22    0.13
  -9   3  -9    6.03    0.39
  -9  -4   9   15.48    0.58
  -9   4   9   14.97    0.60
  -8  -4   9    1.25    0.21
  -8   4   9    1.54    0.25
  -7  -4   9    0.27    0.12
  -6  -4   9   20.86    0.61
  -6   4   9   20.42    0.62
   5  -4  -9    2.84    0.22
  -5  -4   9    2.21    0.23
  -5   4   9    2.56    0.25
   4  -4  -9    0.73    0.13
   4  -4  -9    0.75    0.13
  -4  -4   9    0.64    0.14
   3  -4  -9    9.30    0.37
  -3  -4   9    9.24    0.36
   3  -4  -9   10.13    0.36
   2  -4  -9   33.42    0.68
  -2  -4   9   32.35    0.70
   2  -4  -9   33.75    0.75
   2   4  -9   33.43    0.66
   2   4  -9   31.76    0.72
   1  -4  -9    3.37    0.24
  -1  -4   9    3.63    0.21
   1  -4  -9    4.04    0.21
   1   4  -9    3.86    0.25
   1   4  -9    3.69    0.20
   0  -4  -9    8.69    0.29
   0  -4  -9    8.69    0.36
   0  -4   9    9.00    0.32
   0   4  -9    9.47    0.36
   0   4  -9    9.08    0.31
  -1  -4  -9   11.92    0.42
  -1  -4  -9   12.22    0.28
   1  -4   9   12.22    0.35
  -1  -4  -9   11.78    0.32
  -1   4  -9   11.63    0.36
  -1   4  -9   11.58    0.40
  -2  -4  -9    0.14    0.05
  -2  -4  -9    0.05    0.07
   2  -4   9    0.14    0.06
  -2   4  -9    0.12    0.06
  -2   4  -9    0.17    0.08
   3  -4   9   24.23    0.49
  -3  -4  -9   24.16    0.63
  -3   4  -9   24.38    0.63
   3   4   9   24.34    0.46
  -3   4  -9   24.57    0.56
  -4  -4  -9   14.43    0.49
   4  -4   9   15.01    0.34
  -4   4  -9   15.38    0.43
  -4   4  -9   15.81    0.50
   4   4   9   13.97    0.31
  -5  -4  -9    1.03    0.17
  -5   4  -9    0.98    0.14
  -5   4  -9    1.08    0.17
  -6  -4  -9    0.77    0.16
  -6   4  -9    0.65    0.14
  -6   4  -9    0.78    0.14
  -7  -4  -9    1.23    0.19
  -7   4  -9    1.66    0.20
  -7   4  -9    1.66    0.24
  -8  -4  -9    0.90    0.19
  -8   4  -9    0.72    0.15
  -8   4  -9    0.87    0.20
  -9  -5   9    0.94    0.19
  -9   5   9    1.33    0.23
  -8  -5   9    0.76    0.17
  -8   5   9    0.59    0.18
  -7  -5   9    0.16    0.10
  -7   5   9    0.24    0.12
  -6  -5   9    3.92    0.28
   6  -5  -9    3.43    0.26
  -5  -5   9   16.08    0.52
   5  -5  -9   16.47    0.51
   5  -5  -9   15.46    0.50
   4  -5  -9    5.65    0.30
   4  -5  -9    5.49    0.28
  -4  -5   9    5.52    0.29
   3  -5  -9   41.48    0.82
  -3  -5   9   40.03    0.84
   3  -5  -9   41.74    0.86
   2  -5  -9    1.70    0.20
   2  -5  -9    1.62    0.17
  -2  -5   9    1.53    0.17
   2   5  -9    1.57    0.20
  -1  -5   9    2.64    0.20
   1  -5  -9    2.89    0.19
   1  -5  -9    2.86    0.25
   1   5  -9    3.00    0.24
   1   5  -9    2.91    0.18
   0  -5   9   27.39    0.60
   0  -5  -9   27.12    0.56
   0  -5  -9   25.71    0.65
   0   5  -9   26.98    0.56
   0   5  -9   26.65    0.66
   1  -5   9    2.11    0.16
  -1  -5  -9    2.07    0.21
  -1  -5  -9    1.98    0.15
  -1   5  -9    2.02    0.21
  -1   5  -9    2.08    0.17
  -2  -5  -9   21.04    0.44
   2  -5   9   20.14    0.47
  -2  -5  -9   20.95    0.58
  -2   5  -9   20.05    0.57
  -2   5  -9   21.18    0.49
  -3  -5  -9    0.23    0.10
  -3  -5  -9    0.07    0.04
   3  -5   9    0.11    0.06
  -3   5  -9    0.02    0.07
  -3   5  -9    0.07    0.07
   4  -5   9    7.03    0.24
  -4  -5  -9    6.26    0.35
  -4   5  -9    7.36    0.29
  -4   5  -9    6.76    0.35
  -5  -5  -9    0.65    0.14
  -5   5  -9    0.75    0.15
  -5   5  -9    0.81    0.12
  -6  -5  -9    4.59    0.32
  -6   5  -9    4.50    0.32
  -6   5  -9    4.53    0.26
  -7  -5  -9    2.66    0.29
  -7   5  -9    3.03    0.24
  -7   5  -9    2.27    0.27
  -8  -5  -9    0.35    0.15
  -8   5  -9    0.42    0.12
  -8   5  -9    0.39    0.15
  -9  -6   9    0.07    0.12
  -9   6   9    0.14    0.13
  -8  -6   9    0.19    0.12
  -8   6   9    0.05    0.11
   7  -6  -9    5.17    0.33
  -7  -6   9    4.79    0.32
  -6  -6   9    0.06    0.09
   6  -6  -9   -0.01    0.08
  -5  -6   9    2.16    0.24
   5  -6  -9    2.43    0.24
   5  -6  -9    2.24    0.23
   4  -6  -9    2.45    0.23
  -4  -6   9    2.81    0.23
   4  -6  -9    2.62    0.25
   3  -6  -9    7.93    0.33
   3  -6  -9    8.53    0.37
  -3  -6   9    8.04    0.35
   2  -6  -9    9.12    0.34
   2  -6  -9    9.09    0.39
  -2  -6   9    9.24    0.36
   2   6  -9    9.27    0.40
   1  -6  -9   21.76    0.60
   1  -6  -9   22.16    0.52
  -1  -6   9   21.92    0.56
   1   6  -9   21.89    0.61
   0  -6   9    3.04    0.21
   0  -6  -9    3.19    0.25
   0  -6  -9    3.29    0.20
   0   6  -9    3.11    0.18
   0   6  -9    3.00    0.25
  -1  -6  -9    0.92    0.15
   1  -6   9    1.12    0.14
  -1  -6  -9    0.88    0.11
  -1   6  -9    0.82    0.15
  -1   6  -9    1.00    0.12
  -2  -6  -9   19.73    0.43
   2  -6   9   19.59    0.48
  -2  -6  -9   19.05    0.57
  -2   6  -9   20.24    0.46
  -2   6  -9   18.68    0.57
  -3  -6  -9    1.26    0.12
  -3  -6  -9    1.06    0.17
   3  -6   9    1.49    0.15
  -3   6  -9    1.35    0.14
  -3   6  -9    1.29    0.20
   4  -6   9    2.94    0.18
  -4  -6  -9    2.92    0.15
  -4  -6  -9    2.30    0.24
  -4   6  -9    2.77    0.27
  -4   6  -9    2.59    0.20
   5  -6   9    3.39    0.18
  -5  -6  -9    3.83    0.30
  -5   6  -9    3.29    0.22
  -5   6  -9    3.69    0.29
  -6  -6  -9   18.11    0.60
  -6   6  -9   16.59    0.59
  -6   6  -9   17.81    0.48
  -7  -6  -9    6.30    0.39
  -7   6  -9    6.74    0.41
  -7   6  -9    6.30    0.31
  -8  -6  -9    4.47    0.36
  -8   6  -9    4.47    0.36
  -8  -7   9    2.72    0.30
   8  -7  -9    2.53    0.28
   7  -7  -9    3.52    0.33
  -7  -7   9    3.51    0.28
  -6  -7   9    2.58    0.26
   6  -7  -9    2.53    0.26
   5  -7  -9    8.51    0.38
  -5  -7   9    8.22    0.38
   5  -7  -9    7.80    0.36
   4  -7  -9   37.49    0.84
  -4  -7   9   37.87    0.84
   4  -7  -9   36.48    0.80
  -3  -7   9   19.61    0.56
   3  -7  -9   19.83    0.58
   3  -7  -9   20.66    0.55
   2  -7  -9    8.66    0.34
  -2  -7   9    9.06    0.36
   2  -7  -9    8.27    0.38
   2   7  -9    8.82    0.41
   1  -7  -9    0.09    0.08
   1  -7  -9    0.24    0.08
  -1  -7   9    0.24    0.08
   1   7  -9    0.25    0.11
   0  -7   9    4.39    0.25
   0  -7  -9    5.09    0.24
   0  -7  -9    4.61    0.29
   0   7  -9    4.38    0.30
  -1  -7  -9   -0.03    0.06
  -1  -7  -9    0.08    0.06
   1  -7   9    0.06    0.06
  -1   7  -9    0.06    0.04
  -1   7  -9    0.00    0.08
  -2  -7  -9    0.78    0.11
   2  -7   9    0.58    0.11
  -2  -7  -9    0.70    0.15
  -2   7  -9    0.64    0.09
  -2   7  -9    0.63    0.14
  -3  -7  -9    2.18    0.24
  -3  -7  -9    2.31    0.16
   3  -7   9    2.53    0.19
  -3   7  -9    2.51    0.18
  -3   7  -9    2.35    0.26
  -4  -7  -9   16.44    0.37
   4  -7   9   15.91    0.43
  -4  -7  -9   16.83    0.56
  -4   7  -9   16.10    0.41
  -4   7  -9   16.61    0.57
  -5  -7  -9   21.18    0.65
   5  -7   9   21.34    0.49
  -5   7  -9   21.25    0.67
  -5   7  -9   21.97    0.51
  -6  -7  -9    2.45    0.28
  -6   7  -9    2.00    0.26
  -7  -7  -9    0.04    0.10
  -7   7  -9    0.18    0.13
  -8   7  -9    0.25    0.14
   8  -8  -9    7.26    0.41
  -8  -8   9    7.05    0.40
   7  -8  -9    2.23    0.26
  -7  -8   9    1.99    0.25
   6  -8  -9    6.47    0.35
  -6  -8   9    6.88    0.37
  -5  -8   9    2.80    0.27
   5  -8  -9    2.94    0.27
   5  -8  -9    2.86    0.27
  -4  -8   9    1.34    0.20
   4  -8  -9    1.38    0.20
   4  -8  -9    1.42    0.19
  -3  -8   9    0.25    0.11
   3  -8  -9    0.34    0.12
   3  -8  -9    0.37    0.10
   2  -8  -9   28.11    0.65
  -2  -8   9   27.86    0.68
   2  -8  -9   27.75    0.72
   1  -8  -9   21.92    0.63
   1  -8  -9   21.74    0.55
  -1  -8   9   21.66    0.58
   1   8  -9   22.28    0.67
   0  -8  -9    0.22    0.10
   0  -8   9    0.21    0.09
   0  -8  -9    0.26    0.09
   0   8  -9    0.18    0.10
  -1  -8  -9    3.56    0.28
  -1  -8  -9    3.47    0.21
   1  -8   9    3.06    0.22
  -1   8  -9    3.00    0.30
  -2  -8  -9    8.58    0.30
  -2  -8  -9    7.99    0.39
   2  -8   9    8.96    0.34
  -2   8  -9    8.64    0.26
  -2   8  -9    8.11    0.41
  -3  -8  -9   82.61    1.49
  -3  -8  -9   86.62    1.26
   3  -8   9   84.22    1.33
  -3   8  -9   81.91    1.54
   4  -8   9    1.55    0.17
  -4  -8  -9    1.34    0.13
  -4  -8  -9    1.48    0.21
  -4   8  -9    1.36    0.22
  -5  -8  -9    2.12    0.25
   5  -8   9    2.32    0.19
  -5   8  -9    2.02    0.27
  -6  -8  -9    0.13    0.12
  -6   8  -9    0.07    0.11
  -7  -8  -9    0.49    0.16
  -7   8  -9    0.94    0.21
  -7  -9   9    5.14    0.34
   7  -9  -9    5.28    0.35
  -6  -9   9    0.43    0.13
   6  -9  -9    0.57    0.14
   5  -9  -9    0.98    0.17
  -5  -9   9    0.93    0.18
   5  -9  -9    1.28    0.19
   4  -9  -9    0.35    0.12
  -4  -9   9    0.25    0.11
   4  -9  -9    0.29    0.11
   3  -9  -9   25.03    0.64
   3  -9  -9   25.23    0.68
  -3  -9   9   25.91    0.68
   2  -9  -9    3.91    0.30
   2  -9  -9    4.04    0.26
  -2  -9   9    4.16    0.27
   1  -9  -9   10.49    0.44
  -1  -9   9   10.43    0.40
   1  -9  -9   10.12    0.38
   1   9  -9   10.07    0.47
   0  -9  -9    1.95    0.23
   0  -9  -9    1.63    0.18
   0  -9   9    1.50    0.18
   0   9  -9    1.63    0.24
  -1  -9  -9    2.38    0.25
   1  -9   9    2.81    0.23
  -1  -9  -9    1.89    0.18
  -1   9  -9    1.78    0.24
  -2  -9  -9    2.60    0.26
   2  -9   9    2.82    0.22
  -2  -9  -9    2.85    0.19
  -2   9  -9    2.76    0.31
  -3  -9  -9    5.46    0.34
   3  -9   9    5.32    0.29
  -3  -9  -9    5.34    0.24
  -3   9  -9    4.85    0.35
   4  -9   9    4.80    0.27
  -4  -9  -9    4.83    0.23
  -4  -9  -9    4.69    0.33
  -4   9  -9    5.06    0.36
   5  -9   9    0.00    0.05
  -5  -9  -9    0.06    0.11
  -5   9  -9   -0.02    0.10
  -6  -9  -9    2.75    0.30
  -6   9  -9    3.65    0.37
  -7   9  -9    0.25    0.14
  -7 -10   9    0.19    0.12
   7 -10  -9    0.25    0.12
   6 -10  -9    5.19    0.34
  -6 -10   9    4.51    0.32
  -5 -10   9    0.03    0.09
   5 -10  -9    0.12    0.09
   5 -10  -9    0.03    0.08
   4 -10  -9    0.02    0.07
   4 -10  -9    0.06    0.08
  -4 -10   9    0.24    0.11
   3 -10  -9    0.95    0.16
   3 -10  -9    1.22    0.19
  -3 -10   9    1.24    0.18
   2 -10  -9    3.01    0.30
  -2 -10   9    3.00    0.24
   2 -10  -9    3.18    0.24
  -1 -10   9    1.15    0.18
   1 -10  -9    1.28    0.19
   1 -10  -9    1.36    0.17
   1  10  -9    1.49    0.24
   0 -10  -9    1.15    0.19
   0 -10  -9    0.96    0.15
   0 -10   9    0.72    0.14
   0  10  -9    0.73    0.17
   1 -10   9    0.29    0.10
  -1 -10  -9    0.28    0.09
  -1 -10  -9    0.46    0.13
  -1  10  -9    0.49    0.16
  -2 -10  -9    0.07    0.09
  -2 -10  -9    0.13    0.08
   2 -10   9    0.18    0.09
  -2  10  -9   -0.18    0.06
   3 -10   9    1.14    0.17
  -3 -10  -9    0.95    0.17
  -3 -10  -9    1.00    0.14
  -3  10  -9    1.21    0.21
  -4 -10  -9    1.72    0.23
  -4 -10  -9    1.83    0.17
   4 -10   9    1.97    0.21
  -4  10  -9    2.00    0.29
   5 -10   9    1.27    0.17
  -5 -10  -9    1.24    0.21
  -5  10  -9    1.24    0.24
  -6 -10  -9   -0.11    0.09
  -6  10  -9    0.05    0.11
   6 -11  -9    0.13    0.11
  -6 -11   9    0.36    0.14
   5 -11  -9    0.30    0.12
  -5 -11   9    0.30    0.13
   5 -11  -9    0.17    0.10
   4 -11  -9    0.15    0.10
   4 -11  -9    0.28    0.11
  -4 -11   9    0.22    0.11
   3 -11  -9   21.52    0.63
  -3 -11   9   22.07    0.65
   3 -11  -9   22.12    0.65
   2 -11  -9   15.18    0.50
  -2 -11   9   15.11    0.53
   2 -11  -9   15.89    0.56
  -1 -11   9    1.68    0.21
   1 -11  -9    1.60    0.19
   1 -11  -9    1.90    0.24
   1  11  -9    1.55    0.25
   0 -11   9    5.36    0.31
   0 -11  -9    5.13    0.28
   0 -11  -9    5.99    0.37
   0  11  -9    5.58    0.39
   1 -11   9    0.62    0.14
  -1 -11  -9    0.28    0.12
  -1 -11  -9    0.32    0.10
  -1  11  -9    0.49    0.16
  -2 -11  -9    2.64    0.21
  -2 -11  -9    2.70    0.28
   2 -11   9    2.31    0.24
  -2  11  -9    1.87    0.28
  -3 -11  -9   13.11    0.53
  -3 -11  -9   13.84    0.42
   3 -11   9   13.20    0.47
  -3  11  -9   12.78    0.57
  -4 -11  -9    7.56    0.31
  -4 -11  -9    7.14    0.42
   4 -11   9    7.30    0.35
  -4  11  -9    6.39    0.43
  -5 -11  -9    0.41    0.14
   5 -11   9    0.30    0.11
  -5  11  -9    0.18    0.14
  -5 -12   9    0.19    0.12
   5 -12  -9    0.07    0.10
   5 -12  -9    0.15    0.11
   4 -12  -9    0.07    0.09
   4 -12  -9   -0.04    0.08
  -4 -12   9    0.14    0.09
   3 -12  -9    0.64    0.15
   3 -12  -9    0.50    0.13
  -3 -12   9    0.68    0.16
  -2 -12   9    5.81    0.35
   2 -12  -9    5.38    0.32
   2 -12  -9    5.98    0.37
   1 -12  -9   10.16    0.47
   1 -12  -9    9.89    0.41
  -1 -12   9    9.61    0.43
   1  12  -9   10.90    0.53
   0 -12   9    0.28    0.11
   0 -12  -9    0.22    0.10
   0 -12  -9    0.48    0.14
   0  12  -9    0.21    0.13
   1 -12   9    3.59    0.27
  -1 -12  -9    3.90    0.34
  -1 -12  -9    3.81    0.26
  -1  12  -9    3.72    0.37
   2 -12   9    1.76    0.22
  -2 -12  -9    1.92    0.25
  -2 -12  -9    1.26    0.17
  -2  12  -9    1.75    0.29
  -3 -12  -9   29.79    0.68
   3 -12   9   28.87    0.75
  -3 -12  -9   28.79    0.81
  -3  12  -9   28.46    0.89
  -4 -12  -9    0.66    0.18
   4 -12   9    0.49    0.13
  -4  12  -9    0.60    0.18
  -4 -13   9    1.12    0.20
   4 -13  -9    1.28    0.20
  -3 -13   9    0.62    0.16
   3 -13  -9    0.79    0.16
   3 -13  -9    0.85    0.17
  -2 -13   9    0.19    0.11
   2 -13  -9    0.16    0.11
   2 -13  -9    0.14    0.10
  -1 -13   9    0.07    0.09
   1 -13  -9    0.05    0.09
   1 -13  -9    0.17    0.11
   1  13  -9    0.05    0.12
   0 -13  -9    3.63    0.27
   0 -13  -9    4.28    0.35
   0 -13   9    3.25    0.30
   0  13  -9    3.21    0.37
   1 -13   9    0.38    0.13
  -1 -13  -9    0.39    0.12
  -1 -13  -9    0.31    0.13
  -1  13  -9    0.24    0.14
  -2 -13  -9    0.06    0.11
   2 -13   9    0.18    0.10
  -2 -13  -9   -0.04    0.07
  -2  13  -9    0.00    0.12
   3 -13   9    0.25    0.11
  -3 -13  -9    0.24    0.13
  -3 -13  -9    0.13    0.10
  -3  13  -9    0.33    0.15
   1 -14  -9    1.33    0.20
   1 -14  -9    1.36    0.22
  -1 -14   9    1.05    0.20
   0 -14  -9    9.66    0.49
   0 -14   9   10.06    0.46
   0 -14  -9    9.38    0.42
   0  14  -9    9.72    0.55
  -1 -14  -9    1.19    0.22
  -1  14  -9    1.02    0.22
  -9   0  10    0.73    0.18
  -8   0  10   12.23    0.52
  -7   0  10    0.80    0.18
  -6   0  10    0.19    0.11
  -5   0  10   81.39    1.43
   4   0 -10    4.73    0.27
  -4   0  10    4.51    0.28
   3   0 -10    0.99    0.15
  -3   0  10    0.75    0.14
  -2   0  10    1.79    0.19
   2   0 -10    1.29    0.17
   1   0 -10  125.44    1.89
  -1   0  10  127.99    1.83
   1   0 -10  124.54    1.76
   0   0 -10   61.74    1.10
   0   0  10   61.03    1.02
   0   0 -10   60.20    0.98
  -1   0 -10    0.85    0.12
  -1   0 -10    0.79    0.14
  -2   0 -10    3.17    0.23
  -2   0 -10    3.06    0.20
   2   0  10    3.08    0.17
  -3   0 -10    9.13    0.36
   3   0  10    9.06    0.25
  -3   0 -10    8.90    0.33
  -4   0 -10   71.87    1.26
  -4   0 -10   70.65    1.21
  -5   0 -10    4.25    0.28
  -5   0 -10    4.68    0.30
  -6   0 -10    1.14    0.18
  -6   0 -10    1.03    0.17
  -7   0 -10    7.40    0.38
  -7   0 -10    7.35    0.39
  -8   0 -10    0.10    0.11
  -9  -1  10    0.11    0.12
  -9   1  10    0.07    0.12
  -8  -1  10    4.25    0.33
  -8   1  10    4.73    0.34
  -7  -1  10   10.48    0.46
  -7   1  10    9.24    0.45
  -6  -1  10    5.88    0.34
  -6   1  10    6.11    0.35
  -5  -1  10    0.15    0.11
  -5   1  10    0.07    0.10
   4  -1 -10    2.75    0.25
  -4  -1  10    2.41    0.25
  -4   1  10    2.69    0.25
  -3  -1  10   21.90    0.59
   3  -1 -10   23.16    0.60
  -3   1  10   23.10    0.60
   3   1 -10   23.00    0.57
   2  -1 -10   12.22    0.42
  -2  -1  10   12.16    0.41
   2   1 -10   11.99    0.41
  -2   1  10   11.34    0.40
   1  -1 -10    0.40    0.10
  -1  -1  10    0.41    0.11
   1   1 -10    0.32    0.09
   1   1 -10    0.22    0.09
  -1   1  10    0.28    0.09
   0  -1  10    1.29    0.15
   0  -1 -10    1.57    0.14
   0  -1 -10    1.33    0.18
   0   1 -10    1.30    0.16
   0   1  10    1.49    0.16
   0   1 -10    1.77    0.17
  -1  -1 -10    0.10    0.08
   1  -1  10    0.15    0.07
  -1  -1 -10    0.50    0.10
  -1   1 -10    0.11    0.07
  -1   1 -10    0.24    0.08
   1   1  10    0.18    0.07
   2  -1  10    0.03    0.05
  -2  -1 -10    0.03    0.06
  -2  -1 -10    0.14    0.07
  -2   1 -10    0.01    0.05
   2   1  10    0.04    0.05
  -2   1 -10    0.17    0.08
  -3  -1 -10    0.73    0.12
  -3  -1 -10    0.42    0.12
   3  -1  10    0.61    0.08
  -3   1 -10    0.45    0.11
  -3   1 -10    0.62    0.12
   3   1  10    0.66    0.09
  -4  -1 -10    0.73    0.13
  -4  -1 -10    0.56    0.13
  -4   1 -10    0.63    0.14
  -4   1 -10    0.79    0.15
  -5  -1 -10    8.46    0.37
  -5  -1 -10    9.25    0.40
  -5   1 -10    8.95    0.38
  -5   1 -10    9.79    0.39
  -6  -1 -10    6.32    0.35
  -6   1 -10    6.83    0.35
  -6   1 -10    6.32    0.34
  -7  -1 -10    0.22    0.11
  -7   1 -10    0.21    0.12
  -7   1 -10    0.35    0.13
  -8  -1 -10    0.20    0.12
  -8   1 -10    0.04    0.10
  -8   1 -10    0.16    0.12
  -9  -2  10    1.35    0.23
  -9   2  10    1.04    0.21
  -8  -2  10    8.79    0.45
  -8   2  10    9.59    0.47
  -7  -2  10    0.15    0.11
  -7   2  10    0.25    0.13
  -6  -2  10    1.15    0.18
  -6   2  10    1.12    0.19
  -5  -2  10    8.23    0.38
  -5   2  10    8.73    0.39
  -4  -2  10   10.71    0.41
   4  -2 -10    9.79    0.39
  -4   2  10   10.34    0.41
  -3  -2  10    0.93    0.16
   3  -2 -10    0.69    0.14
   3   2 -10    0.90    0.14
  -3   2  10    0.67    0.14
   2  -2 -10    0.48    0.12
  -2  -2  10    0.40    0.11
   2   2 -10    0.61    0.11
  -2   2  10    0.54    0.12
   1  -2 -10   10.00    0.39
  -1  -2  10    9.41    0.35
   1   2 -10    9.26    0.34
   1   2 -10    9.97    0.35
  -1   2  10    9.31    0.34
   0  -2 -10    0.12    0.07
   0  -2  10   -0.01    0.05
   0  -2 -10   -0.02    0.05
   0   2  10    0.06    0.06
   0   2 -10    0.06    0.06
   0   2 -10    0.03    0.06
  -1  -2 -10    0.13    0.08
  -1  -2 -10    0.11    0.06
   1  -2  10    0.05    0.05
  -1   2 -10    0.11    0.07
  -1   2 -10    0.38    0.10
   1   2  10    0.15    0.07
   2  -2  10    8.19    0.27
  -2  -2 -10    7.75    0.35
  -2  -2 -10    7.93    0.28
  -2   2 -10    8.24    0.33
  -2   2 -10    7.88    0.32
   2   2  10    7.92    0.26
   3  -2  10    1.57    0.13
  -3  -2 -10    1.74    0.21
  -3  -2 -10    1.59    0.16
  -3   2 -10    1.48    0.18
  -3   2 -10    1.56    0.18
   3   2  10    1.35    0.12
  -4  -2 -10    0.90    0.13
  -4  -2 -10    1.00    0.17
  -4   2 -10    1.11    0.17
  -4   2 -10    1.26    0.17
  -5  -2 -10    0.86    0.16
  -5   2 -10    0.86    0.16
  -5   2 -10    0.89    0.17
  -6  -2 -10    0.07    0.09
  -6   2 -10   -0.01    0.08
  -6   2 -10    0.07    0.08
  -7  -2 -10    0.03    0.10
  -7   2 -10    0.09    0.09
  -7   2 -10    0.00    0.08
  -8  -2 -10    0.23    0.13
  -8   2 -10    0.56    0.15
  -8   2 -10    0.37    0.14
  -9  -3  10    0.57    0.16
  -9   3  10    0.72    0.20
  -8  -3  10    0.31    0.14
  -8   3  10    0.37    0.16
  -7  -3  10    3.54    0.29
  -7   3  10    3.41    0.34
  -6  -3  10    0.36    0.13
  -6   3  10    0.57    0.15
  -5  -3  10    0.10    0.09
  -5   3  10    0.35    0.12
  -4  -3  10    0.00    0.07
   4  -3 -10    0.12    0.08
  -4   3  10    0.14    0.09
   3  -3 -10   11.96    0.44
  -3  -3  10   11.89    0.42
  -3   3  10   12.13    0.43
   2  -3 -10   33.24    0.76
  -2  -3  10   32.32    0.72
   2   3 -10   33.43    0.69
  -2   3  10   32.48    0.72
   2   3 -10   33.19    0.72
  -1  -3  10    0.04    0.07
   1  -3 -10   -0.05    0.05
   1   3 -10    0.15    0.08
   1   3 -10    0.09    0.06
  -1   3  10    0.12    0.07
   0  -3 -10   21.39    0.59
   0  -3  10   21.58    0.52
   0   3 -10   21.42    0.56
   0   3 -10   21.68    0.53
   0   3  10   21.74    0.51
  -1  -3 -10    0.69    0.13
   1  -3  10    0.70    0.11
  -1  -3 -10    0.99    0.11
  -1   3 -10    0.59    0.11
   1   3  10    0.72    0.11
  -1   3 -10    0.74    0.13
  -2  -3 -10    0.05    0.07
   2  -3  10    0.11    0.06
  -2  -3 -10    0.12    0.06
  -2   3 -10    0.05    0.07
  -2   3 -10    0.04    0.06
   2   3  10    0.16    0.06
   3  -3  10    5.00    0.21
  -3  -3 -10    5.21    0.24
  -3  -3 -10    5.40    0.31
  -3   3 -10    5.13    0.27
   3   3  10    5.48    0.20
  -3   3 -10    5.32    0.29
  -4  -3 -10   12.22    0.46
   4  -3  10   11.60    0.29
  -4   3 -10   12.02    0.41
  -4   3 -10   11.43    0.43
  -5  -3 -10   21.74    0.64
  -5   3 -10   21.08    0.62
  -5   3 -10   22.44    0.58
  -6  -3 -10    1.33    0.20
  -6   3 -10    1.39    0.21
  -6   3 -10    1.55    0.20
  -7  -3 -10    7.77    0.41
  -7   3 -10    7.26    0.40
  -7   3 -10    6.85    0.36
  -8  -3 -10    0.61    0.17
  -8   3 -10    0.69    0.16
  -8   3 -10    0.78    0.19
  -9  -4  10    2.58    0.30
  -9   4  10    3.25    0.36
  -8  -4  10    2.59    0.30
  -8   4  10    3.34    0.34
  -7  -4  10    4.17    0.31
  -7   4  10    4.62    0.33
  -6  -4  10    0.13    0.10
  -6   4  10    0.22    0.12
  -5  -4  10    7.61    0.37
   5  -4 -10    6.93    0.36
  -5   4  10    8.45    0.39
   4  -4 -10    1.48    0.18
  -4  -4  10    1.59    0.20
  -4   4  10    1.33    0.19
  -3  -4  10    3.55    0.25
   3  -4 -10    3.38    0.26
   3  -4 -10    3.44    0.23
  -3   4  10    3.39    0.24
  -2  -4  10    6.74    0.32
   2  -4 -10    6.88    0.30
   2  -4 -10    7.27    0.35
   2   4 -10    7.49    0.35
   2   4 -10    7.28    0.30
   1  -4 -10   43.61    0.81
  -1  -4  10   42.01    0.84
   1  -4 -10   43.05    0.91
   1   4 -10   43.25    0.89
   1   4 -10   43.93    0.82
   0  -4  10   12.55    0.40
   0  -4 -10   12.59    0.37
   0  -4 -10   13.21    0.46
   0   4 -10   12.87    0.44
   0   4 -10   13.36    0.40
  -1  -4 -10    1.06    0.11
   1  -4  10    0.98    0.13
  -1  -4 -10    0.78    0.14
   1   4  10    0.92    0.12
  -1   4 -10    1.01    0.16
  -1   4 -10    0.85    0.13
  -2  -4 -10    2.03    0.22
  -2  -4 -10    2.36    0.16
   2  -4  10    2.10    0.16
  -2   4 -10    2.35    0.21
   2   4  10    2.34    0.16
  -2   4 -10    2.26    0.23
   3  -4  10    1.27    0.13
  -3  -4 -10    0.55    0.13
   3   4  10    0.71    0.10
  -3   4 -10    0.68    0.12
  -3   4 -10    0.89    0.16
   4  -4  10   46.68    0.76
  -4  -4 -10   47.27    1.00
  -4   4 -10   48.07    1.00
  -4   4 -10   48.78    0.91
  -5  -4 -10    1.65    0.21
  -5   4 -10    1.45    0.20
  -5   4 -10    1.80    0.19
  -6  -4 -10    4.42    0.32
  -6   4 -10    3.94    0.27
  -6   4 -10    3.62    0.29
  -7  -4 -10    0.19    0.12
  -7   4 -10    0.26    0.13
  -7   4 -10    0.26    0.11
  -8  -4 -10    0.14    0.12
  -8   4 -10    0.06    0.09
  -8   4 -10   -0.04    0.09
  -8  -5  10    6.26    0.38
  -8   5  10    6.04    0.41
  -7  -5  10   13.68    0.53
  -7   5  10   12.54    0.53
  -6  -5  10   26.74    0.73
  -6   5  10   25.78    0.74
   5  -5 -10    4.80    0.30
  -5  -5  10    4.91    0.31
   5  -5 -10    5.34    0.32
   4  -5 -10   14.02    0.47
   4  -5 -10   14.84    0.50
  -4  -5  10   15.39    0.50
   3  -5 -10    0.05    0.08
  -3  -5  10    0.10    0.08
   3  -5 -10    0.03    0.07
   2  -5 -10   12.43    0.40
  -2  -5  10   12.29    0.42
   2  -5 -10   12.73    0.46
   2   5 -10   12.43    0.46
   1  -5 -10    4.43    0.29
   1  -5 -10    4.50    0.23
  -1  -5  10    3.86    0.25
   1   5 -10    4.56    0.29
   1   5 -10    4.58    0.23
   0  -5  10    3.06    0.22
   0  -5 -10    3.42    0.20
   0  -5 -10    3.10    0.26
   0   5 -10    3.56    0.26
   0   5 -10    3.25    0.21
  -1  -5 -10    0.85    0.16
   1  -5  10    0.74    0.12
  -1  -5 -10    0.80    0.11
  -1   5 -10    1.15    0.17
  -1   5 -10    0.76    0.12
  -2  -5 -10    7.74    0.26
   2  -5  10    7.69    0.30
  -2  -5 -10    7.71    0.37
  -2   5 -10    7.33    0.30
  -2   5 -10    7.84    0.37
  -3  -5 -10   23.82    0.66
   3  -5  10   23.14    0.51
  -3   5 -10   22.81    0.65
  -3   5 -10   24.13    0.57
  -4  -5 -10    1.64    0.22
   4  -5  10    2.21    0.16
  -4   5 -10    2.12    0.20
  -4   5 -10    2.00    0.23
  -5  -5 -10    1.63    0.21
  -5   5 -10    1.95    0.25
  -5   5 -10    2.21    0.21
  -6  -5 -10    0.11    0.10
  -6   5 -10    0.16    0.09
  -6   5 -10    0.24    0.12
  -7  -5 -10   16.00    0.60
  -7   5 -10   15.59    0.60
  -7   5 -10   16.55    0.52
  -8  -5 -10    0.10    0.12
  -8   5 -10    0.10    0.12
  -8  -6  10    7.43    0.41
  -8   6  10    6.83    0.43
  -7  -6  10    0.18    0.12
  -7   6  10    0.27    0.13
   6  -6 -10    1.12    0.18
  -6  -6  10    1.41    0.20
   5  -6 -10   12.96    0.47
   5  -6 -10   11.65    0.47
  -5  -6  10   11.96    0.47
   4  -6 -10    8.92    0.40
  -4  -6  10    9.25    0.40
   4  -6 -10    9.44    0.39
   3  -6 -10   10.88    0.40
   3  -6 -10   11.36    0.44
  -3  -6  10   10.50    0.41
   2  -6 -10    2.63    0.21
   2  -6 -10    2.71    0.26
  -2  -6  10    2.65    0.25
   2   6 -10    3.13    0.29
   1  -6 -10    0.75    0.15
  -1  -6  10    1.25    0.17
   1  -6 -10    0.87    0.13
   1   6 -10    1.23    0.19
   0  -6 -10    5.47    0.25
   0  -6 -10    5.06    0.32
   0  -6  10    5.48    0.28
   0   6 -10    5.67    0.25
   0   6 -10    5.78    0.33
   1  -6  10   20.53    0.53
  -1  -6 -10   20.10    0.48
  -1  -6 -10   21.56    0.62
  -1   6 -10   20.21    0.61
  -1   6 -10   20.86    0.49
   2  -6  10   29.11    0.64
  -2  -6 -10   29.64    0.75
  -2  -6 -10   29.14    0.58
  -2   6 -10   29.87    0.61
  -2   6 -10   28.00    0.75
  -3  -6 -10    1.74    0.14
  -3  -6 -10    1.78    0.22
   3  -6  10    1.92    0.18
  -3   6 -10    1.58    0.22
  -3   6 -10    1.74    0.17
   4  -6  10    1.33    0.15
  -4  -6 -10    1.00    0.18
  -4   6 -10    1.31    0.16
  -5  -6 -10    0.19    0.11
  -5   6 -10    0.20    0.08
  -5   6 -10    0.22    0.12
  -6  -6 -10    1.05    0.19
  -6   6 -10    1.34    0.17
  -6   6 -10    1.03    0.21
  -7  -6 -10    3.51    0.34
  -7   6 -10    3.16    0.33
  -8  -7  10    0.09    0.12
  -8   7  10    0.20    0.14
   7  -7 -10    4.50    0.32
  -7  -7  10    4.79    0.33
   6  -7 -10    1.96    0.23
  -6  -7  10    2.33    0.27
   5  -7 -10    5.21    0.31
   5  -7 -10    4.40    0.32
  -5  -7  10    4.53    0.31
   4  -7 -10    7.72    0.38
  -4  -7  10    7.57    0.37
   4  -7 -10    7.41    0.35
   3  -7 -10    5.93    0.31
  -3  -7  10    5.84    0.32
   3  -7 -10    6.50    0.35
  -2  -7  10   24.32    0.64
   2  -7 -10   24.40    0.61
   2  -7 -10   24.20    0.68
   2   7 -10   25.82    0.71
  -1  -7  10    0.69    0.14
   1  -7 -10    0.76    0.13
   1  -7 -10    0.87    0.16
   1   7 -10    0.85    0.17
   0  -7  10    0.10    0.08
   0  -7 -10    0.17    0.08
   0  -7 -10    0.19    0.10
   0   7 -10    0.02    0.06
   0   7 -10    0.06    0.09
  -1  -7 -10    8.69    0.41
   1  -7  10    8.78    0.35
  -1  -7 -10    9.32    0.32
  -1   7 -10    9.08    0.30
  -1   7 -10    8.56    0.42
   2  -7  10    4.96    0.26
  -2  -7 -10    4.55    0.32
  -2  -7 -10    5.07    0.24
  -2   7 -10    5.31    0.24
  -2   7 -10    5.33    0.34
  -3  -7 -10    0.17    0.07
  -3  -7 -10    0.31    0.12
   3  -7  10    0.12    0.07
  -3   7 -10    0.23    0.08
  -3   7 -10    0.21    0.11
  -4  -7 -10    0.42    0.14
   4  -7  10    0.33    0.09
  -4   7 -10    0.39    0.13
  -4   7 -10    0.36    0.10
  -5  -7 -10    1.08    0.20
  -5   7 -10    1.00    0.20
  -6  -7 -10   -0.09    0.08
  -6   7 -10    0.02    0.10
  -7  -7 -10    1.15    0.21
  -7   7 -10    1.04    0.21
   7  -8 -10    2.37    0.28
  -7  -8  10    2.43    0.29
  -6  -8  10    0.02    0.09
   6  -8 -10    0.14    0.09
   5  -8 -10    1.14    0.19
   5  -8 -10    1.19    0.19
  -5  -8  10    1.00    0.18
   4  -8 -10    3.70    0.29
  -4  -8  10    2.57    0.26
   4  -8 -10    3.12    0.25
   3  -8 -10    1.56    0.21
   3  -8 -10    2.17    0.23
  -3  -8  10    2.37    0.26
  -2  -8  10    3.20    0.25
   2  -8 -10    3.49    0.29
   2  -8 -10    3.63    0.25
  -1  -8  10    0.10    0.07
   1  -8 -10    0.07    0.08
   1  -8 -10    0.54    0.12
   1   8 -10    0.01    0.08
   0  -8  10    2.83    0.23
   0  -8 -10    2.70    0.23
   0  -8 -10    2.62    0.27
   0   8 -10    2.57    0.28
  -1  -8 -10    0.06    0.07
  -1  -8 -10    0.18    0.11
   1  -8  10    0.09    0.07
  -1   8 -10    0.20    0.11
   2  -8  10    9.77    0.37
  -2  -8 -10   10.16    0.46
  -2  -8 -10    9.54    0.33
  -2   8 -10    9.70    0.46
  -2   8 -10    9.92    0.30
  -3  -8 -10    1.00    0.13
  -3  -8 -10    0.81    0.17
   3  -8  10    1.00    0.15
  -3   8 -10    1.16    0.20
   4  -8  10    9.13    0.34
  -4  -8 -10    8.80    0.44
  -4   8 -10    9.46    0.46
  -5  -8 -10    1.95    0.25
  -5   8 -10    2.84    0.33
  -6  -8 -10    1.20    0.22
  -6   8 -10    1.12    0.22
  -7  -9  10    0.14    0.12
  -6  -9  10    1.40    0.22
   6  -9 -10    1.86    0.24
   5  -9 -10    4.76    0.31
  -5  -9  10    4.03    0.30
   5  -9 -10    3.99    0.32
   4  -9 -10   19.76    0.60
   4  -9 -10   21.03    0.64
  -4  -9  10   19.82    0.62
   3  -9 -10    3.87    0.31
   3  -9 -10    4.22    0.28
  -3  -9  10    4.40    0.30
  -2  -9  10    4.16    0.28
   2  -9 -10    3.96    0.31
   2  -9 -10    4.44    0.27
   1  -9 -10    0.08    0.08
  -1  -9  10    0.01    0.08
   1  -9 -10   -0.10    0.05
   1   9 -10    0.07    0.09
   0  -9 -10    0.43    0.11
   0  -9  10    0.44    0.12
   0  -9 -10    0.44    0.14
   0   9 -10    0.56    0.15
   1  -9  10   18.40    0.55
  -1  -9 -10   20.26    0.63
  -1  -9 -10   19.03    0.50
  -1   9 -10   17.81    0.64
  -2  -9 -10   12.49    0.50
  -2  -9 -10   12.86    0.39
   2  -9  10   11.94    0.43
  -2   9 -10   11.59    0.52
   3  -9  10    8.19    0.35
  -3  -9 -10    7.87    0.30
  -3  -9 -10    7.68    0.41
  -3   9 -10    7.60    0.43
   4  -9  10    0.89    0.14
  -4  -9 -10    0.66    0.17
  -4   9 -10    0.85    0.19
  -5  -9 -10    0.08    0.12
  -5   9 -10    0.10    0.11
  -6  -9 -10    1.15    0.22
  -6   9 -10    1.26    0.24
  -6 -10  10    1.15    0.22
   6 -10 -10    1.02    0.18
   5 -10 -10    1.82    0.23
  -5 -10  10    1.80    0.24
   5 -10 -10    1.84    0.24
   4 -10 -10    1.00    0.18
  -4 -10  10    1.25    0.20
   4 -10 -10    1.40    0.20
   3 -10 -10    7.24    0.36
  -3 -10  10    7.25    0.38
   3 -10 -10    7.42    0.40
  -2 -10  10    3.29    0.27
   2 -10 -10    2.88    0.28
   2 -10 -10    3.13    0.25
   1 -10 -10    6.34    0.31
  -1 -10  10    6.17    0.34
   1 -10 -10    5.74    0.36
   1  10 -10    6.52    0.42
   0 -10  10    7.68    0.37
   0 -10 -10    8.51    0.43
   0 -10 -10    7.63    0.34
   0  10 -10    8.26    0.46
  -1 -10 -10   29.64    0.68
  -1 -10 -10   30.75    0.81
   1 -10  10   30.47    0.75
  -1  10 -10   29.68    0.86
   2 -10  10    1.78    0.21
  -2 -10 -10    1.80    0.19
  -2 -10 -10    1.93    0.25
  -2  10 -10    1.61    0.26
  -3 -10 -10    0.50    0.15
  -3 -10 -10    0.72    0.12
   3 -10  10    0.57    0.13
  -3  10 -10    0.67    0.18
   4 -10  10    0.40    0.11
  -4 -10 -10    0.61    0.16
  -4  10 -10    0.43    0.16
  -5 -10 -10    1.51    0.24
  -5  10 -10    1.37    0.25
   5 -11 -10    2.27    0.27
  -5 -11  10    2.17    0.26
   5 -11 -10    2.41    0.27
   4 -11 -10    3.25    0.32
   4 -11 -10    3.41    0.28
  -4 -11  10    3.09    0.31
  -3 -11  10    6.05    0.35
   3 -11 -10    5.67    0.33
   3 -11 -10    4.89    0.35
  -2 -11  10    0.41    0.12
   2 -11 -10    0.24    0.11
   2 -11 -10    0.56    0.15
  -1 -11  10    0.01    0.08
   1 -11 -10   -0.04    0.07
   1 -11 -10   -0.08    0.08
   1  11 -10   -0.01    0.10
   0 -11 -10    0.24    0.09
   0 -11  10    0.11    0.09
   0 -11 -10    0.48    0.14
   0  11 -10    0.29    0.15
  -1 -11 -10    4.80    0.28
  -1 -11 -10    5.32    0.36
   1 -11  10    4.95    0.31
  -1  11 -10    5.00    0.38
  -2 -11 -10    1.38    0.22
  -2 -11 -10    1.40    0.17
   2 -11  10    1.42    0.20
  -2  11 -10    1.52    0.25
  -3 -11 -10    0.13    0.11
  -3 -11 -10    0.08    0.09
   3 -11  10    0.18    0.09
  -3  11 -10    0.10    0.12
  -4 -11 -10    1.28    0.23
   4 -11  10    1.22    0.18
  -4  11 -10    1.21    0.24
   4 -12 -10    1.36    0.21
   4 -12 -10    1.49    0.22
  -4 -12  10    1.42    0.23
   3 -12 -10    2.57    0.27
   3 -12 -10    2.35    0.27
  -3 -12  10    2.67    0.29
   2 -12 -10    2.52    0.29
  -2 -12  10    2.13    0.25
   2 -12 -10    2.62    0.27
   1 -12 -10    0.70    0.17
   1 -12 -10    0.65    0.15
  -1 -12  10    0.46    0.14
   1  12 -10    0.88    0.20
   0 -12  10    0.66    0.16
   0 -12 -10    0.76    0.17
   0 -12 -10    0.99    0.17
   0  12 -10    0.60    0.18
   1 -12  10    1.49    0.21
  -1 -12 -10    1.64    0.24
  -1 -12 -10    1.33    0.18
  -1  12 -10    1.38    0.23
   2 -12  10    0.23    0.09
  -2 -12 -10    0.26    0.11
  -2 -12 -10    0.20    0.13
  -2  12 -10    0.27    0.13
  -3 -12 -10    1.50    0.19
   3 -12  10    1.81    0.23
  -3 -12 -10    1.57    0.24
  -3  12 -10    1.23    0.24
  -2 -13  10   17.07    0.61
   2 -13 -10   16.79    0.57
   2 -13 -10   16.17    0.61
  -1 -13  10    1.26    0.21
   1 -13 -10    1.05    0.21
   1 -13 -10    1.11    0.19
   0 -13 -10    1.97    0.26
   0 -13 -10    1.98    0.24
   0 -13  10    2.13    0.26
   0  13 -10    1.97    0.31
  -1 -13 -10   12.71    0.47
   1 -13  10   12.61    0.51
  -1 -13 -10   13.90    0.57
  -1  13 -10   11.87    0.59
  -2  13 -10    0.72    0.21
  -8   0  11   -0.14    0.09
  -7   0  11   -0.03    0.09
  -6   0  11    0.02    0.09
  -5   0  11    0.09    0.10
   4   0 -11    0.08    0.08
  -4   0  11    0.01    0.08
   3   0 -11    0.10    0.07
  -3   0  11    0.01    0.08
   2   0 -11    0.01    0.06
  -2   0  11   -0.05    0.07
   1   0 -11    0.03    0.06
   1   0 -11    0.16    0.08
  -1   0  11    0.00    0.06
   0   0  11    0.05    0.06
   0   0 -11    0.09    0.06
   0   0 -11    0.00    0.06
   1   0  11   -0.01    0.05
  -1   0 -11    0.06    0.07
  -1   0 -11    0.25    0.08
   2   0  11    0.16    0.07
  -2   0 -11    0.03    0.07
  -2   0 -11    0.07    0.07
  -3   0 -11   -0.05    0.07
  -3   0 -11   -0.05    0.08
   3   0  11   -0.03    0.05
  -4   0 -11   -0.03    0.08
  -4   0 -11    0.06    0.09
  -5   0 -11    0.03    0.09
  -5   0 -11   -0.03    0.07
  -6   0 -11   -0.06    0.07
  -6   0 -11    0.06    0.09
  -7   0 -11    0.09    0.10
  -7   0 -11    0.03    0.10
  -8   0 -11   -0.03    0.11
  -8  -1  11    0.02    0.11
  -8   1  11    0.05    0.12
  -7  -1  11    0.09    0.10
  -7   1  11   -0.07    0.09
  -6  -1  11    0.83    0.17
  -6   1  11    1.17    0.20
  -5  -1  11   14.91    0.53
  -5   1  11   15.86    0.55
   4  -1 -11    3.93    0.28
  -4  -1  11    4.83    0.30
  -4   1  11    4.16    0.29
   3  -1 -11    8.15    0.37
  -3  -1  11    8.25    0.37
   3   1 -11    8.98    0.37
  -3   1  11    8.29    0.37
  -2  -1  11    3.20    0.24
   2  -1 -11    3.43    0.26
   2   1 -11    3.49    0.25
  -2   1  11    3.22    0.24
   1  -1 -11    3.30    0.19
  -1  -1  11    3.12    0.22
   1  -1 -11    3.13    0.25
  -1   1  11    3.24    0.22
   1   1 -11    2.78    0.23
   1   1 -11    3.19    0.22
   0  -1  11    1.97    0.19
   0  -1 -11    1.68    0.20
   0  -1 -11    1.89    0.17
   0   1 -11    1.84    0.18
   0   1 -11    1.73    0.20
   0   1  11    1.61    0.17
  -1  -1 -11    1.68    0.21
  -1  -1 -11    1.72    0.16
   1  -1  11    1.93    0.18
   1   1  11    2.02    0.18
  -1   1 -11    1.66    0.17
  -1   1 -11    1.96    0.21
  -2  -1 -11    0.54    0.12
  -2  -1 -11    0.76    0.12
   2  -1  11    0.51    0.10
  -2   1 -11    0.67    0.13
   2   1  11    0.69    0.11
  -2   1 -11    0.47    0.11
   3  -1  11   20.31    0.44
  -3  -1 -11   20.51    0.59
  -3  -1 -11   20.88    0.53
   3   1  11   20.16    0.43
  -3   1 -11   20.69    0.56
  -3   1 -11   20.75    0.58
  -4  -1 -11   29.53    0.74
  -4  -1 -11   29.87    0.68
  -4   1 -11   28.90    0.70
  -4   1 -11   30.82    0.73
  -5  -1 -11   10.41    0.44
  -5  -1 -11   10.18    0.40
  -5   1 -11    9.72    0.41
  -5   1 -11   10.73    0.43
  -6  -1 -11    0.05    0.09
  -6  -1 -11    0.08    0.09
  -6   1 -11    0.06    0.10
  -6   1 -11    0.14    0.10
  -7  -1 -11    0.42    0.15
  -7  -1 -11    0.38    0.15
  -7   1 -11    0.33    0.13
  -7   1 -11    0.45    0.15
  -8  -1 -11   22.23    0.71
  -8   1 -11   21.96    0.71
  -8  -2  11    2.18    0.28
  -8   2  11    2.69    0.33
  -7  -2  11   15.92    0.59
  -7   2  11   16.82    0.62
  -6  -2  11    1.60    0.22
  -6   2  11    1.68    0.24
  -5  -2  11    0.11    0.10
  -5   2  11    0.08    0.09
  -4  -2  11    7.36    0.36
  -4   2  11    7.20    0.36
   3  -2 -11   50.63    1.03
  -3  -2  11   51.17    1.02
   3   2 -11   51.81    0.99
  -3   2  11   52.43    1.03
   2  -2 -11   41.04    0.89
  -2  -2  11   41.78    0.86
   2   2 -11   41.05    0.85
  -2   2  11   41.57    0.86
  -1  -2  11    0.75    0.13
   1  -2 -11    0.76    0.15
   1   2 -11    0.88    0.14
  -1   2  11    0.97    0.15
   1   2 -11    0.71    0.13
   0  -2 -11    0.28    0.11
   0  -2 -11    0.27    0.07
   0  -2  11    0.18    0.08
   0   2 -11    0.28    0.09
   0   2  11    0.15    0.08
   0   2 -11    0.26    0.09
  -1  -2 -11   22.29    0.62
  -1  -2 -11   22.13    0.48
   1  -2  11   21.27    0.52
  -1   2 -11   21.83    0.58
  -1   2 -11   21.76    0.57
   1   2  11   22.26    0.52
  -2  -2 -11   30.85    0.62
  -2  -2 -11   29.37    0.73
   2  -2  11   29.87    0.61
   2   2  11   29.52    0.59
  -2   2 -11   30.33    0.71
  -2   2 -11   29.55    0.69
   3  -2  11   11.12    0.32
  -3  -2 -11   11.36    0.37
  -3  -2 -11   11.40    0.45
   3   2  11   11.26    0.30
  -3   2 -11   12.36    0.43
  -3   2 -11   11.31    0.42
  -4  -2 -11    0.44    0.13
  -4  -2 -11    0.31    0.11
  -4   2 -11    0.51    0.13
  -4   2 -11    0.36    0.11
  -5  -2 -11    0.18    0.11
  -5  -2 -11    0.11    0.10
  -5   2 -11    0.12    0.09
  -5   2 -11    0.16    0.09
  -6  -2 -11    0.42    0.14
  -6   2 -11    0.63    0.14
  -6   2 -11    0.66    0.15
  -7  -2 -11    0.68    0.17
  -7   2 -11    0.65    0.16
  -7   2 -11    0.60    0.16
  -8  -3  11    8.09    0.44
  -8   3  11    7.66    0.45
  -7  -3  11    0.31    0.13
  -7   3  11    0.44    0.16
  -6  -3  11    4.04    0.30
  -6   3  11    4.27    0.32
  -5  -3  11    9.69    0.42
  -5   3  11    9.74    0.43
   4  -3 -11    7.87    0.38
  -4  -3  11    7.36    0.36
  -4   3  11    6.82    0.36
   3  -3 -11    6.86    0.35
  -3  -3  11    6.56    0.33
  -3   3  11    6.61    0.34
  -2  -3  11   13.25    0.45
   2  -3 -11   13.22    0.48
   2   3 -11   12.44    0.42
  -2   3  11   13.54    0.45
   2   3 -11   13.15    0.44
   1  -3 -11    0.00    0.08
  -1  -3  11    0.04    0.07
   1   3 -11    0.10    0.08
   1   3 -11    0.10    0.08
  -1   3  11    0.16    0.08
   0  -3 -11    1.76    0.20
   0  -3  11    2.18    0.21
   0   3 -11    2.13    0.22
   0   3 -11    2.06    0.20
   0   3  11    1.97    0.20
   1  -3  11    7.52    0.31
  -1  -3 -11    8.09    0.26
  -1  -3 -11    7.60    0.37
   1   3  11    7.05    0.29
  -1   3 -11    8.02    0.34
  -1   3 -11    7.78    0.35
  -2  -3 -11    4.51    0.22
  -2  -3 -11    4.28    0.30
   2  -3  11    3.83    0.22
   2   3  11    5.25    0.23
  -2   3 -11    4.04    0.27
  -2   3 -11    4.13    0.26
  -3  -3 -11    9.14    0.41
  -3  -3 -11    9.36    0.33
   3  -3  11    9.10    0.30
  -3   3 -11    9.65    0.40
   3   3  11   10.43    0.30
  -3   3 -11   10.07    0.39
  -4  -3 -11    6.94    0.31
  -4  -3 -11    6.73    0.37
  -4   3 -11    6.52    0.33
  -4   3 -11    6.57    0.34
  -5  -3 -11    1.77    0.23
  -5   3 -11    1.88    0.21
  -5   3 -11    1.65    0.22
  -6  -3 -11    0.37    0.13
  -6   3 -11    0.12    0.11
  -6   3 -11    0.29    0.11
  -7  -3 -11    3.36    0.33
  -7   3 -11    3.23    0.32
  -7   3 -11    2.79    0.28
  -8  -4  11    1.65    0.25
  -8   4  11    1.45    0.24
  -7  -4  11    7.52    0.41
  -7   4  11    6.75    0.41
  -6  -4  11    6.29    0.36
  -6   4  11    5.60    0.36
  -5  -4  11    1.18    0.19
   5  -4 -11    1.04    0.19
  -5   4  11    0.90    0.18
  -4  -4  11   19.94    0.60
   4  -4 -11   20.19    0.60
  -4   4  11   19.94    0.61
  -3  -4  11    1.09    0.17
   3  -4 -11    0.93    0.16
  -3   4  11    1.04    0.17
   2  -4 -11    2.02    0.22
  -2  -4  11    2.17    0.22
  -2   4  11    2.35    0.23
   2   4 -11    1.95    0.22
   2   4 -11    1.92    0.19
  -1  -4  11    5.41    0.29
   1  -4 -11    5.56    0.33
   1   4 -11    5.67    0.32
   1   4 -11    5.80    0.29
  -1   4  11    6.39    0.30
   0  -4 -11   49.47    1.02
   0  -4  11   46.74    0.91
   0   4 -11   47.57    0.97
   0   4 -11   46.43    0.89
   0   4  11   47.69    0.89
  -1  -4 -11    9.31    0.27
   1  -4  11    7.84    0.32
  -1  -4 -11    9.24    0.41
  -1   4 -11    8.76    0.35
   1   4  11    8.69    0.32
  -1   4 -11    8.78    0.38
   2  -4  11    0.38    0.10
  -2  -4 -11    0.21    0.10
  -2  -4 -11    0.32    0.08
  -2   4 -11    0.23    0.10
  -2   4 -11    0.19    0.10
   2   4  11    0.29    0.09
  -3  -4 -11    6.69    0.28
  -3  -4 -11    6.13    0.36
   3  -4  11    6.64    0.26
  -3   4 -11    6.17    0.34
   3   4  11    6.89    0.25
  -3   4 -11    5.86    0.31
  -4  -4 -11    0.01    0.09
  -4   4 -11   -0.03    0.08
  -4   4 -11    0.18    0.09
  -5  -4 -11    5.23    0.35
  -5   4 -11    4.92    0.33
  -5   4 -11    5.74    0.31
  -6  -4 -11    0.00    0.10
  -6   4 -11   -0.02    0.09
  -6   4 -11    0.08    0.09
  -7  -4 -11    0.69    0.18
  -7   4 -11    0.75    0.15
  -7   4 -11    0.60    0.16
  -8  -5  11    0.64    0.18
  -8   5  11    0.93    0.21
  -7  -5  11    2.57    0.28
  -7   5  11    2.97    0.32
  -6  -5  11    3.03    0.30
  -6   5  11    3.34    0.34
  -5  -5  11   -0.02    0.09
   5  -5 -11   -0.01    0.08
  -5   5  11    0.03    0.10
  -4  -5  11    6.78    0.36
   4  -5 -11    7.94    0.39
  -4   5  11    7.72    0.38
   3  -5 -11    5.56    0.34
   3  -5 -11    5.55    0.30
  -3  -5  11    5.66    0.31
   2  -5 -11    1.54    0.22
  -2  -5  11    2.04    0.22
   2  -5 -11    1.75    0.19
   2   5 -11    1.59    0.21
  -1  -5  11   10.13    0.39
   1  -5 -11   10.83    0.37
   1  -5 -11   10.02    0.44
   1   5 -11   10.18    0.43
   1   5 -11   10.34    0.36
   0  -5 -11    6.41    0.28
   0  -5  11    6.12    0.30
   0  -5 -11    5.62    0.34
   0   5 -11    5.84    0.34
   0   5 -11    5.70    0.28
   1  -5  11    3.71    0.24
  -1  -5 -11    3.36    0.28
  -1   5 -11    3.58    0.27
  -1   5 -11    3.86    0.24
  -2  -5 -11    3.87    0.20
   2  -5  11    3.92    0.23
  -2  -5 -11    3.65    0.31
   2   5  11    4.11    0.22
  -2   5 -11    2.96    0.28
  -2   5 -11    3.28    0.24
   3  -5  11    3.95    0.22
  -3  -5 -11    4.09    0.31
  -3   5 -11    4.12    0.26
   3   5  11    4.30    0.21
  -3   5 -11    4.10    0.30
  -4  -5 -11    0.36    0.13
  -4   5 -11    0.60    0.12
  -4   5 -11    0.39    0.13
  -5  -5 -11   13.30    0.53
  -5   5 -11   13.19    0.52
  -5   5 -11   12.92    0.44
  -6  -5 -11    2.45    0.30
  -6   5 -11    3.20    0.33
  -6   5 -11    3.28    0.27
  -7  -5 -11    0.18    0.12
  -7   5 -11    0.06    0.10
  -7   5 -11    0.08    0.09
  -7  -6  11    0.34    0.14
  -7   6  11    0.33    0.15
  -6  -6  11    0.34    0.13
  -6   6  11    0.27    0.13
   5  -6 -11    0.16    0.10
  -5  -6  11    0.18    0.10
   5  -6 -11    0.04    0.09
   4  -6 -11    2.18    0.24
  -4  -6  11    1.49    0.20
   4  -6 -11    1.65    0.21
   3  -6 -11    1.51    0.19
  -3  -6  11    1.37    0.19
   3  -6 -11    1.16    0.20
   2  -6 -11    5.22    0.29
   2  -6 -11    5.92    0.36
  -2  -6  11    5.56    0.31
   2   6 -11    5.78    0.36
   1  -6 -11    4.62    0.33
  -1  -6  11    5.33    0.30
   1  -6 -11    5.56    0.28
   1   6 -11    5.06    0.26
   1   6 -11    5.25    0.34
   0  -6 -11   15.59    0.44
   0  -6  11   15.81    0.49
   0  -6 -11   16.25    0.56
   0   6 -11   16.58    0.56
   0   6 -11   16.35    0.44
  -1  -6 -11    3.88    0.22
   1  -6  11    4.01    0.25
  -1  -6 -11    4.16    0.31
  -1   6 -11    4.37    0.24
  -1   6 -11    3.93    0.30
  -2  -6 -11   14.92    0.54
  -2  -6 -11   14.34    0.38
  -2  -6 -11   13.89    0.39
   2  -6  11   14.22    0.44
  -2   6 -11   15.49    0.44
  -2   6 -11   13.35    0.52
  -3  -6 -11    0.02    0.09
   3  -6  11    0.07    0.06
  -3   6 -11   -0.01    0.06
  -3   6 -11    0.05    0.10
   4  -6  11    1.12    0.15
  -4  -6 -11    1.11    0.19
  -4   6 -11    1.25    0.17
  -4   6 -11    0.90    0.19
  -5  -6 -11    0.19    0.12
  -5   6 -11    0.19    0.11
  -5   6 -11    0.17    0.09
  -6  -6 -11    4.32    0.35
  -6   6 -11    3.72    0.35
  -7   6 -11    0.68    0.18
  -7  -7  11    2.99    0.32
  -7   7  11    2.24    0.29
   6  -7 -11    9.29    0.43
  -6  -7  11    8.94    0.44
   5  -7 -11    0.75    0.16
  -5  -7  11    0.77    0.16
   5  -7 -11    0.85    0.17
  -4  -7  11    0.74    0.16
   4  -7 -11    0.51    0.13
   4  -7 -11    0.77    0.17
   3  -7 -11    3.94    0.26
  -3  -7  11    4.06    0.28
   3  -7 -11    3.78    0.31
   2  -7 -11    9.96    0.39
  -2  -7  11   10.15    0.42
   2  -7 -11   10.83    0.47
   2   7 -11   10.44    0.47
   1  -7 -11    2.60    0.21
  -1  -7  11    2.07    0.23
   1  -7 -11    2.65    0.27
   1   7 -11    2.57    0.29
   0  -7  11    2.51    0.25
   0  -7 -11    3.12    0.30
   0  -7 -11    2.53    0.21
   0   7 -11    2.48    0.20
   0   7 -11    2.48    0.29
  -1  -7 -11   12.00    0.48
  -1  -7 -11   11.70    0.38
   1  -7  11   11.10    0.41
  -1   7 -11   10.22    0.47
  -1   7 -11   11.52    0.36
  -2  -7 -11    2.47    0.19
  -2  -7 -11    1.97    0.23
   2  -7  11    2.40    0.23
  -2   7 -11    2.24    0.19
  -2   7 -11    2.17    0.26
  -3  -7 -11    0.68    0.11
   3  -7  11    0.65    0.12
  -3  -7 -11    0.59    0.15
  -3   7 -11    0.64    0.11
  -3   7 -11    0.53    0.16
   4  -7  11    0.17    0.07
  -4  -7 -11    0.00    0.09
  -4   7 -11    0.09    0.10
  -5  -7 -11   12.61    0.54
  -5   7 -11   11.64    0.52
  -6  -7 -11    3.25    0.33
  -6   7 -11    4.19    0.35
  -7  -8  11    0.73    0.18
  -6  -8  11   -0.11    0.08
   6  -8 -11    0.00    0.08
   5  -8 -11    1.42    0.20
   5  -8 -11    1.34    0.21
  -5  -8  11    1.51    0.22
   4  -8 -11    8.26    0.39
  -4  -8  11    8.29    0.41
   4  -8 -11    8.93    0.43
  -3  -8  11    0.10    0.10
   3  -8 -11    0.24    0.10
   3  -8 -11    0.18    0.11
  -2  -8  11    0.65    0.14
   2  -8 -11    0.50    0.14
   1  -8 -11   24.94    0.73
   1  -8 -11   25.30    0.63
  -1  -8  11   24.77    0.67
   1   8 -11   25.30    0.76
   0  -8  11   14.24    0.49
   0  -8 -11   14.78    0.55
   0  -8 -11   14.77    0.45
   0   8 -11   15.29    0.58
  -1  -8 -11    2.12    0.25
   1  -8  11    1.78    0.21
  -1  -8 -11    2.20    0.20
  -1   8 -11    2.06    0.28
  -1   8 -11    2.33    0.18
   2  -8  11    3.46    0.25
  -2  -8 -11    2.73    0.29
  -2  -8 -11    3.09    0.21
  -2   8 -11    2.85    0.32
  -3  -8 -11    0.13    0.11
  -3  -8 -11    0.19    0.08
   3  -8  11    0.20    0.09
  -3   8 -11    0.09    0.11
  -4  -8 -11    6.22    0.39
   4  -8  11    5.56    0.28
  -4   8 -11    5.30    0.38
  -5  -8 -11   17.44    0.64
  -5   8 -11   15.98    0.64
  -6  -8 -11    5.91    0.41
  -6   8 -11    6.12    0.42
  -6  -9  11    6.05    0.38
   6  -9 -11    5.42    0.35
   5  -9 -11    3.27    0.31
  -5  -9  11    3.01    0.31
   5  -9 -11    3.05    0.31
   4  -9 -11    1.52    0.23
  -4  -9  11    0.85    0.18
   4  -9 -11    1.19    0.19
   3  -9 -11    1.23    0.20
  -3  -9  11    1.40    0.22
   3  -9 -11    1.62    0.21
  -2  -9  11    1.70    0.22
   2  -9 -11    1.62    0.23
   2  -9 -11    1.65    0.20
  -1  -9  11    7.55    0.38
   1  -9 -11    7.09    0.42
   1  -9 -11    7.52    0.35
   1   9 -11    8.43    0.46
   0  -9 -11    0.93    0.15
   0  -9  11    1.07    0.17
   0  -9 -11    0.96    0.19
   0   9 -11    0.94    0.20
   1  -9  11    3.98    0.28
  -1  -9 -11    3.70    0.25
  -1  -9 -11    3.43    0.31
  -1   9 -11    3.16    0.34
   2  -9  11    9.10    0.39
  -2  -9 -11    8.31    0.44
  -2  -9 -11    8.66    0.33
  -2   9 -11    8.77    0.46
  -3  -9 -11    0.14    0.12
   3  -9  11    0.03    0.07
  -3  -9 -11    0.06    0.06
  -3   9 -11    0.05    0.11
  -4  -9 -11   -0.13    0.09
   4  -9  11    0.01    0.07
  -4   9 -11   -0.14    0.09
  -5  -9 -11    0.44    0.16
  -5   9 -11    0.34    0.16
   5 -10 -11    1.06    0.19
   5 -10 -11    1.04    0.18
  -5 -10  11    0.88    0.19
   4 -10 -11    0.03    0.09
  -4 -10  11    0.00    0.10
   4 -10 -11    0.09    0.09
   3 -10 -11    1.24    0.21
  -3 -10  11    1.47    0.22
   3 -10 -11    1.13    0.18
   2 -10 -11    3.58    0.35
  -2 -10  11    3.32    0.32
   2 -10 -11    3.21    0.26
  -1 -10  11    0.24    0.11
   1 -10 -11    0.15    0.12
   1 -10 -11    0.28    0.11
   1  10 -11    0.20    0.13
   0 -10 -11    4.26    0.35
   0 -10 -11    3.76    0.26
   0 -10  11    3.94    0.29
   0  10 -11    3.61    0.36
   1 -10  11    1.88    0.23
  -1 -10 -11    1.57    0.23
  -1 -10 -11    1.56    0.19
  -1  10 -11    1.55    0.26
  -2 -10 -11    0.52    0.12
  -2 -10 -11    0.73    0.17
   2 -10  11    0.84    0.16
  -2  10 -11    0.77    0.20
   3 -10  11    0.13    0.09
  -3 -10 -11    0.36    0.14
  -3  10 -11    0.07    0.13
   4 -10  11   -0.03    0.07
  -4 -10 -11   -0.01    0.10
  -4  10 -11   -0.09    0.10
   4 -11 -11    6.69    0.38
  -4 -11  11    6.77    0.39
   4 -11 -11    7.34    0.43
   3 -11 -11   -0.05    0.09
   3 -11 -11   -0.07    0.09
  -3 -11  11    0.01    0.09
   2 -11 -11   -0.08    0.09
  -2 -11  11    0.01    0.08
   2 -11 -11   -0.01    0.08
   1 -11 -11   18.54    0.57
  -1 -11  11   20.00    0.64
   1 -11 -11   19.17    0.67
   1  11 -11   19.36    0.72
   0 -11 -11    0.18    0.10
   0 -11 -11    0.40    0.14
   0 -11  11    0.23    0.11
   0  11 -11    0.34    0.15
  -1 -11 -11    1.68    0.20
   1 -11  11    1.40    0.21
  -1 -11 -11    1.72    0.25
  -1  11 -11    1.99    0.30
   2 -11  11    1.90    0.24
  -2 -11 -11    1.46    0.23
  -2 -11 -11    1.44    0.18
  -2  11 -11    1.31    0.25
  -3 -11 -11    0.53    0.17
   3 -11  11    0.37    0.12
  -3  11 -11    0.32    0.15
  -3 -12  11    1.72    0.25
  -2 -12  11    2.09    0.28
   2 -12 -11    1.91    0.26
   2 -12 -11    2.31    0.26
   1 -12 -11   14.88    0.60
  -1 -12  11   14.17    0.56
   1 -12 -11   13.25    0.50
   1  12 -11   13.92    0.64
   0 -12  11    6.11    0.37
   0 -12 -11    6.37    0.41
   0 -12 -11    5.98    0.34
   0  12 -11    5.31    0.43
   1 -12  11    2.42    0.27
  -1 -12 -11    2.67    0.32
  -1 -12 -11    2.51    0.25
  -1  12 -11    2.52    0.33
  -2  12 -11   -0.13    0.08
  -8   0  12    1.69    0.26
  -7   0  12    1.23    0.22
  -6   0  12    0.94    0.19
  -5   0  12   30.05    0.80
   4   0 -12   11.40    0.45
  -4   0  12   11.30    0.45
  -3   0  12   20.81    0.60
   3   0 -12   20.76    0.60
  -2   0  12    0.01    0.08
   2   0 -12    0.06    0.08
  -1   0  12    2.92    0.23
   1   0 -12    2.88    0.27
   1   0 -12    2.92    0.22
   0   0 -12   40.74    0.79
   0   0 -12   41.68    0.91
   0   0  12   40.87    0.82
   1   0  12   49.39    0.90
  -1   0 -12   47.61    1.00
  -1   0 -12   50.92    0.92
   2   0  12    1.44    0.15
  -2   0 -12    1.54    0.20
  -2   0 -12    1.81    0.19
  -3   0 -12   -0.03    0.08
  -3   0 -12    0.11    0.08
  -4   0 -12    7.09    0.37
  -5   0 -12    0.48    0.14
  -5   0 -12    0.31    0.12
  -6   0 -12    0.92    0.18
  -6   0 -12    0.51    0.15
  -7   0 -12    7.45    0.41
  -7   0 -12    7.63    0.43
  -8  -1  12    0.21    0.13
  -8   1  12    0.31    0.15
  -7  -1  12    3.14    0.32
  -7   1  12    3.53    0.36
  -6  -1  12    8.62    0.44
  -6   1  12    8.72    0.44
  -5  -1  12    9.93    0.46
  -5   1  12   11.00    0.47
   4  -1 -12    0.48    0.13
  -4  -1  12    0.46    0.14
  -4   1  12    0.55    0.15
  -3  -1  12    0.70    0.15
   3  -1 -12    0.82    0.15
  -3   1  12    0.98    0.17
   3   1 -12    0.91    0.16
  -2  -1  12    0.14    0.09
   2  -1 -12    0.09    0.08
  -2   1  12    0.30    0.11
   2   1 -12    0.18    0.10
   1  -1 -12    1.04    0.18
   1  -1 -12    1.17    0.14
  -1  -1  12    1.09    0.16
  -1   1  12    0.98    0.15
   1   1 -12    1.17    0.16
   1   1 -12    0.79    0.15
   0  -1 -12    0.13    0.07
   0  -1 -12    0.11    0.10
   0  -1  12    0.03    0.07
   0   1 -12    0.06    0.09
   0   1 -12   -0.09    0.07
   0   1  12    0.40    0.11
  -1  -1 -12   20.53    0.61
   1  -1  12   18.89    0.51
  -1  -1 -12   20.60    0.50
   1   1  12   19.63    0.50
  -1   1 -12   20.49    0.59
  -1   1 -12   20.72    0.55
   2  -1  12    9.93    0.33
  -2  -1 -12    9.87    0.43
  -2  -1 -12   10.61    0.36
  -2   1 -12   10.30    0.42
   2   1  12   10.04    0.33
  -2   1 -12    9.91    0.38
  -3  -1 -12    0.34    0.10
  -3  -1 -12    0.13    0.10
  -3   1 -12    0.17    0.10
  -3   1 -12    0.19    0.11
  -4  -1 -12    1.19    0.19
  -4  -1 -12    1.44    0.18
  -4   1 -12    1.43    0.19
  -4   1 -12    1.38    0.19
  -5  -1 -12    0.37    0.13
  -5  -1 -12    0.52    0.13
  -5   1 -12    0.47    0.13
  -5   1 -12    0.80    0.16
  -6  -1 -12   19.54    0.61
  -6  -1 -12   18.97    0.64
  -6   1 -12   19.44    0.62
  -6   1 -12   19.07    0.62
  -7  -1 -12    0.09    0.12
  -7  -1 -12    0.40    0.14
  -7   1 -12   -0.01    0.12
  -7   1 -12    0.16    0.13
  -8  -2  12    0.24    0.13
  -8   2  12    0.08    0.12
  -7  -2  12    0.38    0.15
  -7   2  12    0.38    0.15
  -6  -2  12    4.50    0.33
  -6   2  12    4.07    0.32
  -5  -2  12    1.89    0.24
  -5   2  12    2.11    0.26
  -4  -2  12    0.00    0.08
   4  -2 -12    0.11    0.09
  -4   2  12    0.06    0.10
  -3  -2  12   -0.03    0.07
   3  -2 -12   -0.02    0.07
   3   2 -12    0.06    0.08
  -3   2  12    0.01    0.08
  -2  -2  12   19.01    0.56
   2  -2 -12   19.70    0.60
   2   2 -12   19.56    0.57
  -2   2  12   19.35    0.57
  -1  -2  12    2.87    0.23
   1  -2 -12    3.60    0.28
  -1   2  12    2.43    0.23
   1   2 -12    2.81    0.25
   1   2 -12    3.13    0.26
   0  -2  12    1.65    0.19
   0  -2 -12    1.41    0.21
   0  -2 -12    1.50    0.14
   0   2 -12    1.31    0.18
   0   2 -12    1.58    0.20
   0   2  12    1.55    0.19
   1  -2  12    2.39    0.22
  -1  -2 -12    2.25    0.25
  -1  -2 -12    2.49    0.18
   1   2  12    2.51    0.21
  -1   2 -12    2.32    0.23
  -1   2 -12    1.82    0.21
  -2  -2 -12    0.05    0.08
  -2  -2 -12    0.09    0.07
   2  -2  12   -0.01    0.06
  -2   2 -12    0.13    0.09
   2   2  12    0.17    0.07
  -2   2 -12    0.12    0.09
  -3  -2 -12    3.64    0.29
   3  -2  12    3.50    0.20
  -3  -2 -12    3.80    0.24
  -3   2 -12    3.55    0.27
  -4  -2 -12    0.39    0.12
  -4  -2 -12    0.39    0.11
  -4   2 -12    0.43    0.12
  -4   2 -12    0.37    0.12
  -5  -2 -12    0.57    0.15
  -5  -2 -12    0.55    0.13
  -5   2 -12    0.32    0.12
  -5   2 -12    0.60    0.14
  -6  -2 -12    0.23    0.12
  -6  -2 -12    0.39    0.15
  -6   2 -12    0.33    0.12
  -6   2 -12    0.17    0.12
  -7  -2 -12    0.92    0.18
  -7  -2 -12    0.85    0.19
  -7   2 -12    0.91    0.18
  -7   2 -12    0.92    0.19
  -8  -3  12    0.72    0.18
  -8   3  12    0.68    0.18
  -7  -3  12    2.71    0.30
  -7   3  12    2.29    0.30
  -6  -3  12    3.28    0.32
  -6   3  12    3.70    0.36
  -5  -3  12    3.59    0.29
   5  -3 -12    4.51    0.32
  -5   3  12    4.53    0.32
   4  -3 -12    0.55    0.13
  -4  -3  12    0.63    0.14
  -4   3  12    0.68    0.16
  -3  -3  12   10.55    0.43
   3  -3 -12   11.98    0.47
  -3   3  12   11.54    0.45
   3   3 -12   11.13    0.43
   2  -3 -12    0.27    0.12
  -2  -3  12    0.59    0.14
   2   3 -12    0.63    0.13
  -2   3  12    0.50    0.13
  -1  -3  12    9.69    0.39
   1  -3 -12    9.43    0.43
  -1   3  12    9.79    0.39
   1   3 -12   10.07    0.40
   1   3 -12    9.76    0.39
   0  -3  12    0.03    0.07
   0  -3 -12    0.20    0.10
   0   3  12    0.18    0.09
   0   3 -12    0.09    0.09
   0   3 -12    0.44    0.12
  -1  -3 -12    7.16    0.26
   1  -3  12    6.40    0.30
  -1  -3 -12    6.68    0.37
  -1   3 -12    7.01    0.34
   1   3  12    6.72    0.29
  -1   3 -12    6.82    0.34
  -2  -3 -12   16.55    0.43
   2  -3  12   14.99    0.43
  -2  -3 -12   15.46    0.54
  -2   3 -12   14.96    0.50
  -2   3 -12   15.02    0.49
   2   3  12   15.20    0.41
  -3  -3 -12    7.87    0.40
  -3  -3 -12    8.01    0.31
   3  -3  12    6.83    0.27
  -3   3 -12    7.00    0.35
  -3   3 -12    7.44    0.36
  -4  -3 -12    3.78    0.31
  -4  -3 -12    3.79    0.25
  -4   3 -12    3.82    0.28
  -4   3 -12    4.37    0.30
  -5  -3 -12   -0.05    0.08
  -5  -3 -12    0.01    0.09
  -5   3 -12    0.18    0.10
  -5   3 -12    0.12    0.09
  -6  -3 -12   22.71    0.64
  -6  -3 -12   22.08    0.71
  -6   3 -12   22.00    0.64
  -6   3 -12   22.36    0.69
  -7   3 -12    1.20    0.22
  -7  -4  12    0.47    0.16
  -7   4  12    0.73    0.18
  -6  -4  12    2.37    0.28
  -6   4  12    2.74    0.30
   5  -4 -12    2.85    0.30
  -5  -4  12    3.07    0.30
  -5   4  12    3.30    0.32
  -4  -4  12    5.22    0.33
   4  -4 -12    5.93    0.35
  -4   4  12    5.71    0.34
   3  -4 -12    3.48    0.29
  -3  -4  12    3.71    0.27
  -3   4  12    3.59    0.28
  -2  -4  12    1.05    0.18
   2  -4 -12    1.04    0.18
  -2   4  12    1.17    0.18
   2   4 -12    1.17    0.17
   1  -4 -12   10.19    0.46
  -1  -4  12   11.12    0.42
   1   4 -12   12.00    0.42
   1   4 -12   11.83    0.45
  -1   4  12   10.85    0.40
   0  -4 -12   24.43    0.70
   0  -4  12   24.66    0.63
   0   4 -12   25.27    0.63
   0   4  12   24.06    0.60
   0   4 -12   24.26    0.67
  -1  -4 -12    9.49    0.43
   1  -4  12    9.10    0.36
  -1   4 -12    8.89    0.37
  -1   4 -12    9.02    0.40
   1   4  12    8.67    0.33
  -2  -4 -12    2.70    0.27
  -2  -4 -12    3.24    0.20
   2  -4  12    2.85    0.21
  -2   4 -12    2.90    0.25
   2   4  12    3.31    0.21
  -2   4 -12    3.02    0.28
  -3  -4 -12    0.14    0.10
   3  -4  12    0.42    0.10
  -3  -4 -12    0.24    0.09
  -3   4 -12    0.37    0.11
  -3   4 -12    0.38    0.13
  -4  -4 -12    1.01    0.18
  -4  -4 -12    1.18    0.16
  -4   4 -12    1.13    0.20
  -4   4 -12    1.22    0.18
  -5  -4 -12    0.33    0.12
  -5  -4 -12    0.40    0.14
  -5   4 -12    0.36    0.14
  -5   4 -12    0.34    0.11
  -6  -4 -12    4.93    0.38
  -6   4 -12    4.67    0.35
  -6   4 -12    4.89    0.32
  -7  -5  12    0.01    0.10
  -7   5  12    0.12    0.13
  -6  -5  12    0.41    0.14
  -6   5  12    0.60    0.18
  -5  -5  12    5.02    0.34
   5  -5 -12    6.04    0.38
  -5   5  12    5.44    0.35
   4  -5 -12   21.85    0.67
  -4  -5  12   22.69    0.67
  -4   5  12   22.60    0.67
  -3  -5  12    0.79    0.16
   3  -5 -12    0.62    0.15
  -3   5  12    0.83    0.17
   2  -5 -12    0.00    0.08
  -2  -5  12   -0.04    0.07
   2   5 -12   -0.01    0.08
  -2   5  12    0.01    0.08
  -1  -5  12    3.53    0.26
   1  -5 -12    3.60    0.33
  -1   5  12    2.76    0.25
   1   5 -12    3.43    0.31
   1   5 -12    3.51    0.25
   0  -5 -12    1.78    0.23
   0  -5  12    1.66    0.21
   0   5 -12    1.66    0.22
   0   5 -12    1.48    0.18
   0   5  12    1.65    0.19
  -1  -5 -12    3.10    0.29
   1  -5  12    3.45    0.24
  -1   5 -12    3.17    0.24
   1   5  12    3.12    0.22
  -1   5 -12    3.32    0.30
   2  -5  12    0.92    0.14
  -2  -5 -12    0.84    0.16
  -2   5 -12    1.07    0.16
  -2   5 -12    1.22    0.20
   2   5  12    0.98    0.14
  -3  -5 -12    6.92    0.39
   3  -5  12    6.23    0.28
  -3  -5 -12    6.59    0.28
  -3   5 -12    7.02    0.33
  -3   5 -12    6.40    0.37
  -4  -5 -12    7.99    0.42
  -4  -5 -12    7.62    0.33
  -4   5 -12    7.42    0.36
  -4   5 -12    8.23    0.41
  -5  -5 -12    9.46    0.47
  -5   5 -12    9.96    0.41
  -5   5 -12    9.11    0.45
  -6  -5 -12   -0.13    0.09
  -6   5 -12   -0.04    0.10
  -6   5 -12    0.06    0.09
  -7  -6  12    0.09    0.12
  -7   6  12    0.12    0.13
  -6  -6  12    8.26    0.43
  -6   6  12    8.22    0.45
   5  -6 -12    0.91    0.18
  -5  -6  12    0.35    0.13
  -5   6  12    0.66    0.17
   4  -6 -12    0.01    0.09
  -4  -6  12    0.00    0.09
  -4   6  12    0.07    0.10
   3  -6 -12    0.08    0.10
   3  -6 -12   -0.04    0.07
  -3  -6  12    0.11    0.10
   2  -6 -12   32.86    0.76
   2  -6 -12   33.89    0.86
  -2  -6  12   33.45    0.81
   1  -6 -12   11.81    0.49
  -1  -6  12   12.02    0.45
   1  -6 -12   11.53    0.41
   1   6 -12   12.25    0.41
   1   6 -12   10.81    0.47
   0  -6 -12    4.49    0.26
   0  -6  12    4.31    0.28
   0  -6 -12    4.88    0.34
   0   6 -12    4.29    0.26
  -1  -6 -12    1.14    0.19
   1  -6  12    0.97    0.16
  -1   6 -12    0.88    0.18
  -1   6 -12    1.16    0.15
  -2  -6 -12    3.51    0.33
   2  -6  12    3.74    0.24
  -2   6 -12    3.76    0.25
   2   6  12    3.81    0.23
  -2   6 -12    4.00    0.31
   3  -6  12   16.03    0.47
  -3  -6 -12   16.34    0.59
  -3   6 -12   15.64    0.58
  -3   6 -12   15.60    0.48
  -4  -6 -12   -0.07    0.09
  -4   6 -12   -0.05    0.09
  -4   6 -12    0.02    0.07
  -5  -6 -12    0.79    0.19
  -5   6 -12    0.99    0.21
  -5   6 -12    1.08    0.17
  -6  -6 -12   -0.03    0.11
  -6   6 -12    0.20    0.12
  -6  -7  12    3.91    0.37
  -6   7  12    4.36    0.35
   5  -7 -12    2.89    0.29
   5  -7 -12    3.34    0.34
  -5  -7  12    2.67    0.29
   4  -7 -12    0.40    0.12
  -4  -7  12    0.26    0.12
   4  -7 -12    0.38    0.13
   3  -7 -12   20.88    0.61
   3  -7 -12   20.68    0.66
  -3  -7  12   20.20    0.63
   2  -7 -12    0.04    0.08
  -2  -7  12    0.02    0.09
   2  -7 -12    0.00    0.09
   1  -7 -12    1.14    0.20
   1  -7 -12    0.70    0.14
  -1  -7  12    0.73    0.16
   1   7 -12    0.86    0.17
   0  -7  12    3.75    0.27
   0  -7 -12    3.81    0.25
   0  -7 -12    3.91    0.32
   0   7 -12    4.08    0.25
   0   7 -12    3.97    0.36
  -1  -7 -12    3.19    0.32
  -1  -7 -12    3.39    0.23
   1  -7  12    3.11    0.28
  -1   7 -12    3.35    0.33
  -1   7 -12    3.13    0.22
  -2  -7 -12    0.31    0.09
  -2  -7 -12    0.23    0.12
   2  -7  12    0.33    0.11
  -2   7 -12    0.34    0.14
  -2   7 -12    0.06    0.08
   3  -7  12   -0.08    0.06
  -3  -7 -12    0.02    0.09
  -3   7 -12    0.10    0.11
  -3   7 -12   -0.04    0.06
  -4  -7 -12    2.18    0.27
  -4   7 -12    2.37    0.29
  -5  -7 -12    0.47    0.16
  -5   7 -12    0.39    0.15
  -6  -8  12    7.24    0.42
   5  -8 -12    1.67    0.23
  -5  -8  12    1.38    0.22
   5  -8 -12    1.45    0.22
  -4  -8  12    1.11    0.20
   4  -8 -12    1.09    0.18
   4  -8 -12    0.99    0.20
  -3  -8  12    0.23    0.11
   3  -8 -12    0.24    0.10
   3  -8 -12    0.18    0.11
   2  -8 -12   11.04    0.42
  -2  -8  12   10.76    0.46
   2  -8 -12   10.34    0.49
  -1  -8  12    4.00    0.29
   1  -8 -12    4.02    0.34
   1  -8 -12    3.96    0.27
   1   8 -12    4.50    0.36
   0  -8 -12    0.71    0.13
   0  -8 -12    0.56    0.16
   0  -8  12    1.03    0.18
   0   8 -12    0.27    0.14
   1  -8  12   -0.02    0.07
  -1  -8 -12    0.11    0.11
  -1  -8 -12   -0.03    0.07
  -1   8 -12    0.00    0.09
  -1   8 -12    0.05    0.06
   2  -8  12    0.30    0.11
  -2  -8 -12    0.28    0.13
  -2  -8 -12    0.19    0.08
  -2   8 -12    0.17    0.13
  -3  -8 -12    0.02    0.10
   3  -8  12    0.05    0.08
  -3   8 -12    0.09    0.11
  -4  -8 -12    2.26    0.29
  -4   8 -12    2.59    0.32
  -5  -8 -12    0.27    0.15
  -5   8 -12    0.20    0.14
   5  -9 -12    0.89    0.18
   5  -9 -12    1.00    0.20
  -5  -9  12    0.68    0.18
  -4  -9  12    2.53    0.29
   4  -9 -12    3.42    0.28
   4  -9 -12    2.98    0.32
   3  -9 -12    5.71    0.34
   3  -9 -12    5.87    0.39
  -3  -9  12    6.13    0.37
  -2  -9  12    3.04    0.31
   2  -9 -12    3.04    0.31
   1  -9 -12    1.88    0.25
   1  -9 -12    1.76    0.21
  -1  -9  12    1.39    0.21
   1   9 -12    2.25    0.30
   0  -9 -12    1.81    0.25
   0  -9 -12    1.61    0.19
   0  -9  12    1.59    0.21
   0   9 -12    1.60    0.26
  -1  -9 -12    0.94    0.15
   1  -9  12    0.85    0.17
  -1  -9 -12    1.04    0.20
  -1   9 -12    1.04    0.23
   2  -9  12    3.91    0.29
  -2  -9 -12    4.18    0.25
  -2  -9 -12    4.59    0.35
  -2   9 -12    4.37    0.41
   3  -9  12    0.32    0.12
  -3  -9 -12    0.32    0.15
  -3   9 -12    0.24    0.13
  -4  -9 -12   10.22    0.51
  -4   9 -12   10.19    0.53
   4 -10 -12    0.78    0.18
   4 -10 -12    0.95    0.18
  -4 -10  12    1.07    0.21
  -3 -10  12    4.38    0.33
   3 -10 -12    4.54    0.31
   3 -10 -12    4.00    0.37
   2 -10 -12    6.86    0.37
  -2 -10  12    7.06    0.40
   2 -10 -12    6.83    0.43
   1 -10 -12    6.94    0.43
   1 -10 -12    6.92    0.36
  -1 -10  12    6.59    0.38
   1  10 -12    6.47    0.44
   0 -10 -12    9.62    0.49
   0 -10 -12    9.30    0.39
   0 -10  12    9.55    0.44
   0  10 -12    8.67    0.50
   1 -10  12    6.09    0.36
  -1 -10 -12    5.51    0.31
  -1 -10 -12    5.76    0.40
  -1  10 -12    5.14    0.40
  -2 -10 -12    5.92    0.31
  -2 -10 -12    6.32    0.41
   2 -10  12    6.28    0.35
  -2  10 -12    6.33    0.43
   3 -10  12   12.61    0.48
  -3 -10 -12   12.56    0.56
  -3  10 -12   11.80    0.58
   2 -11 -12   -0.07    0.09
  -2 -11  12   -0.05    0.09
   2 -11 -12    0.07    0.10
  -1 -11  12    1.10    0.20
   1 -11 -12    0.88    0.17
   1 -11 -12    1.24    0.22
   1  11 -12    1.33    0.26
   0 -11  12    1.49    0.22
   0 -11 -12    1.84    0.26
   0 -11 -12    1.77    0.21
   0  11 -12    1.62    0.26
  -1 -11 -12    0.53    0.17
  -1 -11 -12    0.45    0.13
  -1  11 -12    0.31    0.15
  -7   0  13   -0.05    0.10
  -6   0  13   -0.05    0.09
  -5   0  13    0.10    0.10
   4   0 -13    0.03    0.08
  -4   0  13    0.06    0.10
  -3   0  13   -0.01    0.08
   3   0 -13   -0.03    0.08
  -2   0  13    0.04    0.08
   2   0 -13    0.07    0.09
   1   0 -13    0.16    0.10
   1   0 -13    0.04    0.07
  -1   0  13   -0.03    0.08
   0   0 -13   -0.02    0.08
   0   0 -13    0.06    0.08
   0   0  13    0.07    0.08
  -1   0 -13    0.03    0.08
   1   0  13    0.00    0.07
  -1   0 -13    0.02    0.07
   2   0  13   -0.01    0.07
  -2   0 -13    0.05    0.09
  -2   0 -13   -0.06    0.06
  -3   0 -13    0.03    0.08
  -3   0 -13    0.06    0.10
  -4   0 -13    0.03    0.09
  -4   0 -13    0.05    0.09
  -5   0 -13   -0.04    0.08
  -5   0 -13    0.08    0.10
  -6   0 -13    0.07    0.12
  -6   0 -13   -0.06    0.09
  -7  -1  13    5.95    0.39
  -7   1  13    6.56    0.41
  -6  -1  13    0.14    0.12
  -6   1  13    0.20    0.13
  -5  -1  13    3.15    0.31
  -5   1  13    3.83    0.31
  -4  -1  13    1.02    0.18
   4  -1 -13    1.00    0.18
  -4   1  13    0.85    0.18
  -3  -1  13   12.00    0.46
   3  -1 -13   11.17    0.47
  -3   1  13   11.60    0.46
   3   1 -13   11.03    0.45
  -2  -1  13    2.79    0.27
   2  -1 -13    2.56    0.27
   2   1 -13    2.93    0.27
  -2   1  13    3.17    0.25
  -1  -1  13    3.65    0.26
   1  -1 -13    3.84    0.30
   1   1 -13    3.88    0.29
  -1   1  13    3.46    0.27
   1   1 -13    3.63    0.25
   0  -1 -13   14.35    0.42
   0  -1  13   14.39    0.47
   0  -1 -13   13.72    0.51
   0   1 -13   15.72    0.47
   0   1 -13   14.06    0.51
   0   1  13   14.40    0.46
   1  -1  13    6.07    0.29
  -1  -1 -13    6.17    0.36
  -1  -1 -13    6.37    0.29
  -1   1 -13    7.00    0.32
  -1   1 -13    6.44    0.35
   1   1  13    6.23    0.29
  -2  -1 -13    0.58    0.15
  -2  -1 -13    0.22    0.09
   2  -1  13    0.52    0.11
   2   1  13    0.48    0.11
  -2   1 -13    0.62    0.14
  -2   1 -13    0.47    0.12
  -3  -1 -13    0.13    0.11
  -3  -1 -13    0.08    0.08
  -3   1 -13    0.13    0.10
  -3   1 -13    0.18    0.10
  -4  -1 -13   15.42    0.50
  -4  -1 -13   14.60    0.55
  -4   1 -13   15.66    0.53
  -4   1 -13   15.96    0.55
  -5  -1 -13    3.01    0.28
  -5  -1 -13    2.77    0.30
  -5   1 -13    3.23    0.30
  -5   1 -13    2.92    0.29
  -6  -1 -13    1.35    0.21
  -6  -1 -13    1.50    0.24
  -6   1 -13    1.47    0.22
  -6   1 -13    0.98    0.19
  -7  -2  13    1.29    0.24
  -7   2  13    1.67    0.25
  -6  -2  13    1.11    0.21
  -6   2  13    1.22    0.22
  -5  -2  13    6.55    0.38
  -5   2  13    6.82    0.39
   4  -2 -13    1.07    0.19
  -4  -2  13    0.91    0.17
  -4   2  13    0.62    0.16
   3  -2 -13    3.26    0.31
  -3  -2  13    4.03    0.29
   3   2 -13    4.17    0.30
  -3   2  13    3.79    0.28
   2  -2 -13    3.17    0.30
  -2  -2  13    4.25    0.29
   2   2 -13    3.66    0.29
  -2   2  13    3.29    0.26
   1  -2 -13   51.69    1.10
  -1  -2  13   53.02    1.03
   1   2 -13   53.16    1.01
   1   2 -13   51.38    1.05
  -1   2  13   51.97    1.02
   0  -2  13   13.34    0.45
   0  -2 -13   13.59    0.52
   0   2 -13   12.27    0.47
   0   2  13   12.57    0.43
   0   2 -13   12.98    0.46
  -1  -2 -13    4.17    0.23
   1  -2  13    4.07    0.26
  -1  -2 -13    4.98    0.34
   1   2  13    3.87    0.24
  -1   2 -13    3.85    0.28
  -1   2 -13    3.78    0.26
  -2  -2 -13   -0.06    0.06
  -2  -2 -13    0.03    0.09
   2  -2  13   -0.02    0.06
  -2   2 -13   -0.02    0.08
   2   2  13    0.00    0.06
  -2   2 -13   -0.01    0.07
  -3  -2 -13    0.53    0.12
  -3  -2 -13    0.49    0.14
  -3   2 -13    0.60    0.15
  -3   2 -13    0.61    0.15
  -4  -2 -13    9.69    0.39
  -4  -2 -13    8.93    0.44
  -4   2 -13    9.57    0.43
  -4   2 -13    9.78    0.43
  -5  -2 -13    0.94    0.19
  -5  -2 -13    0.70    0.16
  -5   2 -13    0.82    0.17
  -5   2 -13    0.87    0.17
  -6  -2 -13    1.70    0.23
  -6  -2 -13    1.50    0.24
  -6   2 -13    1.25    0.20
  -6   2 -13    1.46    0.22
  -7  -3  13    4.39    0.35
  -7   3  13    4.76    0.37
  -6  -3  13    6.14    0.38
  -6   3  13    4.88    0.37
  -5  -3  13    1.75    0.24
   5  -3 -13    1.21    0.21
  -5   3  13    1.66    0.24
   4  -3 -13    1.19    0.19
  -4  -3  13    1.71    0.23
  -4   3  13    1.55    0.24
   3  -3 -13    0.11    0.10
  -3  -3  13   -0.06    0.07
   3   3 -13   -0.01    0.07
  -3   3  13    0.05    0.09
   2  -3 -13    0.03    0.09
  -2  -3  13    0.10    0.10
  -2   3  13    0.12    0.10
   2   3 -13   -0.04    0.08
   1  -3 -13    0.30    0.12
  -1  -3  13    0.06    0.10
   1   3 -13    0.21    0.10
   1   3 -13    0.16    0.09
  -1   3  13    0.19    0.11
   0  -3  13    0.29    0.11
   0  -3 -13    0.16    0.11
   0   3  13    0.35    0.11
   0   3 -13    0.20    0.09
   0   3 -13    0.30    0.12
  -1  -3 -13    3.71    0.31
   1  -3  13    3.04    0.24
  -1   3 -13    3.59    0.27
   1   3  13    3.51    0.23
  -1   3 -13    3.72    0.28
  -2  -3 -13    3.38    0.22
  -2  -3 -13    3.24    0.31
   2  -3  13    3.20    0.22
  -2   3 -13    3.13    0.29
   2   3  13    3.62    0.22
  -2   3 -13    3.51    0.28
  -3  -3 -13    9.78    0.46
  -3  -3 -13   10.55    0.37
  -3   3 -13   10.52    0.44
  -3   3 -13   10.38    0.43
  -4  -3 -13    0.60    0.17
  -4  -3 -13    0.85    0.15
  -4   3 -13    0.55    0.15
  -4   3 -13    0.69    0.17
  -5  -3 -13    5.22    0.32
  -5  -3 -13    5.49    0.38
  -5   3 -13    5.04    0.34
  -5   3 -13    5.45    0.36
  -6  -3 -13    1.83    0.23
  -6  -3 -13    1.76    0.26
  -6   3 -13    1.57    0.23
  -6   3 -13    1.98    0.27
  -6  -4  13    0.49    0.16
  -6   4  13    0.51    0.17
  -5  -4  13    0.61    0.16
   5  -4 -13    0.07    0.10
  -5   4  13    0.09    0.11
   4  -4 -13   15.71    0.57
  -4  -4  13   15.03    0.55
  -4   4  13   15.73    0.57
  -3  -4  13    2.19    0.26
   3  -4 -13    2.07    0.25
  -3   4  13    1.84    0.24
   2  -4 -13    0.98    0.18
  -2  -4  13    0.94    0.17
   2   4 -13    1.24    0.18
  -2   4  13    1.24    0.19
   1  -4 -13    7.10    0.40
  -1  -4  13    7.14    0.35
  -1   4  13    7.24    0.34
   1   4 -13    7.32    0.38
   1   4 -13    6.91    0.35
   0  -4 -13    0.39    0.13
   0  -4  13    0.33    0.12
   0   4 -13    0.24    0.10
   0   4 -13    0.33    0.12
   0   4  13    0.37    0.11
   1  -4  13    6.59    0.32
  -1  -4 -13    6.31    0.38
  -1   4 -13    6.45    0.34
   1   4  13    6.53    0.31
  -1   4 -13    6.30    0.36
  -2  -4 -13    5.40    0.36
   2  -4  13    5.10    0.28
   2   4  13    5.19    0.26
  -2   4 -13    5.48    0.34
  -2   4 -13    5.55    0.32
  -3  -4 -13    1.55    0.22
  -3  -4 -13    1.83    0.20
  -3   4 -13    1.92    0.24
  -3   4 -13    1.91    0.22
  -4  -4 -13    0.27    0.13
  -4  -4 -13    0.18    0.09
  -4   4 -13    0.18    0.11
  -4   4 -13    0.24    0.11
  -5  -4 -13    1.09    0.21
  -5  -4 -13    1.23    0.19
  -5   4 -13    0.79    0.18
  -5   4 -13    1.03    0.18
  -6  -5  13    0.16    0.12
  -6   5  13    0.27    0.13
   5  -5 -13    8.90    0.46
  -5  -5  13    9.80    0.46
  -5   5  13    9.45    0.46
  -4  -5  13    0.00    0.09
   4  -5 -13    0.08    0.10
  -4   5  13    0.09    0.11
   3  -5 -13    0.52    0.15
  -3  -5  13    0.61    0.16
  -3   5  13    1.01    0.18
   2  -5 -13    8.49    0.44
  -2  -5  13    9.14    0.41
  -2   5  13    8.61    0.40
  -1  -5  13    0.67    0.15
   1  -5 -13    0.44    0.15
  -1   5  13    0.74    0.15
   1   5 -13    0.88    0.18
   1   5 -13    0.55    0.12
   0  -5 -13    7.76    0.42
   0  -5  13    7.39    0.36
   0   5 -13    8.17    0.41
   0   5  13    7.52    0.34
   0   5 -13    7.92    0.36
  -1  -5 -13    0.94    0.18
   1  -5  13    1.05    0.17
   1   5  13    0.73    0.13
  -1   5 -13    1.05    0.20
  -1   5 -13    0.67    0.14
   2  -5  13    3.99    0.26
  -2  -5 -13    4.67    0.35
   2   5  13    4.08    0.25
  -2   5 -13    3.76    0.31
  -2   5 -13    4.22    0.28
  -3  -5 -13    1.33    0.22
  -3   5 -13    1.70    0.23
  -3   5 -13    1.49    0.20
  -4  -5 -13    3.89    0.36
  -4   5 -13    3.52    0.34
  -4   5 -13    3.83    0.29
  -5  -5 -13    4.55    0.37
  -5  -5 -13    3.65    0.27
  -5   5 -13    4.30    0.38
  -5   5 -13    3.68    0.29
  -6  -6  13    0.29    0.14
  -6   6  13    0.46    0.17
   5  -6 -13    0.52    0.15
  -5  -6  13    0.38    0.14
  -5   6  13    0.50    0.16
  -4  -6  13    2.39    0.28
   4  -6 -13    2.42    0.29
  -4   6  13    2.80    0.30
   3  -6 -13    8.80    0.45
  -3  -6  13    8.44    0.42
  -3   6  13    7.88    0.40
  -2  -6  13    2.68    0.28
   2  -6 -13    2.96    0.30
  -2   6  13    2.89    0.29
   1  -6 -13    1.40    0.22
  -1  -6  13    1.50    0.21
   1   6 -13    1.91    0.26
  -1   6  13    1.64    0.21
   1   6 -13    1.82    0.20
   0  -6  13    5.78    0.33
   0  -6 -13    5.76    0.38
   0   6 -13    6.10    0.31
   0   6 -13    5.97    0.38
   0   6  13    5.22    0.30
  -1  -6 -13    3.50    0.34
   1  -6  13    3.73    0.27
   1   6  13    3.56    0.25
  -1   6 -13    3.55    0.33
  -1   6 -13    3.26    0.26
   2  -6  13    4.89    0.29
  -2  -6 -13    5.84    0.38
  -2   6 -13    4.72    0.34
  -2   6 -13    5.19    0.30
  -3  -6 -13    1.82    0.25
  -3   6 -13    1.56    0.24
  -3   6 -13    1.62    0.20
  -4  -6 -13    3.39    0.35
  -4   6 -13    3.14    0.27
  -4   6 -13    2.85    0.32
  -5  -6 -13    6.17    0.42
  -5   6 -13    6.61    0.42
  -5  -7  13    0.73    0.19
   5  -7 -13    0.57    0.16
  -5   7  13    0.80    0.19
  -4  -7  13    2.75    0.30
   4  -7 -13    2.09    0.27
  -4   7  13    2.39    0.29
   3  -7 -13    0.12    0.11
  -3  -7  13    0.05    0.10
   3  -7 -13    0.19    0.10
   2  -7 -13    1.12    0.17
  -2  -7  13    1.19    0.20
   2  -7 -13    1.21    0.22
   1  -7 -13    0.17    0.09
   1  -7 -13    0.10    0.10
  -1  -7  13    0.15    0.10
   1   7 -13    0.18    0.12
   0  -7  13    0.39    0.13
   0  -7 -13    0.23    0.12
   0  -7 -13    0.28    0.10
   0   7 -13    0.13    0.09
   0   7 -13    0.04    0.11
  -1  -7 -13    3.34    0.33
   1  -7  13    3.46    0.27
  -1   7 -13    3.13    0.25
  -1   7 -13    3.28    0.34
   1   7  13    3.61    0.26
   2  -7  13   14.59    0.50
  -2  -7 -13   14.78    0.58
  -2   7 -13   14.72    0.46
  -2   7 -13   14.44    0.59
  -3  -7 -13   16.67    0.63
  -3   7 -13   16.04    0.63
  -4  -7 -13    1.46    0.24
  -4   7 -13    1.15    0.23
   4  -8 -13   10.82    0.52
  -4  -8  13   10.25    0.49
   4  -8 -13   10.81    0.47
  -3  -8  13    6.84    0.40
   3  -8 -13    8.46    0.46
   3  -8 -13    8.21    0.40
   2  -8 -13    0.08    0.09
  -2  -8  13   -0.09    0.08
   2  -8 -13    0.13    0.11
   1  -8 -13    1.14    0.21
   1  -8 -13    1.11    0.17
  -1  -8  13    1.01    0.19
   1   8 -13    0.86    0.19
   0  -8  13    7.76    0.40
   0  -8 -13    7.11    0.35
   0  -8 -13    7.71    0.45
   0   8 -13    6.71    0.44
   1  -8  13   26.97    0.73
  -1  -8 -13   27.33    0.82
  -1  -8 -13   26.59    0.65
  -1   8 -13   26.37    0.82
   2  -8  13    0.07    0.09
  -2  -8 -13    0.13    0.11
  -2   8 -13   -0.04    0.10
   3  -8  13    1.71    0.22
  -3  -8 -13    1.53    0.25
  -3   8 -13    1.66    0.27
   3  -9 -13    3.72    0.37
   3  -9 -13    3.81    0.33
  -3  -9  13    4.10    0.33
  -2  -9  13    7.66    0.41
   2  -9 -13    8.12    0.46
   2  -9 -13    7.99    0.39
   1  -9 -13    0.30    0.13
   1  -9 -13    0.27    0.11
  -1  -9  13    0.31    0.14
   1   9 -13    0.01    0.12
   0  -9 -13    1.25    0.23
   0  -9 -13    1.03    0.17
   0  -9  13    1.41    0.22
   0   9 -13    1.30    0.24
   1  -9  13   -0.04    0.08
  -1  -9 -13    0.12    0.13
  -1  -9 -13    0.16    0.08
  -1   9 -13    0.00    0.10
   2  -9  13    5.44    0.34
  -2  -9 -13    5.61    0.40
  -2   9 -13    5.36    0.40
  -2 -10  13    0.89    0.20
   1 -10 -13    0.13    0.13
  -1 -10  13    0.48    0.15
   1 -10 -13    0.03    0.09
   1  10 -13   -0.12    0.10
   0 -10 -13    0.18    0.11
   0 -10  13    0.26    0.13
   0 -10 -13    0.24    0.13
   0  10 -13    0.43    0.17
  -1  10 -13    0.35    0.17
  -6   0  14    4.94    0.37
  -5   0  14    0.39    0.15
   4   0 -14    5.61    0.37
  -4   0  14    5.43    0.35
   3   0 -14   38.47    0.93
  -3   0  14   39.25    0.92
   2   0 -14   21.17    0.66
  -2   0  14   22.06    0.64
  -1   0  14    1.76    0.21
   1   0 -14    1.60    0.22
   0   0 -14    2.06    0.20
   0   0 -14    1.73    0.22
   0   0  14    2.19    0.23
  -1   0 -14    3.59    0.30
  -1   0 -14    4.16    0.26
   1   0  14    4.11    0.26
  -2   0 -14   10.59    0.47
  -2   0 -14   10.01    0.40
  -3   0 -14    0.81    0.15
  -3   0 -14    1.00    0.19
  -4   0 -14    0.13    0.11
  -4   0 -14    0.15    0.11
  -5   0 -14    0.23    0.12
  -5   0 -14    0.17    0.13
  -6  -1  14    0.02    0.11
  -6   1  14    0.08    0.11
  -5  -1  14    6.43    0.39
  -5   1  14    5.92    0.38
  -4  -1  14    0.20    0.12
   4  -1 -14    0.24    0.12
  -4   1  14    0.18    0.12
   3  -1 -14    0.09    0.10
  -3  -1  14   -0.07    0.10
  -3   1  14    0.06    0.10
   3   1 -14    0.01    0.09
   2  -1 -14    0.58    0.15
  -2  -1  14    0.33    0.12
  -2   1  14    0.33    0.13
   2   1 -14    0.58    0.15
   1  -1 -14    3.75    0.31
  -1  -1  14    3.85    0.27
   1   1 -14    3.99    0.27
   1   1 -14    3.34    0.30
  -1   1  14    3.74    0.27
   0  -1 -14    0.00    0.08
   0  -1  14    0.03    0.08
   0   1 -14    0.12    0.10
   0   1 -14   -0.13    0.06
   0   1  14    0.00    0.08
  -1  -1 -14    1.61    0.23
   1  -1  14    1.51    0.19
  -1   1 -14    1.62    0.21
  -1   1 -14    1.24    0.20
   1   1  14    1.33    0.18
  -2  -1 -14    5.64    0.37
  -2  -1 -14    5.57    0.30
  -2   1 -14    6.17    0.34
  -2   1 -14    5.99    0.37
  -3  -1 -14    8.18    0.37
  -3  -1 -14    8.58    0.44
  -3   1 -14    7.69    0.38
  -3   1 -14    8.09    0.42
  -4  -1 -14    6.00    0.33
  -4  -1 -14    5.77    0.38
  -4   1 -14    6.44    0.38
  -4   1 -14    5.77    0.34
  -5  -1 -14    1.08    0.19
  -5  -1 -14    0.76    0.18
  -5   1 -14    1.19    0.21
  -5   1 -14    1.15    0.20
  -6  -2  14    3.12    0.33
  -6   2  14    2.67    0.31
  -5  -2  14    0.17    0.13
  -5   2  14    0.27    0.13
   4  -2 -14    0.27    0.12
  -4  -2  14    0.26    0.13
  -4   2  14    0.34    0.14
   3  -2 -14    3.31    0.31
  -3  -2  14    3.47    0.32
   3   2 -14    3.89    0.30
  -3   2  14    3.58    0.29
  -2  -2  14    0.18    0.11
   2  -2 -14    0.16    0.11
   2   2 -14    0.03    0.08
  -2   2  14    0.14    0.10
  -1  -2  14    0.12    0.10
   1  -2 -14   -0.05    0.08
  -1   2  14    0.00    0.08
   1   2 -14    0.09    0.09
   1   2 -14    0.06    0.08
   0  -2  14    6.91    0.34
   0  -2 -14    6.64    0.39
   0   2 -14    6.76    0.37
   0   2  14    7.01    0.33
   0   2 -14    7.23    0.36
  -1  -2 -14    1.13    0.20
   1  -2  14    1.37    0.18
  -1   2 -14    1.36    0.20
  -1   2 -14    1.72    0.21
   1   2  14    1.48    0.18
   2  -2  14    0.98    0.16
  -2  -2 -14    1.53    0.22
  -2   2 -14    1.45    0.20
  -2   2 -14    0.88    0.17
  -3  -2 -14    0.37    0.14
  -3  -2 -14    0.30    0.11
  -3   2 -14    0.24    0.12
  -3   2 -14    0.18    0.11
  -4  -2 -14    0.85    0.18
  -4  -2 -14    0.94    0.17
  -4   2 -14    0.78    0.17
  -4   2 -14    1.09    0.19
  -5  -2 -14    0.02    0.09
  -5  -2 -14    0.02    0.11
  -5   2 -14    0.11    0.10
  -5   2 -14    0.06    0.10
  -6  -3  14   -0.05    0.11
  -6   3  14    0.12    0.13
  -5  -3  14    3.21    0.33
   5  -3 -14    3.08    0.33
  -5   3  14    3.20    0.33
   4  -3 -14    1.05    0.20
  -4  -3  14    0.95    0.20
  -4   3  14    1.25    0.22
   3  -3 -14    0.28    0.13
  -3  -3  14    0.31    0.14
  -3   3  14    0.60    0.16
   3   3 -14    0.34    0.13
  -2  -3  14    5.24    0.33
   2  -3 -14    5.33    0.36
  -2   3  14    5.34    0.33
   2   3 -14    5.33    0.33
  -1  -3  14    2.25    0.25
   1  -3 -14    2.35    0.27
   1   3 -14    1.84    0.23
   1   3 -14    2.07    0.23
  -1   3  14    2.10    0.24
   0  -3 -14    0.32    0.14
   0  -3  14    0.30    0.11
   0   3 -14    0.28    0.11
   0   3  14    0.31    0.11
   0   3 -14    0.27    0.11
  -1  -3 -14    2.11    0.27
   1  -3  14    2.36    0.23
  -1   3 -14    2.12    0.24
  -1   3 -14    1.96    0.24
   1   3  14    2.38    0.23
  -2  -3 -14   17.92    0.63
   2  -3  14   17.12    0.51
  -2   3 -14   16.41    0.56
  -2   3 -14   16.58    0.57
  -3  -3 -14   11.58    0.51
  -3   3 -14   11.76    0.49
  -3   3 -14   11.47    0.48
  -4  -3 -14    0.86    0.15
  -4  -3 -14    1.08    0.21
  -4   3 -14    0.81    0.18
  -4   3 -14    1.02    0.20
  -5  -3 -14    8.11    0.38
  -5   3 -14    7.98    0.43
  -5  -4  14    0.16    0.12
   5  -4 -14    0.08    0.11
  -5   4  14    0.23    0.14
  -4  -4  14   10.41    0.48
   4  -4 -14   11.08    0.51
  -4   4  14   10.82    0.49
   3  -4 -14   13.62    0.56
  -3  -4  14   13.39    0.52
  -3   4  14   13.80    0.53
  -2  -4  14    4.21    0.30
   2  -4 -14    4.03    0.34
  -2   4  14    3.47    0.28
   2   4 -14    3.94    0.30
  -1  -4  14    2.47    0.26
   1  -4 -14    2.33    0.27
   1   4 -14    2.14    0.23
   1   4 -14    2.35    0.26
  -1   4  14    2.07    0.24
   0  -4 -14    2.31    0.28
   0  -4  14    2.26    0.24
   0   4 -14    2.23    0.24
   0   4  14    2.23    0.24
   0   4 -14    2.56    0.27
  -1  -4 -14    1.80    0.24
   1  -4  14    2.17    0.23
  -1   4 -14    2.12    0.25
  -1   4 -14    1.69    0.22
   1   4  14    2.01    0.22
  -2  -4 -14    5.30    0.37
   2  -4  14    4.55    0.29
  -2   4 -14    5.27    0.35
  -2   4 -14    4.89    0.32
  -3  -4 -14    2.60    0.29
  -3   4 -14    2.62    0.27
  -3   4 -14    2.49    0.27
  -4  -4 -14    2.31    0.29
  -4   4 -14    1.98    0.26
  -4   4 -14    2.37    0.26
  -5  -5  14   -0.03    0.11
   5  -5 -14    0.11    0.11
  -5   5  14    0.10    0.12
   4  -5 -14    0.14    0.11
  -4  -5  14    0.17    0.12
  -4   5  14    0.22    0.13
   3  -5 -14    0.44    0.16
  -3  -5  14    0.46    0.14
  -3   5  14    0.44    0.14
  -2  -5  14    1.53    0.22
   2  -5 -14    1.70    0.27
  -2   5  14    1.73    0.23
   1  -5 -14    7.44    0.43
  -1  -5  14    6.87    0.38
  -1   5  14    7.29    0.37
   1   5 -14    7.17    0.41
   1   5 -14    7.26    0.36
   0  -5 -14    4.80    0.36
   0  -5  14    4.32    0.30
   0   5  14    4.47    0.29
   0   5 -14    4.13    0.30
   0   5 -14    4.12    0.34
  -1  -5 -14   11.75    0.53
   1  -5  14   11.02    0.44
  -1   5 -14   12.24    0.52
  -1   5 -14   11.05    0.44
   1   5  14   10.88    0.42
  -2  -5 -14    0.39    0.15
   2  -5  14    0.60    0.14
  -2   5 -14    0.34    0.14
  -2   5 -14    0.28    0.12
  -3  -5 -14    2.96    0.31
  -3   5 -14    3.50    0.29
  -3   5 -14    3.17    0.32
  -4  -5 -14    1.05    0.21
  -4   5 -14    1.01    0.20
  -4   5 -14    1.25    0.20
   4  -6 -14    0.59    0.17
  -4  -6  14    0.47    0.15
  -4   6  14    0.56    0.17
   3  -6 -14    0.94    0.20
  -3  -6  14    0.90    0.19
  -3   6  14    0.75    0.18
   2  -6 -14    1.47    0.25
  -2  -6  14    1.30    0.21
  -2   6  14    1.77    0.24
  -1  -6  14    9.27    0.43
   1  -6 -14    9.68    0.50
   1   6 -14   10.52    0.42
   1   6 -14    9.45    0.48
  -1   6  14    9.23    0.42
   0  -6 -14   10.06    0.50
   0  -6  14    9.29    0.42
   0   6 -14   10.27    0.49
   0   6 -14    8.87    0.39
   0   6  14    8.75    0.40
  -1  -6 -14    0.74    0.18
   1  -6  14    0.67    0.15
  -1   6 -14    0.56    0.16
   1   6  14    0.40    0.12
  -1   6 -14    0.66    0.14
  -2  -6 -14    3.40    0.34
   2  -6  14    3.10    0.28
  -2   6 -14    3.24    0.35
  -2   6 -14    3.57    0.28
  -3  -6 -14   -0.01    0.10
  -3   6 -14   -0.07    0.08
  -3   6 -14   -0.11    0.09
  -4  -7  14    7.49    0.43
  -4   7  14    7.45    0.43
   3  -7 -14    0.12    0.12
  -3  -7  14    0.04    0.10
  -3   7  14   -0.04    0.09
  -2  -7  14    0.31    0.14
   2  -7 -14    0.25    0.15
  -2   7  14    0.20    0.13
   1  -7 -14    3.32    0.34
  -1  -7  14    2.84    0.30
   1   7 -14    3.30    0.35
  -1   7  14    3.45    0.32
   0  -7 -14    6.46    0.43
   0  -7  14    6.02    0.36
   0   7 -14    5.62    0.32
   0   7 -14    5.43    0.39
   0   7  14    5.39    0.33
   1  -7  14    0.12    0.10
  -1  -7 -14    0.15    0.13
  -1   7 -14   -0.02    0.08
   1   7  14    0.01    0.08
  -1   7 -14    0.07    0.11
   2  -7  14    0.07    0.09
  -2  -7 -14    0.03    0.12
  -2   7 -14   -0.04    0.10
  -3  -8  14    0.41    0.16
  -3   8  14    0.08    0.12
  -2  -8  14    0.12    0.11
   2  -8 -14    0.20    0.12
   2  -8 -14    0.13    0.14
  -1  -8  14   -0.05    0.09
   1  -8 -14   -0.02    0.11
   1  -8 -14    0.08    0.10
   1   8 -14   -0.06    0.10
   0  -8  14    5.93    0.37
   0  -8 -14    6.78    0.44
   0   8  14    6.36    0.35
   0   8 -14    5.94    0.42
   1  -8  14    0.91    0.18
  -1  -8 -14    1.00    0.22
   1   8  14    0.98    0.17
  -1   8 -14    1.23    0.24
  -5   0  15    0.14    0.12
   4   0 -15    0.07    0.10
  -4   0  15    0.01    0.10
   3   0 -15    0.16    0.12
  -3   0  15   -0.07    0.08
  -2   0  15    0.02    0.09
   2   0 -15   -0.10    0.08
  -1   0  15    0.10    0.10
   1   0 -15   -0.02    0.09
   0   0 -15    0.10    0.11
   0   0  15    0.03    0.09
   1   0  15    0.01    0.09
  -1   0 -15    0.03    0.10
  -2   0 -15    0.11    0.10
  -2   0 -15    0.19    0.12
  -3   0 -15    0.06    0.10
  -3   0 -15    0.04    0.09
  -5  -1  15    1.04    0.21
  -5   1  15    0.87    0.21
  -4  -1  15    2.17    0.27
   4  -1 -15    2.04    0.27
  -4   1  15    2.04    0.27
  -3  -1  15    1.33    0.21
   3  -1 -15    1.90    0.25
  -3   1  15    1.55    0.23
   3   1 -15    1.42    0.22
   2  -1 -15    1.32    0.22
  -2  -1  15    1.31    0.20
  -2   1  15    1.30    0.20
   2   1 -15    1.33    0.21
   1  -1 -15    0.66    0.17
  -1  -1  15    0.50    0.14
   1   1 -15    0.28    0.13
  -1   1  15    0.48    0.14
   0  -1 -15    5.14    0.36
   0  -1  15    6.42    0.34
   0   1 -15    5.43    0.36
   0   1  15    5.97    0.32
  -1  -1 -15    9.42    0.46
   1  -1  15    9.21    0.39
   1   1  15    9.68    0.39
  -1   1 -15    9.78    0.46
  -1   1 -15    9.40    0.41
  -2  -1 -15   14.44    0.57
  -2   1 -15   13.10    0.49
  -2   1 -15   13.77    0.55
  -3  -1 -15   10.10    0.49
  -3   1 -15   10.43    0.48
  -3   1 -15   10.24    0.44
  -5  -2  15   16.53    0.63
   4  -2 -15    9.58    0.48
  -4  -2  15    9.23    0.46
  -4   2  15    8.42    0.44
  -3  -2  15    1.01    0.20
   3  -2 -15    0.54    0.16
   3   2 -15    0.88    0.19
  -3   2  15    1.07    0.20
  -2  -2  15    0.13    0.10
   2  -2 -15    0.12    0.11
   2   2 -15    0.32    0.13
  -2   2  15    0.03    0.09
   1  -2 -15    4.92    0.37
  -1  -2  15    4.56    0.31
   1   2 -15    5.16    0.35
   1   2 -15    5.50    0.36
  -1   2  15    4.86    0.31
   0  -2 -15    4.39    0.35
   0  -2  15    5.29    0.32
   0   2  15    5.15    0.31
   0   2 -15    5.12    0.35
   0   2 -15    5.10    0.33
   1  -2  15    4.35    0.29
  -1  -2 -15    4.42    0.36
  -1   2 -15    4.07    0.32
  -1   2 -15    4.44    0.32
   1   2  15    4.19    0.27
  -2  -2 -15   -0.10    0.09
  -2   2 -15    0.09    0.10
  -2   2 -15    0.26    0.12
  -3  -2 -15    1.23    0.22
  -3   2 -15    1.26    0.20
  -3   2 -15    1.42    0.22
  -4  -3  15    3.09    0.33
   4  -3 -15    3.52    0.36
  -4   3  15    3.50    0.36
   3  -3 -15    5.61    0.40
  -3  -3  15    5.66    0.35
   3   3 -15    5.70    0.37
  -3   3  15    4.91    0.34
   2  -3 -15    0.24    0.13
  -2  -3  15    0.65    0.16
  -2   3  15    0.38    0.14
   2   3 -15    0.59    0.15
   1  -3 -15    4.17    0.37
  -1  -3  15    4.79    0.32
   1   3 -15    4.51    0.33
   1   3 -15    4.27    0.33
  -1   3  15    4.66    0.31
   0  -3 -15    0.12    0.11
   0  -3  15   -0.06    0.09
   0   3 -15    0.05    0.10
   0   3 -15    0.08    0.11
   0   3  15   -0.15    0.07
   1  -3  15    8.58    0.39
  -1  -3 -15    8.39    0.46
  -1   3 -15    8.42    0.42
   1   3  15    7.82    0.36
  -1   3 -15    8.35    0.41
  -2  -3 -15    5.51    0.39
  -2   3 -15    4.67    0.33
  -2   3 -15    5.50    0.35
  -3  -3 -15    0.80    0.19
  -3   3 -15    0.71    0.17
  -3   3 -15    0.64    0.16
  -4  -4  15    0.27    0.14
   4  -4 -15    0.53    0.16
  -4   4  15    0.40    0.14
  -3  -4  15    2.74    0.29
   3  -4 -15    2.89    0.32
  -3   4  15    2.91    0.30
  -2  -4  15   13.60    0.52
   2  -4 -15   14.04    0.58
  -2   4  15   14.03    0.53
   2   4 -15   13.28    0.52
   1  -4 -15    3.98    0.38
  -1  -4  15    4.54    0.31
   1   4 -15    4.19    0.32
  -1   4  15    3.88    0.30
   1   4 -15    3.61    0.32
   0  -4  15    1.52    0.21
   0  -4 -15    1.83    0.27
   0   4 -15    1.44    0.21
   0   4  15    1.56    0.21
   0   4 -15    1.57    0.23
   1  -4  15    2.99    0.28
  -1  -4 -15    2.60    0.30
  -1   4 -15    3.05    0.31
  -1   4 -15    2.54    0.27
  -2  -4 -15    0.26    0.13
  -2   4 -15    0.26    0.12
  -2   4 -15    0.20    0.12
  -3  -5  15    2.18    0.28
   3  -5 -15    2.40    0.30
  -3   5  15    1.81    0.26
   2  -5 -15    4.00    0.37
  -2  -5  15    4.60    0.33
  -2   5  15    4.11    0.32
   1  -5 -15    0.66    0.18
  -1  -5  15    0.77    0.17
   1   5 -15    0.91    0.17
  -1   5  15    0.83    0.17
   1   5 -15    0.86    0.18
   0  -5  15    0.51    0.15
   0  -5 -15    0.49    0.17
   0   5  15    0.55    0.15
   0   5 -15    0.44    0.13
   0   5 -15    0.37    0.16
   1  -5  15    5.51    0.34
  -1  -5 -15    6.56    0.43
  -1   5 -15    6.06    0.40
  -1   5 -15    5.45    0.35
  -2  -5 -15    0.36    0.15
  -2   5 -15    0.45    0.13
  -2   5 -15    0.43    0.15
  -2  -6  15    7.23    0.41
   2  -6 -15    6.75    0.43
  -2   6  15    6.85    0.39
   1  -6 -15    3.25    0.34
  -1  -6  15    2.91    0.31
  -1   6  15    2.74    0.28
   1   6 -15    2.79    0.27
   1   6 -15    3.25    0.33
   0  -6 -15    2.31    0.30
   0  -6  15    2.27    0.27
   0   6 -15    2.27    0.29
   0   6 -15    2.30    0.24
   0   6  15    2.04    0.25
  -1  -6 -15   -0.04    0.10
   1  -6  15    0.05    0.10
  -1   6 -15   -0.03    0.10
  -3   0  16   -0.02    0.10
  -2   0  16    6.45    0.37
   2   0 -16    6.31    0.41
   1   0 -16   11.14    0.52
  -1   0  16   11.89    0.48
   0   0  16    2.23    0.25
   0   0 -16    2.11    0.27
  -1   0 -16    9.52    0.47
  -2  -1  16    5.14    0.35
   2  -1 -16    5.16    0.39
  -2   1  16    5.36    0.35
   2   1 -16    5.10    0.38
  -1  -1  16    6.47    0.37
   1  -1 -16    7.03    0.42
  -1   1  16    7.00    0.37
   1   1 -16    6.83    0.42
   0  -1 -16    2.81    0.31
   0  -1  16    2.49    0.26
   0   1 -16    2.56    0.29
   0   1  16    2.92    0.27
  -1  -1 -16    0.11    0.12
  -1   1 -16   -0.06    0.09
  -2  -2  16   -0.05    0.10
  -2   2  16    0.01    0.10
   1  -2 -16    1.91    0.27
  -1  -2  16    1.31    0.21
   1   2 -16    1.72    0.24
  -1   2  16    1.53    0.22
   0  -2 -16    0.09    0.12
   0  -2  16    0.09    0.10
   0   2  16    0.08    0.10
   0   2 -16   -0.05    0.09
  -1  -3  16    2.30    0.27
  -1   3  16    2.87    0.29
   0  -3  16    4.04    0.30
   0   3  16    4.22    0.30
   0   0   0    0.00    0.00
;
_shelx_hkl_checksum              83153
loop_
_space_group_symop_operation_xyz
'x, y, z'
'-x, y+1/2, -z+1/2'
'-x, -y, -z'
'x, -y-1/2, z-1/2'
loop_
_atom_site_label
_atom_site_type_symbol
_atom_site_fract_x
_atom_site_fract_y
_atom_site_fract_z
_atom_site_U_iso_or_equiv
_atom_site_adp_type
_atom_site_occupancy
_atom_site_site_symmetry_order
_atom_site_calc_flag
Sn1 Sn 0.61782(3) 0.09452(2) 0.55135(2) 0.02167(6) Uani 1 1 d
Cl1 Cl 0.47163(11) 0.10466(7) 0.70385(7) 0.0393(2) Uani 1 1 d
Cl4 Cl 0.84656(11) 0.02821(7) 0.65938(7) 0.0406(3) Uani 1 1 d
F1 F 0.5904(2) -0.05392(14) 0.54447(15) 0.0327(5) Uani 1 1 d
Sn6 Sn 0.34324(3) 0.44648(2) 0.42873(2) 0.02691(7) Uani 1 1 d
Cl2 Cl 0.44874(11) 0.29068(7) 0.46713(8) 0.0363(2) Uani 1 1 d
Cl5 Cl 0.12224(12) 0.39229(8) 0.52320(9) 0.0492(3) Uani 1 1 d
F2 F 0.4094(2) 0.49727(15) 0.56801(15) 0.0375(5) Uani 1 1 d
Sn2 Sn 0.95247(3) 0.40864(2) 0.71199(2) 0.02550(7) Uani 1 1 d
Cl3 Cl 1.09695(11) 0.27061(7) 0.77458(8) 0.0383(2) Uani 1 1 d
Cl6 Cl 0.77335(12) 0.29424(8) 0.62973(8) 0.0468(3) Uani 1 1 d
Cl7 Cl 0.81209(12) 0.40173(8) 0.86919(8) 0.0453(3) Uani 1 1 d
Cs1 Cs 0.86410(3) 0.64376(2) 0.96093(2) 0.03950(7) Uani 1 1 d
Cs2 Cs 0.43762(3) 0.35876(2) 0.74371(2) 0.03649(7) Uani 1 1 d
Cs3 Cs 0.79805(3) 0.15213(2) 0.87123(2) 0.03812(7) Uani 1 1 d
loop_
_atom_site_aniso_label
_atom_site_aniso_U_11
_atom_site_aniso_U_22
_atom_site_aniso_U_33
_atom_site_aniso_U_23
_atom_site_aniso_U_13
_atom_site_aniso_U_12
Sn1 0.02460(14) 0.02090(13) 0.01944(12) 0.00005(10) 0.00051(11) 0.00225(10)
Cl1 0.0471(6) 0.0406(6) 0.0314(5) 0.0005(4) 0.0140(5) 0.0038(5)
Cl4 0.0393(6) 0.0409(6) 0.0400(6) -0.0039(5) -0.0108(5) 0.0110(5)
F1 0.0358(13) 0.0195(11) 0.0415(13) -0.0018(9) -0.0101(11) 0.0022(9)
Sn6 0.03344(15) 0.02418(14) 0.02336(13) 0.00256(10) 0.00364(12) 0.00633(11)
Cl2 0.0396(6) 0.0249(5) 0.0441(6) 0.0021(4) -0.0001(5) 0.0079(4)
Cl5 0.0429(7) 0.0523(7) 0.0544(7) -0.0004(6) 0.0209(6) -0.0003(5)
F2 0.0483(15) 0.0352(13) 0.0292(11) -0.0081(10) 0.0041(11) -0.0017(11)
Sn2 0.02468(14) 0.02805(14) 0.02365(13) -0.00114(10) 0.00026(11) -0.00429(10)
Cl3 0.0337(6) 0.0399(6) 0.0412(6) 0.0037(5) 0.0014(5) 0.0026(4)
Cl6 0.0471(7) 0.0482(6) 0.0436(6) -0.0056(5) -0.0119(5) -0.0182(5)
Cl7 0.0509(7) 0.0460(6) 0.0412(6) -0.0064(5) 0.0216(5) -0.0037(5)
Cs1 0.04397(17) 0.03299(14) 0.04161(15) 0.00280(11) 0.00310(13) -0.00063(11)
Cs2 0.04406(16) 0.03189(14) 0.03380(13) 0.00142(11) 0.00469(12) -0.00156(11)
Cs3 0.04138(16) 0.03811(15) 0.03533(14) -0.00242(11) 0.00619(13) -0.00909(12)
loop_
_atom_type_symbol
_atom_type_description
_atom_type_scat_dispersion_real
_atom_type_scat_dispersion_imag
_atom_type_scat_source
Cl Cl 0.1480 0.1590 'International Tables Vol C Tables 4.2.6.8 and 6.1.1.4'
Cs Cs -0.3680 2.1190 'International Tables Vol C Tables 4.2.6.8 and 6.1.1.4'
F F 0.0170 0.0100 'International Tables Vol C Tables 4.2.6.8 and 6.1.1.4'
Sn Sn -0.6540 1.4250 'International Tables Vol C Tables 4.2.6.8 and 6.1.1.4'
loop_
_geom_angle_atom_site_label_1
_geom_angle_atom_site_label_2
_geom_angle_atom_site_label_3
_geom_angle
_geom_angle_site_symmetry_1
_geom_angle_site_symmetry_3
F1 Sn1 F1 68.88(8) . 3_656
F1 Sn1 Cl1 91.13(7) . .
F1 Sn1 Cl1 88.72(6) 3_656 .
F1 Sn1 Cl4 76.97(6) . .
F1 Sn1 Cl4 145.84(5) 3_656 .
Cl1 Sn1 Cl4 92.41(3) . .
F1 Sn1 Sn1 36.71(5) . 3_656
F1 Sn1 Sn1 32.16(5) 3_656 3_656
Cl1 Sn1 Sn1 89.83(3) . 3_656
Cl4 Sn1 Sn1 113.68(2) . 3_656
Sn1 Cl4 Sn2 164.13(5) . 2_746
Sn1 F1 Sn1 111.12(8) . 3_656
F2 Sn6 Cl2 91.08(6) . .
F2 Sn6 F2 68.59(10) . 3_666
Cl2 Sn6 F2 84.71(6) . 3_666
F2 Sn6 Cl5 82.59(7) . .
Cl2 Sn6 Cl5 87.99(4) . .
F2 Sn6 Cl5 150.05(5) 3_666 .
F2 Sn6 Sn6 37.75(7) . 3_666
Cl2 Sn6 Sn6 87.12(3) . 3_666
F2 Sn6 Sn6 30.84(5) 3_666 3_666
Cl5 Sn6 Sn6 119.91(3) . 3_666
Sn6 Cl5 Sn2 147.48(5) . 1_455
Sn6 F2 Sn6 111.41(10) . 3_666
Cl3 Sn2 Cl6 89.65(4) . .
Cl3 Sn2 Cl7 89.56(4) . .
Cl6 Sn2 Cl7 88.31(4) . .
Cl3 Sn2 Cl4 85.65(3) . 2_756
Cl6 Sn2 Cl4 170.63(3) . 2_756
Cl7 Sn2 Cl4 83.55(3) . 2_756
Cl3 Sn2 Cl5 85.32(3) . 1_655
Cl6 Sn2 Cl5 87.75(4) . 1_655
Cl7 Sn2 Cl5 173.55(4) . 1_655
Cl4 Sn2 Cl5 99.92(3) 2_756 1_655
loop_
_geom_bond_atom_site_label_1
_geom_bond_atom_site_label_2
_geom_bond_distance
_geom_bond_site_symmetry_2
Sn1 F1 2.126(2) .
Sn1 F1 2.388(2) 3_656
Sn1 Cl1 2.5680(10) .
Sn1 Cl4 2.7319(10) .
Sn1 Sn1 3.7257(5) 3_656
Cl4 Sn2 3.0418(10) 2_746
F1 Sn1 2.388(2) 3_656
Sn6 F2 2.089(2) .
Sn6 Cl2 2.4758(9) .
Sn6 F2 2.495(2) 3_666
Sn6 Cl5 2.6484(12) .
Sn6 Sn6 3.7941(5) 3_666
Cl5 Sn2 3.1204(12) 1_455
F2 Sn6 2.495(2) 3_666
Sn2 Cl3 2.5188(10) .
Sn2 Cl6 2.5705(10) .
Sn2 Cl7 2.5877(11) .
Sn2 Cl4 3.0418(10) 2_756
Sn2 Cl5 3.1204(12) 1_655
